drugbank_target|P16218 Endoglucanase H (DB08785)
 OpenBabel12092120533D

  0  0  0     0  0            999 V3000
M  V30 BEGIN CTAB
M  V30 COUNTS 14191 14398 0 0 0
M  V30 BEGIN ATOM
M  V30 1 H -0.908 1.98254 -0.117106 0
M  V30 2 N 0 1.576 0 0
M  V30 3 C 0.933 2.03868 1.02534 0
M  V30 4 C 1.911 0.928543 1.3348 0
M  V30 5 O 3.095 1.19667 1.45644 0
M  V30 6 C 0.222 2.43627 2.35294 0
M  V30 7 C -0.732 3.65373 2.2001 0
M  V30 8 S 0.101 5.13292 1.52614 0
M  V30 9 C 1.257 5.56322 2.86805 0
M  V30 10 H 1.49 2.90518 0.631377 0
M  V30 11 H -0.977 1.52953 0.210867 0
M  V30 12 H 0.981 2.67203 3.11629 0
M  V30 13 H -0.358 1.57376 2.7183 0
M  V30 14 H -1.165 3.90944 3.18086 0
M  V30 15 H -1.563 3.418 1.51819 0
M  V30 16 H 0.729 5.58782 3.83104 0
M  V30 17 H 1.672 6.56266 2.65933 0
M  V30 18 H 2.08 4.83886 2.90714 0
M  V30 19 N 1.4781 -0.272755 1.55222 0
M  V30 20 C 2.4251 -1.33716 1.88119 0
M  V30 21 C 3.3951 -1.49066 0.73271 0
M  V30 22 O 4.5801 -1.63469 0.984002 0
M  V30 23 C 1.7201 -2.69238 2.15882 0
M  V30 24 C 0.8331 -2.62108 3.43399 0
M  V30 25 C -0.0319 -3.89811 3.60861 0
M  V30 26 C -0.9929 -3.77193 4.8207 0
M  V30 27 N -1.8559 -4.9673 4.96189 0
M  V30 28 H 2.9841 -1.04962 2.78903 0
M  V30 29 H 0.5211 -0.507088 1.38083 0
M  V30 30 H 2.4791 -3.48089 2.29978 0
M  V30 31 H 1.1091 -2.96194 1.28331 0
M  V30 32 H 0.1611 -1.74967 3.37773 0
M  V30 33 H 1.4731 -2.48685 4.32386 0
M  V30 34 H 0.6271 -4.77103 3.74777 0
M  V30 35 H -0.6339 -4.06102 2.7006 0
M  V30 36 H -1.6289 -2.88284 4.68159 0
M  V30 37 H -0.4039 -3.62421 5.74307 0
M  V30 38 H -2.4579 -5.13431 4.08319 0
M  V30 39 H -2.5409 -4.85839 5.79221 0
M  V30 40 H -1.2729 -5.85594 5.1449 0
M  V30 41 N 2.9562 -1.48159 -0.537278 0
M  V30 42 C 3.9032 -1.62138 -1.64256 0
M  V30 43 C 4.8732 -0.463668 -1.59497 0
M  V30 44 O 6.0582 -0.686241 -1.78032 0
M  V30 45 C 3.1982 -1.66028 -3.02537 0
M  V30 46 C 2.3112 -2.92855 -3.17585 0
M  V30 47 C 1.4462 -2.87952 -4.46382 0
M  V30 48 C 0.4852 -4.09516 -4.54932 0
M  V30 49 N -0.3778 -4.02733 -5.75109 0
M  V30 50 H 4.4622 -2.56529 -1.51647 0
M  V30 51 H 1.9992 -1.27224 -0.738414 0
M  V30 52 H 3.9572 -1.66265 -3.82638 0
M  V30 53 H 2.5872 -0.751331 -3.13934 0
M  V30 54 H 1.6392 -3.02395 -2.30784 0
M  V30 55 H 2.9512 -3.82822 -3.19764 0
M  V30 56 H 2.1052 -2.8655 -5.34765 0
M  V30 57 H 0.8442 -1.95702 -4.46712 0
M  V30 58 H -0.1508 -4.11201 -3.64957 0
M  V30 59 H 1.0742 -5.02917 -4.56346 0
M  V30 60 H -0.9798 -3.13299 -5.76351 0
M  V30 61 H -1.0628 -4.86397 -5.78752 0
M  V30 62 H 0.2052 -4.05379 -6.65799 0
M  V30 63 N 4.4343 0.785586 -1.36625 0
M  V30 64 C 5.8503 1.08419 -1.17122 0
M  V30 65 C 6.0503 2.015 0.00208491 0
M  V30 66 O 5.1063 2.43551 0.666278 0
M  V30 67 C 6.4193 1.69498 -2.48377 0
M  V30 68 C 7.9673 1.81821 -2.54775 0
M  V30 69 C 8.4423 2.46315 -3.86126 0
M  V30 70 N 9.9333 2.53779 -3.87492 0
M  V30 71 C 10.6683 3.045 -4.85868 0
M  V30 72 N 10.1643 3.55499 -5.94637 0
M  V30 73 N 11.9573 3.03247 -4.73284 0
M  V30 74 H 4.1083 0.167264 -2.1174 0
M  V30 75 H 6.3713 0.13682 -0.938075 0
M  V30 76 H 6.0773 1.08571 -3.34522 0
M  V30 77 H 5.9513 2.6896 -2.64462 0
M  V30 78 H 8.3383 2.41884 -1.69045 0
M  V30 79 H 8.4193 0.811532 -2.42586 0
M  V30 80 H 8.0633 1.86895 -4.72263 0
M  V30 81 H 7.9933 3.47561 -3.95612 0
M  V30 82 H 10.4843 2.17672 -3.08913 0
M  V30 83 H 10.7973 3.92562 -6.65669 0
M  V30 84 H 9.1423 3.5364 -5.98301 0
M  V30 85 H 12.3333 2.62696 -3.87438 0
M  V30 86 H 12.5063 3.42467 -5.50109 0
M  V30 87 N 5.9124 1.20967 1.01018 0
M  V30 88 C 6.8424 0.988272 2.11555 0
M  V30 89 C 7.8234 -0.0849778 1.69888 0
M  V30 90 O 9.0084 0.0738202 1.9406 0
M  V30 91 C 6.1384 0.546528 3.42973 0
M  V30 92 C 5.0924 1.56375 3.9841 0
M  V30 93 C 4.4184 0.97842 5.25672 0
M  V30 94 C 5.7184 2.94922 4.31066 0
M  V30 95 H 7.4124 1.91276 2.30334 0
M  V30 96 H 4.9584 0.921073 1.1069 0
M  V30 97 H 6.9114 0.378839 4.19694 0
M  V30 98 H 5.6354 -0.413598 3.23971 0
M  V30 99 H 4.2944 1.71891 3.23804 0
M  V30 100 H 3.9424 0.0101688 5.02999 0
M  V30 101 H 3.6424 1.65784 5.63728 0
M  V30 102 H 5.1664 0.821939 6.05043 0
M  V30 103 H 6.5804 2.8288 4.9865 0
M  V30 104 H 4.9774 3.5983 4.80253 0
M  V30 105 H 6.0474 3.4616 3.39561 0
M  V30 106 N 7.3905 -1.2043 1.01659 0
M  V30 107 C 8.3205 -2.25466 0.607226 0
M  V30 108 C 9.3015 -1.65853 -0.377716 0
M  V30 109 O 10.4865 -1.92409 -0.263149 0
M  V30 110 C 7.6165 -3.47256 -0.0552949 0
M  V30 111 C 6.5705 -4.19462 0.850632 0
M  V30 112 C 5.8965 -5.34673 0.0538859 0
M  V30 113 C 7.1965 -4.75603 2.15868 0
M  V30 114 H 8.8905 -2.59962 1.48526 0
M  V30 115 H 6.4365 -1.2496 0.715605 0
M  V30 116 H 8.3895 -4.19917 -0.353233 0
M  V30 117 H 7.1135 -3.11924 -0.968045 0
M  V30 118 H 5.7725 -3.48667 1.13257 0
M  V30 119 H 5.4205 -4.95585 -0.860514 0
M  V30 120 H 5.1205 -5.83913 0.657192 0
M  V30 121 H 6.6445 -6.10138 -0.237598 0
M  V30 122 H 8.0585 -5.40083 1.92311 0
M  V30 123 H 6.4555 -5.3528 2.71284 0
M  V30 124 H 7.5255 -3.94346 2.82169 0
M  V30 125 N 8.8686 -0.792821 -1.36206 0
M  V30 126 C 10.1146 -0.36733 -1.99446 0
M  V30 127 C 10.4476 1.05917 -1.62774 0
M  V30 128 O 9.7226 1.7324 -0.88421 0
M  V30 129 C 10.0056 -0.535044 -3.56103 0
M  V30 130 C 9.8586 -2.00548 -4.02617 0
M  V30 131 C 11.1776 0.0478191 -4.40074 0
M  V30 132 H 8.2966 -0.134941 -0.724541 0
M  V30 133 H 10.9386 -0.999794 -1.61568 0
M  V30 134 H 9.0886 0.00336329 -3.885 0
M  V30 135 H 10.7606 -2.60521 -3.80692 0
M  V30 136 H 9.0036 -2.50686 -3.54032 0
M  V30 137 H 9.6746 -2.07377 -5.11565 0
M  V30 138 H 12.1506 -0.411822 -4.14057 0
M  V30 139 H 11.0266 -0.0995336 -5.4881 0
M  V30 140 H 11.2876 1.14025 -4.27142 0
M  V30 141 N 10.3467 1.47872 -0.545128 0
M  V30 142 C 11.5717 2.07391 -0.0190611 0
M  V30 143 C 11.9967 1.39688 1.25971 0
M  V30 144 O 11.3547 0.467816 1.7516 0
M  V30 145 C 11.4027 3.60188 0.172335 0
M  V30 146 O 10.5067 3.9339 1.23766 0
M  V30 147 H 9.8477 0.662411 -0.0459059 0
M  V30 148 H 12.3777 1.90066 -0.757365 0
M  V30 149 H 12.3877 4.06129 0.390305 0
M  V30 150 H 11.0627 4.08865 -0.761725 0
M  V30 151 H 9.6397 3.5921 1.00114 0
M  V30 152 N 11.8248 0.280983 1.55075 0
M  V30 153 C 13.0718 -0.334115 1.99725 0
M  V30 154 C 13.3998 -1.5542 1.1694 0
M  V30 155 O 12.6548 -1.94361 0.228531 0
M  V30 156 C 12.9538 -0.754656 3.49342 0
M  V30 157 C 12.6198 0.361445 4.49449 0
M  V30 158 C 11.2818 0.667893 4.76542 0
M  V30 159 C 13.6338 1.11322 5.09173 0
M  V30 160 C 10.9618 1.7296 5.60626 0
M  V30 161 C 13.3138 2.1647 5.9441 0
M  V30 162 C 11.9778 2.47742 6.19822 0
M  V30 163 H 11.2478 -0.122261 0.730844 0
M  V30 164 H 13.8948 0.395917 1.87363 0
M  V30 165 H 12.1998 -1.56446 3.5921 0
M  V30 166 H 13.8968 -1.24142 3.813 0
M  V30 167 H 10.4868 0.112481 4.28452 0
M  V30 168 H 14.6708 0.88973 4.8826 0
M  V30 169 H 9.9268 1.97684 5.78559 0
M  V30 170 H 14.1008 2.75193 6.3972 0
M  V30 171 H 11.7278 3.30145 6.84769 0
M  V30 172 N 13.3029 -1.57598 0.00835791 0
M  V30 173 C 14.2329 -2.1198 -0.979113 0
M  V30 174 C 15.2139 -1.03091 -1.35301 0
M  V30 175 O 16.3989 -1.30818 -1.43528 0
M  V30 176 C 13.5289 -2.62995 -2.26828 0
M  V30 177 C 12.4829 -3.76485 -2.03576 0
M  V30 178 C 11.8089 -4.13846 -3.38579 0
M  V30 179 C 13.1089 -5.0342 -1.39161 0
M  V30 180 H 14.8029 -2.94738 -0.526281 0
M  V30 181 H 12.3489 -1.41783 -0.251704 0
M  V30 182 H 14.3019 -2.99669 -2.96271 0
M  V30 183 H 13.0259 -1.7737 -2.7424 0
M  V30 184 H 11.6849 -3.40217 -1.36557 0
M  V30 185 H 11.3329 -3.25232 -3.83709 0
M  V30 186 H 11.0329 -4.90312 -3.23834 0
M  V30 187 H 12.5569 -4.53086 -4.09323 0
M  V30 188 H 13.9709 -5.37812 -1.98573 0
M  V30 189 H 12.3679 -5.84746 -1.34878 0
M  V30 190 H 13.4379 -4.83548 -0.361868 0
M  V30 191 N 14.781 0.264519 -1.55364 0
M  V30 192 C 16.027 0.99646 -1.76631 0
M  V30 193 C 16.36 1.85632 -0.570478 0
M  V30 194 O 15.635 1.89647 0.43175 0
M  V30 195 C 15.918 1.87187 -3.07625 0
M  V30 196 C 15.771 1.04138 -4.37579 0
M  V30 197 C 17.09 2.85749 -3.34717 0
M  V30 198 H 14.209 0.360841 -0.642622 0
M  V30 199 H 16.851 0.268218 -1.88097 0
M  V30 200 H 15.001 2.49279 -2.9798 0
M  V30 201 H 16.673 0.440517 -4.59192 0
M  V30 202 H 14.916 0.345115 -4.32425 0
M  V30 203 H 15.587 1.68729 -5.2558 0
M  V30 204 H 18.063 2.33793 -3.4421 0
M  V30 205 H 16.939 3.44136 -4.27623 0
M  V30 206 H 17.2 3.61311 -2.54768 0
M  V30 207 N 16.2591 1.48442 0.529413 0
M  V30 208 C 17.1891 1.65902 1.64313 0
M  V30 209 C 18.1701 0.507897 1.6234 0
M  V30 210 O 19.3551 0.740503 1.79528 0
M  V30 211 C 16.4851 1.69911 3.02898 0
M  V30 212 C 15.4391 2.8453 3.19729 0
M  V30 213 C 14.7651 2.73629 4.59381 0
M  V30 214 C 16.0651 4.25821 3.02447 0
M  V30 215 H 17.7591 2.5914 1.49955 0
M  V30 216 H 15.3051 1.24709 0.719982 0
M  V30 217 H 17.2581 1.80715 3.80684 0
M  V30 218 H 15.9821 0.732524 3.18279 0
M  V30 219 H 14.6411 2.73283 2.44361 0
M  V30 220 H 14.2891 1.74938 4.71599 0
M  V30 221 H 13.9891 3.50541 4.71588 0
M  V30 222 H 15.5131 2.86401 5.39265 0
M  V30 223 H 16.9271 4.37898 3.70024 0
M  V30 224 H 15.3241 5.03735 3.26146 0
M  V30 225 H 16.3941 4.42244 1.98867 0
M  V30 226 N 17.7372 -0.778329 1.37039 0
M  V30 227 C 18.9622 -1.57248 1.35233 0
M  V30 228 C 19.3872 -1.87999 -0.0615568 0
M  V30 229 O 18.7452 -1.48734 -1.03672 0
M  V30 230 C 18.7932 -2.86353 2.19167 0
M  V30 231 O 17.8972 -3.80442 1.59178 0
M  V30 232 H 17.2382 -0.476569 0.462362 0
M  V30 233 H 19.7682 -0.963853 1.80474 0
M  V30 234 H 19.7782 -3.35519 2.32145 0
M  V30 235 H 18.4532 -2.63299 3.21942 0
M  V30 236 H 17.0302 -3.39067 1.55203 0
M  V30 237 N 19.2153 -1.21501 -1.00376 0
M  V30 238 C 20.4643 -1.02718 -1.73586 0
M  V30 239 C 20.7773 0.439589 -1.90596 0
M  V30 240 O 21.9833 0.746848 -2.61026 0
M  V30 241 C 20.4393 -1.78929 -3.1227 0
M  V30 242 C 20.0473 -3.29783 -3.03228 0
M  V30 243 C 21.7913 -1.68557 -3.89601 0
M  V30 244 C 19.6983 -3.98479 -4.36999 0
M  V30 245 H 18.6283 -0.380733 -0.650814 0
M  V30 246 H 21.2793 -1.45248 -1.1214 0
M  V30 247 H 19.6613 -1.29192 -3.74333 0
M  V30 248 H 20.8353 -3.86832 -2.50395 0
M  V30 249 H 19.1503 -3.40711 -2.39385 0
M  V30 250 H 21.7473 -2.17211 -4.88593 0
M  V30 251 H 22.0903 -0.644021 -4.11288 0
M  V30 252 H 22.6233 -2.15778 -3.34193 0
M  V30 253 H 19.3623 -5.02841 -4.20513 0
M  V30 254 H 18.8823 -3.46219 -4.89788 0
M  V30 255 H 20.5613 -4.03462 -5.05794 0
M  V30 256 N 20.6934 1.19889 -1.02296 0
M  V30 257 C 21.9424 1.88743 -0.711257 0
M  V30 258 C 22.2554 1.80112 0.762817 0
M  V30 259 O 23.4614 2.44161 1.18733 0
M  V30 260 C 21.9174 3.38525 -1.22185 0
M  V30 261 C 21.5254 3.55727 -2.72328 0
M  V30 262 C 23.2694 4.12893 -0.985864 0
M  V30 263 C 21.1764 4.99369 -3.16835 0
M  V30 264 H 20.1064 0.706885 -0.262353 0
M  V30 265 H 22.7574 1.35586 -1.23648 0
M  V30 266 H 21.1394 3.91044 -0.624571 0
M  V30 267 H 22.3134 3.13564 -3.3766 0
M  V30 268 H 20.6284 2.94739 -2.9414 0
M  V30 269 H 23.2254 5.18813 -1.29374 0
M  V30 270 H 23.5684 4.16228 0.0775055 0
M  V30 271 H 24.1014 3.66494 -1.54684 0
M  V30 272 H 20.8404 5.01193 -4.22476 0
M  V30 273 H 20.3604 5.42317 -2.56228 0
M  V30 274 H 22.0394 5.67988 -3.09837 0
M  V30 275 N 22.1715 0.800033 1.35784 0
M  V30 276 C 23.4175 0.377901 1.99248 0
M  V30 277 C 23.7505 -1.05052 1.63333 0
M  V30 278 O 23.0255 -1.72768 0.893385 0
M  V30 279 C 23.3085 0.553922 3.55814 0
M  V30 280 C 23.1615 2.0268 4.01548 0
M  V30 281 C 24.4805 -0.0244802 4.40093 0
M  V30 282 H 21.5995 0.138782 0.723815 0
M  V30 283 H 24.2415 1.00835 1.61035 0
M  V30 284 H 22.3915 0.0172398 3.88496 0
M  V30 285 H 24.0635 2.62536 3.79305 0
M  V30 286 H 22.3065 2.5256 3.52698 0
M  V30 287 H 22.9775 2.10087 5.10458 0
M  V30 288 H 25.4535 0.433775 4.13833 0
M  V30 289 H 24.3295 0.128637 5.48749 0
M  V30 290 H 24.5905 -1.11758 4.27741 0
M  V30 291 N 23.6496 -1.47581 0.552962 0
M  V30 292 C 24.8976 -2.02082 0.0272703 0
M  V30 293 C 25.2186 -1.4301 -1.32563 0
M  V30 294 O 24.4886 -0.603745 -1.86365 0
M  V30 295 H 23.0686 -0.746966 0.00709182 0
M  V30 296 H 25.7306 -1.81033 0.722008 0
M  V30 297 H 24.8266 -3.12034 -0.0639951 0
M  V30 298 N 25.1277 -0.289203 -1.54924 0
M  V30 299 C 26.0577 0.58549 -2.2604 0
M  V30 300 C 27.0387 1.14753 -1.25562 0
M  V30 301 O 28.2237 1.17906 -1.54311 0
M  V30 302 C 25.3537 1.76305 -2.99222 0
M  V30 303 C 24.3077 1.33191 -4.06748 0
M  V30 304 C 23.6337 2.5937 -4.6758 0
M  V30 305 C 24.9337 0.471775 -5.20165 0
M  V30 306 H 26.6277 -0.00763532 -2.99399 0
M  V30 307 H 24.1737 -0.00511229 -1.43999 0
M  V30 308 H 26.1267 2.38097 -3.47689 0
M  V30 309 H 24.8507 2.38223 -2.23422 0
M  V30 310 H 23.5097 0.737121 -3.59113 0
M  V30 311 H 23.1577 3.19576 -3.88433 0
M  V30 312 H 22.8577 2.31228 -5.40192 0
M  V30 313 H 24.3817 3.21985 -5.18804 0
M  V30 314 H 25.7957 0.995056 -5.64599 0
M  V30 315 H 24.1927 0.284639 -5.99425 0
M  V30 316 H 25.2627 -0.506041 -4.82252 0
M  V30 317 N 26.6058 1.57591 -0.0167156 0
M  V30 318 C 27.5358 2.12496 0.967858 0
M  V30 319 C 28.5168 1.03807 1.34752 0
M  V30 320 O 29.7018 1.31577 1.42833 0
M  V30 321 C 26.8318 2.64194 2.25431 0
M  V30 322 C 25.7858 3.77559 2.01576 0
M  V30 323 C 25.1118 4.15636 3.36379 0
M  V30 324 C 26.4118 5.04151 1.36489 0
M  V30 325 H 28.1058 2.95013 0.510643 0
M  V30 326 H 25.6518 1.41915 0.244181 0
M  V30 327 H 27.6048 3.01236 2.94678 0
M  V30 328 H 26.3288 1.78821 2.73296 0
M  V30 329 H 24.9878 3.40937 1.34751 0
M  V30 330 H 24.6358 3.27263 3.81979 0
M  V30 331 H 24.3358 4.92022 3.21229 0
M  V30 332 H 25.8598 4.5525 4.06915 0
M  V30 333 H 27.2738 5.38857 1.95718 0
M  V30 334 H 25.6708 5.85453 1.31776 0
M  V30 335 H 26.7408 4.83733 0.336219 0
M  V30 336 N 28.0839 -0.256276 1.55502 0
M  V30 337 C 29.3089 -1.00766 1.81276 0
M  V30 338 C 29.7339 -1.78524 0.59252 0
M  V30 339 O 29.0919 -1.75413 -0.45827 0
M  V30 340 C 29.1399 -1.92869 3.04687 0
M  V30 341 O 28.2439 -3.019 2.80945 0
M  V30 342 H 27.5849 -0.287224 0.598664 0
M  V30 343 H 30.1149 -0.280109 2.02674 0
M  V30 344 H 30.1249 -2.34511 3.33869 0
M  V30 345 H 28.7999 -1.35689 3.93143 0
M  V30 346 H 27.3769 -2.64454 2.62904 0
M  V30 347 N 29.562 -1.4872 -0.521534 0
M  V30 348 C 30.809 -1.57168 -1.27689 0
M  V30 349 C 31.137 -0.249275 -1.92896 0
M  V30 350 O 30.392 0.761162 -1.80291 0
M  V30 351 C 30.691 -2.66497 -2.38148 0
M  V30 352 C 30.357 -4.08664 -1.90538 0
M  V30 353 C 29.019 -4.47357 -1.77271 0
M  V30 354 C 31.371 -4.97724 -1.54663 0
M  V30 355 C 28.699 -5.72905 -1.26478 0
M  V30 356 C 31.051 -6.2377 -1.05329 0
M  V30 357 C 29.715 -6.61311 -0.906861 0
M  V30 358 H 28.985 -0.575117 -0.467249 0
M  V30 359 H 31.632 -1.82472 -0.581051 0
M  V30 360 H 29.937 -2.35085 -3.13437 0
M  V30 361 H 31.634 -2.70246 -2.96257 0
M  V30 362 H 28.224 -3.78111 -2.01816 0
M  V30 363 H 32.408 -4.68501 -1.63768 0
M  V30 364 H 27.664 -6.00709 -1.13835 0
M  V30 365 H 31.838 -6.9217 -0.76644 0
M  V30 366 H 29.465 -7.5848 -0.511083 0
M  V30 367 N 31.0401 0.771051 -1.3745 0
M  V30 368 C 31.9721 1.89352 -1.29146 0
M  V30 369 C 32.9851 1.61477 -0.207124 0
M  V30 370 O 34.1741 1.72382 -0.463324 0
M  V30 371 C 31.2741 3.24596 -0.974195 0
M  V30 372 C 30.4471 3.80111 -2.16413 0
M  V30 373 C 29.5061 4.93832 -1.81703 0
M  V30 374 O 28.5321 5.09382 -2.54006 0
M  V30 375 N 29.7341 5.75483 -0.761573 0
M  V30 376 H 32.4991 1.96991 -2.25864 0
M  V30 377 H 30.0601 0.950191 -1.31084 0
M  V30 378 H 32.0521 3.98193 -0.722828 0
M  V30 379 H 30.6221 3.12454 -0.0955527 0
M  V30 380 H 29.8421 2.98284 -2.57721 0
M  V30 381 H 31.1301 4.13932 -2.95867 0
M  V30 382 H 30.5281 5.65469 -0.161609 0
M  V30 383 H 29.0851 6.49302 -0.570064 0
M  V30 384 N 32.5182 1.22032 0.997298 0
M  V30 385 C 33.7432 1.06921 1.77715 0
M  V30 386 C 34.1682 -0.376226 1.84299 0
M  V30 387 O 33.5262 -1.27165 1.29223 0
M  V30 388 C 33.5742 1.67996 3.19076 0
M  V30 389 O 32.6782 0.930653 4.01762 0
M  V30 390 H 32.0192 0.375814 0.547412 0
M  V30 391 H 34.5492 1.61737 1.25309 0
M  V30 392 H 34.5592 1.72538 3.69723 0
M  V30 393 H 33.2342 2.73182 3.13599 0
M  V30 394 H 31.8112 0.960917 3.60307 0
M  V30 395 N 33.9963 -1.19345 1.0293 0
M  V30 396 C 34.9263 -2.2481 0.631105 0
M  V30 397 C 35.9073 -1.66245 -0.360104 0
M  V30 398 O 37.0923 -1.92677 -0.242726 0
M  V30 399 C 34.2223 -3.47295 -0.0184607 0
M  V30 400 C 33.1763 -4.18536 0.895073 0
M  V30 401 C 32.5023 -5.34586 0.110592 0
M  V30 402 C 33.8023 -4.73287 2.209 0
M  V30 403 H 35.4963 -2.58372 1.51275 0
M  V30 404 H 33.0423 -1.24194 0.728818 0
M  V30 405 H 34.9953 -4.20268 -0.308675 0
M  V30 406 H 33.7193 -3.12933 -0.934907 0
M  V30 407 H 32.3783 -3.47446 1.16949 0
M  V30 408 H 32.0263 -4.96469 -0.807902 0
M  V30 409 H 31.7263 -5.83183 0.719087 0
M  V30 410 H 33.2503 -6.10355 -0.172871 0
M  V30 411 H 34.6643 -5.38013 1.98028 0
M  V30 412 H 33.0613 -5.32373 2.76946 0
M  V30 413 H 34.1313 -3.91331 2.86336 0
M  V30 414 N 35.4744 -0.807222 -1.35358 0
M  V30 415 C 36.7224 -0.387122 -1.98358 0
M  V30 416 C 37.0434 1.04942 -1.64354 0
M  V30 417 O 36.3134 1.72615 -0.926339 0
M  V30 418 H 34.8934 -0.140154 -0.733734 0
M  V30 419 H 37.5554 -1.0332 -1.6526 0
M  V30 420 H 36.6514 -0.493352 -3.08176 0
M  V30 421 N 36.9525 1.47285 -0.560781 0
M  V30 422 C 37.9005 2.31756 0.197942 0
M  V30 423 C 38.8945 1.43146 0.905854 0
M  V30 424 O 40.1005 1.59891 0.826733 0
M  V30 425 H 36.4755 0.747438 0.0827049 0
M  V30 426 H 38.4465 2.9359 -0.533629 0
M  V30 427 C 37.1955 3.25874 1.21249 0
M  V30 428 H 36.5185 3.94023 0.67719 0
M  V30 429 H 37.9585 3.87803 1.71419 0
M  V30 430 C 36.4175 2.49651 2.26221 0
M  V30 431 O 36.9475 2.24355 3.33208 0
M  V30 432 N 35.1535 2.10597 2.00243 0
M  V30 433 H 34.7005 2.31369 1.13252 0
M  V30 434 H 34.6585 1.59913 2.70694 0
M  V30 435 N 38.4306 0.297415 1.54768 0
M  V30 436 C 39.6606 -0.315165 2.04182 0
M  V30 437 C 40.0686 -1.4834 1.17439 0
M  V30 438 O 39.4116 -1.82695 0.191891 0
M  V30 439 C 39.4736 -0.837583 3.49607 0
M  V30 440 C 39.1376 0.204912 4.5654 0
M  V30 441 C 40.1346 1.03214 5.09552 0
M  V30 442 C 37.8196 0.345578 5.0111 0
M  V30 443 C 39.8136 1.986 6.05671 0
M  V30 444 C 37.5006 1.30289 5.97049 0
M  V30 445 C 38.4986 2.12159 6.49213 0
M  V30 446 O 38.1866 3.06268 7.43273 0
M  V30 447 H 37.9186 -0.0729646 0.672051 0
M  V30 448 H 40.4726 0.433907 2.00765 0
M  V30 449 H 38.7026 -1.63712 3.50336 0
M  V30 450 H 40.3916 -1.36566 3.82236 0
M  V30 451 H 41.1576 0.934312 4.75916 0
M  V30 452 H 37.0366 -0.28171 4.60138 0
M  V30 453 H 40.5806 2.62542 6.46311 0
M  V30 454 H 36.4776 1.40145 6.30103 0
M  V30 455 H 37.2456 3.01205 7.61064 0
M  V30 456 N 39.9087 -1.5758 0.0250728 0
M  V30 457 C 40.8567 -2.11125 -0.97617 0
M  V30 458 C 41.8507 -1.03689 -1.33959 0
M  V30 459 O 43.0567 -1.22128 -1.3223 0
M  V30 460 H 39.4317 -0.674468 -0.332561 0
M  V30 461 H 41.4027 -2.94194 -0.499223 0
M  V30 462 C 40.1517 -2.65017 -2.2508 0
M  V30 463 H 39.4747 -3.47333 -1.9799 0
M  V30 464 H 40.9147 -3.06133 -2.93357 0
M  V30 465 C 39.3737 -1.57574 -2.97779 0
M  V30 466 O 39.9037 -0.973203 -3.89733 0
M  V30 467 N 38.1097 -1.29716 -2.60043 0
M  V30 468 H 37.6567 -1.789 -1.85345 0
M  V30 469 H 37.6147 -0.58051 -3.08994 0
M  V30 470 N 41.3868 0.248026 -1.55636 0
M  V30 471 C 42.6118 0.998028 -1.81808 0
M  V30 472 C 43.0368 1.78207 -0.601979 0
M  V30 473 O 42.3948 1.75653 0.448961 0
M  V30 474 C 42.4428 1.9125 -3.05705 0
M  V30 475 O 41.5468 3.00406 -2.82542 0
M  V30 476 H 40.8878 0.284045 -0.600179 0
M  V30 477 H 43.4178 0.269357 -2.02819 0
M  V30 478 H 43.4278 2.32737 -3.35108 0
M  V30 479 H 42.1028 1.33602 -3.93857 0
M  V30 480 H 40.6798 2.63056 -2.64303 0
M  V30 481 N 42.8649 1.48995 0.513639 0
M  V30 482 C 44.1129 1.57531 1.26604 0
M  V30 483 C 44.4339 0.258236 1.93283 0
M  V30 484 O 43.7039 -0.721502 1.8213 0
M  V30 485 H 42.2839 0.580387 0.470276 0
M  V30 486 H 44.9459 1.85552 0.596373 0
M  V30 487 H 44.0419 2.36486 2.03669 0
M  V30 488 N 44.343 -0.763751 1.37857 0
M  V30 489 C 45.273 -1.89103 1.36975 0
M  V30 490 C 46.254 -1.68439 0.237152 0
M  V30 491 O 47.439 -1.8918 0.438713 0
M  V30 492 C 44.569 -3.26496 1.18395 0
M  V30 493 C 43.523 -3.61741 2.28751 0
M  V30 494 C 42.849 -4.97762 1.95286 0
M  V30 495 C 44.149 -3.67665 3.70972 0
M  V30 496 H 45.843 -1.90099 2.31307 0
M  V30 497 H 43.389 -0.91319 1.11341 0
M  V30 498 H 45.342 -4.05003 1.16406 0
M  V30 499 H 44.066 -3.25955 0.205215 0
M  V30 500 H 42.725 -2.85547 2.29909 0
M  V30 501 H 42.373 -4.93769 0.959221 0
M  V30 502 H 42.073 -5.22313 2.69189 0
M  V30 503 H 43.597 -5.7866 1.94898 0
M  V30 504 H 45.011 -4.36307 3.719 0
M  V30 505 H 43.408 -4.03718 4.43995 0
M  V30 506 H 44.478 -2.68134 4.0402 0
M  V30 507 N 45.8211 -1.22559 -0.990812 0
M  V30 508 C 46.7681 -0.997519 -2.0813 0
M  V30 509 C 47.7381 0.0814702 -1.659 0
M  V30 510 O 48.9231 -0.0685424 -1.90677 0
M  V30 511 C 46.0631 -0.583615 -3.40129 0
M  V30 512 C 45.1761 -1.7336 -3.9569 0
M  V30 513 C 44.3111 -1.26748 -5.15857 0
M  V30 514 C 43.3501 -2.38888 -5.63559 0
M  V30 515 N 42.4871 -1.93308 -6.74964 0
M  V30 516 H 47.3271 -1.93099 -2.26973 0
M  V30 517 H 44.8641 -0.962114 -1.11273 0
M  V30 518 H 46.8221 -0.324801 -4.15934 0
M  V30 519 H 45.4521 0.312845 -3.2128 0
M  V30 520 H 44.5041 -2.10669 -3.16738 0
M  V30 521 H 45.8161 -2.57704 -4.27071 0
M  V30 522 H 44.9701 -0.966173 -5.98957 0
M  V30 523 H 43.7091 -0.394272 -4.86104 0
M  V30 524 H 42.7141 -2.69805 -4.79046 0
M  V30 525 H 43.9391 -3.26728 -5.95336 0
M  V30 526 H 41.8851 -1.08352 -6.4699 0
M  V30 527 H 41.8021 -2.71217 -7.05675 0
M  V30 528 H 43.0701 -1.66252 -7.61564 0
M  V30 529 N 47.2992 1.18797 -1.03562 0
M  V30 530 C 48.5482 1.87978 -0.731235 0
M  V30 531 C 48.8612 1.80911 0.743671 0
M  V30 532 O 50.0672 2.45407 1.16137 0
M  V30 533 C 48.5232 3.3721 -1.25768 0
M  V30 534 C 48.1312 3.52818 -2.76085 0
M  V30 535 C 49.8752 4.11825 -1.0296 0
M  V30 536 C 47.7822 4.9598 -3.22114 0
M  V30 537 H 46.7122 0.704063 -0.269835 0
M  V30 538 H 49.3632 1.34266 -1.25079 0
M  V30 539 H 47.7452 3.90359 -0.666011 0
M  V30 540 H 48.9192 3.09965 -3.40966 0
M  V30 541 H 47.2342 2.91602 -2.97249 0
M  V30 542 H 49.8312 5.17411 -1.34869 0
M  V30 543 H 50.1742 4.16287 0.0333546 0
M  V30 544 H 50.7072 3.64833 -1.58562 0
M  V30 545 H 47.4462 4.96684 -4.27768 0
M  V30 546 H 46.9662 5.39569 -2.61965 0
M  V30 547 H 48.6452 5.6467 -3.15844 0
M  V30 548 N 48.7773 0.814389 1.34928 0
M  V30 549 C 50.0253 0.397636 1.9815 0
M  V30 550 C 50.3463 -1.04069 1.64908 0
M  V30 551 O 49.6163 -1.72121 0.93548 0
M  V30 552 H 48.1963 0.144043 0.732981 0
M  V30 553 H 50.8583 1.04195 1.6471 0
M  V30 554 H 49.9543 0.509688 3.0791 0
M  V30 555 N 50.2554 -1.46986 0.568584 0
M  V30 556 C 51.2184 -2.28624 -0.162366 0
M  V30 557 C 52.2184 -1.37596 -0.832103 0
M  V30 558 O 53.4084 -1.60115 -0.68622 0
M  V30 559 C 50.5404 -3.17596 -1.23878 0
M  V30 560 H 51.7334 -2.94722 0.554899 0
M  V30 561 H 49.2864 -1.52863 0.325976 0
M  V30 562 H 50.0214 -2.56214 -1.98808 0
M  V30 563 H 49.8064 -3.846 -0.763219 0
M  V30 564 H 51.2964 -3.79078 -1.75185 0
M  V30 565 N 51.7335 -0.305618 -1.54608 0
M  V30 566 C 52.9795 0.295595 -2.01241 0
M  V30 567 C 53.3345 1.51171 -1.19018 0
M  V30 568 O 52.6275 1.89832 -0.259684 0
M  V30 569 C 52.8215 0.698983 -3.50498 0
M  V30 570 C 52.6505 -0.476491 -4.47168 0
M  V30 571 C 51.4205 -0.969963 -4.95903 0
M  V30 572 C 53.6185 -1.32294 -4.96994 0
M  V30 573 N 51.6005 -2.11172 -5.76437 0
M  V30 574 C 52.9715 -2.31212 -5.75275 0
M  V30 575 C 55.0265 -1.35278 -4.7917 0
M  V30 576 C 53.7295 -3.32896 -6.37631 0
M  V30 577 C 55.7555 -2.35823 -5.42348 0
M  V30 578 C 55.1175 -3.33469 -6.20466 0
M  V30 579 H 51.2165 0.0724992 -0.778632 0
M  V30 580 H 53.8005 -0.436583 -1.89742 0
M  V30 581 H 51.9715 1.40032 -3.62278 0
M  V30 582 H 53.7035 1.28013 -3.8392 0
M  V30 583 H 50.4585 -0.544178 -4.70463 0
M  V30 584 H 50.8825 -2.68714 -6.21387 0
M  V30 585 H 55.5245 -0.61157 -4.18354 0
M  V30 586 H 53.2425 -4.07933 -6.97579 0
M  V30 587 H 56.8285 -2.38911 -5.30484 0
M  V30 588 H 55.7085 -4.09996 -6.68485 0
M  V30 589 N 53.2116 1.57565 -0.0334293 0
M  V30 590 C 54.4576 1.92262 0.645226 0
M  V30 591 C 54.7906 0.910543 1.71531 0
M  V30 592 O 54.0656 -0.066099 1.94388 0
M  V30 593 C 54.3486 3.37422 1.2577 0
M  V30 594 C 54.2016 4.49369 0.196891 0
M  V30 595 C 55.5206 3.82628 2.17449 0
M  V30 596 H 52.6396 0.699171 0.233085 0
M  V30 597 H 55.2816 1.89779 -0.0915694 0
M  V30 598 H 53.4316 3.39669 1.88566 0
M  V30 599 H 55.1036 4.59254 -0.433962 0
M  V30 600 H 53.3466 4.31168 -0.477137 0
M  V30 601 H 54.0176 5.47978 0.665124 0
M  V30 602 H 56.4936 3.82145 1.64634 0
M  V30 603 H 55.3696 4.84883 2.57254 0
M  V30 604 H 55.6306 3.18376 3.0674 0
M  V30 605 N 54.6897 -0.239769 1.55765 0
M  V30 606 C 55.9377 -0.964892 1.77579 0
M  V30 607 C 56.2587 -1.85582 0.598699 0
M  V30 608 O 55.5287 -1.92075 -0.385226 0
M  V30 609 H 54.1087 -0.359265 0.654933 0
M  V30 610 H 56.7707 -0.256001 1.93211 0
M  V30 611 H 55.8667 -1.58243 2.69009 0
M  V30 612 N 56.1678 -1.49265 -0.50573 0
M  V30 613 C 57.3958 -1.62215 -1.28429 0
M  V30 614 C 57.8108 -0.291697 -1.86533 0
M  V30 615 O 57.1678 0.722233 -1.67601 0
M  V30 616 C 57.2188 -2.68735 -2.41793 0
M  V30 617 O 56.9398 -3.96619 -1.86078 0
M  V30 618 C 58.4408 -2.92346 -3.3324 0
M  V30 619 H 55.6608 -0.546239 -0.389697 0
M  V30 620 H 58.2048 -1.95265 -0.607609 0
M  V30 621 H 56.3598 -2.38476 -3.053 0
M  V30 622 H 56.7738 -4.55256 -2.60465 0
M  V30 623 H 58.2478 -3.70623 -4.09075 0
M  V30 624 H 58.7248 -2.02081 -3.89948 0
M  V30 625 H 59.3308 -3.24003 -2.75503 0
M  V30 626 N 57.6459 0.756429 -1.3826 0
M  V30 627 C 58.5779 1.87971 -1.31147 0
M  V30 628 C 59.5909 1.61248 -0.224239 0
M  V30 629 O 60.7799 1.71881 -0.481581 0
M  V30 630 C 57.8799 3.23545 -1.00857 0
M  V30 631 C 57.0529 3.77794 -2.20432 0
M  V30 632 C 56.1119 4.91877 -1.86931 0
M  V30 633 O 55.1379 5.06659 -2.59395 0
M  V30 634 N 56.3399 5.74643 -0.822568 0
M  V30 635 H 59.1049 1.94585 -2.2794 0
M  V30 636 H 56.6659 0.936234 -1.32084 0
M  V30 637 H 58.6579 3.97403 -0.765021 0
M  V30 638 H 57.2279 3.12335 -0.128687 0
M  V30 639 H 56.4479 2.95534 -2.6087 0
M  V30 640 H 57.7359 4.10771 -3.00241 0
M  V30 641 H 57.1339 5.65266 -0.221575 0
M  V30 642 H 55.6909 6.48661 -0.638899 0
M  V30 643 N 59.124 1.23083 0.984299 0
M  V30 644 C 60.535 1.05609 1.5396 0
M  V30 645 C 60.886 -0.377793 1.92528 0
M  V30 646 O 60.011 -1.26398 1.75649 0
M  V30 647 C 60.606 1.91087 2.7977 0
M  V30 648 C 59.165 1.77885 3.31713 0
M  V30 649 C 58.312 1.87028 2.04733 0
M  V30 650 H 61.263 1.36802 0.804419 0
M  V30 651 H 61.284 1.43336 3.5247 0
M  V30 652 H 60.796 2.9544 2.51668 0
M  V30 653 H 58.897 0.762995 3.64704 0
M  V30 654 H 59.01 2.61047 4.01735 0
M  V30 655 H 57.374 1.30565 2.18689 0
M  V30 656 H 58.157 2.92929 1.79017 0
M  V30 657 N 60.6021 -1.18246 1.0419 0
M  V30 658 C 61.8271 -1.92736 0.765996 0
M  V30 659 C 62.2521 -1.75728 -0.67091 0
M  V30 660 O 61.6101 -1.06825 -1.46486 0
M  V30 661 C 61.6581 -3.42148 1.13875 0
M  V30 662 O 60.7621 -4.11548 0.264954 0
M  V30 663 H 60.1031 -0.601238 0.281797 0
M  V30 664 H 62.6331 -1.49942 1.39207 0
M  V30 665 H 62.6431 -3.92858 1.1012 0
M  V30 666 H 61.3181 -3.53848 2.18551 0
M  V30 667 H 59.8951 -3.71137 0.362226 0
M  V30 668 N 62.0802 -0.821533 -1.34494 0
M  V30 669 C 62.9902 -0.244355 -2.33324 0
M  V30 670 C 64.0062 0.620527 -1.62559 0
M  V30 671 O 65.1822 0.528754 -1.94335 0
M  V30 672 C 62.2472 0.585368 -3.41723 0
M  V30 673 C 61.3082 -0.301752 -4.28238 0
M  V30 674 C 60.5412 0.488466 -5.3146 0
M  V30 675 O 60.7642 1.72186 -5.4379 0
M  V30 676 O 59.6982 -0.12848 -6.01763 0
M  V30 677 H 63.5242 -1.06231 -2.84515 0
M  V30 678 H 61.1092 -0.583645 -1.37528 0
M  V30 679 H 62.9912 1.05747 -4.07916 0
M  V30 680 H 61.6662 1.38068 -2.92778 0
M  V30 681 H 60.5732 -0.821315 -3.64973 0
M  V30 682 H 61.9062 -1.06138 -4.8062 0
M  V30 683 N 63.5583 1.46682 -0.576371 0
M  V30 684 C 64.7833 2.07304 -0.0630475 0
M  V30 685 C 65.2083 1.42329 1.2298 0
M  V30 686 O 64.5663 0.504865 1.74129 0
M  V30 687 C 64.6143 3.60472 0.095895 0
M  V30 688 O 63.7183 3.95927 1.15394 0
M  V30 689 H 63.0593 0.661288 -0.0599463 0
M  V30 690 H 65.5893 1.88417 -0.797511 0
M  V30 691 H 65.5993 4.06865 0.304071 0
M  V30 692 H 64.2743 4.07157 -0.84828 0
M  V30 693 H 62.8513 3.61252 0.924724 0
M  V30 694 N 65.0364 0.313813 1.54444 0
M  V30 695 C 65.9994 -0.54379 2.22656 0
M  V30 696 C 66.9994 -1.05124 1.21678 0
M  V30 697 O 68.1894 -0.945225 1.46325 0
M  V30 698 C 65.3214 -1.75427 2.92298 0
M  V30 699 H 66.5144 0.0523599 2.99854 0
M  V30 700 H 64.0674 0.0647834 1.56166 0
M  V30 701 H 64.8024 -2.38991 2.19211 0
M  V30 702 H 64.5874 -1.39791 3.66334 0
M  V30 703 H 66.0774 -2.36325 3.44297 0
M  V30 704 N 66.5145 -1.57545 0.0417849 0
M  V30 705 C 67.7635 -1.91494 -0.633492 0
M  V30 706 C 68.0765 -0.921084 -1.72556 0
M  V30 707 O 69.2825 -1.15228 -2.45835 0
M  V30 708 C 67.7385 -3.40072 -1.17808 0
M  V30 709 C 67.3465 -4.47843 -0.118633 0
M  V30 710 C 69.0905 -3.8307 -1.82915 0
M  V30 711 C 66.9975 -5.87529 -0.675578 0
M  V30 712 H 65.9275 -0.714653 -0.24039 0
M  V30 713 H 68.5785 -1.83175 0.109148 0
M  V30 714 H 66.9605 -3.43364 -1.97274 0
M  V30 715 H 68.1345 -4.56128 0.654494 0
M  V30 716 H 66.4495 -4.14128 0.434414 0
M  V30 717 H 69.0465 -4.84794 -2.25563 0
M  V30 718 H 69.3895 -3.1881 -2.67705 0
M  V30 719 H 69.9225 -3.82255 -1.10119 0
M  V30 720 H 66.6615 -6.55362 0.134475 0
M  V30 721 H 66.1815 -5.82824 -1.4169 0
M  V30 722 H 67.8605 -6.36491 -1.1614 0
M  V30 723 N 67.9926 0.231505 -1.5589 0
M  V30 724 C 68.9396 1.28682 -1.91598 0
M  V30 725 C 69.9096 1.47071 -0.771974 0
M  V30 726 O 71.0946 1.60802 -1.027 0
M  V30 727 C 68.2346 2.6342 -2.22944 0
M  V30 728 C 67.3476 2.52912 -3.50228 0
M  V30 729 C 66.4826 3.80106 -3.7107 0
M  V30 730 C 65.5216 3.64279 -4.91902 0
M  V30 731 N 64.6586 4.834 -5.09184 0
M  V30 732 H 69.4986 0.975305 -2.81588 0
M  V30 733 H 67.0356 0.470299 -1.39379 0
M  V30 734 H 68.9936 3.41869 -2.39126 0
M  V30 735 H 67.6236 2.92687 -1.36139 0
M  V30 736 H 66.6756 1.6595 -3.42294 0
M  V30 737 H 67.9876 2.37133 -4.38827 0
M  V30 738 H 67.1416 4.66999 -3.87295 0
M  V30 739 H 65.8806 3.98799 -2.80733 0
M  V30 740 H 64.8856 2.7577 -4.75637 0
M  V30 741 H 66.1106 3.47067 -5.83714 0
M  V30 742 H 64.0566 5.02425 -4.21788 0
M  V30 743 H 63.9736 4.70311 -5.91898 0
M  V30 744 H 65.2416 5.71747 -5.29835 0
M  V30 745 N 69.4707 1.49531 0.497807 0
M  V30 746 C 70.6957 1.63159 1.28039 0
M  V30 747 C 71.1207 0.30418 1.85624 0
M  V30 748 O 70.4787 -0.728618 1.66015 0
M  V30 749 C 70.5267 2.70537 2.38416 0
M  V30 750 O 69.6307 2.29931 3.42353 0
M  V30 751 H 68.9717 0.546001 0.377861 0
M  V30 752 H 71.5017 1.9574 0.59558 0
M  V30 753 H 71.5117 2.92802 2.84132 0
M  V30 754 H 70.1867 3.6689 1.95869 0
M  V30 755 H 68.7637 2.18009 3.02533 0
M  V30 756 N 70.9488 -0.749086 1.3866 0
M  V30 757 C 72.1958 -1.50833 1.35114 0
M  V30 758 C 72.5238 -1.94415 -0.0574049 0
M  V30 759 O 71.7788 -1.66065 -1.03541 0
M  V30 760 C 72.0778 -2.7712 2.25697 0
M  V30 761 C 71.7438 -2.52477 3.73585 0
M  V30 762 C 70.4058 -2.45466 4.13884 0
M  V30 763 C 72.7578 -2.31066 4.67181 0
M  V30 764 C 70.0858 -2.15064 5.45861 0
M  V30 765 C 72.4378 -2.02183 5.9942 0
M  V30 766 C 71.1018 -1.93631 6.38798 0
M  V30 767 H 70.3718 -0.551936 0.494416 0
M  V30 768 H 73.0188 -0.860979 1.71054 0
M  V30 769 H 71.3238 -3.46528 1.82827 0
M  V30 770 H 73.0208 -3.35096 2.20254 0
M  V30 771 H 69.6108 -2.58807 3.41638 0
M  V30 772 H 73.7948 -2.35459 4.3689 0
M  V30 773 H 69.0508 -2.06954 5.75308 0
M  V30 774 H 73.2248 -1.8462 6.71482 0
M  V30 775 H 70.8518 -1.69839 7.40985 0
M  V30 776 N 72.4269 -1.23603 -0.977757 0
M  V30 777 C 73.3589 -0.977369 -2.07317 0
M  V30 778 C 74.3719 0.0495845 -1.62724 0
M  V30 779 O 75.5609 -0.186261 -1.77526 0
M  V30 780 C 72.6609 -0.451216 -3.35883 0
M  V30 781 C 71.8339 -1.53896 -4.09432 0
M  V30 782 C 70.8929 -1.01721 -5.16274 0
M  V30 783 O 69.9189 -1.70676 -5.43009 0
M  V30 784 N 71.1209 0.153594 -5.80297 0
M  V30 785 H 73.8859 -1.92047 -2.30082 0
M  V30 786 H 71.4469 -1.14497 -1.14465 0
M  V30 787 H 73.4389 -0.0871574 -4.04606 0
M  V30 788 H 72.0089 0.397368 -3.10064 0
M  V30 789 H 71.2289 -2.07566 -3.35127 0
M  V30 790 H 72.5169 -2.27037 -4.55337 0
M  V30 791 H 71.9149 0.730323 -5.60966 0
M  V30 792 H 70.4719 0.458892 -6.50183 0
M  V30 793 N 73.905 1.17692 -1.04816 0
M  V30 794 C 74.815 2.25229 -0.65643 0
M  V30 795 C 75.831 1.71018 0.320761 0
M  V30 796 O 77.007 2.00649 0.173805 0
M  V30 797 C 74.072 3.46684 -0.0332629 0
M  V30 798 C 73.133 4.15997 -1.06042 0
M  V30 799 C 72.366 5.31654 -0.466893 0
M  V30 800 O 72.589 5.65777 0.724758 0
M  V30 801 O 71.523 5.89831 -1.1993 0
M  V30 802 H 75.349 2.61016 -1.55255 0
M  V30 803 H 72.934 1.24919 -0.81949 0
M  V30 804 H 74.816 4.20234 0.313256 0
M  V30 805 H 73.491 3.12703 0.836566 0
M  V30 806 H 72.398 3.44482 -1.45886 0
M  V30 807 H 73.731 4.53996 -1.90127 0
M  V30 808 N 75.3831 0.828654 1.34056 0
M  V30 809 C 76.3131 0.269443 2.3194 0
M  V30 810 C 77.2941 -0.617247 1.58506 0
M  V30 811 O 78.4791 -0.542931 1.86456 0
M  V30 812 C 75.6091 -0.564793 3.42677 0
M  V30 813 C 74.5631 0.225241 4.27407 0
M  V30 814 C 73.8891 -0.7321 5.29664 0
M  V30 815 C 75.1891 1.43663 5.02154 0
M  V30 816 H 76.8831 1.08728 2.7896 0
M  V30 817 H 74.4291 0.524283 1.34117 0
M  V30 818 H 76.3821 -0.966233 4.10173 0
M  V30 819 H 75.1061 -1.41574 2.9432 0
M  V30 820 H 73.7651 0.608117 3.61521 0
M  V30 821 H 73.4131 -1.57916 4.77568 0
M  V30 822 H 73.1131 -0.20767 5.87233 0
M  V30 823 H 74.6371 -1.13128 6.00029 0
M  V30 824 H 76.0511 1.1089 5.62473 0
M  V30 825 H 74.4481 1.89711 5.69324 0
M  V30 826 H 75.5181 2.21181 4.31517 0
M  V30 827 N 76.8612 -1.46375 0.584142 0
M  V30 828 C 77.7932 -2.28443 -0.186119 0
M  V30 829 C 78.8062 -1.38596 -0.854115 0
M  V30 830 O 79.9952 -1.63183 -0.723438 0
M  V30 831 C 77.0952 -3.13671 -1.28311 0
M  V30 832 C 76.2682 -4.31652 -0.706758 0
M  V30 833 C 75.3272 -4.98267 -1.69163 0
M  V30 834 O 74.3532 -5.55815 -1.22712 0
M  V30 835 N 75.5552 -4.95408 -3.02575 0
M  V30 836 H 78.3202 -2.9519 0.517986 0
M  V30 837 H 75.8812 -1.56303 0.42201 0
M  V30 838 H 77.8732 -3.55101 -1.94128 0
M  V30 839 H 76.4432 -2.48989 -1.89005 0
M  V30 840 H 75.6632 -3.93989 0.128908 0
M  V30 841 H 76.9512 -5.07906 -0.301506 0
M  V30 842 H 76.3492 -4.49902 -3.42936 0
M  V30 843 H 74.9062 -5.40774 -3.63877 0
M  V30 844 N 78.3393 -0.321999 -1.54275 0
M  V30 845 C 79.5873 0.280489 -2.00144 0
M  V30 846 C 79.9083 1.52777 -1.21178 0
M  V30 847 O 79.1783 1.9338 -0.313187 0
M  V30 848 H 77.7583 0.106632 -0.73935 0
M  V30 849 H 80.4203 -0.438184 -1.8991 0
M  V30 850 H 79.5163 0.537972 -3.07428 0
M  V30 851 N 79.8174 1.5752 -0.0501392 0
M  V30 852 C 81.2334 1.56631 0.306402 0
M  V30 853 C 81.4334 1.0577 1.71508 0
M  V30 854 O 80.4894 0.713837 2.422 0
M  V30 855 C 81.8024 3.00393 0.135811 0
M  V30 856 C 83.3504 3.12315 0.206993 0
M  V30 857 C 83.8254 4.57954 0.064944 0
M  V30 858 N 85.3164 4.63041 0.121254 0
M  V30 859 C 86.0514 5.73389 0.0354381 0
M  V30 860 N 85.5474 6.92724 -0.102666 0
M  V30 861 N 87.3404 5.62026 0.090946 0
M  V30 862 H 79.4914 1.88903 -0.971046 0
M  V30 863 H 81.7544 0.869876 -0.376855 0
M  V30 864 H 81.4604 3.41635 -0.835384 0
M  V30 865 H 81.3344 3.66373 0.897275 0
M  V30 866 H 83.7214 2.70973 1.16866 0
M  V30 867 H 83.8024 2.49016 -0.585208 0
M  V30 868 H 83.4464 4.99981 -0.893394 0
M  V30 869 H 83.3764 5.19258 0.876277 0
M  V30 870 H 85.8674 3.77216 0.227284 0
M  V30 871 H 86.1804 7.72633 -0.160882 0
M  V30 872 H 84.5254 6.94864 -0.137737 0
M  V30 873 H 87.7164 4.67684 0.197388 0
M  V30 874 H 87.8894 6.47997 0.0206089 0
M  V30 875 N 81.2955 -0.223234 1.56011 0
M  V30 876 C 82.2425 -1.27664 1.92277 0
M  V30 877 C 83.2125 -1.46659 0.779763 0
M  V30 878 O 84.3975 -1.60256 1.03551 0
M  V30 879 C 81.5375 -2.62234 2.24338 0
M  V30 880 C 80.6505 -2.51051 3.51564 0
M  V30 881 C 79.7855 -3.78133 3.7308 0
M  V30 882 C 78.8245 -3.61665 4.93827 0
M  V30 883 N 77.9615 -4.80693 5.11741 0
M  V30 884 H 82.8015 -0.960358 2.82101 0
M  V30 885 H 80.3385 -0.462901 1.39627 0
M  V30 886 H 82.2965 -3.40596 2.40936 0
M  V30 887 H 80.9265 -2.91961 1.3769 0
M  V30 888 H 79.9785 -1.64132 3.43169 0
M  V30 889 H 81.2905 -2.34803 4.40079 0
M  V30 890 H 80.4445 -4.64938 3.89766 0
M  V30 891 H 79.1835 -3.97304 2.82844 0
M  V30 892 H 78.1885 -2.73244 4.77093 0
M  V30 893 H 79.4135 -3.43966 5.85546 0
M  V30 894 H 77.3595 -5.00181 4.24446 0
M  V30 895 H 77.2765 -4.67165 5.94384 0
M  V30 896 H 78.5445 -5.6893 5.3286 0
M  V30 897 N 82.7736 -1.49793 -0.48987 0
M  V30 898 C 83.7036 -1.70201 -1.59856 0
M  V30 899 C 84.6846 -0.55076 -1.60937 0
M  V30 900 O 85.8696 -0.787841 -1.77501 0
M  V30 901 C 82.9996 -1.77882 -2.98287 0
M  V30 902 C 81.9536 -2.92907 -3.12073 0
M  V30 903 C 81.2796 -2.85712 -4.51965 0
M  V30 904 C 82.5796 -4.3369 -2.91051 0
M  V30 905 H 84.2736 -2.63025 -1.43032 0
M  V30 906 H 81.8196 -1.26574 -0.686664 0
M  V30 907 H 83.7726 -1.90744 -3.75759 0
M  V30 908 H 82.4966 -0.816653 -3.16225 0
M  V30 909 H 81.1556 -2.79665 -2.37029 0
M  V30 910 H 80.8036 -1.8738 -4.66795 0
M  V30 911 H 80.5036 -3.62921 -4.62128 0
M  V30 912 H 82.0276 -3.00598 -5.31482 0
M  V30 913 H 83.4416 -4.47555 -3.58284 0
M  V30 914 H 81.8386 -5.12205 -3.12675 0
M  V30 915 H 82.9086 -4.47362 -1.87071 0
M  V30 916 N 84.2517 0.741722 -1.39055 0
M  V30 917 C 85.5287 1.49252 -1.26425 0
M  V30 918 C 85.9087 2.10705 0.129144 0
M  V30 919 O 85.2567 1.98045 1.13976 0
M  V30 920 C 85.4667 2.54934 -2.38347 0
M  V30 921 C 86.8147 3.21506 -2.77343 0
M  V30 922 O 87.8387 2.65245 -2.37747 0
M  V30 923 O 86.6977 4.23294 -3.45665 0
M  V30 924 H 83.7917 0.662451 -0.495064 0
M  V30 925 H 86.3377 0.776121 -1.50912 0
M  V30 926 H 85.1097 2.07857 -3.31529 0
M  V30 927 H 84.7327 3.34141 -2.15489 0
M  V30 928 N 85.7298 1.2412 0.971189 0
M  V30 929 C 86.9788 1.07284 1.70801 0
M  V30 930 C 87.2918 -0.388902 1.91695 0
M  V30 931 O 88.4978 -0.677379 2.62914 0
M  V30 932 C 86.9538 1.87145 3.07416 0
M  V30 933 C 86.5618 3.37707 2.94377 0
M  V30 934 C 88.3058 1.78828 3.84995 0
M  V30 935 C 86.2128 4.09925 4.26281 0
M  V30 936 H 85.1428 0.397854 0.64049 0
M  V30 937 H 87.7938 1.4817 1.0825 0
M  V30 938 H 86.1758 1.39071 3.70777 0
M  V30 939 H 87.3498 3.93335 2.4005 0
M  V30 940 H 85.6648 3.46938 2.30267 0
M  V30 941 H 88.2618 2.30089 4.82662 0
M  V30 942 H 88.6048 0.75284 4.09436 0
M  V30 943 H 89.1378 2.24563 3.28354 0
M  V30 944 H 85.8768 5.13813 4.07033 0
M  V30 945 H 85.3968 3.59083 4.80437 0
M  V30 946 H 87.0758 4.1673 4.94919 0
M  V30 947 N 87.2079 -1.17134 1.05439 0
M  V30 948 C 88.4539 -1.87733 0.767077 0
M  V30 949 C 88.7869 -1.8098 -0.704253 0
M  V30 950 O 88.0619 -1.21951 -1.5152 0
M  V30 951 C 88.3449 -3.37659 1.25133 0
M  V30 952 C 88.1979 -3.53149 2.78578 0
M  V30 953 C 89.5169 -4.31768 0.852324 0
M  V30 954 H 86.6359 -0.681687 0.280129 0
M  V30 955 H 89.2779 -1.37732 1.30881 0
M  V30 956 H 87.4279 -3.80373 0.790469 0
M  V30 957 H 89.0999 -3.19434 3.32806 0
M  V30 958 H 87.3429 -2.95345 3.17732 0
M  V30 959 H 88.0139 -4.58403 3.07523 0
M  V30 960 H 90.4899 -3.96909 1.24911 0
M  V30 961 H 89.3659 -5.35199 1.21873 0
M  V30 962 H 89.6269 -4.41429 -0.243485 0
M  V30 963 N 88.686 -0.835752 -1.33615 0
M  V30 964 C 89.636 -0.238856 -2.26745 0
M  V30 965 C 90.62 0.604343 -1.49119 0
M  V30 966 O 91.812 0.456822 -1.71003 0
M  V30 967 C 88.941 0.587725 -3.38232 0
M  V30 968 C 88.027 -0.266811 -4.2326 0
M  V30 969 N 88.418 -1.34403 -4.87616 0
M  V30 970 C 86.716 -0.0533131 -4.45968 0
M  V30 971 C 87.417 -1.86819 -5.50884 0
M  V30 972 N 86.393 -1.17013 -5.30857 0
M  V30 973 H 90.195 -1.06266 -2.74016 0
M  V30 974 H 87.709 -0.679881 -1.47483 0
M  V30 975 H 89.706 1.03161 -4.03935 0
M  V30 976 H 88.366 1.40954 -2.9251 0
M  V30 977 H 89.377 -1.7269 -4.88261 0
M  V30 978 H 86.054 0.735312 -4.10974 0
M  V30 979 H 87.444 -2.7701 -6.1214 0
M  V30 980 N 90.1641 1.46063 -0.591896 0
M  V30 981 C 91.0961 2.28539 0.174001 0
M  V30 982 C 92.1091 1.39047 0.846753 0
M  V30 983 O 93.2981 1.63564 0.714774 0
M  V30 984 C 90.3981 3.14347 1.26645 0
M  V30 985 C 89.5711 4.32021 0.683856 0
M  V30 986 C 88.6301 4.99157 1.66518 0
M  V30 987 O 87.6561 5.56458 1.19763 0
M  V30 988 N 88.8581 4.97005 2.99943 0
M  V30 989 H 91.6231 2.94911 -0.533633 0
M  V30 990 H 89.1841 1.56077 -0.430294 0
M  V30 991 H 91.1761 3.56125 1.92242 0
M  V30 992 H 89.7461 2.49988 1.87682 0
M  V30 993 H 88.9661 3.93915 -0.1498 0
M  V30 994 H 90.2541 5.08059 0.274567 0
M  V30 995 H 89.6521 4.51714 3.40545 0
M  V30 996 H 88.2091 5.42696 3.61004 0
M  V30 997 N 91.6422 0.330177 1.54103 0
M  V30 998 C 92.8892 -0.270405 2.00686 0
M  V30 999 C 93.2172 -1.51621 1.21825 0
M  V30 1000 O 92.4722 -1.93536 0.29025 0
M  V30 1001 C 92.7712 -0.643134 3.51566 0
M  V30 1002 C 92.4372 0.504251 4.48072 0
M  V30 1003 C 91.0992 0.819163 4.74176 0
M  V30 1004 C 93.4512 1.27465 5.05373 0
M  V30 1005 C 90.7792 1.90708 5.5484 0
M  V30 1006 C 93.1312 2.35271 5.87223 0
M  V30 1007 C 91.7952 2.67336 6.11627 0
M  V30 1008 H 91.0652 -0.0989482 0.734364 0
M  V30 1009 H 93.7122 0.455324 1.86008 0
M  V30 1010 H 92.0172 -1.44938 3.64006 0
M  V30 1011 H 93.7142 -1.11949 3.85056 0
M  V30 1012 H 90.3042 0.248733 4.27878 0
M  V30 1013 H 94.4882 1.04462 4.85182 0
M  V30 1014 H 89.7442 2.15991 5.71977 0
M  V30 1015 H 93.9182 2.95405 6.30641 0
M  V30 1016 H 91.5452 3.51763 6.73919 0
M  V30 1017 N 93.1203 -1.57491 0.0584922 0
M  V30 1018 C 94.3693 -1.92155 -0.613146 0
M  V30 1019 C 94.6823 -0.939334 -1.71569 0
M  V30 1020 O 95.8883 -1.17829 -2.44599 0
M  V30 1021 C 94.3443 -3.41303 -1.14195 0
M  V30 1022 C 93.9523 -4.47944 -0.0711265 0
M  V30 1023 C 95.6963 -3.84988 -1.78841 0
M  V30 1024 C 93.6033 -5.88212 -0.613225 0
M  V30 1025 H 92.5333 -0.717162 -0.232796 0
M  V30 1026 H 95.1843 -1.83049 0.12857 0
M  V30 1027 H 93.5663 -3.45437 -1.93621 0
M  V30 1028 H 94.7403 -4.55408 0.702836 0
M  V30 1029 H 93.0553 -4.13644 0.478313 0
M  V30 1030 H 95.6523 -4.87159 -2.20408 0
M  V30 1031 H 95.9953 -3.21632 -2.64308 0
M  V30 1032 H 96.5283 -3.83401 -1.06059 0
M  V30 1033 H 93.2673 -6.55183 0.203978 0
M  V30 1034 H 92.7873 -5.84294 -1.35501 0
M  V30 1035 H 94.4663 -6.37687 -1.09383 0
M  V30 1036 N 94.5984 0.214957 -1.56127 0
M  V30 1037 C 95.5464 1.28601 -1.93816 0
M  V30 1038 C 96.5404 1.48175 -0.821016 0
M  V30 1039 O 97.7464 1.49271 -1.0059 0
M  V30 1040 H 94.1214 0.431302 -0.616022 0
M  V30 1041 H 96.0924 0.940991 -2.83175 0
M  V30 1042 C 94.8414 2.62779 -2.27689 0
M  V30 1043 H 94.1644 2.48527 -3.13168 0
M  V30 1044 H 95.6044 3.36517 -2.57939 0
M  V30 1045 C 94.0634 3.18285 -1.10436 0
M  V30 1046 O 94.5934 4.00002 -0.368945 0
M  V30 1047 N 92.7994 2.7675 -0.886433 0
M  V30 1048 H 92.3464 2.10404 -1.48619 0
M  V30 1049 H 92.3044 3.14229 -0.103656 0
M  V30 1050 N 96.0765 1.50051 0.48192 0
M  V30 1051 C 97.3225 1.61706 1.2338 0
M  V30 1052 C 97.6775 0.308488 1.89911 0
M  V30 1053 O 96.9705 -0.692798 1.78636 0
M  V30 1054 C 97.1645 2.72717 2.30998 0
M  V30 1055 C 96.9935 4.14242 1.75024 0
M  V30 1056 C 95.7635 4.80786 1.55476 0
M  V30 1057 C 97.9615 4.98846 1.25128 0
M  V30 1058 N 95.9435 6.06563 0.946311 0
M  V30 1059 C 97.3145 6.15258 0.765382 0
M  V30 1060 C 99.3695 4.84702 1.13881 0
M  V30 1061 C 98.0725 7.19079 0.178113 0
M  V30 1062 C 100.098 5.8869 0.565486 0
M  V30 1063 C 99.4605 7.04343 0.0899105 0
M  V30 1064 H 95.5595 0.645958 0.440753 0
M  V30 1065 H 98.1435 1.8713 0.537624 0
M  V30 1066 H 96.3145 2.49033 2.98055 0
M  V30 1067 H 98.0465 2.73789 2.9803 0
M  V30 1068 H 94.8015 4.37899 1.80392 0
M  V30 1069 H 95.2255 6.73767 0.660812 0
M  V30 1070 H 99.8675 3.95583 1.49244 0
M  V30 1071 H 97.5855 8.07882 -0.187749 0
M  V30 1072 H 101.171 5.79808 0.480974 0
M  V30 1073 H 100.051 7.83433 -0.346782 0
M  V30 1074 N 97.5546 -0.734337 1.39446 0
M  V30 1075 C 98.7796 -1.52866 1.40167 0
M  V30 1076 C 99.2046 -1.881 -0.00171513 0
M  V30 1077 O 98.5626 -1.51957 -0.988879 0
M  V30 1078 C 98.6106 -2.79235 2.28167 0
M  V30 1079 O 97.7146 -3.75185 1.71201 0
M  V30 1080 H 97.0556 -0.461618 0.477289 0
M  V30 1081 H 99.5856 -0.905949 1.8345 0
M  V30 1082 H 99.5956 -3.27963 2.42702 0
M  V30 1083 H 98.2706 -2.52923 3.30156 0
M  V30 1084 H 96.8476 -3.33958 1.65912 0
M  V30 1085 N 99.0327 -1.24633 -0.964593 0
M  V30 1086 C 100.261 -1.11501 -1.74285 0
M  V30 1087 C 100.676 0.332165 -1.85855 0
M  V30 1088 O 100.033 1.22903 -1.34911 0
M  V30 1089 C 100.084 -1.75258 -3.16175 0
M  V30 1090 O 99.8047 -3.14318 -3.05182 0
M  V30 1091 C 101.306 -1.67776 -4.10324 0
M  V30 1092 H 98.5257 -0.389407 -0.546446 0
M  V30 1093 H 101.07 -1.64801 -1.21083 0
M  V30 1094 H 99.2247 -1.25954 -3.66353 0
M  V30 1095 H 99.6387 -3.4551 -3.94618 0
M  V30 1096 H 101.113 -2.17064 -5.0753 0
M  V30 1097 H 101.59 -0.639584 -4.34518 0
M  V30 1098 H 102.196 -2.16522 -3.66058 0
M  V30 1099 N 100.511 1.16574 -1.06058 0
M  V30 1100 C 101.788 1.83048 -0.689416 0
M  V30 1101 C 102.168 1.94122 0.829443 0
M  V30 1102 O 101.516 1.48249 1.7388 0
M  V30 1103 C 101.726 3.20186 -1.38859 0
M  V30 1104 C 103.074 3.95989 -1.53226 0
M  V30 1105 O 104.098 3.29696 -1.3483 0
M  V30 1106 O 102.957 5.14813 -1.83384 0
M  V30 1107 H 100.051 0.790258 -0.243764 0
M  V30 1108 H 102.597 1.23797 -1.16071 0
M  V30 1109 H 101.369 3.07146 -2.4244 0
M  V30 1110 H 100.992 3.87112 -0.907216 0
M  V30 1111 N 101.989 0.842826 1.3317 0
M  V30 1112 C 103.236 0.440447 1.97652 0
M  V30 1113 C 103.564 -1.00123 1.6675 0
M  V30 1114 O 102.819 -1.7155 0.941761 0
M  V30 1115 C 103.118 0.612607 3.52111 0
M  V30 1116 C 102.784 2.02297 4.02972 0
M  V30 1117 C 101.446 2.40874 4.16573 0
M  V30 1118 C 103.798 2.94402 4.30089 0
M  V30 1119 C 101.126 3.70852 4.54627 0
M  V30 1120 C 103.478 4.23865 4.69597 0
M  V30 1121 C 102.142 4.62392 4.81404 0
M  V30 1122 H 101.412 0.161171 0.72326 0
M  V30 1123 H 104.059 1.07061 1.58777 0
M  V30 1124 H 102.364 -0.100849 3.9167 0
M  V30 1125 H 104.061 0.2815 4.00011 0
M  V30 1126 H 100.651 1.71338 3.92863 0
M  V30 1127 H 104.835 2.65835 4.19101 0
M  V30 1128 H 100.091 4.00501 4.61962 0
M  V30 1129 H 104.265 4.95306 4.89536 0
M  V30 1130 H 101.892 5.63154 5.10648 0
M  V30 1131 N 103.467 -1.45747 0.599634 0
M  V30 1132 C 104.692 -2.07178 0.0960198 0
M  V30 1133 C 105.117 -1.44268 -1.207 0
M  V30 1134 O 104.475 -0.532503 -1.73303 0
M  V30 1135 C 104.523 -3.60579 -0.0385348 0
M  V30 1136 O 103.627 -3.97713 -1.0908 0
M  V30 1137 H 102.968 -0.660251 0.0704593 0
M  V30 1138 H 105.498 -1.87124 0.827385 0
M  V30 1139 H 105.508 -4.07298 -0.239304 0
M  V30 1140 H 104.183 -4.05756 0.912947 0
M  V30 1141 H 102.76 -3.62678 -0.867135 0
M  V30 1142 N 104.945 -0.338344 -1.53925 0
M  V30 1143 C 106.191 0.252842 -2.01822 0
M  V30 1144 C 106.546 1.48612 -1.22197 0
M  V30 1145 O 105.839 1.89238 -0.299892 0
M  V30 1146 C 106.033 0.62448 -3.51902 0
M  V30 1147 C 105.862 -0.571235 -4.46057 0
M  V30 1148 C 104.632 -1.07493 -4.93734 0
M  V30 1149 C 106.83 -1.42807 -4.94076 0
M  V30 1150 N 104.812 -2.23351 -5.71828 0
M  V30 1151 C 106.183 -2.43362 -5.70241 0
M  V30 1152 C 108.238 -1.45412 -4.76193 0
M  V30 1153 C 106.941 -3.46346 -6.30426 0
M  V30 1154 C 108.967 -2.47274 -5.37224 0
M  V30 1155 C 108.329 -3.46555 -6.13253 0
M  V30 1156 H 104.428 0.0559669 -0.779995 0
M  V30 1157 H 107.012 -0.476732 -1.88773 0
M  V30 1158 H 105.183 1.32317 -3.65167 0
M  V30 1159 H 106.915 1.19841 -3.86549 0
M  V30 1160 H 103.67 -0.643848 -4.69203 0
M  V30 1161 H 104.094 -2.81834 -6.15548 0
M  V30 1162 H 108.736 -0.700171 -4.16962 0
M  V30 1163 H 106.454 -4.22638 -6.88769 0
M  V30 1164 H 110.04 -2.50109 -5.25297 0
M  V30 1165 H 108.92 -4.24083 -6.59638 0
M  V30 1166 N 106.423 1.57458 -0.0668435 0
M  V30 1167 C 107.669 1.93587 0.6043 0
M  V30 1168 C 108.002 0.946722 1.69561 0
M  V30 1169 O 107.277 -0.0248516 1.94484 0
M  V30 1170 C 107.56 3.40014 1.18585 0
M  V30 1171 C 107.413 4.49685 0.101529 0
M  V30 1172 C 108.732 3.87154 2.09284 0
M  V30 1173 H 105.851 0.703958 0.218202 0
M  V30 1174 H 108.493 1.89542 -0.131804 0
M  V30 1175 H 106.643 3.43592 1.81319 0
M  V30 1176 H 108.315 4.5823 -0.531279 0
M  V30 1177 H 106.558 4.30059 -0.568487 0
M  V30 1178 H 107.229 5.49266 0.54874 0
M  V30 1179 H 109.705 3.85551 1.56491 0
M  V30 1180 H 108.581 4.90231 2.46911 0
M  V30 1181 H 108.842 3.2481 2.99918 0
M  V30 1182 N 107.901 -0.206675 1.56239 0
M  V30 1183 C 109.317 -0.557025 1.49564 0
M  V30 1184 C 109.517 -1.86424 0.764735 0
M  V30 1185 O 108.573 -2.50584 0.310491 0
M  V30 1186 C 109.886 -0.622478 2.94186 0
M  V30 1187 C 111.434 -0.712099 3.04792 0
M  V30 1188 C 111.909 -0.808767 4.50803 0
M  V30 1189 N 113.4 -0.8726 4.54907 0
M  V30 1190 C 114.135 -0.967365 5.65181 0
M  V30 1191 N 113.631 -1.02515 6.85173 0
M  V30 1192 N 115.424 -1.00366 5.53067 0
M  V30 1193 H 107.575 0.650943 2.02179 0
M  V30 1194 H 109.838 0.230387 0.919579 0
M  V30 1195 H 109.544 0.268727 3.50672 0
M  V30 1196 H 109.418 -1.4811 3.46905 0
M  V30 1197 H 111.805 -1.59374 2.48363 0
M  V30 1198 H 111.886 0.172489 2.55218 0
M  V30 1199 H 111.53 0.0684754 5.07854 0
M  V30 1200 H 111.46 -1.70899 4.98098 0
M  V30 1201 H 113.951 -0.837657 3.68499 0
M  V30 1202 H 114.264 -1.09765 7.64965 0
M  V30 1203 H 112.609 -0.994026 6.87855 0
M  V30 1204 H 115.8 -0.95527 4.58249 0
M  V30 1205 H 115.973 -1.07405 6.39037 0
M  V30 1206 N 109.379 -1.50304 -0.473955 0
M  V30 1207 C 110.79 -1.54042 -1.0549 0
M  V30 1208 C 111.141 -0.342248 -1.93192 0
M  V30 1209 O 110.266 0.545157 -2.09421 0
M  V30 1210 C 110.861 -2.79152 -1.91989 0
M  V30 1211 C 109.42 -2.8558 -2.45196 0
M  V30 1212 C 108.567 -2.48295 -1.2347 0
M  V30 1213 H 111.518 -1.5661 -0.256693 0
M  V30 1214 H 111.539 -2.60845 -2.7702 0
M  V30 1215 H 111.051 -3.66339 -1.28131 0
M  V30 1216 H 109.152 -2.02738 -3.12615 0
M  V30 1217 H 109.265 -3.88403 -2.80499 0
M  V30 1218 H 107.629 -2.00669 -1.56856 0
M  V30 1219 H 108.412 -3.37787 -0.612789 0
M  V30 1220 N 110.857 0.726932 -1.39834 0
M  V30 1221 C 112.087 1.51393 -1.40583 0
M  V30 1222 C 112.495 1.892 -0.000740625 0
M  V30 1223 O 111.838 1.55189 0.982951 0
M  V30 1224 C 111.9 2.82588 -2.22226 0
M  V30 1225 C 111.564 2.67169 -3.70769 0
M  V30 1226 C 112.561 2.3518 -4.63666 0
M  V30 1227 C 110.246 2.83788 -4.14451 0
M  V30 1228 C 112.24 2.20002 -5.98229 0
M  V30 1229 C 109.927 2.68229 -5.49087 0
M  V30 1230 C 110.925 2.36382 -6.4079 0
M  V30 1231 O 110.613 2.2093 -7.72946 0
M  V30 1232 H 110.345 0.474168 -0.48181 0
M  V30 1233 H 112.899 0.905247 -1.84376 0
M  V30 1234 H 111.129 3.45746 -1.73195 0
M  V30 1235 H 112.818 3.44247 -2.15055 0
M  V30 1236 H 113.584 2.21984 -4.31217 0
M  V30 1237 H 109.463 3.07566 -3.43401 0
M  V30 1238 H 113.007 1.95067 -6.69772 0
M  V30 1239 H 108.904 2.81006 -5.81125 0
M  V30 1240 H 109.672 2.35937 -7.83757 0
M  V30 1241 N 112.336 1.25143 0.95797 0
M  V30 1242 C 113.299 1.05321 2.03569 0
M  V30 1243 C 114.299 0.007152 1.60798 0
M  V30 1244 O 115.489 0.24903 1.72411 0
M  V30 1245 C 112.621 0.598394 3.35607 0
M  V30 1246 H 113.814 2.00986 2.22586 0
M  V30 1247 H 111.367 1.07502 1.13459 0
M  V30 1248 H 112.102 -0.361014 3.22284 0
M  V30 1249 H 111.887 1.35351 3.67998 0
M  V30 1250 H 113.377 0.48104 4.1482 0
M  V30 1251 N 113.814 -1.1601 1.06675 0
M  V30 1252 C 115.091 -1.82679 0.699114 0
M  V30 1253 C 115.471 -1.94559 -0.819137 0
M  V30 1254 O 114.819 -1.49169 -1.73092 0
M  V30 1255 C 115.029 -3.19445 1.40555 0
M  V30 1256 C 116.377 -3.95171 1.55323 0
M  V30 1257 O 117.401 -3.28976 1.36577 0
M  V30 1258 O 116.26 -5.13833 1.86112 0
M  V30 1259 H 113.354 -0.788954 0.247951 0
M  V30 1260 H 115.9 -1.23179 1.16726 0
M  V30 1261 H 114.672 -3.05856 2.44065 0
M  V30 1262 H 114.295 -3.86625 0.927733 0
M  V30 1263 N 115.292 -0.849877 -1.32721 0
M  V30 1264 C 116.255 -0.296122 -2.27279 0
M  V30 1265 C 117.255 0.541458 -1.5141 0
M  V30 1266 O 118.445 0.353658 -1.70572 0
M  V30 1267 C 115.577 0.581579 -3.35902 0
M  V30 1268 H 116.77 -1.13064 -2.77771 0
M  V30 1269 H 114.323 -0.62383 -1.43311 0
M  V30 1270 H 115.058 1.43809 -2.9067 0
M  V30 1271 H 114.843 -0.0178814 -3.92096 0
M  V30 1272 H 116.333 0.961951 -4.0637 0
M  V30 1273 N 116.77 1.45427 -0.607355 0
M  V30 1274 C 118.016 2.0254 -0.102607 0
M  V30 1275 C 118.349 1.47478 1.26348 0
M  V30 1276 O 117.624 0.64939 1.83339 0
M  V30 1277 C 117.907 3.60044 -0.0634347 0
M  V30 1278 C 117.76 4.2544 -1.46017 0
M  V30 1279 C 119.079 4.35646 0.624514 0
M  V30 1280 H 116.198 0.73598 -0.0387607 0
M  V30 1281 H 118.84 1.73284 -0.779282 0
M  V30 1282 H 116.99 3.85101 0.512808 0
M  V30 1283 H 118.662 4.11569 -2.08347 0
M  V30 1284 H 116.905 3.83849 -2.02094 0
M  V30 1285 H 117.576 5.34342 -1.385 0
M  V30 1286 H 120.052 4.15882 0.134723 0
M  V30 1287 H 118.928 5.45376 0.621028 0
M  V30 1288 H 119.189 4.08501 1.69055 0
M  V30 1289 N 118.248 0.346503 1.53744 0
M  V30 1290 C 119.478 -0.250047 2.05081 0
M  V30 1291 C 119.886 -1.44529 1.22098 0
M  V30 1292 O 119.229 -1.81992 0.249917 0
M  V30 1293 C 119.291 -0.725934 3.52094 0
M  V30 1294 C 118.955 0.350053 4.55657 0
M  V30 1295 C 119.952 1.19372 5.0601 0
M  V30 1296 C 117.637 0.504827 4.99757 0
M  V30 1297 C 119.631 2.17768 5.99046 0
M  V30 1298 C 117.318 1.49218 5.92602 0
M  V30 1299 C 118.316 2.32706 6.42135 0
M  V30 1300 O 118.004 3.2976 7.33153 0
M  V30 1301 H 117.736 -0.0515469 0.674032 0
M  V30 1302 H 120.29 0.497559 1.99282 0
M  V30 1303 H 118.52 -1.52483 3.55367 0
M  V30 1304 H 120.209 -1.24336 3.86388 0
M  V30 1305 H 120.975 1.08525 4.72702 0
M  V30 1306 H 116.854 -0.135178 4.60802 0
M  V30 1307 H 120.398 2.82971 6.37631 0
M  V30 1308 H 116.295 1.6012 6.25325 0
M  V30 1309 H 117.063 3.25265 7.51096 0
M  V30 1310 N 119.726 -1.57421 0.075193 0
M  V30 1311 C 120.674 -2.14124 -0.908508 0
M  V30 1312 C 121.668 -1.07898 -1.30592 0
M  V30 1313 O 122.874 -1.26273 -1.28277 0
M  V30 1314 H 119.249 -0.684707 -0.310935 0
M  V30 1315 H 121.22 -2.95634 -0.405374 0
M  V30 1316 C 119.969 -2.72044 -2.16535 0
M  V30 1317 H 119.292 -3.53456 -1.86839 0
M  V30 1318 H 120.732 -3.15311 -2.83469 0
M  V30 1319 C 119.191 -1.66968 -2.92615 0
M  V30 1320 O 119.721 -1.0967 -3.86439 0
M  V30 1321 N 117.927 -1.37923 -2.55784 0
M  V30 1322 H 117.474 -1.84706 -1.79559 0
M  V30 1323 H 117.432 -0.67852 -3.06991 0
M  V30 1324 N 121.204 0.198386 -1.56346 0
M  V30 1325 C 122.152 1.26538 -1.95169 0
M  V30 1326 C 123.146 1.47295 -0.836685 0
M  V30 1327 O 124.352 1.48195 -1.02167 0
M  V30 1328 H 120.727 0.424744 -0.620561 0
M  V30 1329 H 122.698 0.910904 -2.84157 0
M  V30 1330 C 121.447 2.6035 -2.30463 0
M  V30 1331 H 120.77 2.45192 -3.15786 0
M  V30 1332 H 122.21 3.33762 -2.61494 0
M  V30 1333 C 120.669 3.17096 -1.13806 0
M  V30 1334 O 121.199 3.99588 -0.41135 0
M  V30 1335 N 119.405 2.75795 -0.915736 0
M  V30 1336 H 118.952 2.08816 -1.50843 0
M  V30 1337 H 118.91 3.14101 -0.136979 0
M  V30 1338 N 122.682 1.50554 0.465978 0
M  V30 1339 C 123.93 1.61479 1.21528 0
M  V30 1340 C 124.251 0.319596 1.92363 0
M  V30 1341 O 123.521 -0.663194 1.84333 0
M  V30 1342 H 122.101 0.595055 0.451573 0
M  V30 1343 H 124.763 1.87355 0.53704 0
M  V30 1344 H 123.859 2.42846 1.96042 0
M  V30 1345 N 124.16 -0.719506 1.40217 0
M  V30 1346 C 125.385 -1.51371 1.4178 0
M  V30 1347 C 125.81 -1.88091 0.0182355 0
M  V30 1348 O 125.168 -1.52997 -0.972707 0
M  V30 1349 C 125.216 -2.768 2.31115 0
M  V30 1350 O 124.32 -3.73349 1.7517 0
M  V30 1351 H 123.661 -0.456529 0.482159 0
M  V30 1352 H 126.191 -0.88644 1.844 0
M  V30 1353 H 126.201 -3.25371 2.46167 0
M  V30 1354 H 124.876 -2.49407 3.3282 0
M  V30 1355 H 123.453 -3.32179 1.69444 0
M  V30 1356 N 125.638 -1.25649 -0.95132 0
M  V30 1357 C 126.887 -1.09988 -1.69073 0
M  V30 1358 C 127.2 0.358355 -1.92289 0
M  V30 1359 O 128.406 0.635466 -2.63958 0
M  V30 1360 C 126.862 -1.92012 -3.044 0
M  V30 1361 C 126.47 -3.42347 -2.88968 0
M  V30 1362 C 128.214 -1.8493 -3.82101 0
M  V30 1363 C 126.121 -4.16655 -4.19705 0
M  V30 1364 H 125.051 -0.407993 -0.63408 0
M  V30 1365 H 127.702 -1.49873 -1.05879 0
M  V30 1366 H 126.084 -1.44952 -3.68517 0
M  V30 1367 H 127.258 -3.97104 -2.33762 0
M  V30 1368 H 125.573 -3.50557 -2.24719 0
M  V30 1369 H 128.17 -2.37739 -4.78941 0
M  V30 1370 H 128.513 -0.817883 -4.08187 0
M  V30 1371 H 129.046 -2.29758 -3.2474 0
M  V30 1372 H 125.785 -5.20224 -3.98807 0
M  V30 1373 H 125.305 -3.66681 -4.74663 0
M  V30 1374 H 126.984 -4.24551 -4.88227 0
M  V30 1375 N 127.117 1.15442 -1.07289 0
M  V30 1376 C 128.047 2.22312 -0.714107 0
M  V30 1377 C 129.028 1.67467 0.298155 0
M  V30 1378 O 130.213 1.93445 0.171048 0
M  V30 1379 C 127.343 3.47124 -0.110448 0
M  V30 1380 C 126.297 4.14926 -1.04979 0
M  V30 1381 C 125.623 5.33807 -0.308924 0
M  V30 1382 C 126.923 4.64762 -2.38314 0
M  V30 1383 H 128.617 2.5258 -1.6076 0
M  V30 1384 H 126.163 1.21404 -0.77441 0
M  V30 1385 H 128.116 4.21124 0.152482 0
M  V30 1386 H 126.84 3.16187 0.81812 0
M  V30 1387 H 125.499 3.42866 -1.29764 0
M  V30 1388 H 125.147 4.99126 0.623084 0
M  V30 1389 H 124.847 5.80113 -0.935036 0
M  V30 1390 H 126.371 6.10576 -0.0537771 0
M  V30 1391 H 127.785 5.30292 -2.1786 0
M  V30 1392 H 126.182 5.21728 -2.96514 0
M  V30 1393 H 127.252 3.80434 -3.00663 0
M  V30 1394 N 128.595 0.856903 1.32268 0
M  V30 1395 C 129.528 0.247937 2.26849 0
M  V30 1396 C 130.506 -0.615382 1.50505 0
M  V30 1397 O 131.69 -0.571689 1.79622 0
M  V30 1398 C 128.817 -0.650093 3.32403 0
M  V30 1399 C 127.863 0.140138 4.2627 0
M  V30 1400 S 128.696 1.51004 5.13769 0
M  V30 1401 C 129.852 0.61778 6.22844 0
M  V30 1402 H 130.085 1.04971 2.78152 0
M  V30 1403 H 127.618 0.654665 1.39834 0
M  V30 1404 H 129.576 -1.16256 3.93694 0
M  V30 1405 H 128.237 -1.4257 2.7988 0
M  V30 1406 H 127.43 -0.543945 5.01056 0
M  V30 1407 H 127.032 0.584267 3.69408 0
M  V30 1408 H 129.324 -0.177053 6.77269 0
M  V30 1409 H 130.267 1.33636 6.95375 0
M  V30 1410 H 130.675 0.191124 5.64176 0
M  V30 1411 N 130.073 -1.45103 0.615059 0
M  V30 1412 C 131.322 -2.01396 0.110718 0
M  V30 1413 C 131.635 -1.48834 -1.26916 0
M  V30 1414 O 132.841 -1.97152 -1.86664 0
M  V30 1415 C 131.297 -3.59599 0.14723 0
M  V30 1416 C 130.905 -4.21158 1.52743 0
M  V30 1417 C 132.649 -4.23428 -0.30148 0
M  V30 1418 C 130.556 -5.71535 1.51992 0
M  V30 1419 H 129.486 -0.753061 0.0376241 0
M  V30 1420 H 132.137 -1.66494 0.77149 0
M  V30 1421 H 130.519 -3.91724 -0.580339 0
M  V30 1422 H 131.693 -4.00594 2.2773 0
M  V30 1423 H 130.008 -3.69552 1.91886 0
M  V30 1424 H 132.605 -5.33703 -0.326392 0
M  V30 1425 H 132.948 -3.94629 -1.32565 0
M  V30 1426 H 133.481 -3.96047 0.373065 0
M  V30 1427 H 130.22 -6.05044 2.52193 0
M  V30 1428 H 129.74 -5.94268 0.81274 0
M  V30 1429 H 131.419 -6.34873 1.24681 0
M  V30 1430 N 131.551 -0.354651 -1.53558 0
M  V30 1431 C 132.779 0.239515 -2.05509 0
M  V30 1432 C 133.194 1.4333 -1.2289 0
M  V30 1433 O 132.551 1.80538 -0.266899 0
M  V30 1434 C 132.602 0.643719 -3.55723 0
M  V30 1435 O 132.323 -0.502602 -4.35207 0
M  V30 1436 C 133.824 1.29743 -4.23889 0
M  V30 1437 H 131.044 0.0442697 -0.669538 0
M  V30 1438 H 133.588 -0.509856 -1.98042 0
M  V30 1439 H 131.743 1.34302 -3.63376 0
M  V30 1440 H 132.157 -0.178172 -5.24197 0
M  V30 1441 H 133.631 1.53091 -5.30346 0
M  V30 1442 H 134.108 2.25441 -3.76926 0
M  V30 1443 H 134.714 0.639865 -4.20459 0
M  V30 1444 N 133.029 1.57378 -0.0835403 0
M  V30 1445 C 134.275 1.95025 0.577664 0
M  V30 1446 C 134.63 0.964049 1.66505 0
M  V30 1447 O 133.923 -0.0118235 1.91596 0
M  V30 1448 C 134.117 3.37063 1.1884 0
M  V30 1449 C 133.946 4.49409 0.16171 0
M  V30 1450 C 132.716 5.04642 -0.257756 0
M  V30 1451 C 134.914 5.10722 -0.605634 0
M  V30 1452 N 132.896 6.00537 -1.27393 0
M  V30 1453 C 134.267 6.02225 -1.47395 0
M  V30 1454 C 136.322 4.93501 -0.660418 0
M  V30 1455 C 135.025 6.78355 -2.39221 0
M  V30 1456 C 137.051 5.70283 -1.56623 0
M  V30 1457 C 136.413 6.61444 -2.4222 0
M  V30 1458 H 132.512 0.760512 0.182058 0
M  V30 1459 H 135.096 1.94013 -0.163419 0
M  V30 1460 H 133.267 3.3879 1.89936 0
M  V30 1461 H 134.999 3.61917 1.81103 0
M  V30 1462 H 131.754 4.73428 0.127702 0
M  V30 1463 H 132.178 6.53184 -1.77987 0
M  V30 1464 H 136.82 4.22798 -0.0128221 0
M  V30 1465 H 134.538 7.48327 -3.05011 0
M  V30 1466 H 138.124 5.58976 -1.61361 0
M  V30 1467 H 137.004 7.1982 -3.11174 0
M  V30 1468 N 134.507 -0.190092 1.56449 0
M  V30 1469 C 135.417 -1.25591 1.98152 0
M  V30 1470 C 136.433 -1.49519 0.889944 0
M  V30 1471 O 137.609 -1.62036 1.19609 0
M  V30 1472 C 134.674 -2.57916 2.3169 0
M  V30 1473 C 133.735 -2.42015 3.5458 0
M  V30 1474 C 132.968 -3.6803 3.8651 0
M  V30 1475 O 133.191 -4.72413 3.1966 0
M  V30 1476 O 132.125 -3.6326 4.79923 0
M  V30 1477 H 135.951 -0.931988 2.89046 0
M  V30 1478 H 133.536 -0.395488 1.4407 0
M  V30 1479 H 135.418 -3.36008 2.54316 0
M  V30 1480 H 134.093 -2.89925 1.43963 0
M  V30 1481 H 133 -1.62017 3.37196 0
M  V30 1482 H 134.333 -2.14937 4.4279 0
M  V30 1483 N 135.985 -1.50799 -0.457987 0
M  V30 1484 C 137.396 -1.55152 -1.0385 0
M  V30 1485 C 137.747 -0.362719 -1.92818 0
M  V30 1486 O 136.872 0.522915 -2.09987 0
M  V30 1487 C 137.467 -2.81173 -1.89017 0
M  V30 1488 C 136.026 -2.88164 -2.42154 0
M  V30 1489 C 135.173 -2.49591 -1.20829 0
M  V30 1490 H 138.124 -1.56874 -0.240068 0
M  V30 1491 H 138.145 -2.63769 -2.74238 0
M  V30 1492 H 137.657 -3.67677 -1.24238 0
M  V30 1493 H 135.758 -2.06042 -3.10447 0
M  V30 1494 H 135.871 -3.91356 -2.76364 0
M  V30 1495 H 134.235 -2.02322 -1.54719 0
M  V30 1496 H 135.018 -3.38418 -0.576927 0
M  V30 1497 N 137.463 0.71206 -1.40597 0
M  V30 1498 C 138.709 1.47292 -1.40274 0
M  V30 1499 C 139.064 1.92399 -0.00576812 0
M  V30 1500 O 138.357 1.65507 0.965297 0
M  V30 1501 C 138.551 2.71039 -2.32965 0
M  V30 1502 C 138.38 2.38035 -3.81536 0
M  V30 1503 C 137.15 2.29203 -4.50327 0
M  V30 1504 C 139.348 2.02076 -4.72938 0
M  V30 1505 N 137.33 1.88911 -5.84111 0
M  V30 1506 C 138.701 1.72412 -5.95545 0
M  V30 1507 C 140.756 1.88742 -4.60739 0
M  V30 1508 C 139.459 1.30756 -7.07316 0
M  V30 1509 C 141.485 1.4849 -5.72455 0
M  V30 1510 C 140.847 1.19726 -6.94151 0
M  V30 1511 H 136.946 0.536919 -0.568544 0
M  V30 1512 H 139.53 0.825424 -1.76337 0
M  V30 1513 H 137.701 3.33533 -1.99023 0
M  V30 1514 H 139.433 3.37404 -2.23474 0
M  V30 1515 H 136.188 2.47059 -4.04053 0
M  V30 1516 H 136.612 1.71293 -6.54972 0
M  V30 1517 H 141.254 2.0964 -3.67166 0
M  V30 1518 H 138.972 1.08601 -8.00769 0
M  V30 1519 H 142.558 1.38747 -5.65014 0
M  V30 1520 H 141.438 0.890482 -7.79128 0
M  V30 1521 N 138.941 1.26152 0.944643 0
M  V30 1522 C 139.851 1.09176 2.07648 0
M  V30 1523 C 140.867 0.0261935 1.7398 0
M  V30 1524 O 142.043 0.229208 2.00091 0
M  V30 1525 C 139.108 0.722915 3.39079 0
M  V30 1526 C 138.169 1.86752 3.86552 0
M  V30 1527 C 137.402 1.51617 5.11711 0
M  V30 1528 O 137.625 0.416331 5.68879 0
M  V30 1529 O 136.559 2.34975 5.54139 0
M  V30 1530 H 140.385 2.0412 2.24875 0
M  V30 1531 H 137.97 1.05182 1.061 0
M  V30 1532 H 139.852 0.529787 4.18056 0
M  V30 1533 H 138.527 -0.197159 3.23099 0
M  V30 1534 H 137.434 2.11558 3.08535 0
M  V30 1535 H 138.767 2.76719 4.07047 0
M  V30 1536 N 140.419 -1.14872 1.07899 0
M  V30 1537 C 141.649 -1.89386 0.825631 0
M  V30 1538 C 142.057 -1.78565 -0.625406 0
M  V30 1539 O 141.4 -1.13918 -1.44113 0
M  V30 1540 C 141.462 -3.40206 1.16191 0
M  V30 1541 C 141.126 -3.74812 2.61467 0
M  V30 1542 C 142.123 -3.75367 3.59716 0
M  V30 1543 C 139.808 -4.0495 2.97189 0
M  V30 1544 C 141.802 -4.05574 4.9172 0
M  V30 1545 C 139.489 -4.34821 4.29388 0
M  V30 1546 C 140.487 -4.35116 5.26463 0
M  V30 1547 O 140.175 -4.64267 6.56286 0
M  V30 1548 H 139.907 -0.606894 0.297751 0
M  V30 1549 H 142.461 -1.46438 1.44031 0
M  V30 1550 H 140.691 -3.8358 0.490214 0
M  V30 1551 H 142.38 -3.96018 0.890193 0
M  V30 1552 H 143.146 -3.52176 3.33462 0
M  V30 1553 H 139.025 -4.03876 2.22273 0
M  V30 1554 H 142.569 -4.05719 5.67484 0
M  V30 1555 H 138.466 -4.5748 4.55392 0
M  V30 1556 H 139.234 -4.82007 6.61522 0
M  V30 1557 N 141.898 -0.863906 -1.31812 0
M  V30 1558 C 142.846 -0.30422 -2.30602 0
M  V30 1559 C 143.84 0.577419 -1.59255 0
M  V30 1560 O 145.046 0.464194 -1.73912 0
M  V30 1561 H 141.421 -0.0796877 -0.747766 0
M  V30 1562 H 143.392 -1.15148 -2.75288 0
M  V30 1563 C 142.141 0.484617 -3.44306 0
M  V30 1564 H 141.464 -0.18451 -3.99374 0
M  V30 1565 H 142.904 0.841664 -4.15562 0
M  V30 1566 C 141.363 1.6735 -2.92396 0
M  V30 1567 O 141.893 2.77273 -2.90659 0
M  V30 1568 N 140.099 1.50362 -2.48676 0
M  V30 1569 H 139.646 0.609402 -2.50288 0
M  V30 1570 H 139.604 2.30051 -2.14299 0
M  V30 1571 N 143.376 1.44774 -0.622745 0
M  V30 1572 C 144.604 2.06487 -0.130722 0
M  V30 1573 C 145.019 1.46476 1.19123 0
M  V30 1574 O 144.376 0.584502 1.72887 0
M  V30 1575 C 144.427 3.615 -0.000807207 0
M  V30 1576 O 144.148 4.19274 -1.27048 0
M  V30 1577 C 145.649 4.40229 0.520898 0
M  V30 1578 H 142.869 0.666704 -0.0758106 0
M  V30 1579 H 145.413 1.85779 -0.854774 0
M  V30 1580 H 143.568 3.81498 0.673643 0
M  V30 1581 H 143.982 5.12622 -1.1099 0
M  V30 1582 H 145.456 5.49144 0.560838 0
M  V30 1583 H 145.933 4.1108 1.54627 0
M  V30 1584 H 146.539 4.25131 -0.120018 0
M  V30 1585 N 144.854 0.36279 1.53368 0
M  V30 1586 C 146.1 -0.228113 2.01513 0
M  V30 1587 C 146.433 -1.48648 1.2497 0
M  V30 1588 O 145.708 -1.91459 0.342616 0
M  V30 1589 C 145.991 -0.522884 3.56284 0
M  V30 1590 C 145.844 0.74892 4.43521 0
M  V30 1591 C 147.163 -1.32461 4.19693 0
M  V30 1592 H 144.282 -0.0814343 0.732487 0
M  V30 1593 H 146.924 0.48713 1.83649 0
M  V30 1594 H 145.074 -1.1322 3.71636 0
M  V30 1595 H 146.746 1.38648 4.39971 0
M  V30 1596 H 144.989 1.36986 4.11603 0
M  V30 1597 H 145.66 0.497667 5.49752 0
M  V30 1598 H 148.136 -0.809203 4.08156 0
M  V30 1599 H 147.012 -1.49961 5.28018 0
M  V30 1600 H 147.273 -2.33232 3.75573 0
M  V30 1601 N 146.332 -1.57332 0.0918853 0
M  V30 1602 C 147.609 -1.85691 -0.614668 0
M  V30 1603 C 147.989 -0.988146 -1.86545 0
M  V30 1604 O 147.337 -0.0597055 -2.28422 0
M  V30 1605 C 147.547 -3.36294 -0.933126 0
M  V30 1606 C 148.895 -4.04275 -1.29796 0
M  V30 1607 O 149.919 -3.41157 -1.02424 0
M  V30 1608 O 148.778 -5.1564 -1.81047 0
M  V30 1609 H 145.872 -0.767802 -0.307261 0
M  V30 1610 H 148.418 -1.69244 0.12434 0
M  V30 1611 H 147.19 -3.91273 -0.0456404 0
M  V30 1612 H 146.813 -3.58076 -1.72822 0
M  V30 1613 N 147.81 0.181792 -1.56548 0
M  V30 1614 C 149.059 0.898348 -1.8059 0
M  V30 1615 C 149.372 1.83862 -0.667379 0
M  V30 1616 O 150.578 2.59678 -0.792446 0
M  V30 1617 C 149.034 1.64791 -3.19956 0
M  V30 1618 C 148.642 0.751789 -4.41647 0
M  V30 1619 C 150.386 2.35331 -3.53298 0
M  V30 1620 C 148.293 1.50098 -5.72035 0
M  V30 1621 H 147.223 0.339194 -0.673397 0
M  V30 1622 H 149.874 0.151413 -1.82874 0
M  V30 1623 H 148.256 2.43921 -3.11959 0
M  V30 1624 H 149.43 -0.0018076 -4.608 0
M  V30 1625 H 147.745 0.156562 -4.16106 0
M  V30 1626 H 150.342 2.91958 -4.47956 0
M  V30 1627 H 150.685 3.10164 -2.77676 0
M  V30 1628 H 151.218 1.63154 -3.62803 0
M  V30 1629 H 147.957 0.795175 -6.50659 0
M  V30 1630 H 147.477 2.22817 -5.56878 0
M  V30 1631 H 149.156 2.05125 -6.13622 0
M  V30 1632 N 149.288 1.51039 0.449983 0
M  V30 1633 C 150.235 1.71439 1.54523 0
M  V30 1634 C 151.205 0.555871 1.56522 0
M  V30 1635 O 152.39 0.788871 1.73728 0
M  V30 1636 C 149.53 1.83384 2.92343 0
M  V30 1637 C 148.643 3.10873 2.9997 0
M  V30 1638 C 147.778 3.13488 4.28834 0
M  V30 1639 C 146.817 4.35343 4.30282 0
M  V30 1640 N 145.954 4.35579 5.5065 0
M  V30 1641 H 150.794 2.64934 1.36433 0
M  V30 1642 H 148.331 1.31312 0.662982 0
M  V30 1643 H 150.289 1.88291 3.72293 0
M  V30 1644 H 148.919 0.933086 3.0902 0
M  V30 1645 H 147.971 3.15336 2.12761 0
M  V30 1646 H 149.283 4.00814 2.96901 0
M  V30 1647 H 148.437 3.17241 5.17149 0
M  V30 1648 H 147.176 2.21414 4.34543 0
M  V30 1649 H 146.181 4.3178 3.40362 0
M  V30 1650 H 147.406 5.28668 4.26248 0
M  V30 1651 H 145.352 3.46369 5.57104 0
M  V30 1652 H 145.269 5.19313 5.49409 0
M  V30 1653 H 146.537 4.43507 6.41032 0
M  V30 1654 N 150.766 -0.704594 1.40972 0
M  V30 1655 C 151.714 -1.83994 1.42299 0
M  V30 1656 C 152.708 -1.66684 0.302111 0
M  V30 1657 O 153.914 -1.73655 0.473697 0
M  V30 1658 H 150.289 -0.606171 0.44504 0
M  V30 1659 H 152.26 -1.79992 2.38003 0
M  V30 1660 C 151.009 -3.21946 1.31323 0
M  V30 1661 H 150.332 -3.35878 2.16855 0
M  V30 1662 H 151.772 -4.01491 1.36311 0
M  V30 1663 C 150.231 -3.36891 0.0245977 0
M  V30 1664 O 150.761 -3.90687 -0.934153 0
M  V30 1665 N 148.967 -2.90559 -0.0485243 0
M  V30 1666 H 148.514 -2.46968 0.732419 0
M  V30 1667 H 148.472 -3.00937 -0.910171 0
M  V30 1668 N 152.244 -1.26651 -0.937939 0
M  V30 1669 C 153.492 -1.12165 -1.68118 0
M  V30 1670 C 153.813 0.334983 -1.92101 0
M  V30 1671 O 153.083 1.23583 -1.52 0
M  V30 1672 H 151.663 -0.412093 -0.623048 0
M  V30 1673 H 154.325 -1.59027 -1.12678 0
M  V30 1674 H 153.421 -1.64289 -2.6536 0
M  V30 1675 N 153.722 1.14298 -1.08507 0
M  V30 1676 C 154.669 2.19414 -0.715965 0
M  V30 1677 C 155.639 1.63399 0.298326 0
M  V30 1678 O 156.824 1.89929 0.182101 0
M  V30 1679 C 153.964 3.44845 -0.132534 0
M  V30 1680 C 153.077 4.15007 -1.19973 0
M  V30 1681 C 152.212 5.28024 -0.580048 0
M  V30 1682 C 151.251 5.9002 -1.62921 0
M  V30 1683 N 150.388 6.94485 -1.03125 0
M  V30 1684 H 155.228 2.50336 -1.61666 0
M  V30 1685 H 152.765 1.2293 -0.807882 0
M  V30 1686 H 154.723 4.16601 0.223454 0
M  V30 1687 H 153.353 3.14403 0.731467 0
M  V30 1688 H 152.405 3.41629 -1.67313 0
M  V30 1689 H 153.717 4.57178 -1.99473 0
M  V30 1690 H 152.871 6.06455 -0.172364 0
M  V30 1691 H 151.61 4.87076 0.246603 0
M  V30 1692 H 150.615 5.10291 -2.04654 0
M  V30 1693 H 151.84 6.33042 -2.45835 0
M  V30 1694 H 149.786 6.55612 -0.225711 0
M  V30 1695 H 149.703 7.35148 -1.76334 0
M  V30 1696 H 150.971 7.7679 -0.649458 0
M  V30 1697 N 155.201 0.870884 1.31352 0
M  V30 1698 C 156.164 0.332243 2.26779 0
M  V30 1699 C 157.164 -0.517302 1.52252 0
M  V30 1700 O 158.354 -0.326477 1.71113 0
M  V30 1701 C 155.486 -0.528066 3.36785 0
M  V30 1702 H 156.679 1.17469 2.75937 0
M  V30 1703 H 154.232 0.64655 1.423 0
M  V30 1704 H 154.967 -1.39167 2.92922 0
M  V30 1705 H 154.752 0.0802582 3.92018 0
M  V30 1706 H 156.242 -0.897179 4.07849 0
M  V30 1707 N 156.679 -1.44442 0.630414 0
M  V30 1708 C 157.956 -1.9549 0.0655657 0
M  V30 1709 C 158.336 -1.5724 -1.40851 0
M  V30 1710 O 157.684 -0.846116 -2.12257 0
M  V30 1711 C 157.894 -3.47812 0.287691 0
M  V30 1712 C 159.242 -4.24216 0.180513 0
M  V30 1713 O 160.266 -3.55526 0.219019 0
M  V30 1714 O 159.125 -5.46434 0.0848493 0
M  V30 1715 H 156.219 -0.826688 -0.0227177 0
M  V30 1716 H 158.765 -1.54496 0.702068 0
M  V30 1717 H 157.537 -3.687 1.31056 0
M  V30 1718 H 157.16 -3.95751 -0.382984 0
M  V30 1719 N 158.157 -0.370918 -1.53173 0
M  V30 1720 C 159.12 0.460778 -2.24521 0
M  V30 1721 C 160.12 1.00536 -1.25496 0
M  V30 1722 O 161.31 0.890266 -1.49733 0
M  V30 1723 C 158.442 1.64457 -2.98608 0
M  V30 1724 H 159.635 -0.163613 -2.99453 0
M  V30 1725 H 157.188 -0.122699 -1.55818 0
M  V30 1726 H 157.923 2.30691 -2.2793 0
M  V30 1727 H 157.708 1.26099 -3.7127 0
M  V30 1728 H 159.198 2.23384 -3.5283 0
M  V30 1729 N 159.635 1.57281 -0.100228 0
M  V30 1730 C 160.865 1.98591 0.569681 0
M  V30 1731 C 161.273 0.978315 1.61943 0
M  V30 1732 O 160.616 -0.0396108 1.83657 0
M  V30 1733 C 160.678 3.36282 1.271 0
M  V30 1734 C 160.342 4.55488 0.371409 0
M  V30 1735 C 161.339 5.18491 -0.382504 0
M  V30 1736 C 159.024 5.01474 0.287965 0
M  V30 1737 C 161.018 6.25852 -1.20779 0
M  V30 1738 C 158.705 6.08701 -0.540965 0
M  V30 1739 C 159.703 6.70755 -1.28749 0
M  V30 1740 O 159.391 7.75914 -2.10269 0
M  V30 1741 H 159.123 0.65752 0.156982 0
M  V30 1742 H 161.677 2.0463 -0.177734 0
M  V30 1743 H 159.907 3.26941 2.0651 0
M  V30 1744 H 161.596 3.62005 1.83595 0
M  V30 1745 H 162.362 4.83891 -0.3278 0
M  V30 1746 H 158.241 4.52932 0.858689 0
M  V30 1747 H 161.785 6.74218 -1.79096 0
M  V30 1748 H 157.682 6.42732 -0.597131 0
M  V30 1749 H 158.45 7.92925 -2.03007 0
M  V30 1750 N 161.113 -0.173488 1.56642 0
M  V30 1751 C 162.362 -0.888758 1.81063 0
M  V30 1752 C 162.675 -1.83506 0.67712 0
M  V30 1753 O 163.881 -2.59254 0.806206 0
M  V30 1754 C 162.337 -1.63091 3.20826 0
M  V30 1755 C 161.945 -0.728357 4.4204 0
M  V30 1756 C 163.689 -2.33454 3.54541 0
M  V30 1757 C 161.596 -1.47062 5.72823 0
M  V30 1758 H 160.526 -0.335618 0.675186 0
M  V30 1759 H 163.177 -0.141712 1.82952 0
M  V30 1760 H 161.559 -2.42263 3.13248 0
M  V30 1761 H 162.733 0.0262449 4.60793 0
M  V30 1762 H 161.048 -0.134492 4.16183 0
M  V30 1763 H 163.645 -2.89578 4.49498 0
M  V30 1764 H 163.988 -3.08687 2.79317 0
M  V30 1765 H 164.521 -1.61227 3.63663 0
M  V30 1766 H 161.26 -0.760658 6.51072 0
M  V30 1767 H 160.78 -2.1986 5.58052 0
M  V30 1768 H 162.459 -2.01868 6.14702 0
M  V30 1769 N 162.591 -1.51276 -0.441967 0
M  V30 1770 C 163.819 -1.67516 -1.21434 0
M  V30 1771 C 164.234 -0.37055 -1.85128 0
M  V30 1772 O 163.591 0.650498 -1.70513 0
M  V30 1773 C 163.642 -2.78748 -2.30177 0
M  V30 1774 O 163.363 -4.04154 -1.69089 0
M  V30 1775 C 164.864 -3.06217 -3.20541 0
M  V30 1776 H 162.084 -0.562276 -0.366178 0
M  V30 1777 H 164.628 -1.97666 -0.524244 0
M  V30 1778 H 162.783 -2.5121 -2.94911 0
M  V30 1779 H 163.197 -4.65894 -2.40922 0
M  V30 1780 H 164.671 -3.8764 -3.92987 0
M  V30 1781 H 165.148 -2.18439 -3.81026 0
M  V30 1782 H 165.754 -3.35397 -2.61513 0
M  V30 1783 N 164.069 0.697108 -1.41344 0
M  V30 1784 C 165.485 1.00751 -1.2378 0
M  V30 1785 C 165.685 2.01105 -0.126066 0
M  V30 1786 O 164.741 2.47295 0.51004 0
M  V30 1787 C 166.054 1.53359 -2.58653 0
M  V30 1788 C 167.602 1.6525 -2.65822 0
M  V30 1789 C 168.077 2.2126 -4.01009 0
M  V30 1790 N 169.568 2.28622 -4.02847 0
M  V30 1791 C 170.303 2.72984 -5.04249 0
M  V30 1792 N 169.799 3.16962 -6.16041 0
M  V30 1793 N 171.592 2.72534 -4.91611 0
M  V30 1794 H 163.743 0.0322662 -2.12375 0
M  V30 1795 H 166.006 0.0768853 -0.944877 0
M  V30 1796 H 165.712 0.870773 -3.4075 0
M  V30 1797 H 165.586 2.51597 -2.81032 0
M  V30 1798 H 167.973 2.30644 -1.84086 0
M  V30 1799 H 168.054 0.655614 -2.47256 0
M  V30 1800 H 167.698 1.56482 -4.83193 0
M  V30 1801 H 167.628 3.21698 -4.16915 0
M  V30 1802 H 170.119 1.97585 -3.22131 0
M  V30 1803 H 170.432 3.49434 -6.89287 0
M  V30 1804 H 168.777 3.14875 -6.1958 0
M  V30 1805 H 171.968 2.37525 -4.0336 0
M  V30 1806 H 172.141 3.06789 -5.70775 0
M  V30 1807 N 165.547 1.27147 0.931209 0
M  V30 1808 C 166.48 1.0389 2.0318 0
M  V30 1809 C 167.458 -0.0395716 1.62552 0
M  V30 1810 O 168.642 0.104867 1.88208 0
M  V30 1811 C 165.769 0.575227 3.3378 0
M  V30 1812 C 164.815 1.64774 3.93385 0
M  V30 1813 S 165.648 3.23933 4.26413 0
M  V30 1814 C 166.804 2.79358 5.60098 0
M  V30 1815 H 167.037 1.97075 2.22596 0
M  V30 1816 H 164.57 1.10938 1.07387 0
M  V30 1817 H 166.528 0.314385 4.09294 0
M  V30 1818 H 165.189 -0.336505 3.12292 0
M  V30 1819 H 164.382 1.27454 4.87618 0
M  V30 1820 H 163.984 1.86048 3.24441 0
M  V30 1821 H 166.276 2.24443 6.39243 0
M  V30 1822 H 167.219 3.72322 6.02314 0
M  V30 1823 H 167.627 2.1861 5.20452 0
M  V30 1824 N 167.025 -1.13721 1.09112 0
M  V30 1825 C 167.988 -2.17222 0.731241 0
M  V30 1826 C 168.988 -1.59035 -0.237566 0
M  V30 1827 O 170.178 -1.74192 -0.0161704 0
M  V30 1828 C 167.31 -3.40804 0.0808443 0
M  V30 1829 H 168.503 -2.50573 1.64783 0
M  V30 1830 H 166.056 -1.28493 0.889897 0
M  V30 1831 H 166.791 -3.1304 -0.847127 0
M  V30 1832 H 166.576 -3.84306 0.777896 0
M  V30 1833 H 168.066 -4.1731 -0.155657 0
M  V30 1834 N 168.503 -0.877838 -1.30888 0
M  V30 1835 C 169.435 -0.296607 -2.27273 0
M  V30 1836 C 170.448 0.544799 -1.53414 0
M  V30 1837 O 171.637 0.365511 -1.74718 0
M  V30 1838 C 168.737 0.597481 -3.33592 0
M  V30 1839 C 167.91 -0.213251 -4.3688 0
M  V30 1840 C 166.969 0.610208 -5.2265 0
M  V30 1841 O 165.995 0.035441 -5.69189 0
M  V30 1842 N 167.197 1.92071 -5.47804 0
M  V30 1843 H 169.962 -1.12492 -2.77787 0
M  V30 1844 H 167.523 -0.740105 -1.43993 0
M  V30 1845 H 169.515 1.15425 -3.87891 0
M  V30 1846 H 168.085 1.32647 -2.83061 0
M  V30 1847 H 167.305 -0.951466 -3.82545 0
M  V30 1848 H 168.593 -0.769262 -5.02951 0
M  V30 1849 H 167.991 2.4107 -5.11763 0
M  V30 1850 H 166.548 2.42508 -6.05007 0
M  V30 1851 N 169.982 1.44106 -0.638065 0
M  V30 1852 C 171.259 1.95453 -0.0759321 0
M  V30 1853 C 171.639 1.57984 1.40015 0
M  V30 1854 O 170.987 0.857361 2.11806 0
M  V30 1855 C 171.197 3.47655 -0.306132 0
M  V30 1856 C 172.545 4.24114 -0.203008 0
M  V30 1857 O 173.569 3.55405 -0.237871 0
M  V30 1858 O 172.428 5.46381 -0.113827 0
M  V30 1859 H 169.522 0.826797 0.0183332 0
M  V30 1860 H 172.068 1.54122 -0.710251 0
M  V30 1861 H 170.84 3.68 -1.3301 0
M  V30 1862 H 170.463 3.95949 0.361991 0
M  V30 1863 N 171.46 0.379036 1.52974 0
M  V30 1864 C 172.393 -0.504932 2.22544 0
M  V30 1865 C 173.371 -1.0723 1.22231 0
M  V30 1866 O 174.555 -1.12589 1.51182 0
M  V30 1867 C 171.682 -1.69794 2.93066 0
M  V30 1868 C 170.728 -1.25678 4.07563 0
M  V30 1869 S 171.561 -0.246852 5.34931 0
M  V30 1870 C 172.717 -1.44588 6.08971 0
M  V30 1871 H 172.95 0.0858666 2.97176 0
M  V30 1872 H 170.483 0.163183 1.53535 0
M  V30 1873 H 172.441 -2.38219 3.34308 0
M  V30 1874 H 171.102 -2.26002 2.18133 0
M  V30 1875 H 170.295 -2.14725 4.5597 0
M  V30 1876 H 169.897 -0.651584 3.6828 0
M  V30 1877 H 172.189 -2.37469 6.34519 0
M  V30 1878 H 173.132 -1.00292 7.00962 0
M  V30 1879 H 173.54 -1.65804 5.39601 0
M  V30 1880 N 172.938 -1.57226 0.108567 0
M  V30 1881 C 173.885 -2.14756 -0.845481 0
M  V30 1882 C 174.855 -1.06971 -1.27068 0
M  V30 1883 O 176.04 -1.34827 -1.35005 0
M  V30 1884 C 173.18 -2.74298 -2.09415 0
M  V30 1885 C 172.293 -3.96358 -1.71826 0
M  V30 1886 C 171.428 -4.44021 -2.9158 0
M  V30 1887 C 170.467 -5.58637 -2.50181 0
M  V30 1888 N 169.604 -6.01091 -3.62814 0
M  V30 1889 H 174.444 -2.95961 -0.348035 0
M  V30 1890 H 171.981 -1.46226 -0.160106 0
M  V30 1891 H 173.939 -3.06945 -2.82561 0
M  V30 1892 H 172.569 -1.95801 -2.56636 0
M  V30 1893 H 171.621 -3.69939 -0.885947 0
M  V30 1894 H 172.933 -4.79504 -1.37394 0
M  V30 1895 H 172.087 -4.78522 -3.72963 0
M  V30 1896 H 170.826 -3.59803 -3.29231 0
M  V30 1897 H 169.831 -5.23751 -1.67228 0
M  V30 1898 H 171.056 -6.44613 -2.13659 0
M  V30 1899 H 169.002 -5.19817 -4.00158 0
M  V30 1900 H 168.919 -6.79066 -3.32273 0
M  V30 1901 H 170.187 -6.40227 -4.44668 0
M  V30 1902 N 174.416 0.165178 -1.56732 0
M  V30 1903 C 175.379 1.18822 -1.95995 0
M  V30 1904 C 176.379 1.3685 -0.84431 0
M  V30 1905 O 177.569 1.34152 -1.11126 0
M  V30 1906 C 174.701 2.5521 -2.26011 0
M  V30 1907 H 175.894 0.851825 -2.87548 0
M  V30 1908 H 173.447 0.407857 -1.50885 0
M  V30 1909 H 174.182 2.93852 -1.37191 0
M  V30 1910 H 173.967 2.43489 -3.07336 0
M  V30 1911 H 175.457 3.28927 -2.57288 0
M  V30 1912 N 175.894 1.51508 0.433938 0
M  V30 1913 C 177.124 1.67914 1.20369 0
M  V30 1914 C 177.532 0.377461 1.85397 0
M  V30 1915 O 176.875 -0.654255 1.71654 0
M  V30 1916 C 176.937 2.74045 2.32679 0
M  V30 1917 C 176.601 4.16543 1.87991 0
M  V30 1918 C 177.598 5.01211 1.38145 0
M  V30 1919 C 175.283 4.6266 1.95579 0
M  V30 1920 C 177.277 6.30056 0.964774 0
M  V30 1921 C 174.964 5.91501 1.53523 0
M  V30 1922 C 175.962 6.75027 1.04055 0
M  V30 1923 O 175.65 8.01459 0.625964 0
M  V30 1924 H 175.382 0.566578 0.368735 0
M  V30 1925 H 177.936 1.98709 0.51999 0
M  V30 1926 H 176.166 2.38572 3.04336 0
M  V30 1927 H 177.855 2.79295 2.94532 0
M  V30 1928 H 178.621 4.66783 1.31675 0
M  V30 1929 H 174.5 3.97767 2.33029 0
M  V30 1930 H 178.044 6.95202 0.57796 0
M  V30 1931 H 173.941 6.25442 1.59665 0
M  V30 1932 H 174.709 8.15043 0.751509 0
M  V30 1933 N 177.372 -0.689602 1.41712 0
M  V30 1934 C 178.62 -1.4468 1.4111 0
M  V30 1935 C 178.941 -1.94986 0.0232196 0
M  V30 1936 O 178.211 -1.72097 -0.935913 0
M  V30 1937 H 176.791 -0.536847 0.519427 0
M  V30 1938 H 179.453 -0.815825 1.77004 0
M  V30 1939 H 178.549 -2.30706 2.10193 0
M  V30 1940 N 178.85 -1.27639 -0.924453 0
M  V30 1941 C 179.797 -1.10644 -2.0255 0
M  V30 1942 C 180.767 -0.00658438 -1.66099 0
M  V30 1943 O 181.952 -0.16952 -1.90045 0
M  V30 1944 C 179.092 -0.76309 -3.36557 0
M  V30 1945 C 178.205 -1.94091 -3.85944 0
M  V30 1946 C 177.34 -1.53914 -5.08413 0
M  V30 1947 C 176.379 -2.68425 -5.50104 0
M  V30 1948 N 175.516 -2.28815 -6.63768 0
M  V30 1949 H 180.356 -2.04858 -2.16419 0
M  V30 1950 H 177.893 -1.01974 -1.06017 0
M  V30 1951 H 179.851 -0.544822 -4.13627 0
M  V30 1952 H 178.481 0.142102 -3.22487 0
M  V30 1953 H 177.533 -2.27162 -3.05125 0
M  V30 1954 H 178.845 -2.7998 -4.12811 0
M  V30 1955 H 177.999 -1.28231 -5.92994 0
M  V30 1956 H 176.738 -0.651391 -4.8333 0
M  V30 1957 H 175.743 -2.94819 -4.64071 0
M  V30 1958 H 176.968 -3.57826 -5.7718 0
M  V30 1959 H 174.914 -1.42495 -6.40337 0
M  V30 1960 H 174.831 -3.08242 -6.90306 0
M  V30 1961 H 176.099 -2.06387 -7.51681 0
M  V30 1962 N 180.328 1.1314 -1.09713 0
M  V30 1963 C 181.238 2.22242 -0.751367 0
M  V30 1964 C 182.254 1.72224 0.247938 0
M  V30 1965 O 183.43 2.01205 0.0885463 0
M  V30 1966 C 180.495 3.46231 -0.180274 0
M  V30 1967 C 179.556 4.11125 -1.2359 0
M  V30 1968 C 178.789 5.29195 -0.691966 0
M  V30 1969 O 179.012 5.68342 0.48414 0
M  V30 1970 O 177.946 5.84214 -1.44838 0
M  V30 1971 H 181.772 2.54197 -1.66186 0
M  V30 1972 H 179.357 1.21331 -0.871735 0
M  V30 1973 H 181.239 4.21185 0.134739 0
M  V30 1974 H 179.914 3.1597 0.703185 0
M  V30 1975 H 178.821 3.37985 -1.60366 0
M  V30 1976 H 180.154 4.45524 -2.09211 0
M  V30 1977 N 181.806 0.884767 1.30421 0
M  V30 1978 C 183.055 0.499164 1.95426 0
M  V30 1979 C 183.368 -0.95645 1.70621 0
M  V30 1980 O 184.574 -1.44889 2.29607 0
M  V30 1981 C 183.03 0.84177 3.49917 0
M  V30 1982 C 182.638 2.31514 3.83543 0
M  V30 1983 C 184.382 0.525355 4.21237 0
M  V30 1984 C 182.289 2.59939 5.31212 0
M  V30 1985 H 181.219 0.182944 0.73147 0
M  V30 1986 H 183.87 1.07971 1.48373 0
M  V30 1987 H 182.252 0.190311 3.95542 0
M  V30 1988 H 183.426 3.0109 3.48829 0
M  V30 1989 H 181.741 2.59907 3.25326 0
M  V30 1990 H 184.338 0.714762 5.29901 0
M  V30 1991 H 184.681 -0.535222 4.12845 0
M  V30 1992 H 185.214 1.134 3.81294 0
M  V30 1993 H 181.953 3.64736 5.44654 0
M  V30 1994 H 181.473 1.94972 5.67227 0
M  V30 1995 H 183.152 2.45429 5.98643 0
M  V30 1996 N 183.284 -1.43765 0.645699 0
M  V30 1997 C 184.53 -2.02731 0.164844 0
M  V30 1998 C 184.885 -1.49983 -1.2051 0
M  V30 1999 O 184.178 -0.680208 -1.79119 0
M  V30 2000 C 184.372 -3.57238 0.107679 0
M  V30 2001 C 184.201 -4.24977 1.47054 0
M  V30 2002 C 182.971 -4.61356 2.06103 0
M  V30 2003 C 185.169 -4.54476 2.40741 0
M  V30 2004 N 183.151 -5.14132 3.35473 0
M  V30 2005 C 184.522 -5.08489 3.54737 0
M  V30 2006 C 186.577 -4.36438 2.39637 0
M  V30 2007 C 185.28 -5.46364 4.67845 0
M  V30 2008 C 187.306 -4.7537 3.5182 0
M  V30 2009 C 186.668 -5.2951 4.64541 0
M  V30 2010 H 182.767 -0.774976 0.104578 0
M  V30 2011 H 185.351 -1.75051 0.852367 0
M  V30 2012 H 183.522 -3.84498 -0.549165 0
M  V30 2013 H 185.254 -4.0288 -0.383351 0
M  V30 2014 H 182.009 -4.46151 1.58892 0
M  V30 2015 H 182.433 -5.4498 4.01654 0
M  V30 2016 H 187.075 -3.93861 1.53731 0
M  V30 2017 H 184.793 -5.87888 5.54448 0
M  V30 2018 H 188.379 -4.63115 3.52159 0
M  V30 2019 H 187.259 -5.59077 5.49911 0
M  V30 2020 N 184.763 -0.387143 -1.52771 0
M  V30 2021 C 185.693 0.440551 -2.29306 0
M  V30 2022 C 186.674 1.06535 -1.32606 0
M  V30 2023 O 187.859 1.07853 -1.61497 0
M  V30 2024 C 184.989 1.56919 -3.09829 0
M  V30 2025 C 183.943 1.07054 -4.14395 0
M  V30 2026 C 183.269 2.29109 -4.83129 0
M  V30 2027 C 184.569 0.140015 -5.22112 0
M  V30 2028 H 186.263 -0.198026 -2.98744 0
M  V30 2029 H 183.809 -0.09668 -1.43675 0
M  V30 2030 H 185.762 2.15503 -3.62128 0
M  V30 2031 H 184.486 2.23532 -2.3812 0
M  V30 2032 H 183.145 0.507247 -3.63074 0
M  V30 2033 H 182.793 2.94227 -4.0797 0
M  V30 2034 H 182.493 1.96406 -5.53804 0
M  V30 2035 H 184.017 2.88339 -5.38231 0
M  V30 2036 H 185.431 0.633978 -5.69784 0
M  V30 2037 H 183.828 -0.0971485 -6.00021 0
M  V30 2038 H 184.898 -0.811711 -4.78058 0
M  V30 2039 N 186.241 1.57166 -0.116904 0
M  V30 2040 C 187.657 1.5779 0.239693 0
M  V30 2041 C 187.857 1.1295 1.66867 0
M  V30 2042 O 186.913 0.81592 2.38954 0
M  V30 2043 C 188.226 3.00699 0.00828202 0
M  V30 2044 C 189.774 3.12912 0.0743438 0
M  V30 2045 C 190.249 4.57817 -0.129348 0
M  V30 2046 N 191.74 4.63139 -0.075247 0
M  V30 2047 C 192.475 5.73023 -0.207788 0
M  V30 2048 N 191.971 6.91665 -0.396382 0
M  V30 2049 N 193.764 5.61906 -0.14751 0
M  V30 2050 H 185.915 1.84615 -1.05029 0
M  V30 2051 H 188.178 0.85311 -0.41341 0
M  V30 2052 H 187.884 3.37784 -0.979531 0
M  V30 2053 H 187.758 3.69848 0.741077 0
M  V30 2054 H 190.145 2.75686 1.05268 0
M  V30 2055 H 190.226 2.4631 -0.690297 0
M  V30 2056 H 189.87 4.95742 -1.10465 0
M  V30 2057 H 189.8 5.22507 0.655253 0
M  V30 2058 H 192.291 3.7784 0.0670898 0
M  V30 2059 H 192.604 7.71255 -0.488437 0
M  V30 2060 H 190.949 6.93654 -0.432329 0
M  V30 2061 H 194.14 4.681 -0.00115036 0
M  V30 2062 H 194.313 6.47501 -0.254247 0
M  V30 2063 N 187.719 -0.156864 1.56817 0
M  V30 2064 C 189.13 -0.717916 1.72345 0
M  V30 2065 C 189.481 -1.82124 0.729747 0
M  V30 2066 O 188.606 -2.16141 -0.105781 0
M  V30 2067 C 189.201 -1.30904 3.12489 0
M  V30 2068 C 187.76 -1.81676 3.29653 0
M  V30 2069 C 186.907 -0.701349 2.68284 0
M  V30 2070 H 189.858 0.0686989 1.58551 0
M  V30 2071 H 189.879 -2.17882 3.11942 0
M  V30 2072 H 189.391 -0.505796 3.8479 0
M  V30 2073 H 187.492 -2.64598 2.62333 0
M  V30 2074 H 187.605 -1.95226 4.3752 0
M  V30 2075 H 185.969 -1.12548 2.28484 0
M  V30 2076 H 186.752 0.0902846 3.43181 0
M  V30 2077 N 189.197 -1.51736 -0.425897 0
M  V30 2078 C 190.127 -1.76827 -1.52494 0
M  V30 2079 C 191.108 -0.618524 -1.58456 0
M  V30 2080 O 192.293 -0.862416 -1.74 0
M  V30 2081 C 189.423 -1.90374 -2.90474 0
M  V30 2082 C 188.377 -3.0588 -2.99369 0
M  V30 2083 C 187.703 -3.04625 -4.3944 0
M  V30 2084 C 189.003 -4.45644 -2.72394 0
M  V30 2085 H 190.697 -2.68855 -1.31748 0
M  V30 2086 H 188.243 -1.29372 -0.632362 0
M  V30 2087 H 190.196 -2.0651 -3.6733 0
M  V30 2088 H 188.92 -0.95004 -3.12477 0
M  V30 2089 H 187.579 -2.89467 -2.24954 0
M  V30 2090 H 187.227 -2.0701 -4.58428 0
M  V30 2091 H 186.927 -3.82195 -4.46319 0
M  V30 2092 H 188.451 -3.22869 -5.18255 0
M  V30 2093 H 189.865 -4.62348 -3.38979 0
M  V30 2094 H 188.262 -5.25006 -2.9067 0
M  V30 2095 H 189.332 -4.54893 -1.67929 0
M  V30 2096 N 190.675 0.682077 -1.42076 0
M  V30 2097 C 191.625 1.78823 -1.41444 0
M  V30 2098 C 192.609 1.58323 -0.28681 0
M  V30 2099 O 193.801 1.68926 -0.528498 0
M  V30 2100 C 190.93 3.17232 -1.3122 0
M  V30 2101 C 190.016 3.4338 -2.489 0
M  V30 2102 N 190.407 3.40152 -3.7434 0
M  V30 2103 C 188.705 3.73986 -2.43003 0
M  V30 2104 C 189.406 3.65581 -4.52466 0
M  V30 2105 N 188.382 3.85989 -3.8277 0
M  V30 2106 H 192.184 1.7471 -2.36334 0
M  V30 2107 H 189.698 0.882622 -1.36321 0
M  V30 2108 H 191.695 3.96489 -1.2885 0
M  V30 2109 H 190.355 3.22547 -0.373263 0
M  V30 2110 H 191.366 3.20221 -4.07037 0
M  V30 2111 H 188.043 3.86591 -1.57651 0
M  V30 2112 H 189.433 3.69108 -5.61435 0
M  V30 2113 N 192.153 1.28127 0.917671 0
M  V30 2114 C 193.063 1.13556 2.05286 0
M  V30 2115 C 194.079 0.0630914 1.73886 0
M  V30 2116 O 195.255 0.271598 1.9956 0
M  V30 2117 C 192.32 0.794676 3.3747 0
M  V30 2118 C 191.381 1.94909 3.82504 0
M  V30 2119 C 190.614 1.62437 5.0838 0
M  V30 2120 O 190.837 0.536905 5.67867 0
M  V30 2121 O 189.771 2.46677 5.4903 0
M  V30 2122 H 193.597 2.08844 2.20495 0
M  V30 2123 H 191.182 1.07409 1.03845 0
M  V30 2124 H 193.064 0.618344 4.16839 0
M  V30 2125 H 191.739 -0.128581 3.23445 0
M  V30 2126 H 190.646 2.18055 3.03978 0
M  V30 2127 H 191.979 2.85291 4.01086 0
M  V30 2128 N 193.631 -1.12557 1.10312 0
M  V30 2129 C 194.594 -2.16434 0.75424 0
M  V30 2130 C 195.594 -1.59278 -0.220685 0
M  V30 2131 O 196.784 -1.742 0.00230591 0
M  V30 2132 C 193.916 -3.40699 0.116987 0
M  V30 2133 H 195.109 -2.48811 1.67431 0
M  V30 2134 H 192.662 -1.27542 0.903475 0
M  V30 2135 H 193.397 -3.13921 -0.813877 0
M  V30 2136 H 193.182 -3.83459 0.818613 0
M  V30 2137 H 194.672 -4.17451 -0.111387 0
M  V30 2138 N 195.109 -0.891671 -1.2995 0
M  V30 2139 C 196.057 -0.353066 -2.29905 0
M  V30 2140 C 197.051 0.543509 -1.60444 0
M  V30 2141 O 198.257 0.4272 -1.74857 0
M  V30 2142 H 194.632 -0.095531 -0.745907 0
M  V30 2143 H 196.603 -1.20961 -2.72784 0
M  V30 2144 C 195.352 0.411475 -3.45257 0
M  V30 2145 H 194.675 -0.269182 -3.98893 0
M  V30 2146 H 196.115 0.753328 -4.17254 0
M  V30 2147 C 194.574 1.6111 -2.9588 0
M  V30 2148 O 195.104 2.71045 -2.96475 0
M  V30 2149 N 193.31 1.45054 -2.51809 0
M  V30 2150 H 192.857 0.556175 -2.51524 0
M  V30 2151 H 192.815 2.25453 -2.1913 0
M  V30 2152 N 196.587 1.43421 -0.653314 0
M  V30 2153 C 197.835 2.01414 -0.166415 0
M  V30 2154 C 198.156 1.51803 1.22397 0
M  V30 2155 O 197.426 0.730693 1.81763 0
M  V30 2156 H 196.006 0.744703 -0.0585319 0
M  V30 2157 H 198.668 1.75629 -0.845003 0
M  V30 2158 H 197.764 3.11734 -0.151111 0
M  V30 2159 N 198.065 0.39524 1.52563 0
M  V30 2160 C 199.342 -0.242908 1.94086 0
M  V30 2161 C 199.722 -1.63841 1.33114 0
M  V30 2162 O 199.07 -2.22928 0.501529 0
M  V30 2163 C 199.28 -0.26327 3.48006 0
M  V30 2164 C 200.628 -0.489354 4.21771 0
M  V30 2165 O 201.652 -0.343226 3.54543 0
M  V30 2166 O 200.511 -0.776169 5.4096 0
M  V30 2167 H 197.605 -0.152536 0.812811 0
M  V30 2168 H 200.151 0.450178 1.6362 0
M  V30 2169 H 198.923 0.713985 3.84731 0
M  V30 2170 H 198.546 -1.00103 3.84792 0
M  V30 2171 N 199.544 -1.57102 0.125237 0
M  V30 2172 C 200.79 -1.96488 -0.525753 0
M  V30 2173 C 201.145 -1.00786 -1.6389 0
M  V30 2174 O 200.438 -0.038979 -1.9156 0
M  V30 2175 C 200.632 -3.40096 -1.09862 0
M  V30 2176 C 200.461 -4.4968 -0.0425004 0
M  V30 2177 C 199.231 -5.03781 0.391463 0
M  V30 2178 C 201.429 -5.08936 0.740829 0
M  V30 2179 N 199.411 -5.96948 1.4327 0
M  V30 2180 C 200.782 -5.98105 1.6331 0
M  V30 2181 C 202.837 -4.91576 0.791029 0
M  V30 2182 C 201.54 -6.71774 2.57122 0
M  V30 2183 C 203.566 -5.6593 1.71688 0
M  V30 2184 C 202.928 -6.5479 2.59672 0
M  V30 2185 H 199.027 -0.765072 -0.161831 0
M  V30 2186 H 201.611 -1.93511 0.214801 0
M  V30 2187 H 199.782 -3.43707 -1.80887 0
M  V30 2188 H 201.514 -3.66591 -1.71444 0
M  V30 2189 H 198.269 -4.736 -0.00213584 0
M  V30 2190 H 198.693 -6.48236 1.95243 0
M  V30 2191 H 203.335 -4.22615 0.124915 0
M  V30 2192 H 201.053 -7.39977 3.24744 0
M  V30 2193 H 204.639 -5.54501 1.76125 0
M  V30 2194 H 203.519 -7.11316 3.30149 0
M  V30 2195 N 201.022 0.148545 -1.56898 0
M  V30 2196 C 202.252 0.875118 -1.8715 0
M  V30 2197 C 202.66 1.75322 -0.711262 0
M  V30 2198 O 202.003 1.80745 0.328151 0
M  V30 2199 C 202.065 1.7844 -3.12089 0
M  V30 2200 C 201.729 1.08361 -4.43967 0
M  V30 2201 C 202.726 0.438247 -5.1805 0
M  V30 2202 C 200.411 1.07358 -4.90693 0
M  V30 2203 C 202.405 -0.20779 -6.37061 0
M  V30 2204 C 200.092 0.42373 -6.09629 0
M  V30 2205 C 201.09 -0.215829 -6.82659 0
M  V30 2206 O 200.778 -0.855378 -7.99336 0
M  V30 2207 H 200.51 0.258504 -0.624621 0
M  V30 2208 H 203.064 0.14652 -2.04877 0
M  V30 2209 H 201.294 2.55389 -2.90367 0
M  V30 2210 H 202.983 2.38279 -3.286 0
M  V30 2211 H 203.749 0.437817 -4.8302 0
M  V30 2212 H 199.628 1.5608 -4.33774 0
M  V30 2213 H 203.172 -0.70758 -6.94002 0
M  V30 2214 H 199.069 0.421822 -6.4412 0
M  V30 2215 H 199.837 -0.756892 -8.14993 0
M  V30 2216 N 202.5 1.5196 0.417844 0
M  V30 2217 C 203.911 1.57851 0.997 0
M  V30 2218 C 204.262 0.413714 1.91789 0
M  V30 2219 O 203.387 -0.467057 2.113 0
M  V30 2220 C 203.982 2.86085 1.81496 0
M  V30 2221 C 202.541 2.94483 2.34428 0
M  V30 2222 C 201.688 2.52707 1.14169 0
M  V30 2223 H 204.639 1.57455 0.198392 0
M  V30 2224 H 204.66 2.70947 2.67148 0
M  V30 2225 H 204.172 3.70842 1.14446 0
M  V30 2226 H 202.273 2.142 3.04875 0
M  V30 2227 H 202.386 3.98546 2.65891 0
M  V30 2228 H 200.75 2.06353 1.49301 0
M  V30 2229 H 201.533 3.39828 0.486999 0
M  V30 2230 N 203.978 -0.674533 1.42435 0
M  V30 2231 C 205.224 -1.43521 1.4413 0
M  V30 2232 C 205.579 -1.92316 0.0567773 0
M  V30 2233 O 204.872 -1.68008 -0.921076 0
M  V30 2234 C 205.066 -2.64767 2.40069 0
M  V30 2235 C 204.895 -2.27836 3.87713 0
M  V30 2236 C 203.665 -2.17183 4.56245 0
M  V30 2237 C 205.863 -1.89466 4.78129 0
M  V30 2238 N 203.845 -1.73358 5.88915 0
M  V30 2239 C 205.216 -1.56561 5.99907 0
M  V30 2240 C 207.271 -1.7646 4.65582 0
M  V30 2241 C 205.974 -1.11957 7.10534 0
M  V30 2242 C 208 -1.3326 5.76191 0
M  V30 2243 C 207.362 -1.0128 6.97081 0
M  V30 2244 H 203.461 -0.521656 0.582579 0
M  V30 2245 H 206.045 -0.778381 1.78464 0
M  V30 2246 H 204.216 -3.28139 2.07796 0
M  V30 2247 H 205.948 -3.3136 2.32342 0
M  V30 2248 H 202.703 -2.3626 4.10461 0
M  V30 2249 H 203.127 -1.53867 6.59283 0
M  V30 2250 H 207.769 -1.99831 3.72595 0
M  V30 2251 H 205.487 -0.873318 8.03367 0
M  V30 2252 H 209.073 -1.23717 5.68494 0
M  V30 2253 H 207.953 -0.683597 7.81215 0
M  V30 2254 N 205.456 -1.28612 -0.910864 0
M  V30 2255 C 206.419 -1.12803 -1.9952 0
M  V30 2256 C 207.419 -0.0668264 -1.60661 0
M  V30 2257 O 208.609 -0.312847 -1.71368 0
M  V30 2258 C 205.741 -0.72254 -3.33155 0
M  V30 2259 H 206.934 -2.09109 -2.14973 0
M  V30 2260 H 204.487 -1.11639 -1.09391 0
M  V30 2261 H 205.222 0.241152 -3.23402 0
M  V30 2262 H 205.007 -1.48916 -3.62721 0
M  V30 2263 H 206.497 -0.634666 -4.12749 0
M  V30 2264 N 206.934 1.1197 -1.10907 0
M  V30 2265 C 208.183 1.82947 -0.849302 0
M  V30 2266 C 208.496 1.85275 0.627112 0
M  V30 2267 O 209.702 2.52296 1.00295 0
M  V30 2268 C 208.158 3.28529 -1.46959 0
M  V30 2269 C 207.766 3.34546 -2.97965 0
M  V30 2270 C 209.51 4.04443 -1.28942 0
M  V30 2271 C 207.417 4.74491 -3.53004 0
M  V30 2272 H 206.347 0.685477 -0.314065 0
M  V30 2273 H 208.998 1.2604 -1.33365 0
M  V30 2274 H 207.38 3.85333 -0.912917 0
M  V30 2275 H 208.554 2.87654 -3.59989 0
M  V30 2276 H 206.869 2.72108 -3.15192 0
M  V30 2277 H 209.466 5.07787 -1.67502 0
M  V30 2278 H 209.809 4.15656 -0.231456 0
M  V30 2279 H 210.342 3.5401 -1.81443 0
M  V30 2280 H 207.081 4.68474 -4.58489 0
M  V30 2281 H 206.601 5.21816 -2.9575 0
M  V30 2282 H 208.28 5.4344 -3.51115 0
M  V30 2283 N 208.412 0.89855 1.29475 0
M  V30 2284 C 209.66 0.522847 1.9522 0
M  V30 2285 C 209.981 -0.93371 1.71192 0
M  V30 2286 O 209.251 -1.65823 1.04305 0
M  V30 2287 H 207.831 0.190366 0.722336 0
M  V30 2288 H 210.493 1.14459 1.5775 0
M  V30 2289 H 209.589 0.704476 3.04045 0
M  V30 2290 N 209.89 -1.43072 0.660911 0
M  V30 2291 C 211.12 -2.05769 0.185153 0
M  V30 2292 C 211.528 -1.49668 -1.15742 0
M  V30 2293 O 210.871 -0.625649 -1.72717 0
M  V30 2294 C 210.933 -3.59489 0.0278237 0
M  V30 2295 C 210.597 -4.38212 1.2969 0
M  V30 2296 C 211.594 -4.69772 2.22734 0
M  V30 2297 C 209.279 -4.7809 1.54063 0
M  V30 2298 C 211.273 -5.40129 3.38437 0
M  V30 2299 C 208.96 -5.4819 2.70058 0
M  V30 2300 C 209.958 -5.79132 3.62071 0
M  V30 2301 O 209.646 -6.47798 4.76039 0
M  V30 2302 H 209.378 -0.669873 0.0908086 0
M  V30 2303 H 211.932 -1.84436 0.90402 0
M  V30 2304 H 210.162 -3.79426 -0.746489 0
M  V30 2305 H 211.851 -4.03862 -0.406275 0
M  V30 2306 H 212.617 -4.39476 2.05149 0
M  V30 2307 H 208.496 -4.53408 0.833215 0
M  V30 2308 H 212.04 -5.64198 4.10277 0
M  V30 2309 H 207.937 -5.77902 2.87574 0
M  V30 2310 H 208.705 -6.66283 4.75404 0
M  V30 2311 N 211.368 -0.403325 -1.52352 0
M  V30 2312 C 212.593 0.176499 -2.06648 0
M  V30 2313 C 213.018 1.38577 -1.27193 0
M  V30 2314 O 212.376 1.7879 -0.300637 0
M  V30 2315 C 212.424 0.511061 -3.5696 0
M  V30 2316 O 211.528 1.60294 -3.79973 0
M  V30 2317 H 210.869 0.0167337 -0.663789 0
M  V30 2318 H 213.399 -0.574848 -1.96359 0
M  V30 2319 H 213.409 0.771362 -4.00642 0
M  V30 2320 H 212.084 -0.37296 -4.14224 0
M  V30 2321 H 210.661 1.33526 -3.48174 0
M  V30 2322 N 212.846 1.57033 -0.133567 0
M  V30 2323 C 214.071 2.00475 0.531477 0
M  V30 2324 C 214.496 1.01291 1.58499 0
M  V30 2325 O 213.854 -0.0133279 1.81295 0
M  V30 2326 C 213.902 3.42729 1.12113 0
M  V30 2327 O 213.006 3.46498 2.23636 0
M  V30 2328 H 212.347 0.650876 0.131362 0
M  V30 2329 H 214.877 2.03344 -0.22634 0
M  V30 2330 H 214.887 3.81246 1.4531 0
M  V30 2331 H 213.562 4.14428 0.349557 0
M  V30 2332 H 212.139 3.19811 1.91769 0
M  V30 2333 N 214.325 -0.140222 1.56975 0
M  V30 2334 C 215.741 -0.493088 1.51792 0
M  V30 2335 C 215.941 -1.83013 0.843116 0
M  V30 2336 O 214.997 -2.49041 0.416493 0
M  V30 2337 C 216.31 -0.497144 2.96562 0
M  V30 2338 C 217.858 -0.582186 3.07538 0
M  V30 2339 C 218.333 -0.616838 4.53827 0
M  V30 2340 N 219.824 -0.678873 4.58198 0
M  V30 2341 C 220.559 -0.726782 5.68775 0
M  V30 2342 N 220.055 -0.733623 6.88905 0
M  V30 2343 N 221.848 -0.768179 5.56826 0
M  V30 2344 H 213.999 0.736108 1.99237 0
M  V30 2345 H 216.262 0.269182 0.90898 0
M  V30 2346 H 215.968 0.417217 3.49217 0
M  V30 2347 H 215.842 -1.33263 3.52875 0
M  V30 2348 H 218.229 -1.48697 2.54899 0
M  V30 2349 H 218.31 0.280581 2.54257 0
M  V30 2350 H 217.954 0.283812 5.07106 0
M  V30 2351 H 217.884 -1.49619 5.04898 0
M  V30 2352 H 220.375 -0.68061 3.7172 0
M  V30 2353 H 220.688 -0.772215 7.68932 0
M  V30 2354 H 219.033 -0.701389 6.91452 0
M  V30 2355 H 222.224 -0.760051 4.61888 0
M  V30 2356 H 222.397 -0.80205 6.43017 0
M  V30 2357 N 215.803 -1.52179 -0.40978 0
M  V30 2358 C 217.049 -1.66453 -1.15851 0
M  V30 2359 C 217.382 -0.392972 -1.90182 0
M  V30 2360 O 216.657 0.608579 -1.84734 0
M  V30 2361 C 216.94 -2.88612 -2.15349 0
M  V30 2362 C 216.793 -4.25815 -1.44918 0
M  V30 2363 C 218.112 -3.06294 -3.16026 0
M  V30 2364 H 215.231 -0.60575 -0.419805 0
M  V30 2365 H 217.873 -1.84732 -0.444314 0
M  V30 2366 H 216.023 -2.73158 -2.76255 0
M  V30 2367 H 217.695 -4.52995 -0.871365 0
M  V30 2368 H 215.938 -4.27247 -0.751159 0
M  V30 2369 H 216.609 -5.07337 -2.17516 0
M  V30 2370 H 219.085 -3.20641 -2.65195 0
M  V30 2371 H 217.961 -3.93283 -3.8291 0
M  V30 2372 H 218.222 -2.19579 -3.83715 0
M  V30 2373 N 217.281 0.66697 -1.42791 0
M  V30 2374 C 218.229 1.80157 -1.47127 0
M  V30 2375 C 219.223 1.65825 -0.346199 0
M  V30 2376 O 220.429 1.72338 -0.519572 0
M  V30 2377 H 216.804 0.594158 -0.460956 0
M  V30 2378 H 218.775 1.73619 -2.42692 0
M  V30 2379 C 217.524 3.18351 -1.39813 0
M  V30 2380 H 216.847 3.3001 -2.25684 0
M  V30 2381 H 218.287 3.97736 -1.46908 0
M  V30 2382 C 216.746 3.36707 -0.11391 0
M  V30 2383 O 217.276 3.93027 0.830241 0
M  V30 2384 N 215.482 2.90586 -0.0285295 0
M  V30 2385 H 215.029 2.4494 -0.79764 0
M  V30 2386 H 214.987 3.03245 0.830063 0
M  V30 2387 N 218.759 1.29093 0.90403 0
M  V30 2388 C 219.987 1.19689 1.68766 0
M  V30 2389 C 220.402 -0.243113 1.87228 0
M  V30 2390 O 219.759 -1.16326 1.40621 0
M  V30 2391 C 219.81 1.90144 3.07453 0
M  V30 2392 O 219.531 3.2852 2.89838 0
M  V30 2393 C 221.032 1.87162 4.01852 0
M  V30 2394 H 218.252 0.415035 0.527244 0
M  V30 2395 H 220.796 1.7039 1.13082 0
M  V30 2396 H 218.951 1.43289 3.59926 0
M  V30 2397 H 219.365 3.63944 3.77684 0
M  V30 2398 H 220.839 2.41032 4.96596 0
M  V30 2399 H 221.316 0.84617 4.30972 0
M  V30 2400 H 221.922 2.33741 3.5531 0
M  V30 2401 N 220.237 -1.11381 1.11499 0
M  V30 2402 C 221.185 -2.19522 0.768956 0
M  V30 2403 C 222.179 -1.67693 -0.239857 0
M  V30 2404 O 223.385 -1.79727 -0.0990755 0
M  V30 2405 H 219.76 -0.715711 0.230786 0
M  V30 2406 H 221.731 -2.45954 1.68964 0
M  V30 2407 C 220.48 -3.46945 0.229073 0
M  V30 2408 H 219.803 -3.8718 0.996596 0
M  V30 2409 H 221.243 -4.23993 0.0251441 0
M  V30 2410 C 219.702 -3.2042 -1.04079 0
M  V30 2411 O 220.232 -3.41178 -2.12038 0
M  V30 2412 N 218.438 -2.74151 -0.963823 0
M  V30 2413 H 217.985 -2.57459 -0.0851722 0
M  V30 2414 H 217.943 -2.56781 -1.81414 0
M  V30 2415 N 221.715 -0.905404 -1.28997 0
M  V30 2416 C 222.625 -0.392246 -2.31298 0
M  V30 2417 C 223.641 0.515889 -1.66176 0
M  V30 2418 O 224.817 0.404093 -1.97304 0
M  V30 2419 C 221.882 0.36686 -3.44754 0
M  V30 2420 C 220.943 -0.573485 -4.25452 0
M  V30 2421 C 220.176 0.149488 -5.33491 0
M  V30 2422 O 220.399 1.37255 -5.5364 0
M  V30 2423 O 219.333 -0.510919 -5.99728 0
M  V30 2424 H 223.159 -1.2411 -2.77183 0
M  V30 2425 H 220.744 -0.669926 -1.33538 0
M  V30 2426 H 222.626 0.795907 -4.13816 0
M  V30 2427 H 221.301 1.19169 -3.00966 0
M  V30 2428 H 220.208 -1.05176 -3.59011 0
M  V30 2429 H 221.541 -1.36489 -4.72897 0
M  V30 2430 N 223.193 1.4272 -0.668489 0
M  V30 2431 C 224.421 2.05966 -0.196348 0
M  V30 2432 C 224.836 1.50191 1.14403 0
M  V30 2433 O 224.193 0.639208 1.7094 0
M  V30 2434 C 224.244 3.61314 -0.115815 0
M  V30 2435 O 223.965 4.1502 -1.40322 0
M  V30 2436 C 225.466 4.41663 0.380579 0
M  V30 2437 H 222.686 0.663954 -0.0969829 0
M  V30 2438 H 225.23 1.82966 -0.913446 0
M  V30 2439 H 223.385 3.83448 0.551931 0
M  V30 2440 H 223.799 5.08832 -1.27243 0
M  V30 2441 H 225.273 5.5065 0.385848 0
M  V30 2442 H 225.75 4.15792 1.41471 0
M  V30 2443 H 226.356 4.24534 -0.255209 0
M  V30 2444 N 224.671 0.411399 1.52136 0
M  V30 2445 C 225.901 -0.16284 2.05957 0
M  V30 2446 C 226.309 -1.3922 1.28119 0
M  V30 2447 O 225.652 -1.80768 0.326881 0
M  V30 2448 C 225.714 -0.575946 3.54856 0
M  V30 2449 C 225.378 0.542998 4.53763 0
M  V30 2450 C 226.375 1.40726 5.00492 0
M  V30 2451 C 224.06 0.716337 4.97166 0
M  V30 2452 C 226.054 2.4298 5.8927 0
M  V30 2453 C 223.741 1.74218 5.8574 0
M  V30 2454 C 224.739 2.59731 6.31687 0
M  V30 2455 O 224.427 3.60558 7.18507 0
M  V30 2456 H 224.159 -0.0229125 0.675612 0
M  V30 2457 H 226.713 0.581634 1.96993 0
M  V30 2458 H 224.943 -1.37274 3.61515 0
M  V30 2459 H 226.632 -1.07836 3.91313 0
M  V30 2460 H 227.398 1.28476 4.67674 0
M  V30 2461 H 223.277 0.0603857 4.6096 0
M  V30 2462 H 226.821 3.0976 6.25055 0
M  V30 2463 H 222.718 1.86498 6.17971 0
M  V30 2464 H 223.486 3.56829 7.36624 0
M  V30 2465 N 226.149 -1.5696 0.141893 0
M  V30 2466 C 227.398 -1.95135 -0.510427 0
M  V30 2467 C 227.711 -1.02896 -1.66348 0
M  V30 2468 O 228.917 -1.30629 -2.38009 0
M  V30 2469 C 227.373 -3.46876 -0.959427 0
M  V30 2470 C 226.981 -4.47691 0.166419 0
M  V30 2471 C 228.725 -3.93927 -1.58183 0
M  V30 2472 C 226.632 -5.90636 -0.300565 0
M  V30 2473 H 225.562 -0.728494 -0.194454 0
M  V30 2474 H 228.213 -1.8211 0.22542 0
M  V30 2475 H 226.595 -3.55215 -1.75038 0
M  V30 2476 H 227.769 -4.51043 0.94325 0
M  V30 2477 H 226.084 -4.10527 0.696905 0
M  V30 2478 H 228.681 -4.98158 -1.94275 0
M  V30 2479 H 229.024 -3.3519 -2.46888 0
M  V30 2480 H 229.557 -3.88484 -0.855863 0
M  V30 2481 H 226.296 -6.5318 0.550989 0
M  V30 2482 H 225.816 -5.90655 -1.04338 0
M  V30 2483 H 227.495 -6.42588 -0.754265 0
M  V30 2484 N 227.627 0.131896 -1.57047 0
M  V30 2485 C 228.59 1.14638 -1.98471 0
M  V30 2486 C 229.59 1.35029 -0.873148 0
M  V30 2487 O 230.78 1.31764 -1.13946 0
M  V30 2488 C 227.912 2.50358 -2.31373 0
M  V30 2489 H 229.105 0.79064 -2.8929 0
M  V30 2490 H 226.658 0.375761 -1.51716 0
M  V30 2491 H 227.393 2.90876 -1.43393 0
M  V30 2492 H 227.178 2.36915 -3.12432 0
M  V30 2493 H 228.668 3.23395 -2.64207 0
M  V30 2494 N 229.106 1.52395 0.401703 0
M  V30 2495 C 230.069 1.75636 1.47257 0
M  V30 2496 C 231.069 0.62628 1.48103 0
M  V30 2497 O 232.259 0.894227 1.49497 0
M  V30 2498 C 229.391 1.84553 2.86624 0
M  V30 2499 H 230.584 2.71241 1.27938 0
M  V30 2500 H 228.137 1.42923 0.632662 0
M  V30 2501 H 228.872 0.908882 3.11303 0
M  V30 2502 H 228.657 2.66715 2.87412 0
M  V30 2503 H 230.147 2.04251 3.64241 0
M  V30 2504 N 230.584 -0.659388 1.43143 0
M  V30 2505 C 231.831 -1.41935 1.44433 0
M  V30 2506 C 232.159 -1.94387 0.0663522 0
M  V30 2507 O 231.414 -1.72314 -0.927706 0
M  V30 2508 C 231.713 -2.62206 2.42864 0
M  V30 2509 C 231.379 -2.28208 3.88886 0
M  V30 2510 C 230.041 -2.18647 4.28657 0
M  V30 2511 C 232.393 -2.00887 4.8093 0
M  V30 2512 C 229.721 -1.79914 5.58433 0
M  V30 2513 C 232.073 -1.63653 6.11065 0
M  V30 2514 C 230.737 -1.52614 6.49819 0
M  V30 2515 H 230.007 -0.519376 0.528517 0
M  V30 2516 H 232.654 -0.750453 1.76183 0
M  V30 2517 H 230.959 -3.34199 2.04495 0
M  V30 2518 H 232.656 -3.2041 2.41119 0
M  V30 2519 H 229.246 -2.36557 3.57406 0
M  V30 2520 H 233.43 -2.07198 4.5098 0
M  V30 2521 H 228.686 -1.69948 5.87305 0
M  V30 2522 H 232.86 -1.41543 6.81864 0
M  V30 2523 H 230.487 -1.22371 7.50286 0
M  V30 2524 N 232.062 -1.29571 -0.897171 0
M  V30 2525 C 233.478 -1.07637 -1.17841 0
M  V30 2526 C 233.678 0.170713 -2.00776 0
M  V30 2527 O 232.734 0.867768 -2.3712 0
M  V30 2528 C 234.047 -2.3332 -1.8969 0
M  V30 2529 C 235.595 -2.38664 -2.02505 0
M  V30 2530 C 236.07 -3.64157 -2.77765 0
M  V30 2531 N 237.561 -3.64894 -2.85318 0
M  V30 2532 C 238.296 -4.58679 -3.44094 0
M  V30 2533 N 237.792 -5.62799 -4.04017 0
M  V30 2534 N 239.585 -4.46245 -3.41793 0
M  V30 2535 H 231.736 -2.09598 -0.343883 0
M  V30 2536 H 233.999 -0.923333 -0.214848 0
M  V30 2537 H 233.705 -3.24262 -1.36187 0
M  V30 2538 H 233.579 -2.41025 -2.9015 0
M  V30 2539 H 235.966 -1.48208 -2.55183 0
M  V30 2540 H 236.047 -2.34943 -1.01171 0
M  V30 2541 H 235.691 -4.54965 -2.25763 0
M  V30 2542 H 235.621 -3.65137 -3.7945 0
M  V30 2543 H 238.112 -2.89613 -2.42761 0
M  V30 2544 H 238.425 -6.3048 -4.46895 0
M  V30 2545 H 236.77 -5.66605 -4.02472 0
M  V30 2546 H 239.961 -3.64094 -2.94199 0
M  V30 2547 H 240.134 -5.19518 -3.87304 0
M  V30 2548 N 233.54 1.10788 -1.12088 0
M  V30 2549 C 234.49 2.15158 -0.754401 0
M  V30 2550 C 235.474 1.59026 0.244846 0
M  V30 2551 O 236.666 1.76927 0.0509097 0
M  V30 2552 C 233.795 3.42677 -0.206657 0
M  V30 2553 C 232.881 4.05751 -1.23398 0
M  V30 2554 N 233.272 4.43582 -2.43041 0
M  V30 2555 C 231.57 4.32764 -1.07848 0
M  V30 2556 C 232.271 4.93085 -3.08613 0
M  V30 2557 N 231.247 4.89664 -2.36072 0
M  V30 2558 H 235.049 2.42195 -1.6649 0
M  V30 2559 H 232.563 1.27872 -1.00112 0
M  V30 2560 H 234.56 4.16834 0.0740646 0
M  V30 2561 H 233.22 3.17101 0.698342 0
M  V30 2562 H 234.231 4.35395 -2.80449 0
M  V30 2563 H 230.908 4.16863 -0.230483 0
M  V30 2564 H 232.298 5.31933 -4.10483 0
M  V30 2565 N 235.018 0.912232 1.28515 0
M  V30 2566 C 236.267 0.540504 1.94323 0
M  V30 2567 C 236.58 -0.920044 1.72611 0
M  V30 2568 O 237.786 -1.39986 2.32629 0
M  V30 2569 C 236.242 0.915803 3.48053 0
M  V30 2570 C 235.85 2.39598 3.78546 0
M  V30 2571 C 237.594 0.614588 4.20027 0
M  V30 2572 C 235.501 2.71148 5.25578 0
M  V30 2573 H 234.431 0.198418 0.727424 0
M  V30 2574 H 237.082 1.11094 1.46049 0
M  V30 2575 H 235.464 0.274168 3.9505 0
M  V30 2576 H 236.638 3.08422 3.42364 0
M  V30 2577 H 234.953 2.66749 3.1974 0
M  V30 2578 H 237.55 0.827002 5.28266 0
M  V30 2579 H 237.893 -0.447531 4.13887 0
M  V30 2580 H 238.426 1.21462 3.78803 0
M  V30 2581 H 235.165 3.76207 5.36794 0
M  V30 2582 H 234.685 2.0696 5.62963 0
M  V30 2583 H 236.364 2.58072 5.93302 0
M  V30 2584 N 236.496 -1.42363 0.676048 0
M  V30 2585 C 237.742 -2.0182 0.199125 0
M  V30 2586 C 238.075 -1.53339 -1.19168 0
M  V30 2587 O 237.35 -0.736124 -1.80032 0
M  V30 2588 C 237.633 -3.59331 0.235144 0
M  V30 2589 C 237.486 -4.17989 1.66149 0
M  V30 2590 C 238.805 -4.3813 -0.41595 0
M  V30 2591 H 235.924 -0.733293 0.0738311 0
M  V30 2592 H 238.566 -1.69368 0.86107 0
M  V30 2593 H 236.716 -3.87109 -0.328487 0
M  V30 2594 H 238.388 -4.0116 2.27747 0
M  V30 2595 H 236.631 -3.7377 2.20178 0
M  V30 2596 H 237.302 -5.27126 1.63837 0
M  V30 2597 H 239.778 -4.16051 0.0638529 0
M  V30 2598 H 238.654 -5.47717 -0.360115 0
M  V30 2599 H 238.915 -4.16101 -1.49373 0
M  V30 2600 N 237.974 -0.419461 -1.51915 0
M  V30 2601 C 239.251 0.211999 -1.94448 0
M  V30 2602 C 239.631 1.61703 -1.35703 0
M  V30 2603 O 238.979 2.22102 -0.536931 0
M  V30 2604 C 239.189 0.207872 -3.4838 0
M  V30 2605 C 240.537 0.422192 -4.22496 0
M  V30 2606 O 241.561 0.286778 -3.55044 0
M  V30 2607 O 240.42 0.690009 -5.42126 0
M  V30 2608 H 237.514 0.139586 -0.815135 0
M  V30 2609 H 240.06 -0.476151 -1.62883 0
M  V30 2610 H 238.832 -0.775102 -3.83546 0
M  V30 2611 H 238.455 0.939688 -3.86336 0
M  V30 2612 N 239.452 1.56882 -0.150215 0
M  V30 2613 C 240.701 1.95403 0.500071 0
M  V30 2614 C 241.014 1.03777 1.658 0
M  V30 2615 O 242.22 1.31889 2.37313 0
M  V30 2616 C 240.676 3.4738 0.941018 0
M  V30 2617 C 240.284 4.47596 -0.190158 0
M  V30 2618 C 242.028 3.9476 1.56091 0
M  V30 2619 C 239.935 5.90787 0.269237 0
M  V30 2620 H 238.865 0.729515 0.190588 0
M  V30 2621 H 241.516 1.81988 -0.235074 0
M  V30 2622 H 239.898 3.56138 1.73152 0
M  V30 2623 H 241.072 4.50536 -0.967157 0
M  V30 2624 H 239.387 4.10151 -0.718666 0
M  V30 2625 H 241.984 4.99181 1.9163 0
M  V30 2626 H 242.327 3.36494 2.45107 0
M  V30 2627 H 242.86 3.88932 0.835249 0
M  V30 2628 H 239.599 6.52879 -0.585621 0
M  V30 2629 H 239.119 5.912 1.01204 0
M  V30 2630 H 240.798 6.42979 0.720176 0
M  V30 2631 N 240.93 -0.123565 1.57115 0
M  V30 2632 C 242.177 -0.832153 1.84612 0
M  V30 2633 C 242.505 -1.80093 0.734627 0
M  V30 2634 O 241.76 -1.93766 -0.27442 0
M  V30 2635 C 242.059 -1.62016 3.18568 0
M  V30 2636 C 241.725 -0.796084 4.43817 0
M  V30 2637 C 240.387 -0.568816 4.77826 0
M  V30 2638 C 242.739 -0.221364 5.2073 0
M  V30 2639 C 240.067 0.243499 5.86194 0
M  V30 2640 C 242.419 0.578117 6.29953 0
M  V30 2641 C 241.083 0.815744 6.62497 0
M  V30 2642 H 240.353 -0.304507 0.675542 0
M  V30 2643 H 243 -0.0947248 1.91266 0
M  V30 2644 H 241.305 -2.42837 3.0747 0
M  V30 2645 H 243.002 -2.17231 3.37064 0
M  V30 2646 H 239.592 -0.983307 4.17168 0
M  V30 2647 H 243.776 -0.384173 4.94811 0
M  V30 2648 H 239.032 0.436871 6.09837 0
M  V30 2649 H 243.206 1.03046 6.88734 0
M  V30 2650 H 240.833 1.44701 7.46301 0
M  V30 2651 N 242.408 -1.52605 -0.393616 0
M  V30 2652 C 243.824 -1.41753 -0.733357 0
M  V30 2653 C 244.024 -0.534293 -1.94287 0
M  V30 2654 O 243.08 -0.0059787 -2.52499 0
M  V30 2655 C 244.393 -2.84531 -0.972772 0
M  V30 2656 C 245.941 -2.93978 -1.07453 0
M  V30 2657 C 246.416 -4.37756 -1.3466 0
M  V30 2658 N 247.907 -4.4106 -1.41492 0
M  V30 2659 C 248.642 -5.49387 -1.642 0
M  V30 2660 N 248.138 -6.67806 -1.8441 0
M  V30 2661 N 249.931 -5.36923 -1.66342 0
M  V30 2662 H 242.082 -2.08555 0.402328 0
M  V30 2663 H 244.345 -0.940654 0.117789 0
M  V30 2664 H 244.051 -3.51353 -0.156204 0
M  V30 2665 H 243.925 -3.26508 -1.88871 0
M  V30 2666 H 246.312 -2.27326 -1.88167 0
M  V30 2667 H 246.393 -2.55435 -0.136605 0
M  V30 2668 H 246.037 -5.04972 -0.544581 0
M  V30 2669 H 245.967 -4.73848 -2.2973 0
M  V30 2670 H 248.458 -3.55705 -1.27601 0
M  V30 2671 H 248.771 -7.46141 -2.01231 0
M  V30 2672 H 247.116 -6.70843 -1.81644 0
M  V30 2673 H 250.307 -4.43381 -1.50102 0
M  V30 2674 H 250.48 -6.21416 -1.837 0
M  V30 2675 N 243.887 0.651787 -1.4349 0
M  V30 2676 C 244.85 1.74647 -1.48429 0
M  V30 2677 C 245.85 1.56513 -0.368817 0
M  V30 2678 O 247.04 1.62385 -0.630623 0
M  V30 2679 C 244.172 3.13533 -1.33827 0
M  V30 2680 H 245.365 1.71649 -2.4592 0
M  V30 2681 H 242.918 0.863573 -1.30277 0
M  V30 2682 H 243.653 3.22142 -0.37349 0
M  V30 2683 H 243.438 3.28101 -2.14691 0
M  V30 2684 H 244.928 3.93356 -1.40218 0
M  V30 2685 N 245.365 1.30045 0.890287 0
M  V30 2686 C 246.313 1.15873 2.01683 0
M  V30 2687 C 247.307 0.0719403 1.69247 0
M  V30 2688 O 248.513 0.232414 1.78493 0
M  V30 2689 H 244.888 0.358203 0.661207 0
M  V30 2690 H 246.859 2.11229 2.10772 0
M  V30 2691 C 245.608 0.861842 3.36849 0
M  V30 2692 H 244.931 1.69016 3.62317 0
M  V30 2693 H 246.371 0.802762 4.16331 0
M  V30 2694 C 244.83 -0.435132 3.34078 0
M  V30 2695 O 245.36 -1.4583 3.74295 0
M  V30 2696 N 243.566 -0.444377 2.87182 0
M  V30 2697 H 243.113 0.388723 2.5465 0
M  V30 2698 H 243.071 -1.31213 2.85711 0
M  V30 2699 N 246.843 -1.10192 1.12674 0
M  V30 2700 C 248.091 -1.81845 0.881861 0
M  V30 2701 C 248.412 -1.85737 -0.593867 0
M  V30 2702 O 247.682 -1.33724 -1.4316 0
M  V30 2703 H 246.262 -0.673432 0.323261 0
M  V30 2704 H 248.924 -1.33316 1.42172 0
M  V30 2705 H 248.02 -2.85288 1.2656 0
M  V30 2706 N 248.321 -0.919034 -1.28029 0
M  V30 2707 C 249.284 -0.416182 -2.2539 0
M  V30 2708 C 250.284 0.460438 -1.54067 0
M  V30 2709 O 251.474 0.262744 -1.72207 0
M  V30 2710 C 248.606 0.402707 -3.38513 0
M  V30 2711 H 249.799 -1.27629 -2.71387 0
M  V30 2712 H 247.352 -0.698919 -1.39803 0
M  V30 2713 H 248.087 1.282 -2.97885 0
M  V30 2714 H 247.872 -0.225698 -3.9145 0
M  V30 2715 H 249.362 0.745191 -4.10897 0
M  V30 2716 N 249.799 1.42003 -0.683588 0
M  V30 2717 C 251.027 2.05746 -0.218182 0
M  V30 2718 C 251.442 1.51396 1.12804 0
M  V30 2719 O 250.799 0.657303 1.70252 0
M  V30 2720 C 250.85 3.61171 -0.154131 0
M  V30 2721 O 250.571 4.13508 -1.44716 0
M  V30 2722 C 252.072 4.42042 0.333713 0
M  V30 2723 H 249.292 0.662888 -0.10402 0
M  V30 2724 H 251.836 1.81987 -0.9328 0
M  V30 2725 H 249.991 3.84012 0.511231 0
M  V30 2726 H 250.405 5.07453 -1.32632 0
M  V30 2727 H 251.879 5.51028 0.327423 0
M  V30 2728 H 252.356 4.17269 1.37053 0
M  V30 2729 H 252.962 4.24239 -0.300222 0
M  V30 2730 N 251.277 0.427512 1.51691 0
M  V30 2731 C 252.225 -0.403359 2.29076 0
M  V30 2732 C 253.219 -1.02962 1.34518 0
M  V30 2733 O 254.425 -0.965715 1.51901 0
M  V30 2734 H 250.8 -0.148879 0.737115 0
M  V30 2735 H 252.771 0.270295 2.97173 0
M  V30 2736 C 251.52 -1.49763 3.13794 0
M  V30 2737 H 250.843 -1.02508 3.86435 0
M  V30 2738 H 252.283 -2.05244 3.71014 0
M  V30 2739 C 250.742 -2.47536 2.28533 0
M  V30 2740 O 251.272 -3.51848 1.93819 0
M  V30 2741 N 249.478 -2.18187 1.91945 0
M  V30 2742 H 249.025 -1.33389 2.20375 0
M  V30 2743 H 248.983 -2.83848 1.35195 0
M  V30 2744 N 252.755 -1.56801 0.158532 0
M  V30 2745 C 254.001 -1.96781 -0.490405 0
M  V30 2746 C 254.334 -1.04397 -1.63753 0
M  V30 2747 O 253.609 -0.0885805 -1.94298 0
M  V30 2748 C 253.892 -3.4635 -0.985594 0
M  V30 2749 C 253.745 -4.49512 0.160824 0
M  V30 2750 C 255.064 -3.98697 -1.86355 0
M  V30 2751 H 252.183 -0.715482 -0.176788 0
M  V30 2752 H 254.825 -1.88451 0.242088 0
M  V30 2753 H 252.975 -3.53579 -1.60978 0
M  V30 2754 H 254.647 -4.54353 0.797537 0
M  V30 2755 H 252.89 -4.26013 0.818256 0
M  V30 2756 H 253.561 -5.51531 -0.227569 0
M  V30 2757 H 256.037 -3.94019 -1.33746 0
M  V30 2758 H 254.913 -5.03792 -2.17909 0
M  V30 2759 H 255.174 -3.41744 -2.8047 0
M  V30 2760 N 254.233 0.115231 -1.57178 0
M  V30 2761 C 255.18 1.14115 -2.00615 0
M  V30 2762 C 256.15 1.40939 -0.878941 0
M  V30 2763 O 257.335 1.52741 -1.14345 0
M  V30 2764 C 254.475 2.46156 -2.4187 0
M  V30 2765 C 253.588 2.26236 -3.68024 0
M  V30 2766 C 252.723 3.51534 -3.98243 0
M  V30 2767 C 251.762 3.26787 -5.17568 0
M  V30 2768 N 250.899 4.44298 -5.43639 0
M  V30 2769 H 255.739 0.763743 -2.88047 0
M  V30 2770 H 253.276 0.365615 -1.42484 0
M  V30 2771 H 255.234 3.23189 -2.63827 0
M  V30 2772 H 253.864 2.81783 -1.57475 0
M  V30 2773 H 252.916 1.40102 -3.5366 0
M  V30 2774 H 254.228 2.03929 -4.55208 0
M  V30 2775 H 253.382 4.36984 -4.20868 0
M  V30 2776 H 252.121 3.76876 -3.09541 0
M  V30 2777 H 251.126 2.39729 -4.94783 0
M  V30 2778 H 252.351 3.02812 -6.0785 0
M  V30 2779 H 250.297 4.69754 -4.57895 0
M  V30 2780 H 250.214 4.25109 -6.25154 0
M  V30 2781 H 251.482 5.3087 -5.70786 0
M  V30 2782 N 255.711 1.52812 0.385517 0
M  V30 2783 C 256.957 1.69225 1.12847 0
M  V30 2784 C 257.312 0.42864 1.87564 0
M  V30 2785 O 256.605 -0.57779 1.8268 0
M  V30 2786 C 256.799 2.86856 2.13187 0
M  V30 2787 C 256.628 4.24535 1.48325 0
M  V30 2788 C 255.398 4.89701 1.24585 0
M  V30 2789 C 257.596 5.05794 0.931501 0
M  V30 2790 N 255.578 6.11353 0.558644 0
M  V30 2791 C 256.949 6.1888 0.372552 0
M  V30 2792 C 259.004 4.90963 0.828248 0
M  V30 2793 C 257.707 7.18757 -0.279556 0
M  V30 2794 C 259.733 5.91095 0.189956 0
M  V30 2795 C 259.095 7.03489 -0.358207 0
M  V30 2796 H 255.194 0.67268 0.39878 0
M  V30 2797 H 257.778 1.9017 0.417528 0
M  V30 2798 H 255.949 2.67484 2.81614 0
M  V30 2799 H 257.681 2.92188 2.80014 0
M  V30 2800 H 254.436 4.48485 1.52178 0
M  V30 2801 H 254.86 6.76606 0.230983 0
M  V30 2802 H 259.502 4.04274 1.23784 0
M  V30 2803 H 257.22 8.05052 -0.701152 0
M  V30 2804 H 260.806 5.81694 0.111264 0
M  V30 2805 H 259.686 7.79642 -0.844314 0
M  V30 2806 N 257.189 -0.644168 1.43834 0
M  V30 2807 C 258.435 -1.40603 1.46146 0
M  V30 2808 C 258.768 -1.93997 0.0887717 0
M  V30 2809 O 258.043 -1.72854 -0.891724 0
M  V30 2810 C 258.326 -2.58086 2.51124 0
M  V30 2811 C 258.179 -2.10126 3.97702 0
M  V30 2812 C 259.498 -3.60291 2.52742 0
M  V30 2813 H 256.617 -0.509905 0.532134 0
M  V30 2814 H 259.259 -0.729502 1.75437 0
M  V30 2815 H 257.409 -3.15801 2.26278 0
M  V30 2816 H 259.081 -1.57342 4.33637 0
M  V30 2817 H 257.324 -1.41419 4.10101 0
M  V30 2818 H 257.995 -2.94649 4.66783 0
M  V30 2819 H 260.471 -3.12352 2.7491 0
M  V30 2820 H 259.347 -4.40032 3.28121 0
M  V30 2821 H 259.608 -4.1349 1.56455 0
M  V30 2822 N 258.668 -1.30515 -0.883378 0
M  V30 2823 C 259.915 -1.1943 -1.63532 0
M  V30 2824 C 260.243 0.250627 -1.92878 0
M  V30 2825 O 259.498 1.19556 -1.54935 0
M  V30 2826 C 259.797 -1.96994 -2.98209 0
M  V30 2827 C 259.463 -3.466 -2.88408 0
M  V30 2828 C 258.125 -3.87397 -2.85442 0
M  V30 2829 C 260.477 -4.41863 -2.76418 0
M  V30 2830 C 257.805 -5.21745 -2.68327 0
M  V30 2831 C 260.157 -5.7632 -2.60841 0
M  V30 2832 C 258.821 -6.16354 -2.56251 0
M  V30 2833 H 258.091 -0.437025 -0.598406 0
M  V30 2834 H 260.738 -1.61635 -1.02696 0
M  V30 2835 H 259.043 -1.47429 -3.63004 0
M  V30 2836 H 260.74 -1.85808 -3.55354 0
M  V30 2837 H 257.33 -3.14182 -2.91527 0
M  V30 2838 H 261.514 -4.11285 -2.77775 0
M  V30 2839 H 256.77 -5.51853 -2.63189 0
M  V30 2840 H 260.944 -6.49772 -2.50538 0
M  V30 2841 H 258.571 -7.20401 -2.42748 0
M  V30 2842 N 260.146 1.09593 -1.13257 0
M  V30 2843 C 261.094 2.18271 -0.803783 0
M  V30 2844 C 262.088 1.68054 0.213148 0
M  V30 2845 O 263.294 1.79862 0.0704699 0
M  V30 2846 H 259.669 0.711949 -0.242143 0
M  V30 2847 H 261.64 2.43235 -1.72856 0
M  V30 2848 C 260.389 3.46536 -0.28424 0
M  V30 2849 H 259.712 3.85545 -1.05807 0
M  V30 2850 H 261.152 4.23899 -0.0925945 0
M  V30 2851 C 259.611 3.22036 0.989684 0
M  V30 2852 O 260.141 3.44509 2.06584 0
M  V30 2853 N 258.347 2.7565 0.920086 0
M  V30 2854 H 257.894 2.57562 0.0442019 0
M  V30 2855 H 257.852 2.59635 1.77306 0
M  V30 2856 N 261.624 0.925811 1.2754 0
M  V30 2857 C 262.87 0.566092 1.94739 0
M  V30 2858 C 263.203 -0.890057 1.72603 0
M  V30 2859 O 262.478 -1.63467 1.05399 0
M  V30 2860 C 262.761 0.89054 3.48915 0
M  V30 2861 C 262.614 2.4003 3.80402 0
M  V30 2862 C 263.933 0.395101 4.38323 0
M  V30 2863 H 261.052 0.20714 0.707292 0
M  V30 2864 H 263.694 1.15725 1.50691 0
M  V30 2865 H 261.844 0.387452 3.86563 0
M  V30 2866 H 263.516 2.97494 3.52555 0
M  V30 2867 H 261.759 2.85028 3.2702 0
M  V30 2868 H 262.43 2.57785 4.8811 0
M  V30 2869 H 264.906 0.826241 4.07814 0
M  V30 2870 H 263.782 0.651086 5.45025 0
M  V30 2871 H 264.043 -0.704798 4.36446 0
M  V30 2872 N 263.102 -1.41638 0.69111 0
M  V30 2873 C 264.05 -2.32597 0.0115199 0
M  V30 2874 C 265.044 -1.5072 -0.773296 0
M  V30 2875 O 266.25 -1.66685 -0.67942 0
M  V30 2876 H 262.625 -0.751849 -0.0150746 0
M  V30 2877 H 264.596 -2.87593 0.795791 0
M  V30 2878 C 263.345 -3.35467 -0.914172 0
M  V30 2879 H 262.668 -3.9852 -0.319687 0
M  V30 2880 H 264.108 -4.01662 -1.35808 0
M  V30 2881 C 262.567 -2.69004 -2.02826 0
M  V30 2882 O 263.097 -2.53444 -3.11655 0
M  V30 2883 N 261.303 -2.2777 -1.80469 0
M  V30 2884 H 260.85 -2.40626 -0.919615 0
M  V30 2885 H 260.808 -1.83635 -2.55197 0
M  V30 2886 N 264.58 -0.43555 -1.51462 0
M  V30 2887 C 265.82 0.130708 -2.03982 0
M  V30 2888 C 266.184 1.40117 -1.31268 0
M  V30 2889 O 267.385 2.04755 -1.74152 0
M  V30 2890 C 265.656 0.346102 -3.5572 0
M  V30 2891 S 267.215 0.876022 -4.29967 0
M  V30 2892 H 264.033 0.0326881 -0.710248 0
M  V30 2893 H 266.635 -0.594544 -1.8624 0
M  V30 2894 H 265.339 -0.584911 -4.0621 0
M  V30 2895 H 264.87 1.09849 -3.77752 0
M  V30 2896 H 266.885 2.15379 -4.47019 0
M  V30 2897 N 266.058 1.56714 -0.166846 0
M  V30 2898 C 267.335 1.88412 0.525373 0
M  V30 2899 C 267.715 1.07602 1.81618 0
M  V30 2900 O 267.063 0.168621 2.27877 0
M  V30 2901 C 267.273 3.40363 0.771613 0
M  V30 2902 C 268.621 4.10007 1.1036 0
M  V30 2903 O 269.645 3.45655 0.860304 0
M  V30 2904 O 268.504 5.2369 1.56239 0
M  V30 2905 H 265.598 0.781587 0.270278 0
M  V30 2906 H 268.144 1.68458 -0.204946 0
M  V30 2907 H 266.916 3.91046 -0.141093 0
M  V30 2908 H 266.539 3.65914 1.55541 0
M  V30 2909 N 267.536 -0.106894 1.57237 0
M  V30 2910 C 268.484 -1.14944 2.02215 0
M  V30 2911 C 269.478 -1.42167 0.92114 0
M  V30 2912 O 270.684 -1.41987 1.10634 0
M  V30 2913 H 267.059 -0.387841 0.64427 0
M  V30 2914 H 269.03 -0.743683 2.88984 0
M  V30 2915 C 267.779 -2.4647 2.4525 0
M  V30 2916 H 267.102 -2.26363 3.29545 0
M  V30 2917 H 268.542 -3.17948 2.80508 0
M  V30 2918 C 267.001 -3.09921 1.321 0
M  V30 2919 O 267.531 -3.9651 0.643622 0
M  V30 2920 N 265.737 -2.69986 1.07497 0
M  V30 2921 H 265.284 -1.99667 1.62761 0
M  V30 2922 H 265.242 -3.12769 0.319876 0
M  V30 2923 N 269.014 -1.53014 -0.377408 0
M  V30 2924 C 270.26 -1.68872 -1.12294 0
M  V30 2925 C 270.593 -0.433224 -1.89306 0
M  V30 2926 O 269.868 0.569258 -1.85983 0
M  V30 2927 C 270.151 -2.93115 -2.09179 0
M  V30 2928 C 270.004 -4.28794 -1.35853 0
M  V30 2929 C 271.323 -3.12928 -3.09458 0
M  V30 2930 H 268.442 -0.614518 -0.406862 0
M  V30 2931 H 271.084 -1.85633 -0.40503 0
M  V30 2932 H 269.234 -2.78956 -2.70399 0
M  V30 2933 H 270.906 -4.54742 -0.775082 0
M  V30 2934 H 269.149 -4.28744 -0.660364 0
M  V30 2935 H 269.82 -5.11837 -2.06706 0
M  V30 2936 H 272.296 -3.26194 -2.58334 0
M  V30 2937 H 271.172 -4.01316 -3.74482 0
M  V30 2938 H 271.433 -2.27669 -3.78971 0
M  V30 2939 N 270.492 0.636531 -1.44174 0
M  V30 2940 C 271.74 1.39343 -1.46383 0
M  V30 2941 C 272.061 1.94766 -0.0955715 0
M  V30 2942 O 271.331 1.75452 0.871395 0
M  V30 2943 H 269.911 0.517199 -0.538994 0
M  V30 2944 H 272.573 0.74957 -1.7991 0
M  V30 2945 H 271.669 2.22746 -2.18611 0
M  V30 2946 N 271.97 1.30982 0.876444 0
M  V30 2947 C 272.918 1.18006 2.00443 0
M  V30 2948 C 273.912 0.0898871 1.69161 0
M  V30 2949 O 275.118 0.251333 1.78237 0
M  V30 2950 H 271.493 0.365196 0.65737 0
M  V30 2951 H 273.464 2.13453 2.0852 0
M  V30 2952 C 272.213 0.897521 3.35916 0
M  V30 2953 H 271.536 1.7285 3.60504 0
M  V30 2954 H 272.976 0.846874 4.15456 0
M  V30 2955 C 271.435 -0.399674 3.34521 0
M  V30 2956 O 271.965 -1.41852 3.7582 0
M  V30 2957 N 270.171 -0.413893 2.87637 0
M  V30 2958 H 269.718 0.41571 2.54224 0
M  V30 2959 H 269.676 -1.28175 2.87086 0
M  V30 2960 N 273.449 -1.08991 1.13837 0
M  V30 2961 C 274.697 -1.80899 0.901098 0
M  V30 2962 C 275.018 -1.86356 -0.574134 0
M  V30 2963 O 274.288 -1.35235 -1.41733 0
M  V30 2964 H 272.868 -0.669966 0.330386 0
M  V30 2965 H 275.53 -1.318 1.43578 0
M  V30 2966 H 274.626 -2.83929 1.29578 0
M  V30 2967 N 274.927 -0.932562 -1.27047 0
M  V30 2968 C 276.155 -0.592031 -1.98249 0
M  V30 2969 C 276.57 0.831062 -1.69525 0
M  V30 2970 O 275.927 1.55299 -0.958561 0
M  V30 2971 C 275.978 -0.814279 -3.5221 0
M  V30 2972 O 275.699 -2.18139 -3.7993 0
M  V30 2973 C 277.2 -0.483121 -4.4066 0
M  V30 2974 H 274.42 -0.223896 -0.632544 0
M  V30 2975 H 276.964 -1.25091 -1.61779 0
M  V30 2976 H 275.119 -0.20213 -3.86872 0
M  V30 2977 H 275.533 -2.235 -4.74498 0
M  V30 2978 H 277.007 -0.689298 -5.47679 0
M  V30 2979 H 277.484 0.581546 -4.35333 0
M  V30 2980 H 278.09 -1.07362 -4.11526 0
M  V30 2981 N 276.405 1.4127 -0.698611 0
M  V30 2982 C 277.63 2.06024 -0.238512 0
M  V30 2983 C 278.055 1.5224 1.10475 0
M  V30 2984 O 277.413 0.650623 1.69223 0
M  V30 2985 C 277.461 3.59988 -0.209952 0
M  V30 2986 O 276.565 4.04282 0.814235 0
M  V30 2987 H 275.906 0.653829 -0.115775 0
M  V30 2988 H 278.436 1.8098 -0.954326 0
M  V30 2989 H 278.446 4.07979 -0.0418436 0
M  V30 2990 H 277.121 3.98503 -1.1903 0
M  V30 2991 H 275.698 3.6779 0.615234 0
M  V30 2992 N 277.883 0.443576 1.51229 0
M  V30 2993 C 279.113 -0.119117 2.06256 0
M  V30 2994 C 279.521 -1.36471 1.31043 0
M  V30 2995 O 278.864 -1.80034 0.365151 0
M  V30 2996 C 278.926 -0.500546 3.55998 0
M  V30 2997 C 278.59 0.639125 4.52509 0
M  V30 2998 C 279.587 1.51311 4.97394 0
M  V30 2999 C 277.272 0.821632 4.95535 0
M  V30 3000 C 279.266 2.55425 5.83984 0
M  V30 3001 C 276.953 1.86603 5.81913 0
M  V30 3002 C 277.951 2.73072 6.26036 0
M  V30 3003 O 277.639 3.75718 7.10698 0
M  V30 3004 H 277.371 -0.00857665 0.675946 0
M  V30 3005 H 279.925 0.623288 1.95715 0
M  V30 3006 H 278.155 -1.29575 3.64345 0
M  V30 3007 H 279.844 -0.995116 3.93513 0
M  V30 3008 H 280.61 1.38367 4.64844 0
M  V30 3009 H 276.489 0.158149 4.60729 0
M  V30 3010 H 280.033 3.22949 6.18344 0
M  V30 3011 H 275.93 1.99564 6.13876 0
M  V30 3012 H 276.698 3.72374 7.2889 0
M  V30 3013 N 279.361 -1.56624 0.175154 0
M  V30 3014 C 280.291 -2.21155 -0.749195 0
M  V30 3015 C 281.272 -1.16836 -1.23626 0
M  V30 3016 O 282.457 -1.45277 -1.28873 0
M  V30 3017 C 279.587 -2.8553 -1.97711 0
M  V30 3018 C 278.541 -3.95921 -1.62575 0
M  V30 3019 C 277.867 -4.47365 -2.92864 0
M  V30 3020 C 279.167 -5.15323 -0.850838 0
M  V30 3021 H 280.861 -2.98653 -0.211295 0
M  V30 3022 H 278.407 -1.43651 -0.100188 0
M  V30 3023 H 280.36 -3.2935 -2.62881 0
M  V30 3024 H 279.084 -2.05406 -2.53921 0
M  V30 3025 H 277.743 -3.52762 -0.997719 0
M  V30 3026 H 277.391 -3.64027 -3.47122 0
M  V30 3027 H 277.091 -5.21839 -2.70106 0
M  V30 3028 H 278.615 -4.93873 -3.59056 0
M  V30 3029 H 280.029 -5.55812 -1.40521 0
M  V30 3030 H 278.426 -5.95739 -0.722154 0
M  V30 3031 H 279.496 -4.84661 0.152082 0
M  V30 3032 N 280.839 0.0985539 -1.57292 0
M  V30 3033 C 282.087 0.801092 -1.85545 0
M  V30 3034 C 282.408 1.79438 -0.763353 0
M  V30 3035 O 281.678 1.94763 0.21073 0
M  V30 3036 H 280.258 0.29884 -0.684619 0
M  V30 3037 H 282.92 0.0810064 -1.94732 0
M  V30 3038 H 282.016 1.3338 -2.82163 0
M  V30 3039 N 282.317 1.53212 0.369288 0
M  V30 3040 C 283.267 1.75769 1.45222 0
M  V30 3041 C 284.251 0.612136 1.48801 0
M  V30 3042 O 285.443 0.870674 1.54105 0
M  V30 3043 C 282.572 1.94769 2.82701 0
M  V30 3044 C 281.658 3.15315 2.83615 0
M  V30 3045 N 282.049 4.37295 2.54178 0
M  V30 3046 C 280.347 3.15962 3.14776 0
M  V30 3047 C 281.048 5.19015 2.62675 0
M  V30 3048 N 280.024 4.55142 2.97232 0
M  V30 3049 H 283.826 2.67691 1.2132 0
M  V30 3050 H 281.34 1.51787 0.577438 0
M  V30 3051 H 283.337 2.09056 3.60696 0
M  V30 3052 H 281.997 1.04073 3.07569 0
M  V30 3053 H 283.008 4.65091 2.27839 0
M  V30 3054 H 279.685 2.35144 3.44983 0
M  V30 3055 H 281.075 6.26305 2.43294 0
M  V30 3056 N 283.795 -0.628877 1.44509 0
M  V30 3057 C 285.025 -1.41349 1.50678 0
M  V30 3058 C 285.433 -1.88745 0.131075 0
M  V30 3059 O 284.776 -1.61592 -0.87371 0
M  V30 3060 C 284.838 -2.66608 2.41165 0
M  V30 3061 C 284.502 -2.40993 3.88293 0
M  V30 3062 C 285.499 -2.0268 4.78766 0
M  V30 3063 C 283.184 -2.54563 4.33016 0
M  V30 3064 C 285.178 -1.78269 6.11963 0
M  V30 3065 C 282.865 -2.29766 5.6626 0
M  V30 3066 C 283.863 -1.91678 6.55552 0
M  V30 3067 O 283.551 -1.67158 7.86329 0
M  V30 3068 H 283.283 -0.439851 0.51333 0
M  V30 3069 H 285.837 -0.776084 1.90174 0
M  V30 3070 H 284.067 -3.32994 1.96601 0
M  V30 3071 H 285.756 -3.28615 2.38259 0
M  V30 3072 H 286.522 -1.91751 4.45485 0
M  V30 3073 H 282.401 -2.83179 3.63773 0
M  V30 3074 H 285.945 -1.48465 6.81619 0
M  V30 3075 H 281.842 -2.40306 5.99102 0
M  V30 3076 H 282.61 -1.81386 7.98149 0
M  V30 3077 N 285.273 -1.31445 -0.869486 0
M  V30 3078 C 286.684 -1.19042 -1.43826 0
M  V30 3079 C 287.035 0.202919 -1.95148 0
M  V30 3080 O 286.16 1.10071 -1.86315 0
M  V30 3081 C 286.755 -2.15499 -2.6143 0
M  V30 3082 C 285.314 -2.07028 -3.14351 0
M  V30 3083 C 284.461 -2.04701 -1.87063 0
M  V30 3084 H 287.412 -1.43489 -0.677984 0
M  V30 3085 H 287.433 -1.74488 -3.38134 0
M  V30 3086 H 286.945 -3.16899 -2.24046 0
M  V30 3087 H 285.046 -1.08825 -3.56354 0
M  V30 3088 H 285.159 -2.96157 -3.766 0
M  V30 3089 H 283.523 -1.49724 -2.06046 0
M  V30 3090 H 284.306 -3.07857 -1.51917 0
M  V30 3091 N 286.751 1.08385 -1.14413 0
M  V30 3092 C 287.999 1.80419 -0.910679 0
M  V30 3093 C 288.32 1.86658 0.564243 0
M  V30 3094 O 287.59 1.35985 1.41014 0
M  V30 3095 H 286.17 0.668204 -0.333934 0
M  V30 3096 H 288.832 1.31037 -1.44275 0
M  V30 3097 H 287.928 2.83238 -1.31082 0
M  V30 3098 N 288.23 0.939286 1.26551 0
M  V30 3099 C 289.507 0.5038 1.89001 0
M  V30 3100 C 289.887 -1.01854 1.84903 0
M  V30 3101 O 289.235 -1.87773 1.30206 0
M  V30 3102 C 289.445 1.063 3.32417 0
M  V30 3103 C 290.793 1.13051 4.09273 0
M  V30 3104 O 291.817 1.01345 3.41479 0
M  V30 3105 O 290.676 1.31233 5.30509 0
M  V30 3106 H 287.77 0.163897 0.810597 0
M  V30 3107 H 290.316 1.03173 1.34735 0
M  V30 3108 H 289.088 2.10665 3.29752 0
M  V30 3109 H 288.711 0.517408 3.94219 0
M  V30 3110 N 289.708 -1.40897 0.706093 0
M  V30 3111 C 290.656 -2.32572 0.0361893 0
M  V30 3112 C 291.65 -1.51532 -0.757266 0
M  V30 3113 O 292.856 -1.67396 -0.661703 0
M  V30 3114 H 289.231 -0.751966 -0.00709935 0
M  V30 3115 H 291.202 -2.86733 0.826249 0
M  V30 3116 C 289.951 -3.36418 -0.87854 0
M  V30 3117 H 289.274 -3.98836 -0.277401 0
M  V30 3118 H 290.714 -4.0308 -1.3154 0
M  V30 3119 C 289.173 -2.71141 -1.99961 0
M  V30 3120 O 289.703 -2.56735 -3.0895 0
M  V30 3121 N 287.909 -2.29671 -1.78043 0
M  V30 3122 H 287.456 -2.41588 -0.894042 0
M  V30 3123 H 287.414 -1.86332 -2.53235 0
M  V30 3124 N 291.186 -0.45159 -1.50991 0
M  V30 3125 C 292.416 0.108177 -2.06317 0
M  V30 3126 C 292.824 1.35774 -1.31765 0
M  V30 3127 O 292.167 1.79838 -0.374694 0
M  V30 3128 C 292.229 0.481659 -3.56259 0
M  V30 3129 C 291.893 -0.663114 -4.52163 0
M  V30 3130 C 292.89 -1.53947 -4.96585 0
M  V30 3131 C 290.575 -0.8479 -4.95092 0
M  V30 3132 C 292.569 -2.58518 -5.82621 0
M  V30 3133 C 290.256 -1.89686 -5.80915 0
M  V30 3134 C 291.254 -2.76388 -6.24579 0
M  V30 3135 O 290.942 -3.79482 -7.08695 0
M  V30 3136 H 290.674 0.00499183 -0.675982 0
M  V30 3137 H 293.228 -0.633659 -1.95381 0
M  V30 3138 H 291.458 1.27641 -3.65027 0
M  V30 3139 H 293.147 0.974233 -3.94035 0
M  V30 3140 H 293.913 -1.4083 -4.64103 0
M  V30 3141 H 289.792 -0.18258 -4.60638 0
M  V30 3142 H 293.336 -3.26224 -6.16623 0
M  V30 3143 H 289.233 -2.02817 -6.12809 0
M  V30 3144 H 290.001 -3.76234 -7.26905 0
M  V30 3145 N 292.664 1.56529 -0.183458 0
M  V30 3146 C 293.91 1.97537 0.459036 0
M  V30 3147 C 294.243 1.06989 1.62071 0
M  V30 3148 O 293.518 0.11948 1.94133 0
M  V30 3149 C 293.801 3.47874 0.930368 0
M  V30 3150 C 293.654 4.492 -0.232317 0
M  V30 3151 C 294.973 4.01612 1.79989 0
M  V30 3152 H 292.092 0.718204 0.165383 0
M  V30 3153 H 294.734 1.88042 -0.272038 0
M  V30 3154 H 292.884 3.56095 1.55333 0
M  V30 3155 H 294.556 4.53027 -0.86972 0
M  V30 3156 H 292.799 4.24657 -0.885928 0
M  V30 3157 H 293.47 5.51823 0.139796 0
M  V30 3158 H 295.946 3.96097 1.27461 0
M  V30 3159 H 294.822 5.07195 2.09867 0
M  V30 3160 H 295.083 3.46163 2.74998 0
M  V30 3161 N 294.142 -0.090211 1.57342 0
M  V30 3162 C 295.419 -0.824761 1.77361 0
M  V30 3163 C 295.799 -1.96698 0.76637 0
M  V30 3164 O 295.147 -2.27586 -0.204179 0
M  V30 3165 C 295.357 -1.31481 3.23286 0
M  V30 3166 C 296.705 -1.75563 3.86604 0
M  V30 3167 O 297.729 -1.41093 3.27065 0
M  V30 3168 O 296.588 -2.39317 4.91314 0
M  V30 3169 H 293.682 -0.393776 0.727234 0
M  V30 3170 H 296.228 -0.0717138 1.69548 0
M  V30 3171 H 295 -0.496671 3.88135 0
M  V30 3172 H 294.623 -2.12973 3.35751 0
M  V30 3173 N 295.62 -1.53406 -0.361157 0
M  V30 3174 C 296.85 -1.73465 -1.1222 0
M  V30 3175 C 297.258 -0.465486 -1.83384 0
M  V30 3176 O 296.601 0.571611 -1.7458 0
M  V30 3177 C 296.663 -2.84834 -2.19339 0
M  V30 3178 C 296.327 -4.25038 -1.67903 0
M  V30 3179 C 297.324 -5.07231 -1.14074 0
M  V30 3180 C 295.009 -4.71464 -1.73282 0
M  V30 3181 C 297.003 -6.33942 -0.663068 0
M  V30 3182 C 294.69 -5.98153 -1.25127 0
M  V30 3183 C 295.688 -6.79223 -0.717296 0
M  V30 3184 O 295.376 -8.03533 -0.242865 0
M  V30 3185 H 295.108 -0.583526 -0.341283 0
M  V30 3186 H 297.662 -2.00964 -0.424591 0
M  V30 3187 H 295.892 -2.5282 -2.92607 0
M  V30 3188 H 297.581 -2.9303 -2.80871 0
M  V30 3189 H 298.347 -4.72534 -1.09254 0
M  V30 3190 H 294.226 -4.08432 -2.13786 0
M  V30 3191 H 297.77 -6.97167 -0.245612 0
M  V30 3192 H 293.667 -6.32347 -1.29642 0
M  V30 3193 H 294.435 -8.177 -0.361786 0
M  V30 3194 N 297.098 0.621204 -1.44841 0
M  V30 3195 C 298.326 1.40752 -1.51646 0
M  V30 3196 C 298.741 1.88246 -0.144549 0
M  V30 3197 O 298.098 1.61422 0.851416 0
M  V30 3198 C 298.149 2.62119 -2.4895 0
M  V30 3199 O 297.87 2.16602 -3.80808 0
M  V30 3200 C 299.371 3.55135 -2.65319 0
M  V30 3201 H 296.591 0.431325 -0.514004 0
M  V30 3202 H 299.135 0.758835 -1.899 0
M  V30 3203 H 297.29 3.23058 -2.13805 0
M  V30 3204 H 297.704 2.95358 -4.33433 0
M  V30 3205 H 299.178 4.36874 -3.37409 0
M  V30 3206 H 299.655 4.04592 -1.70886 0
M  V30 3207 H 300.261 3.00058 -3.01405 0
M  V30 3208 N 298.576 1.31904 0.862503 0
M  V30 3209 C 299.801 1.25135 1.65397 0
M  V30 3210 C 300.226 -0.179 1.87246 0
M  V30 3211 O 299.584 -1.1277 1.4196 0
M  V30 3212 C 299.632 2.00832 2.99498 0
M  V30 3213 O 298.736 1.35075 3.89652 0
M  V30 3214 H 298.077 0.431655 0.504549 0
M  V30 3215 H 300.607 1.74094 1.07483 0
M  V30 3216 H 300.617 2.10709 3.49379 0
M  V30 3217 H 299.292 3.04847 2.82916 0
M  V30 3218 H 297.869 1.33696 3.48109 0
M  V30 3219 N 300.054 -1.07777 1.14986 0
M  V30 3220 C 301.303 -1.79669 0.916617 0
M  V30 3221 C 301.616 -1.87474 -0.557917 0
M  V30 3222 O 302.822 -2.55845 -0.908617 0
M  V30 3223 C 301.278 -3.22848 1.59051 0
M  V30 3224 C 300.886 -3.23257 3.10176 0
M  V30 3225 C 302.63 -3.99379 1.43864 0
M  V30 3226 C 300.537 -4.61063 3.70372 0
M  V30 3227 H 299.467 -0.673349 0.33929 0
M  V30 3228 H 302.118 -1.21003 1.37951 0
M  V30 3229 H 300.5 -3.8168 1.0553 0
M  V30 3230 H 301.674 -2.74095 3.70417 0
M  V30 3231 H 299.989 -2.60222 3.25074 0
M  V30 3232 H 302.586 -5.0122 1.86232 0
M  V30 3233 H 302.929 -4.14511 0.385564 0
M  V30 3234 H 303.462 -3.47032 1.94457 0
M  V30 3235 H 300.201 -4.51135 4.7556 0
M  V30 3236 H 299.721 -5.1048 3.14913 0
M  V30 3237 H 301.4 -5.30034 3.71043 0
M  V30 3238 N 301.532 -0.945985 -1.26051 0
M  V30 3239 C 302.809 -0.513816 -1.88731 0
M  V30 3240 C 303.189 1.00872 -1.8544 0
M  V30 3241 O 302.537 1.8708 -1.312 0
M  V30 3242 C 302.747 -1.08062 -3.31849 0
M  V30 3243 C 304.095 -1.1522 -4.08668 0
M  V30 3244 O 305.119 -1.03155 -3.40936 0
M  V30 3245 O 303.978 -1.34044 -5.29806 0
M  V30 3246 H 301.072 -0.168193 -0.809716 0
M  V30 3247 H 303.618 -1.03886 -1.34186 0
M  V30 3248 H 302.39 -2.1241 -3.2863 0
M  V30 3249 H 302.013 -0.538307 -3.93939 0
M  V30 3250 N 303.011 1.40521 -0.713556 0
M  V30 3251 C 304.259 2.00527 -0.251692 0
M  V30 3252 C 304.58 1.56857 1.15848 0
M  V30 3253 O 303.85 0.807127 1.785 0
M  V30 3254 H 302.43 0.741551 -0.0900646 0
M  V30 3255 H 305.092 1.71887 -0.918733 0
M  V30 3256 H 304.188 3.10813 -0.283192 0
M  V30 3257 N 304.489 0.459591 1.5075 0
M  V30 3258 C 305.719 -0.0972338 2.06371 0
M  V30 3259 C 306.127 -1.35074 1.32483 0
M  V30 3260 O 305.47 -1.79637 0.384226 0
M  V30 3261 C 305.532 -0.462759 3.56509 0
M  V30 3262 C 305.196 0.687084 4.51805 0
M  V30 3263 C 306.193 1.56578 4.95761 0
M  V30 3264 C 303.878 0.874144 4.94635 0
M  V30 3265 C 305.872 2.61604 5.81242 0
M  V30 3266 C 303.559 1.92765 5.79901 0
M  V30 3267 C 304.557 2.79697 6.23104 0
M  V30 3268 O 304.245 3.83235 7.06673 0
M  V30 3269 H 303.977 -0.00140687 0.675999 0
M  V30 3270 H 306.531 0.644011 1.95043 0
M  V30 3271 H 304.761 -1.25703 3.65699 0
M  V30 3272 H 306.45 -0.953323 3.94546 0
M  V30 3273 H 307.216 1.4329 4.6335 0
M  V30 3274 H 303.095 0.207006 4.60535 0
M  V30 3275 H 306.639 3.29489 6.14884 0
M  V30 3276 H 302.536 2.06064 6.11725 0
M  V30 3277 H 303.304 3.80084 7.24899 0
M  V30 3278 N 305.967 -1.56429 0.191757 0
M  V30 3279 C 306.915 -2.20273 -0.747174 0
M  V30 3280 C 307.909 -1.17288 -1.22229 0
M  V30 3281 O 309.115 -1.35441 -1.18557 0
M  V30 3282 H 305.49 -0.705885 -0.259289 0
M  V30 3283 H 307.461 -2.97826 -0.184963 0
M  V30 3284 C 306.21 -2.87356 -1.95759 0
M  V30 3285 H 305.533 -3.66341 -1.60106 0
M  V30 3286 H 306.973 -3.3547 -2.59299 0
M  V30 3287 C 305.432 -1.88213 -2.79423 0
M  V30 3288 O 305.962 -1.38033 -3.7724 0
M  V30 3289 N 304.168 -1.56516 -2.44849 0
M  V30 3290 H 303.715 -1.97516 -1.65364 0
M  V30 3291 H 303.673 -0.904369 -3.01112 0
M  V30 3292 N 307.445 0.0818655 -1.57387 0
M  V30 3293 C 308.691 0.778884 -1.87896 0
M  V30 3294 C 309.046 1.75692 -0.784229 0
M  V30 3295 O 308.339 1.90417 0.212567 0
M  V30 3296 C 308.533 1.53513 -3.22752 0
M  V30 3297 C 308.362 0.631838 -4.45239 0
M  V30 3298 C 307.132 0.272571 -5.04564 0
M  V30 3299 C 309.33 -0.0670191 -5.14256 0
M  V30 3300 N 307.312 -0.637498 -6.10581 0
M  V30 3301 C 308.683 -0.834653 -6.14356 0
M  V30 3302 C 310.738 -0.139551 -4.97704 0
M  V30 3303 C 309.441 -1.66806 -6.99691 0
M  V30 3304 C 311.467 -0.959903 -5.83558 0
M  V30 3305 C 310.829 -1.71561 -6.83188 0
M  V30 3306 H 306.928 0.260764 -0.737242 0
M  V30 3307 H 309.512 0.0408227 -1.94657 0
M  V30 3308 H 307.683 2.24398 -3.17018 0
M  V30 3309 H 309.415 2.18038 -3.40942 0
M  V30 3310 H 306.17 0.62319 -4.69482 0
M  V30 3311 H 306.594 -1.08548 -6.68241 0
M  V30 3312 H 311.236 0.430376 -4.20604 0
M  V30 3313 H 308.954 -2.249 -7.76174 0
M  V30 3314 H 312.54 -1.01887 -5.72809 0
M  V30 3315 H 311.42 -2.34017 -7.48469 0
M  V30 3316 N 308.923 1.53595 0.353017 0
M  V30 3317 C 310.171 1.70049 1.09215 0
M  V30 3318 C 310.492 0.461406 1.89463 0
M  V30 3319 O 309.762 -0.524633 1.88744 0
M  V30 3320 H 308.342 0.626912 0.40619 0
M  V30 3321 H 311.004 1.90822 0.396585 0
M  V30 3322 H 310.1 2.56718 1.77488 0
M  V30 3323 N 310.401 -0.613514 1.45168 0
M  V30 3324 C 311.629 -1.39946 1.5239 0
M  V30 3325 C 312.044 -1.88167 0.154531 0
M  V30 3326 O 311.401 -1.61872 -0.842843 0
M  V30 3327 C 311.452 -2.60795 2.50337 0
M  V30 3328 O 311.173 -2.1458 3.81952 0
M  V30 3329 C 312.674 -3.53723 2.67198 0
M  V30 3330 H 309.894 -0.428593 0.516284 0
M  V30 3331 H 312.438 -0.748753 1.903 0
M  V30 3332 H 310.593 -3.21919 2.15515 0
M  V30 3333 H 311.007 -2.93055 4.34993 0
M  V30 3334 H 312.481 -4.35079 3.39721 0
M  V30 3335 H 312.958 -4.0368 1.73029 0
M  V30 3336 H 313.564 -2.98456 3.02992 0
M  V30 3337 N 311.879 -1.3236 -0.855495 0
M  V30 3338 C 313.107 -1.2587 -1.64208 0
M  V30 3339 C 313.522 0.173457 -1.88002 0
M  V30 3340 O 312.879 1.11027 -1.44842 0
M  V30 3341 C 312.93 -2.01424 -3.00184 0
M  V30 3342 O 312.651 -3.39051 -2.77445 0
M  V30 3343 C 314.152 -2.01948 -3.94629 0
M  V30 3344 H 311.372 -0.434318 -0.511477 0
M  V30 3345 H 313.916 -1.74469 -1.0668 0
M  V30 3346 H 312.071 -1.56549 -3.5436 0
M  V30 3347 H 312.485 -3.77711 -3.63916 0
M  V30 3348 H 313.959 -2.59297 -4.87308 0
M  V30 3349 H 314.436 -1.00554 -4.27534 0
M  V30 3350 H 315.042 -2.46767 -3.4639 0
M  V30 3351 N 313.357 1.07166 -1.15556 0
M  V30 3352 C 314.289 2.14341 -0.811815 0
M  V30 3353 C 315.302 1.61835 0.177015 0
M  V30 3354 O 316.491 1.78439 -0.0464996 0
M  V30 3355 C 313.591 3.38387 -0.186481 0
M  V30 3356 C 312.764 4.20238 -1.21321 0
M  V30 3357 C 311.823 5.2266 -0.609302 0
M  V30 3358 O 310.849 5.54719 -1.27576 0
M  V30 3359 N 312.051 5.77306 0.608099 0
M  V30 3360 H 314.816 2.44431 -1.73417 0
M  V30 3361 H 312.377 1.23089 -1.0517 0
M  V30 3362 H 314.369 4.04044 0.230339 0
M  V30 3363 H 312.939 3.05994 0.639249 0
M  V30 3364 H 312.159 3.50369 -1.80652 0
M  V30 3365 H 313.447 4.71736 -1.90638 0
M  V30 3366 H 312.845 5.53513 1.1679 0
M  V30 3367 H 311.402 6.44583 0.96725 0
M  V30 3368 N 314.835 0.952656 1.25548 0
M  V30 3369 C 316.06 0.623025 1.97821 0
M  V30 3370 C 316.485 -0.7976 1.70352 0
M  V30 3371 O 315.843 -1.53905 0.958283 0
M  V30 3372 C 315.891 0.885532 3.49558 0
M  V30 3373 O 314.995 -0.0366641 4.12384 0
M  V30 3374 H 314.336 0.237082 0.620232 0
M  V30 3375 H 316.866 1.27871 1.59719 0
M  V30 3376 H 316.876 0.811009 3.99858 0
M  V30 3377 H 315.551 1.92094 3.6888 0
M  V30 3378 H 314.128 0.0898954 3.72792 0
M  V30 3379 N 316.313 -1.40141 0.720998 0
M  V30 3380 C 317.559 -2.01572 0.272075 0
M  V30 3381 C 317.914 -1.5616 -1.12391 0
M  V30 3382 O 317.207 -0.774198 -1.75262 0
M  V30 3383 C 317.401 -3.56165 0.296892 0
M  V30 3384 C 317.23 -4.16584 1.69375 0
M  V30 3385 C 316 -4.49783 2.30269 0
M  V30 3386 C 318.198 -4.41076 2.64493 0
M  V30 3387 N 316.18 -4.95626 3.62254 0
M  V30 3388 C 317.551 -4.88971 3.81192 0
M  V30 3389 C 319.606 -4.23122 2.62435 0
M  V30 3390 C 318.309 -5.20796 4.96149 0
M  V30 3391 C 320.335 -4.56052 3.76524 0
M  V30 3392 C 319.697 -5.04141 4.91956 0
M  V30 3393 H 315.796 -0.768343 0.145511 0
M  V30 3394 H 318.38 -1.70287 0.943959 0
M  V30 3395 H 316.551 -3.86868 -0.344578 0
M  V30 3396 H 318.283 -4.04346 -0.169254 0
M  V30 3397 H 315.038 -4.37101 1.82318 0
M  V30 3398 H 315.462 -5.22923 4.29977 0
M  V30 3399 H 320.104 -3.85158 1.74393 0
M  V30 3400 H 317.822 -5.57672 5.84831 0
M  V30 3401 H 321.408 -4.43796 3.76213 0
M  V30 3402 H 320.288 -5.29142 5.78774 0
M  V30 3403 N 317.792 -0.46758 -1.50504 0
M  V30 3404 C 319.04 0.0884469 -2.01906 0
M  V30 3405 C 319.361 1.40532 -1.35188 0
M  V30 3406 O 318.631 1.89515 -0.496079 0
M  V30 3407 H 317.211 0.0356765 -0.746148 0
M  V30 3408 H 319.873 -0.6172 -1.84869 0
M  V30 3409 H 318.969 0.2425 -3.11156 0
M  V30 3410 N 319.27 1.56325 -0.20005 0
M  V30 3411 C 320.495 2.02548 0.44597 0
M  V30 3412 C 320.92 1.07922 1.5406 0
M  V30 3413 O 320.278 0.0635775 1.81188 0
M  V30 3414 C 320.326 3.47175 0.974761 0
M  V30 3415 O 319.43 3.55671 2.08739 0
M  V30 3416 H 318.771 0.655862 0.103638 0
M  V30 3417 H 321.301 2.02201 -0.312381 0
M  V30 3418 H 321.311 3.87067 1.2901 0
M  V30 3419 H 319.986 4.15538 0.17347 0
M  V30 3420 H 318.563 3.27657 1.78032 0
M  V30 3421 N 320.748 -0.0735177 1.57428 0
M  V30 3422 C 321.68 -1.11423 2.00294 0
M  V30 3423 C 322.693 -1.35084 0.908637 0
M  V30 3424 O 323.882 -1.33355 1.18654 0
M  V30 3425 C 320.982 -2.46548 2.32523 0
M  V30 3426 C 320.155 -2.42867 3.63778 0
M  V30 3427 C 319.214 -3.60087 3.83697 0
M  V30 3428 O 318.24 -3.41595 4.55304 0
M  V30 3429 N 319.442 -4.80372 3.25919 0
M  V30 3430 H 322.207 -0.749206 2.90184 0
M  V30 3431 H 319.768 -0.262195 1.59763 0
M  V30 3432 H 321.76 -3.23607 2.43024 0
M  V30 3433 H 320.33 -2.75059 1.48531 0
M  V30 3434 H 319.55 -1.51206 3.64047 0
M  V30 3435 H 320.838 -2.37506 4.49965 0
M  V30 3436 H 320.236 -4.983 2.67795 0
M  V30 3437 H 318.793 -5.54948 3.41871 0
M  V30 3438 N 322.226 -1.5378 -0.344866 0
M  V30 3439 C 323.472 -1.72158 -1.0832 0
M  V30 3440 C 323.827 -0.478218 -1.86362 0
M  V30 3441 O 323.12 0.529152 -1.84148 0
M  V30 3442 C 323.314 -2.92407 -2.05506 0
M  V30 3443 C 323.143 -4.28318 -1.37017 0
M  V30 3444 C 321.913 -4.92832 -1.11558 0
M  V30 3445 C 324.111 -5.08086 -0.797071 0
M  V30 3446 N 322.093 -6.12619 -0.396358 0
M  V30 3447 C 323.464 -6.1965 -0.208336 0
M  V30 3448 C 325.519 -4.92986 -0.697787 0
M  V30 3449 C 324.222 -7.17763 0.470023 0
M  V30 3450 C 326.248 -5.91391 -0.033171 0
M  V30 3451 C 325.61 -7.02292 0.544599 0
M  V30 3452 H 321.709 -0.683017 -0.380805 0
M  V30 3453 H 324.293 -1.91211 -0.366961 0
M  V30 3454 H 322.464 -2.74857 -2.74423 0
M  V30 3455 H 324.196 -2.9951 -2.72169 0
M  V30 3456 H 320.951 -4.52362 -1.40234 0
M  V30 3457 H 321.375 -6.7698 -0.0515119 0
M  V30 3458 H 326.017 -4.07414 -1.13022 0
M  V30 3459 H 323.735 -8.0291 0.914351 0
M  V30 3460 H 327.321 -5.81784 0.0430009 0
M  V30 3461 H 326.201 -7.77129 1.05073 0
M  V30 3462 N 323.704 0.605807 -1.45491 0
M  V30 3463 C 324.636 1.73031 -1.5031 0
M  V30 3464 C 325.649 1.57968 -0.393687 0
M  V30 3465 O 326.838 1.65817 -0.660839 0
M  V30 3466 C 323.938 3.11049 -1.34543 0
M  V30 3467 C 323.111 3.52334 -2.59189 0
M  V30 3468 C 322.17 4.69323 -2.37954 0
M  V30 3469 O 321.196 4.7635 -3.11575 0
M  V30 3470 N 322.398 5.62705 -1.4263 0
M  V30 3471 H 325.163 1.6936 -2.4726 0
M  V30 3472 H 322.724 0.79114 -1.41254 0
M  V30 3473 H 324.716 3.87071 -1.18144 0
M  V30 3474 H 323.286 3.09217 -0.458623 0
M  V30 3475 H 322.506 2.66256 -2.90691 0
M  V30 3476 H 323.794 3.76677 -3.42041 0
M  V30 3477 H 323.192 5.59744 -0.818758 0
M  V30 3478 H 321.749 6.38252 -1.32202 0
M  V30 3479 N 325.182 1.32811 0.848464 0
M  V30 3480 C 326.407 1.26882 1.6406 0
M  V30 3481 C 326.832 -0.15913 1.87426 0
M  V30 3482 O 326.19 -1.11258 1.43148 0
M  V30 3483 C 326.238 2.03997 2.97351 0
M  V30 3484 O 325.342 1.39201 3.88197 0
M  V30 3485 H 324.683 0.436982 0.499943 0
M  V30 3486 H 327.213 1.75224 1.0563 0
M  V30 3487 H 327.223 2.14403 3.47124 0
M  V30 3488 H 325.898 3.0783 2.79666 0
M  V30 3489 H 324.475 1.37381 3.46671 0
M  V30 3490 N 326.66 -1.06551 1.16123 0
M  V30 3491 C 327.907 -1.79302 0.941126 0
M  V30 3492 C 328.235 -1.87105 -0.531235 0
M  V30 3493 O 327.49 -1.35692 -1.41018 0
M  V30 3494 C 327.789 -3.23911 1.51052 0
M  V30 3495 C 327.455 -3.36193 3.00475 0
M  V30 3496 C 326.117 -3.39252 3.41265 0
M  V30 3497 C 328.469 -3.38326 3.96465 0
M  V30 3498 C 325.797 -3.42057 4.76669 0
M  V30 3499 C 328.149 -3.4267 5.31752 0
M  V30 3500 C 326.813 -3.4401 5.72026 0
M  V30 3501 H 326.083 -0.656111 0.344382 0
M  V30 3502 H 328.73 -1.25325 1.44796 0
M  V30 3503 H 327.035 -3.80723 0.925063 0
M  V30 3504 H 328.732 -3.78793 1.31593 0
M  V30 3505 H 325.322 -3.34516 2.6795 0
M  V30 3506 H 329.506 -3.35176 3.6602 0
M  V30 3507 H 324.762 -3.41398 5.07206 0
M  V30 3508 H 328.936 -3.43268 6.05921 0
M  V30 3509 H 326.563 -3.45937 6.76928 0
M  V30 3510 N 328.138 -0.959301 -1.25041 0
M  V30 3511 C 329.415 -0.533805 -1.88175 0
M  V30 3512 C 329.795 0.988994 -1.865 0
M  V30 3513 O 329.143 1.85677 -1.33177 0
M  V30 3514 C 329.353 -1.11575 -3.30684 0
M  V30 3515 C 330.701 -1.19548 -4.07423 0
M  V30 3516 O 331.725 -1.06765 -3.39823 0
M  V30 3517 O 330.584 -1.39656 -5.28354 0
M  V30 3518 H 327.678 -0.176772 -0.807887 0
M  V30 3519 H 330.224 -1.05303 -1.33076 0
M  V30 3520 H 328.996 -2.15884 -3.26358 0
M  V30 3521 H 328.619 -0.580059 -3.93346 0
M  V30 3522 N 329.616 1.39756 -0.72842 0
M  V30 3523 C 330.548 2.29157 -0.0446202 0
M  V30 3524 C 331.561 1.46484 0.710367 0
M  V30 3525 O 332.75 1.69632 0.55562 0
M  V30 3526 C 329.85 3.24987 0.961071 0
M  V30 3527 C 329.023 4.36572 0.268967 0
M  V30 3528 C 328.082 5.12756 1.18184 0
M  V30 3529 O 327.108 5.6534 0.661794 0
M  V30 3530 N 328.31 5.23331 2.51206 0
M  V30 3531 H 331.075 2.88482 -0.812295 0
M  V30 3532 H 328.636 1.51265 -0.577098 0
M  V30 3533 H 330.628 3.72827 1.57423 0
M  V30 3534 H 329.198 2.66739 1.63 0
M  V30 3535 H 328.418 3.90694 -0.524574 0
M  V30 3536 H 329.706 5.08363 -0.210934 0
M  V30 3537 H 329.104 4.82116 2.9594 0
M  V30 3538 H 327.661 5.74634 3.07634 0
M  V30 3539 N 331.094 0.475555 1.50254 0
M  V30 3540 C 332.34 -0.0780073 2.0265 0
M  V30 3541 C 332.673 -1.38968 1.35652 0
M  V30 3542 O 331.948 -1.8839 0.483691 0
M  V30 3543 C 332.231 -0.257161 3.59181 0
M  V30 3544 C 332.084 1.07585 4.36744 0
M  V30 3545 C 333.403 -1.00965 4.28362 0
M  V30 3546 H 330.522 -0.0268758 0.73651 0
M  V30 3547 H 333.164 0.622015 1.7953 0
M  V30 3548 H 331.314 -0.853412 3.79011 0
M  V30 3549 H 332.986 1.70902 4.28474 0
M  V30 3550 H 331.229 1.6714 4.00308 0
M  V30 3551 H 331.9 0.904088 5.44546 0
M  V30 3552 H 334.376 -0.504214 4.13034 0
M  V30 3553 H 333.252 -1.10381 5.37687 0
M  V30 3554 H 333.513 -2.04731 3.91839 0
M  V30 3555 N 332.573 -1.56217 0.208337 0
M  V30 3556 C 333.82 -1.97949 -0.42692 0
M  V30 3557 C 334.148 -1.09562 -1.60706 0
M  V30 3558 O 333.403 -0.137616 -1.95216 0
M  V30 3559 C 333.702 -3.45441 -0.916797 0
M  V30 3560 C 333.368 -4.50646 0.151391 0
M  V30 3561 C 332.03 -4.79139 0.444867 0
M  V30 3562 C 334.382 -5.13811 0.874492 0
M  V30 3563 C 331.71 -5.68084 1.46619 0
M  V30 3564 C 334.062 -6.03861 1.88506 0
M  V30 3565 C 332.726 -6.30704 2.18559 0
M  V30 3566 H 331.996 -0.724345 -0.156221 0
M  V30 3567 H 334.643 -1.89006 0.308084 0
M  V30 3568 H 332.948 -3.51521 -1.73032 0
M  V30 3569 H 334.645 -3.75094 -1.41794 0
M  V30 3570 H 331.235 -4.28511 -0.0875068 0
M  V30 3571 H 335.419 -4.91879 0.660996 0
M  V30 3572 H 330.675 -5.87151 1.7048 0
M  V30 3573 H 334.849 -6.51861 2.45051 0
M  V30 3574 H 332.476 -6.99424 2.97843 0
M  V30 3575 N 334.051 0.0651679 -1.57465 0
M  V30 3576 C 335.276 0.779605 -1.9219 0
M  V30 3577 C 335.701 1.69988 -0.805333 0
M  V30 3578 O 335.059 1.79685 0.241435 0
M  V30 3579 C 335.107 1.54364 -3.2589 0
M  V30 3580 O 334.211 2.65474 -3.1559 0
M  V30 3581 H 333.552 0.212249 -0.629163 0
M  V30 3582 H 336.082 0.0314294 -2.04576 0
M  V30 3583 H 336.092 1.92146 -3.59922 0
M  V30 3584 H 334.767 0.868457 -4.06732 0
M  V30 3585 H 333.344 2.30501 -2.93128 0
M  V30 3586 N 335.529 1.53961 0.336706 0
M  V30 3587 C 336.945 1.44378 0.680241 0
M  V30 3588 C 337.145 0.606034 1.9217 0
M  V30 3589 O 336.201 0.099688 2.52303 0
M  V30 3590 C 337.514 2.87945 0.8665 0
M  V30 3591 C 339.062 2.97763 0.964682 0
M  V30 3592 C 339.537 4.42453 1.18321 0
M  V30 3593 N 341.028 4.46008 1.25025 0
M  V30 3594 C 341.763 5.55102 1.43697 0
M  V30 3595 N 341.259 6.7419 1.59498 0
M  V30 3596 N 343.052 5.42727 1.463 0
M  V30 3597 H 335.203 2.06918 -0.479455 0
M  V30 3598 H 337.466 0.935634 -0.152619 0
M  V30 3599 H 337.172 3.51691 0.0256937 0
M  V30 3600 H 337.046 3.33293 1.76623 0
M  V30 3601 H 339.433 2.34153 1.796 0
M  V30 3602 H 339.514 2.55766 0.041708 0
M  V30 3603 H 339.158 5.06645 0.356788 0
M  V30 3604 H 339.088 4.82048 2.11985 0
M  V30 3605 H 341.579 3.60196 1.14312 0
M  V30 3606 H 341.892 7.53095 1.734 0
M  V30 3607 H 340.237 6.77123 1.56621 0
M  V30 3608 H 343.428 4.48647 1.33543 0
M  V30 3609 H 343.601 6.27806 1.6051 0
M  V30 3610 N 337.007 -0.598083 1.45811 0
M  V30 3611 C 337.97 -1.69018 1.54808 0
M  V30 3612 C 338.97 -1.55037 0.426652 0
M  V30 3613 O 340.16 -1.59932 0.690456 0
M  V30 3614 C 337.292 -3.0835 1.45371 0
M  V30 3615 H 338.485 -1.62403 2.52121 0
M  V30 3616 H 336.038 -0.814626 1.33392 0
M  V30 3617 H 336.773 -3.20534 0.492793 0
M  V30 3618 H 336.558 -3.19907 2.26721 0
M  V30 3619 H 338.048 -3.8788 1.54721 0
M  V30 3620 N 338.485 -1.33259 -0.841409 0
M  V30 3621 C 339.715 -1.2742 -1.62628 0
M  V30 3622 C 340.123 0.157604 -1.88542 0
M  V30 3623 O 339.466 1.10938 -1.46419 0
M  V30 3624 C 339.528 -1.97797 -3.00194 0
M  V30 3625 C 339.192 -3.47109 -2.97261 0
M  V30 3626 C 340.189 -4.42358 -2.73159 0
M  V30 3627 C 337.874 -3.89247 -3.17478 0
M  V30 3628 C 339.868 -5.77718 -2.69296 0
M  V30 3629 C 337.555 -5.24713 -3.13241 0
M  V30 3630 C 338.553 -6.1876 -2.89181 0
M  V30 3631 O 338.241 -7.51745 -2.84843 0
M  V30 3632 H 337.973 -0.440436 -0.512827 0
M  V30 3633 H 340.527 -1.76153 -1.05638 0
M  V30 3634 H 338.757 -1.43652 -3.59028 0
M  V30 3635 H 340.446 -1.8549 -3.61038 0
M  V30 3636 H 341.212 -4.11127 -2.57294 0
M  V30 3637 H 337.091 -3.16456 -3.35226 0
M  V30 3638 H 340.635 -6.51097 -2.50436 0
M  V30 3639 H 336.532 -5.55569 -3.28654 0
M  V30 3640 H 337.3 -7.61262 -3.00702 0
M  V30 3641 N 339.963 1.05934 -1.16686 0
M  V30 3642 C 340.895 2.13468 -0.834503 0
M  V30 3643 C 341.908 1.62013 0.15984 0
M  V30 3644 O 343.097 1.7838 -0.0654228 0
M  V30 3645 C 340.197 3.3817 -0.222361 0
M  V30 3646 C 339.37 4.18928 -1.25771 0
M  V30 3647 C 338.429 5.21985 -0.664703 0
M  V30 3648 O 337.455 5.53334 -1.33453 0
M  V30 3649 N 338.657 5.77919 0.546834 0
M  V30 3650 H 341.422 2.42578 -1.75999 0
M  V30 3651 H 338.983 1.21967 -1.06469 0
M  V30 3652 H 340.975 4.04266 0.187472 0
M  V30 3653 H 339.545 3.06655 0.606758 0
M  V30 3654 H 338.765 3.48433 -1.84358 0
M  V30 3655 H 340.053 4.69687 -1.95631 0
M  V30 3656 H 339.451 5.54721 1.10912 0
M  V30 3657 H 338.008 6.45573 0.898829 0
M  V30 3658 N 341.441 0.965919 1.2453 0
M  V30 3659 C 342.404 0.499547 2.2369 0
M  V30 3660 C 343.404 -0.40294 1.5567 0
M  V30 3661 O 344.594 -0.19865 1.73064 0
M  V30 3662 C 341.726 -0.276792 3.39774 0
M  V30 3663 H 342.919 1.37613 2.66463 0
M  V30 3664 H 340.472 0.750324 1.37112 0
M  V30 3665 H 341.207 -1.17055 3.02438 0
M  V30 3666 H 340.992 0.370826 3.90343 0
M  V30 3667 H 342.482 -0.592175 4.1338 0
M  V30 3668 N 342.919 -1.39368 0.735821 0
M  V30 3669 C 343.849 -2.33234 0.111506 0
M  V30 3670 C 344.83 -1.53954 -0.723334 0
M  V30 3671 O 346.015 -1.82344 -0.668147 0
M  V30 3672 C 343.145 -3.38057 -0.795917 0
M  V30 3673 C 342.099 -4.2795 -0.065172 0
M  V30 3674 C 341.425 -5.23479 -1.08967 0
M  V30 3675 C 342.725 -5.10741 1.09273 0
M  V30 3676 H 344.419 -2.85692 0.895571 0
M  V30 3677 H 341.965 -1.37364 0.432109 0
M  V30 3678 H 343.918 -4.02675 -1.24221 0
M  V30 3679 H 342.642 -2.8404 -1.61211 0
M  V30 3680 H 341.301 -3.64813 0.361511 0
M  V30 3681 H 340.949 -4.65758 -1.89944 0
M  V30 3682 H 340.649 -5.84472 -0.605489 0
M  V30 3683 H 342.173 -5.90974 -1.53565 0
M  V30 3684 H 343.587 -5.68699 0.724841 0
M  V30 3685 H 341.984 -5.8088 1.50659 0
M  V30 3686 H 343.054 -4.45525 1.91404 0
M  V30 3687 N 344.397 -0.483516 -1.5 0
M  V30 3688 C 345.36 0.292965 -2.2732 0
M  V30 3689 C 346.36 0.909499 -1.32608 0
M  V30 3690 O 347.55 0.776745 -1.55924 0
M  V30 3691 C 344.682 1.41854 -3.09984 0
M  V30 3692 H 345.875 -0.385289 -2.97415 0
M  V30 3693 H 343.428 -0.237942 -1.54478 0
M  V30 3694 H 344.163 2.13148 -2.44414 0
M  V30 3695 H 343.948 0.982114 -3.79601 0
M  V30 3696 H 345.438 1.96597 -3.68429 0
M  V30 3697 N 345.875 1.56104 -0.216619 0
M  V30 3698 C 347.1 2.0301 0.424462 0
M  V30 3699 C 347.525 1.0955 1.52907 0
M  V30 3700 O 346.883 0.0827914 1.81111 0
M  V30 3701 C 346.931 3.4819 0.937883 0
M  V30 3702 O 346.035 3.57865 2.04955 0
M  V30 3703 H 345.376 0.656925 0.0966755 0
M  V30 3704 H 347.906 2.01859 -0.33381 0
M  V30 3705 H 347.916 3.88413 1.24897 0
M  V30 3706 H 346.591 4.15699 0.129387 0
M  V30 3707 H 345.168 3.29527 1.74546 0
M  V30 3708 N 347.353 -0.0568162 1.57498 0
M  V30 3709 C 348.602 -0.752001 1.87157 0
M  V30 3710 C 348.915 -1.77978 0.811375 0
M  V30 3711 O 350.121 -2.52559 0.996293 0
M  V30 3712 C 348.577 -1.38844 3.3204 0
M  V30 3713 C 348.185 -0.398456 4.46225 0
M  V30 3714 C 349.929 -2.06512 3.70882 0
M  V30 3715 C 347.836 -1.04166 5.82154 0
M  V30 3716 H 346.766 -0.28461 0.698222 0
M  V30 3717 H 349.417 -0.00561272 1.83499 0
M  V30 3718 H 347.799 -2.1836 3.30356 0
M  V30 3719 H 348.973 0.367977 4.59328 0
M  V30 3720 H 347.288 0.174592 4.16034 0
M  V30 3721 H 349.885 -2.55437 4.6974 0
M  V30 3722 H 350.228 -2.87117 3.01445 0
M  V30 3723 H 350.761 -1.33808 3.7462 0
M  V30 3724 H 347.5 -0.275614 6.5492 0
M  V30 3725 H 347.02 -1.7786 5.72823 0
M  V30 3726 H 348.699 -1.55715 6.27982 0
M  V30 3727 N 348.832 -1.54138 -0.328536 0
M  V30 3728 C 349.78 -1.83894 -1.42428 0
M  V30 3729 C 350.774 -0.710478 -1.53781 0
M  V30 3730 O 351.98 -0.894062 -1.56226 0
M  V30 3731 H 348.355 -0.582837 -0.475189 0
M  V30 3732 H 350.326 -2.75537 -1.14552 0
M  V30 3733 C 349.075 -2.07866 -2.78724 0
M  V30 3734 H 348.398 -2.94158 -2.7076 0
M  V30 3735 H 349.838 -2.32644 -3.54476 0
M  V30 3736 C 348.297 -0.868689 -3.25508 0
M  V30 3737 O 348.827 -0.0754908 -4.01629 0
M  V30 3738 N 347.033 -0.681711 -2.82491 0
M  V30 3739 H 346.58 -1.32838 -2.20708 0
M  V30 3740 H 346.538 0.126374 -3.14146 0
M  V30 3741 N 350.31 0.590341 -1.46126 0
M  V30 3742 C 351.257 1.69994 -1.56111 0
M  V30 3743 C 352.227 1.61065 -0.405867 0
M  V30 3744 O 353.412 1.8039 -0.621613 0
M  V30 3745 C 350.552 3.08326 -1.55013 0
M  V30 3746 C 349.665 3.27936 -2.81215 0
M  V30 3747 C 348.8 4.56473 -2.71673 0
M  V30 3748 C 347.839 4.694 -3.92849 0
M  V30 3749 N 346.976 5.89254 -3.81738 0
M  V30 3750 H 351.816 1.60797 -2.50895 0
M  V30 3751 H 349.353 0.783799 -1.24479 0
M  V30 3752 H 351.311 3.88383 -1.52362 0
M  V30 3753 H 349.941 3.16439 -0.637667 0
M  V30 3754 H 348.993 2.41536 -2.93879 0
M  V30 3755 H 350.305 3.33357 -3.71045 0
M  V30 3756 H 349.459 5.44748 -2.67085 0
M  V30 3757 H 348.198 4.53477 -1.7947 0
M  V30 3758 H 347.203 3.79544 -3.97777 0
M  V30 3759 H 348.428 4.7418 -4.86138 0
M  V30 3760 H 346.374 5.87271 -2.92317 0
M  V30 3761 H 346.291 5.95911 -4.65217 0
M  V30 3762 H 347.559 6.79981 -3.81112 0
M  V30 3763 N 351.788 1.33704 0.83433 0
M  V30 3764 C 353.199 1.22813 1.4062 0
M  V30 3765 C 353.55 -0.151107 1.95617 0
M  V30 3766 O 352.675 -1.05092 1.89168 0
M  V30 3767 C 353.27 2.22355 2.55624 0
M  V30 3768 C 351.829 2.1529 3.08751 0
M  V30 3769 C 350.976 2.09589 1.8157 0
M  V30 3770 H 353.927 1.45236 0.639702 0
M  V30 3771 H 353.948 1.83391 3.33389 0
M  V30 3772 H 353.46 3.22728 2.15566 0
M  V30 3773 H 351.561 1.18235 3.53343 0
M  V30 3774 H 351.674 3.06038 3.68616 0
M  V30 3775 H 350.038 1.55134 2.02004 0
M  V30 3776 H 350.821 3.11777 1.43701 0
M  V30 3777 N 353.266 -1.05314 1.17247 0
M  V30 3778 C 354.515 -1.77685 0.954521 0
M  V30 3779 C 354.828 -1.88616 -0.518025 0
M  V30 3780 O 356.034 -2.57714 -0.854144 0
M  V30 3781 C 354.49 -3.19402 1.65863 0
M  V30 3782 C 354.098 -3.16605 3.16963 0
M  V30 3783 C 355.842 -3.96237 1.52303 0
M  V30 3784 C 353.749 -4.53103 3.80068 0
M  V30 3785 H 352.679 -0.666 0.353496 0
M  V30 3786 H 355.33 -1.1805 1.40486 0
M  V30 3787 H 353.712 -3.79355 1.13602 0
M  V30 3788 H 354.886 -2.66176 3.76148 0
M  V30 3789 H 353.201 -2.53268 3.30521 0
M  V30 3790 H 355.798 -4.97157 1.96822 0
M  V30 3791 H 356.141 -4.136 0.473401 0
M  V30 3792 H 356.674 -3.42829 2.01775 0
M  V30 3793 H 353.413 -4.40946 4.85023 0
M  V30 3794 H 352.933 -5.03686 3.2567 0
M  V30 3795 H 354.612 -5.22045 3.82202 0
M  V30 3796 N 354.744 -0.972509 -1.24016 0
M  V30 3797 C 355.993 -0.632603 -1.91523 0
M  V30 3798 C 356.306 0.836641 -1.76804 0
M  V30 3799 O 357.512 1.28728 -2.39043 0
M  V30 3800 C 355.968 -1.08082 -3.43287 0
M  V30 3801 C 355.576 -2.57386 -3.66683 0
M  V30 3802 C 357.32 -0.814288 -4.16617 0
M  V30 3803 C 355.227 -2.95915 -5.12043 0
M  V30 3804 H 354.157 -0.232898 -0.717129 0
M  V30 3805 H 356.808 -1.17936 -1.40582 0
M  V30 3806 H 355.19 -0.462339 -3.93292 0
M  V30 3807 H 356.364 -3.24405 -3.27258 0
M  V30 3808 H 354.679 -2.81701 -3.06649 0
M  V30 3809 H 357.276 -1.0781 -5.23718 0
M  V30 3810 H 357.619 0.24955 -4.15551 0
M  V30 3811 H 358.152 -1.39397 -3.72577 0
M  V30 3812 H 354.891 -4.0139 -5.18234 0
M  V30 3813 H 354.411 -2.33584 -5.52448 0
M  V30 3814 H 356.09 -2.86086 -5.80314 0
M  V30 3815 N 356.222 1.38976 -0.743202 0
M  V30 3816 C 357.471 1.99581 -0.291592 0
M  V30 3817 C 357.784 1.59656 1.13001 0
M  V30 3818 O 358.99 2.13157 1.68156 0
M  V30 3819 C 357.446 3.56813 -0.470391 0
M  V30 3820 C 357.054 4.05695 -1.90041 0
M  V30 3821 C 358.798 4.24423 -0.0809709 0
M  V30 3822 C 356.705 5.5553 -2.02832 0
M  V30 3823 H 355.635 0.746615 -0.105272 0
M  V30 3824 H 358.286 1.58872 -0.918258 0
M  V30 3825 H 356.668 3.95359 0.225299 0
M  V30 3826 H 357.842 3.78464 -2.62872 0
M  V30 3827 H 356.157 3.50775 -2.24379 0
M  V30 3828 H 358.754 5.34474 -0.155445 0
M  V30 3829 H 359.097 4.04962 0.96497 0
M  V30 3830 H 359.63 3.9108 -0.728124 0
M  V30 3831 H 356.369 5.79881 -3.05643 0
M  V30 3832 H 355.889 5.84537 -1.34448 0
M  V30 3833 H 357.568 6.21069 -1.81335 0
M  V30 3834 N 357.7 0.491464 1.49741 0
M  V30 3835 C 358.663 -0.280906 2.27472 0
M  V30 3836 C 359.663 -0.902454 1.33088 0
M  V30 3837 O 360.853 -0.768465 1.56334 0
M  V30 3838 C 357.985 -1.40209 3.10732 0
M  V30 3839 H 359.178 0.401056 2.97206 0
M  V30 3840 H 356.731 0.246131 1.5435 0
M  V30 3841 H 357.466 -2.11849 2.45541 0
M  V30 3842 H 357.251 -0.961969 3.80117 0
M  V30 3843 H 358.741 -1.9464 3.69466 0
M  V30 3844 N 359.178 -1.55987 0.224894 0
M  V30 3845 C 360.088 -2.24066 -0.69511 0
M  V30 3846 C 361.104 -1.24939 -1.21104 0
M  V30 3847 O 362.28 -1.5776 -1.25195 0
M  V30 3848 C 359.345 -2.90983 -1.88493 0
M  V30 3849 C 358.406 -4.05462 -1.41064 0
M  V30 3850 C 357.639 -4.69179 -2.54375 0
M  V30 3851 O 357.862 -4.31895 -3.72589 0
M  V30 3852 O 356.796 -5.58108 -2.25386 0
M  V30 3853 H 360.622 -3.03353 -0.145149 0
M  V30 3854 H 358.207 -1.49399 -0.00569476 0
M  V30 3855 H 360.089 -3.33209 -2.57972 0
M  V30 3856 H 358.764 -2.14653 -2.42293 0
M  V30 3857 H 357.671 -3.67798 -0.683774 0
M  V30 3858 H 359.004 -4.83545 -0.918985 0
M  V30 3859 N 360.656 0.0484629 -1.57525 0
M  V30 3860 C 361.903 0.743125 -1.88372 0
M  V30 3861 C 362.231 1.76383 -0.819715 0
M  V30 3862 O 361.486 1.94855 0.181659 0
M  V30 3863 C 361.785 1.46632 -3.25935 0
M  V30 3864 C 361.451 0.583427 -4.4711 0
M  V30 3865 C 360.113 0.340191 -4.79996 0
M  V30 3866 C 362.465 -0.0273345 -5.21193 0
M  V30 3867 C 359.793 -0.522903 -5.84365 0
M  V30 3868 C 362.145 -0.878017 -6.26477 0
M  V30 3869 C 360.809 -1.1309 -6.5785 0
M  V30 3870 H 360.079 0.271929 -0.689301 0
M  V30 3871 H 362.726 0.00336166 -1.915 0
M  V30 3872 H 361.031 2.2789 -3.18706 0
M  V30 3873 H 362.728 2.00902 -3.47044 0
M  V30 3874 H 359.318 0.783151 -4.21384 0
M  V30 3875 H 363.502 0.147654 -4.9608 0
M  V30 3876 H 358.758 -0.727335 -6.07058 0
M  V30 3877 H 362.932 -1.35789 -6.83033 0
M  V30 3878 H 360.559 -1.80144 -7.38547 0
M  V30 3879 N 362.134 1.5431 0.320358 0
M  V30 3880 C 363.097 1.83195 1.3774 0
M  V30 3881 C 364.097 0.703906 1.44575 0
M  V30 3882 O 365.287 0.972214 1.44546 0
M  V30 3883 C 362.419 1.99487 2.76438 0
M  V30 3884 H 363.612 2.77642 1.1338 0
M  V30 3885 H 361.165 1.46076 0.556012 0
M  V30 3886 H 361.9 1.07262 3.06048 0
M  V30 3887 H 361.685 2.81575 2.7287 0
M  V30 3888 H 363.175 2.23271 3.52902 0
M  V30 3889 N 363.613 -0.582584 1.46437 0
M  V30 3890 C 364.838 -1.37168 1.55563 0
M  V30 3891 C 365.263 -1.87061 0.19743 0
M  V30 3892 O 364.621 -1.61572 -0.822451 0
M  V30 3893 C 364.669 -2.53511 2.56446 0
M  V30 3894 O 363.773 -3.54953 2.09958 0
M  V30 3895 H 363.114 -0.408494 0.523477 0
M  V30 3896 H 365.644 -0.706646 1.9201 0
M  V30 3897 H 365.654 -3.00426 2.76058 0
M  V30 3898 H 364.329 -2.16549 3.55076 0
M  V30 3899 H 362.906 -3.14516 2.00334 0
M  V30 3900 N 365.091 -1.34144 -0.827227 0
M  V30 3901 C 366.054 -1.25264 -1.91942 0
M  V30 3902 C 367.054 -0.168866 -1.59911 0
M  V30 3903 O 368.244 -0.421198 -1.69031 0
M  V30 3904 C 365.376 -0.932952 -3.27885 0
M  V30 3905 H 366.569 -2.22357 -2.0124 0
M  V30 3906 H 364.122 -1.1837 -1.0207 0
M  V30 3907 H 364.857 0.0349917 -3.24281 0
M  V30 3908 H 364.642 -1.71682 -3.52516 0
M  V30 3909 H 366.132 -0.895874 -4.07877 0
M  V30 3910 N 366.569 1.04691 -1.17803 0
M  V30 3911 C 367.479 2.16057 -0.914151 0
M  V30 3912 C 368.495 1.73589 0.119503 0
M  V30 3913 O 369.671 2.01308 -0.0609468 0
M  V30 3914 C 366.736 3.4394 -0.436603 0
M  V30 3915 C 365.797 4.00825 -1.53746 0
M  V30 3916 C 365.03 5.22604 -1.0826 0
M  V30 3917 O 365.253 5.70367 0.0612244 0
M  V30 3918 O 364.187 5.7186 -1.87775 0
M  V30 3919 H 368.013 2.41169 -1.84584 0
M  V30 3920 H 365.598 1.1453 -0.959334 0
M  V30 3921 H 367.48 4.21024 -0.178057 0
M  V30 3922 H 366.155 3.20316 0.466869 0
M  V30 3923 H 365.062 3.25158 -1.84995 0
M  V30 3924 H 366.395 4.28778 -2.41683 0
M  V30 3925 N 368.047 0.979072 1.23499 0
M  V30 3926 C 369.296 0.642751 1.91185 0
M  V30 3927 C 369.609 -0.827253 1.77245 0
M  V30 3928 O 370.815 -1.27458 2.39722 0
M  V30 3929 C 369.271 1.09901 3.42709 0
M  V30 3930 C 368.879 2.59327 3.65313 0
M  V30 3931 C 370.623 0.836371 4.16179 0
M  V30 3932 C 368.53 2.98627 5.10467 0
M  V30 3933 H 367.46 0.236698 0.715884 0
M  V30 3934 H 370.111 1.1868 1.39955 0
M  V30 3935 H 368.493 0.48319 3.93041 0
M  V30 3936 H 369.667 3.26136 3.25533 0
M  V30 3937 H 367.982 2.83323 3.05151 0
M  V30 3938 H 370.579 1.10586 5.23139 0
M  V30 3939 H 370.922 -0.227509 4.15678 0
M  V30 3940 H 371.455 1.41371 3.71832 0
M  V30 3941 H 368.194 4.04133 5.16098 0
M  V30 3942 H 367.714 2.3651 5.51201 0
M  V30 3943 H 369.393 2.89159 5.78788 0
M  V30 3944 N 369.525 -1.3858 0.750561 0
M  V30 3945 C 370.773 -1.99789 0.30477 0
M  V30 3946 C 371.094 -1.59874 -1.11649 0
M  V30 3947 O 370.364 -0.85417 -1.76297 0
M  V30 3948 H 368.944 -0.738902 0.109694 0
M  V30 3949 H 371.606 -1.69391 0.963983 0
M  V30 3950 H 370.702 -3.09952 0.365499 0
M  V30 3951 N 371.003 -0.499398 -1.49478 0
M  V30 3952 C 372.251 0.0455996 -2.02049 0
M  V30 3953 C 372.572 1.37633 -1.38138 0
M  V30 3954 O 371.842 1.8842 -0.536166 0
M  V30 3955 H 370.422 0.0198416 -0.746736 0
M  V30 3956 H 373.084 -0.656274 -1.83519 0
M  V30 3957 H 372.18 0.176445 -3.11601 0
M  V30 3958 N 372.481 1.55866 -0.233164 0
M  V30 3959 C 373.429 2.22176 0.68851 0
M  V30 3960 C 374.423 1.20487 1.19076 0
M  V30 3961 O 375.629 1.38536 1.14925 0
M  V30 3962 H 372.004 0.712511 0.240483 0
M  V30 3963 H 373.975 2.98212 0.105935 0
M  V30 3964 C 372.724 2.92446 1.88071 0
M  V30 3965 H 372.047 3.70458 1.50337 0
M  V30 3966 H 373.487 3.42226 2.50314 0
M  V30 3967 C 371.946 1.95555 2.74335 0
M  V30 3968 O 372.476 1.47986 3.73447 0
M  V30 3969 N 370.682 1.62953 2.40613 0
M  V30 3970 H 370.229 2.01831 1.60069 0
M  V30 3971 H 370.187 0.983886 2.98609 0
M  V30 3972 N 373.959 -0.0401083 1.57549 0
M  V30 3973 C 374.906 -1.04413 2.05831 0
M  V30 3974 C 375.876 -1.36585 0.945184 0
M  V30 3975 O 377.061 -1.47112 1.21502 0
M  V30 3976 C 374.201 -2.34336 2.53339 0
M  V30 3977 C 373.314 -2.08419 3.78398 0
M  V30 3978 C 372.449 -3.32133 4.14561 0
M  V30 3979 C 371.488 -3.01721 5.3257 0
M  V30 3980 N 370.625 -4.17855 5.64218 0
M  V30 3981 H 375.465 -0.625442 2.91363 0
M  V30 3982 H 373.002 -0.297218 1.44066 0
M  V30 3983 H 374.96 -3.10234 2.78946 0
M  V30 3984 H 373.59 -2.73948 1.7074 0
M  V30 3985 H 372.642 -1.23069 3.59942 0
M  V30 3986 H 373.954 -1.81978 4.64419 0
M  V30 3987 H 373.108 -4.16406 4.41238 0
M  V30 3988 H 371.847 -3.61678 3.2717 0
M  V30 3989 H 370.852 -2.15849 5.05657 0
M  V30 3990 H 372.077 -2.73466 6.21605 0
M  V30 3991 H 370.023 -4.47372 4.79786 0
M  V30 3992 H 369.94 -3.94798 6.44725 0
M  V30 3993 H 371.208 -5.03033 5.95465 0
M  V30 3994 N 375.437 -1.54477 -0.31217 0
M  V30 3995 C 376.4 -1.83923 -1.36766 0
M  V30 3996 C 377.4 -0.711563 -1.44199 0
M  V30 3997 O 378.59 -0.979866 -1.44029 0
M  V30 3998 C 375.722 -2.0095 -2.75376 0
M  V30 3999 H 376.915 -2.78239 -1.11906 0
M  V30 4000 H 374.468 -1.46369 -0.548257 0
M  V30 4001 H 375.203 -1.08883 -3.05475 0
M  V30 4002 H 374.988 -2.83018 -2.71373 0
M  V30 4003 H 376.478 -2.2514 -3.51713 0
M  V30 4004 N 376.915 0.57481 -1.46744 0
M  V30 4005 C 378.331 0.898981 -1.31873 0
M  V30 4006 C 378.531 1.99313 -0.29605 0
M  V30 4007 O 377.587 2.50728 0.298621 0
M  V30 4008 C 378.9 1.30886 -2.7072 0
M  V30 4009 C 380.448 1.42127 -2.78871 0
M  V30 4010 C 380.923 1.86478 -4.18318 0
M  V30 4011 N 382.414 1.93658 -4.20774 0
M  V30 4012 C 383.149 2.29267 -5.2557 0
M  V30 4013 N 382.645 2.63612 -6.40688 0
M  V30 4014 N 384.438 2.29889 -5.1294 0
M  V30 4015 H 376.589 -0.147839 -2.11885 0
M  V30 4016 H 378.852 -0.00347013 -0.947994 0
M  V30 4017 H 378.558 0.578853 -3.46904 0
M  V30 4018 H 378.432 2.26874 -3.01343 0
M  V30 4019 H 380.819 2.14213 -2.0297 0
M  V30 4020 H 380.9 0.443705 -2.51922 0
M  V30 4021 H 380.544 1.14968 -4.94717 0
M  V30 4022 H 380.474 2.85207 -4.42679 0
M  V30 4023 H 382.965 1.69574 -3.37718 0
M  V30 4024 H 383.278 2.89759 -7.16421 0
M  V30 4025 H 381.623 2.61232 -6.44036 0
M  V30 4026 H 384.814 2.02485 -4.22039 0
M  V30 4027 H 384.987 2.57312 -5.94722 0
M  V30 4028 N 378.394 1.34581 0.820102 0
M  V30 4029 C 379.64 1.28294 1.57836 0
M  V30 4030 C 379.995 -0.145099 1.91852 0
M  V30 4031 O 379.288 -1.09209 1.57429 0
M  V30 4032 C 379.482 2.10997 2.8847 0
M  V30 4033 C 379.311 3.61698 2.67216 0
M  V30 4034 C 378.081 4.3097 2.63805 0
M  V30 4035 C 380.279 4.55638 2.38534 0
M  V30 4036 N 378.261 5.67502 2.34126 0
M  V30 4037 C 379.632 5.80194 2.18574 0
M  V30 4038 C 381.687 4.44523 2.24285 0
M  V30 4039 C 380.39 6.94886 1.8581 0
M  V30 4040 C 382.416 5.5905 1.92916 0
M  V30 4041 C 381.778 6.82627 1.73782 0
M  V30 4042 H 377.877 0.524697 0.579842 0
M  V30 4043 H 380.461 1.69323 0.961139 0
M  V30 4044 H 378.632 1.7226 3.48111 0
M  V30 4045 H 380.364 1.96333 3.53886 0
M  V30 4046 H 377.119 3.83438 2.77978 0
M  V30 4047 H 377.543 6.39525 2.22118 0
M  V30 4048 H 382.185 3.49599 2.37782 0
M  V30 4049 H 379.903 7.89789 1.7105 0
M  V30 4050 H 383.489 5.52396 1.82619 0
M  V30 4051 H 382.369 7.69748 1.49861 0
M  V30 4052 N 379.872 -1.04064 1.18357 0
M  V30 4053 C 381.121 -1.76662 0.973313 0
M  V30 4054 C 381.434 -1.89154 -0.497991 0
M  V30 4055 O 382.64 -2.58606 -0.826762 0
M  V30 4056 C 381.096 -3.17624 1.69242 0
M  V30 4057 C 380.704 -3.13225 3.20303 0
M  V30 4058 C 382.448 -3.946 1.56497 0
M  V30 4059 C 380.355 -4.49046 3.84853 0
M  V30 4060 H 379.285 -0.662214 0.36054 0
M  V30 4061 H 381.936 -1.16553 1.41731 0
M  V30 4062 H 380.318 -3.78129 1.1762 0
M  V30 4063 H 381.492 -2.62172 3.78949 0
M  V30 4064 H 379.807 -2.49749 3.33189 0
M  V30 4065 H 382.404 -4.95042 2.02084 0
M  V30 4066 H 382.747 -4.13074 0.517243 0
M  V30 4067 H 383.28 -3.4067 2.05399 0
M  V30 4068 H 380.019 -4.35777 4.89672 0
M  V30 4069 H 379.539 -5.00203 3.30994 0
M  V30 4070 H 381.218 -5.17961 3.87718 0
M  V30 4071 N 381.35 -0.985608 -1.22978 0
M  V30 4072 C 382.578 -0.675582 -1.95559 0
M  V30 4073 C 382.993 0.758413 -1.72897 0
M  V30 4074 O 382.35 1.51094 -1.02357 0
M  V30 4075 C 382.401 -0.96293 -3.48439 0
M  V30 4076 O 382.122 -2.34057 -3.70336 0
M  V30 4077 C 383.623 -0.669585 -4.38214 0
M  V30 4078 H 380.843 -0.250523 -0.622478 0
M  V30 4079 H 383.387 -1.3184 -1.56328 0
M  V30 4080 H 381.542 -0.366033 -3.85667 0
M  V30 4081 H 381.956 -2.43424 -4.64591 0
M  V30 4082 H 383.43 -0.920967 -5.44263 0
M  V30 4083 H 383.907 0.396383 -4.37408 0
M  V30 4084 H 384.513 -1.2472 -4.06602 0
M  V30 4085 N 382.828 1.3818 -0.7579 0
M  V30 4086 C 383.738 2.3421 -0.135247 0
M  V30 4087 C 384.754 1.59487 0.695683 0
M  V30 4088 O 385.93 1.91657 0.618832 0
M  V30 4089 C 382.995 3.3862 0.744139 0
M  V30 4090 C 382.056 4.2918 -0.101658 0
M  V30 4091 C 381.289 5.28603 0.735851 0
M  V30 4092 O 381.512 5.35166 1.97366 0
M  V30 4093 O 380.446 6.01707 0.152372 0
M  V30 4094 H 384.272 2.8916 -0.928436 0
M  V30 4095 H 381.857 1.40101 -0.518855 0
M  V30 4096 H 383.739 4.02539 1.2466 0
M  V30 4097 H 382.414 2.86019 1.51575 0
M  V30 4098 H 381.321 3.68407 -0.650167 0
M  V30 4099 H 382.654 4.85048 -0.836024 0
M  V30 4100 N 384.306 0.507319 1.49211 0
M  V30 4101 C 385.269 -0.256763 2.27757 0
M  V30 4102 C 386.269 -0.888287 1.34038 0
M  V30 4103 O 387.459 -0.751841 1.5714 0
M  V30 4104 C 384.591 -1.36905 3.12202 0
M  V30 4105 H 385.784 0.432557 2.96764 0
M  V30 4106 H 383.337 0.262488 1.5408 0
M  V30 4107 H 384.072 -2.09233 2.47775 0
M  V30 4108 H 383.857 -0.921599 3.81115 0
M  V30 4109 H 385.347 -1.9071 3.7151 0
M  V30 4110 N 385.784 -1.5574 0.241426 0
M  V30 4111 C 387.014 -2.02913 -0.38857 0
M  V30 4112 C 387.422 -1.12014 -1.52478 0
M  V30 4113 O 386.765 -0.125903 -1.83268 0
M  V30 4114 C 386.827 -3.4636 -0.963075 0
M  V30 4115 C 386.491 -4.56982 0.0401916 0
M  V30 4116 C 387.488 -5.12941 0.847766 0
M  V30 4117 C 385.173 -5.0203 0.164699 0
M  V30 4118 C 387.167 -6.12437 1.76636 0
M  V30 4119 C 384.854 -6.01358 1.0868 0
M  V30 4120 C 385.852 -6.5644 1.88616 0
M  V30 4121 O 385.54 -7.53831 2.79273 0
M  V30 4122 H 385.272 -0.668983 -0.0971452 0
M  V30 4123 H 387.826 -2.02198 0.361248 0
M  V30 4124 H 386.056 -3.44206 -1.76235 0
M  V30 4125 H 387.745 -3.77065 -1.50257 0
M  V30 4126 H 388.511 -4.78974 0.762133 0
M  V30 4127 H 384.39 -4.58824 -0.447411 0
M  V30 4128 H 387.934 -6.55355 2.39071 0
M  V30 4129 H 383.831 -6.34746 1.17338 0
M  V30 4130 H 384.599 -7.71428 2.73572 0
M  V30 4131 N 387.262 0.0317525 -1.57568 0
M  V30 4132 C 388.21 1.05165 -2.07468 0
M  V30 4133 C 389.204 1.3761 -0.98792 0
M  V30 4134 O 390.41 1.36546 -1.17282 0
M  V30 4135 H 386.785 0.35666 -0.66204 0
M  V30 4136 H 388.756 0.604958 -2.92203 0
M  V30 4137 C 387.505 2.34488 -2.56731 0
M  V30 4138 H 386.828 2.10383 -3.39969 0
M  V30 4139 H 388.268 3.04203 -2.95358 0
M  V30 4140 C 386.727 3.03266 -1.46736 0
M  V30 4141 O 387.257 3.92988 -0.832069 0
M  V30 4142 N 385.463 2.6455 -1.20256 0
M  V30 4143 H 385.01 1.91674 -1.72102 0
M  V30 4144 H 384.968 3.10886 -0.468737 0
M  V30 4145 N 388.74 1.54641 0.303973 0
M  V30 4146 C 389.965 1.78092 1.06292 0
M  V30 4147 C 390.39 0.537342 1.80262 0
M  V30 4148 O 389.748 -0.511993 1.7392 0
M  V30 4149 C 389.796 2.98612 2.02147 0
M  V30 4150 O 388.9 2.71528 3.10397 0
M  V30 4151 H 388.241 0.589548 0.305497 0
M  V30 4152 H 390.771 2.01716 0.3423 0
M  V30 4153 H 390.781 3.265 2.44667 0
M  V30 4154 H 389.456 3.88785 1.47714 0
M  V30 4155 H 388.033 2.54648 2.72413 0
M  V30 4156 N 390.218 -0.567019 1.47046 0
M  V30 4157 C 391.467 -1.32091 1.5243 0
M  V30 4158 C 391.78 -1.94704 0.187021 0
M  V30 4159 O 392.986 -2.7124 0.118771 0
M  V30 4160 C 391.442 -2.39479 2.68659 0
M  V30 4161 C 391.05 -1.831 4.08874 0
M  V30 4162 C 392.794 -3.16111 2.83327 0
M  V30 4163 C 390.701 -2.8821 5.16419 0
M  V30 4164 H 389.631 -0.496629 0.56734 0
M  V30 4165 H 392.282 -0.603354 1.73297 0
M  V30 4166 H 390.664 -3.14105 2.41152 0
M  V30 4167 H 391.838 -1.14913 4.46242 0
M  V30 4168 H 390.153 -1.19085 3.99008 0
M  V30 4169 H 392.75 -3.94585 3.60842 0
M  V30 4170 H 393.093 -3.69686 1.91411 0
M  V30 4171 H 393.626 -2.48595 3.10556 0
M  V30 4172 H 390.365 -2.39504 6.10179 0
M  V30 4173 H 389.885 -3.54839 4.8358 0
M  V30 4174 H 391.564 -3.51881 5.42945 0
M  V30 4175 N 391.696 -1.35014 -0.812953 0
M  V30 4176 C 393.112 -1.14914 -1.10757 0
M  V30 4177 C 393.312 0.0426818 -2.01455 0
M  V30 4178 O 392.368 0.715212 -2.42159 0
M  V30 4179 C 393.681 -2.44911 -1.74468 0
M  V30 4180 C 395.229 -2.5106 -1.86917 0
M  V30 4181 C 395.704 -3.81085 -2.54044 0
M  V30 4182 N 397.195 -3.82301 -2.61535 0
M  V30 4183 C 397.93 -4.79634 -3.14227 0
M  V30 4184 N 397.426 -5.87353 -3.67407 0
M  V30 4185 N 399.219 -4.67078 -3.12721 0
M  V30 4186 H 391.37 -2.1136 -0.20989 0
M  V30 4187 H 393.633 -0.935128 -0.155692 0
M  V30 4188 H 393.339 -3.32267 -1.15289 0
M  V30 4189 H 393.213 -2.58989 -2.74234 0
M  V30 4190 H 395.6 -1.64137 -2.45241 0
M  V30 4191 H 395.681 -2.40901 -0.860242 0
M  V30 4192 H 395.325 -4.68402 -1.96372 0
M  V30 4193 H 395.255 -3.88529 -3.55461 0
M  V30 4194 H 397.746 -3.04465 -2.23851 0
M  V30 4195 H 398.059 -6.57624 -4.05894 0
M  V30 4196 H 396.404 -5.91054 -3.65623 0
M  V30 4197 H 399.595 -3.82067 -2.70449 0
M  V30 4198 H 399.768 -5.43098 -3.53481 0
M  V30 4199 N 393.175 1.03435 -1.18907 0
M  V30 4200 C 394.403 1.80381 -1.01342 0
M  V30 4201 C 394.818 1.83649 0.438005 0
M  V30 4202 O 394.175 1.27655 1.30424 0
M  V30 4203 C 394.226 3.25689 -1.56873 0
M  V30 4204 O 393.947 3.22673 -2.96334 0
M  V30 4205 C 395.448 4.19255 -1.44014 0
M  V30 4206 H 392.668 0.56784 -0.35749 0
M  V30 4207 H 395.212 1.30317 -1.576 0
M  V30 4208 H 393.367 3.72962 -1.04777 0
M  V30 4209 H 393.781 4.13748 -3.22355 0
M  V30 4210 H 395.255 5.19123 -1.87657 0
M  V30 4211 H 395.732 4.37467 -0.389815 0
M  V30 4212 H 396.338 3.77851 -1.95214 0
M  V30 4213 N 394.653 0.992116 1.22453 0
M  V30 4214 C 395.878 0.685644 1.95739 0
M  V30 4215 C 396.303 -0.743 1.72804 0
M  V30 4216 O 395.661 -1.50778 1.00676 0
M  V30 4217 C 395.709 0.996293 3.46564 0
M  V30 4218 O 394.813 0.0945512 4.12292 0
M  V30 4219 H 394.154 0.256694 0.612376 0
M  V30 4220 H 396.684 1.32888 1.5557 0
M  V30 4221 H 396.694 0.93781 3.97076 0
M  V30 4222 H 395.369 2.03733 3.62582 0
M  V30 4223 H 393.946 0.208451 3.72317 0
M  V30 4224 N 396.131 -1.37776 0.765217 0
M  V30 4225 C 397.361 -2.03828 0.337277 0
M  V30 4226 C 397.769 -1.57841 -1.04321 0
M  V30 4227 O 397.112 -0.752043 -1.67601 0
M  V30 4228 C 397.174 -3.58292 0.294407 0
M  V30 4229 C 396.838 -4.27384 1.61838 0
M  V30 4230 C 397.835 -4.51956 2.56967 0
M  V30 4231 C 395.52 -4.65345 1.89102 0
M  V30 4232 C 397.514 -5.13536 3.77571 0
M  V30 4233 C 395.201 -5.26647 3.09978 0
M  V30 4234 C 396.199 -5.50679 4.04032 0
M  V30 4235 O 395.887 -6.10702 5.2278 0
M  V30 4236 H 395.619 -0.661292 0.140248 0
M  V30 4237 H 398.173 -1.77222 1.03834 0
M  V30 4238 H 396.403 -3.83918 -0.462983 0
M  V30 4239 H 398.092 -4.05763 -0.105581 0
M  V30 4240 H 398.858 -4.23048 2.37183 0
M  V30 4241 H 394.737 -4.45978 1.16725 0
M  V30 4242 H 398.281 -5.3221 4.50997 0
M  V30 4243 H 394.178 -5.54979 3.29649 0
M  V30 4244 H 394.946 -6.29183 5.23517 0
M  V30 4245 N 397.609 -0.515225 -1.4894 0
M  V30 4246 C 398.557 0.269115 -2.31038 0
M  V30 4247 C 399.551 0.949443 -1.40292 0
M  V30 4248 O 400.757 0.87551 -1.57273 0
M  V30 4249 H 397.132 0.10565 -0.744542 0
M  V30 4250 H 399.103 -0.443096 -2.95092 0
M  V30 4251 C 397.852 1.31213 -3.21991 0
M  V30 4252 H 397.175 0.798034 -3.91754 0
M  V30 4253 H 398.615 1.83263 -3.82349 0
M  V30 4254 C 397.074 2.33791 -2.42576 0
M  V30 4255 O 397.604 3.3995 -2.14003 0
M  V30 4256 N 395.81 2.06625 -2.0434 0
M  V30 4257 H 395.357 1.20314 -2.27777 0
M  V30 4258 H 395.315 2.75483 -1.51514 0
M  V30 4259 N 399.087 1.5561 -0.249682 0
M  V30 4260 C 400.034 2.21496 0.648694 0
M  V30 4261 C 401.004 1.17977 1.16921 0
M  V30 4262 O 402.189 1.46434 1.22318 0
M  V30 4263 C 399.329 2.92039 1.83868 0
M  V30 4264 C 398.442 4.10219 1.35442 0
M  V30 4265 C 397.577 4.6847 2.50419 0
M  V30 4266 C 396.616 5.78893 1.98869 0
M  V30 4267 N 395.753 6.31315 3.07223 0
M  V30 4268 H 400.593 2.97892 0.0801582 0
M  V30 4269 H 398.13 1.47074 0.0278031 0
M  V30 4270 H 400.088 3.31138 2.53778 0
M  V30 4271 H 398.718 2.18111 2.37965 0
M  V30 4272 H 397.77 3.76413 0.54928 0
M  V30 4273 H 399.082 4.89927 0.936649 0
M  V30 4274 H 398.236 5.10158 3.28366 0
M  V30 4275 H 396.975 3.87984 2.95499 0
M  V30 4276 H 395.98 5.3668 1.19393 0
M  V30 4277 H 397.205 6.61232 1.54755 0
M  V30 4278 H 395.151 5.53733 3.51732 0
M  V30 4279 H 395.068 7.06224 2.69784 0
M  V30 4280 H 396.336 6.77662 3.8522 0
M  V30 4281 N 400.565 -0.0233959 1.57583 0
M  V30 4282 C 401.811 -0.714119 1.89811 0
M  V30 4283 C 402.144 -1.74702 0.848113 0
M  V30 4284 O 401.419 -1.94023 -0.136135 0
M  V30 4285 C 401.702 -1.37853 3.32669 0
M  V30 4286 C 401.555 -0.358764 4.48367 0
M  V30 4287 C 402.874 -2.31101 3.7454 0
M  V30 4288 H 399.993 -0.25814 0.690314 0
M  V30 4289 H 402.635 0.0230927 1.89986 0
M  V30 4290 H 400.785 -2.00689 3.3265 0
M  V30 4291 H 402.457 0.268115 4.6052 0
M  V30 4292 H 400.7 0.321387 4.32608 0
M  V30 4293 H 401.371 -0.862242 5.45224 0
M  V30 4294 H 403.847 -1.78304 3.75961 0
M  V30 4295 H 402.723 -2.74567 4.75294 0
M  V30 4296 H 402.984 -3.18018 3.0711 0
M  V30 4297 N 402.043 -1.548 -0.295768 0
M  V30 4298 C 403.292 -1.73538 -1.02798 0
M  V30 4299 C 403.605 -0.531159 -1.8825 0
M  V30 4300 O 404.811 -0.600458 -2.64777 0
M  V30 4301 C 403.267 -3.07051 -1.87744 0
M  V30 4302 C 402.875 -4.34968 -1.07269 0
M  V30 4303 C 404.619 -3.35146 -2.60533 0
M  V30 4304 C 402.526 -5.5953 -1.91521 0
M  V30 4305 H 401.456 -0.646794 -0.387522 0
M  V30 4306 H 404.107 -1.81278 -0.284718 0
M  V30 4307 H 402.489 -2.93289 -2.66078 0
M  V30 4308 H 403.663 -4.5958 -0.335117 0
M  V30 4309 H 401.978 -4.13847 -0.460384 0
M  V30 4310 H 404.575 -4.2541 -3.23929 0
M  V30 4311 H 404.918 -2.54255 -3.29636 0
M  V30 4312 H 405.451 -3.49902 -1.89244 0
M  V30 4313 H 402.19 -6.43103 -1.26878 0
M  V30 4314 H 401.71 -5.39096 -2.62937 0
M  V30 4315 H 403.389 -5.96982 -2.49442 0
M  V30 4316 N 403.521 0.559213 -1.47345 0
M  V30 4317 C 404.484 1.64854 -1.59235 0
M  V30 4318 C 405.484 1.53851 -0.467607 0
M  V30 4319 O 406.674 1.58045 -0.732617 0
M  V30 4320 C 403.806 3.04388 -1.53496 0
M  V30 4321 H 404.999 1.55662 -2.56339 0
M  V30 4322 H 402.552 0.778973 -1.35505 0
M  V30 4323 H 403.287 3.19115 -0.577604 0
M  V30 4324 H 403.072 3.13783 -2.35123 0
M  V30 4325 H 404.562 3.83642 -1.6495 0
M  V30 4326 N 404.999 1.35443 0.805782 0
M  V30 4327 C 405.962 1.28301 1.89925 0
M  V30 4328 C 406.962 0.194285 1.59622 0
M  V30 4329 O 408.152 0.448036 1.6834 0
M  V30 4330 C 405.284 0.984997 3.2636 0
M  V30 4331 H 406.477 2.2553 1.97677 0
M  V30 4332 H 404.03 1.19979 1.00173 0
M  V30 4333 H 404.765 0.016603 3.24296 0
M  V30 4334 H 404.55 1.77269 3.4974 0
M  V30 4335 H 406.04 0.960651 4.064 0
M  V30 4336 N 406.477 -1.02803 1.19454 0
M  V30 4337 C 407.723 -1.76478 0.999171 0
M  V30 4338 C 408.056 -1.88456 -0.468828 0
M  V30 4339 O 407.331 -1.40198 -1.34814 0
M  V30 4340 C 407.614 -3.19044 1.66981 0
M  V30 4341 C 407.467 -3.14932 3.21151 0
M  V30 4342 C 408.786 -4.17456 1.39349 0
M  V30 4343 H 405.905 -0.640614 0.364393 0
M  V30 4344 H 408.547 -1.20005 1.47305 0
M  V30 4345 H 406.697 -3.67263 1.2669 0
M  V30 4346 H 408.369 -2.74605 3.70661 0
M  V30 4347 H 406.612 -2.52625 3.52652 0
M  V30 4348 H 407.283 -4.1566 3.63223 0
M  V30 4349 H 409.759 -3.77842 1.74283 0
M  V30 4350 H 408.635 -5.154 1.88823 0
M  V30 4351 H 408.896 -4.40949 0.318813 0
M  V30 4352 N 407.956 -0.998596 -1.21925 0
M  V30 4353 C 409.202 -0.688337 -1.91399 0
M  V30 4354 C 409.557 0.771805 -1.76241 0
M  V30 4355 O 408.85 1.55153 -1.1242 0
M  V30 4356 C 409.044 -1.03648 -3.42041 0
M  V30 4357 C 408.873 -2.52892 -3.71855 0
M  V30 4358 C 407.643 -3.19389 -3.91559 0
M  V30 4359 C 409.841 -3.5103 -3.75875 0
M  V30 4360 N 407.823 -4.5805 -4.08734 0
M  V30 4361 C 409.194 -4.75174 -3.98259 0
M  V30 4362 C 411.249 -3.45257 -3.58751 0
M  V30 4363 C 409.952 -5.94247 -4.05294 0
M  V30 4364 C 411.978 -4.63712 -3.67049 0
M  V30 4365 C 411.34 -5.86658 -3.89887 0
M  V30 4366 H 407.439 -0.303251 -0.720807 0
M  V30 4367 H 410.023 -1.27977 -1.46731 0
M  V30 4368 H 408.194 -0.473569 -3.85502 0
M  V30 4369 H 409.926 -0.681619 -3.98919 0
M  V30 4370 H 406.681 -2.69846 -3.89205 0
M  V30 4371 H 407.105 -5.29989 -4.21237 0
M  V30 4372 H 411.747 -2.51215 -3.40075 0
M  V30 4373 H 409.465 -6.88687 -4.22772 0
M  V30 4374 H 413.051 -4.6084 -3.5513 0
M  V30 4375 H 411.931 -6.76786 -3.96144 0
M  V30 4376 N 409.434 1.37368 -0.772513 0
M  V30 4377 C 410.681 1.99673 -0.337182 0
M  V30 4378 C 411.009 1.61324 1.0865 0
M  V30 4379 O 410.264 0.851377 1.7621 0
M  V30 4380 C 410.563 3.54817 -0.428876 0
M  V30 4381 C 410.229 4.12936 -1.81092 0
M  V30 4382 C 408.891 4.28523 -2.1891 0
M  V30 4383 C 411.243 4.44801 -2.71664 0
M  V30 4384 C 408.571 4.73277 -3.46735 0
M  V30 4385 C 410.923 4.90981 -3.98899 0
M  V30 4386 C 409.587 5.04773 -4.36761 0
M  V30 4387 H 408.857 0.730656 -0.123384 0
M  V30 4388 H 411.504 1.64124 -0.986686 0
M  V30 4389 H 409.809 3.90618 0.304167 0
M  V30 4390 H 411.506 4.00933 -0.0733334 0
M  V30 4391 H 408.096 4.01233 -1.50699 0
M  V30 4392 H 412.28 4.32344 -2.43706 0
M  V30 4393 H 407.536 4.82142 -3.75964 0
M  V30 4394 H 411.71 5.14603 -4.69208 0
M  V30 4395 H 409.337 5.39211 -5.35868 0
M  V30 4396 N 410.912 0.523116 1.48665 0
M  V30 4397 C 411.862 -0.263106 2.26477 0
M  V30 4398 C 412.846 -0.916005 1.32281 0
M  V30 4399 O 414.038 -0.819946 1.56863 0
M  V30 4400 C 411.167 -1.31361 3.17174 0
M  V30 4401 C 410.253 -0.665849 4.1884 0
M  V30 4402 N 410.644 0.244434 5.05209 0
M  V30 4403 C 408.942 -0.923863 4.36326 0
M  V30 4404 C 409.643 0.617443 5.78414 0
M  V30 4405 N 408.619 -0.0198686 5.43596 0
M  V30 4406 H 412.421 0.437295 2.90629 0
M  V30 4407 H 409.935 0.340675 1.58787 0
M  V30 4408 H 411.932 -1.89052 3.71571 0
M  V30 4409 H 410.592 -2.01546 2.54576 0
M  V30 4410 H 411.603 0.616621 5.14216 0
M  V30 4411 H 408.28 -1.6168 3.84923 0
M  V30 4412 H 409.67 1.36346 6.57921 0
M  V30 4413 N 412.39 -1.55475 0.257931 0
M  V30 4414 C 413.3 -2.2549 -0.647425 0
M  V30 4415 C 414.316 -1.2748 -1.18427 0
M  V30 4416 O 415.492 -1.6038 -1.2182 0
M  V30 4417 C 412.557 -2.94916 -1.82278 0
M  V30 4418 C 411.618 -4.08363 -1.32432 0
M  V30 4419 C 410.851 -4.74469 -2.44366 0
M  V30 4420 O 411.074 -4.39701 -3.63344 0
M  V30 4421 O 410.008 -5.62763 -2.13497 0
M  V30 4422 H 413.834 -3.03593 -0.0807707 0
M  V30 4423 H 411.419 -1.49377 0.0259962 0
M  V30 4424 H 413.301 -3.38606 -2.50846 0
M  V30 4425 H 411.976 -2.19744 -2.37685 0
M  V30 4426 H 410.883 -3.69166 -0.605605 0
M  V30 4427 H 412.216 -4.85385 -0.816211 0
M  V30 4428 N 413.868 0.0150385 -1.57593 0
M  V30 4429 C 414.816 1.02958 -2.08572 0
M  V30 4430 C 415.81 1.36554 -1.00246 0
M  V30 4431 O 417.016 1.35295 -1.18724 0
M  V30 4432 H 413.391 0.349619 -0.665786 0
M  V30 4433 H 415.362 0.573932 -2.92829 0
M  V30 4434 C 414.111 2.31752 -2.59203 0
M  V30 4435 H 413.434 2.06765 -3.42182 0
M  V30 4436 H 414.874 3.01053 -2.98568 0
M  V30 4437 C 413.333 3.01692 -1.49945 0
M  V30 4438 O 413.863 3.92083 -0.873704 0
M  V30 4439 N 412.069 2.6326 -1.23056 0
M  V30 4440 H 411.616 1.89838 -1.74125 0
M  V30 4441 H 411.574 3.10372 -0.501685 0
M  V30 4442 N 415.346 1.54954 0.287554 0
M  V30 4443 C 416.293 1.86834 1.35505 0
M  V30 4444 C 417.263 0.718452 1.49758 0
M  V30 4445 O 418.448 0.968358 1.644 0
M  V30 4446 C 415.588 2.13303 2.71286 0
M  V30 4447 C 414.701 3.40883 2.65373 0
M  V30 4448 C 413.836 3.57125 3.93236 0
M  V30 4449 C 412.875 4.78449 3.81776 0
M  V30 4450 N 412.012 4.91426 5.01443 0
M  V30 4451 H 416.852 2.77889 1.07619 0
M  V30 4452 H 414.389 1.37593 0.520241 0
M  V30 4453 H 416.347 2.26646 3.50267 0
M  V30 4454 H 414.977 1.25499 2.97405 0
M  V30 4455 H 414.029 3.36088 1.78182 0
M  V30 4456 H 415.341 4.29993 2.52799 0
M  V30 4457 H 414.495 3.70207 4.80658 0
M  V30 4458 H 413.234 2.66173 4.0866 0
M  V30 4459 H 412.239 4.65386 2.92738 0
M  V30 4460 H 413.464 5.70822 3.67884 0
M  V30 4461 H 411.41 4.03401 5.17304 0
M  V30 4462 H 411.327 5.74559 4.91343 0
M  V30 4463 H 412.595 5.08879 5.90477 0
M  V30 4464 N 416.824 -0.551391 1.4764 0
M  V30 4465 C 417.734 -1.68525 1.63207 0
M  V30 4466 C 418.75 -1.6621 0.514815 0
M  V30 4467 O 419.926 -1.85551 0.783113 0
M  V30 4468 C 416.991 -3.05025 1.64805 0
M  V30 4469 C 416.052 -3.18362 2.88 0
M  V30 4470 C 415.285 -4.4835 2.89513 0
M  V30 4471 O 415.508 -5.34163 2.00065 0
M  V30 4472 O 414.442 -4.65602 3.81443 0
M  V30 4473 H 418.268 -1.58333 2.59161 0
M  V30 4474 H 415.853 -0.722063 1.30792 0
M  V30 4475 H 417.735 -3.86245 1.68502 0
M  V30 4476 H 416.41 -3.15587 0.720197 0
M  V30 4477 H 415.317 -2.36518 2.89845 0
M  V30 4478 H 416.65 -3.12707 3.80099 0
M  V30 4479 N 418.302 -1.35869 -0.798587 0
M  V30 4480 C 419.53 -1.32722 -1.58722 0
M  V30 4481 C 419.945 0.0935631 -1.88568 0
M  V30 4482 O 419.302 1.04784 -1.49421 0
M  V30 4483 C 419.353 -2.13974 -2.91371 0
M  V30 4484 O 419.074 -3.50514 -2.62815 0
M  V30 4485 C 420.575 -2.18504 -3.85708 0
M  V30 4486 H 417.795 -0.45562 -0.492596 0
M  V30 4487 H 420.339 -1.78837 -0.991843 0
M  V30 4488 H 418.494 -1.71438 -3.47402 0
M  V30 4489 H 418.908 -3.92806 -3.47568 0
M  V30 4490 H 420.382 -2.79732 -4.75872 0
M  V30 4491 H 420.859 -1.18597 -4.22885 0
M  V30 4492 H 421.465 -2.61236 -3.35612 0
M  V30 4493 N 419.78 1.02168 -1.19998 0
M  V30 4494 C 421.057 1.72816 -0.916191 0
M  V30 4495 C 421.437 2.03081 0.576325 0
M  V30 4496 O 420.785 1.69122 1.53656 0
M  V30 4497 C 420.995 2.9997 -1.78378 0
M  V30 4498 C 422.343 3.73336 -2.02251 0
M  V30 4499 O 423.367 3.09914 -1.75589 0
M  V30 4500 O 422.226 4.87371 -2.47249 0
M  V30 4501 H 419.32 0.752924 -0.342103 0
M  V30 4502 H 421.866 1.08062 -1.30846 0
M  V30 4503 H 420.638 2.73888 -2.79466 0
M  V30 4504 H 420.261 3.72464 -1.39126 0
M  V30 4505 N 421.258 1.00505 1.21394 0
M  V30 4506 C 422.504 0.698477 1.91031 0
M  V30 4507 C 422.859 -0.762448 1.76648 0
M  V30 4508 O 422.152 -1.54554 1.13241 0
M  V30 4509 C 422.346 1.0546 3.41486 0
M  V30 4510 C 422.175 2.5486 3.70508 0
M  V30 4511 C 420.945 3.21461 3.8986 0
M  V30 4512 C 423.143 3.53019 3.74008 0
M  V30 4513 N 421.125 4.60211 4.06299 0
M  V30 4514 C 422.496 4.77279 3.95733 0
M  V30 4515 C 424.551 3.47154 3.56915 0
M  V30 4516 C 423.254 5.96388 4.02137 0
M  V30 4517 C 425.28 4.65652 3.64585 0
M  V30 4518 C 424.642 5.88717 3.86771 0
M  V30 4519 H 420.741 0.30707 0.719189 0
M  V30 4520 H 423.325 1.28753 1.46051 0
M  V30 4521 H 421.496 0.494007 3.85246 0
M  V30 4522 H 423.228 0.702765 3.98552 0
M  V30 4523 H 419.983 2.71906 3.87768 0
M  V30 4524 H 420.407 5.32216 4.1842 0
M  V30 4525 H 425.049 2.53015 3.38738 0
M  V30 4526 H 422.767 6.90919 4.19114 0
M  V30 4527 H 426.353 4.62717 3.52681 0
M  V30 4528 H 425.233 6.78877 3.92549 0
M  V30 4529 N 422.737 -1.36956 0.779787 0
M  V30 4530 C 424.153 -1.52817 0.460342 0
M  V30 4531 C 424.353 -1.7361 -1.02283 0
M  V30 4532 O 423.409 -1.76207 -1.80852 0
M  V30 4533 C 424.722 -2.71983 1.28241 0
M  V30 4534 C 426.27 -2.85849 1.27512 0
M  V30 4535 C 426.745 -4.08008 2.08072 0
M  V30 4536 N 428.236 -4.15135 2.05467 0
M  V30 4537 C 428.971 -5.08711 2.64577 0
M  V30 4538 N 428.467 -6.07792 3.32506 0
M  V30 4539 N 430.26 -5.01254 2.54363 0
M  V30 4540 H 422.411 -1.21713 1.74068 0
M  V30 4541 H 424.674 -0.593294 0.739396 0
M  V30 4542 H 424.38 -2.63109 2.33381 0
M  V30 4543 H 424.254 -3.65882 0.917088 0
M  V30 4544 H 426.641 -2.94189 0.231686 0
M  V30 4545 H 426.722 -1.92886 1.68014 0
M  V30 4546 H 426.366 -4.00429 3.12441 0
M  V30 4547 H 426.296 -5.001 1.64947 0
M  V30 4548 H 428.787 -3.44189 1.5602 0
M  V30 4549 H 429.1 -6.75739 3.74963 0
M  V30 4550 H 427.445 -6.08047 3.36606 0
M  V30 4551 H 430.636 -4.22795 2.00902 0
M  V30 4552 H 430.809 -5.73995 3.00722 0
M  V30 4553 N 424.215 -0.530993 -1.48385 0
M  V30 4554 C 425.464 0.00474348 -2.01699 0
M  V30 4555 C 425.777 1.35227 -1.41325 0
M  V30 4556 O 426.983 1.97643 -1.86144 0
M  V30 4557 C 425.439 0.0588473 -3.59852 0
M  V30 4558 C 425.047 -1.28385 -4.2921 0
M  V30 4559 C 426.791 0.543358 -4.21008 0
M  V30 4560 C 424.698 -1.19028 -5.79298 0
M  V30 4561 H 423.628 0.00554317 -0.75398 0
M  V30 4562 H 426.279 -0.674924 -1.70637 0
M  V30 4563 H 424.661 0.803612 -3.8776 0
M  V30 4564 H 425.835 -2.04426 -4.12973 0
M  V30 4565 H 424.15 -1.70418 -3.7993 0
M  V30 4566 H 426.747 0.631351 -5.3096 0
M  V30 4567 H 427.09 1.54937 -3.86394 0
M  V30 4568 H 427.623 -0.145754 -3.97533 0
M  V30 4569 H 424.362 -2.17147 -6.18488 0
M  V30 4570 H 423.882 -0.471246 -5.97946 0
M  V30 4571 H 425.561 -0.881365 -6.40969 0
M  V30 4572 N 425.693 1.55336 -0.266172 0
M  V30 4573 C 426.641 2.23587 0.641228 0
M  V30 4574 C 427.635 1.22986 1.16494 0
M  V30 4575 O 428.841 1.40943 1.1196 0
M  V30 4576 H 425.216 0.717452 0.225315 0
M  V30 4577 H 427.187 2.9837 0.0426561 0
M  V30 4578 C 425.936 2.96369 1.81826 0
M  V30 4579 H 425.259 3.73563 1.42445 0
M  V30 4580 H 426.699 3.47459 2.42998 0
M  V30 4581 C 425.158 2.0133 2.70125 0
M  V30 4582 O 425.688 1.55875 3.70224 0
M  V30 4583 N 423.894 1.6802 2.37102 0
M  V30 4584 H 423.441 2.05181 1.55751 0
M  V30 4585 H 423.399 1.047 2.96454 0
M  V30 4586 N 427.171 -0.0066808 1.57599 0
M  V30 4587 C 428.396 -0.707738 1.94951 0
M  V30 4588 C 428.821 -1.66882 0.867868 0
M  V30 4589 O 428.179 -1.80457 -0.17458 0
M  V30 4590 C 428.227 -1.42162 3.31394 0
M  V30 4591 O 427.331 -2.53578 3.25226 0
M  V30 4592 H 426.672 -0.188752 0.636607 0
M  V30 4593 H 429.202 0.0445193 2.04552 0
M  V30 4594 H 429.212 -1.78655 3.66806 0
M  V30 4595 H 427.887 -0.716903 4.09675 0
M  V30 4596 H 426.464 -2.19463 3.01481 0
M  V30 4597 N 428.649 -1.55105 -0.279332 0
M  V30 4598 C 429.874 -1.7976 -1.03446 0
M  V30 4599 C 430.299 -0.565952 -1.79384 0
M  V30 4600 O 429.657 0.484259 -1.74713 0
M  V30 4601 C 429.705 -3.0179 -1.97371 0
M  V30 4602 O 428.809 -2.76432 -3.06038 0
M  V30 4603 H 428.15 -0.594334 -0.29608 0
M  V30 4604 H 430.68 -2.02235 -0.310165 0
M  V30 4605 H 430.69 -3.30351 -2.39441 0
M  V30 4606 H 429.365 -3.91085 -1.4151 0
M  V30 4607 H 427.942 -2.58949 -2.68328 0
M  V30 4608 N 430.127 0.543554 -1.4793 0
M  V30 4609 C 431.538 1.12561 -1.48953 0
M  V30 4610 C 431.889 1.94578 -0.251754 0
M  V30 4611 O 431.014 2.0665 0.642255 0
M  V30 4612 C 431.609 2.04801 -2.69892 0
M  V30 4613 C 430.168 2.58251 -2.73831 0
M  V30 4614 C 429.315 1.34918 -2.42265 0
M  V30 4615 H 432.266 0.32947 -1.55242 0
M  V30 4616 H 432.287 2.88886 -2.47639 0
M  V30 4617 H 431.799 1.4508 -3.59963 0
M  V30 4618 H 429.9 3.21732 -1.87934 0
M  V30 4619 H 430.013 2.98312 -3.74895 0
M  V30 4620 H 428.377 1.66046 -1.93134 0
M  V30 4621 H 429.16 0.769693 -3.3456 0
M  V30 4622 N 431.605 1.3629 0.791371 0
M  V30 4623 C 432.515 1.32606 1.93527 0
M  V30 4624 C 433.531 0.228541 1.72493 0
M  V30 4625 O 434.707 0.460571 1.96063 0
M  V30 4626 C 431.772 1.11271 3.28359 0
M  V30 4627 C 430.833 2.3048 3.62185 0
M  V30 4628 C 430.066 2.10154 4.90583 0
M  V30 4629 O 430.289 1.07572 5.60165 0
M  V30 4630 O 429.223 2.97884 5.23019 0
M  V30 4631 H 433.049 2.28909 1.99585 0
M  V30 4632 H 430.634 1.16818 0.931344 0
M  V30 4633 H 432.516 1.01283 4.09047 0
M  V30 4634 H 431.191 0.180292 3.23198 0
M  V30 4635 H 430.098 2.46036 2.81811 0
M  V30 4636 H 431.431 3.22221 3.72068 0
M  V30 4637 N 433.083 -1.0153 1.20538 0
M  V30 4638 C 434.046 -2.0826 0.957098 0
M  V30 4639 C 435.046 -1.60657 -0.0678655 0
M  V30 4640 O 436.236 -1.73385 0.168332 0
M  V30 4641 C 433.368 -3.38033 0.441188 0
M  V30 4642 H 434.561 -2.31719 1.90384 0
M  V30 4643 H 432.114 -1.1835 1.02093 0
M  V30 4644 H 432.849 -3.20249 -0.510961 0
M  V30 4645 H 432.634 -3.73911 1.18038 0
M  V30 4646 H 434.124 -4.16613 0.287009 0
M  V30 4647 N 434.561 -1.01147 -1.20859 0
M  V30 4648 C 435.491 -0.597663 -2.25722 0
M  V30 4649 C 436.472 0.384744 -1.65692 0
M  V30 4650 O 437.657 0.271303 -1.92296 0
M  V30 4651 C 434.787 0.0700149 -3.47229 0
M  V30 4652 C 433.741 -0.832843 -4.19819 0
M  V30 4653 C 433.067 -0.0312202 -5.34691 0
M  V30 4654 C 434.367 -2.1385 -4.76514 0
M  V30 4655 H 436.061 -1.47423 -2.60589 0
M  V30 4656 H 433.607 -0.710301 -1.25263 0
M  V30 4657 H 435.56 0.37103 -4.19763 0
M  V30 4658 H 434.284 0.981259 -3.11511 0
M  V30 4659 H 432.943 -1.11778 -3.49144 0
M  V30 4660 H 432.591 0.881515 -4.95215 0
M  V30 4661 H 432.291 -0.632434 -5.84187 0
M  V30 4662 H 433.815 0.26346 -6.10031 0
M  V30 4663 H 435.229 -1.9002 -5.40893 0
M  V30 4664 H 433.626 -2.69012 -5.36426 0
M  V30 4665 H 434.696 -2.80495 -3.95538 0
M  V30 4666 N 436.039 1.36541 -0.78704 0
M  V30 4667 C 437.002 2.28413 -0.189778 0
M  V30 4668 C 438.002 1.48719 0.611499 0
M  V30 4669 O 439.192 1.68737 0.432842 0
M  V30 4670 C 436.324 3.32824 0.737638 0
M  V30 4671 H 437.517 2.82743 -0.999831 0
M  V30 4672 H 435.07 1.46065 -0.556298 0
M  V30 4673 H 435.805 2.83646 1.57212 0
M  V30 4674 H 435.59 3.91752 0.165044 0
M  V30 4675 H 437.08 4.0144 1.15047 0
M  V30 4676 N 437.518 0.538854 1.48102 0
M  V30 4677 C 438.481 -0.208395 2.28251 0
M  V30 4678 C 439.481 -0.859656 1.35892 0
M  V30 4679 O 440.671 -0.71834 1.58699 0
M  V30 4680 C 437.803 -1.30252 3.15035 0
M  V30 4681 H 438.996 0.495407 2.9578 0
M  V30 4682 H 436.549 0.295112 1.53489 0
M  V30 4683 H 437.284 -2.0393 2.52157 0
M  V30 4684 H 437.069 -0.840551 3.82985 0
M  V30 4685 H 438.559 -1.82787 3.75471 0
M  V30 4686 N 438.996 -1.55193 0.274407 0
M  V30 4687 C 440.226 -2.03692 -0.345442 0
M  V30 4688 C 440.634 -1.15224 -1.50067 0
M  V30 4689 O 439.977 -0.164749 -1.8296 0
M  V30 4690 C 440.039 -3.48325 -0.88939 0
M  V30 4691 C 439.703 -4.56794 0.137115 0
M  V30 4692 C 440.7 -5.11028 0.956378 0
M  V30 4693 C 438.385 -5.01568 0.27115 0
M  V30 4694 C 440.379 -6.08552 1.89587 0
M  V30 4695 C 438.066 -5.98918 1.21412 0
M  V30 4696 C 439.064 -6.52291 2.02498 0
M  V30 4697 O 438.752 -7.47738 2.952 0
M  V30 4698 H 438.484 -0.670893 -0.0829332 0
M  V30 4699 H 441.038 -2.01387 0.404056 0
M  V30 4700 H 439.268 -3.47867 -1.68895 0
M  V30 4701 H 440.957 -3.80167 -1.42225 0
M  V30 4702 H 441.723 -4.7725 0.863559 0
M  V30 4703 H 437.602 -4.5967 -0.349987 0
M  V30 4704 H 441.146 -6.50137 2.52918 0
M  V30 4705 H 437.043 -6.32114 1.30776 0
M  V30 4706 H 437.811 -7.65451 2.89874 0
M  V30 4707 N 440.474 -0.00167713 -1.576 0
M  V30 4708 C 441.89 0.354422 -1.55615 0
M  V30 4709 C 442.09 1.74679 -1.00447 0
M  V30 4710 O 441.146 2.4428 -0.639022 0
M  V30 4711 C 442.459 0.22812 -2.99833 0
M  V30 4712 C 444.007 0.302934 -3.11531 0
M  V30 4713 C 444.482 0.205737 -4.57538 0
M  V30 4714 N 445.973 0.263584 -4.62449 0
M  V30 4715 C 446.708 0.211742 -5.73009 0
M  V30 4716 N 446.204 0.110399 -6.92712 0
M  V30 4717 N 447.997 0.263729 -5.61481 0
M  V30 4718 H 440.148 -0.912498 -1.918 0
M  V30 4719 H 442.411 -0.349928 -0.881053 0
M  V30 4720 H 442.117 -0.729934 -3.44042 0
M  V30 4721 H 441.991 1.00951 -3.6344 0
M  V30 4722 H 444.378 1.25143 -2.67251 0
M  V30 4723 H 444.459 -0.508357 -2.50698 0
M  V30 4724 H 444.103 -0.739225 -5.02492 0
M  V30 4725 H 444.033 1.03554 -5.16318 0
M  V30 4726 H 446.524 0.343173 -3.76339 0
M  V30 4727 H 446.837 0.0767828 -7.72762 0
M  V30 4728 H 445.182 0.0760025 -6.94958 0
M  V30 4729 H 448.373 0.34111 -4.66855 0
M  V30 4730 H 448.546 0.219862 -6.47627 0
M  V30 4731 N 441.952 1.55251 0.271103 0
M  V30 4732 C 442.862 1.9136 1.35714 0
M  V30 4733 C 443.878 0.811075 1.5394 0
M  V30 4734 O 445.054 1.11031 1.6803 0
M  V30 4735 C 442.119 2.1798 2.69603 0
M  V30 4736 C 441.18 3.4153 2.60107 0
M  V30 4737 C 440.413 3.66871 3.8761 0
M  V30 4738 O 440.636 2.94689 4.8838 0
M  V30 4739 O 439.57 4.60405 3.87699 0
M  V30 4740 H 443.396 2.83815 1.08088 0
M  V30 4741 H 440.981 1.41821 0.469792 0
M  V30 4742 H 442.863 2.36518 3.48765 0
M  V30 4743 H 441.538 1.28708 2.97012 0
M  V30 4744 H 440.445 3.28325 1.79314 0
M  V30 4745 H 441.778 4.31027 2.37647 0
M  V30 4746 N 443.43 -0.535701 1.48216 0
M  V30 4747 C 444.393 -1.623 1.61838 0
M  V30 4748 C 445.393 -1.53087 0.492024 0
M  V30 4749 O 446.583 -1.5686 0.757668 0
M  V30 4750 C 443.715 -3.01907 1.58319 0
M  V30 4751 H 444.908 -1.51564 2.58783 0
M  V30 4752 H 442.461 -0.757317 1.36727 0
M  V30 4753 H 443.196 -3.18155 0.628299 0
M  V30 4754 H 442.981 -3.10003 2.40085 0
M  V30 4755 H 444.471 -3.80969 1.71033 0
M  V30 4756 N 444.908 -1.36708 -0.784132 0
M  V30 4757 C 446.157 -1.30559 -1.53744 0
M  V30 4758 C 446.47 0.111374 -1.95283 0
M  V30 4759 O 447.676 0.29527 -2.6989 0
M  V30 4760 C 446.132 -2.29098 -2.77565 0
M  V30 4761 C 445.74 -3.76258 -2.43174 0
M  V30 4762 C 447.484 -2.31936 -3.55536 0
M  V30 4763 C 445.391 -4.6656 -3.63422 0
M  V30 4764 H 444.321 -0.48518 -0.577162 0
M  V30 4765 H 446.972 -1.62101 -0.859981 0
M  V30 4766 H 445.354 -1.90557 -3.47137 0
M  V30 4767 H 446.528 -4.23565 -1.81465 0
M  V30 4768 H 444.843 -3.76246 -1.78403 0
M  V30 4769 H 447.44 -2.9661 -4.44889 0
M  V30 4770 H 447.783 -1.3294 -3.94503 0
M  V30 4771 H 448.316 -2.6912 -2.92949 0
M  V30 4772 H 445.055 -5.66638 -3.29547 0
M  V30 4773 H 444.575 -4.23966 -4.24279 0
M  V30 4774 H 446.254 -4.8309 -4.30387 0
M  V30 4775 N 446.386 1.0089 -1.21074 0
M  V30 4776 C 447.634 1.74262 -1.02358 0
M  V30 4777 C 447.955 1.89869 0.444393 0
M  V30 4778 O 447.225 1.44677 1.32081 0
M  V30 4779 H 445.805 0.645615 -0.375754 0
M  V30 4780 H 448.467 1.21596 -1.52317 0
M  V30 4781 H 447.563 2.74328 -1.4883 0
M  V30 4782 N 447.864 1.01787 1.20321 0
M  V30 4783 C 448.827 0.593972 2.2137 0
M  V30 4784 C 449.827 -0.336553 1.57239 0
M  V30 4785 O 451.017 -0.125069 1.7375 0
M  V30 4786 C 448.149 -0.132433 3.40643 0
M  V30 4787 H 449.342 1.48791 2.60387 0
M  V30 4788 H 446.895 0.807803 1.33807 0
M  V30 4789 H 447.63 -1.04123 3.0713 0
M  V30 4790 H 447.415 0.53605 3.88418 0
M  V30 4791 H 448.905 -0.416314 4.1552 0
M  V30 4792 N 449.342 -1.36122 0.79427 0
M  V30 4793 C 450.59 -1.98718 0.368177 0
M  V30 4794 C 450.911 -1.63345 -1.06506 0
M  V30 4795 O 450.181 -0.909825 -1.73491 0
M  V30 4796 H 448.761 -0.735038 0.133146 0
M  V30 4797 H 451.423 -1.66239 1.01739 0
M  V30 4798 H 450.519 -3.08633 0.463923 0
M  V30 4799 N 450.82 -0.546701 -1.47814 0
M  V30 4800 C 452.045 -0.021268 -2.07389 0
M  V30 4801 C 452.47 1.25822 -1.39822 0
M  V30 4802 O 451.828 1.75111 -0.46968 0
M  V30 4803 C 451.876 0.168502 -3.60206 0
M  V30 4804 O 450.98 1.23347 -3.93522 0
M  V30 4805 H 450.321 -0.0466108 -0.662362 0
M  V30 4806 H 452.851 -0.759387 -1.89985 0
M  V30 4807 H 452.861 0.385982 -4.0617 0
M  V30 4808 H 451.536 -0.766075 -4.08784 0
M  V30 4809 H 450.113 0.997319 -3.59316 0
M  V30 4810 N 452.299 1.55045 -0.282633 0
M  V30 4811 C 453.524 2.04628 0.337977 0
M  V30 4812 C 453.949 1.15937 1.48123 0
M  V30 4813 O 453.307 0.159532 1.80597 0
M  V30 4814 C 453.355 3.51854 0.78936 0
M  V30 4815 O 452.459 3.66236 1.89592 0
M  V30 4816 H 451.8 0.660434 0.0687261 0
M  V30 4817 H 454.33 2.00261 -0.419124 0
M  V30 4818 H 454.34 3.93361 1.08311 0
M  V30 4819 H 453.015 4.15873 -0.0470419 0
M  V30 4820 H 451.592 3.36633 1.60413 0
M  V30 4821 N 453.777 0.010035 1.57597 0
M  V30 4822 C 454.725 -0.996272 2.10184 0
M  V30 4823 C 455.719 -1.34942 1.02406 0
M  V30 4824 O 456.925 -1.33389 1.20861 0
M  V30 4825 H 453.3 -0.338982 0.671264 0
M  V30 4826 H 455.271 -0.527272 2.93705 0
M  V30 4827 C 454.02 -2.27599 2.62857 0
M  V30 4828 H 453.343 -2.01295 3.45428 0
M  V30 4829 H 454.783 -2.96265 3.0332 0
M  V30 4830 C 453.242 -2.99269 1.54725 0
M  V30 4831 O 453.772 -3.90644 0.93597 0
M  V30 4832 N 451.978 -2.61269 1.27228 0
M  V30 4833 H 451.525 -1.87043 1.77123 0
M  V30 4834 H 451.483 -3.09534 0.550999 0
M  V30 4835 N 455.255 -1.55392 -0.262866 0
M  V30 4836 C 456.666 -1.67079 -0.833158 0
M  V30 4837 C 457.017 -0.604539 -1.86654 0
M  V30 4838 O 456.142 0.252138 -2.14926 0
M  V30 4839 C 456.737 -3.02891 -1.51797 0
M  V30 4840 C 455.296 -3.16571 -2.03617 0
M  V30 4841 C 454.443 -2.62909 -0.881701 0
M  V30 4842 H 457.394 -1.58652 -0.0389986 0
M  V30 4843 H 457.415 -2.96445 -2.38538 0
M  V30 4844 H 456.927 -3.80473 -0.765619 0
M  V30 4845 H 455.028 -2.43782 -2.81782 0
M  V30 4846 H 455.141 -4.23271 -2.24452 0
M  V30 4847 H 453.505 -2.20324 -1.27786 0
M  V30 4848 H 454.288 -3.43003 -0.14269 0
M  V30 4849 N 456.733 0.527833 -1.48498 0
M  V30 4850 C 457.961 1.30823 -1.6029 0
M  V30 4851 C 458.376 1.86945 -0.263974 0
M  V30 4852 O 457.733 1.6651 0.747034 0
M  V30 4853 C 457.784 2.45756 -2.65116 0
M  V30 4854 O 457.505 1.91946 -3.93813 0
M  V30 4855 C 459.006 3.37543 -2.87367 0
M  V30 4856 H 456.226 0.397763 -0.540394 0
M  V30 4857 H 458.77 0.636529 -1.94341 0
M  V30 4858 H 456.925 3.08806 -2.33917 0
M  V30 4859 H 457.339 2.67195 -4.51339 0
M  V30 4860 H 458.813 4.14532 -3.6451 0
M  V30 4861 H 459.29 3.92905 -1.9627 0
M  V30 4862 H 459.896 2.80283 -3.19878 0
M  V30 4863 N 458.211 1.37122 0.776871 0
M  V30 4864 C 459.622 1.28667 1.35284 0
M  V30 4865 C 459.973 -0.0680035 1.96082 0
M  V30 4866 O 459.098 -0.969743 1.93455 0
M  V30 4867 C 459.693 2.32997 2.45963 0
M  V30 4868 C 458.252 2.28191 2.99342 0
M  V30 4869 C 457.399 2.17101 1.72517 0
M  V30 4870 H 460.35 1.47819 0.577527 0
M  V30 4871 H 460.371 1.97366 3.2531 0
M  V30 4872 H 459.883 3.3158 2.01684 0
M  V30 4873 H 457.984 1.33115 3.4801 0
M  V30 4874 H 458.097 3.21397 3.55304 0
M  V30 4875 H 456.461 1.63562 1.95242 0
M  V30 4876 H 457.244 3.17591 1.30348 0
M  V30 4877 N 459.689 -1.00246 1.21608 0
M  V30 4878 C 460.917 -1.77631 1.06089 0
M  V30 4879 C 461.332 -1.84746 -0.38916 0
M  V30 4880 O 460.689 -1.31068 -1.26994 0
M  V30 4881 C 460.74 -3.21415 1.65453 0
M  V30 4882 O 460.461 -3.14703 3.04785 0
M  V30 4883 C 461.962 -4.15289 1.55079 0
M  V30 4884 H 459.182 -0.558162 0.37242 0
M  V30 4885 H 461.726 -1.26093 1.60999 0
M  V30 4886 H 459.881 -3.70053 1.14629 0
M  V30 4887 H 460.295 -4.05056 3.33212 0
M  V30 4888 H 461.769 -5.13965 2.01355 0
M  V30 4889 H 462.246 -4.36279 0.505665 0
M  V30 4890 H 462.852 -3.72543 2.05163 0
M  V30 4891 N 461.167 -1.02423 -1.1978 0
M  V30 4892 C 462.578 -0.748389 -1.71044 0
M  V30 4893 C 462.929 0.732398 -1.82017 0
M  V30 4894 O 462.054 1.57116 -1.48807 0
M  V30 4895 C 462.649 -1.35187 -3.1066 0
M  V30 4896 C 461.208 -1.12472 -3.59203 0
M  V30 4897 C 460.355 -1.45283 -2.36195 0
M  V30 4898 H 463.306 -1.19275 -1.04686 0
M  V30 4899 H 463.327 -0.746408 -3.73107 0
M  V30 4900 H 462.839 -2.4296 -3.02642 0
M  V30 4901 H 460.94 -0.0649983 -3.72543 0
M  V30 4902 H 461.053 -1.81016 -4.43588 0
M  V30 4903 H 459.417 -0.872034 -2.39307 0
M  V30 4904 H 460.2 -2.54129 -2.30811 0
M  V30 4905 N 462.645 1.35699 -0.801477 0
M  V30 4906 C 463.873 2.03157 -0.391768 0
M  V30 4907 C 464.288 1.60412 0.995668 0
M  V30 4908 O 463.645 0.799228 1.64069 0
M  V30 4909 C 463.696 3.58566 -0.459671 0
M  V30 4910 O 463.417 3.99756 -1.7924 0
M  V30 4911 C 464.918 4.4328 -0.0421205 0
M  V30 4912 H 462.138 0.651688 -0.159825 0
M  V30 4913 H 464.682 1.73426 -1.08368 0
M  V30 4914 H 462.837 3.86963 0.183939 0
M  V30 4915 H 463.251 4.94387 -1.75162 0
M  V30 4916 H 464.725 5.51821 -0.140754 0
M  V30 4917 H 465.202 4.27383 1.01196 0
M  V30 4918 H 465.808 4.20168 -0.658687 0
M  V30 4919 N 464.123 0.554532 1.47522 0
M  V30 4920 C 465.369 0.0377449 2.03365 0
M  V30 4921 C 465.724 -1.29654 1.42154 0
M  V30 4922 O 465.017 -1.83022 0.566865 0
M  V30 4923 C 465.211 -0.115927 3.57212 0
M  V30 4924 C 465.04 1.20191 4.33341 0
M  V30 4925 C 463.81 1.76849 4.73342 0
M  V30 4926 C 466.008 2.11849 4.68641 0
M  V30 4927 N 463.99 3.02665 5.34104 0
M  V30 4928 C 465.361 3.22245 5.29677 0
M  V30 4929 C 467.416 2.11876 4.5057 0
M  V30 4930 C 466.119 4.32763 5.74551 0
M  V30 4931 C 468.145 3.21405 4.9644 0
M  V30 4932 C 467.507 4.30519 5.57523 0
M  V30 4933 H 463.606 0.0559107 0.779999 0
M  V30 4934 H 466.19 0.741232 1.80038 0
M  V30 4935 H 464.361 -0.788533 3.80311 0
M  V30 4936 H 466.093 -0.634538 3.99695 0
M  V30 4937 H 462.848 1.30681 4.55214 0
M  V30 4938 H 463.272 3.66788 5.69031 0
M  V30 4939 H 467.914 1.28801 4.02704 0
M  V30 4940 H 465.632 5.166 6.2141 0
M  V30 4941 H 469.218 3.22509 4.8423 0
M  V30 4942 H 468.098 5.13873 5.92371 0
M  V30 4943 N 465.601 -1.54893 0.290851 0
M  V30 4944 C 466.829 -2.04343 -0.324288 0
M  V30 4945 C 467.244 -1.16859 -1.48289 0
M  V30 4946 O 466.601 -0.192018 -1.81487 0
M  V30 4947 C 466.652 -3.52756 -0.79026 0
M  V30 4948 O 466.373 -4.36913 0.322213 0
M  V30 4949 C 467.874 -4.18161 -1.4716 0
M  V30 4950 H 465.094 -0.667135 -0.0719173 0
M  V30 4951 H 467.638 -1.99981 0.427529 0
M  V30 4952 H 465.793 -3.57511 -1.49213 0
M  V30 4953 H 466.207 -5.24486 -0.0387372 0
M  V30 4954 H 467.681 -5.23562 -1.7489 0
M  V30 4955 H 468.158 -3.67282 -2.40834 0
M  V30 4956 H 468.764 -4.17454 -0.813178 0
M  V30 4957 N 467.08 -0.0183926 -1.57589 0
M  V30 4958 C 468.305 0.676634 -1.96052 0
M  V30 4959 C 468.73 1.6548 -0.894307 0
M  V30 4960 O 468.088 1.80712 0.145849 0
M  V30 4961 C 468.136 1.36872 -3.33614 0
M  V30 4962 O 467.24 2.48372 -3.29219 0
M  V30 4963 H 466.581 0.1786 -0.63953 0
M  V30 4964 H 469.111 -0.077056 -2.04455 0
M  V30 4965 H 469.121 1.72797 -3.69601 0
M  V30 4966 H 467.796 0.651636 -4.10763 0
M  V30 4967 H 466.373 2.14639 -3.04934 0
M  V30 4968 N 468.558 1.5553 0.254621 0
M  V30 4969 C 469.786 1.81046 1.00149 0
M  V30 4970 C 470.201 0.593047 1.79244 0
M  V30 4971 O 469.558 -0.438196 1.77161 0
M  V30 4972 C 469.609 3.04684 1.94551 0
M  V30 4973 O 469.33 4.21725 1.18658 0
M  V30 4974 C 470.831 3.42943 2.80901 0
M  V30 4975 H 468.051 0.602653 0.295044 0
M  V30 4976 H 470.595 2.02576 0.279842 0
M  V30 4977 H 468.75 2.85226 2.62154 0
M  V30 4978 H 469.164 4.91746 1.82445 0
M  V30 4979 H 470.638 4.32576 3.42902 0
M  V30 4980 H 471.115 2.63176 3.51617 0
M  V30 4981 H 471.721 3.64724 2.18762 0
M  V30 4982 N 470.036 -0.519951 1.48776 0
M  V30 4983 C 471.447 -1.10177 1.50725 0
M  V30 4984 C 471.798 -1.94153 0.282678 0
M  V30 4985 O 470.923 -2.07645 -0.609298 0
M  V30 4986 C 471.518 -2.00482 2.73116 0
M  V30 4987 C 470.077 -2.53862 2.77905 0
M  V30 4988 C 469.224 -1.31047 2.44381 0
M  V30 4989 H 472.175 -0.30473 1.55747 0
M  V30 4990 H 472.196 -2.8491 2.52203 0
M  V30 4991 H 471.708 -1.39335 3.62225 0
M  V30 4992 H 469.809 -3.18702 1.93029 0
M  V30 4993 H 469.922 -2.9231 3.79594 0
M  V30 4994 H 468.286 -1.62953 1.95751 0
M  V30 4995 H 469.069 -0.71637 3.35743 0
M  V30 4996 N 471.514 -1.37532 -0.769588 0
M  V30 4997 C 472.925 -1.29382 -1.346 0
M  V30 4998 C 473.276 0.0576039 -1.96115 0
M  V30 4999 O 472.401 0.95947 -1.93967 0
M  V30 5000 C 472.996 -2.34298 -2.44724 0
M  V30 5001 C 471.555 -2.29776 -2.98128 0
M  V30 5002 C 470.702 -2.18013 -1.71364 0
M  V30 5003 H 473.653 -1.48123 -0.56968 0
M  V30 5004 H 473.674 -1.99089 -3.24259 0
M  V30 5005 H 473.186 -3.32645 -1.99922 0
M  V30 5006 H 471.287 -1.34959 -3.47299 0
M  V30 5007 H 471.4 -3.23276 -3.53595 0
M  V30 5008 H 469.764 -1.64595 -1.94372 0
M  V30 5009 H 470.547 -3.18278 -1.28662 0
M  V30 5010 N 472.992 0.995999 -1.22138 0
M  V30 5011 C 474.217 1.77601 -1.0711 0
M  V30 5012 C 474.642 1.84339 0.374264 0
M  V30 5013 O 474 1.29359 1.27028 0
M  V30 5014 C 474.048 3.18897 -1.68336 0
M  V30 5015 O 473.152 4.01663 -0.934928 0
M  V30 5016 H 472.493 0.547011 -0.376397 0
M  V30 5017 H 475.023 1.25137 -1.6187 0
M  V30 5018 H 475.033 3.69539 -1.72931 0
M  V30 5019 H 473.708 3.13308 -2.73516 0
M  V30 5020 H 472.285 3.60204 -0.964751 0
M  V30 5021 N 474.47 1.03057 1.19235 0
M  V30 5022 C 475.695 0.74757 1.93458 0
M  V30 5023 C 476.12 -0.687648 1.7508 0
M  V30 5024 O 475.478 -1.47499 1.05422 0
M  V30 5025 C 475.526 1.10604 3.43219 0
M  V30 5026 O 474.63 0.225671 4.11782 0
M  V30 5027 H 473.971 0.276047 0.603899 0
M  V30 5028 H 476.501 1.3777 1.51263 0
M  V30 5029 H 476.511 1.06366 3.93891 0
M  V30 5030 H 475.186 2.15165 3.55917 0
M  V30 5031 H 473.763 0.326795 3.71465 0
M  V30 5032 N 475.948 -1.35272 0.808662 0
M  V30 5033 C 477.173 -2.03477 0.401475 0
M  V30 5034 C 477.598 -1.60537 -0.980279 0
M  V30 5035 O 476.956 -0.78304 -1.63518 0
M  V30 5036 C 477.004 -3.57181 0.495354 0
M  V30 5037 O 476.108 -4.09474 -0.490397 0
M  V30 5038 H 475.449 -0.642561 0.167366 0
M  V30 5039 H 477.979 -1.72824 1.09512 0
M  V30 5040 H 477.989 -4.06356 0.365912 0
M  V30 5041 H 476.664 -3.87784 1.5032 0
M  V30 5042 H 475.241 -3.71516 -0.321023 0
M  V30 5043 N 477.426 -0.562348 -1.47226 0
M  V30 5044 C 478.837 -0.130325 -1.86245 0
M  V30 5045 C 479.188 1.30128 -1.46838 0
M  V30 5046 O 478.313 1.97974 -0.873805 0
M  V30 5047 C 478.908 -0.229738 -3.3802 0
M  V30 5048 C 477.467 0.14728 -3.76112 0
M  V30 5049 C 476.614 -0.574971 -2.71274 0
M  V30 5050 H 479.565 -0.771773 -1.3867 0
M  V30 5051 H 479.586 0.550316 -3.76499 0
M  V30 5052 H 479.098 -1.27178 -3.66671 0
M  V30 5053 H 477.199 1.19023 -3.53078 0
M  V30 5054 H 477.312 -0.214858 -4.78618 0
M  V30 5055 H 475.676 -0.0174756 -2.54694 0
M  V30 5056 H 476.459 -1.61827 -3.02766 0
M  V30 5057 N 478.904 1.54736 -0.299062 0
M  V30 5058 C 479.851 2.23448 0.577899 0
M  V30 5059 C 480.821 1.21637 1.13109 0
M  V30 5060 O 482.006 1.50252 1.17597 0
M  V30 5061 C 479.146 2.9774 1.74484 0
M  V30 5062 C 478.259 4.1432 1.22323 0
M  V30 5063 C 477.394 4.76199 2.35388 0
M  V30 5064 C 476.433 5.84927 1.80351 0
M  V30 5065 N 475.57 6.4077 2.86982 0
M  V30 5066 H 480.41 2.97996 -0.0146545 0
M  V30 5067 H 477.947 1.47088 -0.0190013 0
M  V30 5068 H 479.905 3.39045 2.43114 0
M  V30 5069 H 478.535 2.25572 2.30905 0
M  V30 5070 H 477.587 3.7797 0.429249 0
M  V30 5071 H 478.899 4.92659 0.780309 0
M  V30 5072 H 478.053 5.20346 3.11969 0
M  V30 5073 H 476.792 3.97188 2.83006 0
M  V30 5074 H 475.797 5.40207 1.02259 0
M  V30 5075 H 477.022 6.65821 1.3364 0
M  V30 5076 H 474.968 5.64643 3.33938 0
M  V30 5077 H 474.885 7.1445 2.4718 0
M  V30 5078 H 476.153 6.89574 3.63466 0
M  V30 5079 N 480.382 0.0267497 1.57577 0
M  V30 5080 C 481.345 -0.940916 2.08996 0
M  V30 5081 C 482.345 -1.25561 1.00455 0
M  V30 5082 O 483.535 -1.19634 1.26623 0
M  V30 5083 C 480.667 -2.25814 2.55384 0
M  V30 5084 H 481.86 -0.495628 2.95776 0
M  V30 5085 H 479.413 -0.221241 1.54726 0
M  V30 5086 H 480.148 -2.74976 1.71926 0
M  V30 5087 H 479.933 -2.04285 3.34679 0
M  V30 5088 H 481.423 -2.95178 2.95398 0
M  V30 5089 N 481.861 -1.55662 -0.24637 0
M  V30 5090 C 483.107 -1.77782 -0.975779 0
M  V30 5091 C 483.44 -0.592103 -1.84953 0
M  V30 5092 O 482.715 0.409588 -1.90138 0
M  V30 5093 C 482.998 -3.09788 -1.83584 0
M  V30 5094 C 482.851 -4.38764 -0.990241 0
M  V30 5095 C 484.17 -3.38029 -2.81823 0
M  V30 5096 H 481.289 -0.646789 -0.353317 0
M  V30 5097 H 483.931 -1.88398 -0.246248 0
M  V30 5098 H 482.081 -3.00869 -2.45784 0
M  V30 5099 H 483.753 -4.59675 -0.386897 0
M  V30 5100 H 481.996 -4.32798 -0.294626 0
M  V30 5101 H 482.667 -5.27514 -1.62584 0
M  V30 5102 H 485.143 -3.46915 -2.2976 0
M  V30 5103 H 484.019 -4.3161 -3.39122 0
M  V30 5104 H 484.28 -2.58968 -3.58313 0
M  V30 5105 N 483.339 0.512053 -1.4905 0
M  V30 5106 C 484.616 1.27337 -1.48474 0
M  V30 5107 C 484.996 2.1009 -0.206301 0
M  V30 5108 O 484.344 2.136 0.811609 0
M  V30 5109 C 484.554 2.13954 -2.75726 0
M  V30 5110 C 485.902 2.73507 -3.24776 0
M  V30 5111 O 486.926 2.24229 -2.76767 0
M  V30 5112 O 485.785 3.63186 -4.08361 0
M  V30 5113 H 482.879 0.575652 -0.593762 0
M  V30 5114 H 485.425 0.527232 -1.61302 0
M  V30 5115 H 484.197 1.52709 -3.60272 0
M  V30 5116 H 483.82 2.95782 -2.65705 0
M  V30 5117 N 484.817 1.37938 0.762283 0
M  V30 5118 C 486.228 1.30094 1.33912 0
M  V30 5119 C 486.579 -0.0472026 1.96143 0
M  V30 5120 O 485.704 -0.94917 1.94473 0
M  V30 5121 C 486.299 2.35592 2.43478 0
M  V30 5122 C 484.858 2.31353 2.96905 0
M  V30 5123 C 484.005 2.18919 1.70205 0
M  V30 5124 H 486.956 1.48423 0.561816 0
M  V30 5125 H 486.977 2.00806 3.23199 0
M  V30 5126 H 486.489 3.33701 1.98155 0
M  V30 5127 H 484.59 1.36799 3.46579 0
M  V30 5128 H 484.703 3.25147 3.51875 0
M  V30 5129 H 483.067 1.65624 1.93496 0
M  V30 5130 H 483.85 3.18956 1.26973 0
M  V30 5131 N 486.295 -0.989507 1.22664 0
M  V30 5132 C 487.542 -1.72953 1.05325 0
M  V30 5133 C 487.87 -1.90104 -0.411168 0
M  V30 5134 O 487.125 -1.44386 -1.32103 0
M  V30 5135 C 487.424 -3.13649 1.71345 0
M  V30 5136 C 487.09 -3.16403 3.21248 0
M  V30 5137 C 485.752 -3.16862 3.62149 0
M  V30 5138 C 488.104 -3.12428 4.17179 0
M  V30 5139 C 485.432 -3.11051 4.97458 0
M  V30 5140 C 487.784 -3.08159 5.52468 0
M  V30 5141 C 486.448 -3.06935 5.92746 0
M  V30 5142 H 485.718 -0.632881 0.385412 0
M  V30 5143 H 488.365 -1.15863 1.52473 0
M  V30 5144 H 486.67 -3.74069 1.16532 0
M  V30 5145 H 488.367 -3.69658 1.55416 0
M  V30 5146 H 484.957 -3.16798 2.88682 0
M  V30 5147 H 489.141 -3.11221 3.86595 0
M  V30 5148 H 484.397 -3.0845 5.27891 0
M  V30 5149 H 488.571 -3.04039 6.26525 0
M  V30 5150 H 486.198 -3.02186 6.97558 0
M  V30 5151 N 487.773 -1.03688 -1.18687 0
M  V30 5152 C 488.683 -0.634908 -2.25845 0
M  V30 5153 C 489.699 0.337065 -1.70704 0
M  V30 5154 O 490.875 0.192943 -2.00474 0
M  V30 5155 C 487.94 -0.000180054 -3.467 0
M  V30 5156 C 487.001 -1.02067 -4.1699 0
M  V30 5157 C 486.234 -0.41614 -5.32075 0
M  V30 5158 O 486.457 0.778712 -5.65059 0
M  V30 5159 O 485.391 -1.14296 -5.90948 0
M  V30 5160 H 489.217 -1.52757 -2.62486 0
M  V30 5161 H 486.802 -0.807533 -1.25695 0
M  V30 5162 H 488.684 0.353342 -4.19916 0
M  V30 5163 H 487.359 0.866367 -3.11891 0
M  V30 5164 H 486.266 -1.42592 -3.45859 0
M  V30 5165 H 487.599 -1.85786 -4.5579 0
M  V30 5166 N 489.251 1.34841 -0.815825 0
M  V30 5167 C 490.184 2.27504 -0.178062 0
M  V30 5168 C 491.162 1.48542 0.661373 0
M  V30 5169 O 492.346 1.77779 0.626653 0
M  V30 5170 C 489.473 3.30246 0.752002 0
M  V30 5171 C 488.519 4.26499 -0.00899172 0
M  V30 5172 S 489.352 5.18169 -1.35134 0
M  V30 5173 C 490.508 6.24449 -0.42596 0
M  V30 5174 H 490.741 2.81248 -0.963684 0
M  V30 5175 H 488.274 1.41781 -0.611355 0
M  V30 5176 H 490.232 3.89933 1.28308 0
M  V30 5177 H 488.893 2.75363 1.51109 0
M  V30 5178 H 488.086 4.99146 0.697766 0
M  V30 5179 H 487.688 3.7103 -0.470396 0
M  V30 5180 H 489.98 6.76404 0.385234 0
M  V30 5181 H 490.923 6.99156 -1.1219 0
M  V30 5182 H 491.331 5.64497 -0.0175461 0
M  V30 5183 N 490.729 0.570148 1.46925 0
M  V30 5184 C 491.975 0.0510284 2.02736 0
M  V30 5185 C 492.308 -1.3006 1.44215 0
M  V30 5186 O 491.583 -1.84932 0.602521 0
M  V30 5187 C 491.866 -0.028215 3.60089 0
M  V30 5188 C 491.719 1.35142 4.29018 0
M  V30 5189 C 493.038 -0.735181 4.33916 0
M  V30 5190 H 490.157 0.0200178 0.736728 0
M  V30 5191 H 492.799 0.73493 1.75211 0
M  V30 5192 H 490.949 -0.610648 3.83671 0
M  V30 5193 H 492.621 1.97806 4.16738 0
M  V30 5194 H 490.864 1.9226 3.88868 0
M  V30 5195 H 491.535 1.24857 5.37694 0
M  V30 5196 H 494.011 -0.240519 4.15404 0
M  V30 5197 H 492.887 -0.759622 5.43618 0
M  V30 5198 H 493.148 -1.79397 4.04066 0
M  V30 5199 N 492.207 -1.54576 0.307264 0
M  V30 5200 C 493.623 -1.59534 -0.0459251 0
M  V30 5201 C 493.823 -1.32414 -1.51884 0
M  V30 5202 O 492.879 -1.1006 -2.27251 0
M  V30 5203 C 494.192 -2.98566 0.357649 0
M  V30 5204 C 495.74 -3.11491 0.306937 0
M  V30 5205 C 496.215 -4.52842 0.685427 0
M  V30 5206 N 497.706 -4.58782 0.638203 0
M  V30 5207 C 498.441 -5.66238 0.903458 0
M  V30 5208 N 497.937 -6.81703 1.23501 0
M  V30 5209 N 499.73 -5.55937 0.830102 0
M  V30 5210 H 491.881 -1.70464 1.26712 0
M  V30 5211 H 494.144 -0.79647 0.514139 0
M  V30 5212 H 493.85 -3.23356 1.38325 0
M  V30 5213 H 493.724 -3.76117 -0.285565 0
M  V30 5214 H 496.111 -2.86446 -0.709424 0
M  V30 5215 H 496.192 -2.36081 0.984861 0
M  V30 5216 H 495.836 -4.78618 1.69963 0
M  V30 5217 H 495.766 -5.26598 -0.0146346 0
M  V30 5218 H 498.257 -3.75849 0.393138 0
M  V30 5219 H 498.57 -7.59582 1.42322 0
M  V30 5220 H 496.915 -6.8324 1.27311 0
M  V30 5221 H 500.106 -4.64608 0.570693 0
M  V30 5222 H 500.279 -6.39597 1.04019 0
M  V30 5223 N 493.685 -0.035106 -1.57561 0
M  V30 5224 C 494.632 0.94474 -2.10578 0
M  V30 5225 C 495.602 1.3192 -1.00927 0
M  V30 5226 O 496.787 1.41147 -1.28382 0
M  V30 5227 C 493.927 2.21982 -2.64231 0
M  V30 5228 C 493.04 1.90128 -3.87911 0
M  V30 5229 C 492.175 3.11975 -4.29936 0
M  V30 5230 C 491.214 2.75968 -5.46359 0
M  V30 5231 N 490.351 3.90459 -5.83512 0
M  V30 5232 H 495.191 0.485717 -2.94015 0
M  V30 5233 H 492.728 0.228143 -1.4532 0
M  V30 5234 H 494.686 2.96572 -2.9343 0
M  V30 5235 H 493.316 2.6549 -1.83616 0
M  V30 5236 H 492.368 1.05755 -3.65404 0
M  V30 5237 H 493.68 1.59613 -4.72573 0
M  V30 5238 H 492.834 3.9488 -4.60603 0
M  V30 5239 H 491.573 3.45657 -3.44053 0
M  V30 5240 H 490.578 1.91478 -5.1538 0
M  V30 5241 H 491.803 2.43497 -6.33945 0
M  V30 5242 H 489.749 4.23971 -5.00584 0
M  V30 5243 H 489.666 3.63588 -6.62827 0
M  V30 5244 H 490.934 4.7405 -6.18787 0
M  V30 5245 N 495.163 1.55791 0.238111 0
M  V30 5246 C 496.096 1.86036 1.32158 0
M  V30 5247 C 497.074 0.716216 1.45976 0
M  V30 5248 O 498.258 0.962882 1.62052 0
M  V30 5249 C 495.385 2.05281 2.69402 0
M  V30 5250 C 494.431 3.27939 2.72687 0
M  V30 5251 S 495.264 4.84342 2.28413 0
M  V30 5252 C 496.42 5.06604 3.67565 0
M  V30 5253 H 496.653 2.77644 1.06306 0
M  V30 5254 H 494.186 1.48012 0.439537 0
M  V30 5255 H 496.144 2.17053 3.48423 0
M  V30 5256 H 494.805 1.14499 2.92487 0
M  V30 5257 H 493.998 3.38398 3.73501 0
M  V30 5258 H 493.6 3.14938 2.01717 0
M  V30 5259 H 495.892 4.94486 4.6313 0
M  V30 5260 H 496.835 6.08554 3.62033 0
M  V30 5261 H 497.243 4.34409 3.60485 0
M  V30 5262 N 496.642 -0.504142 1.49319 0
M  V30 5263 C 497.89 -1.25598 1.58334 0
M  V30 5264 C 498.211 -1.93114 0.270538 0
M  V30 5265 O 497.481 -1.82585 -0.709891 0
M  V30 5266 H 496.061 -0.466571 0.58337 0
M  V30 5267 H 498.723 -0.584547 1.85928 0
M  V30 5268 H 497.819 -2.02159 2.37778 0
M  V30 5269 N 498.12 -1.38341 -0.754957 0
M  V30 5270 C 499.053 -1.29837 -1.87663 0
M  V30 5271 C 500.031 -0.175659 -1.61648 0
M  V30 5272 O 501.215 -0.352745 -1.8517 0
M  V30 5273 C 498.342 -1.01141 -3.23246 0
M  V30 5274 C 497.388 -2.15331 -3.6815 0
M  V30 5275 S 498.221 -3.77459 -3.79849 0
M  V30 5276 C 499.377 -3.50948 -5.18253 0
M  V30 5277 H 499.61 -2.24771 -1.9459 0
M  V30 5278 H 497.143 -1.24161 -0.917796 0
M  V30 5279 H 499.101 -0.852687 -4.01546 0
M  V30 5280 H 497.762 -0.0792784 -3.14 0
M  V30 5281 H 496.955 -1.90795 -4.6649 0
M  V30 5282 H 496.557 -2.27304 -2.97 0
M  V30 5283 H 498.849 -3.06977 -6.03963 0
M  V30 5284 H 499.792 -4.48677 -5.47809 0
M  V30 5285 H 500.2 -2.85492 -4.86985 0
M  V30 5286 N 499.598 0.982988 -1.23187 0
M  V30 5287 C 500.846 1.72052 -1.06031 0
M  V30 5288 C 501.167 1.90769 0.404019 0
M  V30 5289 O 500.437 1.47446 1.28982 0
M  V30 5290 H 499.017 0.637499 -0.389363 0
M  V30 5291 H 501.679 1.18338 -1.54862 0
M  V30 5292 H 500.775 2.7111 -1.54615 0
M  V30 5293 N 501.076 1.04316 1.18135 0
M  V30 5294 C 502.304 0.768117 1.92113 0
M  V30 5295 C 502.719 -0.675057 1.76319 0
M  V30 5296 O 502.076 -1.46038 1.09449 0
M  V30 5297 C 502.127 1.12808 3.43448 0
M  V30 5298 O 501.848 2.5146 3.58747 0
M  V30 5299 C 503.349 0.8779 4.3452 0
M  V30 5300 H 500.569 0.279937 0.609817 0
M  V30 5301 H 503.113 1.39149 1.49859 0
M  V30 5302 H 501.268 0.549623 3.83481 0
M  V30 5303 H 501.682 2.65313 4.52448 0
M  V30 5304 H 503.156 1.17959 5.39249 0
M  V30 5305 H 503.633 -0.187239 4.38801 0
M  V30 5306 H 504.239 1.43977 4.00188 0
M  V30 5307 N 502.554 -1.34406 0.822964 0
M  V30 5308 C 503.502 -2.31428 0.233165 0
M  V30 5309 C 504.496 -1.57404 -0.626118 0
M  V30 5310 O 505.702 -1.72402 -0.517453 0
M  V30 5311 H 502.077 -0.749863 0.0566557 0
M  V30 5312 H 504.048 -2.78699 1.06628 0
M  V30 5313 C 502.797 -3.42653 -0.590264 0
M  V30 5314 H 502.12 -3.99753 0.0616129 0
M  V30 5315 H 503.56 -4.12778 -0.969054 0
M  V30 5316 C 502.019 -2.87112 -1.76262 0
M  V30 5317 O 502.549 -2.81995 -2.8608 0
M  V30 5318 N 500.755 -2.43934 -1.57938 0
M  V30 5319 H 500.302 -2.48296 -0.686078 0
M  V30 5320 H 500.26 -2.07123 -2.36532 0
M  V30 5321 N 504.032 -0.577932 -1.46621 0
M  V30 5322 C 504.962 0.145917 -2.33044 0
M  V30 5323 C 505.943 0.888412 -1.45056 0
M  V30 5324 O 507.128 0.864812 -1.73881 0
M  V30 5325 C 504.258 1.16322 -3.27241 0
M  V30 5326 C 503.212 0.535868 -4.24632 0
M  V30 5327 C 502.538 1.65929 -5.08303 0
M  V30 5328 C 503.838 -0.523861 -5.19666 0
M  V30 5329 H 505.532 -0.575636 -2.93814 0
M  V30 5330 H 503.078 -0.278272 -1.41286 0
M  V30 5331 H 505.031 1.67793 -3.86553 0
M  V30 5332 H 503.755 1.91498 -2.64567 0
M  V30 5333 H 502.414 0.0422759 -3.66576 0
M  V30 5334 H 502.062 2.40061 -4.42018 0
M  V30 5335 H 501.762 1.2452 -5.74255 0
M  V30 5336 H 503.286 2.17686 -5.70478 0
M  V30 5337 H 504.7 -0.0944059 -5.73222 0
M  V30 5338 H 503.097 -0.858 -5.93935 0
M  V30 5339 H 504.167 -1.41197 -4.63887 0
M  V30 5340 N 505.51 1.54411 -0.315457 0
M  V30 5341 C 506.758 2.00023 0.288971 0
M  V30 5342 C 507.079 1.20529 1.5329 0
M  V30 5343 O 506.349 0.304986 1.93511 0
M  V30 5344 H 504.929 0.738891 0.109766 0
M  V30 5345 H 507.591 1.90094 -0.430129 0
M  V30 5346 H 506.687 3.07198 0.550999 0
M  V30 5347 N 506.988 0.0434614 1.5754 0
M  V30 5348 C 507.936 -0.951465 2.1225 0
M  V30 5349 C 508.93 -1.3274 1.05245 0
M  V30 5350 O 510.136 -1.30795 1.23663 0
M  V30 5351 H 506.511 -0.324667 0.678303 0
M  V30 5352 H 508.482 -0.464855 2.94757 0
M  V30 5353 C 507.231 -2.21972 2.67626 0
M  V30 5354 H 506.554 -1.93923 3.4962 0
M  V30 5355 H 507.994 -2.89765 3.09536 0
M  V30 5356 C 506.453 -2.95919 1.61038 0
M  V30 5357 O 506.983 -3.8857 1.01862 0
M  V30 5358 N 505.189 -2.58511 1.32741 0
M  V30 5359 H 504.736 -1.83244 1.81051 0
M  V30 5360 H 504.694 -3.08296 0.616531 0
M  V30 5361 N 508.466 -1.55915 -0.229846 0
M  V30 5362 C 509.694 -1.82617 -0.972562 0
M  V30 5363 C 510.109 -0.621488 -1.78278 0
M  V30 5364 O 509.466 0.409956 -1.77836 0
M  V30 5365 C 509.517 -3.0774 -1.89679 0
M  V30 5366 O 509.238 -4.23559 -1.11934 0
M  V30 5367 C 510.739 -3.47368 -2.75409 0
M  V30 5368 H 507.959 -0.60727 -0.285419 0
M  V30 5369 H 510.503 -2.02996 -0.247579 0
M  V30 5370 H 508.658 -2.89361 -2.57583 0
M  V30 5371 H 509.072 -4.94586 -1.74599 0
M  V30 5372 H 510.546 -4.37977 -3.35977 0
M  V30 5373 H 511.023 -2.68737 -3.47386 0
M  V30 5374 H 511.629 -3.68158 -2.12931 0
M  V30 5375 N 509.944 0.496216 -1.49584 0
M  V30 5376 C 510.874 1.60576 -1.69521 0
M  V30 5377 C 511.855 1.61169 -0.543933 0
M  V30 5378 O 513.04 1.77834 -0.78031 0
M  V30 5379 C 510.17 2.99038 -1.76616 0
M  V30 5380 C 509.124 3.13312 -2.91581 0
M  V30 5381 C 508.45 4.53172 -2.83794 0
M  V30 5382 C 509.75 2.92886 -4.32452 0
M  V30 5383 H 511.444 1.44146 -2.62416 0
M  V30 5384 H 508.99 0.692024 -1.26282 0
M  V30 5385 H 510.943 3.76564 -1.8915 0
M  V30 5386 H 509.667 3.16568 -0.80324 0
M  V30 5387 H 508.326 2.38213 -2.78658 0
M  V30 5388 H 507.974 4.67585 -1.854 0
M  V30 5389 H 507.674 4.63662 -3.60958 0
M  V30 5390 H 509.198 5.32752 -2.98342 0
M  V30 5391 H 510.612 3.60178 -4.46032 0
M  V30 5392 H 509.009 3.14844 -5.10875 0
M  V30 5393 H 510.079 1.88966 -4.46565 0
M  V30 5394 N 511.423 1.38739 0.74761 0
M  V30 5395 C 512.333 1.38696 1.89211 0
M  V30 5396 C 513.349 0.283303 1.71678 0
M  V30 5397 O 514.525 0.522713 1.94498 0
M  V30 5398 C 511.59 1.21662 3.24653 0
M  V30 5399 C 510.651 2.41886 3.54669 0
M  V30 5400 C 509.884 2.25655 4.83648 0
M  V30 5401 O 510.107 1.25339 5.56459 0
M  V30 5402 O 509.041 3.14372 5.13277 0
M  V30 5403 H 512.867 2.35143 1.92202 0
M  V30 5404 H 510.452 1.19721 0.893708 0
M  V30 5405 H 512.334 1.14246 4.05618 0
M  V30 5406 H 511.009 0.283024 3.2246 0
M  V30 5407 H 509.916 2.54877 2.73841 0
M  V30 5408 H 511.249 3.33895 3.61628 0
M  V30 5409 N 512.901 -0.976442 1.23707 0
M  V30 5410 C 513.864 -2.0511 1.02287 0
M  V30 5411 C 514.864 -1.60791 -0.0167195 0
M  V30 5412 O 516.054 -1.72761 0.223408 0
M  V30 5413 C 513.186 -3.36458 0.548507 0
M  V30 5414 H 514.379 -2.25545 1.9766 0
M  V30 5415 H 511.932 -1.15042 1.05806 0
M  V30 5416 H 512.667 -3.21713 -0.408818 0
M  V30 5417 H 512.452 -3.69967 1.29874 0
M  V30 5418 H 513.942 -4.15489 0.419406 0
M  V30 5419 N 514.379 -1.04941 -1.1758 0
M  V30 5420 C 515.79 -0.784501 -1.69418 0
M  V30 5421 C 516.141 0.693625 -1.8353 0
M  V30 5422 O 515.266 1.53925 -1.52106 0
M  V30 5423 C 515.861 -1.41746 -3.07723 0
M  V30 5424 C 514.42 -1.20066 -3.56737 0
M  V30 5425 C 513.567 -1.5026 -2.33061 0
M  V30 5426 H 516.518 -1.21469 -1.02133 0
M  V30 5427 H 516.539 -0.825381 -3.7144 0
M  V30 5428 H 516.051 -2.49325 -2.9742 0
M  V30 5429 H 514.152 -0.144006 -3.72322 0
M  V30 5430 H 514.265 -1.90384 -4.39648 0
M  V30 5431 H 512.629 -0.922598 -2.37403 0
M  V30 5432 H 513.412 -2.58967 -2.25368 0
M  V30 5433 N 515.857 1.33968 -0.830081 0
M  V30 5434 C 517.087 2.01987 -0.434142 0
M  V30 5435 C 517.495 1.62639 0.96671 0
M  V30 5436 O 516.838 0.831151 1.63822 0
M  V30 5437 C 516.9 3.5648 -0.465018 0
M  V30 5438 C 516.564 4.19176 -1.82045 0
M  V30 5439 C 517.561 4.39181 -2.78237 0
M  V30 5440 C 515.246 4.55792 -2.11089 0
M  V30 5441 C 517.24 4.94937 -4.01642 0
M  V30 5442 C 514.927 5.11258 -3.34752 0
M  V30 5443 C 515.925 5.30775 -4.29845 0
M  V30 5444 O 515.613 5.85064 -5.51322 0
M  V30 5445 H 515.345 0.653847 -0.171639 0
M  V30 5446 H 517.899 1.72066 -1.12171 0
M  V30 5447 H 516.129 3.8569 0.279284 0
M  V30 5448 H 517.818 4.05804 -0.0881334 0
M  V30 5449 H 518.584 4.11249 -2.57097 0
M  V30 5450 H 514.463 4.39901 -1.3787 0
M  V30 5451 H 518.007 5.10086 -4.75876 0
M  V30 5452 H 513.904 5.38619 -3.55753 0
M  V30 5453 H 514.672 6.03489 -5.5294 0
M  V30 5454 N 517.335 0.585699 1.46312 0
M  V30 5455 C 518.245 -0.148236 2.34131 0
M  V30 5456 C 519.261 -0.882972 1.49932 0
M  V30 5457 O 520.437 -0.845484 1.82794 0
M  V30 5458 C 517.502 -1.14714 3.27172 0
M  V30 5459 C 516.563 -0.416746 4.27272 0
M  V30 5460 C 515.796 -1.36806 5.15868 0
M  V30 5461 O 516.019 -2.60475 5.07454 0
M  V30 5462 O 514.953 -0.877018 5.95476 0
M  V30 5463 H 518.779 0.572882 2.98248 0
M  V30 5464 H 516.364 0.346082 1.45336 0
M  V30 5465 H 518.246 -1.72303 3.84564 0
M  V30 5466 H 516.921 -1.84967 2.65648 0
M  V30 5467 H 515.828 0.201061 3.73559 0
M  V30 5468 H 517.161 0.244872 4.9159 0
M  V30 5469 N 518.813 -1.54241 0.323641 0
M  V30 5470 C 520.061 -2.00174 -0.278359 0
M  V30 5471 C 520.382 -1.2134 -1.52648 0
M  V30 5472 O 519.652 -0.315244 -1.93347 0
M  V30 5473 H 518.232 -0.739463 -0.105845 0
M  V30 5474 H 520.894 -1.89864 0.440204 0
M  V30 5475 H 519.99 -3.07486 -0.5347 0
M  V30 5476 N 520.291 -0.0518155 -1.57515 0
M  V30 5477 C 521.516 0.634896 -1.97443 0
M  V30 5478 C 521.941 1.63546 -0.929207 0
M  V30 5479 O 521.299 1.80981 0.107484 0
M  V30 5480 C 521.347 1.29765 -3.36442 0
M  V30 5481 O 520.451 2.41333 -3.34413 0
M  V30 5482 H 519.792 0.164994 -0.643174 0
M  V30 5483 H 522.322 -0.120407 -2.04245 0
M  V30 5484 H 522.332 1.64918 -3.73184 0
M  V30 5485 H 521.007 0.564361 -4.12053 0
M  V30 5486 H 519.584 2.08122 -3.09418 0
M  V30 5487 N 521.769 1.56035 0.221574 0
M  V30 5488 C 523.015 1.80221 0.942973 0
M  V30 5489 C 523.37 0.624799 1.81973 0
M  V30 5490 O 522.663 -0.381145 1.87771 0
M  V30 5491 C 522.857 3.07813 1.8162 0
M  V30 5492 C 522.686 4.37852 1.02548 0
M  V30 5493 C 521.456 5.00138 0.720418 0
M  V30 5494 C 523.654 5.12813 0.390799 0
M  V30 5495 N 521.636 6.13831 -0.0917139 0
M  V30 5496 C 523.007 6.19346 -0.284728 0
M  V30 5497 C 525.062 4.96972 0.303828 0
M  V30 5498 C 523.765 7.11758 -1.03891 0
M  V30 5499 C 525.791 5.89784 -0.436883 0
M  V30 5500 C 525.153 6.95743 -1.10095 0
M  V30 5501 H 521.252 0.711117 0.325325 0
M  V30 5502 H 523.836 1.93522 0.213854 0
M  V30 5503 H 522.007 2.95795 2.51714 0
M  V30 5504 H 523.739 3.20191 2.47508 0
M  V30 5505 H 520.494 4.62075 1.03843 0
M  V30 5506 H 520.918 6.75249 -0.486615 0
M  V30 5507 H 525.56 4.15107 0.802896 0
M  V30 5508 H 523.278 7.93105 -1.54949 0
M  V30 5509 H 526.864 5.79603 -0.505181 0
M  V30 5510 H 525.744 7.66322 -1.66495 0
M  V30 5511 N 523.247 -0.488276 1.49845 0
M  V30 5512 C 524.472 -1.26997 1.63971 0
M  V30 5513 C 524.897 -1.85427 0.315994 0
M  V30 5514 O 524.255 -1.66475 -0.718032 0
M  V30 5515 C 524.303 -2.36689 2.72049 0
M  V30 5516 O 523.407 -3.40882 2.32107 0
M  V30 5517 H 522.748 -0.374376 0.548396 0
M  V30 5518 H 525.278 -0.583104 1.96115 0
M  V30 5519 H 525.288 -2.82262 2.94605 0
M  V30 5520 H 523.963 -1.93529 3.68129 0
M  V30 5521 H 522.54 -3.01139 2.19931 0
M  V30 5522 N 524.725 -1.39134 -0.740242 0
M  V30 5523 C 525.672 -1.37434 -1.8542 0
M  V30 5524 C 526.642 -0.234822 -1.64432 0
M  V30 5525 O 527.827 -0.429125 -1.85912 0
M  V30 5526 C 524.967 -1.21844 -3.22875 0
M  V30 5527 C 524.08 -2.45296 -3.55603 0
M  V30 5528 C 523.215 -2.22334 -4.82432 0
M  V30 5529 C 522.254 -3.41488 -5.07988 0
M  V30 5530 N 521.391 -3.17877 -6.26018 0
M  V30 5531 H 526.231 -2.3266 -1.86207 0
M  V30 5532 H 523.768 -1.15578 -0.909946 0
M  V30 5533 H 525.726 -1.10818 -4.02213 0
M  V30 5534 H 524.356 -0.3025 -3.21379 0
M  V30 5535 H 523.408 -2.66945 -2.71006 0
M  V30 5536 H 524.72 -3.34063 -3.7041 0
M  V30 5537 H 523.874 -2.0852 -5.69741 0
M  V30 5538 H 522.613 -1.30954 -4.6979 0
M  V30 5539 H 521.618 -3.55807 -4.19144 0
M  V30 5540 H 522.843 -4.33763 -5.22519 0
M  V30 5541 H 520.789 -2.29156 -6.14673 0
M  V30 5542 H 520.706 -4.00198 -6.41387 0
M  V30 5543 H 521.974 -3.07746 -7.16179 0
M  V30 5544 N 526.204 0.969867 -1.24223 0
M  V30 5545 C 527.429 1.75289 -1.10853 0
M  V30 5546 C 527.854 1.85091 0.335079 0
M  V30 5547 O 527.212 1.32024 1.24255 0
M  V30 5548 C 527.26 3.15255 -1.75062 0
M  V30 5549 O 526.364 3.99589 -1.01992 0
M  V30 5550 H 525.705 0.538904 -0.387915 0
M  V30 5551 H 528.235 1.21675 -1.64488 0
M  V30 5552 H 528.245 3.65787 -1.80731 0
M  V30 5553 H 526.92 3.07436 -2.801 0
M  V30 5554 H 525.497 3.58077 -1.04094 0
M  V30 5555 N 527.682 1.05563 1.17022 0
M  V30 5556 C 528.645 0.664098 2.19368 0
M  V30 5557 C 529.645 -0.286358 1.5823 0
M  V30 5558 O 530.835 -0.069728 1.7406 0
M  V30 5559 C 527.967 -0.0239932 3.40892 0
M  V30 5560 H 529.16 1.57 2.55521 0
M  V30 5561 H 526.713 0.849964 1.31169 0
M  V30 5562 H 527.448 -0.942988 3.10287 0
M  V30 5563 H 527.233 0.659351 3.86516 0
M  V30 5564 H 528.723 -0.283909 4.16634 0
M  V30 5565 N 529.16 -1.33526 0.837174 0
M  V30 5566 C 530.093 -2.27192 0.214233 0
M  V30 5567 C 531.071 -1.49575 -0.637657 0
M  V30 5568 O 532.255 -1.78753 -0.598291 0
M  V30 5569 C 529.382 -3.31401 -0.699367 0
M  V30 5570 C 528.428 -4.26431 0.0768429 0
M  V30 5571 S 529.261 -5.15954 1.4336 0
M  V30 5572 C 530.417 -6.23692 0.525251 0
M  V30 5573 H 530.65 -2.79679 1.00831 0
M  V30 5574 H 528.183 -1.4079 0.633834 0
M  V30 5575 H 530.141 -3.91924 -1.22088 0
M  V30 5576 H 528.802 -2.77732 -1.46709 0
M  V30 5577 H 527.995 -5.00193 -0.618268 0
M  V30 5578 H 527.597 -3.70235 0.529364 0
M  V30 5579 H 529.889 -6.76931 -0.277575 0
M  V30 5580 H 530.832 -6.97283 1.23299 0
M  V30 5581 H 531.24 -5.64398 0.107351 0
M  V30 5582 N 530.638 -0.59345 -1.46 0
M  V30 5583 C 531.548 0.135817 -2.34207 0
M  V30 5584 C 532.564 0.875008 -1.50398 0
M  V30 5585 O 533.74 0.835778 -1.83239 0
M  V30 5586 C 530.805 1.12977 -3.27776 0
M  V30 5587 C 529.866 0.394081 -4.27487 0
M  V30 5588 C 529.099 1.34068 -5.16586 0
M  V30 5589 O 529.322 2.5778 -5.08828 0
M  V30 5590 O 528.256 0.845426 -5.95933 0
M  V30 5591 H 532.082 -0.588691 -2.9794 0
M  V30 5592 H 529.667 -0.353784 -1.45151 0
M  V30 5593 H 531.549 1.70261 -3.85473 0
M  V30 5594 H 530.224 1.83556 -2.66625 0
M  V30 5595 H 529.131 -0.220869 -3.73447 0
M  V30 5596 H 530.464 -0.270939 -4.91454 0
M  V30 5597 N 532.116 1.54067 -0.331816 0
M  V30 5598 C 533.346 2.04833 0.269605 0
M  V30 5599 C 533.754 1.20714 1.45687 0
M  V30 5600 O 533.097 0.232539 1.82222 0
M  V30 5601 C 533.159 3.51386 0.759499 0
M  V30 5602 C 532.823 4.55971 -0.306557 0
M  V30 5603 C 533.82 5.07126 -1.14538 0
M  V30 5604 C 531.505 5.00216 -0.457116 0
M  V30 5605 C 533.499 6.01096 -2.12042 0
M  V30 5606 C 531.186 5.93999 -1.43556 0
M  V30 5607 C 532.184 6.44326 -2.26568 0
M  V30 5608 O 531.872 7.36267 -3.22749 0
M  V30 5609 H 531.604 0.673509 0.0579763 0
M  V30 5610 H 534.158 1.99748 -0.478521 0
M  V30 5611 H 532.388 3.53896 1.55867 0
M  V30 5612 H 534.077 3.85184 1.28017 0
M  V30 5613 H 534.843 4.73716 -1.04009 0
M  V30 5614 H 530.722 4.60652 0.179142 0
M  V30 5615 H 534.266 6.40302 -2.76873 0
M  V30 5616 H 530.163 6.26825 -1.54146 0
M  V30 5617 H 530.931 7.54165 -3.18083 0
M  V30 5618 N 533.594 0.0601682 1.57485 0
M  V30 5619 C 534.824 -0.620037 1.97076 0
M  V30 5620 C 535.232 -1.64381 0.936784 0
M  V30 5621 O 534.575 -1.83497 -0.0863377 0
M  V30 5622 C 534.637 -1.35617 3.32939 0
M  V30 5623 C 534.301 -0.487208 4.54396 0
M  V30 5624 C 535.298 0.250428 5.19297 0
M  V30 5625 C 532.983 -0.415494 5.00579 0
M  V30 5626 C 534.977 1.04812 6.28723 0
M  V30 5627 C 532.664 0.385879 6.0988 0
M  V30 5628 C 533.662 1.11637 6.73815 0
M  V30 5629 O 533.35 1.90454 7.81014 0
M  V30 5630 H 533.082 -0.173664 0.653312 0
M  V30 5631 H 535.636 0.1256 2.05016 0
M  V30 5632 H 533.866 -2.14763 3.2158 0
M  V30 5633 H 535.555 -1.92749 3.57215 0
M  V30 5634 H 536.321 0.204546 4.84568 0
M  V30 5635 H 532.2 -0.973679 4.506 0
M  V30 5636 H 535.744 1.6188 6.78558 0
M  V30 5637 H 531.641 0.433366 6.44044 0
M  V30 5638 H 532.409 1.82762 7.97835 0
M  V30 5639 N 535.072 -1.5615 -0.213296 0
M  V30 5640 C 536.319 -1.79546 -0.936462 0
M  V30 5641 C 536.647 -0.630337 -1.84003 0
M  V30 5642 O 535.902 0.384883 -1.91878 0
M  V30 5643 C 536.201 -3.08772 -1.79985 0
M  V30 5644 C 535.867 -4.38532 -1.04882 0
M  V30 5645 C 534.529 -4.73787 -0.841393 0
M  V30 5646 C 536.881 -5.18609 -0.51907 0
M  V30 5647 C 534.209 -5.86627 -0.0924403 0
M  V30 5648 C 536.561 -6.32229 0.216581 0
M  V30 5649 C 535.225 -6.6608 0.435191 0
M  V30 5650 H 534.495 -0.657004 -0.342676 0
M  V30 5651 H 537.142 -1.9041 -0.204051 0
M  V30 5652 H 535.447 -2.93065 -2.60038 0
M  V30 5653 H 537.144 -3.24077 -2.36168 0
M  V30 5654 H 533.734 -4.10855 -1.22048 0
M  V30 5655 H 537.918 -4.91801 -0.666775 0
M  V30 5656 H 533.174 -6.11338 0.087081 0
M  V30 5657 H 537.348 -6.93503 0.634538 0
M  V30 5658 H 534.975 -7.5336 1.01746 0
M  V30 5659 N 536.55 0.480323 -1.50102 0
M  V30 5660 C 537.827 1.24159 -1.51142 0
M  V30 5661 C 538.207 2.09605 -0.250818 0
M  V30 5662 O 537.555 2.15274 0.766118 0
M  V30 5663 C 537.765 2.08057 -2.80202 0
M  V30 5664 C 539.113 2.66556 -3.30504 0
M  V30 5665 O 540.137 2.18308 -2.81461 0
M  V30 5666 O 538.996 3.54442 -4.15973 0
M  V30 5667 H 536.09 0.562928 -0.605839 0
M  V30 5668 H 538.636 0.492899 -1.62384 0
M  V30 5669 H 537.408 1.45032 -3.6343 0
M  V30 5670 H 537.031 2.90079 -2.71919 0
M  V30 5671 N 538.028 1.39524 0.732853 0
M  V30 5672 C 539.305 1.27373 1.48444 0
M  V30 5673 C 539.685 -0.115725 2.10783 0
M  V30 5674 O 539.033 -1.12713 1.98766 0
M  V30 5675 C 539.243 2.39966 2.53412 0
M  V30 5676 C 540.591 2.79384 3.19733 0
M  V30 5677 O 541.615 2.39431 2.63725 0
M  V30 5678 O 540.474 3.48353 4.21085 0
M  V30 5679 H 537.568 0.499272 0.659285 0
M  V30 5680 H 540.114 1.51403 0.766496 0
M  V30 5681 H 538.886 3.32845 2.05742 0
M  V30 5682 H 538.509 2.17612 3.32762 0
M  V30 5683 N 539.506 -0.963266 1.24736 0
M  V30 5684 C 540.753 -1.7068 1.0897 0
M  V30 5685 C 541.081 -1.90934 -0.370751 0
M  V30 5686 O 540.336 -1.47155 -1.29011 0
M  V30 5687 C 540.635 -3.09944 1.7796 0
M  V30 5688 C 540.301 -3.09518 3.27887 0
M  V30 5689 C 538.963 -3.09109 3.68789 0
M  V30 5690 C 541.315 -3.03509 4.23712 0
M  V30 5691 C 538.643 -3.00429 5.03944 0
M  V30 5692 C 540.995 -2.96371 5.5888 0
M  V30 5693 C 539.659 -2.94293 5.99123 0
M  V30 5694 H 538.929 -0.624564 0.398749 0
M  V30 5695 H 541.576 -1.12603 1.54896 0
M  V30 5696 H 539.881 -3.71513 1.2444 0
M  V30 5697 H 541.578 -3.66278 1.63222 0
M  V30 5698 H 538.168 -3.10603 2.95337 0
M  V30 5699 H 542.352 -3.0295 3.93109 0
M  V30 5700 H 537.608 -2.97183 5.34314 0
M  V30 5701 H 541.782 -2.90681 6.32833 0
M  V30 5702 H 539.409 -2.87322 7.03811 0
M  V30 5703 N 540.985 -1.06182 -1.16461 0
M  V30 5704 C 541.932 -0.671613 -2.20812 0
M  V30 5705 C 542.902 0.331186 -1.62765 0
M  V30 5706 O 544.087 0.22033 -1.89524 0
M  V30 5707 C 541.227 -0.063029 -3.45042 0
M  V30 5708 C 540.34 -1.11587 -4.1734 0
M  V30 5709 C 539.475 -0.473546 -5.29085 0
M  V30 5710 C 538.514 -1.51 -5.93182 0
M  V30 5711 N 537.651 -0.891118 -6.96422 0
M  V30 5712 H 542.491 -1.56589 -2.53542 0
M  V30 5713 H 540.028 -0.782951 -1.24532 0
M  V30 5714 H 541.986 0.307344 -4.16066 0
M  V30 5715 H 540.616 0.794663 -3.12866 0
M  V30 5716 H 539.668 -1.60396 -3.44931 0
M  V30 5717 H 540.98 -1.90221 -4.61104 0
M  V30 5718 H 540.134 -0.0501432 -6.06679 0
M  V30 5719 H 538.873 0.344687 -4.8648 0
M  V30 5720 H 537.878 -1.94331 -5.14311 0
M  V30 5721 H 539.103 -2.33031 -6.37866 0
M  V30 5722 H 537.049 -0.0935753 -6.55933 0
M  V30 5723 H 536.966 -1.61486 -7.38551 0
M  V30 5724 H 538.234 -0.492822 -7.77941 0
M  V30 5725 N 542.463 1.3308 -0.844243 0
M  V30 5726 C 543.426 2.27403 -0.286485 0
M  V30 5727 C 544.426 1.51179 0.547872 0
M  V30 5728 O 545.616 1.70421 0.360886 0
M  V30 5729 C 542.748 3.35653 0.595813 0
M  V30 5730 H 543.941 2.78248 -1.11885 0
M  V30 5731 H 541.494 1.43574 -0.617749 0
M  V30 5732 H 542.229 2.90058 1.4504 0
M  V30 5733 H 542.014 3.921 -0.00125994 0
M  V30 5734 H 543.504 4.05958 0.979168 0
M  V30 5735 N 543.941 0.601185 1.45683 0
M  V30 5736 C 544.904 -0.111398 2.28929 0
M  V30 5737 C 545.904 -0.801246 1.39416 0
M  V30 5738 O 547.094 -0.650383 1.61603 0
M  V30 5739 C 544.226 -1.16773 3.20276 0
M  V30 5740 H 545.419 0.620412 2.93413 0
M  V30 5741 H 542.972 0.359946 1.52099 0
M  V30 5742 H 543.707 -1.93051 2.60579 0
M  V30 5743 H 543.492 -0.677358 3.86205 0
M  V30 5744 H 544.982 -1.66698 3.82886 0
M  V30 5745 N 545.419 -1.53889 0.339982 0
M  V30 5746 C 546.667 -2.00458 -0.257112 0
M  V30 5747 C 546.988 -1.22953 -1.51353 0
M  V30 5748 O 546.258 -0.335734 -1.93002 0
M  V30 5749 H 544.838 -0.740544 -0.0979965 0
M  V30 5750 H 547.5 -1.89386 0.460317 0
M  V30 5751 H 546.596 -3.08035 -0.502057 0
M  V30 5752 N 546.897 -0.0685191 -1.57451 0
M  V30 5753 C 548.127 0.609577 -1.97402 0
M  V30 5754 C 548.535 1.63882 -0.945489 0
M  V30 5755 O 547.878 1.8354 0.0766052 0
M  V30 5756 C 547.94 1.3385 -3.33653 0
M  V30 5757 C 547.604 0.463103 -4.54648 0
M  V30 5758 C 548.601 -0.277964 -5.19156 0
M  V30 5759 C 546.286 0.388941 -5.00792 0
M  V30 5760 C 548.28 -1.08145 -6.28159 0
M  V30 5761 C 545.967 -0.418217 -6.09667 0
M  V30 5762 C 546.965 -1.15208 -6.73213 0
M  V30 5763 O 546.653 -1.94594 -7.79993 0
M  V30 5764 H 546.385 0.170197 -0.654224 0
M  V30 5765 H 548.939 -0.13647 -2.04946 0
M  V30 5766 H 547.169 2.13055 -3.22714 0
M  V30 5767 H 548.858 1.90851 -3.58233 0
M  V30 5768 H 549.624 -0.230241 -4.84453 0
M  V30 5769 H 545.503 0.949769 -4.5111 0
M  V30 5770 H 549.047 -1.65476 -6.7769 0
M  V30 5771 H 544.944 -0.467515 -6.43805 0
M  V30 5772 H 545.712 -1.8699 -7.96854 0
M  V30 5773 N 548.375 1.56261 0.205012 0
M  V30 5774 C 549.322 1.93754 1.25411 0
M  V30 5775 C 550.292 0.796826 1.45739 0
M  V30 5776 O 551.477 1.05414 1.59036 0
M  V30 5777 C 548.617 2.27383 2.59598 0
M  V30 5778 C 547.73 3.5447 2.46931 0
M  V30 5779 C 546.865 3.77468 3.73753 0
M  V30 5780 C 545.904 4.98014 3.55877 0
M  V30 5781 N 545.041 5.17316 4.74688 0
M  V30 5782 H 549.881 2.83203 0.92737 0
M  V30 5783 H 547.418 1.40158 0.446574 0
M  V30 5784 H 549.376 2.44895 3.37761 0
M  V30 5785 H 548.006 1.41088 2.90335 0
M  V30 5786 H 547.058 3.45061 1.60116 0
M  V30 5787 H 548.37 4.42789 2.29651 0
M  V30 5788 H 547.524 3.95165 4.60358 0
M  V30 5789 H 546.263 2.87461 3.93976 0
M  V30 5790 H 545.268 4.80249 2.67657 0
M  V30 5791 H 546.493 5.8952 3.37109 0
M  V30 5792 H 544.439 4.30255 4.95194 0
M  V30 5793 H 544.356 5.99796 4.60197 0
M  V30 5794 H 545.624 5.39463 5.62672 0
M  V30 5795 N 549.853 -0.472356 1.50355 0
M  V30 5796 C 550.801 -1.59126 1.69651 0
M  V30 5797 C 551.795 -1.59793 0.56237 0
M  V30 5798 O 553.001 -1.63957 0.742832 0
M  V30 5799 H 549.376 -0.528008 0.535454 0
M  V30 5800 H 551.347 -1.40013 2.63513 0
M  V30 5801 C 550.096 -2.97075 1.8067 0
M  V30 5802 H 549.419 -2.9728 2.67329 0
M  V30 5803 H 550.859 -3.74825 1.98197 0
M  V30 5804 C 549.318 -3.32247 0.558016 0
M  V30 5805 O 549.848 -4.00553 -0.303399 0
M  V30 5806 N 548.054 -2.87659 0.412415 0
M  V30 5807 H 547.601 -2.32246 1.11443 0
M  V30 5808 H 547.559 -3.11556 -0.421908 0
M  V30 5809 N 551.331 -1.39911 -0.725443 0
M  V30 5810 C 552.577 -1.37858 -1.48738 0
M  V30 5811 C 552.91 0.0224187 -1.94187 0
M  V30 5812 O 552.185 0.989204 -1.67466 0
M  V30 5813 C 552.468 -2.3594 -2.72038 0
M  V30 5814 C 552.321 -3.85023 -2.32546 0
M  V30 5815 C 553.64 -2.31704 -3.74167 0
M  V30 5816 H 550.759 -0.502074 -0.539528 0
M  V30 5817 H 553.401 -1.70974 -0.828728 0
M  V30 5818 H 551.551 -2.0783 -3.28236 0
M  V30 5819 H 553.223 -4.2392 -1.81905 0
M  V30 5820 H 551.466 -4.01334 -1.64661 0
M  V30 5821 H 552.137 -4.49152 -3.20884 0
M  V30 5822 H 554.613 -2.5658 -3.27576 0
M  V30 5823 H 553.489 -3.02395 -4.58092 0
M  V30 5824 H 553.75 -1.3253 -4.21768 0
M  V30 5825 N 552.809 0.956637 -1.25245 0
M  V30 5826 C 554.225 1.22733 -1.02023 0
M  V30 5827 C 554.425 1.99761 0.264186 0
M  V30 5828 O 553.481 2.32814 0.977436 0
M  V30 5829 C 554.794 2.00367 -2.24217 0
M  V30 5830 C 556.342 2.13418 -2.28958 0
M  V30 5831 C 556.817 2.9445 -3.50803 0
M  V30 5832 N 558.308 3.02029 -3.51187 0
M  V30 5833 C 559.043 3.65116 -4.42129 0
M  V30 5834 N 558.539 4.2983 -5.43339 0
M  V30 5835 N 560.332 3.62237 -4.29815 0
M  V30 5836 H 552.483 0.441282 -2.07765 0
M  V30 5837 H 554.746 0.257686 -0.912306 0
M  V30 5838 H 554.452 1.51165 -3.17556 0
M  V30 5839 H 554.326 3.01077 -2.27228 0
M  V30 5840 H 556.713 2.61819 -1.36143 0
M  V30 5841 H 556.794 1.1202 -2.29968 0
M  V30 5842 H 556.438 2.46741 -4.43939 0
M  V30 5843 H 556.368 3.9607 -3.47039 0
M  V30 5844 H 558.859 2.56007 -2.77973 0
M  V30 5845 H 559.172 4.75819 -6.08947 0
M  V30 5846 H 557.517 4.28465 -5.47214 0
M  V30 5847 H 560.708 3.10863 -3.49974 0
M  V30 5848 H 560.881 4.11117 -5.00886 0
M  V30 5849 N 554.287 1.06798 1.15896 0
M  V30 5850 C 555.536 0.782796 1.8589 0
M  V30 5851 C 555.849 -0.693498 1.82893 0
M  V30 5852 O 557.055 -1.09325 2.48516 0
M  V30 5853 C 555.511 1.3502 3.33613 0
M  V30 5854 C 555.119 2.8571 3.45071 0
M  V30 5855 C 556.863 1.14278 4.08829 0
M  V30 5856 C 554.77 3.35669 4.86909 0
M  V30 5857 H 553.7 0.289149 0.696354 0
M  V30 5858 H 556.351 1.28734 1.30766 0
M  V30 5859 H 554.733 0.773407 3.88374 0
M  V30 5860 H 555.907 3.49385 3.00445 0
M  V30 5861 H 554.222 3.05178 2.83294 0
M  V30 5862 H 556.819 1.49087 5.13495 0
M  V30 5863 H 557.162 0.0814575 4.1622 0
M  V30 5864 H 557.695 1.68563 3.60321 0
M  V30 5865 H 554.434 4.41302 4.84698 0
M  V30 5866 H 553.954 2.76745 5.32139 0
M  V30 5867 H 555.633 3.31296 5.55745 0
M  V30 5868 N 555.766 -1.3263 0.851289 0
M  V30 5869 C 557.177 -1.79653 0.5081 0
M  V30 5870 C 557.528 -1.70327 -0.973815 0
M  V30 5871 O 556.653 -1.25986 -1.75944 0
M  V30 5872 C 557.248 -3.26196 0.915515 0
M  V30 5873 C 555.807 -3.71187 0.624277 0
M  V30 5874 C 554.954 -2.53804 1.11709 0
M  V30 5875 H 557.905 -1.19976 1.03882 0
M  V30 5876 H 557.926 -3.79801 0.230535 0
M  V30 5877 H 557.438 -3.32952 1.99411 0
M  V30 5878 H 555.539 -3.69948 -0.443737 0
M  V30 5879 H 555.652 -4.64132 1.18821 0
M  V30 5880 H 554.016 -2.48964 0.537484 0
M  V30 5881 H 554.799 -2.63315 2.20272 0
M  V30 5882 N 557.244 -0.608902 -1.45362 0
M  V30 5883 C 558.49 -0.104762 -2.02529 0
M  V30 5884 C 558.823 1.26191 -1.47613 0
M  V30 5885 O 558.098 1.8327 -0.65134 0
M  V30 5886 C 558.381 -0.0672661 -3.60037 0
M  V30 5887 C 558.234 -1.4647 -4.25284 0
M  V30 5888 C 559.553 0.619877 -4.35713 0
M  V30 5889 H 556.672 -0.0395438 -0.735938 0
M  V30 5890 H 559.314 -0.781126 -1.73201 0
M  V30 5891 H 557.464 0.50871 -3.85155 0
M  V30 5892 H 559.136 -2.08785 -4.11347 0
M  V30 5893 H 557.379 -2.02502 -3.83634 0
M  V30 5894 H 558.05 -1.39069 -5.34195 0
M  V30 5895 H 560.526 0.130297 -4.15896 0
M  V30 5896 H 559.402 0.615224 -5.45441 0
M  V30 5897 H 559.663 1.68621 -4.0868 0
M  V30 5898 N 558.722 1.53707 -0.348139 0
M  V30 5899 C 560.138 1.596 0.00361134 0
M  V30 5900 C 560.338 1.36394 1.4832 0
M  V30 5901 O 559.394 1.16046 2.24253 0
M  V30 5902 C 560.707 2.97512 -0.436682 0
M  V30 5903 C 562.255 3.10568 -0.389416 0
M  V30 5904 C 562.73 4.50866 -0.805249 0
M  V30 5905 N 564.221 4.56929 -0.759616 0
M  V30 5906 C 564.956 5.63643 -1.05327 0
M  V30 5907 N 564.452 6.78189 -1.41531 0
M  V30 5908 N 566.245 5.5354 -0.977207 0
M  V30 5909 H 558.396 1.67044 -1.31187 0
M  V30 5910 H 560.659 0.782559 -0.535075 0
M  V30 5911 H 560.365 3.19575 -1.46849 0
M  V30 5912 H 560.239 3.76742 0.185744 0
M  V30 5913 H 562.626 2.88226 0.633228 0
M  V30 5914 H 562.707 2.33387 -1.04711 0
M  V30 5915 H 562.351 4.73943 -1.82593 0
M  V30 5916 H 562.281 5.26452 -0.124989 0
M  V30 5917 H 564.772 3.74675 -0.49265 0
M  V30 5918 H 565.085 7.55541 -1.62411 0
M  V30 5919 H 563.43 6.79624 -1.45381 0
M  V30 5920 H 566.621 4.62932 -0.693675 0
M  V30 5921 H 566.794 6.36614 -1.2094 0
M  V30 5922 N 560.2 0.0768682 1.57412 0
M  V30 5923 C 561.446 -0.585926 1.94778 0
M  V30 5924 C 561.801 -1.66912 0.956982 0
M  V30 5925 O 561.094 -1.9159 -0.0199454 0
M  V30 5926 C 561.288 -1.20268 3.36557 0
M  V30 5927 C 561.117 -0.18076 4.49337 0
M  V30 5928 C 559.887 0.236362 5.04747 0
M  V30 5929 C 562.085 0.583978 5.10974 0
M  V30 5930 N 560.067 1.24846 6.01071 0
M  V30 5931 C 561.438 1.44841 6.02844 0
M  V30 5932 C 563.493 0.639492 4.93776 0
M  V30 5933 C 562.196 2.36343 6.79363 0
M  V30 5934 C 564.222 1.54204 5.70942 0
M  V30 5935 C 563.584 2.39414 6.62465 0
M  V30 5936 H 559.683 -0.185281 0.759734 0
M  V30 5937 H 562.267 0.155193 1.9408 0
M  V30 5938 H 560.438 -1.9137 3.37982 0
M  V30 5939 H 562.17 -1.82636 3.61146 0
M  V30 5940 H 558.925 -0.14777 4.73369 0
M  V30 5941 H 559.349 1.75217 6.53933 0
M  V30 5942 H 563.991 -0.00510074 4.228 0
M  V30 5943 H 561.709 3.01836 7.49614 0
M  V30 5944 H 565.295 1.5899 5.59655 0
M  V30 5945 H 564.175 3.0812 7.21132 0
M  V30 5946 N 561.678 -1.56367 -0.196722 0
M  V30 5947 C 562.955 -1.71359 -0.943159 0
M  V30 5948 C 563.335 -0.631192 -2.01443 0
M  V30 5949 O 562.683 0.358071 -2.25677 0
M  V30 5950 C 562.893 -3.13623 -1.53106 0
M  V30 5951 C 564.241 -3.73806 -2.01381 0
M  V30 5952 O 565.265 -3.16742 -1.62951 0
M  V30 5953 O 564.124 -4.73951 -2.7209 0
M  V30 5954 H 561.218 -0.698851 -0.442195 0
M  V30 5955 H 563.764 -1.68672 -0.186547 0
M  V30 5956 H 562.536 -3.83873 -0.758785 0
M  V30 5957 H 562.159 -3.20532 -2.35255 0
M  V30 5958 N 563.156 0.464375 -1.50603 0
M  V30 5959 C 564.104 1.58224 -1.70493 0
M  V30 5960 C 565.098 1.59492 -0.570836 0
M  V30 5961 O 566.304 1.63561 -0.751517 0
M  V30 5962 H 562.679 0.525161 -0.538247 0
M  V30 5963 H 564.65 1.38613 -2.64252 0
M  V30 5964 C 563.399 2.96113 -1.82243 0
M  V30 5965 H 562.722 2.95858 -2.68901 0
M  V30 5966 H 564.162 3.73769 -2.00182 0
M  V30 5967 C 562.621 3.31946 -0.575628 0
M  V30 5968 O 563.151 4.00708 0.282152 0
M  V30 5969 N 561.357 2.87436 -0.427665 0
M  V30 5970 H 560.904 2.31652 -1.12674 0
M  V30 5971 H 560.862 3.11776 0.405379 0
M  V30 5972 N 564.634 1.40294 0.718013 0
M  V30 5973 C 565.584 1.36847 1.82365 0
M  V30 5974 C 566.568 0.246424 1.59002 0
M  V30 5975 O 567.76 0.485336 1.70216 0
M  V30 5976 C 564.889 1.23105 3.20469 0
M  V30 5977 C 563.975 2.4008 3.49603 0
M  V30 5978 N 564.366 3.65562 3.49568 0
M  V30 5979 C 562.664 2.33407 3.80049 0
M  V30 5980 C 563.365 4.43015 3.76978 0
M  V30 5981 N 562.341 3.72823 3.95606 0
M  V30 5982 H 566.143 2.31811 1.80668 0
M  V30 5983 H 563.657 1.34031 0.91703 0
M  V30 5984 H 565.654 1.18718 3.9964 0
M  V30 5985 H 564.314 0.291056 3.23393 0
M  V30 5986 H 565.325 3.98756 3.30476 0
M  V30 5987 H 562.002 1.47762 3.90478 0
M  V30 5988 H 563.392 5.51859 3.83276 0
M  V30 5989 N 566.112 -0.949982 1.2575 0
M  V30 5990 C 567.34 -1.72972 1.13527 0
M  V30 5991 C 567.755 -1.8623 -0.310453 0
M  V30 5992 O 567.112 -1.36336 -1.2132 0
M  V30 5993 C 567.163 -3.14108 1.78936 0
M  V30 5994 O 566.884 -3.01493 3.17858 0
M  V30 5995 C 568.385 -4.08338 1.72554 0
M  V30 5996 H 565.605 -0.541864 0.395758 0
M  V30 5997 H 568.149 -1.19151 1.66202 0
M  V30 5998 H 566.304 -3.64858 1.30221 0
M  V30 5999 H 566.718 -3.90559 3.50092 0
M  V30 6000 H 568.192 -5.04963 2.22973 0
M  V30 6001 H 568.669 -4.33742 0.690251 0
M  V30 6002 H 569.275 -3.63506 2.2078 0
M  V30 6003 N 567.59 -1.07411 -1.15328 0
M  V30 6004 C 568.523 -0.63913 -2.19067 0
M  V30 6005 C 569.501 0.343929 -1.58921 0
M  V30 6006 O 570.685 0.250207 -1.86832 0
M  V30 6007 C 567.812 0.0613977 -3.38644 0
M  V30 6008 C 566.858 -0.880201 -4.17318 0
M  V30 6009 S 567.691 -2.38152 -4.79629 0
M  V30 6010 C 568.847 -1.69281 -6.02573 0
M  V30 6011 H 569.08 -1.51799 -2.55626 0
M  V30 6012 H 566.613 -0.888138 -1.26299 0
M  V30 6013 H 568.571 0.459323 -4.07922 0
M  V30 6014 H 567.232 0.916605 -3.00428 0
M  V30 6015 H 566.425 -0.336781 -5.02874 0
M  V30 6016 H 566.027 -1.21854 -3.53592 0
M  V30 6017 H 568.319 -1.00488 -6.70006 0
M  V30 6018 H 569.262 -2.52671 -6.61485 0
M  V30 6019 H 569.67 -1.17053 -5.52231 0
M  V30 6020 N 569.068 1.32177 -0.85831 0
M  V30 6021 C 570.484 1.49873 -0.548656 0
M  V30 6022 C 570.684 1.79278 0.919874 0
M  V30 6023 O 569.74 1.86451 1.70271 0
M  V30 6024 C 571.053 2.64043 -1.4388 0
M  V30 6025 C 572.601 2.77928 -1.43961 0
M  V30 6026 C 573.076 3.95182 -2.31506 0
M  V30 6027 N 574.567 4.0245 -2.29321 0
M  V30 6028 C 575.302 4.9242 -2.93786 0
M  V30 6029 N 574.798 5.87373 -3.67376 0
M  V30 6030 N 576.591 4.85572 -2.83155 0
M  V30 6031 H 568.742 1.11357 -1.80868 0
M  V30 6032 H 571.005 0.549175 -0.772729 0
M  V30 6033 H 570.711 2.49055 -2.48324 0
M  V30 6034 H 570.585 3.59912 -1.12885 0
M  V30 6035 H 572.972 2.92338 -0.402813 0
M  V30 6036 H 573.053 1.82762 -1.78974 0
M  V30 6037 H 572.697 3.81531 -3.35256 0
M  V30 6038 H 572.627 4.89633 -1.93823 0
M  V30 6039 H 575.118 3.34507 -1.75822 0
M  V30 6040 H 575.431 6.52728 -4.13722 0
M  V30 6041 H 573.776 5.87388 -3.71484 0
M  V30 6042 H 576.967 4.10363 -2.25211 0
M  V30 6043 H 577.14 5.55486 -3.33676 0
M  V30 6044 N 570.547 0.616602 1.45037 0
M  V30 6045 C 571.775 0.121968 2.0654 0
M  V30 6046 C 572.19 -1.19743 1.45969 0
M  V30 6047 O 571.547 -1.73133 0.577168 0
M  V30 6048 C 571.598 -0.0145171 3.61497 0
M  V30 6049 O 571.319 1.25269 4.19809 0
M  V30 6050 C 572.82 -0.539555 4.40004 0
M  V30 6051 H 570.04 0.0729837 0.667019 0
M  V30 6052 H 572.584 0.846891 1.8614 0
M  V30 6053 H 570.739 -0.689809 3.81209 0
M  V30 6054 H 571.153 1.08816 5.13088 0
M  V30 6055 H 572.627 -0.584112 5.48901 0
M  V30 6056 H 573.104 -1.56368 4.10421 0
M  V30 6057 H 573.71 0.101995 4.25178 0
M  V30 6058 N 572.025 -1.5352 0.356285 0
M  V30 6059 C 573.255 -2.05236 -0.236983 0
M  V30 6060 C 573.663 -1.23016 -1.43749 0
M  V30 6061 O 573.006 -0.2615 -1.81829 0
M  V30 6062 C 573.068 -3.52549 -0.7035 0
M  V30 6063 C 572.732 -4.55425 0.379059 0
M  V30 6064 C 573.729 -5.0524 1.22592 0
M  V30 6065 C 571.414 -4.99425 0.536638 0
M  V30 6066 C 573.408 -5.97647 2.21578 0
M  V30 6067 C 571.095 -5.9164 1.52988 0
M  V30 6068 C 572.093 -6.4064 2.3679 0
M  V30 6069 O 571.781 -7.31039 3.34421 0
M  V30 6070 H 571.513 -0.674346 -0.047254 0
M  V30 6071 H 574.067 -1.98962 0.510238 0
M  V30 6072 H 572.297 -3.56331 -1.50217 0
M  V30 6073 H 573.986 -3.87171 -1.21873 0
M  V30 6074 H 574.752 -4.72002 1.11532 0
M  V30 6075 H 570.631 -4.60879 -0.105834 0
M  V30 6076 H 574.175 -6.35816 2.87025 0
M  V30 6077 H 570.072 -6.24293 1.64099 0
M  V30 6078 H 570.84 -7.49009 3.30041 0
M  V30 6079 N 573.503 -0.0852151 -1.57369 0
M  V30 6080 C 574.914 0.445428 -1.81309 0
M  V30 6081 C 575.265 1.68795 -1.00013 0
M  V30 6082 O 574.39 2.15211 -0.226573 0
M  V30 6083 C 574.985 0.814887 -3.28854 0
M  V30 6084 C 573.544 1.29032 -3.53592 0
M  V30 6085 C 572.691 0.282089 -2.75861 0
M  V30 6086 H 575.642 -0.310771 -1.55627 0
M  V30 6087 H 575.663 1.67524 -3.41637 0
M  V30 6088 H 575.175 -0.0896309 -3.87996 0
M  V30 6089 H 573.276 2.21289 -2.9977 0
M  V30 6090 H 573.389 1.25898 -4.62262 0
M  V30 6091 H 571.753 0.762182 -2.43029 0
M  V30 6092 H 572.536 -0.614936 -3.37748 0
M  V30 6093 N 574.981 1.5647 0.188427 0
M  V30 6094 C 576.211 1.84863 0.922463 0
M  V30 6095 C 576.619 0.666413 1.77075 0
M  V30 6096 O 575.962 -0.374044 1.79852 0
M  V30 6097 C 576.024 3.07447 1.86324 0
M  V30 6098 C 575.688 4.41066 1.19625 0
M  V30 6099 C 576.685 5.16767 0.569946 0
M  V30 6100 C 574.37 4.87802 1.19811 0
M  V30 6101 C 576.364 6.37384 -0.045594 0
M  V30 6102 C 574.051 6.08353 0.57874 0
M  V30 6103 C 575.049 6.82987 -0.0420259 0
M  V30 6104 O 574.737 8.01254 -0.651675 0
M  V30 6105 H 574.469 0.61784 0.274316 0
M  V30 6106 H 577.023 2.04437 0.198613 0
M  V30 6107 H 575.253 2.83774 2.62696 0
M  V30 6108 H 576.942 3.2243 2.46564 0
M  V30 6109 H 577.708 4.81749 0.560601 0
M  V30 6110 H 573.587 4.29662 1.67069 0
M  V30 6111 H 577.131 6.95578 -0.530731 0
M  V30 6112 H 573.028 6.42838 0.58561 0
M  V30 6113 H 573.796 8.16655 -0.549236 0
M  V30 6114 N 576.459 -0.456382 1.50847 0
M  V30 6115 C 577.687 -1.23026 1.66349 0
M  V30 6116 C 578.102 -1.85473 0.352868 0
M  V30 6117 O 577.459 -1.69885 -0.666739 0
M  V30 6118 C 577.51 -2.32827 2.76539 0
M  V30 6119 O 577.231 -1.72938 4.02522 0
M  V30 6120 C 578.732 -3.23448 3.03144 0
M  V30 6121 H 575.952 -0.371527 0.558756 0
M  V30 6122 H 578.496 -0.543082 1.97157 0
M  V30 6123 H 576.651 -2.97294 2.48384 0
M  V30 6124 H 577.065 -2.45357 4.63573 0
M  V30 6125 H 578.539 -3.96669 3.83872 0
M  V30 6126 H 579.016 -3.83094 2.14793 0
M  V30 6127 H 579.622 -2.64702 3.32886 0
M  V30 6128 N 577.937 -1.40673 -0.710563 0
M  V30 6129 C 579.186 -1.38525 -1.46607 0
M  V30 6130 C 579.499 0.0077024 -1.95598 0
M  V30 6131 O 580.705 0.151792 -2.71075 0
M  V30 6132 C 579.161 -2.43489 -2.6503 0
M  V30 6133 C 578.769 -3.88619 -2.22888 0
M  V30 6134 C 580.513 -2.50456 -3.42742 0
M  V30 6135 C 578.42 -4.85168 -3.3818 0
M  V30 6136 H 577.35 -0.515092 -0.550632 0
M  V30 6137 H 580.001 -1.66431 -0.772846 0
M  V30 6138 H 578.383 -2.0869 -3.36548 0
M  V30 6139 H 579.557 -4.32588 -1.58758 0
M  V30 6140 H 577.872 -3.85174 -1.58208 0
M  V30 6141 H 580.469 -3.19776 -4.28541 0
M  V30 6142 H 580.812 -1.53665 -3.86902 0
M  V30 6143 H 581.345 -2.84271 -2.78271 0
M  V30 6144 H 578.084 -5.8331 -2.99047 0
M  V30 6145 H 577.604 -4.4586 -4.01209 0
M  V30 6146 H 579.283 -5.05225 -4.04174 0
M  V30 6147 N 579.415 0.9433 -1.26252 0
M  V30 6148 C 580.692 1.66639 -1.02424 0
M  V30 6149 C 581.072 2.06335 0.446006 0
M  V30 6150 O 580.42 1.78551 1.42589 0
M  V30 6151 C 580.63 2.88019 -1.97094 0
M  V30 6152 C 581.978 3.59718 -2.25584 0
M  V30 6153 O 583.002 2.9812 -1.94943 0
M  V30 6154 O 581.861 4.7066 -2.77743 0
M  V30 6155 H 578.955 0.729643 -0.389294 0
M  V30 6156 H 581.501 0.995218 -1.37454 0
M  V30 6157 H 580.273 2.5556 -2.96319 0
M  V30 6158 H 579.896 3.62863 -1.62532 0
M  V30 6159 N 580.893 1.08022 1.14757 0
M  V30 6160 C 581.84 0.706657 2.19716 0
M  V30 6161 C 582.81 -0.30525 1.63271 0
M  V30 6162 O 583.995 -0.19015 1.8985 0
M  V30 6163 C 581.135 0.117914 3.44898 0
M  V30 6164 C 580.248 1.18212 4.15512 0
M  V30 6165 C 579.383 0.557659 5.28265 0
M  V30 6166 C 578.422 1.60418 5.90705 0
M  V30 6167 N 577.559 1.0018 6.94916 0
M  V30 6168 H 582.399 1.60603 2.51019 0
M  V30 6169 H 579.936 0.802664 1.23271 0
M  V30 6170 H 581.894 -0.241112 4.16503 0
M  V30 6171 H 580.524 -0.744788 3.1409 0
M  V30 6172 H 579.576 1.65863 3.42335 0
M  V30 6173 H 580.888 1.97533 4.5802 0
M  V30 6174 H 580.042 0.146654 6.06523 0
M  V30 6175 H 578.781 -0.267249 4.86967 0
M  V30 6176 H 577.786 2.02489 5.11154 0
M  V30 6177 H 579.011 2.43149 6.34078 0
M  V30 6178 H 576.957 0.197917 6.55701 0
M  V30 6179 H 576.874 1.73216 7.35889 0
M  V30 6180 H 578.142 0.616523 7.77058 0
M  V30 6181 N 582.371 -1.3172 0.865308 0
M  V30 6182 C 583.334 -2.26918 0.322627 0
M  V30 6183 C 584.334 -1.52031 -0.523751 0
M  V30 6184 O 585.524 -1.70973 -0.333727 0
M  V30 6185 C 582.656 -3.36558 -0.542338 0
M  V30 6186 H 583.849 -2.76432 1.16298 0
M  V30 6187 H 581.402 -1.42573 0.640512 0
M  V30 6188 H 582.137 -2.92329 -1.40407 0
M  V30 6189 H 581.922 -3.92048 0.0636395 0
M  V30 6190 H 583.412 -4.07465 -0.91446 0
M  V30 6191 N 583.85 -0.624285 -1.44708 0
M  V30 6192 C 585.096 -0.126051 -2.02107 0
M  V30 6193 C 585.425 1.2496 -1.49048 0
M  V30 6194 O 584.68 1.84163 -0.662005 0
M  V30 6195 C 584.979 -0.0546353 -3.57358 0
M  V30 6196 C 584.644 -1.36815 -4.29642 0
M  V30 6197 C 583.307 -1.72792 -4.49106 0
M  V30 6198 C 585.659 -2.23549 -4.70824 0
M  V30 6199 C 582.986 -2.95222 -5.07012 0
M  V30 6200 C 585.339 -3.45243 -5.30085 0
M  V30 6201 C 584.003 -3.81452 -5.47769 0
M  V30 6202 H 583.273 -0.0461252 -0.739563 0
M  V30 6203 H 585.92 -0.809236 -1.73562 0
M  V30 6204 H 584.225 0.711891 -3.85278 0
M  V30 6205 H 585.922 0.347282 -3.99493 0
M  V30 6206 H 582.512 -1.07817 -4.14817 0
M  V30 6207 H 586.696 -1.9705 -4.55505 0
M  V30 6208 H 581.952 -3.23361 -5.18891 0
M  V30 6209 H 586.125 -4.12689 -5.60946 0
M  V30 6210 H 583.753 -4.76403 -5.92405 0
M  V30 6211 N 585.328 1.53329 -0.364422 0
M  V30 6212 C 586.258 2.28627 0.474543 0
M  V30 6213 C 587.239 1.31009 1.08492 0
M  V30 6214 O 588.424 1.59878 1.10239 0
M  V30 6215 C 585.554 3.07465 1.61501 0
M  V30 6216 C 584.508 4.1276 1.13194 0
M  V30 6217 C 583.834 4.79674 2.36255 0
M  V30 6218 C 585.134 5.21847 0.217507 0
M  V30 6219 H 586.828 2.99005 -0.153656 0
M  V30 6220 H 584.374 1.43803 -0.0753406 0
M  V30 6221 H 586.327 3.58889 2.20855 0
M  V30 6222 H 585.051 2.34775 2.27042 0
M  V30 6223 H 583.71 3.62281 0.56109 0
M  V30 6224 H 583.358 4.03557 3.00251 0
M  V30 6225 H 583.058 5.50827 2.04606 0
M  V30 6226 H 584.582 5.33892 2.96297 0
M  V30 6227 H 585.996 5.6878 0.718493 0
M  V30 6228 H 584.393 6.00099 -0.00806408 0
M  V30 6229 H 585.463 4.7921 -0.740653 0
M  V30 6230 N 586.806 0.0935595 1.57322 0
M  V30 6231 C 588.083 -0.612692 1.85756 0
M  V30 6232 C 588.463 -1.86439 0.99013 0
M  V30 6233 O 587.811 -2.28416 0.0621362 0
M  V30 6234 C 588.021 -0.929547 3.36393 0
M  V30 6235 C 589.369 -1.29366 4.04413 0
M  V30 6236 O 590.393 -1.02061 3.41265 0
M  V30 6237 O 589.252 -1.80498 5.15832 0
M  V30 6238 H 586.346 -0.306444 0.768128 0
M  V30 6239 H 588.892 0.126141 1.69231 0
M  V30 6240 H 587.664 -0.0414766 3.91278 0
M  V30 6241 H 587.287 -1.72441 3.5826 0
M  V30 6242 N 588.284 -1.56567 -0.180126 0
M  V30 6243 C 589.7 -1.50488 -0.531559 0
M  V30 6244 C 589.9 -0.796267 -1.851 0
M  V30 6245 O 588.956 -0.352978 -2.50021 0
M  V30 6246 C 590.269 -2.95201 -0.572456 0
M  V30 6247 C 591.817 -3.05957 -0.660264 0
M  V30 6248 C 592.292 -4.5211 -0.732135 0
M  V30 6249 N 593.783 -4.56322 -0.795262 0
M  V30 6250 C 594.518 -5.66742 -0.871296 0
M  V30 6251 N 594.014 -6.86815 -0.908708 0
M  V30 6252 N 595.807 -5.54691 -0.909639 0
M  V30 6253 H 587.958 -2.01045 0.685165 0
M  V30 6254 H 590.221 -0.915536 0.245962 0
M  V30 6255 H 589.927 -3.50165 0.328208 0
M  V30 6256 H 589.801 -3.49369 -1.422 0
M  V30 6257 H 592.188 -2.51032 -1.55136 0
M  V30 6258 H 592.269 -2.54888 0.215783 0
M  V30 6259 H 591.913 -5.07664 0.154664 0
M  V30 6260 H 591.843 -5.00926 -1.6242 0
M  V30 6261 H 594.334 -3.69868 -0.77499 0
M  V30 6262 H 594.647 -7.66718 -0.967654 0
M  V30 6263 H 592.992 -6.89443 -0.877132 0
M  V30 6264 H 596.183 -4.59804 -0.877353 0
M  V30 6265 H 596.356 -6.40768 -0.965434 0
M  V30 6266 N 589.762 0.448376 -1.51087 0
M  V30 6267 C 591.008 1.20049 -1.6345 0
M  V30 6268 C 591.341 1.91121 -0.344444 0
M  V30 6269 O 590.616 1.83125 0.655396 0
M  V30 6270 C 590.899 2.22624 -2.83038 0
M  V30 6271 C 590.752 1.55708 -4.21989 0
M  V30 6272 C 592.071 3.23718 -2.98152 0
M  V30 6273 H 589.19 0.435085 -0.59487 0
M  V30 6274 H 591.832 0.491183 -1.83541 0
M  V30 6275 H 589.982 2.83117 -2.66039 0
M  V30 6276 H 591.654 0.986367 -4.50631 0
M  V30 6277 H 589.897 0.859647 -4.25197 0
M  V30 6278 H 590.568 2.30357 -5.01637 0
M  V30 6279 H 593.044 2.73269 -3.13788 0
M  V30 6280 H 591.92 3.92795 -3.83411 0
M  V30 6281 H 592.181 3.89179 -2.09743 0
M  V30 6282 N 591.24 1.41047 0.703093 0
M  V30 6283 C 592.15 1.44645 1.84703 0
M  V30 6284 C 593.166 0.337778 1.7069 0
M  V30 6285 O 594.342 0.584327 1.92737 0
M  V30 6286 C 591.407 1.31928 3.20618 0
M  V30 6287 C 590.468 2.53047 3.46794 0
M  V30 6288 C 589.701 2.40927 4.76224 0
M  V30 6289 O 589.924 1.42978 5.5219 0
M  V30 6290 O 588.858 3.30543 5.03016 0
M  V30 6291 H 592.684 2.41139 1.84624 0
M  V30 6292 H 590.269 1.22504 0.855167 0
M  V30 6293 H 592.151 1.27092 4.01778 0
M  V30 6294 H 590.826 0.385469 3.21397 0
M  V30 6295 H 589.733 2.6346 2.65593 0
M  V30 6296 H 591.066 3.45231 3.50822 0
M  V30 6297 N 592.718 -0.936591 1.26751 0
M  V30 6298 C 593.65 -2.03991 1.045 0
M  V30 6299 C 594.663 -1.628 0.00394261 0
M  V30 6300 O 595.852 -1.76817 0.244526 0
M  V30 6301 C 592.952 -3.34218 0.561403 0
M  V30 6302 C 592.125 -4.04151 1.67274 0
M  V30 6303 C 591.184 -5.12651 1.1864 0
M  V30 6304 O 590.21 -5.37104 1.88437 0
M  V30 6305 N 591.412 -5.80488 0.037278 0
M  V30 6306 H 594.177 -2.23644 1.99508 0
M  V30 6307 H 591.738 -1.10638 1.18198 0
M  V30 6308 H 593.73 -4.04101 0.220136 0
M  V30 6309 H 592.3 -3.11203 -0.295211 0
M  V30 6310 H 591.52 -3.28121 2.18472 0
M  V30 6311 H 592.808 -4.47626 2.41885 0
M  V30 6312 H 592.206 -5.63064 -0.545494 0
M  V30 6313 H 590.763 -6.5134 -0.244877 0
M  V30 6314 N 594.196 -1.08629 -1.14182 0
M  V30 6315 C 595.442 -0.818556 -1.85546 0
M  V30 6316 C 595.775 0.654076 -1.82854 0
M  V30 6317 O 595.05 1.48099 -1.26083 0
M  V30 6318 C 595.333 -1.34397 -3.3408 0
M  V30 6319 C 595.186 -2.8821 -3.45333 0
M  V30 6320 C 596.505 -0.971069 -4.29253 0
M  V30 6321 H 593.624 -0.298821 -0.673702 0
M  V30 6322 H 596.266 -1.34629 -1.34071 0
M  V30 6323 H 594.416 -0.895064 -3.78049 0
M  V30 6324 H 596.088 -3.41488 -3.10134 0
M  V30 6325 H 594.331 -3.25756 -2.86471 0
M  V30 6326 H 595.002 -3.20047 -4.49749 0
M  V30 6327 H 597.478 -1.35809 -3.93313 0
M  V30 6328 H 596.354 -1.36586 -5.31635 0
M  V30 6329 H 596.615 0.121659 -4.41933 0
M  V30 6330 N 595.674 1.31259 -0.872281 0
M  V30 6331 C 596.92 1.96913 -0.485083 0
M  V30 6332 C 597.253 1.68774 0.960667 0
M  V30 6333 O 596.528 0.985495 1.67685 0
M  V30 6334 C 596.811 3.52299 -0.745502 0
M  V30 6335 C 596.664 3.90002 -2.24095 0
M  V30 6336 C 597.983 4.39582 -0.213516 0
M  V30 6337 H 595.102 0.715252 -0.177716 0
M  V30 6338 H 597.744 1.55347 -1.09395 0
M  V30 6339 H 595.894 3.87835 -0.227276 0
M  V30 6340 H 597.566 3.64555 -2.82661 0
M  V30 6341 H 595.809 3.38526 -2.71261 0
M  V30 6342 H 596.48 4.98352 -2.37381 0
M  V30 6343 H 598.956 4.10882 -0.656902 0
M  V30 6344 H 597.832 5.47251 -0.42516 0
M  V30 6345 H 598.093 4.33158 0.884666 0
M  V30 6346 N 597.152 0.631951 1.44375 0
M  V30 6347 C 598.429 0.067646 1.95483 0
M  V30 6348 C 598.809 -1.40683 1.57389 0
M  V30 6349 O 598.157 -2.12167 0.848375 0
M  V30 6350 C 598.367 0.291392 3.47781 0
M  V30 6351 C 599.715 0.185028 4.24197 0
M  V30 6352 O 600.739 0.222803 3.55503 0
M  V30 6353 O 599.598 0.0906642 5.46425 0
M  V30 6354 H 596.692 -0.0218379 0.826712 0
M  V30 6355 H 599.238 0.703711 1.54421 0
M  V30 6356 H 598.01 1.31449 3.68561 0
M  V30 6357 H 597.633 -0.378772 3.95792 0
M  V30 6358 N 598.631 -1.53133 0.372548 0
M  V30 6359 C 599.877 -2.02336 -0.207823 0
M  V30 6360 C 600.232 -1.25477 -1.45853 0
M  V30 6361 O 599.525 -0.341971 -1.88524 0
M  V30 6362 C 599.719 -3.53206 -0.545938 0
M  V30 6363 C 599.548 -4.44674 0.670454 0
M  V30 6364 C 598.318 -4.91217 1.18465 0
M  V30 6365 C 600.516 -4.90772 1.53777 0
M  V30 6366 N 598.498 -5.66711 2.36034 0
M  V30 6367 C 599.869 -5.64678 2.56004 0
M  V30 6368 C 601.924 -4.72836 1.55983 0
M  V30 6369 C 600.627 -6.22555 3.60303 0
M  V30 6370 C 602.653 -5.31583 2.59179 0
M  V30 6371 C 602.015 -6.05381 3.6013 0
M  V30 6372 H 598.114 -0.781048 -0.0385783 0
M  V30 6373 H 600.698 -1.87665 0.518664 0
M  V30 6374 H 598.869 -3.68024 -1.24149 0
M  V30 6375 H 600.601 -3.89123 -1.112 0
M  V30 6376 H 597.356 -4.67652 0.748205 0
M  V30 6377 H 597.78 -6.09117 2.95475 0
M  V30 6378 H 602.422 -4.15299 0.792877 0
M  V30 6379 H 600.14 -6.79183 4.37876 0
M  V30 6380 H 603.726 -5.19595 2.61749 0
M  V30 6381 H 602.606 -6.50028 4.38672 0
M  V30 6382 N 600.109 -0.101901 -1.5727 0
M  V30 6383 C 601.334 0.571759 -1.99363 0
M  V30 6384 C 601.759 1.60507 -0.980768 0
M  V30 6385 O 601.117 1.81231 0.0498517 0
M  V30 6386 C 601.165 1.18996 -3.404 0
M  V30 6387 O 600.269 2.30572 -3.41922 0
M  V30 6388 H 599.61 0.144449 -0.648098 0
M  V30 6389 H 602.14 -0.185325 -2.03759 0
M  V30 6390 H 602.15 1.52962 -3.78241 0
M  V30 6391 H 600.825 0.432984 -4.1364 0
M  V30 6392 H 599.402 1.98173 -3.15883 0
M  V30 6393 N 601.587 1.56661 0.17182 0
M  V30 6394 C 602.517 1.99401 1.21498 0
M  V30 6395 C 603.498 0.869516 1.46197 0
M  V30 6396 O 604.683 1.13556 1.57539 0
M  V30 6397 C 601.813 2.35346 2.55401 0
M  V30 6398 C 600.767 3.5075 2.45272 0
M  V30 6399 C 600.093 3.72437 3.8366 0
M  V30 6400 C 601.393 4.84216 1.95787 0
M  V30 6401 H 603.087 2.86792 0.859699 0
M  V30 6402 H 600.633 1.37977 0.412103 0
M  V30 6403 H 602.586 2.63843 3.2858 0
M  V30 6404 H 601.31 1.44864 2.92715 0
M  V30 6405 H 599.969 3.2238 1.74547 0
M  V30 6406 H 599.617 2.79246 4.18367 0
M  V30 6407 H 599.317 4.50087 3.77751 0
M  V30 6408 H 600.841 4.03334 4.58426 0
M  V30 6409 H 602.255 5.11592 2.5874 0
M  V30 6410 H 600.652 5.65498 2.00827 0
M  V30 6411 H 601.722 4.76243 0.912159 0
M  V30 6412 N 603.065 -0.440357 1.51323 0
M  V30 6413 C 604.29 -1.21716 1.67928 0
M  V30 6414 C 604.715 -1.84328 0.374826 0
M  V30 6415 O 604.073 -1.68675 -0.664706 0
M  V30 6416 C 604.121 -2.27914 2.79442 0
M  V30 6417 O 603.225 -3.33325 2.42834 0
M  V30 6418 H 602.566 -0.35674 0.560029 0
M  V30 6419 H 605.096 -0.520417 1.97871 0
M  V30 6420 H 605.106 -2.72746 3.03436 0
M  V30 6421 H 603.781 -1.8172 3.741 0
M  V30 6422 H 602.358 -2.9399 2.294 0
M  V30 6423 N 604.543 -1.41418 -0.695603 0
M  V30 6424 C 605.959 -1.23887 -1.00619 0
M  V30 6425 C 606.159 -0.128206 -2.01092 0
M  V30 6426 O 605.215 0.507408 -2.47349 0
M  V30 6427 C 606.528 -2.58816 -1.53083 0
M  V30 6428 C 608.076 -2.65998 -1.64967 0
M  V30 6429 C 608.551 -4.01244 -2.20833 0
M  V30 6430 N 610.042 -4.0309 -2.28194 0
M  V30 6431 C 610.777 -5.04539 -2.72448 0
M  V30 6432 N 610.273 -6.16378 -3.16306 0
M  V30 6433 N 612.066 -4.91901 -2.72011 0
M  V30 6434 H 604.217 -2.12379 -0.0300061 0
M  V30 6435 H 606.48 -0.944958 -0.0758797 0
M  V30 6436 H 606.186 -3.40842 -0.867147 0
M  V30 6437 H 606.06 -2.81299 -2.51298 0
M  V30 6438 H 608.447 -1.84331 -2.30448 0
M  V30 6439 H 608.528 -2.47325 -0.652982 0
M  V30 6440 H 608.172 -4.83359 -1.55968 0
M  V30 6441 H 608.102 -4.17257 -3.21254 0
M  V30 6442 H 610.593 -3.22341 -1.97242 0
M  V30 6443 H 610.906 -6.89658 -3.487 0
M  V30 6444 H 609.251 -6.19914 -3.14215 0
M  V30 6445 H 612.442 -4.03613 -2.37095 0
M  V30 6446 H 612.615 -5.71102 -3.06181 0
M  V30 6447 N 606.021 0.929856 -1.27246 0
M  V30 6448 C 607.269 1.674 -1.13233 0
M  V30 6449 C 607.59 1.92311 0.322744 0
M  V30 6450 O 606.86 1.52784 1.22612 0
M  V30 6451 H 605.44 0.620411 -0.416052 0
M  V30 6452 H 608.102 1.11663 -1.59741 0
M  V30 6453 H 607.198 2.64308 -1.65975 0
M  V30 6454 N 607.499 1.09233 1.13605 0
M  V30 6455 C 608.746 0.827159 1.84836 0
M  V30 6456 C 609.074 -0.647199 1.83416 0
M  V30 6457 O 608.329 -1.49228 1.26608 0
M  V30 6458 C 608.628 1.305 3.32723 0
M  V30 6459 C 608.294 2.78864 3.54325 0
M  V30 6460 C 606.956 3.19382 3.59928 0
M  V30 6461 C 609.308 3.74532 3.62457 0
M  V30 6462 C 606.636 4.54346 3.71196 0
M  V30 6463 C 608.988 5.09283 3.75252 0
M  V30 6464 C 607.652 5.49394 3.79108 0
M  V30 6465 H 606.922 0.302679 0.676363 0
M  V30 6466 H 609.569 1.36676 1.34134 0
M  V30 6467 H 607.874 0.68517 3.85762 0
M  V30 6468 H 609.571 1.07648 3.86281 0
M  V30 6469 H 606.161 2.46507 3.50617 0
M  V30 6470 H 610.345 3.44343 3.57409 0
M  V30 6471 H 605.601 4.84864 3.72447 0
M  V30 6472 H 609.775 5.83269 3.80487 0
M  V30 6473 H 607.402 6.5397 3.87591 0
M  V30 6474 N 608.977 -1.30795 0.87923 0
M  V30 6475 C 610.223 -1.96653 0.495519 0
M  V30 6476 C 610.556 -1.69282 -0.951703 0
M  V30 6477 O 609.831 -0.994374 -1.6716 0
M  V30 6478 C 610.114 -3.51898 0.764174 0
M  V30 6479 C 609.967 -3.88808 2.2616 0
M  V30 6480 C 611.286 -4.39462 0.236825 0
M  V30 6481 H 608.405 -0.7143 0.181507 0
M  V30 6482 H 611.047 -1.54765 1.10217 0
M  V30 6483 H 609.197 -3.87709 0.247841 0
M  V30 6484 H 610.869 -3.63051 2.8459 0
M  V30 6485 H 609.112 -3.37082 2.73053 0
M  V30 6486 H 609.783 -4.97086 2.4002 0
M  V30 6487 H 612.259 -4.10528 0.678683 0
M  V30 6488 H 611.135 -5.47018 0.454176 0
M  V30 6489 H 611.396 -4.33621 -0.861683 0
M  V30 6490 N 610.455 -0.639598 -1.44038 0
M  V30 6491 C 611.683 -0.154811 -2.0632 0
M  V30 6492 C 612.098 1.17406 -1.47856 0
M  V30 6493 O 611.455 1.72193 -0.604638 0
M  V30 6494 C 611.506 -0.0429958 -3.61474 0
M  V30 6495 O 611.227 -1.31932 -4.17763 0
M  V30 6496 C 612.728 0.469486 -4.40807 0
M  V30 6497 H 609.948 -0.0835862 -0.665773 0
M  V30 6498 H 612.492 -0.876397 -1.84769 0
M  V30 6499 H 610.647 0.629075 -3.82258 0
M  V30 6500 H 611.061 -1.16965 -5.11292 0
M  V30 6501 H 612.535 0.496712 -5.49761 0
M  V30 6502 H 613.012 1.49819 -4.12857 0
M  V30 6503 H 613.618 -0.169624 -4.24962 0
M  V30 6504 N 611.933 1.52934 -0.380664 0
M  V30 6505 C 613.182 2.00651 0.205477 0
M  V30 6506 C 613.495 1.27164 1.48623 0
M  V30 6507 O 614.701 1.65547 2.15189 0
M  V30 6508 C 613.157 3.57479 0.416726 0
M  V30 6509 C 612.765 4.39857 -0.850268 0
M  V30 6510 C 614.509 4.13509 0.959702 0
M  V30 6511 C 612.416 5.88269 -0.607773 0
M  V30 6512 H 611.346 0.749684 0.0805614 0
M  V30 6513 H 613.997 1.76508 -0.501732 0
M  V30 6514 H 612.379 3.77836 1.18557 0
M  V30 6515 H 613.553 4.31269 -1.62307 0
M  V30 6516 H 611.868 3.95005 -1.31756 0
M  V30 6517 H 614.465 5.22039 1.15669 0
M  V30 6518 H 614.808 3.69054 1.92626 0
M  V30 6519 H 615.341 3.9701 0.250645 0
M  V30 6520 H 612.08 6.3703 -1.54509 0
M  V30 6521 H 611.6 5.99667 0.126247 0
M  V30 6522 H 613.279 6.46558 -0.239014 0
M  V30 6523 N 613.412 0.11024 1.57214 0
M  V30 6524 C 614.661 -0.549638 1.94067 0
M  V30 6525 C 614.974 -1.68388 0.995234 0
M  V30 6526 O 616.18 -2.40593 1.25807 0
M  V30 6527 C 614.636 -1.02912 3.44873 0
M  V30 6528 C 614.244 0.0761861 4.47935 0
M  V30 6529 C 615.988 -1.66087 3.9066 0
M  V30 6530 C 613.895 -0.419502 5.8991 0
M  V30 6531 H 612.825 -0.209092 0.724428 0
M  V30 6532 H 615.476 0.188683 1.82527 0
M  V30 6533 H 613.858 -1.82159 3.51616 0
M  V30 6534 H 615.032 0.852185 4.52851 0
M  V30 6535 H 613.347 0.614052 4.11847 0
M  V30 6536 H 615.944 -2.04272 4.94143 0
M  V30 6537 H 616.287 -2.53591 3.30148 0
M  V30 6538 H 616.82 -0.933959 3.86681 0
M  V30 6539 H 613.559 0.419277 6.54158 0
M  V30 6540 H 613.079 -1.16217 5.88433 0
M  V30 6541 H 614.758 -0.883577 6.40938 0
M  V30 6542 N 614.89 -1.56749 -0.16351 0
M  V30 6543 C 615.838 -1.97939 -1.22159 0
M  V30 6544 C 616.832 -0.869288 -1.45395 0
M  V30 6545 O 618.038 -1.05443 -1.45883 0
M  V30 6546 H 614.413 -0.629869 -0.410815 0
M  V30 6547 H 616.384 -2.86115 -0.847381 0
M  V30 6548 C 615.133 -2.36206 -2.55151 0
M  V30 6549 H 614.456 -3.2117 -2.38097 0
M  V30 6550 H 615.896 -2.68863 -3.27854 0
M  V30 6551 C 614.355 -1.20841 -3.14482 0
M  V30 6552 O 614.885 -0.500258 -3.98573 0
M  V30 6553 N 613.091 -0.976943 -2.73686 0
M  V30 6554 H 612.638 -1.55457 -2.05404 0
M  V30 6555 H 612.596 -0.206912 -3.13718 0
M  V30 6556 N 616.368 0.432326 -1.51554 0
M  V30 6557 C 617.593 1.20824 -1.68571 0
M  V30 6558 C 618.018 1.84126 -0.384596 0
M  V30 6559 O 617.376 1.69025 0.655751 0
M  V30 6560 C 617.424 2.26429 -2.80646 0
M  V30 6561 O 616.528 3.32032 -2.44598 0
M  V30 6562 H 615.869 0.353765 -0.561913 0
M  V30 6563 H 618.399 0.509916 -1.98144 0
M  V30 6564 H 618.409 2.71133 -3.04878 0
M  V30 6565 H 617.084 1.79733 -3.75058 0
M  V30 6566 H 615.661 2.92769 -2.30956 0
M  V30 6567 N 617.846 1.41785 0.688094 0
M  V30 6568 C 618.796 1.40684 1.79421 0
M  V30 6569 C 619.78 0.280096 1.58443 0
M  V30 6570 O 620.972 0.521332 1.69148 0
M  V30 6571 C 618.101 1.29874 3.17785 0
M  V30 6572 C 617.187 2.47442 3.44432 0
M  V30 6573 N 617.578 3.72895 3.41736 0
M  V30 6574 C 615.876 2.41416 3.75013 0
M  V30 6575 C 616.577 4.50912 3.67496 0
M  V30 6576 N 615.553 3.81131 3.87608 0
M  V30 6577 H 619.355 2.35591 1.7571 0
M  V30 6578 H 616.869 1.35946 0.888393 0
M  V30 6579 H 618.866 1.27168 3.97031 0
M  V30 6580 H 617.526 0.359587 3.22703 0
M  V30 6581 H 618.537 4.05676 3.21943 0
M  V30 6582 H 615.214 1.56011 3.87256 0
M  V30 6583 H 616.604 5.59865 3.71484 0
M  V30 6584 N 619.324 -0.923095 1.27737 0
M  V30 6585 C 620.274 -2.01061 1.0751 0
M  V30 6586 C 621.258 -1.609 0.00165451 0
M  V30 6587 O 622.45 -1.75618 0.220724 0
M  V30 6588 C 619.579 -3.35467 0.729162 0
M  V30 6589 C 618.665 -3.82059 1.84098 0
M  V30 6590 N 619.056 -4.01115 3.08124 0
M  V30 6591 C 617.354 -4.11135 1.7287 0
M  V30 6592 C 618.055 -4.39989 3.80506 0
M  V30 6593 N 617.031 -4.47721 3.08297 0
M  V30 6594 H 620.833 -2.13832 2.01626 0
M  V30 6595 H 618.347 -1.11027 1.18519 0
M  V30 6596 H 620.344 -4.13049 0.565355 0
M  V30 6597 H 619.004 -3.24056 -0.204334 0
M  V30 6598 H 620.015 -3.87294 3.43836 0
M  V30 6599 H 616.692 -4.08412 0.866352 0
M  V30 6600 H 618.082 -4.62773 4.87125 0
M  V30 6601 N 620.802 -1.09834 -1.13024 0
M  V30 6602 C 622.079 -0.749225 -1.80682 0
M  V30 6603 C 622.459 0.765171 -1.96744 0
M  V30 6604 O 621.807 1.68912 -1.53886 0
M  V30 6605 C 622.017 -1.49311 -3.15448 0
M  V30 6606 C 623.365 -1.66162 -3.90737 0
M  V30 6607 O 624.389 -1.45597 -3.25085 0
M  V30 6608 O 623.248 -2.00211 -5.08505 0
M  V30 6609 H 620.342 -0.269614 -0.781817 0
M  V30 6610 H 622.888 -1.20078 -1.19914 0
M  V30 6611 H 621.66 -2.52407 -2.99009 0
M  V30 6612 H 621.283 -1.034 -3.8392 0
M  V30 6613 N 622.28 1.30327 -0.886154 0
M  V30 6614 C 623.557 1.90922 -0.425217 0
M  V30 6615 C 623.937 1.80533 1.09413 0
M  V30 6616 O 623.285 1.2233 1.92996 0
M  V30 6617 C 623.495 3.36529 -0.924638 0
M  V30 6618 C 624.843 4.13598 -0.960305 0
M  V30 6619 O 625.867 3.45377 -0.871382 0
M  V30 6620 O 624.726 5.35482 -1.09184 0
M  V30 6621 H 621.82 0.81668 -0.130238 0
M  V30 6622 H 624.366 1.38886 -0.975132 0
M  V30 6623 H 623.138 3.38181 -1.96849 0
M  V30 6624 H 622.761 3.96021 -0.353955 0
M  V30 6625 N 623.758 0.647228 1.43697 0
M  V30 6626 C 625.004 0.167001 2.02713 0
M  V30 6627 C 625.359 -1.20351 1.50111 0
M  V30 6628 O 624.652 -1.79047 0.682113 0
M  V30 6629 C 624.846 0.111481 3.57226 0
M  V30 6630 C 624.675 1.47507 4.2482 0
M  V30 6631 C 623.445 2.06594 4.61137 0
M  V30 6632 C 625.643 2.41224 4.54219 0
M  V30 6633 N 623.625 3.3602 5.13774 0
M  V30 6634 C 624.996 3.55278 5.08112 0
M  V30 6635 C 627.051 2.40102 4.36183 0
M  V30 6636 C 625.754 4.68426 5.45866 0
M  V30 6637 C 627.78 3.52326 4.74995 0
M  V30 6638 C 627.142 4.65104 5.29015 0
M  V30 6639 H 623.241 0.105402 0.774864 0
M  V30 6640 H 625.825 0.854229 1.7496 0
M  V30 6641 H 623.996 -0.545073 3.84556 0
M  V30 6642 H 625.728 -0.379063 4.02921 0
M  V30 6643 H 622.483 1.59366 4.45981 0
M  V30 6644 H 622.907 4.02233 5.44552 0
M  V30 6645 H 627.549 1.54151 3.93697 0
M  V30 6646 H 625.267 5.55074 5.87298 0
M  V30 6647 H 628.853 3.52652 4.6274 0
M  V30 6648 H 627.733 5.50506 5.58492 0
M  V30 6649 N 625.236 -1.5273 0.388769 0
M  V30 6650 C 626.485 -2.00757 -0.194833 0
M  V30 6651 C 626.798 -1.27951 -1.47946 0
M  V30 6652 O 628.004 -1.66686 -2.14308 0
M  V30 6653 C 626.46 -3.57695 -0.397762 0
M  V30 6654 C 626.068 -4.394 0.873583 0
M  V30 6655 C 627.812 -4.14012 -0.937759 0
M  V30 6656 C 625.719 -5.87938 0.638962 0
M  V30 6657 H 624.649 -0.750101 -0.0765845 0
M  V30 6658 H 627.3 -1.76239 0.511086 0
M  V30 6659 H 625.682 -3.7846 -1.16552 0
M  V30 6660 H 626.856 -4.30403 1.64591 0
M  V30 6661 H 625.171 -3.94301 1.33849 0
M  V30 6662 H 627.768 -5.22645 -1.12899 0
M  V30 6663 H 628.111 -3.7007 -1.90666 0
M  V30 6664 H 628.644 -3.97137 -0.229588 0
M  V30 6665 H 625.383 -6.36202 1.57885 0
M  V30 6666 H 624.903 -5.99726 -0.094443 0
M  V30 6667 H 626.582 -6.46423 0.273299 0
M  V30 6668 N 626.714 -0.118576 -1.57153 0
M  V30 6669 C 627.661 0.831789 -2.1529 0
M  V30 6670 C 628.631 1.26385 -1.07778 0
M  V30 6671 O 629.816 1.34144 -1.35684 0
M  V30 6672 C 626.956 2.07664 -2.75626 0
M  V30 6673 C 626.069 1.69298 -3.97444 0
M  V30 6674 C 625.204 2.88747 -4.45868 0
M  V30 6675 C 624.243 2.46619 -5.60219 0
M  V30 6676 N 623.38 3.5898 -6.03389 0
M  V30 6677 H 628.22 0.329183 -2.96176 0
M  V30 6678 H 625.757 0.150792 -1.46325 0
M  V30 6679 H 627.715 2.80601 -3.08738 0
M  V30 6680 H 626.345 2.55384 -1.97431 0
M  V30 6681 H 625.397 0.862374 -3.70496 0
M  V30 6682 H 626.709 1.34338 -4.80369 0
M  V30 6683 H 625.863 3.69909 -4.80887 0
M  V30 6684 H 624.602 3.26933 -3.61892 0
M  V30 6685 H 623.607 1.63889 -5.24805 0
M  V30 6686 H 624.832 2.0955 -6.45961 0
M  V30 6687 H 622.778 3.9684 -5.22354 0
M  V30 6688 H 622.695 3.27942 -6.81168 0
M  V30 6689 H 623.963 4.40583 -6.43045 0
M  V30 6690 N 628.193 1.56834 0.155195 0
M  V30 6691 C 629.103 2.009 1.21146 0
M  V30 6692 C 630.119 0.923029 1.475 0
M  V30 6693 O 631.295 1.23189 1.59331 0
M  V30 6694 C 628.36 2.37378 2.52691 0
M  V30 6695 C 627.421 3.59883 2.34057 0
M  V30 6696 C 626.654 3.94612 3.59329 0
M  V30 6697 O 626.877 3.30104 4.65175 0
M  V30 6698 O 625.811 4.87895 3.52479 0
M  V30 6699 H 629.637 2.9105 0.867371 0
M  V30 6700 H 627.222 1.44916 0.363298 0
M  V30 6701 H 629.104 2.61737 3.3026 0
M  V30 6702 H 627.779 1.50385 2.86646 0
M  V30 6703 H 626.686 3.40722 1.54465 0
M  V30 6704 H 628.019 4.47468 2.0502 0
M  V30 6705 N 629.671 -0.424282 1.51781 0
M  V30 6706 C 630.948 -1.18464 1.55646 0
M  V30 6707 C 631.328 -2.08529 0.328438 0
M  V30 6708 O 630.676 -2.17969 -0.685693 0
M  V30 6709 C 630.886 -1.97514 2.87731 0
M  V30 6710 C 632.234 -2.54106 3.40169 0
M  V30 6711 O 633.258 -2.07711 2.89369 0
M  V30 6712 O 632.117 -3.38759 4.28841 0
M  V30 6713 H 629.211 -0.540055 0.626314 0
M  V30 6714 H 631.757 -0.432291 1.64102 0
M  V30 6715 H 630.529 -1.31444 3.68562 0
M  V30 6716 H 630.152 -2.79787 2.82498 0
M  V30 6717 N 631.149 -1.42148 -0.680565 0
M  V30 6718 C 632.379 -1.45485 -1.46689 0
M  V30 6719 C 632.787 -0.0629451 -1.89095 0
M  V30 6720 O 632.13 0.931397 -1.58337 0
M  V30 6721 C 632.192 -2.31397 -2.75129 0
M  V30 6722 C 631.856 -3.79353 -2.54834 0
M  V30 6723 C 632.853 -4.71148 -2.19808 0
M  V30 6724 C 630.538 -4.23557 -2.70008 0
M  V30 6725 C 632.532 -6.05139 -2.00215 0
M  V30 6726 C 630.219 -5.57609 -2.50031 0
M  V30 6727 C 631.217 -6.48216 -2.15187 0
M  V30 6728 O 630.905 -7.79792 -1.95397 0
M  V30 6729 H 630.637 -0.497139 -0.458071 0
M  V30 6730 H 633.191 -1.87252 -0.844139 0
M  V30 6731 H 631.421 -1.84468 -3.39865 0
M  V30 6732 H 633.11 -2.26257 -3.36991 0
M  V30 6733 H 633.876 -4.38282 -2.07686 0
M  V30 6734 H 629.755 -3.53327 -2.96109 0
M  V30 6735 H 633.299 -6.75823 -1.72941 0
M  V30 6736 H 629.196 -5.9005 -2.61748 0
M  V30 6737 H 629.964 -7.91091 -2.10042 0
M  V30 6738 N 632.627 0.916307 -1.28225 0
M  V30 6739 C 633.575 2.03977 -1.11786 0
M  V30 6740 C 634.569 1.69358 -0.0378265 0
M  V30 6741 O 635.775 1.78925 -0.196405 0
M  V30 6742 H 632.15 0.66829 -0.344809 0
M  V30 6743 H 634.121 2.14985 -2.06939 0
M  V30 6744 C 632.87 3.38518 -0.7938 0
M  V30 6745 H 632.193 3.65649 -1.61682 0
M  V30 6746 H 633.633 4.17864 -0.718719 0
M  V30 6747 C 632.092 3.33134 0.502353 0
M  V30 6748 O 632.622 3.71281 1.53341 0
M  V30 6749 N 630.828 2.86229 0.502147 0
M  V30 6750 H 630.375 2.55382 -0.337338 0
M  V30 6751 H 630.333 2.83009 1.36942 0
M  V30 6752 N 634.105 1.10431 1.1244 0
M  V30 6753 C 635.353 0.845045 1.83585 0
M  V30 6754 C 635.674 -0.631168 1.84503 0
M  V30 6755 O 634.944 -1.45825 1.30813 0
M  V30 6756 H 633.524 0.309628 0.679809 0
M  V30 6757 H 636.186 1.39458 1.36153 0
M  V30 6758 H 635.282 1.20786 2.8778 0
M  V30 6759 N 635.583 -1.29855 0.893053 0
M  V30 6760 C 636.531 -2.29867 0.355512 0
M  V30 6761 C 637.525 -1.60502 -0.541801 0
M  V30 6762 O 638.731 -1.74902 -0.425339 0
M  V30 6763 H 635.106 -0.745805 0.0963247 0
M  V30 6764 H 637.077 -2.72655 1.21252 0
M  V30 6765 C 635.826 -3.453 -0.407801 0
M  V30 6766 H 635.149 -3.98864 0.273426 0
M  V30 6767 H 636.589 -4.17334 -0.748887 0
M  V30 6768 C 635.048 -2.96051 -1.60795 0
M  V30 6769 O 635.578 -2.96763 -2.7073 0
M  V30 6770 N 633.784 -2.51963 -1.44786 0
M  V30 6771 H 633.331 -2.51583 -0.553498 0
M  V30 6772 H 633.289 -2.1937 -2.2522 0
M  V30 6773 N 637.061 -0.65484 -1.43351 0
M  V30 6774 C 638.31 -0.166215 -2.01014 0
M  V30 6775 C 638.623 1.22764 -1.52278 0
M  V30 6776 O 639.829 1.81156 -2.02224 0
M  V30 6777 C 638.285 -0.246341 -3.59056 0
M  V30 6778 C 637.893 -1.64299 -4.16785 0
M  V30 6779 C 639.637 0.184597 -4.24098 0
M  V30 6780 C 637.544 -1.67695 -5.67126 0
M  V30 6781 H 636.474 -0.0583769 -0.751737 0
M  V30 6782 H 639.125 -0.817111 -1.64303 0
M  V30 6783 H 637.507 0.472092 -3.93176 0
M  V30 6784 H 638.681 -2.3869 -3.94162 0
M  V30 6785 H 636.996 -2.02004 -3.6412 0
M  V30 6786 H 639.593 0.179088 -5.344 0
M  V30 6787 H 639.936 1.21632 -3.98135 0
M  V30 6788 H 640.469 -0.482141 -3.94867 0
M  V30 6789 H 637.208 -2.68783 -5.9786 0
M  V30 6790 H 636.728 -0.976313 -5.91801 0
M  V30 6791 H 638.407 -1.42142 -6.31193 0
M  V30 6792 N 638.539 1.52521 -0.396863 0
M  V30 6793 C 639.449 2.30403 0.44178 0
M  V30 6794 C 640.465 1.37625 1.06468 0
M  V30 6795 O 641.641 1.70697 1.06886 0
M  V30 6796 C 638.706 3.1013 1.54986 0
M  V30 6797 C 637.767 4.18628 0.951279 0
M  V30 6798 C 637 4.94543 2.00655 0
M  V30 6799 O 637.223 4.70629 3.22281 0
M  V30 6800 O 636.157 5.797 1.61962 0
M  V30 6801 H 639.983 3.03087 -0.192892 0
M  V30 6802 H 637.568 1.48537 -0.16038 0
M  V30 6803 H 639.45 3.59816 2.19341 0
M  V30 6804 H 638.125 2.40251 2.16935 0
M  V30 6805 H 637.032 3.73119 0.270773 0
M  V30 6806 H 638.365 4.90763 0.375887 0
M  V30 6807 N 640.017 0.126909 1.57088 0
M  V30 6808 C 641.433 -0.229641 1.57939 0
M  V30 6809 C 641.633 -1.66145 1.1401 0
M  V30 6810 O 640.689 -2.3843 0.831119 0
M  V30 6811 C 642.002 0.0108648 3.00698 0
M  V30 6812 C 643.55 -0.054418 3.12953 0
M  V30 6813 C 644.025 0.158497 4.57726 0
M  V30 6814 N 645.516 0.104735 4.63082 0
M  V30 6815 C 646.251 0.24427 5.72879 0
M  V30 6816 N 645.747 0.440415 6.91399 0
M  V30 6817 N 647.54 0.183286 5.61801 0
M  V30 6818 H 639.691 1.06203 1.83942 0
M  V30 6819 H 641.954 0.418834 0.85046 0
M  V30 6820 H 641.66 1.00102 3.37154 0
M  V30 6821 H 641.534 -0.717512 3.70313 0
M  V30 6822 H 643.921 -1.0351 2.7635 0
M  V30 6823 H 644.002 0.705967 2.45865 0
M  V30 6824 H 643.646 1.13619 4.95028 0
M  V30 6825 H 643.576 -0.62197 5.22914 0
M  V30 6826 H 646.067 -0.0430298 3.77876 0
M  V30 6827 H 646.38 0.537536 7.70928 0
M  V30 6828 H 644.725 0.476488 6.93365 0
M  V30 6829 H 647.916 0.0309561 4.6809 0
M  V30 6830 H 648.089 0.295471 6.47326 0
M  V30 6831 N 641.495 -1.56914 -0.146875 0
M  V30 6832 C 642.742 -1.83356 -0.859467 0
M  V30 6833 C 643.07 -0.707811 -1.81164 0
M  V30 6834 O 642.325 0.303155 -1.93338 0
M  V30 6835 C 642.624 -3.16128 -1.66727 0
M  V30 6836 C 642.29 -4.42586 -0.861881 0
M  V30 6837 C 640.952 -4.76929 -0.639687 0
M  V30 6838 C 643.304 -5.20344 -0.298643 0
M  V30 6839 C 640.632 -5.86491 0.156451 0
M  V30 6840 C 642.984 -6.30742 0.484536 0
M  V30 6841 C 641.648 -6.63635 0.717306 0
M  V30 6842 H 640.918 -0.670947 -0.314501 0
M  V30 6843 H 643.565 -1.91104 -0.123108 0
M  V30 6844 H 641.87 -3.03831 -2.47374 0
M  V30 6845 H 643.567 -3.33802 -2.2221 0
M  V30 6846 H 640.157 -4.15662 -1.04513 0
M  V30 6847 H 644.341 -4.94186 -0.457585 0
M  V30 6848 H 639.597 -6.10419 0.346292 0
M  V30 6849 H 643.771 -6.90188 0.928105 0
M  V30 6850 H 641.398 -7.48367 1.33607 0
M  V30 6851 N 642.974 0.416227 -1.52004 0
M  V30 6852 C 643.884 1.53147 -1.77717 0
M  V30 6853 C 644.9 1.609 -0.662368 0
M  V30 6854 O 646.076 1.77747 -0.946991 0
M  V30 6855 C 643.141 2.88948 -1.91598 0
M  V30 6856 C 642.202 2.9114 -3.15493 0
M  V30 6857 C 641.435 4.20464 -3.28703 0
M  V30 6858 O 641.658 5.13981 -2.47345 0
M  V30 6859 O 640.592 4.29368 -4.21813 0
M  V30 6860 H 644.418 1.34357 -2.72363 0
M  V30 6861 H 642.003 0.601373 -1.36762 0
M  V30 6862 H 643.885 3.69505 -2.02593 0
M  V30 6863 H 642.56 3.07821 -1.00141 0
M  V30 6864 H 641.467 2.09461 -3.09962 0
M  V30 6865 H 642.8 2.77216 -4.06709 0
M  V30 6866 N 644.452 1.42507 0.673017 0
M  V30 6867 C 645.399 1.46124 1.78651 0
M  V30 6868 C 646.369 0.313007 1.63124 0
M  V30 6869 O 647.554 0.517337 1.83653 0
M  V30 6870 C 644.694 1.3711 3.16694 0
M  V30 6871 C 643.807 2.61983 3.43495 0
M  V30 6872 C 642.942 2.45098 4.71275 0
M  V30 6873 C 641.981 3.65336 4.91117 0
M  V30 6874 N 641.118 3.47383 6.10139 0
M  V30 6875 H 645.958 2.4128 1.74895 0
M  V30 6876 H 643.495 1.19788 0.853766 0
M  V30 6877 H 645.453 1.29881 3.96468 0
M  V30 6878 H 644.083 0.45549 3.1957 0
M  V30 6879 H 643.135 2.79571 2.57961 0
M  V30 6880 H 644.447 3.51355 3.5405 0
M  V30 6881 H 643.601 2.35466 5.59143 0
M  V30 6882 H 642.34 1.53219 4.63007 0
M  V30 6883 H 641.345 3.754 4.0169 0
M  V30 6884 H 642.57 4.58199 5.01229 0
M  V30 6885 H 640.516 2.58222 6.0304 0
M  V30 6886 H 640.433 4.30344 6.21563 0
M  V30 6887 H 641.701 3.41565 7.00681 0
M  V30 6888 N 645.93 -0.909495 1.28709 0
M  V30 6889 C 647.179 -1.65365 1.15487 0
M  V30 6890 C 647.492 -1.93364 -0.294941 0
M  V30 6891 O 648.698 -2.65905 -0.548338 0
M  V30 6892 C 647.154 -2.97923 2.01916 0
M  V30 6893 C 646.762 -2.77556 3.51663 0
M  V30 6894 C 648.506 -3.75814 1.97393 0
M  V30 6895 C 646.413 -4.0578 4.30229 0
M  V30 6896 H 645.343 -0.620323 0.42862 0
M  V30 6897 H 647.994 -1.00894 1.53273 0
M  V30 6898 H 646.376 -3.63552 1.5699 0
M  V30 6899 H 647.55 -2.2058 4.04575 0
M  V30 6900 H 645.865 -2.13072 3.57756 0
M  V30 6901 H 648.462 -4.70866 2.53357 0
M  V30 6902 H 648.805 -4.05277 0.951643 0
M  V30 6903 H 649.338 -3.1701 2.40311 0
M  V30 6904 H 646.077 -3.81488 5.33055 0
M  V30 6905 H 645.597 -4.62351 3.82089 0
M  V30 6906 H 647.276 -4.74004 4.40374 0
M  V30 6907 N 647.408 -1.11026 -1.11852 0
M  V30 6908 C 648.654 -0.867633 -1.83967 0
M  V30 6909 C 649.009 0.600309 -1.82795 0
M  V30 6910 O 648.302 1.43731 -1.26696 0
M  V30 6911 C 648.496 -1.35777 -3.30604 0
M  V30 6912 C 648.325 -2.87183 -3.46058 0
M  V30 6913 C 647.095 -3.55256 -3.59334 0
M  V30 6914 C 649.293 -3.85258 -3.40706 0
M  V30 6915 N 647.275 -4.94923 -3.63215 0
M  V30 6916 C 648.646 -5.1097 -3.51155 0
M  V30 6917 C 650.701 -3.77879 -3.2421 0
M  V30 6918 C 649.404 -6.30171 -3.46809 0
M  V30 6919 C 651.43 -4.96586 -3.2118 0
M  V30 6920 C 650.792 -6.21149 -3.32196 0
M  V30 6921 H 646.891 -0.370574 -0.688621 0
M  V30 6922 H 649.475 -1.41379 -1.33865 0
M  V30 6923 H 647.646 -0.83885 -3.79233 0
M  V30 6924 H 649.378 -1.05874 -3.90606 0
M  V30 6925 H 646.133 -3.05714 -3.61713 0
M  V30 6926 H 646.557 -5.67726 -3.68804 0
M  V30 6927 H 651.199 -2.82485 -3.14582 0
M  V30 6928 H 648.917 -7.25847 -3.55206 0
M  V30 6929 H 652.503 -4.92591 -3.09589 0
M  V30 6930 H 651.383 -7.11463 -3.29834 0
M  V30 6931 N 648.886 1.2938 -0.899927 0
M  V30 6932 C 649.796 2.31462 -0.382437 0
M  V30 6933 C 650.812 1.65956 0.522929 0
M  V30 6934 O 651.988 1.97131 0.412454 0
M  V30 6935 C 649.053 3.44595 0.381472 0
M  V30 6936 C 648.114 4.25692 -0.555444 0
M  V30 6937 C 647.347 5.33422 0.172102 0
M  V30 6938 O 647.57 5.53053 1.396 0
M  V30 6939 O 646.504 5.99939 -0.485491 0
M  V30 6940 H 650.33 2.77706 -1.22934 0
M  V30 6941 H 647.915 1.33821 -0.664259 0
M  V30 6942 H 649.797 4.13474 0.813442 0
M  V30 6943 H 648.472 3.00458 1.20443 0
M  V30 6944 H 647.379 3.59453 -1.03653 0
M  V30 6945 H 648.712 4.73471 -1.34483 0
M  V30 6946 N 650.364 0.662433 1.43002 0
M  V30 6947 C 651.296 -0.062326 2.29115 0
M  V30 6948 C 652.309 -0.777926 1.43011 0
M  V30 6949 O 653.498 -0.634146 1.66856 0
M  V30 6950 C 650.598 -1.11163 3.2015 0
M  V30 6951 C 649.771 -0.472327 4.34842 0
M  V30 6952 C 648.83 -1.41974 5.06685 0
M  V30 6953 O 647.856 -0.924795 5.61637 0
M  V30 6954 N 649.058 -2.75345 5.11043 0
M  V30 6955 H 651.823 0.676838 2.91957 0
M  V30 6956 H 649.384 0.505907 1.53793 0
M  V30 6957 H 651.376 -1.74643 3.65078 0
M  V30 6958 H 649.946 -1.75266 2.58845 0
M  V30 6959 H 649.166 0.341751 3.92716 0
M  V30 6960 H 650.454 -0.0264381 5.08793 0
M  V30 6961 H 649.852 -3.18108 4.67786 0
M  V30 6962 H 648.409 -3.34105 5.59658 0
M  V30 6963 N 651.842 -1.52309 0.404946 0
M  V30 6964 C 653.091 -2.00952 -0.173529 0
M  V30 6965 C 653.404 -1.29512 -1.46581 0
M  V30 6966 O 654.61 -1.6895 -2.12528 0
M  V30 6967 C 653.066 -3.58097 -0.359801 0
M  V30 6968 C 652.674 -4.38449 0.920138 0
M  V30 6969 C 654.418 -4.14984 -0.893794 0
M  V30 6970 C 652.325 -5.87227 0.701285 0
M  V30 6971 H 651.255 -0.750871 -0.0686244 0
M  V30 6972 H 653.906 -1.75687 0.529749 0
M  V30 6973 H 652.288 -3.79675 -1.12531 0
M  V30 6974 H 653.462 -4.28633 1.69147 0
M  V30 6975 H 651.777 -3.92859 1.38024 0
M  V30 6976 H 654.374 -5.23813 -1.0735 0
M  V30 6977 H 654.717 -3.72072 -1.8673 0
M  V30 6978 H 655.25 -3.97358 -0.187453 0
M  V30 6979 H 651.989 -6.34491 1.64624 0
M  V30 6980 H 651.509 -5.99792 -0.0308288 0
M  V30 6981 H 653.188 -6.46096 0.341846 0
M  V30 6982 N 653.32 -0.135238 -1.57019 0
M  V30 6983 C 654.283 0.794707 -2.14981 0
M  V30 6984 C 655.283 1.18342 -1.08866 0
M  V30 6985 O 656.473 1.10627 -1.34563 0
M  V30 6986 C 653.605 2.07685 -2.70333 0
M  V30 6987 H 654.798 0.290696 -2.98488 0
M  V30 6988 H 652.351 0.114128 -1.55883 0
M  V30 6989 H 653.086 2.6248 -1.9046 0
M  V30 6990 H 652.871 1.80745 -3.47957 0
M  V30 6991 H 654.361 2.74127 -3.1503 0
M  V30 6992 N 654.798 1.5699 0.138552 0
M  V30 6993 C 655.708 2.02174 1.19008 0
M  V30 6994 C 656.724 0.938622 1.46512 0
M  V30 6995 O 657.9 1.24872 1.58016 0
M  V30 6996 C 654.965 2.40045 2.50159 0
M  V30 6997 C 654.026 3.62346 2.30226 0
M  V30 6998 C 653.259 3.98401 3.55123 0
M  V30 6999 O 653.482 3.35019 4.61647 0
M  V30 7000 O 652.416 4.91606 3.47285 0
M  V30 7001 H 656.242 2.91954 0.836452 0
M  V30 7002 H 653.827 1.45293 0.347907 0
M  V30 7003 H 655.709 2.65225 3.27465 0
M  V30 7004 H 654.384 1.53417 2.85035 0
M  V30 7005 H 653.291 3.42341 1.50843 0
M  V30 7006 H 654.624 4.49617 2.00262 0
M  V30 7007 N 656.276 -0.40816 1.52223 0
M  V30 7008 C 657.692 -0.74685 1.41047 0
M  V30 7009 C 657.892 -1.94788 0.51573 0
M  V30 7010 O 656.948 -2.52494 -0.0181156 0
M  V30 7011 C 658.261 -0.999878 2.83589 0
M  V30 7012 C 659.809 -1.10253 2.92939 0
M  V30 7013 C 660.284 -1.38832 4.36451 0
M  V30 7014 N 661.775 -1.45694 4.3969 0
M  V30 7015 C 662.51 -1.69435 5.47795 0
M  V30 7016 N 662.006 -1.90774 6.66016 0
M  V30 7017 N 663.799 -1.71458 5.35312 0
M  V30 7018 H 655.95 0.382409 2.08929 0
M  V30 7019 H 658.213 0.108807 0.941735 0
M  V30 7020 H 657.919 -0.189723 3.51188 0
M  V30 7021 H 657.793 -1.91978 3.24691 0
M  V30 7022 H 660.18 -1.90328 2.2552 0
M  V30 7023 H 660.261 -0.160973 2.55293 0
M  V30 7024 H 659.905 -0.592741 5.04429 0
M  V30 7025 H 659.835 -2.34241 4.71634 0
M  V30 7026 H 662.326 -1.3099 3.54472 0
M  V30 7027 H 662.639 -2.08342 7.44186 0
M  V30 7028 H 660.984 -1.88037 6.69079 0
M  V30 7029 H 664.175 -1.54326 4.41929 0
M  V30 7030 H 664.348 -1.89621 6.19635 0
M  V30 7031 N 657.755 -1.42862 -0.66545 0
M  V30 7032 C 659.002 -1.4383 -1.42546 0
M  V30 7033 C 659.33 -0.0581114 -1.94413 0
M  V30 7034 O 658.585 0.935002 -1.71919 0
M  V30 7035 C 658.884 -2.4175 -2.63233 0
M  V30 7036 C 658.55 -3.87915 -2.29854 0
M  V30 7037 C 657.212 -4.27726 -2.20463 0
M  V30 7038 C 659.564 -4.80074 -2.02924 0
M  V30 7039 C 656.892 -5.57666 -1.82279 0
M  V30 7040 C 659.244 -6.10366 -1.66242 0
M  V30 7041 C 657.908 -6.49167 -1.55367 0
M  V30 7042 H 657.178 -0.52631 -0.521612 0
M  V30 7043 H 659.825 -1.75863 -0.757914 0
M  V30 7044 H 658.13 -2.03077 -3.35063 0
M  V30 7045 H 659.827 -2.39759 -3.21429 0
M  V30 7046 H 656.417 -3.564 -2.3807 0
M  V30 7047 H 660.601 -4.50097 -2.09108 0
M  V30 7048 H 655.857 -5.8658 -1.72436 0
M  V30 7049 H 660.031 -6.81258 -1.44432 0
M  V30 7050 H 657.658 -7.49761 -1.2555 0
M  V30 7051 N 659.233 0.902656 -1.29189 0
M  V30 7052 C 660.18 2.00643 -1.14066 0
M  V30 7053 C 661.15 1.66064 -0.0347756 0
M  V30 7054 O 662.335 1.8973 -0.201752 0
M  V30 7055 C 659.475 3.35214 -0.820104 0
M  V30 7056 C 658.588 3.82594 -2.00614 0
M  V30 7057 C 657.723 5.05727 -1.62522 0
M  V30 7058 C 656.762 5.45469 -2.77724 0
M  V30 7059 N 655.899 6.59789 -2.40048 0
M  V30 7060 H 660.739 2.1291 -2.08502 0
M  V30 7061 H 658.276 1.04271 -1.03759 0
M  V30 7062 H 660.234 4.12643 -0.614949 0
M  V30 7063 H 658.864 3.22682 0.0873452 0
M  V30 7064 H 657.916 3.01226 -2.32308 0
M  V30 7065 H 659.228 4.07999 -2.86946 0
M  V30 7066 H 658.382 5.90732 -1.38277 0
M  V30 7067 H 657.121 4.82155 -0.733333 0
M  V30 7068 H 656.126 4.59 -3.02653 0
M  V30 7069 H 657.351 5.71024 -3.67572 0
M  V30 7070 H 655.297 6.37826 -1.53343 0
M  V30 7071 H 655.214 6.84975 -3.19914 0
M  V30 7072 H 656.482 7.4807 -2.19116 0
M  V30 7073 N 660.711 1.11618 1.11262 0
M  V30 7074 C 661.659 0.771291 2.1944 0
M  V30 7075 C 662.653 -0.238073 1.67719 0
M  V30 7076 O 663.859 -0.0971628 1.79738 0
M  V30 7077 H 660.234 0.231548 0.715465 0
M  V30 7078 H 662.205 1.69226 2.45775 0
M  V30 7079 C 660.954 0.232765 3.4692 0
M  V30 7080 H 660.277 1.00072 3.87073 0
M  V30 7081 H 661.717 0.0296561 4.2399 0
M  V30 7082 C 660.176 -1.03738 3.20531 0
M  V30 7083 O 660.706 -2.11675 3.41404 0
M  V30 7084 N 658.912 -0.960906 2.74253 0
M  V30 7085 H 658.459 -0.0824323 2.57468 0
M  V30 7086 H 658.417 -1.8114 2.56974 0
M  V30 7087 N 662.189 -1.289 0.906776 0
M  V30 7088 C 663.136 -2.2751 0.388313 0
M  V30 7089 C 664.106 -1.57301 -0.533439 0
M  V30 7090 O 665.291 -1.85243 -0.457148 0
M  V30 7091 C 662.431 -3.43091 -0.37181 0
M  V30 7092 C 661.544 -4.28066 0.581647 0
M  V30 7093 C 660.679 -5.30837 -0.19623 0
M  V30 7094 C 659.718 -6.07472 0.751294 0
M  V30 7095 N 658.855 -7.021 0.00737727 0
M  V30 7096 H 663.695 -2.71237 1.23428 0
M  V30 7097 H 661.232 -1.33397 0.619962 0
M  V30 7098 H 663.19 -4.08888 -0.828641 0
M  V30 7099 H 661.82 -3.00374 -1.18218 0
M  V30 7100 H 660.872 -3.62378 1.157 0
M  V30 7101 H 662.184 -4.81382 1.30665 0
M  V30 7102 H 661.338 -6.02485 -0.71394 0
M  V30 7103 H 660.077 -4.78272 -0.954324 0
M  V30 7104 H 659.082 -5.34682 1.28044 0
M  V30 7105 H 660.307 -6.62126 1.50883 0
M  V30 7106 H 658.253 -6.51894 -0.732854 0
M  V30 7107 H 658.17 -7.53004 0.672334 0
M  V30 7108 H 659.438 -7.77956 -0.490365 0
M  V30 7109 N 663.667 -0.670007 -1.42649 0
M  V30 7110 C 664.892 -0.196955 -2.06463 0
M  V30 7111 C 665.317 1.1352 -1.49983 0
M  V30 7112 O 664.675 1.705 -0.616397 0
M  V30 7113 C 664.723 -0.137381 -3.60338 0
M  V30 7114 O 663.827 0.895523 -4.02559 0
M  V30 7115 H 663.168 -0.102579 -0.656029 0
M  V30 7116 H 665.698 -0.917669 -1.82866 0
M  V30 7117 H 665.708 0.0403625 -4.0798 0
M  V30 7118 H 664.383 -1.10977 -4.0082 0
M  V30 7119 H 662.96 0.689209 -3.66476 0
M  V30 7120 N 665.145 1.52092 -0.413018 0
M  V30 7121 C 666.055 2.30858 0.417318 0
M  V30 7122 C 667.071 1.38746 1.05003 0
M  V30 7123 O 668.247 1.71821 1.05069 0
M  V30 7124 C 665.312 3.11756 1.51687 0
M  V30 7125 C 664.373 4.19613 0.906825 0
M  V30 7126 C 663.606 4.96644 1.95399 0
M  V30 7127 O 663.829 4.7402 3.17271 0
M  V30 7128 O 662.763 5.81385 1.55805 0
M  V30 7129 H 666.589 3.02865 -0.225028 0
M  V30 7130 H 664.174 1.48358 -0.176126 0
M  V30 7131 H 666.056 3.62122 2.15512 0
M  V30 7132 H 664.731 2.42539 2.14375 0
M  V30 7133 H 663.638 3.73385 0.231183 0
M  V30 7134 H 664.971 4.91134 0.323814 0
M  V30 7135 N 666.623 0.143563 1.56945 0
M  V30 7136 C 667.571 -0.814556 2.17871 0
M  V30 7137 C 668.565 -1.25778 1.13474 0
M  V30 7138 O 669.771 -1.22666 1.31731 0
M  V30 7139 H 666.146 -0.280873 0.697578 0
M  V30 7140 H 668.117 -0.276459 2.97117 0
M  V30 7141 C 666.866 -2.04503 2.81201 0
M  V30 7142 H 666.189 -1.71296 3.61245 0
M  V30 7143 H 667.629 -2.69493 3.27337 0
M  V30 7144 C 666.088 -2.85079 1.79532 0
M  V30 7145 O 666.618 -3.81306 1.26368 0
M  V30 7146 N 664.824 -2.49546 1.48913 0
M  V30 7147 H 664.371 -1.71359 1.92338 0
M  V30 7148 H 664.329 -3.03751 0.811348 0
M  V30 7149 N 668.101 -1.57061 -0.130224 0
M  V30 7150 C 669.031 -2.02552 -1.16168 0
M  V30 7151 C 670.012 -0.907971 -1.4384 0
M  V30 7152 O 671.197 -1.17693 -1.54473 0
M  V30 7153 C 668.327 -2.42035 -2.49071 0
M  V30 7154 C 667.281 -3.5713 -2.35886 0
M  V30 7155 C 666.607 -3.82478 -3.7365 0
M  V30 7156 C 667.907 -4.89236 -1.8288 0
M  V30 7157 H 669.601 -2.8897 -0.783359 0
M  V30 7158 H 667.147 -1.39021 -0.375376 0
M  V30 7159 H 669.1 -2.72462 -3.21469 0
M  V30 7160 H 667.824 -1.52573 -2.88771 0
M  V30 7161 H 666.483 -3.26895 -1.65938 0
M  V30 7162 H 666.131 -2.9024 -4.10816 0
M  V30 7163 H 665.831 -4.59944 -3.65685 0
M  V30 7164 H 667.355 -4.15347 -4.47571 0
M  V30 7165 H 668.769 -5.18272 -2.45085 0
M  V30 7166 H 667.166 -5.70624 -1.85763 0
M  V30 7167 H 668.236 -4.78494 -0.785571 0
M  V30 7168 N 669.579 0.400081 -1.52437 0
M  V30 7169 C 670.509 1.4947 -1.7939 0
M  V30 7170 C 671.49 1.57383 -0.645329 0
M  V30 7171 O 672.675 1.72511 -0.891826 0
M  V30 7172 C 669.805 2.87201 -1.95276 0
M  V30 7173 C 668.759 2.94134 -3.10917 0
M  V30 7174 C 668.085 4.34207 -3.1204 0
M  V30 7175 C 669.385 2.64791 -4.50203 0
M  V30 7176 H 671.079 1.27165 -2.71052 0
M  V30 7177 H 668.625 0.610312 -1.30427 0
M  V30 7178 H 670.578 3.63772 -2.12715 0
M  V30 7179 H 669.302 3.10819 -1.00294 0
M  V30 7180 H 667.961 2.20009 -2.93243 0
M  V30 7181 H 667.609 4.54848 -2.14761 0
M  V30 7182 H 667.309 4.39768 -3.89715 0
M  V30 7183 H 668.833 5.127 -3.31619 0
M  V30 7184 H 670.247 3.31083 -4.68035 0
M  V30 7185 H 668.644 2.81717 -5.29864 0
M  V30 7186 H 669.714 1.60184 -4.57678 0
M  V30 7187 N 671.057 1.43213 0.657864 0
M  V30 7188 C 672.304 1.44584 1.41781 0
M  V30 7189 C 672.632 0.0684208 1.9438 0
M  V30 7190 O 671.887 -0.925872 1.72413 0
M  V30 7191 C 672.186 2.43143 2.61947 0
M  V30 7192 C 671.852 3.89128 2.27794 0
M  V30 7193 C 670.514 4.28889 2.18191 0
M  V30 7194 C 672.866 4.81144 2.00375 0
M  V30 7195 C 670.194 5.58625 1.79319 0
M  V30 7196 C 672.546 6.11239 1.63003 0
M  V30 7197 C 671.21 6.49981 1.51922 0
M  V30 7198 H 670.48 0.529069 0.518813 0
M  V30 7199 H 673.127 1.76263 0.748577 0
M  V30 7200 H 671.432 2.04851 3.33981 0
M  V30 7201 H 673.129 2.4146 3.20153 0
M  V30 7202 H 669.719 3.57657 2.36176 0
M  V30 7203 H 673.903 4.512 2.06718 0
M  V30 7204 H 669.159 5.87486 1.69323 0
M  V30 7205 H 673.333 6.82014 1.40817 0
M  V30 7206 H 670.96 7.50416 1.21572 0
M  V30 7207 N 672.536 -0.895792 1.29666 0
M  V30 7208 C 673.446 -2.03329 1.17024 0
M  V30 7209 C 674.462 -1.73753 0.0925962 0
M  V30 7210 O 675.638 -1.99071 0.305431 0
M  V30 7211 C 672.703 -3.36072 0.851841 0
M  V30 7212 C 671.764 -3.7914 2.01373 0
M  V30 7213 C 670.997 -5.05549 1.71043 0
M  V30 7214 O 671.22 -5.66874 0.633213 0
M  V30 7215 O 670.154 -5.44764 2.5596 0
M  V30 7216 H 673.98 -2.16918 2.12556 0
M  V30 7217 H 671.565 -1.02007 1.09156 0
M  V30 7218 H 673.447 -4.15729 0.689006 0
M  V30 7219 H 672.122 -3.23616 -0.0736634 0
M  V30 7220 H 671.029 -3.00233 2.23183 0
M  V30 7221 H 672.362 -3.96186 2.92058 0
M  V30 7222 N 674.014 -1.12206 -1.10668 0
M  V30 7223 C 675.263 -0.870595 -1.81944 0
M  V30 7224 C 675.576 0.605447 -1.85994 0
M  V30 7225 O 676.782 0.973433 -2.53449 0
M  V30 7226 C 675.238 -1.50783 -3.26791 0
M  V30 7227 C 674.846 -3.01849 -3.31046 0
M  V30 7228 C 676.59 -1.33653 -4.02911 0
M  V30 7229 C 674.497 -3.58518 -4.70339 0
M  V30 7230 H 673.427 -0.322043 -0.681765 0
M  V30 7231 H 676.078 -1.34827 -1.24475 0
M  V30 7232 H 674.46 -0.957825 -3.84242 0
M  V30 7233 H 675.634 -3.63321 -2.83433 0
M  V30 7234 H 673.949 -3.18346 -2.68411 0
M  V30 7235 H 676.546 -1.73416 -5.05797 0
M  V30 7236 H 676.889 -0.279949 -4.15358 0
M  V30 7237 H 677.422 -1.85562 -3.51868 0
M  V30 7238 H 674.161 -4.63925 -4.63091 0
M  V30 7239 H 673.681 -3.01819 -5.18329 0
M  V30 7240 H 675.36 -3.57434 -5.39305 0
M  V30 7241 N 675.492 1.28418 -0.913599 0
M  V30 7242 C 676.425 2.25557 -0.346328 0
M  V30 7243 C 677.403 1.53038 0.549366 0
M  V30 7244 O 678.587 1.81937 0.493055 0
M  V30 7245 C 675.714 3.34915 0.504961 0
M  V30 7246 C 674.76 4.25257 -0.325334 0
M  V30 7247 S 675.593 5.06718 -1.73198 0
M  V30 7248 C 676.749 6.19569 -0.887988 0
M  V30 7249 H 676.982 2.73325 -1.16965 0
M  V30 7250 H 674.515 1.36855 -0.714841 0
M  V30 7251 H 676.473 3.98376 0.990301 0
M  V30 7252 H 675.134 2.85814 1.30267 0
M  V30 7253 H 674.327 5.02947 0.325589 0
M  V30 7254 H 673.929 3.66519 -0.744321 0
M  V30 7255 H 676.221 6.77398 -0.117568 0
M  V30 7256 H 677.164 6.88908 -1.63742 0
M  V30 7257 H 677.572 5.62812 -0.436228 0
M  V30 7258 N 676.97 0.677563 1.42291 0
M  V30 7259 C 677.918 -0.0106755 2.32598 0
M  V30 7260 C 678.912 -0.787643 1.49975 0
M  V30 7261 O 680.118 -0.695295 1.66029 0
M  V30 7262 H 676.493 -0.0222482 0.751671 0
M  V30 7263 H 678.464 0.768312 2.88339 0
M  V30 7264 C 677.213 -0.946142 3.3458 0
M  V30 7265 H 676.536 -0.357701 3.98197 0
M  V30 7266 H 677.976 -1.39634 4.00348 0
M  V30 7267 C 676.435 -2.05383 2.67057 0
M  V30 7268 O 676.965 -3.1406 2.50458 0
M  V30 7269 N 675.171 -1.82635 2.26038 0
M  V30 7270 H 674.718 -0.942534 2.39737 0
M  V30 7271 H 674.676 -2.56937 1.81192 0
M  V30 7272 N 678.448 -1.51871 0.421078 0
M  V30 7273 C 679.358 -2.31077 -0.405069 0
M  V30 7274 C 680.374 -1.39301 -1.04265 0
M  V30 7275 O 681.55 -1.72376 -1.04157 0
M  V30 7276 C 678.615 -3.12556 -1.50032 0
M  V30 7277 C 677.676 -4.20088 -0.884559 0
M  V30 7278 C 676.909 -4.97673 -1.92762 0
M  V30 7279 O 677.132 -4.75696 -3.14753 0
M  V30 7280 O 676.066 -5.82203 -1.52719 0
M  V30 7281 H 679.892 -3.02742 0.241086 0
M  V30 7282 H 677.477 -1.48263 0.183991 0
M  V30 7283 H 679.359 -3.6326 -2.13589 0
M  V30 7284 H 678.034 -2.43672 -2.13086 0
M  V30 7285 H 676.941 -3.73502 -0.211379 0
M  V30 7286 H 678.274 -4.91298 -0.297763 0
M  V30 7287 N 679.926 -0.151884 -1.56866 0
M  V30 7288 C 681.337 0.368128 -1.83035 0
M  V30 7289 C 681.688 1.64402 -1.07082 0
M  V30 7290 O 680.813 2.14056 -0.317647 0
M  V30 7291 C 681.408 0.674676 -3.32014 0
M  V30 7292 C 679.967 1.13919 -3.58747 0
M  V30 7293 C 679.114 0.164833 -2.7681 0
M  V30 7294 H 682.065 -0.376499 -1.54169 0
M  V30 7295 H 682.086 1.52883 -3.48435 0
M  V30 7296 H 681.598 -0.254113 -3.87267 0
M  V30 7297 H 679.699 2.08375 -3.08886 0
M  V30 7298 H 679.812 1.06179 -4.67186 0
M  V30 7299 H 678.176 0.658419 -2.46043 0
M  V30 7300 H 678.959 -0.757633 -3.34836 0
M  V30 7301 N 681.404 1.57128 0.121893 0
M  V30 7302 C 682.651 1.847 0.830188 0
M  V30 7303 C 682.979 0.736543 1.80015 0
M  V30 7304 O 682.234 -0.272358 1.93796 0
M  V30 7305 C 682.533 3.1874 1.61677 0
M  V30 7306 C 682.199 4.43901 0.791361 0
M  V30 7307 C 680.861 4.77887 0.563731 0
M  V30 7308 C 683.213 5.20753 0.215823 0
M  V30 7309 C 680.541 5.86168 -0.249737 0
M  V30 7310 C 682.893 6.29891 -0.584821 0
M  V30 7311 C 681.557 6.6241 -0.822794 0
M  V30 7312 H 680.827 0.675866 0.303787 0
M  V30 7313 H 683.474 1.91276 0.0926894 0
M  V30 7314 H 681.779 3.07728 2.42509 0
M  V30 7315 H 683.476 3.37295 2.16872 0
M  V30 7316 H 680.066 4.17272 0.978867 0
M  V30 7317 H 684.25 4.94851 0.378907 0
M  V30 7318 H 679.506 6.0979 -0.44336 0
M  V30 7319 H 683.68 6.88624 -1.03779 0
M  V30 7320 H 681.307 7.46147 -1.45496 0
M  V30 7321 N 682.882 -0.391992 1.52647 0
M  V30 7322 C 684.13 -1.13507 1.67214 0
M  V30 7323 C 684.451 -1.90575 0.41304 0
M  V30 7324 O 683.721 -1.87348 -0.572498 0
M  V30 7325 H 682.301 -0.422013 0.616372 0
M  V30 7326 H 684.963 -0.44502 1.89751 0
M  V30 7327 H 684.059 -1.83964 2.52118 0
M  V30 7328 N 684.36 -1.4356 -0.65026 0
M  V30 7329 C 685.308 -1.49219 -1.78427 0
M  V30 7330 C 686.302 -0.365528 -1.65409 0
M  V30 7331 O 687.508 -0.539649 -1.7172 0
M  V30 7332 H 683.883 -0.467858 -0.588738 0
M  V30 7333 H 685.854 -2.44701 -1.70774 0
M  V30 7334 C 684.603 -1.43519 -3.16698 0
M  V30 7335 H 683.926 -2.2952 -3.27354 0
M  V30 7336 H 685.366 -1.5154 -3.95995 0
M  V30 7337 C 683.825 -0.153197 -3.36552 0
M  V30 7338 O 684.355 0.784317 -3.93969 0
M  V30 7339 N 682.561 -0.0624402 -2.90533 0
M  V30 7340 H 682.108 -0.826172 -2.43992 0
M  V30 7341 H 682.066 0.794616 -3.04193 0
M  V30 7342 N 685.838 0.888903 -1.30139 0
M  V30 7343 C 687.087 1.63507 -1.18103 0
M  V30 7344 C 687.4 1.93808 0.264141 0
M  V30 7345 O 688.606 2.66744 0.505966 0
M  V30 7346 C 687.062 2.94673 -2.0663 0
M  V30 7347 C 686.67 2.71926 -3.56034 0
M  V30 7348 C 688.414 3.72626 -2.03346 0
M  V30 7349 C 686.321 3.98884 -4.3663 0
M  V30 7350 H 685.251 0.613426 -0.438435 0
M  V30 7351 H 687.902 0.984427 -1.54859 0
M  V30 7352 H 686.284 3.61009 -1.62754 0
M  V30 7353 H 687.458 2.14116 -4.08033 0
M  V30 7354 H 685.773 2.07353 -3.61101 0
M  V30 7355 H 688.37 4.66775 -2.60816 0
M  V30 7356 H 688.713 4.03712 -1.016 0
M  V30 7357 H 689.246 3.13147 -2.45324 0
M  V30 7358 H 685.985 3.72959 -5.39056 0
M  V30 7359 H 685.505 4.56214 -3.89396 0
M  V30 7360 H 687.184 4.66938 -4.47859 0
M  V30 7361 N 687.317 1.12792 1.10072 0
M  V30 7362 C 688.545 0.908506 1.85886 0
M  V30 7363 C 688.96 -0.542408 1.80841 0
M  V30 7364 O 688.317 -1.37517 1.1998 0
M  V30 7365 C 688.368 1.37973 3.34134 0
M  V30 7366 O 688.089 2.77378 3.39106 0
M  V30 7367 C 689.59 1.1978 4.26811 0
M  V30 7368 H 686.81 0.3244 0.587372 0
M  V30 7369 H 689.354 1.49882 1.39125 0
M  V30 7370 H 687.509 0.832566 3.78348 0
M  V30 7371 H 687.923 2.98144 4.31521 0
M  V30 7372 H 689.397 1.57635 5.29014 0
M  V30 7373 H 689.874 0.138768 4.38981 0
M  V30 7374 H 690.48 1.73266 3.88406 0
M  V30 7375 N 688.795 -1.27931 0.920396 0
M  V30 7376 C 690.072 -1.89728 0.475687 0
M  V30 7377 C 690.452 -1.8337 -1.04588 0
M  V30 7378 O 689.8 -1.27404 -1.89685 0
M  V30 7379 C 690.01 -3.33959 1.01354 0
M  V30 7380 C 691.358 -4.10907 1.06963 0
M  V30 7381 O 692.382 -3.42945 0.962646 0
M  V30 7382 O 691.241 -5.32399 1.23343 0
M  V30 7383 H 688.335 -0.81294 0.151845 0
M  V30 7384 H 690.881 -1.36252 1.01161 0
M  V30 7385 H 689.653 -3.32843 2.05746 0
M  V30 7386 H 689.276 -3.94944 0.458829 0
M  V30 7387 N 690.273 -0.685099 -1.4193 0
M  V30 7388 C 691.183 -0.013404 -2.34596 0
M  V30 7389 C 692.199 0.777589 -1.55658 0
M  V30 7390 O 693.375 0.717553 -1.88184 0
M  V30 7391 C 690.44 0.919031 -3.34297 0
M  V30 7392 C 689.501 0.121417 -4.29128 0
M  V30 7393 C 688.734 1.00944 -5.24067 0
M  V30 7394 O 688.957 2.24898 -5.24192 0
M  V30 7395 O 687.891 0.464724 -6.00103 0
M  V30 7396 H 691.717 -0.776978 -2.93593 0
M  V30 7397 H 689.302 -0.445379 -1.42607 0
M  V30 7398 H 691.184 1.45402 -3.9552 0
M  V30 7399 H 689.859 1.66228 -2.77759 0
M  V30 7400 H 688.766 -0.45792 -3.71287 0
M  V30 7401 H 690.099 -0.582937 -4.88736 0
M  V30 7402 N 691.751 1.51645 -0.429126 0
M  V30 7403 C 692.683 2.25279 0.422124 0
M  V30 7404 C 693.696 1.28986 0.993299 0
M  V30 7405 O 694.885 1.54797 0.888836 0
M  V30 7406 C 691.985 2.98666 1.60162 0
M  V30 7407 C 691.158 4.2199 1.15078 0
M  V30 7408 C 690.217 4.78028 2.19946 0
M  V30 7409 O 689.243 5.40084 1.79716 0
M  V30 7410 N 690.445 4.61342 3.5234 0
M  V30 7411 H 693.21 2.98971 -0.208931 0
M  V30 7412 H 690.771 1.59838 -0.257568 0
M  V30 7413 H 692.763 3.33044 2.29922 0
M  V30 7414 H 691.333 2.28036 2.13818 0
M  V30 7415 H 690.553 3.932 0.280552 0
M  V30 7416 H 691.841 5.02037 0.826831 0
M  V30 7417 H 691.239 4.11894 3.87763 0
M  V30 7418 H 689.796 5.00104 4.18019 0
M  V30 7419 N 693.229 0.160201 1.56784 0
M  V30 7420 C 694.478 -0.487619 1.95717 0
M  V30 7421 C 694.791 -1.65136 1.0483 0
M  V30 7422 O 695.997 -2.36468 1.33398 0
M  V30 7423 C 694.453 -0.91888 3.47972 0
M  V30 7424 C 694.061 0.218655 4.47466 0
M  V30 7425 C 695.805 -1.53575 3.95746 0
M  V30 7426 C 693.712 -0.231614 5.90946 0
M  V30 7427 H 692.642 -0.185939 0.730714 0
M  V30 7428 H 695.293 0.246657 1.81835 0
M  V30 7429 H 693.675 -1.70881 3.57234 0
M  V30 7430 H 694.849 0.995825 4.49911 0
M  V30 7431 H 693.164 0.744767 4.09685 0
M  V30 7432 H 695.761 -1.88448 5.00391 0
M  V30 7433 H 696.104 -2.42959 3.38048 0
M  V30 7434 H 696.637 -0.810467 3.89456 0
M  V30 7435 H 693.376 0.62718 6.52493 0
M  V30 7436 H 692.896 -0.974379 5.91833 0
M  V30 7437 H 694.575 -0.67922 6.43425 0
M  V30 7438 N 694.707 -1.5719 -0.113559 0
M  V30 7439 C 695.984 -1.76117 -0.850999 0
M  V30 7440 C 696.364 -0.737085 -1.97814 0
M  V30 7441 O 695.712 0.237942 -2.27258 0
M  V30 7442 C 695.922 -3.21298 -1.36266 0
M  V30 7443 C 697.27 -3.83955 -1.81283 0
M  V30 7444 O 698.294 -3.24934 -1.45933 0
M  V30 7445 O 697.153 -4.87707 -2.46585 0
M  V30 7446 H 694.247 -0.721308 -0.404529 0
M  V30 7447 H 696.793 -1.69423 -0.0968756 0
M  V30 7448 H 695.565 -3.87355 -0.554235 0
M  V30 7449 H 695.188 -3.32552 -2.17933 0
M  V30 7450 N 696.185 0.383891 -1.52853 0
M  V30 7451 C 697.462 1.14296 -1.58732 0
M  V30 7452 C 697.842 2.07585 -0.383611 0
M  V30 7453 O 697.19 2.1971 0.627661 0
M  V30 7454 C 697.4 1.89816 -2.92867 0
M  V30 7455 C 698.748 2.44998 -3.46787 0
M  V30 7456 O 699.772 1.99966 -2.94774 0
M  V30 7457 O 698.631 3.2727 -4.37672 0
M  V30 7458 H 695.725 0.52326 -0.640413 0
M  V30 7459 H 698.271 0.388631 -1.6519 0
M  V30 7460 H 697.043 1.21626 -3.71918 0
M  V30 7461 H 696.666 2.72199 -2.89816 0
M  V30 7462 N 697.663 1.43903 0.642637 0
M  V30 7463 C 698.596 1.44339 1.76753 0
M  V30 7464 C 699.574 0.303558 1.59741 0
M  V30 7465 O 700.758 0.498775 1.81781 0
M  V30 7466 C 697.885 1.26508 3.14187 0
M  V30 7467 C 696.931 2.43905 3.49875 0
M  V30 7468 S 697.764 4.0645 3.48653 0
M  V30 7469 C 698.92 3.91021 4.88726 0
M  V30 7470 H 699.153 2.39523 1.76113 0
M  V30 7471 H 696.686 1.31061 0.81623 0
M  V30 7472 H 698.644 1.16908 3.93501 0
M  V30 7473 H 697.305 0.328548 3.12377 0
M  V30 7474 H 696.498 2.27262 4.49853 0
M  V30 7475 H 696.1 2.50186 2.77998 0
M  V30 7476 H 698.392 3.54 5.77659 0
M  V30 7477 H 699.335 4.9079 5.10423 0
M  V30 7478 H 699.743 3.23287 4.62759 0
M  V30 7479 N 699.141 -0.881989 1.30609 0
M  V30 7480 C 700.089 -2.00942 1.17155 0
M  V30 7481 C 701.083 -1.69198 0.0827154 0
M  V30 7482 O 702.289 -1.78342 0.243775 0
M  V30 7483 H 698.664 -0.658913 0.362406 0
M  V30 7484 H 700.635 -2.09423 2.12567 0
M  V30 7485 C 699.384 -3.36294 0.883273 0
M  V30 7486 H 698.707 -3.61233 1.7132 0
M  V30 7487 H 700.147 -4.15812 0.829255 0
M  V30 7488 C 698.606 -3.34348 -0.413851 0
M  V30 7489 O 699.136 -3.75216 -1.43444 0
M  V30 7490 N 697.342 -2.87459 -0.426082 0
M  V30 7491 H 696.889 -2.54397 0.40493 0
M  V30 7492 H 696.847 -2.8654 -1.29391 0
M  V30 7493 N 700.619 -1.13374 -1.09472 0
M  V30 7494 C 701.844 -0.918711 -1.85942 0
M  V30 7495 C 702.269 0.527225 -1.8056 0
M  V30 7496 O 701.627 1.37408 -1.18274 0
M  V30 7497 C 701.675 -1.41056 -3.31867 0
M  V30 7498 O 700.779 -0.595496 -4.08078 0
M  V30 7499 H 700.12 -0.329297 -0.576593 0
M  V30 7500 H 702.65 -1.50829 -1.38245 0
M  V30 7501 H 702.66 -1.41398 -3.82715 0
M  V30 7502 H 701.335 -2.46335 -3.35099 0
M  V30 7503 H 699.912 -0.659911 -3.67014 0
M  V30 7504 N 702.098 1.27442 -0.927168 0
M  V30 7505 C 703.514 1.46754 -0.627329 0
M  V30 7506 C 703.714 1.83902 0.823549 0
M  V30 7507 O 702.77 1.95215 1.60148 0
M  V30 7508 C 704.083 2.56045 -1.57674 0
M  V30 7509 C 705.631 2.69906 -1.58491 0
M  V30 7510 C 706.106 3.82355 -2.52128 0
M  V30 7511 N 707.597 3.89728 -2.50332 0
M  V30 7512 C 708.332 4.76155 -3.19475 0
M  V30 7513 N 707.828 5.67073 -3.97995 0
M  V30 7514 N 709.621 4.6988 -3.08496 0
M  V30 7515 H 701.772 1.01613 -1.86517 0
M  V30 7516 H 704.035 0.507443 -0.800753 0
M  V30 7517 H 703.741 2.35542 -2.61176 0
M  V30 7518 H 703.615 3.53423 -1.31804 0
M  V30 7519 H 706.002 2.89792 -0.557208 0
M  V30 7520 H 706.083 1.73018 -1.8841 0
M  V30 7521 H 705.727 3.63224 -3.55008 0
M  V30 7522 H 705.657 4.7867 -2.19505 0
M  V30 7523 H 708.148 3.24717 -1.93306 0
M  V30 7524 H 708.461 6.2988 -4.4774 0
M  V30 7525 H 706.806 5.6687 -4.02098 0
M  V30 7526 H 709.997 3.97848 -2.46646 0
M  V30 7527 H 710.17 5.37017 -3.62652 0
M  V30 7528 N 703.576 0.692616 1.41565 0
M  V30 7529 C 704.825 0.219452 2.00503 0
M  V30 7530 C 705.138 -1.18683 1.55479 0
M  V30 7531 O 706.344 -1.75731 2.06956 0
M  V30 7532 C 704.8 0.341451 3.58277 0
M  V30 7533 C 704.408 1.75291 4.12283 0
M  V30 7534 C 706.152 -0.0720899 4.24439 0
M  V30 7535 C 704.059 1.82673 5.62481 0
M  V30 7536 H 702.989 0.0782874 0.749925 0
M  V30 7537 H 705.64 0.860386 1.62079 0
M  V30 7538 H 704.022 -0.367683 3.94289 0
M  V30 7539 H 705.196 2.49057 3.87695 0
M  V30 7540 H 703.511 2.11587 3.58636 0
M  V30 7541 H 706.108 -0.0373385 5.34687 0
M  V30 7542 H 706.451 -1.11034 4.0122 0
M  V30 7543 H 706.984 0.586663 3.9345 0
M  V30 7544 H 703.723 2.84539 5.90523 0
M  V30 7545 H 703.243 1.13288 5.89004 0
M  V30 7546 H 704.922 1.58827 6.27203 0
M  V30 7547 N 705.054 -1.51416 0.437162 0
M  V30 7548 C 705.984 -2.30631 -0.364922 0
M  V30 7549 C 706.965 -1.36037 -1.02118 0
M  V30 7550 O 708.15 -1.64956 -1.02485 0
M  V30 7551 C 705.28 -3.1482 -1.46648 0
M  V30 7552 C 704.234 -4.17691 -0.933717 0
M  V30 7553 C 703.56 -4.904 -2.13101 0
M  V30 7554 C 704.86 -5.2229 0.0317201 0
M  V30 7555 H 706.554 -2.97932 0.29614 0
M  V30 7556 H 704.1 -1.4328 0.143865 0
M  V30 7557 H 706.053 -3.69017 -2.03481 0
M  V30 7558 H 704.777 -2.4534 -2.15583 0
M  V30 7559 H 703.436 -3.64545 -0.387602 0
M  V30 7560 H 703.084 -4.17423 -2.80654 0
M  V30 7561 H 702.784 -5.59962 -1.78092 0
M  V30 7562 H 704.308 -5.4742 -2.70487 0
M  V30 7563 H 705.722 -5.7156 -0.446302 0
M  V30 7564 H 704.119 -5.99378 0.29437 0
M  V30 7565 H 705.189 -4.75131 0.968447 0
M  V30 7566 N 706.532 -0.168513 -1.56696 0
M  V30 7567 C 707.479 0.762875 -2.17828 0
M  V30 7568 C 708.449 1.22892 -1.11745 0
M  V30 7569 O 709.634 1.29759 -1.39883 0
M  V30 7570 C 706.774 1.9879 -2.82093 0
M  V30 7571 C 705.887 1.56568 -4.02629 0
M  V30 7572 C 705.022 2.74416 -4.54829 0
M  V30 7573 C 704.061 2.28671 -5.67782 0
M  V30 7574 N 703.198 3.39602 -6.14504 0
M  V30 7575 H 708.038 0.23479 -2.97074 0
M  V30 7576 H 705.575 0.104163 -1.46731 0
M  V30 7577 H 707.533 2.70636 -3.17509 0
M  V30 7578 H 706.163 2.48973 -2.05456 0
M  V30 7579 H 705.215 0.744067 -3.73052 0
M  V30 7580 H 706.527 1.18988 -4.844 0
M  V30 7581 H 705.681 3.54423 -4.92412 0
M  V30 7582 H 704.42 3.15254 -3.7211 0
M  V30 7583 H 703.425 1.4711 -5.29753 0
M  V30 7584 H 704.65 1.88894 -6.52301 0
M  V30 7585 H 702.596 3.80021 -5.34715 0
M  V30 7586 H 702.513 3.06105 -6.91257 0
M  V30 7587 H 703.781 4.19902 -6.56737 0
M  V30 7588 N 708.01 1.57248 0.105221 0
M  V30 7589 C 709.259 1.84756 0.809198 0
M  V30 7590 C 709.572 0.756262 1.80389 0
M  V30 7591 O 710.778 0.918158 2.55504 0
M  V30 7592 C 709.234 3.27613 1.48989 0
M  V30 7593 C 708.842 4.44788 0.535484 0
M  V30 7594 C 710.586 3.64356 2.17819 0
M  V30 7595 C 708.493 5.78676 1.22019 0
M  V30 7596 H 707.423 0.689139 0.305946 0
M  V30 7597 H 710.074 1.83395 0.0620371 0
M  V30 7598 H 708.456 3.23485 2.28415 0
M  V30 7599 H 709.63 4.60243 -0.226557 0
M  V30 7600 H 707.945 4.16374 -0.0465769 0
M  V30 7601 H 710.542 4.61663 2.69761 0
M  V30 7602 H 710.885 2.92474 2.96251 0
M  V30 7603 H 711.418 3.70328 1.45264 0
M  V30 7604 H 708.157 6.53763 0.476875 0
M  V30 7605 H 707.677 5.67083 1.9539 0
M  V30 7606 H 709.356 6.22897 1.74952 0
M  V30 7607 N 709.488 -0.375779 1.53054 0
M  V30 7608 C 710.737 -1.11674 1.67964 0
M  V30 7609 C 711.05 -1.90755 0.432655 0
M  V30 7610 O 712.256 -2.67538 0.462109 0
M  V30 7611 C 710.712 -2.0344 2.96884 0
M  V30 7612 C 710.32 -1.29719 4.28809 0
M  V30 7613 C 712.064 -2.7759 3.2116 0
M  V30 7614 C 709.971 -2.20327 5.48826 0
M  V30 7615 H 708.901 -0.420597 0.625791 0
M  V30 7616 H 711.552 -0.378499 1.79554 0
M  V30 7617 H 709.934 -2.80953 2.79072 0
M  V30 7618 H 711.108 -0.573394 4.57219 0
M  V30 7619 H 709.423 -0.674735 4.10897 0
M  V30 7620 H 712.02 -3.4559 4.0801 0
M  V30 7621 H 712.363 -3.42399 2.36789 0
M  V30 7622 H 712.896 -2.07164 3.396 0
M  V30 7623 H 709.635 -1.60113 6.35645 0
M  V30 7624 H 709.155 -2.90585 5.2471 0
M  V30 7625 H 710.834 -2.80116 5.83219 0
M  V30 7626 N 710.966 -1.44241 -0.634997 0
M  V30 7627 C 712.382 -1.28043 -0.952742 0
M  V30 7628 C 712.582 -0.21338 -2.00367 0
M  V30 7629 O 711.638 0.402042 -2.49279 0
M  V30 7630 C 712.951 -2.65076 -1.41968 0
M  V30 7631 C 714.499 -2.72755 -1.53537 0
M  V30 7632 C 714.974 -4.10249 -2.03616 0
M  V30 7633 N 716.465 -4.12406 -2.10892 0
M  V30 7634 C 717.2 -5.15641 -2.50803 0
M  V30 7635 N 716.696 -6.29239 -2.89879 0
M  V30 7636 N 718.489 -5.02995 -2.50903 0
M  V30 7637 H 710.64 -2.12315 0.060098 0
M  V30 7638 H 712.903 -0.947326 -0.0357325 0
M  V30 7639 H 712.609 -3.44213 -0.721804 0
M  V30 7640 H 712.483 -2.91704 -2.39141 0
M  V30 7641 H 714.87 -1.93939 -2.22422 0
M  V30 7642 H 714.951 -2.49872 -0.547496 0
M  V30 7643 H 714.595 -4.8954 -1.35327 0
M  V30 7644 H 714.525 -4.30507 -3.03268 0
M  V30 7645 H 717.016 -3.30417 -1.83393 0
M  V30 7646 H 717.329 -7.03827 -3.19135 0
M  V30 7647 H 715.674 -6.32683 -2.8764 0
M  V30 7648 H 718.865 -4.13306 -2.19763 0
M  V30 7649 H 719.038 -5.83574 -2.81683 0
M  V30 7650 N 712.444 0.87505 -1.31075 0
M  V30 7651 C 713.391 1.98178 -1.18296 0
M  V30 7652 C 714.361 1.65952 -0.0699923 0
M  V30 7653 O 715.546 1.8926 -0.241951 0
M  V30 7654 C 712.686 3.33399 -0.891024 0
M  V30 7655 C 711.799 3.78253 -2.08684 0
M  V30 7656 C 710.934 5.02166 -1.73212 0
M  V30 7657 C 709.973 5.39455 -2.89231 0
M  V30 7658 N 709.11 6.54549 -2.53989 0
M  V30 7659 H 713.95 2.0844 -2.12971 0
M  V30 7660 H 711.487 1.02047 -1.05948 0
M  V30 7661 H 713.445 4.11246 -0.702338 0
M  V30 7662 H 712.075 3.22794 0.0188799 0
M  V30 7663 H 711.127 2.9623 -2.38646 0
M  V30 7664 H 712.439 4.01821 -2.95536 0
M  V30 7665 H 711.593 5.87666 -1.50777 0
M  V30 7666 H 710.332 4.80491 -0.83544 0
M  V30 7667 H 709.337 4.52477 -3.12321 0
M  V30 7668 H 710.562 5.63098 -3.79601 0
M  V30 7669 H 708.508 6.3443 -1.66838 0
M  V30 7670 H 708.425 6.78035 -3.34372 0
M  V30 7671 H 709.693 7.43254 -2.34934 0
M  V30 7672 N 713.922 1.13953 1.08869 0
M  V30 7673 C 715.15 0.92817 1.84912 0
M  V30 7674 C 715.565 -0.523197 1.81406 0
M  V30 7675 O 714.922 -1.36237 1.21432 0
M  V30 7676 C 714.973 1.41509 3.32652 0
M  V30 7677 O 714.694 2.80959 3.36145 0
M  V30 7678 C 716.195 1.243 4.25517 0
M  V30 7679 H 713.415 0.330612 0.583898 0
M  V30 7680 H 715.959 1.51349 1.37527 0
M  V30 7681 H 714.114 0.872648 3.77444 0
M  V30 7682 H 714.528 3.02704 4.28335 0
M  V30 7683 H 716.002 1.63237 5.27312 0
M  V30 7684 H 716.479 0.18532 4.38809 0
M  V30 7685 H 717.085 1.77375 3.86546 0
M  V30 7686 N 715.4 -1.26948 0.933913 0
M  V30 7687 C 716.348 -2.2862 0.428463 0
M  V30 7688 C 717.342 -1.62144 -0.490464 0
M  V30 7689 O 718.548 -1.76167 -0.36948 0
M  V30 7690 H 714.923 -0.742363 0.120003 0
M  V30 7691 H 716.894 -2.68659 1.29865 0
M  V30 7692 C 715.643 -3.46423 -0.29774 0
M  V30 7693 H 714.966 -3.97792 0.400183 0
M  V30 7694 H 716.406 -4.19505 -0.615736 0
M  V30 7695 C 714.865 -3.01017 -1.51295 0
M  V30 7696 O 715.395 -3.05226 -2.61151 0
M  V30 7697 N 713.601 -2.56442 -1.36696 0
M  V30 7698 H 713.148 -2.53217 -0.473178 0
M  V30 7699 H 713.106 -2.26424 -2.18127 0
M  V30 7700 N 716.879 -0.700114 -1.41195 0
M  V30 7701 C 718.29 -0.307249 -1.84154 0
M  V30 7702 C 718.641 1.15539 -1.58572 0
M  V30 7703 O 717.766 1.88744 -1.05852 0
M  V30 7704 C 718.361 -0.550872 -3.34292 0
M  V30 7705 C 716.92 -0.211877 -3.75803 0
M  V30 7706 C 716.067 -0.830915 -2.64558 0
M  V30 7707 H 719.018 -0.900431 -1.30683 0
M  V30 7708 H 719.039 0.188954 -3.80031 0
M  V30 7709 H 718.551 -1.61548 -3.5288 0
M  V30 7710 H 716.652 0.848283 -3.62815 0
M  V30 7711 H 716.765 -0.67007 -4.74391 0
M  V30 7712 H 715.129 -0.260155 -2.53368 0
M  V30 7713 H 715.912 -1.89948 -2.85963 0
M  V30 7714 N 718.357 1.51182 -0.445186 0
M  V30 7715 C 719.585 2.06568 0.117091 0
M  V30 7716 C 720 1.31182 1.35781 0
M  V30 7717 O 719.357 0.373605 1.78635 0
M  V30 7718 C 719.408 3.58917 0.431408 0
M  V30 7719 O 719.129 4.31456 -0.760078 0
M  V30 7720 C 720.63 4.30843 1.0435 0
M  V30 7721 H 717.85 0.670985 0.00444436 0
M  V30 7722 H 720.394 1.94666 -0.626525 0
M  V30 7723 H 718.549 3.70708 1.12493 0
M  V30 7724 H 718.963 5.22215 -0.489048 0
M  V30 7725 H 720.437 5.38499 1.21337 0
M  V30 7726 H 720.914 3.89644 2.02667 0
M  V30 7727 H 721.52 4.23516 0.38913 0
M  V30 7728 N 719.835 0.176821 1.56605 0
M  V30 7729 C 721.251 -0.179278 1.5859 0
M  V30 7730 C 721.451 -1.62433 1.19238 0
M  V30 7731 O 720.507 -2.35665 0.906552 0
M  V30 7732 C 721.82 0.106524 3.00511 0
M  V30 7733 C 723.368 0.0451731 3.12967 0
M  V30 7734 C 723.843 0.304038 4.5699 0
M  V30 7735 N 725.334 0.252008 4.62514 0
M  V30 7736 C 726.069 0.426404 5.71812 0
M  V30 7737 N 725.565 0.660155 6.89648 0
M  V30 7738 N 727.358 0.361926 5.60934 0
M  V30 7739 H 719.509 1.12001 1.8047 0
M  V30 7740 H 721.772 0.445679 0.836704 0
M  V30 7741 H 721.478 1.10778 3.33798 0
M  V30 7742 H 721.352 -0.599337 3.72408 0
M  V30 7743 H 723.739 -0.946662 2.79504 0
M  V30 7744 H 723.82 0.78383 2.43495 0
M  V30 7745 H 723.464 1.29311 4.91163 0
M  V30 7746 H 723.394 -0.455294 5.24628 0
M  V30 7747 H 725.885 0.0772102 3.77821 0
M  V30 7748 H 726.198 0.782529 7.68828 0
M  V30 7749 H 724.543 0.696835 6.91498 0
M  V30 7750 H 727.734 0.17986 4.67754 0
M  V30 7751 H 727.907 0.501263 6.46058 0
M  V30 7752 N 721.313 -1.57302 -0.09688 0
M  V30 7753 C 722.562 -1.85183 -0.799388 0
M  V30 7754 C 722.875 -0.765818 -1.79985 0
M  V30 7755 O 724.081 -0.931696 -2.55013 0
M  V30 7756 C 722.537 -3.28399 -1.47249 0
M  V30 7757 C 722.145 -4.45066 -0.511888 0
M  V30 7758 C 723.889 -3.65506 -2.15883 0
M  V30 7759 C 721.796 -5.79315 -1.18948 0
M  V30 7760 H 720.726 -0.690752 -0.302287 0
M  V30 7761 H 723.377 -1.83425 -0.0523104 0
M  V30 7762 H 721.759 -3.24692 -2.26697 0
M  V30 7763 H 722.933 -4.60116 0.250962 0
M  V30 7764 H 721.248 -4.16343 0.0686576 0
M  V30 7765 H 723.845 -4.63087 -2.67309 0
M  V30 7766 H 724.188 -2.94041 -2.94696 0
M  V30 7767 H 724.721 -3.71094 -1.43298 0
M  V30 7768 H 721.46 -6.54007 -0.442198 0
M  V30 7769 H 720.98 -5.68111 -1.9238 0
M  V30 7770 H 722.659 -6.23816 -1.71646 0
M  V30 7771 N 722.791 0.367657 -1.53252 0
M  V30 7772 C 724.037 1.11216 -1.69584 0
M  V30 7773 C 724.37 1.89026 -0.445269 0
M  V30 7774 O 723.645 1.86342 0.557404 0
M  V30 7775 C 723.928 2.07308 -2.94441 0
M  V30 7776 C 723.781 1.3312 -4.2965 0
M  V30 7777 C 725.1 3.07459 -3.14892 0
M  V30 7778 H 722.219 0.40294 -0.617096 0
M  V30 7779 H 724.861 0.393201 -1.85887 0
M  V30 7780 H 723.011 2.68617 -2.80673 0
M  V30 7781 H 724.683 0.746111 -4.55226 0
M  V30 7782 H 722.926 0.633051 -4.29156 0
M  V30 7783 H 723.597 2.03443 -5.13142 0
M  V30 7784 H 726.073 2.56252 -3.27832 0
M  V30 7785 H 724.949 3.71919 -4.03693 0
M  V30 7786 H 725.21 3.77514 -2.30077 0
M  V30 7787 N 724.269 1.44576 0.627338 0
M  V30 7788 C 725.518 1.46837 1.38281 0
M  V30 7789 C 725.831 0.10635 1.95311 0
M  V30 7790 O 727.037 0.00651084 2.71499 0
M  V30 7791 C 725.493 2.58527 2.50384 0
M  V30 7792 C 725.101 4.00953 1.99851 0
M  V30 7793 C 726.845 2.70013 3.27557 0
M  V30 7794 C 724.752 5.0406 3.09318 0
M  V30 7795 H 723.682 0.546319 0.519664 0
M  V30 7796 H 726.333 1.70654 0.674497 0
M  V30 7797 H 724.715 2.27957 3.23808 0
M  V30 7798 H 725.889 4.41108 1.33267 0
M  V30 7799 H 724.204 3.93743 1.35482 0
M  V30 7800 H 726.801 3.44217 4.09168 0
M  V30 7801 H 727.144 1.75961 3.77284 0
M  V30 7802 H 727.677 3.00011 2.61224 0
M  V30 7803 H 724.416 5.99753 2.6453 0
M  V30 7804 H 723.936 4.68493 3.74532 0
M  V30 7805 H 725.615 5.2793 3.74031 0
M  V30 7806 N 725.747 -0.868086 1.31537 0
M  V30 7807 C 726.996 -1.61607 1.20689 0
M  V30 7808 C 727.309 -1.94204 -0.233275 0
M  V30 7809 O 728.515 -2.67515 -0.463465 0
M  V30 7810 C 726.971 -2.91348 2.11292 0
M  V30 7811 C 726.579 -2.66227 3.60315 0
M  V30 7812 C 728.323 -3.69344 2.09249 0
M  V30 7813 C 726.23 -3.91887 4.42921 0
M  V30 7814 H 725.16 -0.606373 0.448138 0
M  V30 7815 H 727.811 -0.959666 1.56405 0
M  V30 7816 H 726.193 -3.58374 1.68477 0
M  V30 7817 H 727.367 -2.07597 4.11388 0
M  V30 7818 H 725.682 -2.01582 3.64354 0
M  V30 7819 H 728.279 -4.62567 2.68209 0
M  V30 7820 H 728.622 -4.02044 1.0801 0
M  V30 7821 H 729.155 -3.09205 2.50274 0
M  V30 7822 H 725.894 -3.64336 5.44922 0
M  V30 7823 H 725.414 -4.49961 3.96605 0
M  V30 7824 H 727.093 -4.59754 4.55231 0
M  V30 7825 N 727.225 -1.14528 -1.08264 0
M  V30 7826 C 728.473 -0.912599 -1.80322 0
M  V30 7827 C 728.794 0.562256 -1.86718 0
M  V30 7828 O 728.064 1.40869 -1.36135 0
M  V30 7829 H 726.644 -0.334645 -0.667849 0
M  V30 7830 H 729.306 -1.44415 -1.30883 0
M  V30 7831 H 728.402 -1.31384 -2.83098 0
M  V30 7832 N 728.703 1.26451 -0.940633 0
M  V30 7833 C 729.951 1.93395 -0.586748 0
M  V30 7834 C 730.272 1.7417 0.876921 0
M  V30 7835 O 729.542 1.097 1.62304 0
M  V30 7836 H 728.122 0.715687 -0.214012 0
M  V30 7837 H 730.784 1.53902 -1.19584 0
M  V30 7838 H 729.88 3.01565 -0.804059 0
M  V30 7839 N 730.181 0.707592 1.40822 0
M  V30 7840 C 731.429 0.243189 2.00632 0
M  V30 7841 C 731.75 -1.16512 1.56365 0
M  V30 7842 O 731.02 -1.78841 0.799553 0
M  V30 7843 H 729.6 0.0869203 0.741926 0
M  V30 7844 H 732.262 0.911438 1.72275 0
M  V30 7845 H 731.358 0.270014 3.1093 0
M  V30 7846 N 731.66 -1.50943 0.453197 0
M  V30 7847 C 732.89 -2.06328 -0.105981 0
M  V30 7848 C 733.298 -1.31909 -1.35634 0
M  V30 7849 O 732.641 -0.376607 -1.79798 0
M  V30 7850 C 732.703 -3.5631 -0.477868 0
M  V30 7851 C 732.367 -4.52093 0.667925 0
M  V30 7852 C 733.364 -4.96421 1.54475 0
M  V30 7853 C 731.049 -4.95001 0.853168 0
M  V30 7854 C 733.043 -5.82346 2.59138 0
M  V30 7855 C 730.73 -5.80713 1.90305 0
M  V30 7856 C 731.728 -6.24284 2.77053 0
M  V30 7857 O 731.416 -7.08291 3.80236 0
M  V30 7858 H 731.148 -0.675986 -0.00427247 0
M  V30 7859 H 733.702 -1.95314 0.635738 0
M  V30 7860 H 731.932 -3.65163 -1.27252 0
M  V30 7861 H 733.621 -3.94138 -0.970039 0
M  V30 7862 H 734.387 -4.63953 1.41324 0
M  V30 7863 H 730.266 -4.60619 0.187482 0
M  V30 7864 H 733.81 -6.16276 3.2688 0
M  V30 7865 H 729.707 -6.12593 2.03469 0
M  V30 7866 H 730.475 -7.26504 3.77007 0
M  V30 7867 N 733.138 -0.185124 -1.56509 0
M  V30 7868 C 734.384 0.450356 -1.98352 0
M  V30 7869 C 734.739 1.59923 -1.06969 0
M  V30 7870 O 734.032 1.91272 -0.112084 0
M  V30 7871 C 734.226 0.967977 -3.44042 0
M  V30 7872 C 734.055 -0.129208 -4.49514 0
M  V30 7873 C 732.825 -0.58351 -5.0192 0
M  V30 7874 C 735.023 -0.93459 -5.05737 0
M  V30 7875 N 733.005 -1.65956 -5.91043 0
M  V30 7876 C 734.376 -1.86026 -5.91434 0
M  V30 7877 C 736.431 -0.978125 -4.88198 0
M  V30 7878 C 735.134 -2.82582 -6.61468 0
M  V30 7879 C 737.16 -1.93169 -5.58963 0
M  V30 7880 C 736.522 -2.84481 -6.44399 0
M  V30 7881 H 732.621 0.132504 -0.770692 0
M  V30 7882 H 735.205 -0.288523 -1.9255 0
M  V30 7883 H 733.376 1.67633 -3.50362 0
M  V30 7884 H 735.108 1.57323 -3.72869 0
M  V30 7885 H 731.863 -0.178676 -4.73263 0
M  V30 7886 H 732.287 -2.19848 -6.40309 0
M  V30 7887 H 736.929 -0.286169 -4.2183 0
M  V30 7888 H 734.647 -3.52758 -7.2704 0
M  V30 7889 H 738.233 -1.97166 -5.47373 0
M  V30 7890 H 737.113 -3.57065 -6.98194 0
M  V30 7891 N 734.616 1.57351 0.0885366 0
M  V30 7892 C 735.564 2.03542 1.12576 0
M  V30 7893 C 736.558 0.937668 1.41082 0
M  V30 7894 O 737.764 1.12283 1.40686 0
M  V30 7895 H 734.139 0.648752 0.380296 0
M  V30 7896 H 736.11 2.89833 0.709906 0
M  V30 7897 C 734.859 2.4811 2.43591 0
M  V30 7898 H 734.182 3.32164 2.22502 0
M  V30 7899 H 735.622 2.842 3.14653 0
M  V30 7900 C 734.081 1.35708 3.08359 0
M  V30 7901 O 734.611 0.689852 3.95732 0
M  V30 7902 N 732.817 1.10641 2.68713 0
M  V30 7903 H 732.364 1.6508 1.97753 0
M  V30 7904 H 732.322 0.356355 3.12374 0
M  V30 7905 N 736.094 -0.359525 1.53444 0
M  V30 7906 C 737.319 -1.12644 1.74144 0
M  V30 7907 C 737.744 -1.82082 0.472007 0
M  V30 7908 O 737.102 -1.71962 -0.57436 0
M  V30 7909 C 737.15 -2.12781 2.9113 0
M  V30 7910 O 736.254 -3.19984 2.60162 0
M  V30 7911 H 735.595 -0.326553 0.578152 0
M  V30 7912 H 738.125 -0.414798 2.00351 0
M  V30 7913 H 738.135 -2.56278 3.17467 0
M  V30 7914 H 736.81 -1.61634 3.83207 0
M  V30 7915 H 735.387 -2.81417 2.44661 0
M  V30 7916 N 737.572 -1.44907 -0.619662 0
M  V30 7917 C 738.802 -1.51575 -1.40387 0
M  V30 7918 C 739.21 -0.14309 -1.88658 0
M  V30 7919 O 738.553 0.863403 -1.62145 0
M  V30 7920 C 738.615 -2.42858 -2.65067 0
M  V30 7921 C 738.279 -3.8982 -2.38515 0
M  V30 7922 C 739.276 -4.80047 -1.99627 0
M  V30 7923 C 736.961 -4.34628 -2.51801 0
M  V30 7924 C 738.955 -6.13086 -1.74369 0
M  V30 7925 C 736.642 -5.67712 -2.26156 0
M  V30 7926 C 737.64 -6.56759 -1.875 0
M  V30 7927 O 737.328 -7.87377 -1.62148 0
M  V30 7928 H 737.06 -0.51612 -0.436573 0
M  V30 7929 H 739.614 -1.90664 -0.763959 0
M  V30 7930 H 737.844 -1.98717 -3.31735 0
M  V30 7931 H 739.533 -2.40346 -3.27091 0
M  V30 7932 H 740.299 -4.46697 -1.8891 0
M  V30 7933 H 736.178 -3.65568 -2.80857 0
M  V30 7934 H 739.722 -6.8255 -1.44122 0
M  V30 7935 H 735.619 -6.0062 -2.36486 0
M  V30 7936 H 736.387 -7.99288 -1.763 0
M  V30 7937 N 739.05 0.861098 -1.31996 0
M  V30 7938 C 739.998 1.99052 -1.20337 0
M  V30 7939 C 740.992 1.69045 -0.109623 0
M  V30 7940 O 742.198 1.77931 -0.272117 0
M  V30 7941 H 738.573 0.653064 -0.372843 0
M  V30 7942 H 740.544 2.06015 -2.15872 0
M  V30 7943 C 739.293 3.34846 -0.936663 0
M  V30 7944 H 738.616 3.58462 -1.77045 0
M  V30 7945 H 740.056 4.1444 -0.895302 0
M  V30 7946 C 738.515 3.34965 0.360607 0
M  V30 7947 O 739.045 3.7745 1.37456 0
M  V30 7948 N 737.251 2.88101 0.380296 0
M  V30 7949 H 736.798 2.53721 -0.445351 0
M  V30 7950 H 736.756 2.88563 1.24816 0
M  V30 7951 N 740.528 1.15101 1.07655 0
M  V30 7952 C 741.756 0.947731 1.83918 0
M  V30 7953 C 742.171 -0.503927 1.81951 0
M  V30 7954 O 741.528 -1.34941 1.2287 0
M  V30 7955 C 741.579 1.4503 3.31132 0
M  V30 7956 O 741.3 2.84508 3.33146 0
M  V30 7957 C 742.801 1.28806 4.24174 0
M  V30 7958 H 740.021 0.336786 0.580358 0
M  V30 7959 H 742.565 1.52799 1.35914 0
M  V30 7960 H 740.72 0.912632 3.76497 0
M  V30 7961 H 741.134 3.0723 4.251 0
M  V30 7962 H 742.608 1.6882 5.25551 0
M  V30 7963 H 743.085 0.231851 4.38588 0
M  V30 7964 H 743.691 1.81465 3.84643 0
M  V30 7965 N 742.006 -1.2595 0.947325 0
M  V30 7966 C 742.936 -2.28521 0.479604 0
M  V30 7967 C 743.917 -1.63469 -0.470293 0
M  V30 7968 O 745.102 -1.90627 -0.370824 0
M  V30 7969 C 742.232 -3.46397 -0.250289 0
M  V30 7970 C 741.186 -4.23578 0.613643 0
M  V30 7971 C 740.512 -5.34131 -0.246568 0
M  V30 7972 C 741.812 -4.86979 1.88809 0
M  V30 7973 H 743.506 -2.67895 1.33688 0
M  V30 7974 H 741.052 -1.28783 0.644274 0
M  V30 7975 H 743.005 -4.17269 -0.588576 0
M  V30 7976 H 741.729 -3.05993 -1.14175 0
M  V30 7977 H 740.388 -3.54478 0.93491 0
M  V30 7978 H 740.036 -4.89968 -1.13756 0
M  V30 7979 H 739.736 -5.86683 0.328123 0
M  V30 7980 H 741.26 -6.07839 -0.579986 0
M  V30 7981 H 742.674 -5.50034 1.61666 0
M  V30 7982 H 741.071 -5.49675 2.40784 0
M  V30 7983 H 742.141 -4.09575 2.5957 0
M  V30 7984 N 743.484 -0.715051 -1.40445 0
M  V30 7985 C 744.73 -0.254705 -2.01194 0
M  V30 7986 C 745.063 1.14894 -1.56567 0
M  V30 7987 O 744.338 1.77933 -0.785491 0
M  V30 7988 C 744.621 -0.334148 -3.58546 0
M  V30 7989 C 744.474 -1.77613 -4.13248 0
M  V30 7990 C 745.793 0.294968 -4.3911 0
M  V30 7991 H 742.912 -0.094025 -0.730978 0
M  V30 7992 H 745.554 -0.907449 -1.66929 0
M  V30 7993 H 743.704 0.221609 -3.87867 0
M  V30 7994 H 745.376 -2.38723 -3.94727 0
M  V30 7995 H 743.619 -2.30402 -3.67556 0
M  V30 7996 H 744.29 -1.78311 -5.22407 0
M  V30 7997 H 746.766 -0.178563 -4.15717 0
M  V30 7998 H 745.642 0.208934 -5.48502 0
M  V30 7999 H 745.903 1.37841 -4.20062 0
M  V30 8000 N 744.962 1.50701 -0.461195 0
M  V30 8001 C 745.91 2.29918 0.352231 0
M  V30 8002 C 746.904 1.36778 0.999403 0
M  V30 8003 O 748.11 1.54015 0.931639 0
M  V30 8004 H 744.485 0.740249 0.132423 0
M  V30 8005 H 746.456 2.96497 -0.336424 0
M  V30 8006 C 745.205 3.17052 1.42736 0
M  V30 8007 H 744.528 3.88623 0.938747 0
M  V30 8008 H 745.968 3.75493 1.96928 0
M  V30 8009 C 744.427 2.3399 2.42384 0
M  V30 8010 O 744.957 2.01608 3.47444 0
M  V30 8011 N 743.163 1.96758 2.13857 0
M  V30 8012 H 742.71 2.23292 1.28447 0
M  V30 8013 H 742.668 1.41484 2.80766 0
M  V30 8014 N 746.441 0.193421 1.56409 0
M  V30 8015 C 747.69 -0.445995 1.96707 0
M  V30 8016 C 748.003 -1.62876 1.08309 0
M  V30 8017 O 749.209 -2.33586 1.38383 0
M  V30 8018 C 747.665 -0.844863 3.49843 0
M  V30 8019 C 747.273 0.31352 4.46902 0
M  V30 8020 C 749.017 -1.45146 3.98915 0
M  V30 8021 C 746.924 -0.106214 5.91305 0
M  V30 8022 H 745.854 -0.170398 0.734493 0
M  V30 8023 H 748.505 0.285172 1.81271 0
M  V30 8024 H 746.887 -1.63265 3.60778 0
M  V30 8025 H 748.061 1.09103 4.47698 0
M  V30 8026 H 746.376 0.8315 4.08014 0
M  V30 8027 H 748.973 -1.77792 5.04276 0
M  V30 8028 H 749.316 -2.35734 3.43126 0
M  V30 8029 H 749.849 -0.727675 3.91088 0
M  V30 8030 H 746.588 0.765442 6.51016 0
M  V30 8031 H 746.108 -0.848623 5.93766 0
M  V30 8032 H 747.787 -0.542588 6.44721 0
M  V30 8033 N 747.919 -1.57396 -0.0801906 0
M  V30 8034 C 748.866 -2.03107 -1.09618 0
M  V30 8035 C 749.836 -0.910118 -1.38946 0
M  V30 8036 O 751.021 -1.17719 -1.50156 0
M  V30 8037 C 748.161 -2.47293 -2.40708 0
M  V30 8038 C 747.274 -3.72972 -2.17982 0
M  V30 8039 C 746.409 -4.05975 -3.42576 0
M  V30 8040 C 745.448 -5.24719 -3.15177 0
M  V30 8041 N 744.585 -5.53401 -4.32078 0
M  V30 8042 H 749.425 -2.89677 -0.69939 0
M  V30 8043 H 746.962 -1.43263 -0.333785 0
M  V30 8044 H 748.92 -2.7096 -3.17232 0
M  V30 8045 H 747.55 -1.63713 -2.78205 0
M  V30 8046 H 746.602 -3.56693 -1.32189 0
M  V30 8047 H 747.914 -4.59638 -1.93738 0
M  V30 8048 H 747.068 -4.30498 -4.275 0
M  V30 8049 H 745.807 -3.17859 -3.69887 0
M  V30 8050 H 744.812 -5 -2.28648 0
M  V30 8051 H 746.037 -6.14445 -2.89197 0
M  V30 8052 H 743.983 -4.68245 -4.59437 0
M  V30 8053 H 743.9 -6.34469 -4.11078 0
M  V30 8054 H 745.168 -5.8247 -5.18024 0
M  V30 8055 N 749.397 0.351382 -1.53633 0
M  V30 8056 C 750.646 1.08988 -1.69719 0
M  V30 8057 C 750.959 1.90043 -0.462948 0
M  V30 8058 O 752.165 2.66769 -0.504613 0
M  V30 8059 C 750.621 1.98691 -3.00083 0
M  V30 8060 C 750.229 1.22881 -4.30818 0
M  V30 8061 C 751.973 2.72446 -3.25536 0
M  V30 8062 C 749.88 2.11568 -5.52262 0
M  V30 8063 H 748.81 0.410588 -0.632403 0
M  V30 8064 H 751.461 0.349886 -1.80133 0
M  V30 8065 H 749.843 2.76478 -2.83506 0
M  V30 8066 H 751.017 0.500582 -4.58073 0
M  V30 8067 H 749.332 0.60928 -4.11918 0
M  V30 8068 H 751.929 3.39055 -4.13456 0
M  V30 8069 H 752.272 3.38588 -2.42206 0
M  V30 8070 H 752.805 2.01735 -3.42852 0
M  V30 8071 H 749.544 1.4998 -6.38111 0
M  V30 8072 H 749.064 2.82201 -5.29266 0
M  V30 8073 H 750.743 2.70802 -5.87601 0
M  V30 8074 N 750.875 1.45233 0.611969 0
M  V30 8075 C 752.286 1.4354 1.19387 0
M  V30 8076 C 752.637 0.160713 1.95541 0
M  V30 8077 O 751.762 -0.737954 2.03429 0
M  V30 8078 C 752.357 2.60045 2.17169 0
M  V30 8079 C 750.916 2.61486 2.70744 0
M  V30 8080 C 750.063 2.35708 1.46072 0
M  V30 8081 H 753.014 1.53536 0.401529 0
M  V30 8082 H 753.035 2.33893 3.00124 0
M  V30 8083 H 752.547 3.52803 1.61714 0
M  V30 8084 H 750.648 1.72721 3.30149 0
M  V30 8085 H 750.761 3.60572 3.15476 0
M  V30 8086 H 749.125 1.85178 1.74875 0
M  V30 8087 H 749.908 3.30606 0.924922 0
M  V30 8088 N 752.353 -0.854086 1.3245 0
M  V30 8089 C 753.63 -1.59188 1.1366 0
M  V30 8090 C 754.01 -2.08917 -0.302807 0
M  V30 8091 O 753.358 -1.8795 -1.29951 0
M  V30 8092 C 753.568 -2.73757 2.16467 0
M  V30 8093 C 754.916 -3.43323 2.49829 0
M  V30 8094 O 755.94 -2.83983 2.15017 0
M  V30 8095 O 754.799 -4.50409 3.09506 0
M  V30 8096 H 751.893 -0.701092 0.438633 0
M  V30 8097 H 754.439 -0.898165 1.43983 0
M  V30 8098 H 753.211 -2.3454 3.1322 0
M  V30 8099 H 752.834 -3.50804 1.87142 0
M  V30 8100 N 753.831 -1.1567 -1.07043 0
M  V30 8101 C 755.108 -0.843948 -1.76456 0
M  V30 8102 C 755.488 0.659806 -2.00524 0
M  V30 8103 O 754.836 1.60518 -1.62623 0
M  V30 8104 C 755.046 -1.65822 -3.0709 0
M  V30 8105 C 756.394 -1.8664 -3.8138 0
M  V30 8106 O 757.418 -1.62624 -3.1691 0
M  V30 8107 O 756.277 -2.26884 -4.97178 0
M  V30 8108 H 753.371 -0.310677 -0.766426 0
M  V30 8109 H 755.917 -1.26266 -1.1338 0
M  V30 8110 H 754.689 -2.67902 -2.85209 0
M  V30 8111 H 754.312 -1.23605 -3.77899 0
M  V30 8112 N 755.309 1.25446 -0.953992 0
M  V30 8113 C 756.72 1.75047 -0.649255 0
M  V30 8114 C 757.071 1.77527 0.835385 0
M  V30 8115 O 756.196 1.39569 1.65377 0
M  V30 8116 C 756.791 3.17889 -1.17183 0
M  V30 8117 C 755.35 3.65052 -0.917267 0
M  V30 8118 C 754.497 2.44124 -1.31525 0
M  V30 8119 H 757.448 1.11342 -1.13087 0
M  V30 8120 H 757.469 3.76768 -0.531616 0
M  V30 8121 H 756.981 3.16052 -2.25239 0
M  V30 8122 H 755.082 3.72305 0.148354 0
M  V30 8123 H 755.195 4.53222 -1.55328 0
M  V30 8124 H 753.559 2.43906 -0.733624 0
M  V30 8125 H 754.342 2.44979 -2.405 0
M  V30 8126 N 756.787 0.722489 1.40064 0
M  V30 8127 C 758.017 0.274439 2.04769 0
M  V30 8128 C 758.425 -1.09125 1.54559 0
M  V30 8129 O 757.768 -1.69834 0.700149 0
M  V30 8130 C 757.83 0.184091 3.59028 0
M  V30 8131 C 757.494 1.48619 4.32159 0
M  V30 8132 C 758.491 2.42947 4.59644 0
M  V30 8133 C 756.176 1.74703 4.7094 0
M  V30 8134 C 758.17 3.616 5.24904 0
M  V30 8135 C 755.857 2.93636 5.3593 0
M  V30 8136 C 756.855 3.86907 5.62843 0
M  V30 8137 O 756.543 5.03753 6.26489 0
M  V30 8138 H 756.275 0.119847 0.665292 0
M  V30 8139 H 758.829 0.983352 1.80331 0
M  V30 8140 H 757.059 -0.580821 3.82313 0
M  V30 8141 H 758.748 -0.230306 4.05246 0
M  V30 8142 H 759.514 2.24062 4.30141 0
M  V30 8143 H 755.393 1.02955 4.49356 0
M  V30 8144 H 758.937 4.34418 5.45827 0
M  V30 8145 H 754.834 3.12428 5.64853 0
M  V30 8146 H 755.602 5.03922 6.44984 0
M  V30 8147 N 758.265 -1.50454 0.469181 0
M  V30 8148 C 759.195 -2.31353 -0.31592 0
M  V30 8149 C 760.176 -1.38172 -0.992094 0
M  V30 8150 O 761.361 -1.67093 -0.989633 0
M  V30 8151 C 758.491 -3.1786 -1.39937 0
M  V30 8152 C 757.445 -4.19578 -0.844909 0
M  V30 8153 C 756.771 -4.9481 -2.0265 0
M  V30 8154 C 758.071 -5.22106 0.142499 0
M  V30 8155 H 759.765 -2.97237 0.359269 0
M  V30 8156 H 757.311 -1.42942 0.174224 0
M  V30 8157 H 759.264 -3.7325 -1.95607 0
M  V30 8158 H 757.988 -2.49858 -2.1033 0
M  V30 8159 H 756.647 -3.65285 -0.310189 0
M  V30 8160 H 756.295 -4.23282 -2.71737 0
M  V30 8161 H 755.995 -5.63613 -1.66174 0
M  V30 8162 H 757.519 -5.53035 -2.58815 0
M  V30 8163 H 758.933 -5.72378 -0.324966 0
M  V30 8164 H 757.33 -5.98618 0.421441 0
M  V30 8165 H 758.4 -4.7297 1.06901 0
M  V30 8166 N 759.743 -0.201713 -1.56304 0
M  V30 8167 C 760.992 0.435557 -1.96941 0
M  V30 8168 C 761.305 1.62299 -1.09172 0
M  V30 8169 O 762.511 2.32849 -1.3962 0
M  V30 8170 C 760.967 0.826298 -3.50286 0
M  V30 8171 C 760.575 -0.337216 -4.46729 0
M  V30 8172 C 762.319 1.43028 -3.99679 0
M  V30 8173 C 760.226 0.0748539 -5.91353 0
M  V30 8174 H 759.156 0.1665 -0.735387 0
M  V30 8175 H 761.807 -0.294781 -1.81117 0
M  V30 8176 H 760.189 1.61349 -3.61639 0
M  V30 8177 H 761.363 -1.11476 -4.47113 0
M  V30 8178 H 759.678 -0.853126 -4.07567 0
M  V30 8179 H 762.275 1.75115 -5.05212 0
M  V30 8180 H 762.618 2.33911 -3.44371 0
M  V30 8181 H 763.151 0.706924 -3.91468 0
M  V30 8182 H 759.89 -0.799957 -6.506 0
M  V30 8183 H 759.41 0.817122 -5.94208 0
M  V30 8184 H 761.089 0.508389 -6.45 0
M  V30 8185 N 761.222 1.57436 0.0718424 0
M  V30 8186 C 762.47 1.86878 0.769484 0
M  V30 8187 C 762.791 0.7937 1.78116 0
M  V30 8188 O 762.061 -0.177642 1.95093 0
M  V30 8189 H 760.641 0.689593 0.287177 0
M  V30 8190 H 763.303 1.94841 0.0479427 0
M  V30 8191 H 762.399 2.84387 1.28572 0
M  V30 8192 N 762.7 -0.34323 1.53817 0
M  V30 8193 C 763.928 -1.10348 1.75017 0
M  V30 8194 C 764.343 -1.82345 0.489475 0
M  V30 8195 O 763.7 -1.74362 -0.538886 0
M  V30 8196 C 763.751 -2.11672 2.93048 0
M  V30 8197 O 763.472 -1.42603 4.14241 0
M  V30 8198 C 764.973 -3.0007 3.26301 0
M  V30 8199 H 762.193 -0.329056 0.584776 0
M  V30 8200 H 764.737 -0.395339 2.00642 0
M  V30 8201 H 762.892 -2.78051 2.69753 0
M  V30 8202 H 763.306 -2.10294 4.80496 0
M  V30 8203 H 764.78 -3.67101 4.12239 0
M  V30 8204 H 765.257 -3.66105 2.42618 0
M  V30 8205 H 765.863 -2.3928 3.51604 0
M  V30 8206 N 764.178 -1.45556 -0.604258 0
M  V30 8207 C 765.425 -1.49746 -1.36317 0
M  V30 8208 C 765.753 -0.140516 -1.93992 0
M  V30 8209 O 765.008 0.861244 -1.7573 0
M  V30 8210 C 765.307 -2.52697 -2.52743 0
M  V30 8211 C 764.973 -3.97315 -2.13195 0
M  V30 8212 C 763.635 -4.36692 -2.02123 0
M  V30 8213 C 765.987 -4.88249 -1.8238 0
M  V30 8214 C 763.315 -5.64895 -1.58463 0
M  V30 8215 C 765.667 -6.16867 -1.40205 0
M  V30 8216 C 764.331 -6.55172 -1.27694 0
M  V30 8217 H 763.601 -0.54796 -0.49882 0
M  V30 8218 H 766.248 -1.7892 -0.682643 0
M  V30 8219 H 764.553 -2.17105 -3.26148 0
M  V30 8220 H 766.25 -2.53176 -3.10971 0
M  V30 8221 H 762.84 -3.66176 -2.22739 0
M  V30 8222 H 767.024 -4.58561 -1.89829 0
M  V30 8223 H 762.28 -5.93365 -1.47402 0
M  V30 8224 H 766.454 -6.86771 -1.15408 0
M  V30 8225 H 764.081 -7.54411 -0.936375 0
M  V30 8226 N 765.656 0.84705 -1.32902 0
M  V30 8227 C 766.606 1.94451 -1.19049 0
M  V30 8228 C 767.59 1.60617 -0.095461 0
M  V30 8229 O 768.782 1.74033 -0.322739 0
M  V30 8230 C 765.911 3.30645 -0.923509 0
M  V30 8231 C 764.997 3.70675 -2.0606 0
M  V30 8232 N 765.388 3.82468 -3.30986 0
M  V30 8233 C 763.686 4.00357 -1.96547 0
M  V30 8234 C 764.387 4.17056 -4.05511 0
M  V30 8235 N 763.363 4.28985 -3.33876 0
M  V30 8236 H 767.165 2.01713 -2.1375 0
M  V30 8237 H 764.679 1.03928 -1.24791 0
M  V30 8238 H 766.676 4.0905 -0.805212 0
M  V30 8239 H 765.336 3.24697 0.0150523 0
M  V30 8240 H 766.347 3.66589 -3.65832 0
M  V30 8241 H 763.024 4.02666 -1.10299 0
M  V30 8242 H 764.414 4.33585 -5.13277 0
M  V30 8243 N 767.134 1.16236 1.06428 0
M  V30 8244 C 768.364 0.965782 1.82637 0
M  V30 8245 C 768.772 -0.489284 1.82764 0
M  V30 8246 O 768.115 -1.35133 1.24438 0
M  V30 8247 C 768.177 1.41458 3.30499 0
M  V30 8248 C 767.841 2.88926 3.54077 0
M  V30 8249 C 768.838 3.86939 3.47238 0
M  V30 8250 C 766.523 3.26814 3.81442 0
M  V30 8251 C 768.517 5.20841 3.67428 0
M  V30 8252 C 766.204 4.60886 4.01282 0
M  V30 8253 C 767.202 5.57708 3.94272 0
M  V30 8254 O 766.89 6.89357 4.13573 0
M  V30 8255 H 766.622 0.342569 0.582772 0
M  V30 8256 H 769.176 1.54641 1.35187 0
M  V30 8257 H 767.406 0.777426 3.78805 0
M  V30 8258 H 769.095 1.18563 3.88198 0
M  V30 8259 H 769.861 3.59014 3.26089 0
M  V30 8260 H 765.74 2.5203 3.86008 0
M  V30 8261 H 769.284 5.96401 3.61873 0
M  V30 8262 H 765.181 4.88522 4.21921 0
M  V30 8263 H 765.949 6.95913 4.30869 0
M  V30 8264 N 768.612 -1.24939 0.960631 0
M  V30 8265 C 769.842 -1.96595 0.635123 0
M  V30 8266 C 770.25 -1.71538 -0.798206 0
M  V30 8267 O 769.593 -0.991727 -1.5463 0
M  V30 8268 C 769.655 -3.49994 0.821248 0
M  V30 8269 C 769.319 -3.98738 2.23287 0
M  V30 8270 C 770.316 -4.08965 3.21004 0
M  V30 8271 C 768.001 -4.32247 2.55867 0
M  V30 8272 C 769.995 -4.52025 4.49391 0
M  V30 8273 C 767.682 -4.74991 3.84482 0
M  V30 8274 C 768.68 -4.84844 4.81056 0
M  V30 8275 O 768.368 -5.26638 6.07378 0
M  V30 8276 H 768.1 -0.633265 0.23654 0
M  V30 8277 H 770.654 -1.5991 1.28911 0
M  V30 8278 H 768.884 -3.86543 0.110105 0
M  V30 8279 H 770.573 -4.02859 0.495892 0
M  V30 8280 H 771.339 -3.83302 2.97161 0
M  V30 8281 H 767.218 -4.23801 1.81421 0
M  V30 8282 H 770.762 -4.5963 5.24773 0
M  V30 8283 H 766.659 -5.00101 4.08129 0
M  V30 8284 H 767.427 -5.44807 6.10842 0
M  V30 8285 N 770.09 -0.729906 -1.39679 0
M  V30 8286 C 771.367 -0.202149 -1.94553 0
M  V30 8287 C 771.747 1.29507 -1.66707 0
M  V30 8288 O 771.095 2.05819 -0.992517 0
M  V30 8289 C 771.305 -0.530279 -3.44948 0
M  V30 8290 C 772.653 -0.476808 -4.21914 0
M  V30 8291 O 773.677 -0.467171 -3.53123 0
M  V30 8292 O 772.536 -0.466869 -5.44502 0
M  V30 8293 H 769.63 -0.0351644 -0.826252 0
M  V30 8294 H 772.176 -0.808417 -1.49207 0
M  V30 8295 H 770.948 -1.56526 -3.5863 0
M  V30 8296 H 770.571 0.10522 -3.97461 0
M  V30 8297 N 771.568 1.50203 -0.477153 0
M  V30 8298 C 772.979 1.86685 -0.0235041 0
M  V30 8299 C 773.33 1.39148 1.38319 0
M  V30 8300 O 772.455 0.759051 2.02651 0
M  V30 8301 C 773.05 3.38781 -0.0358767 0
M  V30 8302 C 771.609 3.74652 0.362327 0
M  V30 8303 C 770.756 2.7412 -0.41875 0
M  V30 8304 H 773.707 1.4286 -0.691133 0
M  V30 8305 H 773.728 3.72732 0.764924 0
M  V30 8306 H 773.24 3.73349 -1.05981 0
M  V30 8307 H 771.341 3.45686 1.39039 0
M  V30 8308 H 771.454 4.79063 0.059457 0
M  V30 8309 H 769.818 2.54376 0.128341 0
M  V30 8310 H 770.601 3.11532 -1.44231 0
M  V30 8311 N 773.046 0.209999 1.56195 0
M  V30 8312 C 774.276 -0.429373 2.02089 0
M  V30 8313 C 774.684 -1.54703 1.0892 0
M  V30 8314 O 774.027 -1.83485 0.0889535 0
M  V30 8315 C 774.089 -1.03266 3.44349 0
M  V30 8316 C 773.753 -0.0518873 4.56971 0
M  V30 8317 C 774.75 0.744249 5.14545 0
M  V30 8318 C 772.435 0.0635185 5.0226 0
M  V30 8319 C 774.429 1.64261 6.15871 0
M  V30 8320 C 772.116 0.965423 6.03426 0
M  V30 8321 C 773.114 1.75352 6.60106 0
M  V30 8322 O 772.802 2.64029 7.59305 0
M  V30 8323 H 772.534 -0.110604 0.66689 0
M  V30 8324 H 775.088 0.320436 2.02885 0
M  V30 8325 H 773.318 -1.83134 3.40586 0
M  V30 8326 H 775.007 -1.57823 3.73961 0
M  V30 8327 H 775.773 0.665476 4.80413 0
M  V30 8328 H 771.652 -0.539762 4.57829 0
M  V30 8329 H 775.196 2.25819 6.60039 0
M  V30 8330 H 771.093 1.04526 6.36981 0
M  V30 8331 H 771.861 2.57974 7.76783 0
M  V30 8332 N 774.524 -1.57472 -0.0634922 0
M  V30 8333 C 775.434 -2.07621 -1.09227 0
M  V30 8334 C 776.45 -1.00746 -1.41867 0
M  V30 8335 O 777.626 -1.32269 -1.51878 0
M  V30 8336 C 774.691 -2.51707 -2.38421 0
M  V30 8337 C 773.752 -3.72917 -2.12676 0
M  V30 8338 C 772.985 -4.14891 -3.3571 0
M  V30 8339 O 773.208 -3.56663 -4.45137 0
M  V30 8340 O 772.142 -5.07616 -3.23434 0
M  V30 8341 H 775.968 -2.95612 -0.696205 0
M  V30 8342 H 773.553 -1.46787 -0.27819 0
M  V30 8343 H 775.435 -2.80547 -3.14438 0
M  V30 8344 H 774.11 -1.66842 -2.77391 0
M  V30 8345 H 773.017 -3.49148 -1.34337 0
M  V30 8346 H 774.35 -4.5866 -1.78583 0
M  V30 8347 N 776.003 0.335068 -1.53997 0
M  V30 8348 C 777.25 1.07435 -1.71651 0
M  V30 8349 C 777.578 1.88378 -0.48413 0
M  V30 8350 O 776.833 1.8827 0.534139 0
M  V30 8351 C 777.132 2.0364 -2.9371 0
M  V30 8352 C 776.798 1.38942 -4.28959 0
M  V30 8353 C 775.46 1.21027 -4.65732 0
M  V30 8354 C 777.812 0.924083 -5.12943 0
M  V30 8355 C 775.14 0.552097 -5.84097 0
M  V30 8356 C 777.492 0.27978 -6.31981 0
M  V30 8357 C 776.156 0.0883843 -6.67441 0
M  V30 8358 H 775.426 0.393133 -0.628114 0
M  V30 8359 H 778.073 0.352712 -1.88224 0
M  V30 8360 H 776.378 2.82215 -2.71775 0
M  V30 8361 H 778.075 2.6085 -3.04562 0
M  V30 8362 H 774.665 1.53885 -4.00022 0
M  V30 8363 H 778.849 1.05032 -4.85059 0
M  V30 8364 H 774.105 0.392502 -6.10139 0
M  V30 8365 H 778.279 -0.0888479 -6.96343 0
M  V30 8366 H 775.906 -0.423657 -7.59019 0
M  V30 8367 N 777.481 1.45874 0.596531 0
M  V30 8368 C 778.709 1.54013 1.38158 0
M  V30 8369 C 779.124 0.17648 1.87973 0
M  V30 8370 O 778.481 -0.823895 1.62844 0
M  V30 8371 C 778.532 2.53363 2.57855 0
M  V30 8372 O 778.253 3.8443 2.10108 0
M  V30 8373 C 779.754 2.71308 3.50581 0
M  V30 8374 H 776.974 0.521251 0.422538 0
M  V30 8375 H 779.518 1.9116 0.726493 0
M  V30 8376 H 777.673 2.19257 3.19382 0
M  V30 8377 H 778.087 4.38384 2.87958 0
M  V30 8378 H 779.561 3.44776 4.31084 0
M  V30 8379 H 780.038 1.77728 4.01633 0
M  V30 8380 H 780.644 3.06455 2.94899 0
M  V30 8381 N 778.959 -0.83999 1.33349 0
M  V30 8382 C 779.909 -1.93817 1.20079 0
M  V30 8383 C 780.893 -1.60564 0.103978 0
M  V30 8384 O 782.085 -1.73859 0.331964 0
M  V30 8385 C 779.214 -3.30151 0.941031 0
M  V30 8386 C 778.3 -3.69577 2.08023 0
M  V30 8387 N 778.691 -3.80707 3.3301 0
M  V30 8388 C 776.989 -3.99309 1.98667 0
M  V30 8389 C 777.69 -4.14899 4.07717 0
M  V30 8390 N 776.666 -4.27208 3.36146 0
M  V30 8391 H 780.468 -2.00576 2.14817 0
M  V30 8392 H 777.982 -1.03264 1.2534 0
M  V30 8393 H 779.979 -4.08617 0.826894 0
M  V30 8394 H 778.639 -3.247 0.00216738 0
M  V30 8395 H 779.65 -3.64644 3.67771 0
M  V30 8396 H 776.327 -4.02076 1.12433 0
M  V30 8397 H 777.717 -4.30857 5.15569 0
M  V30 8398 N 780.437 -1.16799 -1.0581 0
M  V30 8399 C 781.384 -0.87902 -2.13405 0
M  V30 8400 C 782.354 0.174541 -1.6518 0
M  V30 8401 O 783.539 0.0386843 -1.90761 0
M  V30 8402 C 780.679 -0.391616 -3.42871 0
M  V30 8403 C 779.792 -1.50857 -4.04804 0
M  V30 8404 C 778.927 -0.975682 -5.22163 0
M  V30 8405 C 777.966 -2.06851 -5.76089 0
M  V30 8406 N 777.103 -1.55085 -6.84758 0
M  V30 8407 H 781.943 -1.80043 -2.37463 0
M  V30 8408 H 779.48 -0.898083 -1.16503 0
M  V30 8409 H 781.438 -0.0906247 -4.17102 0
M  V30 8410 H 780.068 0.49284 -3.19016 0
M  V30 8411 H 779.12 -1.92542 -3.28073 0
M  V30 8412 H 780.432 -2.33305 -4.40874 0
M  V30 8413 H 779.586 -0.628165 -6.03439 0
M  V30 8414 H 778.325 -0.120566 -4.87551 0
M  V30 8415 H 777.33 -2.42467 -4.93447 0
M  V30 8416 H 778.555 -2.92768 -6.12751 0
M  V30 8417 H 776.501 -0.718345 -6.52055 0
M  V30 8418 H 776.418 -2.31145 -7.19797 0
M  V30 8419 H 777.686 -1.23206 -7.69702 0
M  V30 8420 N 781.915 1.24427 -0.967243 0
M  V30 8421 C 783.161 1.93089 -0.639404 0
M  V30 8422 C 783.516 1.7422 0.816407 0
M  V30 8423 O 782.809 1.08435 1.57964 0
M  V30 8424 C 783.003 3.44568 -0.949096 0
M  V30 8425 C 782.832 3.7817 -2.43346 0
M  V30 8426 C 781.602 3.99561 -3.09321 0
M  V30 8427 C 783.8 3.84687 -3.41351 0
M  V30 8428 N 781.782 4.20259 -4.475 0
M  V30 8429 C 783.153 4.10223 -4.64884 0
M  V30 8430 C 785.208 3.67421 -3.36015 0
M  V30 8431 C 783.911 4.20286 -5.8374 0
M  V30 8432 C 785.937 3.78731 -4.54221 0
M  V30 8433 C 785.299 4.04691 -5.76545 0
M  V30 8434 H 781.398 0.728291 -0.284809 0
M  V30 8435 H 783.982 1.49941 -1.24201 0
M  V30 8436 H 782.153 3.86582 -0.375308 0
M  V30 8437 H 783.885 4.00524 -0.579876 0
M  V30 8438 H 780.64 3.95946 -2.59853 0
M  V30 8439 H 781.064 4.34588 -5.19097 0
M  V30 8440 H 785.706 3.46358 -2.42479 0
M  V30 8441 H 783.424 4.40162 -6.77704 0
M  V30 8442 H 787.01 3.66743 -4.51653 0
M  V30 8443 H 785.89 4.1324 -6.66485 0
M  V30 8444 N 783.393 0.737304 1.3929 0
M  V30 8445 C 784.809 0.413132 1.5416 0
M  V30 8446 C 785.009 -1.07574 1.70382 0
M  V30 8447 O 784.065 -1.86185 1.70562 0
M  V30 8448 C 785.378 1.19817 2.75798 0
M  V30 8449 C 786.926 1.18662 2.89635 0
M  V30 8450 C 787.401 1.95427 4.14213 0
M  V30 8451 N 788.892 1.92605 4.21257 0
M  V30 8452 C 789.627 2.48808 5.16606 0
M  V30 8453 N 789.123 3.13659 6.1773 0
M  V30 8454 N 790.916 2.38829 5.08839 0
M  V30 8455 H 783.067 1.70243 1.27008 0
M  V30 8456 H 785.33 0.720802 0.61575 0
M  V30 8457 H 785.036 2.25179 2.70161 0
M  V30 8458 H 784.91 0.804144 3.68529 0
M  V30 8459 H 787.297 0.141112 2.94762 0
M  V30 8460 H 787.378 1.62003 1.97961 0
M  V30 8461 H 787.022 2.9998 4.09847 0
M  V30 8462 H 786.952 1.4949 5.04936 0
M  V30 8463 H 789.443 1.45362 3.48824 0
M  V30 8464 H 789.756 3.54006 6.8695 0
M  V30 8465 H 788.101 3.17749 6.1811 0
M  V30 8466 H 791.292 1.87806 4.28773 0
M  V30 8467 H 791.465 2.82929 5.82971 0
M  V30 8468 N 784.871 -1.49948 0.485112 0
M  V30 8469 C 786.119 -2.01996 -0.0648775 0
M  V30 8470 C 786.44 -1.36819 -1.38945 0
M  V30 8471 O 785.71 -0.518163 -1.88923 0
M  V30 8472 H 784.29 -0.746513 -0.0269662 0
M  V30 8473 H 786.952 -1.84136 0.638733 0
M  V30 8474 H 786.048 -3.11418 -0.20617 0
M  V30 8475 N 786.349 -0.21828 -1.56081 0
M  V30 8476 C 787.577 0.419258 -2.02608 0
M  V30 8477 C 787.992 1.53578 -1.09814 0
M  V30 8478 O 787.349 1.82185 -0.107149 0
M  V30 8479 C 787.4 0.953955 -3.48686 0
M  V30 8480 O 787.121 -0.11805 -4.37941 0
M  V30 8481 C 788.622 1.66506 -4.10841 0
M  V30 8482 H 785.842 0.10296 -0.663054 0
M  V30 8483 H 788.386 -0.333776 -2.01758 0
M  V30 8484 H 786.541 1.65727 -3.50162 0
M  V30 8485 H 786.955 0.283359 -5.23734 0
M  V30 8486 H 788.429 1.99123 -5.14834 0
M  V30 8487 H 788.906 2.57705 -3.55647 0
M  V30 8488 H 789.512 1.00703 -4.13206 0
M  V30 8489 N 787.827 1.57504 0.0551401 0
M  V30 8490 C 789.073 1.89191 0.74688 0
M  V30 8491 C 789.428 0.813936 1.74335 0
M  V30 8492 O 788.721 -0.180217 1.90751 0
M  V30 8493 C 788.915 3.25311 1.48013 0
M  V30 8494 C 788.744 4.46247 0.556176 0
M  V30 8495 C 787.514 5.04954 0.186891 0
M  V30 8496 C 789.712 5.14068 -0.154295 0
M  V30 8497 N 787.694 6.09411 -0.741041 0
M  V30 8498 C 789.065 6.12851 -0.938809 0
M  V30 8499 C 791.12 4.97396 -0.224007 0
M  V30 8500 C 789.823 6.96759 -1.78658 0
M  V30 8501 C 791.849 5.81845 -1.05881 0
M  V30 8502 C 791.211 6.80178 -1.83133 0
M  V30 8503 H 787.31 0.741562 0.248213 0
M  V30 8504 H 789.894 1.94698 0.00777734 0
M  V30 8505 H 788.065 3.20781 2.18985 0
M  V30 8506 H 789.797 3.44594 2.12219 0
M  V30 8507 H 786.552 4.70472 0.543415 0
M  V30 8508 H 786.976 6.66303 -1.19874 0
M  V30 8509 H 791.618 4.21274 0.358924 0
M  V30 8510 H 789.336 7.72245 -2.38042 0
M  V30 8511 H 792.922 5.70997 -1.11595 0
M  V30 8512 H 791.802 7.44389 -2.46687 0
M  V30 8513 N 789.305 -0.326896 1.54172 0
M  V30 8514 C 790.553 -1.06313 1.71878 0
M  V30 8515 C 790.874 -1.88652 0.493498 0
M  V30 8516 O 790.144 -1.89608 -0.492522 0
M  V30 8517 H 788.724 -0.39549 0.633716 0
M  V30 8518 H 791.386 -0.364139 1.91468 0
M  V30 8519 H 790.482 -1.73105 2.59694 0
M  V30 8520 N 790.784 -1.46188 -0.588786 0
M  V30 8521 C 792.012 -1.54743 -1.37339 0
M  V30 8522 C 792.427 -0.186446 -1.87877 0
M  V30 8523 O 791.784 0.815247 -1.63279 0
M  V30 8524 C 791.835 -2.54727 -2.56508 0
M  V30 8525 O 791.556 -3.85539 -2.08066 0
M  V30 8526 C 793.057 -2.73163 -3.49137 0
M  V30 8527 H 790.277 -0.523484 -0.419768 0
M  V30 8528 H 792.821 -1.91543 -0.716345 0
M  V30 8529 H 790.976 -2.20948 -3.18215 0
M  V30 8530 H 791.39 -4.39905 -2.85629 0
M  V30 8531 H 792.864 -3.47057 -4.2925 0
M  V30 8532 H 793.341 -1.79856 -4.00685 0
M  V30 8533 H 793.947 -3.08014 -2.9327 0
M  V30 8534 N 792.262 0.832906 -1.33792 0
M  V30 8535 C 793.194 1.95042 -1.2038 0
M  V30 8536 C 794.207 1.62253 -0.133299 0
M  V30 8537 O 795.396 1.74315 -0.384261 0
M  V30 8538 C 792.496 3.287 -0.825215 0
M  V30 8539 C 791.669 3.89581 -1.98861 0
M  V30 8540 C 790.728 5.01602 -1.59003 0
M  V30 8541 O 789.754 5.20431 -2.30522 0
M  V30 8542 N 790.956 5.78356 -0.498446 0
M  V30 8543 H 793.721 2.07083 -2.16649 0
M  V30 8544 H 791.282 1.00896 -1.26616 0
M  V30 8545 H 793.274 4.01074 -0.540559 0
M  V30 8546 H 791.844 3.12565 0.0469796 0
M  V30 8547 H 791.064 3.09723 -2.43856 0
M  V30 8548 H 792.352 4.26989 -2.76691 0
M  V30 8549 H 791.75 5.65618 0.0963297 0
M  V30 8550 H 790.307 6.51226 -0.273485 0
M  V30 8551 N 793.74 1.17359 1.05189 0
M  V30 8552 C 794.65 0.904984 2.16442 0
M  V30 8553 C 795.666 -0.12686 1.73537 0
M  V30 8554 O 796.842 0.0524127 2.01332 0
M  V30 8555 C 793.907 0.422019 3.44122 0
M  V30 8556 C 792.968 1.52045 4.01473 0
M  V30 8557 C 792.201 1.06044 5.23059 0
M  V30 8558 O 792.424 -0.0854023 5.70336 0
M  V30 8559 O 791.358 1.85349 5.72651 0
M  V30 8560 H 795.184 1.8356 2.41949 0
M  V30 8561 H 792.769 0.95447 1.14936 0
M  V30 8562 H 794.651 0.160208 4.21095 0
M  V30 8563 H 793.326 -0.480444 3.20115 0
M  V30 8564 H 792.233 1.83615 3.25939 0
M  V30 8565 H 793.566 2.39863 4.29798 0
M  V30 8566 N 795.218 -1.23913 0.973828 0
M  V30 8567 C 796.495 -1.87539 0.555729 0
M  V30 8568 C 796.875 -1.87641 -0.967162 0
M  V30 8569 O 796.223 -1.35335 -1.84111 0
M  V30 8570 C 796.433 -3.29359 1.15427 0
M  V30 8571 C 797.781 -4.06 1.24294 0
M  V30 8572 O 798.805 -3.38554 1.10723 0
M  V30 8573 O 797.664 -5.26689 1.45813 0
M  V30 8574 H 794.758 -0.805769 0.186188 0
M  V30 8575 H 797.304 -1.31838 1.06849 0
M  V30 8576 H 796.076 -3.23817 2.19678 0
M  V30 8577 H 795.699 -3.92642 0.625925 0
M  V30 8578 N 796.696 -0.74468 -1.38897 0
M  V30 8579 C 797.629 -0.0596441 -2.28122 0
M  V30 8580 C 798.607 0.73764 -1.44906 0
M  V30 8581 O 799.791 0.718155 -1.74284 0
M  V30 8582 C 796.918 0.922533 -3.25894 0
M  V30 8583 C 795.964 0.212566 -4.2597 0
M  V30 8584 S 796.797 -1.08035 -5.24489 0
M  V30 8585 C 797.953 -0.101014 -6.25818 0
M  V30 8586 H 798.186 -0.816289 -2.85874 0
M  V30 8587 H 795.719 -0.536882 -1.44765 0
M  V30 8588 H 797.677 1.4839 -3.82741 0
M  V30 8589 H 796.338 1.65209 -2.67142 0
M  V30 8590 H 795.531 0.956106 -4.94848 0
M  V30 8591 H 795.133 -0.277029 -3.72973 0
M  V30 8592 H 797.425 0.736072 -6.7349 0
M  V30 8593 H 798.368 -0.757206 -7.0404 0
M  V30 8594 H 798.776 0.275706 -5.63826 0
M  V30 8595 N 798.174 1.49689 -0.493057 0
M  V30 8596 C 799.451 1.9525 0.116907 0
M  V30 8597 C 799.831 1.43429 1.54892 0
M  V30 8598 O 799.179 0.644621 2.19219 0
M  V30 8599 C 799.389 3.4898 0.037705 0
M  V30 8600 C 800.737 4.24052 0.215621 0
M  V30 8601 O 801.761 3.5602 0.113266 0
M  V30 8602 O 800.62 5.44847 0.42477 0
M  V30 8603 H 797.714 0.820973 0.099662 0
M  V30 8604 H 800.26 1.60367 -0.555029 0
M  V30 8605 H 799.032 3.79309 -0.961251 0
M  V30 8606 H 798.655 3.9046 0.750137 0
M  V30 8607 N 799.652 0.226554 1.55963 0
M  V30 8608 C 800.88 -0.408507 2.02827 0
M  V30 8609 C 801.295 -1.52994 1.10627 0
M  V30 8610 O 800.652 -1.82126 0.116809 0
M  V30 8611 C 800.703 -0.93545 3.49187 0
M  V30 8612 O 800.424 0.141273 4.37872 0
M  V30 8613 C 801.925 -1.64325 4.11719 0
M  V30 8614 H 799.145 -0.099442 0.66359 0
M  V30 8615 H 801.689 0.344471 2.01578 0
M  V30 8616 H 799.844 -1.63868 3.51036 0
M  V30 8617 H 800.258 -0.25558 5.23877 0
M  V30 8618 H 801.732 -1.9639 5.15883 0
M  V30 8619 H 802.209 -2.55815 3.57009 0
M  V30 8620 H 802.815 -0.9851 4.13734 0
M  V30 8621 N 801.13 -1.57531 -0.0467866 0
M  V30 8622 C 802.376 -1.8873 -0.742218 0
M  V30 8623 C 802.709 -0.822084 -1.75941 0
M  V30 8624 O 801.984 0.164922 -1.938 0
M  V30 8625 C 802.267 -3.30586 -1.42776 0
M  V30 8626 C 802.12 -4.47785 -0.425285 0
M  V30 8627 C 803.439 -3.71068 -2.36636 0
M  V30 8628 H 800.558 -0.686406 -0.268359 0
M  V30 8629 H 803.2 -1.89999 -0.00511341 0
M  V30 8630 H 801.35 -3.29634 -2.05605 0
M  V30 8631 H 803.022 -4.60867 0.199721 0
M  V30 8632 H 801.265 -4.33037 0.25713 0
M  V30 8633 H 801.936 -5.43884 -0.943086 0
M  V30 8634 H 804.412 -3.73273 -1.83866 0
M  V30 8635 H 803.288 -4.71165 -2.81593 0
M  V30 8636 H 803.549 -3.02355 -3.22542 0
M  V30 8637 N 802.608 0.318715 -1.54344 0
M  V30 8638 C 803.854 1.05765 -1.73037 0
M  V30 8639 C 804.187 1.87514 -0.505181 0
M  V30 8640 O 803.462 1.88021 0.497838 0
M  V30 8641 C 803.745 1.97836 -3.00887 0
M  V30 8642 C 803.598 1.19384 -4.33668 0
M  V30 8643 C 804.917 2.97285 -3.24514 0
M  V30 8644 H 802.036 0.383104 -0.629603 0
M  V30 8645 H 804.678 0.333864 -1.87044 0
M  V30 8646 H 802.828 2.59552 -2.89076 0
M  V30 8647 H 804.5 0.600906 -4.57369 0
M  V30 8648 H 802.743 0.496198 -4.30953 0
M  V30 8649 H 803.414 1.87014 -5.19355 0
M  V30 8650 H 805.89 2.45693 -3.35819 0
M  V30 8651 H 804.766 3.58887 -4.15321 0
M  V30 8652 H 805.027 3.70003 -2.41971 0
M  V30 8653 N 804.086 1.46499 0.581025 0
M  V30 8654 C 805.502 1.31491 0.904563 0
M  V30 8655 C 805.702 0.287598 1.99437 0
M  V30 8656 O 804.758 -0.309247 2.50599 0
M  V30 8657 C 806.071 2.70163 1.32032 0
M  V30 8658 C 807.619 2.78266 1.43308 0
M  V30 8659 C 808.094 4.17524 1.8825 0
M  V30 8660 N 809.585 4.19949 1.9544 0
M  V30 8661 C 810.32 5.24594 2.31493 0
M  V30 8662 N 809.816 6.39564 2.66326 0
M  V30 8663 N 811.609 5.11961 2.32062 0
M  V30 8664 H 803.76 2.11946 -0.138856 0
M  V30 8665 H 806.023 0.948 0.000548528 0
M  V30 8666 H 805.729 3.46655 0.593554 0
M  V30 8667 H 805.603 3.00379 2.2815 0
M  V30 8668 H 807.99 2.02061 2.15071 0
M  V30 8669 H 808.071 2.51732 0.45438 0
M  V30 8670 H 807.715 4.94225 1.17065 0
M  V30 8671 H 807.645 4.41466 2.87081 0
M  V30 8672 H 810.136 3.36996 1.71004 0
M  V30 8673 H 810.449 7.15187 2.92793 0
M  V30 8674 H 808.794 6.42923 2.6396 0
M  V30 8675 H 811.985 4.21177 2.04272 0
M  V30 8676 H 812.158 5.93626 2.5983 0
M  V30 8677 N 805.565 -0.825799 1.34232 0
M  V30 8678 C 806.811 -1.58419 1.26614 0
M  V30 8679 C 807.144 -1.93503 -0.164341 0
M  V30 8680 O 806.419 -1.59785 -1.109 0
M  V30 8681 C 806.702 -2.8856 2.15418 0
M  V30 8682 C 806.555 -2.60075 3.66989 0
M  V30 8683 C 807.874 -3.90107 2.03726 0
M  V30 8684 H 804.993 -0.574794 0.461282 0
M  V30 8685 H 807.635 -0.951519 1.64457 0
M  V30 8686 H 805.785 -3.42553 1.83275 0
M  V30 8687 H 807.457 -2.12414 4.09485 0
M  V30 8688 H 805.7 -1.93565 3.88221 0
M  V30 8689 H 806.371 -3.52866 4.24488 0
M  V30 8690 H 808.847 -3.45459 2.31942 0
M  V30 8691 H 807.723 -4.78976 2.68092 0
M  V30 8692 H 807.984 -4.30329 1.01337 0
M  V30 8693 N 807.043 -1.17915 -1.04565 0
M  V30 8694 C 808.29 -0.971424 -1.77678 0
M  V30 8695 C 808.618 0.499401 -1.87979 0
M  V30 8696 O 807.873 1.38695 -1.38066 0
M  V30 8697 C 808.172 -1.56528 -3.213 0
M  V30 8698 C 807.838 -3.06138 -3.31044 0
M  V30 8699 C 806.5 -3.46974 -3.33411 0
M  V30 8700 C 808.852 -4.02151 -3.31548 0
M  V30 8701 C 806.18 -4.82406 -3.33918 0
M  V30 8702 C 808.532 -5.37492 -3.33595 0
M  V30 8703 C 807.196 -5.77782 -3.34251 0
M  V30 8704 H 806.466 -0.355469 -0.650171 0
M  V30 8705 H 809.113 -1.46902 -1.22849 0
M  V30 8706 H 807.418 -0.98955 -3.79098 0
M  V30 8707 H 809.115 -1.38003 -3.76505 0
M  V30 8708 H 805.705 -2.73589 -3.29919 0
M  V30 8709 H 809.889 -3.71656 -3.28916 0
M  V30 8710 H 805.145 -5.12927 -3.3274 0
M  V30 8711 H 809.319 -6.1166 -3.32934 0
M  V30 8712 H 806.946 -6.82702 -3.34397 0
M  V30 8713 N 808.521 1.23394 -0.980386 0
M  V30 8714 C 809.798 1.87242 -0.565667 0
M  V30 8715 C 810.178 1.88151 0.957197 0
M  V30 8716 O 809.526 1.36309 1.8339 0
M  V30 8717 C 809.736 3.28743 -1.17172 0
M  V30 8718 C 811.084 4.05335 -1.26446 0
M  V30 8719 O 812.108 3.37962 -1.12517 0
M  V30 8720 O 810.967 5.25908 -1.48604 0
M  V30 8721 H 808.061 0.80477 -0.190459 0
M  V30 8722 H 810.607 1.3127 -1.07547 0
M  V30 8723 H 809.379 3.22647 -2.21392 0
M  V30 8724 H 809.002 3.92305 -0.646739 0
M  V30 8725 N 809.999 0.752036 1.385 0
M  V30 8726 C 811.246 0.307503 2.00152 0
M  V30 8727 C 811.574 -1.11033 1.59693 0
M  V30 8728 O 810.829 -1.77455 0.825125 0
M  V30 8729 C 811.128 0.376155 3.55415 0
M  V30 8730 C 810.794 1.74942 4.15579 0
M  V30 8731 C 809.456 2.12525 4.31725 0
M  V30 8732 C 811.808 2.65031 4.48785 0
M  V30 8733 C 809.136 3.39671 4.78373 0
M  V30 8734 C 811.488 3.91567 4.96848 0
M  V30 8735 C 810.152 4.2922 5.11201 0
M  V30 8736 H 809.422 0.112523 0.732407 0
M  V30 8737 H 812.069 0.962213 1.65571 0
M  V30 8738 H 810.374 -0.362121 3.90123 0
M  V30 8739 H 812.071 0.0138065 4.00998 0
M  V30 8740 H 808.661 1.44726 4.03426 0
M  V30 8741 H 812.845 2.3726 4.35914 0
M  V30 8742 H 808.101 3.68765 4.8767 0
M  V30 8743 H 812.275 4.61517 5.21512 0
M  V30 8744 H 809.902 5.27805 5.47107 0
M  V30 8745 N 811.477 -1.49425 0.500989 0
M  V30 8746 C 812.723 -2.02753 -0.0436 0
M  V30 8747 C 813.056 -1.37991 -1.36646 0
M  V30 8748 O 812.331 -0.515597 -1.87542 0
M  V30 8749 C 812.614 -3.59565 -0.19616 0
M  V30 8750 C 812.467 -4.34855 1.14982 0
M  V30 8751 C 813.786 -4.30014 -0.936795 0
M  V30 8752 H 810.905 -0.73686 -0.0143711 0
M  V30 8753 H 813.547 -1.78448 0.652397 0
M  V30 8754 H 811.697 -3.80405 -0.788959 0
M  V30 8755 H 813.369 -4.25512 1.7815 0
M  V30 8756 H 811.612 -3.97414 1.73911 0
M  V30 8757 H 812.283 -5.42933 0.996385 0
M  V30 8758 H 814.759 -4.1383 -0.434036 0
M  V30 8759 H 813.635 -5.39483 -1.01238 0
M  V30 8760 H 813.896 -3.95257 -1.9805 0
M  V30 8761 N 812.955 -0.234822 -1.55841 0
M  V30 8762 C 813.902 0.6698 -2.20867 0
M  V30 8763 C 814.872 1.18042 -1.16856 0
M  V30 8764 O 816.057 1.23709 -1.45261 0
M  V30 8765 C 813.197 1.86646 -2.90271 0
M  V30 8766 C 812.31 1.39351 -4.08908 0
M  V30 8767 C 811.445 2.54878 -4.66059 0
M  V30 8768 C 810.484 2.04384 -5.76969 0
M  V30 8769 N 809.621 3.13233 -6.28355 0
M  V30 8770 H 814.461 0.10858 -2.97802 0
M  V30 8771 H 811.998 0.041836 -1.4704 0
M  V30 8772 H 813.956 2.56926 -3.28702 0
M  V30 8773 H 812.586 2.40035 -2.15831 0
M  V30 8774 H 811.638 0.585173 -3.75872 0
M  V30 8775 H 812.95 0.983356 -4.89011 0
M  V30 8776 H 812.104 3.33219 -5.07001 0
M  V30 8777 H 810.843 2.99188 -3.85146 0
M  V30 8778 H 809.848 1.24509 -5.35516 0
M  V30 8779 H 811.073 1.61057 -6.59725 0
M  V30 8780 H 809.019 3.57 -5.50352 0
M  V30 8781 H 808.936 2.76511 -7.03618 0
M  V30 8782 H 810.204 3.91669 -6.73955 0
M  V30 8783 N 814.433 1.57553 0.0384317 0
M  V30 8784 C 815.658 1.93485 0.746872 0
M  V30 8785 C 816.083 0.834069 1.68597 0
M  V30 8786 O 815.441 -0.210902 1.80069 0
M  V30 8787 C 815.489 3.28463 1.4881 0
M  V30 8788 O 814.593 3.20051 2.60079 0
M  V30 8789 H 813.934 0.632675 0.201539 0
M  V30 8790 H 816.464 2.046 -0.00329815 0
M  V30 8791 H 816.474 3.63132 1.86009 0
M  V30 8792 H 815.149 4.08147 0.799297 0
M  V30 8793 H 813.726 2.96998 2.25492 0
M  V30 8794 N 815.911 -0.310526 1.54511 0
M  V30 8795 C 817.157 -1.04459 1.74528 0
M  V30 8796 C 817.512 -1.85251 0.519613 0
M  V30 8797 O 816.805 -1.85281 -0.488001 0
M  V30 8798 C 816.999 -1.98942 2.96912 0
M  V30 8799 C 816.828 -1.27442 4.31264 0
M  V30 8800 C 815.598 -1.00552 4.95194 0
M  V30 8801 C 817.796 -0.683695 5.09735 0
M  V30 8802 N 815.778 -0.259797 6.1335 0
M  V30 8803 C 817.149 -0.0702549 6.1996 0
M  V30 8804 C 819.204 -0.587799 4.94418 0
M  V30 8805 C 817.907 0.629791 7.16538 0
M  V30 8806 C 819.933 0.0985719 5.91318 0
M  V30 8807 C 819.295 0.700902 7.00904 0
M  V30 8808 H 815.394 -0.365496 0.69133 0
M  V30 8809 H 817.978 -0.324277 1.91981 0
M  V30 8810 H 816.149 -2.68233 2.80902 0
M  V30 8811 H 817.881 -2.6543 3.05498 0
M  V30 8812 H 814.636 -1.30123 4.55374 0
M  V30 8813 H 815.06 0.099301 6.76927 0
M  V30 8814 H 819.702 -1.03919 4.0983 0
M  V30 8815 H 817.42 1.09298 8.00674 0
M  V30 8816 H 821.006 0.172585 5.81544 0
M  V30 8817 H 819.886 1.22357 7.74596 0
M  V30 8818 N 817.389 -1.46805 -0.573248 0
M  V30 8819 C 818.614 -1.56433 -1.36175 0
M  V30 8820 C 819.039 -0.209336 -1.86932 0
M  V30 8821 O 818.397 0.812146 -1.62092 0
M  V30 8822 C 818.445 -2.58055 -2.51873 0
M  V30 8823 O 817.549 -2.12214 -3.53609 0
M  V30 8824 H 816.89 -0.526068 -0.405153 0
M  V30 8825 H 819.42 -1.92456 -0.694405 0
M  V30 8826 H 819.43 -2.77966 -2.98662 0
M  V30 8827 H 818.105 -3.56448 -2.14284 0
M  V30 8828 H 816.682 -2.02333 -3.13234 0
M  V30 8829 N 818.867 0.818669 -1.34668 0
M  V30 8830 C 820.144 1.56118 -1.17841 0
M  V30 8831 C 820.524 2.09646 0.24731 0
M  V30 8832 O 819.872 1.91329 1.24922 0
M  V30 8833 C 820.082 2.67922 -2.23649 0
M  V30 8834 C 821.43 3.36579 -2.58843 0
M  V30 8835 O 822.454 2.78182 -2.22471 0
M  V30 8836 O 821.313 4.42045 -3.21339 0
M  V30 8837 H 818.407 0.689216 -0.457067 0
M  V30 8838 H 820.953 0.859674 -1.46314 0
M  V30 8839 H 819.725 2.26153 -3.19328 0
M  V30 8840 H 819.348 3.45719 -1.96377 0
M  V30 8841 N 820.346 1.18468 1.03938 0
M  V30 8842 C 821.762 0.934635 1.29371 0
M  V30 8843 C 821.962 -0.399067 1.97509 0
M  V30 8844 O 821.018 -1.13309 2.25648 0
M  V30 8845 C 822.331 2.10111 2.15114 0
M  V30 8846 C 823.879 2.13955 2.28456 0
M  V30 8847 C 824.354 3.30024 3.17566 0
M  V30 8848 N 825.845 3.29893 3.25153 0
M  V30 8849 C 826.58 4.16346 3.94263 0
M  V30 8850 N 826.076 5.12934 4.65693 0
M  V30 8851 N 827.869 4.04256 3.90556 0
M  V30 8852 H 820.02 2.04294 0.581185 0
M  V30 8853 H 822.283 0.892727 0.318971 0
M  V30 8854 H 821.989 3.06572 1.72355 0
M  V30 8855 H 821.863 2.06283 3.15796 0
M  V30 8856 H 824.25 1.18072 2.7045 0
M  V30 8857 H 824.331 2.2184 1.2736 0
M  V30 8858 H 823.975 4.26181 2.76283 0
M  V30 8859 H 823.905 3.19376 4.18697 0
M  V30 8860 H 826.396 2.59969 2.74271 0
M  V30 8861 H 826.709 5.75271 5.16026 0
M  V30 8862 H 825.054 5.16893 4.64593 0
M  V30 8863 H 828.245 3.28083 3.33885 0
M  V30 8864 H 828.418 4.71848 4.44144 0
M  V30 8865 N 821.824 -1.22873 0.986916 0
M  V30 8866 C 822.772 -2.26597 0.525043 0
M  V30 8867 C 823.766 -1.64079 -0.421252 0
M  V30 8868 O 824.972 -1.77576 -0.294429 0
M  V30 8869 H 821.347 -0.736606 0.151381 0
M  V30 8870 H 823.318 -2.62909 1.41142 0
M  V30 8871 C 822.067 -3.47374 -0.150542 0
M  V30 8872 H 821.39 -3.95737 0.568541 0
M  V30 8873 H 822.83 -4.21739 -0.437256 0
M  V30 8874 C 821.289 -3.07163 -1.38392 0
M  V30 8875 O 821.819 -3.16028 -2.47971 0
M  V30 8876 N 820.025 -2.62009 -1.25697 0
M  V30 8877 H 819.572 -2.54996 -0.365355 0
M  V30 8878 H 819.53 -2.35472 -2.08327 0
M  V30 8879 N 823.302 -0.75937 -1.38099 0
M  V30 8880 C 824.25 -0.124954 -2.32264 0
M  V30 8881 C 825.244 0.698863 -1.54312 0
M  V30 8882 O 826.45 0.597312 -1.698 0
M  V30 8883 H 822.825 -0.0216142 -0.751689 0
M  V30 8884 H 824.796 -0.935115 -2.83369 0
M  V30 8885 C 823.545 0.749463 -3.39527 0
M  V30 8886 H 822.868 0.124932 -3.99605 0
M  V30 8887 H 824.308 1.16055 -4.07808 0
M  V30 8888 C 822.767 1.89464 -2.78577 0
M  V30 8889 O 823.297 2.98923 -2.68343 0
M  V30 8890 N 821.503 1.69145 -2.36301 0
M  V30 8891 H 821.05 0.801157 -2.44825 0
M  V30 8892 H 821.008 2.45936 -1.95864 0
M  V30 8893 N 824.78 1.49157 -0.508906 0
M  V30 8894 C 826.029 2.0167 0.0346854 0
M  V30 8895 C 826.342 1.39302 1.37311 0
M  V30 8896 O 827.548 1.83189 2.00385 0
M  V30 8897 C 826.004 3.59725 0.112261 0
M  V30 8898 C 825.612 4.31069 -1.21999 0
M  V30 8899 C 827.356 4.20155 0.605798 0
M  V30 8900 C 825.263 5.81001 -1.10415 0
M  V30 8901 H 824.193 0.753814 0.0167355 0
M  V30 8902 H 826.844 1.7162 -0.649518 0
M  V30 8903 H 825.226 3.86525 0.861087 0
M  V30 8904 H 826.4 4.15962 -1.98273 0
M  V30 8905 H 824.715 3.82418 -1.64759 0
M  V30 8906 H 827.312 5.29964 0.710102 0
M  V30 8907 H 827.655 3.84051 1.60656 0
M  V30 8908 H 828.188 3.97705 -0.0867239 0
M  V30 8909 H 824.927 6.21643 -2.07941 0
M  V30 8910 H 824.447 5.9858 -0.382428 0
M  V30 8911 H 826.126 6.42207 -0.786116 0
M  V30 8912 N 826.258 0.243083 1.55714 0
M  V30 8913 C 827.669 -0.260788 1.8487 0
M  V30 8914 C 828.02 -1.57879 1.16485 0
M  V30 8915 O 827.145 -2.1184 0.441908 0
M  V30 8916 C 827.74 -0.479954 3.35383 0
M  V30 8917 C 826.299 -0.928096 3.64778 0
M  V30 8918 C 825.446 -0.00316416 2.773 0
M  V30 8919 H 828.397 0.465743 1.51712 0
M  V30 8920 H 828.418 -1.32308 3.56756 0
M  V30 8921 H 827.93 0.479468 3.85127 0
M  V30 8922 H 826.031 -1.90012 3.20509 0
M  V30 8923 H 826.144 -0.7876 4.72582 0
M  V30 8924 H 824.508 -0.513849 2.49463 0
M  V30 8925 H 825.291 0.951562 3.29849 0
M  V30 8926 N 827.736 -1.57571 -0.0300757 0
M  V30 8927 C 828.982 -1.89506 -0.722159 0
M  V30 8928 C 829.315 -0.840699 -1.7506 0
M  V30 8929 O 828.59 0.144358 -1.93964 0
M  V30 8930 C 828.873 -3.32081 -1.39262 0
M  V30 8931 C 828.726 -4.48211 -0.377768 0
M  V30 8932 C 830.045 -3.73557 -2.32687 0
M  V30 8933 H 827.164 -0.689213 -0.261064 0
M  V30 8934 H 829.806 -1.89994 0.0150388 0
M  V30 8935 H 827.956 -3.31796 -2.02098 0
M  V30 8936 H 829.628 -4.6063 0.248591 0
M  V30 8937 H 827.871 -4.3274 0.303045 0
M  V30 8938 H 828.542 -5.44854 -0.885347 0
M  V30 8939 H 831.018 -3.75202 -1.79896 0
M  V30 8940 H 829.894 -4.74125 -2.7658 0
M  V30 8941 H 830.155 -3.05759 -3.19317 0
M  V30 8942 N 829.214 0.302327 -1.54673 0
M  V30 8943 C 830.444 1.05516 -1.77623 0
M  V30 8944 C 830.852 1.81474 -0.535159 0
M  V30 8945 O 830.195 1.76635 0.504543 0
M  V30 8946 C 830.257 2.08305 -2.93001 0
M  V30 8947 C 829.921 1.51554 -4.31139 0
M  V30 8948 C 830.918 0.946261 -5.11216 0
M  V30 8949 C 828.603 1.55157 -4.77736 0
M  V30 8950 C 830.597 0.420559 -6.36011 0
M  V30 8951 C 828.284 1.022 -6.02494 0
M  V30 8952 C 829.282 0.457461 -6.81466 0
M  V30 8953 O 828.97 -0.064083 -8.03874 0
M  V30 8954 H 828.702 0.318756 -0.59613 0
M  V30 8955 H 831.256 0.347558 -2.02438 0
M  V30 8956 H 829.486 2.82742 -2.63807 0
M  V30 8957 H 831.175 2.69479 -3.03539 0
M  V30 8958 H 831.941 0.911338 -4.76361 0
M  V30 8959 H 827.82 1.98037 -4.16296 0
M  V30 8960 H 831.364 -0.0207298 -6.97597 0
M  V30 8961 H 827.261 1.05406 -6.36836 0
M  V30 8962 H 828.029 0.0493422 -8.18485 0
M  V30 8963 N 830.692 1.47107 0.565454 0
M  V30 8964 C 831.939 1.53308 1.32299 0
M  V30 8965 C 832.267 0.1919 1.93551 0
M  V30 8966 O 831.522 -0.81435 1.77952 0
M  V30 8967 C 831.821 2.59309 2.45954 0
M  V30 8968 C 831.487 4.02827 2.02586 0
M  V30 8969 C 830.149 4.41897 1.90474 0
M  V30 8970 C 832.501 4.92913 1.6937 0
M  V30 8971 C 829.829 5.68898 1.4343 0
M  V30 8972 C 832.181 6.20368 1.238 0
M  V30 8973 C 830.845 6.58327 1.10278 0
M  V30 8974 H 830.115 0.560993 0.484116 0
M  V30 8975 H 832.762 1.80667 0.634965 0
M  V30 8976 H 831.067 2.25676 3.20277 0
M  V30 8977 H 832.764 2.61332 3.04149 0
M  V30 8978 H 829.354 3.71953 2.12952 0
M  V30 8979 H 833.538 4.63433 1.77605 0
M  V30 8980 H 828.794 5.97065 1.31618 0
M  V30 8981 H 832.968 6.89589 0.971586 0
M  V30 8982 H 830.595 7.56628 0.736027 0
M  V30 8983 N 832.17 -0.811516 1.35101 0
M  V30 8984 C 833.418 -1.56525 1.27845 0
M  V30 8985 C 833.739 -1.94435 -0.14829 0
M  V30 8986 O 833.009 -1.63203 -1.08359 0
M  V30 8987 H 831.589 -0.580433 0.47022 0
M  V30 8988 H 834.251 -0.968277 1.69146 0
M  V30 8989 H 833.347 -2.48291 1.89097 0
M  V30 8990 N 833.648 -1.19017 -1.03309 0
M  V30 8991 C 834.558 -0.939303 -2.14975 0
M  V30 8992 C 835.574 0.0992359 -1.73717 0
M  V30 8993 O 836.75 -0.0844362 -2.01223 0
M  V30 8994 C 833.815 -0.476712 -3.43407 0
M  V30 8995 C 832.876 -1.58413 -3.99003 0
M  V30 8996 C 832.109 -1.14352 -5.21305 0
M  V30 8997 O 832.332 -0.00534408 -5.704 0
M  V30 8998 O 831.266 -1.94436 -5.6963 0
M  V30 8999 H 835.092 -1.87386 -2.38998 0
M  V30 9000 H 832.677 -0.972635 -1.13403 0
M  V30 9001 H 834.559 -0.22718 -4.20787 0
M  V30 9002 H 833.234 0.429455 -3.20839 0
M  V30 9003 H 832.141 -1.88777 -3.22977 0
M  V30 9004 H 833.474 -2.4667 -4.25928 0
M  V30 9005 N 835.127 1.22348 -0.993418 0
M  V30 9006 C 836.374 1.9111 -0.669568 0
M  V30 9007 C 836.702 1.77357 0.79843 0
M  V30 9008 O 835.957 1.13675 1.593 0
M  V30 9009 C 836.256 3.42477 -1.02197 0
M  V30 9010 C 835.922 3.7642 -2.48232 0
M  V30 9011 C 834.584 3.85395 -2.88139 0
M  V30 9012 C 836.936 3.9253 -3.42884 0
M  V30 9013 C 834.264 4.07918 -4.21687 0
M  V30 9014 C 836.616 4.16557 -4.76091 0
M  V30 9015 C 835.28 4.23757 -5.15739 0
M  V30 9016 H 834.55 0.699321 -0.245012 0
M  V30 9017 H 837.197 1.45102 -1.2497 0
M  V30 9018 H 835.502 3.90143 -0.359921 0
M  V30 9019 H 837.199 3.93935 -0.74942 0
M  V30 9020 H 833.789 3.70017 -2.16299 0
M  V30 9021 H 837.973 3.84974 -3.13224 0
M  V30 9022 H 833.229 4.11719 -4.51993 0
M  V30 9023 H 837.403 4.27966 -5.4938 0
M  V30 9024 H 835.03 4.40962 -6.19239 0
M  V30 9025 N 836.605 0.766683 1.37694 0
M  V30 9026 C 837.568 0.155849 2.2867 0
M  V30 9027 C 838.568 -0.633509 1.47795 0
M  V30 9028 O 839.758 -0.457844 1.68076 0
M  V30 9029 C 836.89 -0.786965 3.31692 0
M  V30 9030 H 838.083 0.957748 2.84196 0
M  V30 9031 H 835.636 0.534554 1.46875 0
M  V30 9032 H 836.371 -1.61406 2.8128 0
M  V30 9033 H 836.156 -0.223182 3.91464 0
M  V30 9034 H 837.646 -1.20994 3.99688 0
M  V30 9035 N 838.083 -1.48885 0.516809 0
M  V30 9036 C 839.329 -2.02788 -0.0220928 0
M  V30 9037 C 839.662 -1.39433 -1.35175 0
M  V30 9038 O 838.937 -0.535459 -1.86984 0
M  V30 9039 C 839.22 -3.59753 -0.158012 0
M  V30 9040 C 839.073 -4.33611 1.19588 0
M  V30 9041 C 840.392 -4.30984 -0.891133 0
M  V30 9042 H 837.511 -0.736971 -0.00655488 0
M  V30 9043 H 840.153 -1.77746 0.671287 0
M  V30 9044 H 838.303 -3.8122 -0.748568 0
M  V30 9045 H 839.975 -4.23598 1.82653 0
M  V30 9046 H 838.218 -3.95547 1.78116 0
M  V30 9047 H 838.889 -5.41846 1.05391 0
M  V30 9048 H 841.365 -4.14267 -0.39012 0
M  V30 9049 H 840.241 -5.40527 -0.955107 0
M  V30 9050 H 840.502 -3.97336 -1.93847 0
M  V30 9051 N 839.561 -0.251338 -1.55583 0
M  V30 9052 C 840.494 0.687092 -2.1761 0
M  V30 9053 C 841.472 1.16963 -1.12953 0
M  V30 9054 O 842.656 1.24696 -1.41362 0
M  V30 9055 C 839.783 1.93429 -2.78034 0
M  V30 9056 C 838.829 1.58925 -3.95784 0
M  V30 9057 S 839.662 0.688019 -5.31062 0
M  V30 9058 C 840.818 1.94413 -5.94941 0
M  V30 9059 H 841.051 0.159982 -2.96869 0
M  V30 9060 H 838.584 -0.0357593 -1.54359 0
M  V30 9061 H 840.542 2.65028 -3.13481 0
M  V30 9062 H 839.203 2.43253 -1.98713 0
M  V30 9063 H 838.396 2.51668 -4.36668 0
M  V30 9064 H 837.998 0.953664 -3.61637 0
M  V30 9065 H 840.29 2.89087 -6.12727 0
M  V30 9066 H 841.233 1.5787 -6.90277 0
M  V30 9067 H 841.641 2.09824 -5.24056 0
M  V30 9068 N 841.039 1.57585 0.0217189 0
M  V30 9069 C 842.002 2.06004 1.00474 0
M  V30 9070 C 843.002 0.965461 1.2859 0
M  V30 9071 O 844.192 1.22884 1.23471 0
M  V30 9072 C 841.324 2.48319 2.33561 0
M  V30 9073 H 842.517 2.94112 0.586346 0
M  V30 9074 H 840.07 1.53973 0.268716 0
M  V30 9075 H 840.805 1.63389 2.80133 0
M  V30 9076 H 840.59 3.28239 2.1448 0
M  V30 9077 H 842.08 2.86181 3.04122 0
M  V30 9078 N 842.517 -0.29412 1.54831 0
M  V30 9079 C 843.747 -1.04572 1.7818 0
M  V30 9080 C 844.155 -1.81187 0.544776 0
M  V30 9081 O 843.498 -1.769 -0.495169 0
M  V30 9082 C 843.56 -2.06748 2.94101 0
M  V30 9083 C 843.224 -1.49265 4.31936 0
M  V30 9084 C 844.221 -0.919136 5.11711 0
M  V30 9085 C 841.906 -1.52621 4.78552 0
M  V30 9086 C 843.9 -0.386824 6.36225 0
M  V30 9087 C 841.587 -0.990031 6.03027 0
M  V30 9088 C 842.585 -0.421315 6.81699 0
M  V30 9089 O 842.273 0.106713 8.03829 0
M  V30 9090 H 842.005 -0.31559 0.597812 0
M  V30 9091 H 844.559 -0.336817 2.0262 0
M  V30 9092 H 842.789 -2.81339 2.65303 0
M  V30 9093 H 844.478 -2.67865 3.04964 0
M  V30 9094 H 845.244 -0.886062 4.76837 0
M  V30 9095 H 841.123 -1.95826 4.17341 0
M  V30 9096 H 844.667 0.0577248 6.97576 0
M  V30 9097 H 840.564 -1.02027 6.37386 0
M  V30 9098 H 841.332 -0.00593526 8.185 0
M  V30 9099 N 843.995 -1.47404 -0.557645 0
M  V30 9100 C 844.958 -1.59411 -1.64684 0
M  V30 9101 C 845.958 -0.469244 -1.53801 0
M  V30 9102 O 847.148 -0.734298 -1.57967 0
M  V30 9103 C 844.28 -1.5382 -3.04224 0
M  V30 9104 H 845.473 -2.56504 -1.55389 0
M  V30 9105 H 843.026 -1.35588 -0.777531 0
M  V30 9106 H 843.761 -0.581 -3.19053 0
M  V30 9107 H 843.546 -2.35456 -3.13533 0
M  V30 9108 H 845.036 -1.65358 -3.83466 0
M  V30 9109 N 845.473 0.80434 -1.35529 0
M  V30 9110 C 846.75 1.5486 -1.1949 0
M  V30 9111 C 847.13 2.09897 0.22506 0
M  V30 9112 O 846.478 1.92643 1.22886 0
M  V30 9113 C 846.688 2.65535 -2.26478 0
M  V30 9114 C 848.036 3.33814 -2.62399 0
M  V30 9115 O 849.06 2.75807 -2.25409 0
M  V30 9116 O 847.919 4.38612 -3.26009 0
M  V30 9117 H 845.013 0.68433 -0.464351 0
M  V30 9118 H 847.559 0.844107 -1.47217 0
M  V30 9119 H 846.331 2.22754 -3.21709 0
M  V30 9120 H 845.954 3.43617 -2.00033 0
M  V30 9121 N 846.951 1.19563 1.02676 0
M  V30 9122 C 848.367 0.948304 1.28372 0
M  V30 9123 C 848.567 -0.378096 1.97921 0
M  V30 9124 O 847.623 -1.1091 2.26838 0
M  V30 9125 C 848.936 2.12381 2.12873 0
M  V30 9126 C 850.484 2.16366 2.26174 0
M  V30 9127 C 850.959 3.33374 3.14048 0
M  V30 9128 N 852.45 3.33323 3.21636 0
M  V30 9129 C 853.185 4.20504 3.89825 0
M  V30 9130 N 852.681 5.17845 4.60227 0
M  V30 9131 N 854.474 4.08375 3.86246 0
M  V30 9132 H 846.625 2.04899 0.559485 0
M  V30 9133 H 848.888 0.89606 0.309484 0
M  V30 9134 H 848.594 3.08383 1.69094 0
M  V30 9135 H 848.468 2.09621 3.1359 0
M  V30 9136 H 850.855 1.20933 2.69182 0
M  V30 9137 H 850.936 2.23179 1.25 0
M  V30 9138 H 850.58 4.29087 2.71747 0
M  V30 9139 H 850.51 3.23798 4.15286 0
M  V30 9140 H 853.001 2.62863 2.71498 0
M  V30 9141 H 853.314 5.80712 5.09896 0
M  V30 9142 H 851.659 5.21791 4.59085 0
M  V30 9143 H 854.85 3.31606 3.30386 0
M  V30 9144 H 855.023 4.76532 4.39114 0
M  V30 9145 N 848.429 -1.21819 0.999893 0
M  V30 9146 C 849.657 -1.94758 0.698359 0
M  V30 9147 C 850.072 -1.73771 -0.738183 0
M  V30 9148 O 849.429 -1.04113 -1.49889 0
M  V30 9149 C 849.48 -3.47292 1.00353 0
M  V30 9150 O 849.201 -3.67579 2.38363 0
M  V30 9151 C 850.702 -4.37403 0.72068 0
M  V30 9152 H 847.922 -0.619512 0.257771 0
M  V30 9153 H 850.466 -1.54778 1.33656 0
M  V30 9154 H 848.621 -3.85213 0.411018 0
M  V30 9155 H 849.035 -4.61719 2.48829 0
M  V30 9156 H 850.509 -5.43151 0.984422 0
M  V30 9157 H 850.986 -4.3784 -0.345309 0
M  V30 9158 H 851.592 -4.05119 1.29456 0
M  V30 9159 N 849.908 -0.773975 -1.37286 0
M  V30 9160 C 851.133 -0.349561 -2.04433 0
M  V30 9161 C 851.558 1.02082 -1.5799 0
M  V30 9162 O 850.916 1.65458 -0.741172 0
M  V30 9163 C 850.964 -0.404292 -3.58326 0
M  V30 9164 O 850.068 0.594447 -4.08093 0
M  V30 9165 H 849.409 -0.150959 -0.646612 0
M  V30 9166 H 851.939 -1.05079 -1.75555 0
M  V30 9167 H 851.949 -0.262378 -4.07155 0
M  V30 9168 H 850.624 -1.40403 -3.91484 0
M  V30 9169 H 849.201 0.415468 -3.70578 0
M  V30 9170 N 851.386 1.48609 -0.524698 0
M  V30 9171 C 852.802 1.58557 -0.182199 0
M  V30 9172 C 853.002 1.52732 1.31435 0
M  V30 9173 O 852.058 1.41362 2.0922 0
M  V30 9174 C 853.371 2.90406 -0.78004 0
M  V30 9175 C 854.919 3.03924 -0.748293 0
M  V30 9176 C 855.394 4.38427 -1.32462 0
M  V30 9177 N 856.885 4.4498 -1.28635 0
M  V30 9178 C 857.62 5.47551 -1.70223 0
M  V30 9179 N 857.116 6.57103 -2.19515 0
M  V30 9180 N 858.909 5.38402 -1.61493 0
M  V30 9181 H 851.06 1.50638 -1.4974 0
M  V30 9182 H 853.323 0.714952 -0.622533 0
M  V30 9183 H 853.029 3.00308 -1.83052 0
M  V30 9184 H 852.903 3.76343 -0.254075 0
M  V30 9185 H 855.29 2.93638 0.293407 0
M  V30 9186 H 855.371 2.19611 -1.31167 0
M  V30 9187 H 855.015 4.49466 -2.36522 0
M  V30 9188 H 854.945 5.21418 -0.736967 0
M  V30 9189 H 857.436 3.66393 -0.92545 0
M  V30 9190 H 857.749 7.31499 -2.49257 0
M  V30 9191 H 856.094 6.58081 -2.23506 0
M  V30 9192 H 859.285 4.5171 -1.22785 0
M  V30 9193 H 859.458 6.18208 -1.94225 0
M  V30 9194 N 852.864 0.259585 1.55447 0
M  V30 9195 C 854.11 -0.362143 1.9954 0
M  V30 9196 C 854.443 -1.5666 1.14767 0
M  V30 9197 O 853.718 -1.93319 0.214025 0
M  V30 9198 C 854.001 -0.759588 3.51998 0
M  V30 9199 C 853.854 0.451134 4.47532 0
M  V30 9200 C 855.173 -1.60186 4.09913 0
M  V30 9201 H 852.292 -0.130157 0.725416 0
M  V30 9202 H 854.934 0.363431 1.86492 0
M  V30 9203 H 853.084 -1.3778 3.63248 0
M  V30 9204 H 854.756 1.08965 4.48246 0
M  V30 9205 H 852.999 1.092 4.19831 0
M  V30 9206 H 853.67 0.129518 5.51848 0
M  V30 9207 H 856.146 -1.0799 4.01842 0
M  V30 9208 H 855.022 -1.84879 5.16828 0
M  V30 9209 H 855.283 -2.57787 3.59163 0
M  V30 9210 N 854.342 -1.57594 -0.0133615 0
M  V30 9211 C 855.289 -2.07574 -1.00905 0
M  V30 9212 C 856.259 -0.968231 -1.34961 0
M  V30 9213 O 857.444 -1.23981 -1.45028 0
M  V30 9214 C 854.584 -2.5728 -2.30002 0
M  V30 9215 C 853.697 -3.81881 -2.01967 0
M  V30 9216 C 852.832 -4.20139 -3.25049 0
M  V30 9217 C 851.871 -5.37614 -2.92639 0
M  V30 9218 N 851.008 -5.71229 -4.08218 0
M  V30 9219 H 855.848 -2.92382 -0.575899 0
M  V30 9220 H 853.385 -1.4455 -0.272722 0
M  V30 9221 H 855.343 -2.84171 -3.05454 0
M  V30 9222 H 853.973 -1.75365 -2.71011 0
M  V30 9223 H 853.025 -3.61979 -1.16942 0
M  V30 9224 H 854.337 -4.67441 -1.74069 0
M  V30 9225 H 853.491 -4.48242 -4.08857 0
M  V30 9226 H 852.23 -3.33262 -3.56073 0
M  V30 9227 H 851.235 -5.09248 -2.07235 0
M  V30 9228 H 852.46 -6.26157 -2.62876 0
M  V30 9229 H 850.406 -4.8731 -4.39164 0
M  V30 9230 H 850.323 -6.51333 -3.83799 0
M  V30 9231 H 851.591 -6.03917 -4.92854 0
M  V30 9232 N 855.82 0.285905 -1.54985 0
M  V30 9233 C 857.066 1.01669 -1.76168 0
M  V30 9234 C 857.421 1.84401 -0.549019 0
M  V30 9235 O 856.714 1.86034 0.458463 0
M  V30 9236 C 856.908 1.94193 -3.0004 0
M  V30 9237 C 856.737 1.20565 -4.33237 0
M  V30 9238 C 855.507 0.92661 -4.96731 0
M  V30 9239 C 857.705 0.602514 -5.10759 0
M  V30 9240 N 855.687 0.162185 -6.13686 0
M  V30 9241 C 857.058 -0.0283843 -6.19994 0
M  V30 9242 C 859.113 0.509067 -4.95291 0
M  V30 9243 C 857.816 -0.743706 -7.15445 0
M  V30 9244 C 859.842 -0.192633 -5.91086 0
M  V30 9245 C 859.204 -0.812321 -6.997 0
M  V30 9246 H 855.303 0.354451 -0.697057 0
M  V30 9247 H 857.887 0.293693 -1.92472 0
M  V30 9248 H 856.058 2.6373 -2.85133 0
M  V30 9249 H 857.79 2.60536 -3.09682 0
M  V30 9250 H 854.545 1.22861 -4.57386 0
M  V30 9251 H 854.969 -0.206982 -6.76684 0
M  V30 9252 H 859.611 0.973856 -4.11432 0
M  V30 9253 H 857.329 -1.22022 -7.98834 0
M  V30 9254 H 860.915 -0.265082 -5.81196 0
M  V30 9255 H 859.795 -1.34665 -7.72551 0
M  V30 9256 N 857.298 1.47698 0.54982 0
M  V30 9257 C 858.528 1.58101 1.32995 0
M  V30 9258 C 858.936 0.232939 1.87761 0
M  V30 9259 O 858.279 -0.785058 1.6608 0
M  V30 9260 C 858.341 2.55228 2.53178 0
M  V30 9261 C 858.005 4.00756 2.19645 0
M  V30 9262 C 859.002 4.89025 1.76496 0
M  V30 9263 C 856.687 4.46147 2.30777 0
M  V30 9264 C 858.681 6.20707 1.44919 0
M  V30 9265 C 856.368 5.77856 1.98812 0
M  V30 9266 C 857.366 6.64957 1.55952 0
M  V30 9267 O 857.054 7.94217 1.24396 0
M  V30 9268 H 856.786 0.536362 0.411451 0
M  V30 9269 H 859.34 1.94092 0.67212 0
M  V30 9270 H 857.57 2.14319 3.21876 0
M  V30 9271 H 859.259 2.55678 3.15251 0
M  V30 9272 H 860.025 4.55201 1.67383 0
M  V30 9273 H 855.904 3.78552 2.63096 0
M  V30 9274 H 859.448 6.88649 1.11392 0
M  V30 9275 H 855.345 6.11219 2.0756 0
M  V30 9276 H 856.113 8.06789 1.37964 0
M  V30 9277 N 858.776 -0.797141 1.35954 0
M  V30 9278 C 860.053 -1.54224 1.2031 0
M  V30 9279 C 860.433 -2.10013 -0.213926 0
M  V30 9280 O 859.781 -1.93292 -1.21862 0
M  V30 9281 C 859.991 -2.6433 2.27883 0
M  V30 9282 C 861.339 -3.32418 2.64165 0
M  V30 9283 O 862.363 -2.74607 2.26868 0
M  V30 9284 O 861.222 -4.36876 3.28331 0
M  V30 9285 H 858.316 -0.681857 0.467974 0
M  V30 9286 H 860.862 -0.836288 1.47663 0
M  V30 9287 H 859.634 -2.21044 3.22885 0
M  V30 9288 H 859.257 -3.42551 2.01853 0
M  V30 9289 N 860.254 -1.20106 -1.0204 0
M  V30 9290 C 861.501 -1.00889 -1.75578 0
M  V30 9291 C 861.829 0.459415 -1.88996 0
M  V30 9292 O 861.084 1.35735 -1.40977 0
M  V30 9293 C 861.383 -1.63308 -3.17908 0
M  V30 9294 C 861.049 -3.13091 -3.24476 0
M  V30 9295 C 859.711 -3.53968 -3.25976 0
M  V30 9296 C 862.063 -4.09093 -3.22944 0
M  V30 9297 C 859.391 -4.89381 -3.2361 0
M  V30 9298 C 861.743 -5.44447 -3.22119 0
M  V30 9299 C 860.407 -5.84742 -3.2192 0
M  V30 9300 H 859.677 -0.36918 -0.642485 0
M  V30 9301 H 862.324 -1.49475 -1.19706 0
M  V30 9302 H 860.629 -1.06974 -3.76914 0
M  V30 9303 H 862.326 -1.45958 -3.73493 0
M  V30 9304 H 858.916 -2.80526 -3.24042 0
M  V30 9305 H 863.1 -3.78549 -3.20958 0
M  V30 9306 H 858.356 -5.1987 -3.21785 0
M  V30 9307 H 862.53 -6.18584 -3.19885 0
M  V30 9308 H 860.157 -6.89642 -3.19841 0
M  V30 9309 N 861.732 1.21287 -1.00634 0
M  V30 9310 C 862.981 1.89706 -0.685178 0
M  V30 9311 C 863.294 1.79044 0.787566 0
M  V30 9312 O 864.5 2.42502 1.22086 0
M  V30 9313 C 862.956 3.40176 -1.17508 0
M  V30 9314 C 862.564 3.59446 -2.674 0
M  V30 9315 C 864.308 4.14213 -0.928869 0
M  V30 9316 C 862.215 5.03688 -3.09923 0
M  V30 9317 H 861.145 0.710434 -0.252586 0
M  V30 9318 H 863.796 1.37277 -1.21768 0
M  V30 9319 H 862.178 3.91867 -0.570622 0
M  V30 9320 H 863.352 3.18188 -3.33306 0
M  V30 9321 H 861.667 2.98764 -2.9005 0
M  V30 9322 H 864.264 5.20546 -1.22212 0
M  V30 9323 H 864.607 4.16082 0.134859 0
M  V30 9324 H 865.14 3.68591 -1.49619 0
M  V30 9325 H 861.879 5.06968 -4.15529 0
M  V30 9326 H 861.399 5.45796 -2.4873 0
M  V30 9327 H 863.078 5.72204 -3.0198 0
M  V30 9328 N 863.21 0.781244 1.36873 0
M  V30 9329 C 864.435 0.360398 2.04245 0
M  V30 9330 C 864.86 -1.01242 1.58529 0
M  V30 9331 O 864.218 -1.65063 0.749936 0
M  V30 9332 C 864.266 0.42329 3.58107 0
M  V30 9333 O 863.37 -0.572796 4.08403 0
M  V30 9334 H 862.711 0.154386 0.645803 0
M  V30 9335 H 865.241 1.06008 1.74996 0
M  V30 9336 H 865.251 0.283967 4.07011 0
M  V30 9337 H 863.926 1.42477 3.90734 0
M  V30 9338 H 862.503 -0.395809 3.70793 0
M  V30 9339 N 864.689 -1.48329 0.532571 0
M  V30 9340 C 865.966 -1.95492 -0.0650985 0
M  V30 9341 C 866.346 -1.47485 -1.51034 0
M  V30 9342 O 865.694 -0.702516 -2.17433 0
M  V30 9343 C 865.904 -3.48957 0.0548341 0
M  V30 9344 C 867.252 -4.24475 -0.103115 0
M  V30 9345 O 868.276 -3.56195 -0.0188343 0
M  V30 9346 O 867.135 -5.45781 -0.280164 0
M  V30 9347 H 864.229 -0.823327 -0.0778603 0
M  V30 9348 H 866.775 -1.58839 0.597353 0
M  V30 9349 H 865.547 -3.76628 1.06148 0
M  V30 9350 H 865.17 -3.92311 -0.64635 0
M  V30 9351 N 866.167 -0.267825 -1.55308 0
M  V30 9352 C 867.13 0.60965 -2.20943 0
M  V30 9353 C 868.13 1.0869 -1.18504 0
M  V30 9354 O 869.32 0.988248 -1.43455 0
M  V30 9355 C 866.452 1.84027 -2.86961 0
M  V30 9356 H 867.645 0.0366806 -2.99878 0
M  V30 9357 H 865.198 -0.0183941 -1.56289 0
M  V30 9358 H 865.933 2.45394 -2.1202 0
M  V30 9359 H 865.718 1.50605 -3.62023 0
M  V30 9360 H 867.208 2.46442 -3.37129 0
M  V30 9361 N 867.645 1.57599 0.00500368 0
M  V30 9362 C 868.608 2.07058 0.982832 0
M  V30 9363 C 869.608 0.979045 1.27559 0
M  V30 9364 O 870.798 1.24187 1.22161 0
M  V30 9365 C 867.93 2.50782 2.30914 0
M  V30 9366 H 869.123 2.94718 0.555119 0
M  V30 9367 H 866.676 1.54249 0.25237 0
M  V30 9368 H 867.411 1.66351 2.78385 0
M  V30 9369 H 867.196 3.30495 2.10987 0
M  V30 9370 H 868.686 2.89391 3.0107 0
M  V30 9371 N 869.123 -0.277682 1.55134 0
M  V30 9372 C 870.053 -1.34742 1.90701 0
M  V30 9373 C 871.034 -1.51757 0.768354 0
M  V30 9374 O 872.219 -1.64879 1.02609 0
M  V30 9375 C 869.349 -2.70775 2.17481 0
M  V30 9376 C 868.303 -2.68497 3.33307 0
M  V30 9377 C 867.629 -4.08037 3.45557 0
M  V30 9378 C 868.929 -2.28178 4.69821 0
M  V30 9379 H 870.623 -1.05224 2.803 0
M  V30 9380 H 868.169 -0.504738 1.34864 0
M  V30 9381 H 870.122 -3.45719 2.40949 0
M  V30 9382 H 868.846 -3.01867 1.24676 0
M  V30 9383 H 867.505 -1.9601 3.09799 0
M  V30 9384 H 867.153 -4.36344 2.50226 0
M  V30 9385 H 866.853 -4.07409 4.23429 0
M  V30 9386 H 868.377 -4.84726 3.71312 0
M  V30 9387 H 869.791 -2.92843 4.92865 0
M  V30 9388 H 868.188 -2.3872 5.50575 0
M  V30 9389 H 869.258 -1.23308 4.6896 0
M  V30 9390 N 870.601 -1.47988 -0.541979 0
M  V30 9391 C 871.511 -1.64276 -1.67483 0
M  V30 9392 C 872.527 -0.525387 -1.65879 0
M  V30 9393 O 873.703 -0.794912 -1.85049 0
M  V30 9394 C 870.768 -1.66744 -3.03969 0
M  V30 9395 C 869.829 -2.90021 -3.16522 0
M  V30 9396 C 869.062 -2.92362 -4.46498 0
M  V30 9397 O 869.285 -2.03462 -5.32878 0
M  V30 9398 O 868.219 -3.84399 -4.63164 0
M  V30 9399 H 872.045 -2.60164 -1.5668 0
M  V30 9400 H 869.63 -1.31249 -0.71372 0
M  V30 9401 H 871.512 -1.70958 -3.85164 0
M  V30 9402 H 870.187 -0.740277 -3.15122 0
M  V30 9403 H 869.094 -2.91345 -2.34667 0
M  V30 9404 H 870.427 -3.82082 -3.10281 0
M  V30 9405 N 872.079 0.78992 -1.36375 0
M  V30 9406 C 873.495 1.0879 -1.16777 0
M  V30 9407 C 873.695 2.01498 0.00848236 0
M  V30 9408 O 872.751 2.43338 0.674007 0
M  V30 9409 C 874.064 1.70285 -2.47837 0
M  V30 9410 C 875.612 1.82629 -2.54196 0
M  V30 9411 C 876.087 2.47539 -3.85342 0
M  V30 9412 N 877.578 2.55008 -3.86685 0
M  V30 9413 C 878.313 3.06041 -4.84898 0
M  V30 9414 N 877.809 3.57385 -5.93505 0
M  V30 9415 N 879.602 3.04748 -4.72319 0
M  V30 9416 H 871.753 0.173985 -2.11686 0
M  V30 9417 H 874.016 0.139798 -0.937636 0
M  V30 9418 H 873.722 1.09633 -3.34176 0
M  V30 9419 H 873.596 2.69799 -2.63607 0
M  V30 9420 H 875.983 2.42419 -1.68276 0
M  V30 9421 H 876.064 0.81923 -2.42327 0
M  V30 9422 H 875.708 1.88393 -4.71668 0
M  V30 9423 H 875.638 3.48815 -3.94507 0
M  V30 9424 H 878.129 2.18651 -3.08221 0
M  V30 9425 H 878.442 3.94674 -6.64419 0
M  V30 9426 H 876.787 3.55538 -5.97175 0
M  V30 9427 H 879.978 2.63925 -3.86602 0
M  V30 9428 H 880.151 3.44212 -5.49019 0
M  V30 9429 N 873.557 1.20646 1.01402 0
M  V30 9430 C 874.805 1.01618 1.74695 0
M  V30 9431 C 875.126 -0.452438 1.89679 0
M  V30 9432 O 874.396 -1.32693 1.44116 0
M  V30 9433 H 872.976 0.373013 0.647202 0
M  V30 9434 H 875.638 1.518 1.22241 0
M  V30 9435 H 874.734 1.47666 2.74957 0
M  V30 9436 N 875.035 -1.20752 1.01276 0
M  V30 9437 C 876.282 -1.90021 0.699887 0
M  V30 9438 C 876.61 -1.78604 -0.770113 0
M  V30 9439 O 875.865 -1.16195 -1.57471 0
M  V30 9440 C 876.164 -3.40808 1.07633 0
M  V30 9441 C 875.83 -3.72423 2.54189 0
M  V30 9442 C 874.492 -3.80762 2.94234 0
M  V30 9443 C 876.844 -3.87025 3.49086 0
M  V30 9444 C 874.172 -4.01158 4.28123 0
M  V30 9445 C 876.524 -4.0893 4.82658 0
M  V30 9446 C 875.188 -4.15498 5.22415 0
M  V30 9447 H 874.458 -0.695335 0.256107 0
M  V30 9448 H 877.105 -1.43096 1.27263 0
M  V30 9449 H 875.41 -3.89521 0.421944 0
M  V30 9450 H 877.107 -3.92693 0.811997 0
M  V30 9451 H 873.697 -3.66529 2.22158 0
M  V30 9452 H 877.881 -3.79942 3.19309 0
M  V30 9453 H 873.137 -4.04476 4.58486 0
M  V30 9454 H 877.311 -4.19172 5.56119 0
M  V30 9455 H 874.938 -4.31055 6.26176 0
M  V30 9456 N 876.513 -0.788492 -1.36457 0
M  V30 9457 C 877.476 -0.192209 -2.28393 0
M  V30 9458 C 878.476 0.609916 -1.48784 0
M  V30 9459 O 879.666 0.431046 -1.68783 0
M  V30 9460 C 876.798 0.734096 -3.32902 0
M  V30 9461 H 877.991 -1.00284 -2.82636 0
M  V30 9462 H 875.544 -0.557852 -1.46006 0
M  V30 9463 H 876.279 1.5691 -2.83813 0
M  V30 9464 H 876.064 0.160875 -3.9177 0
M  V30 9465 H 877.554 1.1462 -4.01562 0
M  V30 9466 N 877.991 1.48044 -0.54043 0
M  V30 9467 C 879.231 2.04396 -0.012296 0
M  V30 9468 C 879.595 1.40748 1.30591 0
M  V30 9469 O 880.796 1.88048 1.92072 0
M  V30 9470 C 879.067 3.5727 0.0964302 0
M  V30 9471 S 880.626 4.35041 0.573117 0
M  V30 9472 H 877.444 0.710795 -0.0170735 0
M  V30 9473 H 880.046 1.81625 -0.723362 0
M  V30 9474 H 878.75 4.01124 -0.86762 0
M  V30 9475 H 878.281 3.84511 0.83156 0
M  V30 9476 H 880.296 4.6099 1.83583 0
M  V30 9477 N 879.47 0.276058 1.55163 0
M  V30 9478 C 880.695 -0.346648 2.04483 0
M  V30 9479 C 881.12 -1.48613 1.15308 0
M  V30 9480 O 880.478 -1.80663 0.151875 0
M  V30 9481 C 880.526 -0.804268 3.51517 0
M  V30 9482 O 879.63 -1.91143 3.65429 0
M  V30 9483 H 878.971 -0.0715251 0.660136 0
M  V30 9484 H 881.501 0.410631 2.00437 0
M  V30 9485 H 881.511 -1.09977 3.92898 0
M  V30 9486 H 880.186 0.0294123 4.1589 0
M  V30 9487 H 878.763 -1.61839 3.3595 0
M  V30 9488 N 880.948 -1.576 0.00335426 0
M  V30 9489 C 882.194 -1.90996 -0.681799 0
M  V30 9490 C 882.527 -0.877643 -1.73237 0
M  V30 9491 O 881.802 0.103183 -1.94226 0
M  V30 9492 C 882.085 -3.34961 -1.32187 0
M  V30 9493 C 881.938 -4.48911 -0.28261 0
M  V30 9494 C 883.257 -3.78408 -2.24711 0
M  V30 9495 H 880.376 -0.694596 -0.246386 0
M  V30 9496 H 883.018 -1.89919 0.055336 0
M  V30 9497 H 881.168 -3.36008 -1.95014 0
M  V30 9498 H 882.84 -4.59999 0.346241 0
M  V30 9499 H 881.083 -4.32 0.394768 0
M  V30 9500 H 881.754 -5.46609 -0.769576 0
M  V30 9501 H 884.23 -3.78934 -1.71897 0
M  V30 9502 H 883.106 -4.79885 -2.66461 0
M  V30 9503 H 883.367 -3.12464 -3.1276 0
M  V30 9504 N 882.426 0.269451 -1.5528 0
M  V30 9505 C 883.672 0.997946 -1.77236 0
M  V30 9506 C 884.027 1.83808 -0.568546 0
M  V30 9507 O 883.32 1.8651 0.438706 0
M  V30 9508 C 883.514 1.91 -3.02082 0
M  V30 9509 C 883.343 1.15963 -4.34491 0
M  V30 9510 C 882.113 0.873873 -4.97686 0
M  V30 9511 C 884.311 0.548307 -5.11369 0
M  V30 9512 N 882.293 0.0970863 -6.13823 0
M  V30 9513 C 883.664 -0.0941413 -6.19929 0
M  V30 9514 C 885.719 0.456507 -4.95803 0
M  V30 9515 C 884.422 -0.819547 -7.14616 0
M  V30 9516 C 886.448 -0.255315 -5.90849 0
M  V30 9517 C 885.81 -0.886488 -6.988 0
M  V30 9518 H 881.909 0.347038 -0.700777 0
M  V30 9519 H 884.493 0.273262 -1.92773 0
M  V30 9520 H 882.664 2.60691 -2.87915 0
M  V30 9521 H 884.396 2.57237 -3.12428 0
M  V30 9522 H 881.151 1.18003 -4.58663 0
M  V30 9523 H 881.575 -0.278741 -6.76426 0
M  V30 9524 H 886.217 0.930164 -4.12441 0
M  V30 9525 H 883.935 -1.30488 -7.97495 0
M  V30 9526 H 887.521 -0.32671 -5.80882 0
M  V30 9527 H 886.401 -1.42851 -7.71079 0
M  V30 9528 N 883.904 1.48273 0.534124 0
M  V30 9529 C 885.181 1.46567 1.29528 0
M  V30 9530 C 885.561 0.17509 2.10373 0
M  V30 9531 O 884.909 -0.843228 2.12372 0
M  V30 9532 C 885.119 2.72519 2.18023 0
M  V30 9533 C 886.467 3.2068 2.78298 0
M  V30 9534 O 887.491 2.73408 2.28313 0
M  V30 9535 O 886.35 4.02924 3.69208 0
M  V30 9536 H 883.444 0.585151 0.584403 0
M  V30 9537 H 885.99 1.60502 0.551119 0
M  V30 9538 H 884.762 3.57965 1.5804 0
M  V30 9539 H 884.385 2.61285 2.99693 0
M  V30 9540 N 885.382 -0.782676 1.36792 0
M  V30 9541 C 886.33 -1.91698 1.31737 0
M  V30 9542 C 887.324 -1.68118 0.207994 0
M  V30 9543 O 888.53 -1.76042 0.375393 0
M  V30 9544 H 884.905 -0.630215 0.410284 0
M  V30 9545 H 886.876 -1.93078 2.27516 0
M  V30 9546 C 885.625 -3.28816 1.13029 0
M  V30 9547 H 884.948 -3.4753 1.97643 0
M  V30 9548 H 886.388 -4.08515 1.13541 0
M  V30 9549 C 884.847 -3.36497 -0.1647 0
M  V30 9550 O 885.377 -3.84822 -1.15216 0
M  V30 9551 N 883.583 -2.89828 -0.211678 0
M  V30 9552 H 883.13 -2.50693 0.59252 0
M  V30 9553 H 883.088 -2.95349 -1.07779 0
M  V30 9554 N 886.86 -1.21182 -1.00761 0
M  V30 9555 C 888.108 -1.02543 -1.74153 0
M  V30 9556 C 888.429 0.442372 -1.89916 0
M  V30 9557 O 887.699 1.31927 -1.44818 0
M  V30 9558 H 886.279 -0.37644 -0.645214 0
M  V30 9559 H 888.941 -1.52446 -1.21434 0
M  V30 9560 H 888.037 -1.49122 -2.7417 0
M  V30 9561 N 888.338 1.20213 -1.01915 0
M  V30 9562 C 889.584 1.89928 -0.711007 0
M  V30 9563 C 889.917 1.7881 0.75767 0
M  V30 9564 O 889.192 1.17399 1.55073 0
M  V30 9565 C 889.475 3.41225 -1.15053 0
M  V30 9566 C 889.328 3.61264 -2.67971 0
M  V30 9567 C 890.647 4.34108 -0.72377 0
M  V30 9568 H 887.766 0.689702 -0.259768 0
M  V30 9569 H 890.408 1.41557 -1.26734 0
M  V30 9570 H 888.558 3.82552 -0.677199 0
M  V30 9571 H 890.23 3.29173 -3.23176 0
M  V30 9572 H 888.473 3.04647 -3.08824 0
M  V30 9573 H 889.144 4.67331 -2.93779 0
M  V30 9574 H 891.62 4.00442 -1.13073 0
M  V30 9575 H 890.496 5.38581 -1.05931 0
M  V30 9576 H 890.757 4.40512 0.374424 0
M  V30 9577 N 889.816 0.795718 1.36037 0
M  V30 9578 C 891.063 0.371024 1.99072 0
M  V30 9579 C 891.391 -1.05896 1.63145 0
M  V30 9580 O 890.646 -1.7474 0.881163 0
M  V30 9581 C 890.945 0.489038 3.54038 0
M  V30 9582 C 890.611 1.88075 4.09803 0
M  V30 9583 C 889.273 2.26152 4.24745 0
M  V30 9584 C 891.625 2.79174 4.40126 0
M  V30 9585 C 888.953 3.54718 4.67324 0
M  V30 9586 C 891.305 4.07175 4.8414 0
M  V30 9587 C 889.969 4.45266 4.97287 0
M  V30 9588 H 889.239 0.135767 0.728456 0
M  V30 9589 H 891.886 1.0144 1.62426 0
M  V30 9590 H 890.191 -0.237823 3.91078 0
M  V30 9591 H 891.888 0.141374 4.00751 0
M  V30 9592 H 888.478 1.57488 3.98617 0
M  V30 9593 H 892.662 2.51009 4.28145 0
M  V30 9594 H 887.918 3.84093 4.75691 0
M  V30 9595 H 892.092 4.77875 5.06565 0
M  V30 9596 H 889.719 5.44943 5.30038 0
M  V30 9597 N 891.294 -1.47756 0.548274 0
M  V30 9598 C 892.542 -2.02089 0.0208542 0
M  V30 9599 C 892.863 -1.42589 -1.33017 0
M  V30 9600 O 892.133 -0.597825 -1.86555 0
M  V30 9601 H 890.713 -0.746985 0.00472023 0
M  V30 9602 H 893.375 -1.81262 0.716257 0
M  V30 9603 H 892.471 -3.12012 -0.0739016 0
M  V30 9604 N 892.772 -0.284283 -1.55015 0
M  V30 9605 C 893.997 0.335799 -2.04664 0
M  V30 9606 C 894.422 1.47999 -1.16094 0
M  V30 9607 O 893.78 1.8058 -0.161454 0
M  V30 9608 C 893.828 0.785615 -3.51938 0
M  V30 9609 O 892.932 1.89202 -3.66437 0
M  V30 9610 H 892.273 0.0680233 -0.660506 0
M  V30 9611 H 894.803 -0.421255 -2.00216 0
M  V30 9612 H 894.813 1.07892 -3.93476 0
M  V30 9613 H 893.488 -0.0514675 -4.15868 0
M  V30 9614 H 892.065 1.60055 -3.36804 0
M  V30 9615 N 894.251 1.57596 -0.0117121 0
M  V30 9616 C 895.181 2.12188 0.9746 0
M  V30 9617 C 896.162 1.03379 1.35081 0
M  V30 9618 O 897.347 1.31123 1.4325 0
M  V30 9619 C 894.477 2.63477 2.26268 0
M  V30 9620 C 893.431 3.76917 2.02774 0
M  V30 9621 C 892.757 4.14566 3.37697 0
M  V30 9622 C 894.057 5.03715 1.38089 0
M  V30 9623 H 895.751 2.9485 0.520007 0
M  V30 9624 H 893.297 1.41836 0.248685 0
M  V30 9625 H 895.25 3.00299 2.95633 0
M  V30 9626 H 893.974 1.77953 2.73862 0
M  V30 9627 H 892.633 3.40507 1.35832 0
M  V30 9628 H 892.281 3.26048 3.83016 0
M  V30 9629 H 891.981 4.91 3.22789 0
M  V30 9630 H 893.505 4.53956 4.08358 0
M  V30 9631 H 894.919 5.38233 1.97428 0
M  V30 9632 H 893.316 5.85032 1.33634 0
M  V30 9633 H 894.386 4.83624 0.351575 0
M  V30 9634 N 895.729 -0.261212 1.5542 0
M  V30 9635 C 897.006 -1.01321 1.67312 0
M  V30 9636 C 897.386 -2.0388 0.547356 0
M  V30 9637 O 896.734 -2.24003 -0.451083 0
M  V30 9638 C 896.944 -1.65943 3.07024 0
M  V30 9639 C 898.292 -2.16666 3.65159 0
M  V30 9640 O 899.316 -1.75909 3.09733 0
M  V30 9641 O 898.175 -2.91455 4.62294 0
M  V30 9642 H 895.269 -0.470714 0.679968 0
M  V30 9643 H 897.815 -0.256133 1.67756 0
M  V30 9644 H 896.587 -0.916868 3.80407 0
M  V30 9645 H 896.21 -2.48308 3.1053 0
M  V30 9646 N 897.207 -1.48554 -0.526253 0
M  V30 9647 C 898.155 -1.63804 -1.65139 0
M  V30 9648 C 899.149 -0.504398 -1.61716 0
M  V30 9649 O 900.355 -0.683241 -1.66529 0
M  V30 9650 H 896.73 -0.516071 -0.546969 0
M  V30 9651 H 898.701 -2.58294 -1.49421 0
M  V30 9652 C 897.45 -1.69843 -3.03395 0
M  V30 9653 H 896.773 -2.56438 -3.06724 0
M  V30 9654 H 898.213 -1.84555 -3.81727 0
M  V30 9655 C 896.672 -0.437875 -3.34042 0
M  V30 9656 O 897.202 0.447604 -3.99198 0
M  V30 9657 N 895.408 -0.308444 -2.88958 0
M  V30 9658 H 894.955 -1.02998 -2.36112 0
M  V30 9659 H 894.913 0.533952 -3.09833 0
M  V30 9660 N 898.685 0.775411 -1.37205 0
M  V30 9661 C 899.962 1.5229 -1.22748 0
M  V30 9662 C 900.342 2.10327 0.180487 0
M  V30 9663 O 899.69 1.95206 1.18772 0
M  V30 9664 C 899.9 2.60671 -2.3206 0
M  V30 9665 C 901.248 3.28173 -2.6942 0
M  V30 9666 O 902.272 2.70963 -2.31208 0
M  V30 9667 O 901.131 4.31598 -3.3524 0
M  V30 9668 H 898.225 0.674326 -0.478762 0
M  V30 9669 H 900.771 0.812691 -1.48975 0
M  V30 9670 H 899.543 2.1588 -3.26361 0
M  V30 9671 H 899.166 3.39296 -2.07277 0
M  V30 9672 N 900.163 1.21714 1.00117 0
M  V30 9673 C 901.096 0.923113 2.08696 0
M  V30 9674 C 902.074 -0.130827 1.62073 0
M  V30 9675 O 903.258 -0.00103064 1.885 0
M  V30 9676 C 900.385 0.386807 3.36484 0
M  V30 9677 C 899.431 1.42414 4.0202 0
M  V30 9678 S 900.264 2.99466 4.43937 0
M  V30 9679 C 901.42 2.47452 5.74907 0
M  V30 9680 H 901.653 1.84258 2.33315 0
M  V30 9681 H 899.186 1.0473 1.1345 0
M  V30 9682 H 901.144 0.0839547 4.10414 0
M  V30 9683 H 899.805 -0.511413 3.09909 0
M  V30 9684 H 898.998 0.998593 4.94008 0
M  V30 9685 H 898.6 1.67527 3.34381 0
M  V30 9686 H 900.892 1.88177 6.50842 0
M  V30 9687 H 901.835 3.37898 6.22279 0
M  V30 9688 H 902.243 1.89027 5.31911 0
M  V30 9689 N 901.641 -1.19671 1.02551 0
M  V30 9690 C 902.604 -2.20987 0.608055 0
M  V30 9691 C 903.604 -1.5745 -0.326534 0
M  V30 9692 O 904.794 -1.73827 -0.114003 0
M  V30 9693 C 901.926 -3.4072 -0.11074 0
M  V30 9694 H 903.119 -2.59434 1.50446 0
M  V30 9695 H 900.672 -1.3329 0.816307 0
M  V30 9696 H 901.407 -3.07787 -1.02165 0
M  V30 9697 H 901.192 -3.88069 0.560772 0
M  V30 9698 H 902.682 -4.15776 -0.389848 0
M  V30 9699 N 903.119 -0.802921 -1.35613 0
M  V30 9700 C 904.368 -0.378087 -1.98125 0
M  V30 9701 C 904.681 1.05953 -1.64418 0
M  V30 9702 O 905.887 1.58729 -2.20266 0
M  V30 9703 C 904.343 -0.625077 -3.5443 0
M  V30 9704 C 903.951 -2.07499 -3.97049 0
M  V30 9705 C 905.695 -0.265419 -4.23669 0
M  V30 9706 C 903.602 -2.26793 -5.46186 0
M  V30 9707 H 902.532 -0.137633 -0.741332 0
M  V30 9708 H 905.183 -0.986461 -1.54729 0
M  V30 9709 H 903.565 0.0531975 -3.95964 0
M  V30 9710 H 904.739 -2.79077 -3.66678 0
M  V30 9711 H 903.054 -2.39417 -3.40688 0
M  V30 9712 H 905.651 -0.387669 -5.33293 0
M  V30 9713 H 905.994 0.787994 -4.08774 0
M  V30 9714 H 906.527 -0.897464 -3.87544 0
M  V30 9715 H 903.266 -3.30566 -5.66045 0
M  V30 9716 H 902.786 -1.59735 -5.78139 0
M  V30 9717 H 904.465 -2.08165 -6.12598 0
M  V30 9718 N 904.597 1.47463 -0.556102 0
M  V30 9719 C 905.827 2.06568 -0.0364056 0
M  V30 9720 C 906.235 1.40939 1.26225 0
M  V30 9721 O 905.578 0.499572 1.76777 0
M  V30 9722 C 905.64 3.58755 0.231278 0
M  V30 9723 C 905.304 4.46417 -0.977776 0
M  V30 9724 C 906.301 4.846 -1.88305 0
M  V30 9725 C 903.986 4.87948 -1.19214 0
M  V30 9726 C 905.98 5.63111 -2.98639 0
M  V30 9727 C 903.667 5.66224 -2.29857 0
M  V30 9728 C 904.665 6.03716 -3.194 0
M  V30 9729 O 904.353 6.80415 -4.28125 0
M  V30 9730 H 904.085 0.674675 -0.042305 0
M  V30 9731 H 906.639 1.9047 -0.768775 0
M  V30 9732 H 904.869 3.73061 1.01794 0
M  V30 9733 H 906.558 3.99884 0.696221 0
M  V30 9734 H 907.324 4.53115 -1.72949 0
M  V30 9735 H 903.203 4.58233 -0.504347 0
M  V30 9736 H 906.747 5.92293 -3.68557 0
M  V30 9737 H 902.644 5.97121 -2.45186 0
M  V30 9738 H 903.412 6.98807 -4.26159 0
M  V30 9739 N 906.075 0.2925 1.54862 0
M  V30 9740 C 907.023 -0.603186 2.24643 0
M  V30 9741 C 908.017 -1.1439 1.24946 0
M  V30 9742 O 909.223 -1.09552 1.42823 0
M  V30 9743 H 905.598 -0.213105 0.721173 0
M  V30 9744 H 907.569 0.00799278 2.98399 0
M  V30 9745 C 906.318 -1.76769 2.99413 0
M  V30 9746 H 905.641 -1.36084 3.75927 0
M  V30 9747 H 907.081 -2.37066 3.51533 0
M  V30 9748 C 905.54 -2.66669 2.05886 0
M  V30 9749 O 906.07 -3.67525 1.62136 0
M  V30 9750 N 904.276 -2.34216 1.7202 0
M  V30 9751 H 903.823 -1.52246 2.07795 0
M  V30 9752 H 903.781 -2.94635 1.09717 0
M  V30 9753 N 907.553 -1.57587 0.0200696 0
M  V30 9754 C 908.969 -1.56018 -0.336237 0
M  V30 9755 C 909.169 -1.02478 -1.73495 0
M  V30 9756 O 908.225 -0.667487 -2.43518 0
M  V30 9757 C 909.538 -3.00079 -0.193112 0
M  V30 9758 C 911.086 -3.11863 -0.266557 0
M  V30 9759 C 911.561 -4.57747 -0.152326 0
M  V30 9760 N 913.052 -4.62726 -0.209596 0
M  V30 9761 C 913.787 -5.73217 -0.144855 0
M  V30 9762 N 913.283 -6.92794 -0.0295487 0
M  V30 9763 N 915.076 -5.61751 -0.198184 0
M  V30 9764 H 907.227 -1.90722 0.93482 0
M  V30 9765 H 909.49 -0.876909 0.360186 0
M  V30 9766 H 909.196 -3.43167 0.770036 0
M  V30 9767 H 909.07 -3.64593 -0.967029 0
M  V30 9768 H 911.457 -2.68693 -1.22016 0
M  V30 9769 H 911.538 -2.50087 0.53758 0
M  V30 9770 H 911.182 -5.01595 0.797817 0
M  V30 9771 H 911.112 -5.17491 -0.97521 0
M  V30 9772 H 913.603 -3.76713 -0.299229 0
M  V30 9773 H 913.916 -7.72799 0.0134071 0
M  V30 9774 H 912.261 -6.95 0.00510737 0
M  V30 9775 H 915.452 -4.67222 -0.286603 0
M  V30 9776 H 915.625 -6.47839 -0.144266 0
M  V30 9777 N 909.032 0.252966 -1.55557 0
M  V30 9778 C 910.309 1.00432 -1.67847 0
M  V30 9779 C 910.689 2.03587 -0.55816 0
M  V30 9780 O 910.037 2.24239 0.439197 0
M  V30 9781 C 910.247 1.64313 -3.079 0
M  V30 9782 C 911.595 2.14726 -3.66303 0
M  V30 9783 O 912.619 1.74264 -3.10661 0
M  V30 9784 O 911.478 2.89 -4.63833 0
M  V30 9785 H 908.572 0.467102 -0.682455 0
M  V30 9786 H 911.118 0.247233 -1.67889 0
M  V30 9787 H 909.89 0.896681 -3.80888 0
M  V30 9788 H 909.513 2.46657 -3.11843 0
M  V30 9789 N 910.51 1.48831 0.518367 0
M  V30 9790 C 911.738 1.6112 1.298 0
M  V30 9791 C 912.153 0.275872 1.86774 0
M  V30 9792 O 911.51 -0.736416 1.66983 0
M  V30 9793 C 911.561 2.66675 2.44063 0
M  V30 9794 O 911.282 3.95027 1.89434 0
M  V30 9795 C 912.783 2.8951 3.35706 0
M  V30 9796 H 910.003 0.542916 0.394314 0
M  V30 9797 H 912.547 1.94743 0.624142 0
M  V30 9798 H 910.702 2.35879 3.07311 0
M  V30 9799 H 911.116 4.53031 2.64316 0
M  V30 9800 H 912.59 3.67142 4.12202 0
M  V30 9801 H 913.067 1.98768 3.91648 0
M  V30 9802 H 913.673 3.21656 2.7824 0
M  V30 9803 N 911.988 -0.768124 1.37614 0
M  V30 9804 C 913.404 -1.06919 1.18493 0
M  V30 9805 C 913.604 -2.01486 0.0235753 0
M  V30 9806 O 912.66 -2.4438 -0.635209 0
M  V30 9807 C 913.973 -1.66321 2.50515 0
M  V30 9808 C 915.521 -1.78562 2.57069 0
M  V30 9809 C 915.996 -2.41377 3.89231 0
M  V30 9810 N 917.487 -2.48824 3.90693 0
M  V30 9811 C 918.222 -2.98288 4.89706 0
M  V30 9812 N 917.718 -3.47897 5.99115 0
M  V30 9813 N 919.511 -2.97196 4.77107 0
M  V30 9814 H 911.662 -0.140286 2.11936 0
M  V30 9815 H 913.925 -0.124863 0.939741 0
M  V30 9816 H 913.631 -1.04303 3.35878 0
M  V30 9817 H 913.505 -2.65571 2.67866 0
M  V30 9818 H 915.892 -2.39712 1.72111 0
M  V30 9819 H 915.973 -0.780574 2.43599 0
M  V30 9820 H 915.617 -1.80866 4.74605 0
M  V30 9821 H 915.547 -3.42495 4.00006 0
M  V30 9822 H 918.038 -2.1372 3.1166 0
M  V30 9823 H 918.351 -3.84053 6.70614 0
M  V30 9824 H 916.696 -3.45993 6.02755 0
M  V30 9825 H 919.887 -2.57741 3.90752 0
M  V30 9826 H 920.06 -3.35434 5.54426 0
M  V30 9827 N 913.466 -1.22244 -0.994698 0
M  V30 9828 C 914.694 -1.07218 -1.76952 0
M  V30 9829 C 915.109 0.377388 -1.8499 0
M  V30 9830 O 914.466 1.26157 -1.31874 0
M  V30 9831 C 914.517 -1.67496 -3.20355 0
M  V30 9832 O 914.238 -3.06782 -3.12756 0
M  V30 9833 C 915.739 -1.57721 -4.14294 0
M  V30 9834 H 912.959 -0.375966 -0.555779 0
M  V30 9835 H 915.503 -1.61799 -1.25065 0
M  V30 9836 H 913.658 -1.16982 -3.69315 0
M  V30 9837 H 914.072 -3.35784 -4.02926 0
M  V30 9838 H 915.546 -2.04623 -5.12673 0
M  V30 9839 H 916.023 -0.533434 -4.35949 0
M  V30 9840 H 916.629 -2.07531 -3.71229 0
M  V30 9841 N 914.944 1.19125 -1.03184 0
M  V30 9842 C 916.191 1.88883 -0.730029 0
M  V30 9843 C 916.519 1.79807 0.741602 0
M  V30 9844 O 915.774 1.18686 1.55603 0
M  V30 9845 C 916.073 3.39052 -1.13041 0
M  V30 9846 C 915.739 3.68332 -2.60082 0
M  V30 9847 C 914.401 3.76033 -3.00254 0
M  V30 9848 C 916.753 3.81423 -3.55199 0
M  V30 9849 C 914.081 3.94296 -4.34451 0
M  V30 9850 C 916.433 4.012 -4.89103 0
M  V30 9851 C 915.097 4.07134 -5.28959 0
M  V30 9852 H 914.367 0.691172 -0.267137 0
M  V30 9853 H 917.014 1.41053 -1.29523 0
M  V30 9854 H 915.319 3.88801 -0.48386 0
M  V30 9855 H 917.016 3.91351 -0.874368 0
M  V30 9856 H 913.606 3.62948 -2.27961 0
M  V30 9857 H 917.79 3.74814 -3.25313 0
M  V30 9858 H 913.046 3.97131 -4.64863 0
M  V30 9859 H 917.22 4.10271 -5.62717 0
M  V30 9860 H 914.847 4.21038 -6.32954 0
M  V30 9861 N 916.422 0.810101 1.35185 0
M  V30 9862 C 917.699 0.315235 1.93043 0
M  V30 9863 C 918.079 -1.19567 1.73974 0
M  V30 9864 O 917.427 -1.99682 1.11083 0
M  V30 9865 C 917.637 0.730492 3.41269 0
M  V30 9866 C 918.985 0.721985 4.18417 0
M  V30 9867 O 920.009 0.672258 3.49799 0
M  V30 9868 O 918.868 0.783535 5.40854 0
M  V30 9869 H 915.962 0.0832774 0.822796 0
M  V30 9870 H 918.508 0.894034 1.4424 0
M  V30 9871 H 917.28 1.77169 3.48894 0
M  V30 9872 H 916.903 0.12669 3.97398 0
M  V30 9873 N 917.9 -1.47166 0.563914 0
M  V30 9874 C 919.128 -2.06846 0.0474287 0
M  V30 9875 C 919.543 -1.41557 -1.24928 0
M  V30 9876 O 918.9 -0.514376 -1.75101 0
M  V30 9877 C 918.951 -3.6121 -0.144831 0
M  V30 9878 O 918.672 -4.24052 1.10053 0
M  V30 9879 C 920.173 -4.37773 -0.69783 0
M  V30 9880 H 917.393 -0.669217 0.0488896 0
M  V30 9881 H 919.937 -1.89072 0.779235 0
M  V30 9882 H 918.092 -3.78474 -0.82679 0
M  V30 9883 H 918.506 -5.16677 0.902481 0
M  V30 9884 H 919.98 -5.46438 -0.781616 0
M  V30 9885 H 920.457 -4.04517 -1.71063 0
M  V30 9886 H 921.063 -4.25269 -0.0513516 0
M  V30 9887 N 919.378 -0.300708 -1.54705 0
M  V30 9888 C 920.288 0.584996 -2.27189 0
M  V30 9889 C 921.304 1.14866 -1.30697 0
M  V30 9890 O 922.48 1.17351 -1.63679 0
M  V30 9891 C 919.545 1.74076 -2.99831 0
M  V30 9892 C 918.606 1.2112 -4.1186 0
M  V30 9893 C 917.839 2.31188 -4.81028 0
M  V30 9894 O 918.062 3.5108 -4.49554 0
M  V30 9895 O 916.996 1.97897 -5.68437 0
M  V30 9896 H 920.822 -0.00298177 -3.037 0
M  V30 9897 H 918.407 -0.0671802 -1.49249 0
M  V30 9898 H 920.289 2.41413 -3.45395 0
M  V30 9899 H 918.964 2.31535 -2.26215 0
M  V30 9900 H 917.871 0.50357 -3.70695 0
M  V30 9901 H 919.204 0.682046 -4.87452 0
M  V30 9902 N 920.856 1.57574 -0.0284266 0
M  V30 9903 C 922.105 1.9095 0.649704 0
M  V30 9904 C 922.418 0.906421 1.7333 0
M  V30 9905 O 923.624 1.1314 2.46803 0
M  V30 9906 C 922.08 3.39061 1.20687 0
M  V30 9907 C 921.688 4.47726 0.156597 0
M  V30 9908 C 923.432 3.81505 1.86156 0
M  V30 9909 C 921.339 5.86935 0.725365 0
M  V30 9910 H 920.269 0.712589 0.24644 0
M  V30 9911 H 922.92 1.83261 -0.0936143 0
M  V30 9912 H 921.302 3.41679 2.00178 0
M  V30 9913 H 922.476 4.56667 -0.6158 0
M  V30 9914 H 920.791 4.14481 -0.399288 0
M  V30 9915 H 923.388 4.82865 2.29665 0
M  V30 9916 H 923.731 3.16529 2.70398 0
M  V30 9917 H 924.264 3.81307 1.13356 0
M  V30 9918 H 921.003 6.55453 -0.0789081 0
M  V30 9919 H 920.523 5.81602 1.46627 0
M  V30 9920 H 922.202 6.35483 1.21532 0
M  V30 9921 N 922.334 -0.244713 1.55689 0
M  V30 9922 C 923.264 -1.30667 1.93516 0
M  V30 9923 C 924.245 -1.50094 0.800371 0
M  V30 9924 O 925.43 -1.62665 1.06083 0
M  V30 9925 C 922.56 -2.66101 2.23176 0
M  V30 9926 C 921.514 -2.61366 3.38927 0
M  V30 9927 C 920.84 -4.00616 3.54134 0
M  V30 9928 C 922.14 -2.18161 4.74555 0
M  V30 9929 H 923.834 -0.992546 2.82469 0
M  V30 9930 H 921.38 -0.476018 1.35905 0
M  V30 9931 H 923.333 -3.4053 2.48228 0
M  V30 9932 H 922.057 -2.99154 1.31051 0
M  V30 9933 H 920.716 -1.89395 3.13887 0
M  V30 9934 H 920.364 -4.30938 2.59426 0
M  V30 9935 H 920.064 -3.98335 4.31975 0
M  V30 9936 H 921.588 -4.76741 3.8151 0
M  V30 9937 H 923.002 -2.82323 4.98965 0
M  V30 9938 H 921.399 -2.26988 5.55515 0
M  V30 9939 H 922.469 -1.13333 4.7147 0
M  V30 9940 N 923.813 -1.49104 -0.510467 0
M  V30 9941 C 924.761 -1.65547 -1.63392 0
M  V30 9942 C 925.755 -0.521522 -1.61172 0
M  V30 9943 O 926.961 -0.700865 -1.65795 0
M  V30 9944 H 923.336 -0.521843 -0.541464 0
M  V30 9945 H 925.307 -2.59864 -1.46673 0
M  V30 9946 C 924.056 -1.73051 -3.01577 0
M  V30 9947 H 923.379 -2.59676 -3.03987 0
M  V30 9948 H 924.819 -1.88594 -3.79748 0
M  V30 9949 C 923.278 -0.47328 -3.33559 0
M  V30 9950 O 923.808 0.405239 -3.99651 0
M  V30 9951 N 922.014 -0.339074 -2.88615 0
M  V30 9952 H 921.561 -1.05497 -2.35007 0
M  V30 9953 H 921.519 0.501061 -3.10382 0
M  V30 9954 N 925.291 0.760815 -1.38019 0
M  V30 9955 C 926.254 1.85604 -1.34476 0
M  V30 9956 C 927.254 1.58897 -0.24666 0
M  V30 9957 O 928.444 1.66776 -0.50314 0
M  V30 9958 C 925.576 3.22945 -1.09176 0
M  V30 9959 H 926.769 1.90155 -2.31908 0
M  V30 9960 H 924.322 0.961746 -1.23208 0
M  V30 9961 H 925.057 3.24066 -0.123216 0
M  V30 9962 H 924.842 3.43723 -1.88672 0
M  V30 9963 H 926.332 4.03022 -1.09375 0
M  V30 9964 N 926.769 1.22769 0.988202 0
M  V30 9965 C 927.699 1.02627 2.09738 0
M  V30 9966 C 928.68 -0.0543211 1.70013 0
M  V30 9967 O 929.865 0.108811 1.93895 0
M  V30 9968 C 926.995 0.608302 3.41931 0
M  V30 9969 C 925.949 1.63536 3.95525 0
M  V30 9970 C 925.275 1.07308 5.23822 0
M  V30 9971 C 926.575 3.02649 4.25677 0
M  V30 9972 H 928.269 1.954 2.26847 0
M  V30 9973 H 925.815 0.940888 1.09011 0
M  V30 9974 H 927.768 0.454478 4.18942 0
M  V30 9975 H 926.492 -0.355095 3.24664 0
M  V30 9976 H 925.151 1.77704 3.20651 0
M  V30 9977 H 924.799 0.100894 5.02899 0
M  V30 9978 H 924.499 1.75925 5.60646 0
M  V30 9979 H 926.023 0.930938 6.03462 0
M  V30 9980 H 927.437 2.91828 4.93467 0
M  V30 9981 H 925.834 3.68434 4.73684 0
M  V30 9982 H 926.904 3.52228 3.33262 0
M  V30 9983 N 928.247 -1.18576 1.03814 0
M  V30 9984 C 929.494 -1.88493 0.740036 0
M  V30 9985 C 929.822 -1.80198 -0.732056 0
M  V30 9986 O 929.077 -1.19509 -1.54971 0
M  V30 9987 C 929.376 -3.38448 1.14837 0
M  V30 9988 C 929.042 -3.66947 2.62031 0
M  V30 9989 C 927.704 -3.74435 3.02244 0
M  V30 9990 C 930.056 -3.79534 3.57217 0
M  V30 9991 C 927.384 -3.91986 4.36536 0
M  V30 9992 C 929.736 -3.986 4.91223 0
M  V30 9993 C 928.4 -4.04323 5.31111 0
M  V30 9994 H 927.67 -0.689746 0.270798 0
M  V30 9995 H 930.317 -1.40364 1.3027 0
M  V30 9996 H 928.622 -3.88539 0.504472 0
M  V30 9997 H 930.319 -3.90882 0.89511 0
M  V30 9998 H 926.909 -3.61734 2.29883 0
M  V30 9999 H 931.093 -3.73083 3.27296 0
M  V30 10000 H 926.349 -3.9466 4.66962 0
M  V30 10001 H 930.523 -4.07281 5.64885 0
M  V30 10002 H 928.15 -4.17676 6.35178 0
M  V30 10003 N 929.725 -0.817259 -1.34754 0
M  V30 10004 C 930.673 -0.223352 -2.31525 0
M  V30 10005 C 931.667 0.632785 -1.57137 0
M  V30 10006 O 932.873 0.524757 -1.72181 0
M  V30 10007 H 929.248 -0.0534765 -0.750096 0
M  V30 10008 H 931.219 -1.05446 -2.79148 0
M  V30 10009 C 929.968 0.604784 -3.424 0
M  V30 10010 H 929.291 -0.0446664 -3.99775 0
M  V30 10011 H 930.731 0.986543 -4.12363 0
M  V30 10012 C 929.19 1.77478 -2.86362 0
M  V30 10013 O 929.72 2.87273 -2.8078 0
M  V30 10014 N 927.926 1.58971 -2.43263 0
M  V30 10015 H 927.473 0.696598 -2.48003 0
M  V30 10016 H 927.431 2.37408 -2.06119 0
M  V30 10017 N 931.203 1.46865 -0.571711 0
M  V30 10018 C 932.614 1.86158 -0.142181 0
M  V30 10019 C 932.965 1.47663 1.2919 0
M  V30 10020 O 932.09 0.886393 1.97413 0
M  V30 10021 C 932.685 3.37867 -0.251256 0
M  V30 10022 C 931.244 3.76198 0.123329 0
M  V30 10023 C 930.391 2.70902 -0.592232 0
M  V30 10024 H 933.342 1.38176 -0.780587 0
M  V30 10025 H 933.363 3.76842 0.526331 0
M  V30 10026 H 932.875 3.65853 -1.2951 0
M  V30 10027 H 930.976 3.53829 1.16773 0
M  V30 10028 H 931.089 4.78471 -0.24533 0
M  V30 10029 H 929.453 2.54678 -0.0336927 0
M  V30 10030 H 930.236 3.01729 -1.63751 0
M  V30 10031 N 932.681 0.308908 1.54543 0
M  V30 10032 C 933.929 -0.297447 1.99899 0
M  V30 10033 C 934.25 -1.53799 1.19878 0
M  V30 10034 O 933.52 -1.93639 0.29678 0
M  V30 10035 H 932.1 -0.112897 0.738419 0
M  V30 10036 H 934.762 0.422067 1.90275 0
M  V30 10037 H 933.858 -0.564016 3.06961 0
M  V30 10038 N 934.159 -1.57557 0.0367827 0
M  V30 10039 C 935.387 -1.96419 -0.650168 0
M  V30 10040 C 935.802 -0.913656 -1.6522 0
M  V30 10041 O 935.159 0.103718 -1.82205 0
M  V30 10042 C 935.21 -3.35355 -1.3498 0
M  V30 10043 O 934.931 -4.36379 -0.387905 0
M  V30 10044 C 936.432 -3.88892 -2.12786 0
M  V30 10045 H 933.652 -0.646751 -0.178756 0
M  V30 10046 H 936.196 -2.04261 0.0988197 0
M  V30 10047 H 934.351 -3.28708 -2.05012 0
M  V30 10048 H 934.765 -5.16969 -0.885596 0
M  V30 10049 H 936.239 -4.88428 -2.5718 0
M  V30 10050 H 936.716 -3.23547 -2.97008 0
M  V30 10051 H 937.322 -3.98831 -1.47694 0
M  V30 10052 N 935.637 0.236453 -1.55816 0
M  V30 10053 C 936.867 0.978873 -1.81939 0
M  V30 10054 C 937.275 1.79041 -0.611647 0
M  V30 10055 O 936.618 1.78616 0.429172 0
M  V30 10056 C 936.68 1.9569 -3.01572 0
M  V30 10057 C 936.344 1.33131 -4.37178 0
M  V30 10058 C 937.341 0.728585 -5.1477 0
M  V30 10059 C 935.026 1.34755 -4.83887 0
M  V30 10060 C 937.02 0.150427 -6.37222 0
M  V30 10061 C 934.707 0.765539 -6.06286 0
M  V30 10062 C 935.705 0.168017 -6.82793 0
M  V30 10063 O 935.393 -0.404976 -8.02879 0
M  V30 10064 H 935.125 0.293186 -0.609113 0
M  V30 10065 H 937.679 0.261384 -2.0373 0
M  V30 10066 H 935.909 2.71298 -2.75562 0
M  V30 10067 H 937.598 2.56362 -3.14695 0
M  V30 10068 H 938.364 0.708477 -4.79797 0
M  V30 10069 H 934.243 1.80202 -4.24321 0
M  V30 10070 H 937.787 -0.316586 -6.96881 0
M  V30 10071 H 933.684 0.78301 -6.40733 0
M  V30 10072 H 934.452 -0.29785 -8.17958 0
M  V30 10073 N 937.115 1.49373 0.502552 0
M  V30 10074 C 938.526 1.52 1.0841 0
M  V30 10075 C 938.877 0.305317 1.9381 0
M  V30 10076 O 938.002 -0.585023 2.08342 0
M  V30 10077 C 938.597 2.75437 1.97281 0
M  V30 10078 C 937.156 2.80848 2.50602 0
M  V30 10079 C 936.303 2.45894 1.28186 0
M  V30 10080 H 939.254 1.56092 0.286533 0
M  V30 10081 H 939.275 2.55511 2.81947 0
M  V30 10082 H 938.787 3.63827 1.35098 0
M  V30 10083 H 936.888 1.96735 3.16427 0
M  V30 10084 H 937.001 3.82979 2.8786 0
M  V30 10085 H 935.365 1.97639 1.60657 0
M  V30 10086 H 936.148 3.36556 0.677139 0
M  V30 10087 N 938.594 -0.753485 1.38421 0
M  V30 10088 C 939.819 -1.54783 1.38047 0
M  V30 10089 C 940.244 -1.8808 -0.0276371 0
M  V30 10090 O 939.602 -1.5058 -1.00973 0
M  V30 10091 C 939.65 -2.82353 2.24297 0
M  V30 10092 O 938.754 -3.77509 1.66014 0
M  V30 10093 H 938.095 -0.468151 0.470883 0
M  V30 10094 H 940.625 -0.931144 1.82184 0
M  V30 10095 H 940.635 -3.31277 2.38159 0
M  V30 10096 H 939.31 -2.57449 3.26639 0
M  V30 10097 H 937.887 -3.36212 1.61294 0
M  V30 10098 N 940.072 -1.23292 -0.981677 0
M  V30 10099 C 941.302 -1.0893 -1.7555 0
M  V30 10100 C 941.71 0.362219 -1.857 0
M  V30 10101 O 941.053 1.2624 -1.33451 0
M  V30 10102 C 941.115 -1.6389 -3.19969 0
M  V30 10103 C 940.779 -3.12632 -3.33332 0
M  V30 10104 C 941.776 -4.0994 -3.19758 0
M  V30 10105 C 939.461 -3.52314 -3.58022 0
M  V30 10106 C 941.455 -5.44915 -3.30676 0
M  V30 10107 C 939.142 -4.87434 -3.6858 0
M  V30 10108 C 940.14 -5.83544 -3.54916 0
M  V30 10109 O 939.828 -7.16209 -3.65102 0
M  V30 10110 H 939.56 -0.381901 -0.557788 0
M  V30 10111 H 942.114 -1.63586 -1.24213 0
M  V30 10112 H 940.344 -1.03653 -3.72549 0
M  V30 10113 H 942.033 -1.45023 -3.79108 0
M  V30 10114 H 942.799 -3.80625 -3.00582 0
M  V30 10115 H 938.678 -2.78022 -3.67729 0
M  V30 10116 H 942.222 -6.19913 -3.19928 0
M  V30 10117 H 938.119 -5.16426 -3.87265 0
M  V30 10118 H 938.887 -7.23941 -3.81905 0
M  V30 10119 N 941.55 1.18024 -1.04442 0
M  V30 10120 C 942.775 1.92573 -0.770097 0
M  V30 10121 C 943.2 1.75871 0.667169 0
M  V30 10122 O 942.558 1.07136 1.46258 0
M  V30 10123 C 942.606 3.41904 -1.14602 0
M  V30 10124 O 941.71 4.11491 -0.273712 0
M  V30 10125 H 941.051 0.600636 -0.283076 0
M  V30 10126 H 943.581 1.49645 -1.39526 0
M  V30 10127 H 943.591 3.92623 -1.10956 0
M  V30 10128 H 942.266 3.53382 -2.19304 0
M  V30 10129 H 940.843 3.71059 -0.370124 0
M  V30 10130 N 943.028 0.824394 1.34319 0
M  V30 10131 C 944.439 0.471802 1.8064 0
M  V30 10132 C 944.79 -1.00793 1.6833 0
M  V30 10133 O 943.915 -1.78447 1.22416 0
M  V30 10134 C 944.51 0.849609 3.27974 0
M  V30 10135 C 943.069 0.549365 3.72369 0
M  V30 10136 C 942.216 1.06573 2.56003 0
M  V30 10137 H 945.167 1.01443 1.22045 0
M  V30 10138 H 945.188 0.153968 3.80188 0
M  V30 10139 H 944.7 1.92663 3.36902 0
M  V30 10140 H 942.801 -0.518182 3.68979 0
M  V30 10141 H 942.914 1.09446 4.66432 0
M  V30 10142 H 941.278 0.487214 2.49997 0
M  V30 10143 H 942.061 2.14923 2.677 0
M  V30 10144 N 944.506 -1.46559 0.579492 0
M  V30 10145 C 945.453 -2.30275 -0.155598 0
M  V30 10146 C 946.423 -1.40422 -0.887175 0
M  V30 10147 O 947.608 -1.69373 -0.878481 0
M  V30 10148 C 944.748 -3.24827 -1.16539 0
M  V30 10149 C 943.861 -4.29778 -0.43759 0
M  V30 10150 C 942.996 -5.11461 -1.43462 0
M  V30 10151 C 942.035 -6.08164 -0.693048 0
M  V30 10152 N 941.172 -6.82726 -1.63799 0
M  V30 10153 H 946.012 -2.92607 0.564356 0
M  V30 10154 H 943.549 -1.44211 0.290126 0
M  V30 10155 H 945.507 -3.78088 -1.76368 0
M  V30 10156 H 944.137 -2.64311 -1.8531 0
M  V30 10157 H 943.189 -3.794 0.27567 0
M  V30 10158 H 944.501 -4.98597 0.142298 0
M  V30 10159 H 943.655 -5.68982 -2.1058 0
M  V30 10160 H 942.394 -4.42595 -2.04844 0
M  V30 10161 H 941.399 -5.49799 -0.00807093 0
M  V30 10162 H 942.624 -6.79047 -0.0846678 0
M  V30 10163 H 940.57 -6.16572 -2.23997 0
M  V30 10164 H 940.487 -7.47795 -1.11082 0
M  V30 10165 H 941.755 -7.44807 -2.29962 0
M  V30 10166 N 945.984 -0.3171 -1.54377 0
M  V30 10167 C 947.395 0.172287 -1.85903 0
M  V30 10168 C 947.746 1.52141 -1.23885 0
M  V30 10169 O 946.871 2.0949 -0.542476 0
M  V30 10170 C 947.466 0.319392 -3.37291 0
M  V30 10171 C 946.025 0.752998 -3.68791 0
M  V30 10172 C 945.172 -0.129143 -2.76999 0
M  V30 10173 H 948.123 -0.537597 -1.49317 0
M  V30 10174 H 948.144 1.15137 -3.62662 0
M  V30 10175 H 947.656 -0.662671 -3.82401 0
M  V30 10176 H 945.757 1.74504 -3.2921 0
M  V30 10177 H 945.87 0.561228 -4.75801 0
M  V30 10178 H 944.234 0.394242 -2.5163 0
M  V30 10179 H 945.017 -1.10785 -3.24933 0
M  V30 10180 N 947.462 1.57535 -0.0451378 0
M  V30 10181 C 948.687 1.97172 0.64326 0
M  V30 10182 C 949.112 0.922266 1.63939 0
M  V30 10183 O 948.47 -0.115155 1.80934 0
M  V30 10184 C 948.518 3.35889 1.3119 0
M  V30 10185 O 947.622 3.33387 2.42748 0
M  V30 10186 H 946.963 0.642469 0.167719 0
M  V30 10187 H 949.493 2.04295 -0.111747 0
M  V30 10188 H 949.503 3.72481 1.66499 0
M  V30 10189 H 948.178 4.1181 0.581823 0
M  V30 10190 H 946.755 3.08533 2.09432 0
M  V30 10191 N 948.94 -0.228186 1.55939 0
M  V30 10192 C 950.351 -0.795734 1.68893 0
M  V30 10193 C 950.702 -1.85261 0.645967 0
M  V30 10194 O 949.827 -2.15434 -0.2042 0
M  V30 10195 C 950.422 -1.45013 3.06197 0
M  V30 10196 C 948.981 -1.96514 3.21028 0
M  V30 10197 C 948.128 -0.822918 2.64808 0
M  V30 10198 H 951.079 -0.0036485 1.587 0
M  V30 10199 H 951.1 -2.31875 3.01685 0
M  V30 10200 H 950.612 -0.680678 3.82084 0
M  V30 10201 H 948.713 -2.76282 2.49998 0
M  V30 10202 H 948.826 -2.14967 4.28166 0
M  V30 10203 H 947.19 -1.22846 2.23116 0
M  V30 10204 H 947.973 -0.0662493 3.43236 0
M  V30 10205 N 950.418 -1.49637 -0.494624 0
M  V30 10206 C 951.646 -1.63164 -1.2722 0
M  V30 10207 C 952.061 -0.305552 -1.86311 0
M  V30 10208 O 951.418 0.709758 -1.68133 0
M  V30 10209 C 951.469 -2.70524 -2.39789 0
M  V30 10210 O 951.19 -3.97991 -1.83126 0
M  V30 10211 C 952.691 -2.94814 -3.31058 0
M  V30 10212 H 949.911 -0.54912 -0.385627 0
M  V30 10213 H 952.455 -1.95711 -0.593081 0
M  V30 10214 H 950.61 -2.40738 -3.03519 0
M  V30 10215 H 951.024 -4.57179 -2.57075 0
M  V30 10216 H 952.498 -3.73653 -4.06309 0
M  V30 10217 H 952.975 -2.04974 -3.88436 0
M  V30 10218 H 953.581 -3.26042 -2.73088 0
M  V30 10219 N 951.896 0.746133 -1.38819 0
M  V30 10220 C 953.307 1.32384 -1.31648 0
M  V30 10221 C 953.658 1.96185 0.0243086 0
M  V30 10222 O 952.783 1.95567 0.92641 0
M  V30 10223 C 953.378 2.40712 -2.38418 0
M  V30 10224 C 951.937 2.94185 -2.34803 0
M  V30 10225 C 951.084 1.67639 -2.20891 0
M  V30 10226 H 954.035 0.544457 -1.49068 0
M  V30 10227 H 954.056 3.20833 -2.04564 0
M  V30 10228 H 953.568 1.94247 -3.3599 0
M  V30 10229 H 951.669 3.44959 -1.40834 0
M  V30 10230 H 951.782 3.48057 -3.29231 0
M  V30 10231 H 950.146 1.9155 -1.67871 0
M  V30 10232 H 950.929 1.23242 -3.20416 0
M  V30 10233 N 953.375 1.23811 0.975125 0
M  V30 10234 C 954.791 1.0019 1.24234 0
M  V30 10235 C 954.991 -0.293811 1.99346 0
M  V30 10236 O 954.047 -1.01189 2.31337 0
M  V30 10237 C 955.36 2.21218 2.03674 0
M  V30 10238 C 956.908 2.25764 2.16793 0
M  V30 10239 C 957.383 3.46394 2.99626 0
M  V30 10240 N 958.874 3.46665 3.07209 0
M  V30 10241 C 959.609 4.3666 3.71639 0
M  V30 10242 N 959.105 5.36899 4.37849 0
M  V30 10243 N 960.898 4.2439 3.68578 0
M  V30 10244 H 953.049 2.07087 0.472076 0
M  V30 10245 H 955.312 0.90838 0.271201 0
M  V30 10246 H 955.018 3.15277 1.55862 0
M  V30 10247 H 954.892 2.22733 3.04417 0
M  V30 10248 H 957.279 1.32242 2.63811 0
M  V30 10249 H 957.36 2.28279 1.15422 0
M  V30 10250 H 957.004 4.40227 2.53304 0
M  V30 10251 H 956.934 3.41121 4.01178 0
M  V30 10252 H 959.425 2.74142 2.60105 0
M  V30 10253 H 959.738 6.01816 4.84807 0
M  V30 10254 H 958.083 5.40793 4.36541 0
M  V30 10255 H 961.274 3.4532 3.16025 0
M  V30 10256 H 961.447 4.94727 4.18508 0
M  V30 10257 N 954.853 -1.17469 1.05066 0
M  V30 10258 C 956.264 -1.69334 0.786304 0
M  V30 10259 C 956.615 -1.83604 -0.691671 0
M  V30 10260 O 955.74 -1.52269 -1.53763 0
M  V30 10261 C 956.335 -3.07572 1.42074 0
M  V30 10262 C 954.894 -3.56609 1.20446 0
M  V30 10263 C 954.041 -2.329 1.50508 0
M  V30 10264 H 956.992 -1.02003 1.21577 0
M  V30 10265 H 957.013 -3.71352 0.829334 0
M  V30 10266 H 956.525 -2.97154 2.49642 0
M  V30 10267 H 954.626 -3.72306 0.147968 0
M  V30 10268 H 954.739 -4.39446 1.90852 0
M  V30 10269 H 953.103 -2.37305 0.925124 0
M  V30 10270 H 953.886 -2.25093 2.59207 0
M  V30 10271 N 956.331 -0.831506 -1.3388 0
M  V30 10272 C 957.559 -0.436925 -2.02234 0
M  V30 10273 C 957.974 0.959689 -1.6259 0
M  V30 10274 O 957.331 1.62248 -0.835576 0
M  V30 10275 C 957.382 -0.539429 -3.57453 0
M  V30 10276 O 957.103 -1.88101 -3.95664 0
M  V30 10277 C 958.604 -0.140852 -4.43076 0
M  V30 10278 H 955.824 -0.174302 -0.647966 0
M  V30 10279 H 958.368 -1.12204 -1.70969 0
M  V30 10280 H 956.523 0.0976959 -3.87277 0
M  V30 10281 H 956.937 -1.86131 -4.90363 0
M  V30 10282 H 958.411 -0.26364 -5.5137 0
M  V30 10283 H 958.888 0.916505 -4.29531 0
M  V30 10284 H 959.494 -0.752117 -4.18597 0
M  V30 10285 N 957.809 1.4625 -0.587256 0
M  V30 10286 C 958.756 2.30354 0.143384 0
M  V30 10287 C 959.726 1.40891 0.879716 0
M  V30 10288 O 960.911 1.69837 0.869486 0
M  V30 10289 C 958.051 3.25441 1.14815 0
M  V30 10290 C 957.164 4.30004 0.414792 0
M  V30 10291 C 956.299 5.12214 1.40748 0
M  V30 10292 C 955.338 6.08523 0.660786 0
M  V30 10293 N 954.475 6.83585 1.60176 0
M  V30 10294 H 959.315 2.92304 -0.579866 0
M  V30 10295 H 956.852 1.44055 -0.29777 0
M  V30 10296 H 958.81 3.79018 1.7436 0
M  V30 10297 H 957.44 2.6529 1.83906 0
M  V30 10298 H 956.492 3.79248 -0.295787 0
M  V30 10299 H 957.804 4.98515 -0.168738 0
M  V30 10300 H 956.958 5.70091 2.0756 0
M  V30 10301 H 955.697 4.43675 2.02494 0
M  V30 10302 H 954.702 5.49796 -0.0210864 0
M  V30 10303 H 955.927 6.79083 0.0486551 0
M  V30 10304 H 953.873 6.17752 2.20724 0
M  V30 10305 H 953.79 7.48373 1.07115 0
M  V30 10306 H 955.058 7.46016 2.26009 0
M  V30 10307 N 959.287 0.325282 1.54207 0
M  V30 10308 C 960.698 -0.162426 1.85992 0
M  V30 10309 C 961.049 -1.51482 1.2469 0
M  V30 10310 O 960.174 -2.092 0.553578 0
M  V30 10311 C 960.769 -0.3015 3.37456 0
M  V30 10312 C 959.328 -0.73343 3.69185 0
M  V30 10313 C 958.475 0.143831 2.76927 0
M  V30 10314 H 961.426 0.545508 1.4903 0
M  V30 10315 H 961.447 -1.13212 3.63268 0
M  V30 10316 H 960.959 0.682942 3.82044 0
M  V30 10317 H 959.06 -1.72755 3.30131 0
M  V30 10318 H 959.173 -0.535987 4.76092 0
M  V30 10319 H 957.537 -0.380892 2.51836 0
M  V30 10320 H 958.32 1.12507 3.24341 0
M  V30 10321 N 960.765 -1.57509 0.0534917 0
M  V30 10322 C 962.176 -1.80374 -0.481867 0
M  V30 10323 C 962.527 -0.965917 -1.70776 0
M  V30 10324 O 961.652 -0.183167 -2.15623 0
M  V30 10325 C 962.247 -3.27146 -0.880978 0
M  V30 10326 C 960.806 -3.50921 -1.3613 0
M  V30 10327 C 959.953 -2.75237 -0.337611 0
M  V30 10328 H 962.904 -1.56222 0.279353 0
M  V30 10329 H 962.925 -3.38193 -1.74373 0
M  V30 10330 H 962.437 -3.88098 0.011441 0
M  V30 10331 H 960.538 -2.95251 -2.27283 0
M  V30 10332 H 960.651 -4.59632 -1.35186 0
M  V30 10333 H 959.015 -2.41444 -0.810991 0
M  V30 10334 H 959.798 -3.38918 0.546763 0
M  V30 10335 N 962.243 0.219913 -1.56058 0
M  V30 10336 C 963.489 0.945463 -1.79412 0
M  V30 10337 C 963.822 1.83922 -0.62341 0
M  V30 10338 O 963.097 1.90806 0.377256 0
M  V30 10339 C 963.38 1.783 -3.1286 0
M  V30 10340 C 963.233 0.915626 -4.40382 0
M  V30 10341 C 964.552 2.76045 -3.42764 0
M  V30 10342 H 961.671 0.342288 -0.652693 0
M  V30 10343 H 964.313 0.214235 -1.88788 0
M  V30 10344 H 962.463 2.40642 -3.04998 0
M  V30 10345 H 964.135 0.30882 -4.60265 0
M  V30 10346 H 962.378 0.221124 -4.33236 0
M  V30 10347 H 963.049 1.53607 -5.30197 0
M  V30 10348 H 965.525 2.23838 -3.50764 0
M  V30 10349 H 964.401 3.31748 -4.37304 0
M  V30 10350 H 964.662 3.53866 -2.65012 0
M  V30 10351 N 963.721 1.49897 0.486681 0
M  V30 10352 C 964.949 1.63837 1.26353 0
M  V30 10353 C 965.364 0.315428 1.86146 0
M  V30 10354 O 964.721 -0.700831 1.68507 0
M  V30 10355 C 964.772 2.71792 2.38351 0
M  V30 10356 O 964.493 3.98956 1.81013 0
M  V30 10357 C 965.994 2.96566 3.2949 0
M  V30 10358 H 963.214 0.551158 0.382709 0
M  V30 10359 H 965.758 1.96023 0.582694 0
M  V30 10360 H 963.913 2.42344 3.02238 0
M  V30 10361 H 964.327 4.58536 2.54647 0
M  V30 10362 H 965.801 3.75803 4.04322 0
M  V30 10363 H 966.278 2.07031 3.87343 0
M  V30 10364 H 966.884 3.27485 2.71355 0
M  V30 10365 N 965.199 -0.738761 1.39212 0
M  V30 10366 C 966.61 -1.31684 1.32348 0
M  V30 10367 C 966.961 -1.96195 -0.0139041 0
M  V30 10368 O 966.086 -1.96056 -0.916025 0
M  V30 10369 C 966.681 -2.39444 2.39691 0
M  V30 10370 C 965.24 -2.92935 2.36359 0
M  V30 10371 C 964.387 -1.66465 2.21776 0
M  V30 10372 H 967.338 -0.536543 1.49355 0
M  V30 10373 H 967.359 -3.19744 2.06262 0
M  V30 10374 H 966.871 -1.92463 3.37016 0
M  V30 10375 H 964.972 -3.44207 1.42662 0
M  V30 10376 H 965.085 -3.46306 3.31073 0
M  V30 10377 H 963.449 -1.90657 1.68884 0
M  V30 10378 H 964.232 -1.21541 3.21065 0
M  V30 10379 N 966.677 -1.24326 -0.968545 0
M  V30 10380 C 967.64 -1.03591 -2.04454 0
M  V30 10381 C 968.64 0.0064809 -1.60799 0
M  V30 10382 O 969.83 -0.234404 -1.72616 0
M  V30 10383 C 966.962 -0.56992 -3.36102 0
M  V30 10384 H 968.155 -1.99092 -2.24282 0
M  V30 10385 H 965.708 -1.06537 -1.14366 0
M  V30 10386 H 966.443 0.388325 -3.21967 0
M  V30 10387 H 966.228 -1.32227 -3.69132 0
M  V30 10388 H 967.718 -0.445854 -4.15213 0
M  V30 10389 N 968.156 1.1691 -1.05688 0
M  V30 10390 C 969.402 1.8757 -0.771071 0
M  V30 10391 C 969.735 1.8113 0.700399 0
M  V30 10392 O 969.01 1.22273 1.5126 0
M  V30 10393 C 969.293 3.37392 -1.25851 0
M  V30 10394 C 969.146 3.52556 -2.79329 0
M  V30 10395 C 970.465 4.31585 -0.861512 0
M  V30 10396 H 967.584 0.681089 -0.281579 0
M  V30 10397 H 970.226 1.37453 -1.31174 0
M  V30 10398 H 968.376 3.80204 -0.798563 0
M  V30 10399 H 970.048 3.18725 -3.33485 0
M  V30 10400 H 968.291 2.94668 -3.1836 0
M  V30 10401 H 968.962 4.57748 -3.08498 0
M  V30 10402 H 971.438 3.96642 -1.25756 0
M  V30 10403 H 970.314 5.34939 -1.23012 0
M  V30 10404 H 970.575 4.4148 0.234089 0
M  V30 10405 N 969.634 0.838594 1.33437 0
M  V30 10406 C 970.882 0.433312 1.974 0
M  V30 10407 C 971.203 -1.01078 1.66758 0
M  V30 10408 O 970.473 -1.70406 0.966373 0
M  V30 10409 H 969.053 0.15724 0.730263 0
M  V30 10410 H 971.715 1.07149 1.62804 0
M  V30 10411 H 970.811 0.565144 3.06941 0
M  V30 10412 N 971.112 -1.45937 0.595003 0
M  V30 10413 C 972.022 -2.34221 -0.133325 0
M  V30 10414 C 973.038 -1.50491 -0.873407 0
M  V30 10415 O 974.214 -1.83328 -0.833828 0
M  V30 10416 C 971.279 -3.27896 -1.12628 0
M  V30 10417 C 970.34 -4.27529 -0.389532 0
M  V30 10418 C 969.573 -5.16729 -1.33519 0
M  V30 10419 O 969.796 -5.09102 -2.57238 0
M  V30 10420 O 968.73 -5.96023 -0.839084 0
M  V30 10421 H 972.556 -2.97877 0.591861 0
M  V30 10422 H 970.141 -1.45113 0.355329 0
M  V30 10423 H 972.023 -3.85654 -1.69851 0
M  V30 10424 H 970.698 -2.6682 -1.83272 0
M  V30 10425 H 969.605 -3.73424 0.224843 0
M  V30 10426 H 970.938 -4.91425 0.276169 0
M  V30 10427 N 972.59 -0.333456 -1.54032 0
M  V30 10428 C 973.537 0.527981 -2.2468 0
M  V30 10429 C 974.507 1.10371 -1.24127 0
M  V30 10430 O 975.692 1.14221 -1.52834 0
M  V30 10431 C 972.832 1.67808 -3.01553 0
M  V30 10432 C 971.945 1.13064 -4.16942 0
M  V30 10433 C 971.08 2.24722 -4.81325 0
M  V30 10434 C 970.119 1.67277 -5.88799 0
M  V30 10435 N 969.256 2.72638 -6.47003 0
M  V30 10436 H 974.096 -0.0810308 -2.9789 0
M  V30 10437 H 971.633 -0.051761 -1.47009 0
M  V30 10438 H 973.591 2.35502 -3.44376 0
M  V30 10439 H 972.221 2.25823 -2.30659 0
M  V30 10440 H 971.273 0.344948 -3.78833 0
M  V30 10441 H 972.585 0.670373 -4.94275 0
M  V30 10442 H 971.739 3.00301 -5.27166 0
M  V30 10443 H 970.478 2.74089 -4.03394 0
M  V30 10444 H 969.483 0.902002 -5.4235 0
M  V30 10445 H 970.708 1.18775 -6.68632 0
M  V30 10446 H 968.654 3.21277 -5.71941 0
M  V30 10447 H 968.571 2.31204 -7.19778 0
M  V30 10448 H 969.839 3.48015 -6.97499 0
M  V30 10449 N 974.068 1.57479 -0.061844 0
M  V30 10450 C 975.001 2.07734 0.94455 0
M  V30 10451 C 975.979 0.980207 1.29733 0
M  V30 10452 O 977.163 1.2529 1.40836 0
M  V30 10453 C 974.29 2.52673 2.25553 0
M  V30 10454 C 973.336 3.73725 2.05503 0
M  V30 10455 S 974.169 5.18886 1.32354 0
M  V30 10456 C 975.325 5.67148 2.64753 0
M  V30 10457 H 975.558 2.92772 0.516888 0
M  V30 10458 H 973.091 1.53663 0.150684 0
M  V30 10459 H 975.049 2.79226 3.00904 0
M  V30 10460 H 973.71 1.67921 2.65445 0
M  V30 10461 H 972.903 4.03125 3.025 0
M  V30 10462 H 972.505 3.47494 1.3829 0
M  V30 10463 H 974.797 5.73385 3.60882 0
M  V30 10464 H 975.74 6.66196 2.39976 0
M  V30 10465 H 976.148 4.94921 2.71502 0
M  V30 10466 N 975.546 -0.211634 1.56173 0
M  V30 10467 C 976.476 -1.26533 1.96244 0
M  V30 10468 C 977.457 -1.48362 0.832028 0
M  V30 10469 O 978.642 -1.60378 1.0951 0
M  V30 10470 C 975.772 -2.61307 2.2877 0
M  V30 10471 C 974.726 -2.54119 3.44395 0
M  V30 10472 C 974.052 -3.93014 3.62552 0
M  V30 10473 C 975.352 -2.08046 4.79076 0
M  V30 10474 H 977.046 -0.932407 2.84511 0
M  V30 10475 H 974.592 -0.447084 1.36884 0
M  V30 10476 H 976.545 -3.35188 2.55396 0
M  V30 10477 H 975.269 -2.96307 1.37367 0
M  V30 10478 H 973.928 -1.82694 3.17834 0
M  V30 10479 H 973.576 -4.25338 2.68508 0
M  V30 10480 H 973.276 -3.89083 4.40327 0
M  V30 10481 H 974.8 -4.68542 3.91537 0
M  V30 10482 H 976.214 -2.71676 5.04842 0
M  V30 10483 H 974.611 -2.15154 5.60204 0
M  V30 10484 H 975.681 -1.03306 4.73768 0
M  V30 10485 N 977.024 -1.50153 -0.478725 0
M  V30 10486 C 978.301 -1.51274 -1.23999 0
M  V30 10487 C 978.681 -0.253048 -2.09578 0
M  V30 10488 O 978.029 0.763827 -2.15355 0
M  V30 10489 C 978.239 -2.80423 -2.07759 0
M  V30 10490 C 979.587 -3.30788 -2.66204 0
M  V30 10491 O 980.611 -2.81693 -2.18008 0
M  V30 10492 O 979.47 -4.1635 -3.53999 0
M  V30 10493 H 976.564 -0.606438 -0.562283 0
M  V30 10494 H 979.11 -1.62436 -0.491171 0
M  V30 10495 H 977.882 -3.63584 -1.44645 0
M  V30 10496 H 977.505 -2.72228 -2.89789 0
M  V30 10497 N 978.502 0.731368 -1.39602 0
M  V30 10498 C 979.779 1.48308 -1.27531 0
M  V30 10499 C 980.159 2.10795 0.113482 0
M  V30 10500 O 979.507 1.98886 1.12501 0
M  V30 10501 C 979.717 2.53156 -2.40235 0
M  V30 10502 C 981.065 3.19436 -2.79725 0
M  V30 10503 O 982.089 2.6347 -2.39712 0
M  V30 10504 O 980.948 4.20714 -3.48801 0
M  V30 10505 H 978.042 0.658753 -0.499973 0
M  V30 10506 H 980.588 0.764884 -1.51485 0
M  V30 10507 H 979.36 2.05387 -3.33064 0
M  V30 10508 H 978.983 3.3253 -2.17966 0
M  V30 10509 N 979.98 1.24838 0.961938 0
M  V30 10510 C 981.227 1.09151 1.70564 0
M  V30 10511 C 981.555 -0.368719 1.90973 0
M  V30 10512 O 980.81 -1.28854 1.47293 0
M  V30 10513 C 981.109 1.78289 3.09754 0
M  V30 10514 C 980.775 3.28216 3.09169 0
M  V30 10515 C 979.437 3.69118 3.08716 0
M  V30 10516 C 981.789 4.24035 3.03058 0
M  V30 10517 C 979.117 5.04263 2.99892 0
M  V30 10518 C 981.469 5.59195 2.95776 0
M  V30 10519 C 980.133 5.99436 2.93655 0
M  V30 10520 H 979.403 0.399414 0.624139 0
M  V30 10521 H 982.05 1.55016 1.12438 0
M  V30 10522 H 980.355 1.24835 3.7138 0
M  V30 10523 H 982.052 1.63612 3.66104 0
M  V30 10524 H 978.642 2.95667 3.10289 0
M  V30 10525 H 982.826 3.93431 3.02532 0
M  V30 10526 H 978.082 5.3463 2.96615 0
M  V30 10527 H 982.256 6.33142 2.90007 0
M  V30 10528 H 979.883 7.04116 2.86573 0
M  V30 10529 N 981.458 -1.16348 1.06306 0
M  V30 10530 C 982.368 -2.24375 0.685059 0
M  V30 10531 C 983.384 -1.71413 -0.298956 0
M  V30 10532 O 984.56 -2.00854 -0.148239 0
M  V30 10533 C 981.625 -3.46614 0.0774088 0
M  V30 10534 C 980.686 -4.14613 1.11331 0
M  V30 10535 C 979.919 -5.31016 0.534559 0
M  V30 10536 O 980.142 -5.66654 -0.65265 0
M  V30 10537 O 979.076 -5.88256 1.27431 0
M  V30 10538 H 982.902 -2.59018 1.58566 0
M  V30 10539 H 980.487 -1.23865 0.835332 0
M  V30 10540 H 982.369 -4.20599 -0.259716 0
M  V30 10541 H 981.044 -3.13743 -0.796677 0
M  V30 10542 H 979.951 -3.42597 1.50261 0
M  V30 10543 H 981.284 -4.51538 1.95893 0
M  V30 10544 N 982.937 -0.845659 -1.3299 0
M  V30 10545 C 984.185 -0.443774 -1.97168 0
M  V30 10546 C 984.506 1.00192 -1.67292 0
M  V30 10547 O 983.776 1.69891 -0.975397 0
M  V30 10548 H 982.356 -0.161111 -0.729419 0
M  V30 10549 H 985.018 -1.08011 -1.62233 0
M  V30 10550 H 984.114 -0.581414 -3.06637 0
M  V30 10551 N 984.415 1.45619 -0.602734 0
M  V30 10552 C 985.661 2.02572 -0.0961759 0
M  V30 10553 C 985.994 1.47076 1.26815 0
M  V30 10554 O 985.269 0.643566 1.83544 0
M  V30 10555 C 985.552 3.60062 -0.0520032 0
M  V30 10556 C 985.405 4.25901 -1.44665 0
M  V30 10557 C 986.724 4.35446 0.638342 0
M  V30 10558 H 983.843 0.736099 -0.0364238 0
M  V30 10559 H 986.485 1.7353 -0.773776 0
M  V30 10560 H 984.635 3.84936 0.525032 0
M  V30 10561 H 986.307 4.12228 -2.0704 0
M  V30 10562 H 984.55 3.84489 -2.00874 0
M  V30 10563 H 985.221 5.34779 -1.36803 0
M  V30 10564 H 987.697 4.15837 0.147926 0
M  V30 10565 H 986.573 5.45176 0.63834 0
M  V30 10566 H 986.834 4.07962 1.70351 0
M  V30 10567 N 985.893 0.34162 1.53853 0
M  V30 10568 C 986.823 -0.508431 2.27897 0
M  V30 10569 C 987.804 -1.10425 1.29384 0
M  V30 10570 O 988.989 -1.126 1.58224 0
M  V30 10571 C 986.119 -1.66048 3.05034 0
M  V30 10572 C 985.073 -1.19309 4.11035 0
M  V30 10573 C 984.399 -2.4335 4.76114 0
M  V30 10574 C 985.699 -0.294952 5.21467 0
M  V30 10575 H 987.393 0.109251 2.99201 0
M  V30 10576 H 984.939 0.0539847 1.43899 0
M  V30 10577 H 986.892 -2.26158 3.5557 0
M  V30 10578 H 985.616 -2.30503 2.31379 0
M  V30 10579 H 984.275 -0.614809 3.61408 0
M  V30 10580 H 983.923 -3.06208 3.99056 0
M  V30 10581 H 983.623 -2.1276 5.47729 0
M  V30 10582 H 985.147 -3.0419 5.29434 0
M  V30 10583 H 986.561 -0.80285 5.67651 0
M  V30 10584 H 984.958 -0.0810221 6.00045 0
M  V30 10585 H 986.028 0.669433 4.80257 0
M  V30 10586 N 987.371 -1.57444 0.0701946 0
M  V30 10587 C 988.319 -2.13834 -0.915302 0
M  V30 10588 C 989.313 -1.07483 -1.30934 0
M  V30 10589 O 990.519 -1.25865 -1.28678 0
M  V30 10590 H 986.894 -0.683716 -0.313108 0
M  V30 10591 H 988.865 -2.95503 -0.414758 0
M  V30 10592 C 987.614 -2.71355 -2.17398 0
M  V30 10593 H 986.937 -3.52861 -1.87961 0
M  V30 10594 H 988.377 -3.1441 -2.84469 0
M  V30 10595 C 986.836 -1.66038 -2.93143 0
M  V30 10596 O 987.366 -1.08443 -3.86786 0
M  V30 10597 N 985.572 -1.3711 -2.56221 0
M  V30 10598 H 985.119 -1.84135 -1.80145 0
M  V30 10599 H 985.077 -0.66877 -3.07205 0
M  V30 10600 N 988.849 0.203349 -1.56283 0
M  V30 10601 C 990.095 0.921876 -1.81309 0
M  V30 10602 C 990.45 1.81231 -0.645994 0
M  V30 10603 O 989.743 1.88203 0.359206 0
M  V30 10604 C 989.937 1.78016 -3.09912 0
M  V30 10605 C 989.766 0.974308 -4.39019 0
M  V30 10606 C 988.536 0.662001 -5.00945 0
M  V30 10607 C 990.734 0.330925 -5.13234 0
M  V30 10608 N 988.716 -0.163344 -6.13683 0
M  V30 10609 C 990.087 -0.356989 -6.18971 0
M  V30 10610 C 992.142 0.245809 -4.97293 0
M  V30 10611 C 990.845 -1.1219 -7.10497 0
M  V30 10612 C 992.871 -0.505684 -5.89234 0
M  V30 10613 C 992.233 -1.18207 -6.94411 0
M  V30 10614 H 988.332 0.317003 -0.714866 0
M  V30 10615 H 990.916 0.191255 -1.93758 0
M  V30 10616 H 989.087 2.48245 -2.98712 0
M  V30 10617 H 990.819 2.43754 -3.23057 0
M  V30 10618 H 987.574 0.984437 -4.63256 0
M  V30 10619 H 987.998 -0.565386 -6.74635 0
M  V30 10620 H 992.64 0.754396 -4.16015 0
M  V30 10621 H 990.358 -1.64195 -7.91243 0
M  V30 10622 H 993.944 -0.572788 -5.78974 0
M  V30 10623 H 992.824 -1.75427 -7.64327 0
M  V30 10624 N 990.327 1.50405 0.470755 0
M  V30 10625 C 991.575 1.61092 1.2204 0
M  V30 10626 C 991.896 0.313487 1.92464 0
M  V30 10627 O 991.166 -0.669043 1.84121 0
M  V30 10628 H 989.746 0.593618 0.45346 0
M  V30 10629 H 992.408 1.87184 0.542985 0
M  V30 10630 H 991.504 2.42222 1.96812 0
M  V30 10631 N 991.805 -0.723954 1.39988 0
M  V30 10632 C 993.03 -1.5182 1.41299 0
M  V30 10633 C 993.455 -1.88096 0.0122636 0
M  V30 10634 O 992.813 -1.52687 -0.977559 0
M  V30 10635 C 992.861 -2.77532 2.30235 0
M  V30 10636 O 991.965 -3.73903 1.73984 0
M  V30 10637 H 991.306 -0.458058 0.480707 0
M  V30 10638 H 993.836 -0.892291 1.84118 0
M  V30 10639 H 993.846 -3.2615 2.45132 0
M  V30 10640 H 992.521 -2.50462 3.32026 0
M  V30 10641 H 991.098 -3.32715 1.68389 0
M  V30 10642 N 993.283 -1.25346 -0.955304 0
M  V30 10643 C 994.513 -1.12629 -1.732 0
M  V30 10644 C 994.921 0.322748 -1.86427 0
M  V30 10645 O 994.264 1.23381 -1.36099 0
M  V30 10646 C 994.326 -1.7064 -3.16421 0
M  V30 10647 C 993.99 -3.19632 -3.26626 0
M  V30 10648 C 994.987 -4.1663 -3.10991 0
M  V30 10649 C 992.672 -3.59829 -3.50468 0
M  V30 10650 C 994.666 -5.51806 -3.19043 0
M  V30 10651 C 992.353 -4.95143 -3.58157 0
M  V30 10652 C 993.351 -5.90941 -3.42459 0
M  V30 10653 O 993.039 -7.23792 -3.49828 0
M  V30 10654 H 992.771 -0.393646 -0.549562 0
M  V30 10655 H 995.325 -1.66184 -1.20715 0
M  V30 10656 H 993.555 -1.11532 -3.70267 0
M  V30 10657 H 995.244 -1.53032 -3.75947 0
M  V30 10658 H 996.01 -3.86915 -2.92441 0
M  V30 10659 H 991.889 -2.8576 -3.61749 0
M  V30 10660 H 995.433 -6.26559 -3.06707 0
M  V30 10661 H 991.33 -5.24525 -3.76224 0
M  V30 10662 H 992.098 -7.31879 -3.66463 0
M  V30 10663 N 994.761 1.15782 -1.06922 0
M  V30 10664 C 995.986 1.90896 -0.810771 0
M  V30 10665 C 996.411 1.77246 0.629714 0
M  V30 10666 O 995.769 1.10215 1.43953 0
M  V30 10667 C 995.817 3.39397 -1.21829 0
M  V30 10668 O 994.921 4.10818 -0.360934 0
M  V30 10669 H 994.262 0.594497 -0.295752 0
M  V30 10670 H 996.792 1.46652 -1.42669 0
M  V30 10671 H 996.802 3.90181 -1.19259 0
M  V30 10672 H 995.477 3.4865 -2.2675 0
M  V30 10673 H 994.054 3.7019 -0.448748 0
M  V30 10674 N 996.239 0.8527 1.3254 0
M  V30 10675 C 997.487 0.454224 1.96929 0
M  V30 10676 C 997.808 -0.993034 1.67821 0
M  V30 10677 O 997.078 -1.69371 0.984393 0
M  V30 10678 H 995.658 0.164977 0.728554 0
M  V30 10679 H 998.32 1.0887 1.61658 0
M  V30 10680 H 997.416 0.597667 3.06324 0
M  V30 10681 N 997.718 -1.45297 0.610449 0
M  V30 10682 C 998.628 -2.34349 -0.108475 0
M  V30 10683 C 999.644 -1.51409 -0.857397 0
M  V30 10684 O 1000.82 -1.84202 -0.814337 0
M  V30 10685 C 997.885 -3.29072 -1.09144 0
M  V30 10686 C 996.946 -4.27918 -0.344165 0
M  V30 10687 C 996.179 -5.18116 -1.28031 0
M  V30 10688 O 996.402 -5.11802 -2.51824 0
M  V30 10689 O 995.336 -5.96879 -0.775821 0
M  V30 10690 H 999.162 -2.97232 0.623421 0
M  V30 10691 H 996.747 -1.44728 0.3707 0
M  V30 10692 H 998.629 -3.87433 -1.65751 0
M  V30 10693 H 997.304 -2.68749 -1.80431 0
M  V30 10694 H 996.211 -3.73164 0.264437 0
M  V30 10695 H 997.544 -4.91104 0.328275 0
M  V30 10696 N 999.196 -0.349774 -1.5367 0
M  V30 10697 C 1000.44 0.244343 -2.00617 0
M  V30 10698 C 1000.76 1.50567 -1.23914 0
M  V30 10699 O 1000.03 1.92784 -0.348016 0
M  V30 10700 H 998.615 0.0932792 -0.741153 0
M  V30 10701 H 1001.28 -0.472367 -1.89089 0
M  V30 10702 H 1000.37 0.482433 -3.08349 0
M  V30 10703 N 1000.67 1.57404 -0.0785433 0
M  V30 10704 C 1001.64 2.11977 0.871693 0
M  V30 10705 C 1002.64 1.04529 1.2219 0
M  V30 10706 O 1003.83 1.30488 1.15406 0
M  V30 10707 C 1000.96 2.6267 2.17296 0
M  V30 10708 H 1002.15 2.97246 0.398115 0
M  V30 10709 H 999.705 1.5537 0.170251 0
M  V30 10710 H 1000.44 1.80873 2.69175 0
M  V30 10711 H 1000.22 3.41214 1.93171 0
M  V30 10712 H 1001.71 3.04943 2.85306 0
M  V30 10713 N 1002.15 -0.195058 1.56388 0
M  V30 10714 C 1003.1 -1.24175 1.94549 0
M  V30 10715 C 1004.07 -1.45229 0.806089 0
M  V30 10716 O 1005.25 -1.58362 1.06425 0
M  V30 10717 C 1002.39 -2.58145 2.29031 0
M  V30 10718 C 1001.51 -2.44669 3.56035 0
M  V30 10719 C 1000.64 -3.71342 3.7984 0
M  V30 10720 C 999.681 -3.52699 5.0027 0
M  V30 10721 N 998.818 -4.71385 5.20328 0
M  V30 10722 H 1003.66 -0.909319 2.83788 0
M  V30 10723 H 1001.19 -0.437641 1.40439 0
M  V30 10724 H 1003.15 -3.36195 2.4704 0
M  V30 10725 H 1001.78 -2.8943 1.42933 0
M  V30 10726 H 1000.83 -1.57916 3.46073 0
M  V30 10727 H 1002.15 -2.26827 4.44242 0
M  V30 10728 H 1001.3 -4.57832 3.98088 0
M  V30 10729 H 1000.04 -3.92138 2.89964 0
M  V30 10730 H 999.045 -2.64594 4.81944 0
M  V30 10731 H 1000.27 -3.33349 5.91655 0
M  V30 10732 H 998.216 -4.92444 4.33399 0
M  V30 10733 H 998.133 -4.56368 6.02714 0
M  V30 10734 H 999.401 -5.59226 5.43035 0
M  V30 10735 N 1003.63 -1.50653 -0.462772 0
M  V30 10736 C 1004.88 -1.62297 -1.21603 0
M  V30 10737 C 1005.21 -0.326191 -1.91441 0
M  V30 10738 O 1004.48 0.67284 -1.82491 0
M  V30 10739 C 1004.77 -2.80901 -2.25315 0
M  V30 10740 C 1004.62 -4.20484 -1.59728 0
M  V30 10741 C 1005.94 -2.95049 -3.26549 0
M  V30 10742 H 1003.06 -0.590691 -0.440741 0
M  V30 10743 H 1005.7 -1.83064 -0.508675 0
M  V30 10744 H 1003.85 -2.63325 -2.85643 0
M  V30 10745 H 1005.52 -4.49669 -1.02932 0
M  V30 10746 H 1003.76 -4.24357 -0.900181 0
M  V30 10747 H 1004.44 -4.99416 -2.35133 0
M  V30 10748 H 1006.91 -3.11166 -2.76251 0
M  V30 10749 H 1005.79 -3.79645 -3.96435 0
M  V30 10750 H 1006.05 -2.06019 -3.91163 0
M  V30 10751 N 1005.11 0.71652 -1.4037 0
M  V30 10752 C 1006.33 1.51069 -1.42102 0
M  V30 10753 C 1006.76 1.88087 -0.0222387 0
M  V30 10754 O 1006.12 1.53204 0.969448 0
M  V30 10755 C 1006.16 2.76307 -2.31704 0
M  V30 10756 O 1005.27 3.72975 -1.75964 0
M  V30 10757 H 1004.61 0.455502 -0.483129 0
M  V30 10758 H 1007.14 0.882514 -1.84588 0
M  V30 10759 H 1007.15 3.24846 -2.46859 0
M  V30 10760 H 1005.82 2.48698 -3.3335 0
M  V30 10761 H 1004.4 3.31818 -1.70151 0
M  V30 10762 N 1006.59 1.25851 0.948643 0
M  V30 10763 C 1007.81 1.13711 1.72851 0
M  V30 10764 C 1008.23 -0.308471 1.86263 0
M  V30 10765 O 1007.59 -1.21175 1.36465 0
M  V30 10766 C 1007.64 1.79271 3.13918 0
M  V30 10767 O 1007.36 3.18179 3.01154 0
M  V30 10768 C 1008.86 1.72988 4.08154 0
M  V30 10769 H 1006.08 0.396334 0.541443 0
M  V30 10770 H 1008.62 1.66329 1.18974 0
M  V30 10771 H 1006.78 1.30609 3.64719 0
M  V30 10772 H 1007.19 3.50507 3.90186 0
M  V30 10773 H 1008.67 2.2351 5.04725 0
M  V30 10774 H 1009.14 0.694866 4.33668 0
M  V30 10775 H 1009.75 2.21166 3.63271 0
M  V30 10776 N 1008.06 -1.15214 1.07534 0
M  V30 10777 C 1009.01 -2.20013 0.697337 0
M  V30 10778 C 1009.98 -1.6314 -0.312168 0
M  V30 10779 O 1011.17 -1.89768 -0.198196 0
M  V30 10780 C 1008.31 -3.44945 0.103293 0
M  V30 10781 C 1007.42 -4.16009 1.1645 0
M  V30 10782 C 1006.55 -5.28496 0.535261 0
M  V30 10783 C 1005.59 -5.9138 1.57912 0
M  V30 10784 N 1004.73 -6.95335 0.972332 0
M  V30 10785 H 1009.57 -2.51698 1.59538 0
M  V30 10786 H 1007.11 -1.2361 0.797431 0
M  V30 10787 H 1009.07 -4.16397 -0.258766 0
M  V30 10788 H 1007.7 -3.13772 -0.758096 0
M  V30 10789 H 1006.75 -3.43035 1.64411 0
M  V30 10790 H 1008.06 -4.58853 1.9559 0
M  V30 10791 H 1007.21 -6.06579 0.120942 0
M  V30 10792 H 1005.95 -4.8685 -0.287889 0
M  V30 10793 H 1004.96 -5.12008 2.0032 0
M  V30 10794 H 1006.18 -6.35103 2.40459 0
M  V30 10795 H 1004.13 -6.55779 0.170119 0
M  V30 10796 H 1004.05 -7.36616 1.70095 0
M  V30 10797 H 1005.31 -7.77312 0.583577 0
M  V30 10798 N 1009.54 -0.859717 -1.32086 0
M  V30 10799 C 1010.79 -0.461779 -1.96343 0
M  V30 10800 C 1011.1 0.988837 -1.68764 0
M  V30 10801 O 1012.31 1.49244 -2.268 0
M  V30 10802 C 1010.77 -0.77484 -3.5146 0
M  V30 10803 C 1010.37 -2.24153 -3.87891 0
M  V30 10804 C 1012.12 -0.444873 -4.22162 0
M  V30 10805 C 1010.03 -2.49754 -5.36075 0
M  V30 10806 H 1008.96 -0.168951 -0.734828 0
M  V30 10807 H 1011.61 -1.0512 -1.50406 0
M  V30 10808 H 1009.99 -0.114792 -3.95834 0
M  V30 10809 H 1011.16 -2.94378 -3.54511 0
M  V30 10810 H 1009.48 -2.53651 -3.30227 0
M  V30 10811 H 1012.07 -0.613508 -5.31169 0
M  V30 10812 H 1012.42 0.61391 -4.11749 0
M  V30 10813 H 1012.95 -1.06103 -3.83389 0
M  V30 10814 H 1009.69 -3.54276 -5.51515 0
M  V30 10815 H 1009.21 -1.84112 -5.70844 0
M  V30 10816 H 1010.89 -2.3396 -6.03218 0
M  V30 10817 N 1011.02 1.44971 -0.618145 0
M  V30 10818 C 1012.27 2.02458 -0.117656 0
M  V30 10819 C 1012.6 1.48413 1.25248 0
M  V30 10820 O 1011.87 0.662997 1.82851 0
M  V30 10821 C 1012.16 3.59987 -0.0901897 0
M  V30 10822 C 1012.01 4.24343 -1.49175 0
M  V30 10823 C 1013.33 4.36099 0.592121 0
M  V30 10824 H 1010.45 0.735672 -0.0442291 0
M  V30 10825 H 1013.09 1.727 -0.792138 0
M  V30 10826 H 1011.24 3.85471 0.484175 0
M  V30 10827 H 1012.91 4.10009 -2.114 0
M  V30 10828 H 1011.16 3.82337 -2.04941 0
M  V30 10829 H 1011.83 5.33298 -1.42468 0
M  V30 10830 H 1014.3 4.1597 0.103813 0
M  V30 10831 H 1013.18 5.45822 0.580481 0
M  V30 10832 H 1013.44 4.09746 1.66015 0
M  V30 10833 N 1012.5 0.357919 1.53482 0
M  V30 10834 C 1013.72 -0.237769 2.06033 0
M  V30 10835 C 1014.15 -1.42292 1.23023 0
M  V30 10836 O 1013.51 -1.79604 0.247427 0
M  V30 10837 C 1013.55 -0.616806 3.55286 0
M  V30 10838 O 1012.66 -1.71503 3.75047 0
M  V30 10839 H 1012 -0.0364322 0.663 0
M  V30 10840 H 1014.53 0.516301 1.97979 0
M  V30 10841 H 1014.54 -0.88996 3.98175 0
M  V30 10842 H 1013.21 0.249825 4.15149 0
M  V30 10843 H 1011.79 -1.43803 3.44057 0
M  V30 10844 N 1013.98 -1.5736 0.0868897 0
M  V30 10845 C 1015.22 -1.9367 -0.577598 0
M  V30 10846 C 1015.55 -0.968844 -1.69229 0
M  V30 10847 O 1014.82 -0.0195061 -1.9589 0
M  V30 10848 H 1013.4 -0.714983 -0.216353 0
M  V30 10849 H 1016.06 -1.94335 0.148294 0
M  V30 10850 H 1015.15 -2.95877 -0.993128 0
M  V30 10851 N 1015.45 0.186762 -1.56489 0
M  V30 10852 C 1016.4 1.23141 -1.95205 0
M  V30 10853 C 1017.37 1.44799 -0.81378 0
M  V30 10854 O 1018.56 1.57795 -1.07263 0
M  V30 10855 C 1015.7 2.56926 -2.30397 0
M  V30 10856 C 1014.81 2.42777 -3.57328 0
M  V30 10857 C 1013.94 3.69323 -3.81804 0
M  V30 10858 C 1012.98 3.50041 -5.02133 0
M  V30 10859 N 1012.12 4.68619 -5.2282 0
M  V30 10860 H 1016.96 0.894256 -2.84266 0
M  V30 10861 H 1014.5 0.430187 -1.40669 0
M  V30 10862 H 1016.46 3.3488 -2.4882 0
M  V30 10863 H 1015.09 2.88668 -1.44466 0
M  V30 10864 H 1014.14 1.56078 -3.46906 0
M  V30 10865 H 1015.45 2.24468 -4.45439 0
M  V30 10866 H 1014.6 4.55715 -4.00511 0
M  V30 10867 H 1013.34 3.90595 -2.92039 0
M  V30 10868 H 1012.35 2.62034 -4.8334 0
M  V30 10869 H 1013.57 3.30206 -5.93414 0
M  V30 10870 H 1011.52 4.90139 -4.36005 0
M  V30 10871 H 1011.44 4.53165 -6.05126 0
M  V30 10872 H 1012.7 5.56338 -5.45993 0
M  V30 10873 N 1016.93 1.50896 0.454776 0
M  V30 10874 C 1018.16 1.6648 1.22849 0
M  V30 10875 C 1018.58 0.354841 1.85435 0
M  V30 10876 O 1017.93 -0.664931 1.69956 0
M  V30 10877 C 1017.98 2.76787 2.32532 0
M  V30 10878 O 1017.7 4.02706 1.72509 0
M  V30 10879 C 1019.21 3.03488 3.23125 0
M  V30 10880 H 1016.43 0.559152 0.370932 0
M  V30 10881 H 1018.97 1.97215 0.540983 0
M  V30 10882 H 1017.12 2.48701 2.9703 0
M  V30 10883 H 1017.54 4.63834 2.44863 0
M  V30 10884 H 1019.01 3.84294 3.9626 0
M  V30 10885 H 1019.49 2.152 3.82865 0
M  V30 10886 H 1020.1 3.33167 2.64347 0
M  V30 10887 N 1018.41 -0.709066 1.40748 0
M  V30 10888 C 1019.66 -1.46611 1.39103 0
M  V30 10889 C 1019.98 -1.95 -0.00365366 0
M  V30 10890 O 1019.25 -1.70791 -0.959541 0
M  V30 10891 H 1017.83 -0.543954 0.511979 0
M  V30 10892 H 1020.49 -0.840141 1.75863 0
M  V30 10893 H 1019.59 -2.33581 2.06994 0
M  V30 10894 N 1019.89 -1.26353 -0.941956 0
M  V30 10895 C 1020.84 -1.07654 -2.06188 0
M  V30 10896 C 1021.83 -0.00369741 -1.694 0
M  V30 10897 O 1023.04 -0.160316 -1.79285 0
M  V30 10898 H 1019.41 -0.331274 -0.675101 0
M  V30 10899 H 1021.38 -2.02566 -2.19111 0
M  V30 10900 C 1020.13 -0.725436 -3.40048 0
M  V30 10901 H 1019.46 -1.54283 -3.68832 0
M  V30 10902 H 1020.9 -0.634383 -4.19227 0
M  V30 10903 C 1019.35 0.569369 -3.32054 0
M  V30 10904 O 1019.88 1.60791 -3.68116 0
M  V30 10905 N 1018.09 0.559714 -2.85159 0
M  V30 10906 H 1017.64 -0.285817 -2.56009 0
M  V30 10907 H 1017.6 1.42617 -2.80193 0
M  V30 10908 N 1021.37 1.14642 -1.08144 0
M  V30 10909 C 1022.62 1.8525 -0.807885 0
M  V30 10910 C 1022.94 1.83194 0.668213 0
M  V30 10911 O 1022.21 1.27848 1.48431 0
M  V30 10912 H 1020.79 0.685909 -0.295868 0
M  V30 10913 H 1023.45 1.38935 -1.36686 0
M  V30 10914 H 1022.54 2.90155 -1.14964 0
M  V30 10915 N 1022.85 0.866709 1.31628 0
M  V30 10916 C 1023.78 0.264788 2.26659 0
M  V30 10917 C 1024.76 -0.604181 1.50958 0
M  V30 10918 O 1025.94 -0.558324 1.80042 0
M  V30 10919 C 1023.07 -0.625373 3.32877 0
M  V30 10920 C 1022.11 0.171813 4.26154 0
M  V30 10921 S 1022.95 1.54818 5.12632 0
M  V30 10922 C 1024.1 0.66405 6.22367 0
M  V30 10923 H 1024.34 1.07036 2.77364 0
M  V30 10924 H 1021.87 0.665038 1.39343 0
M  V30 10925 H 1023.83 -1.13327 3.94547 0
M  V30 10926 H 1022.49 -1.40486 2.80932 0
M  V30 10927 H 1021.68 -0.506694 5.01447 0
M  V30 10928 H 1021.28 0.611704 3.68964 0
M  V30 10929 H 1023.57 -0.126717 6.77381 0
M  V30 10930 H 1024.52 1.388 6.94363 0
M  V30 10931 H 1024.93 0.233046 5.64019 0
M  V30 10932 N 1024.32 -1.44642 0.625825 0
M  V30 10933 C 1025.23 -2.34451 -0.0836134 0
M  V30 10934 C 1026.25 -1.5231 -0.841289 0
M  V30 10935 O 1027.43 -1.85056 -0.794754 0
M  V30 10936 C 1024.49 -3.30211 -1.05648 0
M  V30 10937 C 1023.55 -4.28259 -0.298759 0
M  V30 10938 C 1022.78 -5.19444 -1.22528 0
M  V30 10939 O 1023.01 -5.14444 -2.46382 0
M  V30 10940 O 1021.94 -5.97668 -0.71247 0
M  V30 10941 H 1025.77 -2.96555 0.654912 0
M  V30 10942 H 1023.35 -1.44327 0.386029 0
M  V30 10943 H 1025.23 -3.8917 -1.61632 0
M  V30 10944 H 1023.91 -2.70648 -1.77571 0
M  V30 10945 H 1022.82 -3.72863 0.304001 0
M  V30 10946 H 1024.15 -4.90728 0.380345 0
M  V30 10947 N 1025.8 -0.366053 -1.5329 0
M  V30 10948 C 1027.05 0.223824 -2.01561 0
M  V30 10949 C 1027.38 1.48382 -1.25286 0
M  V30 10950 O 1026.66 1.91385 -0.34669 0
M  V30 10951 C 1026.94 0.5153 -3.56394 0
M  V30 10952 C 1026.79 -0.758357 -4.43361 0
M  V30 10953 C 1028.11 1.31568 -4.19974 0
M  V30 10954 H 1025.23 0.0798751 -0.732659 0
M  V30 10955 H 1027.87 -0.491038 -1.83545 0
M  V30 10956 H 1026.02 1.12429 -3.71876 0
M  V30 10957 H 1027.69 -1.39584 -4.39675 0
M  V30 10958 H 1025.94 -1.37862 -4.11311 0
M  V30 10959 H 1026.61 -0.509366 -5.49645 0
M  V30 10960 H 1029.08 0.800514 -4.08327 0
M  V30 10961 H 1027.96 1.48837 -5.28336 0
M  V30 10962 H 1028.22 2.32432 -3.76069 0
M  V30 10963 N 1027.28 1.57312 -0.0952337 0
M  V30 10964 C 1028.5 1.99119 0.580206 0
M  V30 10965 C 1028.93 0.973955 1.60922 0
M  V30 10966 O 1028.29 -0.0575338 1.81209 0
M  V30 10967 C 1028.34 3.39893 1.20438 0
M  V30 10968 O 1027.44 3.40941 2.32019 0
M  V30 10969 H 1026.78 0.64748 0.147195 0
M  V30 10970 H 1029.31 2.03836 -0.176686 0
M  V30 10971 H 1029.32 3.7759 1.54564 0
M  V30 10972 H 1028 4.13453 0.450514 0
M  V30 10973 H 1026.57 3.1504 1.9951 0
M  V30 10974 N 1028.76 -0.17846 1.56586 0
M  V30 10975 C 1029.99 -0.910674 1.85446 0
M  V30 10976 C 1030.4 -1.76647 0.677675 0
M  V30 10977 O 1029.74 -1.80086 -0.362584 0
M  V30 10978 C 1029.8 -1.84363 3.08627 0
M  V30 10979 C 1029.46 -1.16814 4.41818 0
M  V30 10980 C 1030.46 -0.53703 5.17119 0
M  V30 10981 C 1028.15 -1.16703 4.88555 0
M  V30 10982 C 1030.14 0.0861778 6.37342 0
M  V30 10983 C 1027.83 -0.539992 6.0871 0
M  V30 10984 C 1028.83 0.0855135 6.82946 0
M  V30 10985 O 1028.51 0.70268 8.00823 0
M  V30 10986 H 1028.25 -0.270377 0.619574 0
M  V30 10987 H 1030.8 -0.185591 2.0456 0
M  V30 10988 H 1029.03 -2.60884 2.85441 0
M  V30 10989 H 1030.72 -2.44506 3.23993 0
M  V30 10990 H 1031.48 -0.529915 4.82096 0
M  V30 10991 H 1027.36 -1.64329 4.30717 0
M  V30 10992 H 1030.91 0.575011 6.95226 0
M  V30 10993 H 1026.8 -0.544666 6.43198 0
M  V30 10994 H 1027.57 0.601224 8.16289 0
M  V30 10995 N 1030.24 -1.51135 -0.446768 0
M  V30 10996 C 1031.46 -1.67129 -1.21965 0
M  V30 10997 C 1031.88 -0.36467 -1.85245 0
M  V30 10998 O 1031.24 0.655908 -1.70306 0
M  V30 10999 C 1031.29 -2.78016 -2.31061 0
M  V30 11000 O 1031.01 -4.03615 -1.70371 0
M  V30 11001 C 1032.51 -3.05197 -3.21511 0
M  V30 11002 H 1029.73 -0.561111 -0.367961 0
M  V30 11003 H 1032.27 -1.97499 -0.530517 0
M  V30 11004 H 1030.43 -2.50272 -2.95707 0
M  V30 11005 H 1030.84 -4.65126 -2.424 0
M  V30 11006 H 1032.32 -3.8639 -3.94216 0
M  V30 11007 H 1032.79 -2.17228 -3.81718 0
M  V30 11008 H 1033.4 -3.34565 -2.62577 0
M  V30 11009 N 1031.71 0.701592 -1.41122 0
M  V30 11010 C 1032.96 1.45871 -1.39879 0
M  V30 11011 C 1033.28 1.94999 -0.00668769 0
M  V30 11012 O 1032.55 1.71298 0.95047 0
M  V30 11013 H 1031.13 0.541231 -0.514857 0
M  V30 11014 H 1033.79 0.830803 -1.76306 0
M  V30 11015 H 1032.89 2.32479 -2.0823 0
M  V30 11016 N 1033.19 1.2685 0.935242 0
M  V30 11017 C 1034.42 1.15538 1.71635 0
M  V30 11018 C 1034.83 -0.288698 1.8658 0
M  V30 11019 O 1034.19 -1.19721 1.37743 0
M  V30 11020 C 1034.24 1.8259 3.11999 0
M  V30 11021 O 1033.96 3.21355 2.97763 0
M  V30 11022 C 1035.46 1.77307 4.06297 0
M  V30 11023 H 1032.68 0.402055 0.537208 0
M  V30 11024 H 1035.23 1.67582 1.17203 0
M  V30 11025 H 1033.38 1.3447 3.63313 0
M  V30 11026 H 1033.8 3.54626 3.86446 0
M  V30 11027 H 1035.27 2.28851 5.02326 0
M  V30 11028 H 1035.75 0.740823 4.32907 0
M  V30 11029 H 1036.35 2.25007 3.60904 0
M  V30 11030 N 1034.67 -1.14067 1.0875 0
M  V30 11031 C 1035.9 -1.89041 0.840902 0
M  V30 11032 C 1036.31 -1.78768 -0.60725 0
M  V30 11033 O 1035.67 -1.14945 -1.41753 0
M  V30 11034 C 1035.72 -3.38891 1.25838 0
M  V30 11035 O 1035.44 -3.48886 2.64972 0
M  V30 11036 C 1036.94 -4.30852 1.04315 0
M  V30 11037 H 1034.16 -0.598685 0.303014 0
M  V30 11038 H 1036.71 -1.44438 1.44769 0
M  V30 11039 H 1034.86 -3.81103 0.695627 0
M  V30 11040 H 1035.28 -4.41989 2.82393 0
M  V30 11041 H 1036.75 -5.34353 1.38461 0
M  V30 11042 H 1037.23 -4.39196 -0.0195784 0
M  V30 11043 H 1037.83 -3.944 1.59151 0
M  V30 11044 N 1036.15 -0.873678 -1.31166 0
M  V30 11045 C 1037.43 -0.40698 -1.91319 0
M  V30 11046 C 1037.81 1.1113 -1.79481 0
M  V30 11047 O 1037.15 1.94155 -1.20483 0
M  V30 11048 C 1037.36 -0.892484 -3.37396 0
M  V30 11049 C 1038.71 -0.920795 -4.14496 0
M  V30 11050 O 1039.74 -0.838386 -3.46193 0
M  V30 11051 O 1038.59 -1.04069 -5.365 0
M  V30 11052 H 1035.69 -0.122439 -0.817886 0
M  V30 11053 H 1038.23 -0.961835 -1.3981 0
M  V30 11054 H 1037.01 -1.93613 -3.40044 0
M  V30 11055 H 1036.63 -0.31615 -3.96341 0
M  V30 11056 N 1037.63 1.44308 -0.633487 0
M  V30 11057 C 1038.87 2.01624 -0.138643 0
M  V30 11058 C 1039.2 1.50101 1.24477 0
M  V30 11059 O 1038.47 0.705575 1.82752 0
M  V30 11060 H 1037.05 0.745439 -0.0482636 0
M  V30 11061 H 1039.71 1.76777 -0.820719 0
M  V30 11062 H 1038.8 3.11913 -0.108136 0
M  V30 11063 N 1039.1 0.374177 1.53094 0
M  V30 11064 C 1040.33 -0.213015 2.05499 0
M  V30 11065 C 1040.74 -1.42303 1.24686 0
M  V30 11066 O 1040.09 -1.81512 0.282702 0
M  V30 11067 C 1040.15 -0.662308 3.53346 0
M  V30 11068 C 1039.81 0.432183 4.54952 0
M  V30 11069 C 1040.81 1.2848 5.03775 0
M  V30 11070 C 1038.49 0.594887 4.98765 0
M  V30 11071 C 1040.49 2.28538 5.9502 0
M  V30 11072 C 1038.17 1.59882 5.89814 0
M  V30 11073 C 1039.17 2.4425 6.37833 0
M  V30 11074 O 1038.86 3.4293 7.27086 0
M  V30 11075 H 1038.59 -0.0393809 0.674852 0
M  V30 11076 H 1041.15 0.533423 1.98353 0
M  V30 11077 H 1039.38 -1.46049 3.5806 0
M  V30 11078 H 1041.07 -1.17347 3.88567 0
M  V30 11079 H 1041.83 1.17033 4.70668 0
M  V30 11080 H 1037.71 -0.0520401 4.60971 0
M  V30 11081 H 1041.25 2.94426 6.32423 0
M  V30 11082 H 1037.15 1.71373 6.22335 0
M  V30 11083 H 1037.92 3.3876 7.45107 0
M  V30 11084 N 1040.58 -1.57259 0.103575 0
M  V30 11085 C 1041.83 -1.95744 -0.552781 0
M  V30 11086 C 1042.18 -0.985175 -1.65264 0
M  V30 11087 O 1041.48 -0.0125763 -1.91596 0
M  V30 11088 C 1041.67 -3.38549 -1.14538 0
M  V30 11089 C 1041.5 -4.49579 -0.104467 0
M  V30 11090 C 1040.27 -5.04273 0.321999 0
M  V30 11091 C 1042.47 -5.09909 0.670622 0
M  V30 11092 N 1040.45 -5.98866 1.3503 0
M  V30 11093 C 1041.82 -6.00299 1.55052 0
M  V30 11094 C 1043.88 -4.9262 0.723209 0
M  V30 11095 C 1042.58 -6.75254 2.4784 0
M  V30 11096 C 1044.6 -5.68243 1.63873 0
M  V30 11097 C 1043.97 -6.58306 2.50624 0
M  V30 11098 H 1040.07 -0.762769 -0.172359 0
M  V30 11099 H 1042.65 -1.93789 0.188113 0
M  V30 11100 H 1040.82 -3.41182 -1.85606 0
M  V30 11101 H 1042.55 -3.64194 -1.7648 0
M  V30 11102 H 1039.31 -4.73552 -0.0674026 0
M  V30 11103 H 1039.73 -6.50865 1.86291 0
M  V30 11104 H 1044.37 -4.22747 0.0666625 0
M  V30 11105 H 1042.09 -7.44383 3.14516 0
M  V30 11106 H 1045.68 -5.56876 1.68466 0
M  V30 11107 H 1044.56 -7.15799 3.20315 0
M  V30 11108 N 1042.06 0.170153 -1.56679 0
M  V30 11109 C 1043.31 0.884841 -1.817 0
M  V30 11110 C 1043.63 1.82731 -0.680763 0
M  V30 11111 O 1042.9 1.936 0.299294 0
M  V30 11112 H 1041.48 0.329738 -0.670285 0
M  V30 11113 H 1044.14 0.169691 -1.9416 0
M  V30 11114 H 1043.24 1.46104 -2.7579 0
M  V30 11115 N 1043.54 1.5137 0.438746 0
M  V30 11116 C 1044.77 1.67774 1.21077 0
M  V30 11117 C 1045.18 0.374489 1.85049 0
M  V30 11118 O 1044.54 -0.646867 1.70651 0
M  V30 11119 C 1044.59 2.79238 2.29584 0
M  V30 11120 O 1044.31 4.04513 1.68228 0
M  V30 11121 C 1045.81 3.06898 3.19888 0
M  V30 11122 H 1043.03 0.563054 0.364981 0
M  V30 11123 H 1045.58 1.97777 0.520035 0
M  V30 11124 H 1043.73 2.51837 2.94375 0
M  V30 11125 H 1044.14 4.66405 2.3993 0
M  V30 11126 H 1045.62 3.88476 3.92162 0
M  V30 11127 H 1046.1 2.19249 3.80561 0
M  V30 11128 H 1046.7 3.35952 2.60799 0
M  V30 11129 N 1045.02 -0.694098 1.41492 0
M  V30 11130 C 1046.26 -1.4563 1.41137 0
M  V30 11131 C 1046.6 -1.94189 0.0208428 0
M  V30 11132 O 1045.87 -1.69628 -0.951655 0
M  V30 11133 C 1046.15 -2.66714 2.41941 0
M  V30 11134 C 1046.01 -2.23912 3.90107 0
M  V30 11135 C 1047.33 -3.68913 2.39981 0
M  V30 11136 H 1044.44 -0.52821 0.513968 0
M  V30 11137 H 1047.09 -0.790437 1.72778 0
M  V30 11138 H 1045.24 -3.23525 2.1509 0
M  V30 11139 H 1046.91 -1.72417 4.27867 0
M  V30 11140 H 1045.15 -1.5568 4.04903 0
M  V30 11141 H 1045.82 -3.108 4.56188 0
M  V30 11142 H 1048.3 -3.21779 2.63813 0
M  V30 11143 H 1047.17 -4.51242 3.12524 0
M  V30 11144 H 1047.44 -4.18711 1.41892 0
M  V30 11145 N 1046.49 -1.27344 -0.928501 0
M  V30 11146 C 1047.72 -1.16278 -1.70772 0
M  V30 11147 C 1048.13 0.283131 -1.8707 0
M  V30 11148 O 1047.48 1.20466 -1.38685 0
M  V30 11149 C 1047.54 -1.77313 -3.1273 0
M  V30 11150 C 1047.2 -3.26488 -3.19773 0
M  V30 11151 C 1048.2 -4.23133 -3.02083 0
M  V30 11152 C 1045.88 -3.67182 -3.42757 0
M  V30 11153 C 1047.88 -5.5845 -3.07267 0
M  V30 11154 C 1045.56 -5.02629 -3.47574 0
M  V30 11155 C 1046.56 -5.98072 -3.29847 0
M  V30 11156 O 1046.25 -7.3105 -3.34397 0
M  V30 11157 H 1045.98 -0.405215 -0.541089 0
M  V30 11158 H 1048.54 -1.68707 -1.17163 0
M  V30 11159 H 1046.77 -1.19361 -3.67818 0
M  V30 11160 H 1048.46 -1.60972 -3.72616 0
M  V30 11161 H 1049.22 -3.93031 -2.84168 0
M  V30 11162 H 1045.1 -2.93369 -3.55606 0
M  V30 11163 H 1048.64 -6.32924 -2.93348 0
M  V30 11164 H 1044.54 -5.32387 -3.65013 0
M  V30 11165 H 1045.31 -7.39488 -3.50857 0
M  V30 11166 N 1047.97 1.13488 -1.09353 0
M  V30 11167 C 1049.2 1.89133 -0.85108 0
M  V30 11168 C 1049.62 1.78542 0.591976 0
M  V30 11169 O 1048.98 1.13243 1.41583 0
M  V30 11170 C 1049.03 3.36736 -1.29001 0
M  V30 11171 O 1048.13 4.09959 -0.447993 0
M  V30 11172 H 1047.47 0.58809 -0.308296 0
M  V30 11173 H 1050 1.43593 -1.45747 0
M  V30 11174 H 1050.01 3.87564 -1.27508 0
M  V30 11175 H 1048.69 3.43762 -2.34095 0
M  V30 11176 H 1047.27 3.69155 -0.52717 0
M  V30 11177 N 1049.45 0.880621 1.30701 0
M  V30 11178 C 1050.38 0.360251 2.30704 0
M  V30 11179 C 1051.36 -0.554572 1.60806 0
M  V30 11180 O 1052.55 -0.469345 1.88443 0
M  V30 11181 C 1049.68 -0.429888 3.44629 0
M  V30 11182 C 1048.63 0.392786 4.26194 0
M  V30 11183 C 1047.96 -0.52369 5.32129 0
M  V30 11184 C 1049.26 1.63258 4.96129 0
M  V30 11185 H 1050.95 1.19591 2.74478 0
M  V30 11186 H 1048.5 0.576508 1.31956 0
M  V30 11187 H 1050.45 -0.804532 4.13649 0
M  V30 11188 H 1049.17 -1.29916 2.99649 0
M  V30 11189 H 1047.83 0.749514 3.58856 0
M  V30 11190 H 1047.48 -1.39054 4.83397 0
M  V30 11191 H 1047.18 0.0229272 5.87596 0
M  V30 11192 H 1048.71 -0.894946 6.04006 0
M  V30 11193 H 1050.12 1.32877 5.57689 0
M  V30 11194 H 1048.52 2.11906 5.61441 0
M  V30 11195 H 1049.59 2.37944 4.22505 0
M  V30 11196 N 1050.93 -1.4397 0.641131 0
M  V30 11197 C 1052.34 -1.85267 0.230838 0
M  V30 11198 C 1052.69 -1.53659 -1.21998 0
M  V30 11199 O 1051.82 -0.979572 -1.92959 0
M  V30 11200 C 1052.41 -3.36284 0.412171 0
M  V30 11201 C 1050.97 -3.76358 0.0563004 0
M  V30 11202 C 1050.12 -2.67768 0.720809 0
M  V30 11203 H 1053.07 -1.34294 0.845624 0
M  V30 11204 H 1053.09 -3.78924 -0.345936 0
M  V30 11205 H 1052.6 -3.59258 1.46818 0
M  V30 11206 H 1050.7 -3.58997 -0.997582 0
M  V30 11207 H 1050.82 -4.76756 0.473335 0
M  V30 11208 H 1049.18 -2.54227 0.155164 0
M  V30 11209 H 1049.96 -2.93573 1.77961 0
M  V30 11210 N 1052.41 -0.382291 -1.52893 0
M  V30 11211 C 1053.68 0.259354 -1.93873 0
M  V30 11212 C 1054.06 1.64964 -1.3172 0
M  V30 11213 O 1053.41 2.23345 -0.482611 0
M  V30 11214 C 1053.62 0.292765 -3.4777 0
M  V30 11215 C 1054.97 0.525095 -4.21341 0
M  V30 11216 O 1055.99 0.373272 -3.54239 0
M  V30 11217 O 1054.85 0.822004 -5.40283 0
M  V30 11218 H 1051.95 0.159422 -0.811489 0
M  V30 11219 H 1054.49 -0.436289 -1.63996 0
M  V30 11220 H 1053.27 -0.681341 -3.85323 0
M  V30 11221 H 1052.89 1.03362 -3.8393 0
M  V30 11222 N 1053.89 1.57202 -0.111913 0
M  V30 11223 C 1055.13 1.94565 0.546713 0
M  V30 11224 C 1055.45 0.995644 1.67666 0
M  V30 11225 O 1054.72 0.0506681 1.95834 0
M  V30 11226 H 1053.3 0.718334 0.204951 0
M  V30 11227 H 1055.97 1.94074 -0.179193 0
M  V30 11228 H 1055.06 2.9742 0.945931 0
M  V30 11229 N 1055.36 -0.161842 1.56767 0
M  V30 11230 C 1056.64 -0.904754 1.73417 0
M  V30 11231 C 1057.02 -1.99987 0.675908 0
M  V30 11232 O 1056.37 -2.26419 -0.307712 0
M  V30 11233 C 1056.58 -1.46082 3.16956 0
M  V30 11234 C 1057.93 -1.93004 3.78199 0
M  V30 11235 O 1058.95 -1.55856 3.20293 0
M  V30 11236 O 1057.81 -2.61465 4.79894 0
M  V30 11237 H 1054.9 -0.426518 0.708528 0
M  V30 11238 H 1057.45 -0.148928 1.69045 0
M  V30 11239 H 1056.22 -0.673087 3.85468 0
M  V30 11240 H 1055.84 -2.28056 3.25693 0
M  V30 11241 N 1056.84 -1.516 -0.430713 0
M  V30 11242 C 1058.09 -1.65801 -1.17821 0
M  V30 11243 C 1058.44 -0.372769 -1.88754 0
M  V30 11244 O 1057.74 0.631767 -1.80885 0
M  V30 11245 C 1057.93 -2.804 -2.21609 0
M  V30 11246 C 1057.76 -4.19944 -1.60863 0
M  V30 11247 C 1056.53 -4.85786 -1.39068 0
M  V30 11248 C 1058.73 -5.02806 -1.08124 0
M  V30 11249 N 1056.71 -6.09425 -0.73989 0
M  V30 11250 C 1058.08 -6.17501 -0.556114 0
M  V30 11251 C 1060.13 -4.88288 -0.973635 0
M  V30 11252 C 1058.84 -7.1927 0.0660558 0
M  V30 11253 C 1060.86 -5.9027 -0.36535 0
M  V30 11254 C 1060.23 -7.04242 0.149205 0
M  V30 11255 H 1056.32 -0.660545 -0.418574 0
M  V30 11256 H 1058.91 -1.88847 -0.473799 0
M  V30 11257 H 1057.08 -2.59006 -2.89431 0
M  V30 11258 H 1058.81 -2.83747 -2.88565 0
M  V30 11259 H 1055.57 -4.4377 -1.65425 0
M  V30 11260 H 1055.99 -6.75622 -0.431745 0
M  V30 11261 H 1060.63 -4.00421 -1.35731 0
M  V30 11262 H 1058.35 -8.06779 0.461848 0
M  V30 11263 H 1061.94 -5.81107 -0.283902 0
M  V30 11264 H 1060.82 -7.81804 0.61249 0
M  V30 11265 N 1058.32 0.686584 -1.41858 0
M  V30 11266 C 1059.54 1.4802 -1.45275 0
M  V30 11267 C 1059.97 1.87997 -0.0621297 0
M  V30 11268 O 1059.33 1.55226 0.936733 0
M  V30 11269 C 1059.38 2.7133 -2.37513 0
M  V30 11270 O 1058.48 3.69159 -1.83836 0
M  V30 11271 H 1057.82 0.445152 -0.492682 0
M  V30 11272 H 1060.35 0.843161 -1.86419 0
M  V30 11273 H 1060.36 3.19537 -2.53693 0
M  V30 11274 H 1059.04 2.41571 -3.3855 0
M  V30 11275 H 1057.61 3.28134 -1.77151 0
M  V30 11276 N 1059.8 1.27835 0.921735 0
M  V30 11277 C 1060.74 1.11075 2.02314 0
M  V30 11278 C 1061.71 0.0101195 1.66097 0
M  V30 11279 O 1062.9 0.173564 1.90009 0
M  V30 11280 C 1060.04 0.770251 3.36394 0
M  V30 11281 C 1059.15 1.94912 3.8553 0
M  V30 11282 C 1058.29 1.54996 5.08084 0
M  V30 11283 C 1057.33 2.69595 5.49531 0
M  V30 11284 N 1056.46 2.30227 6.6328 0
M  V30 11285 H 1061.3 2.05319 2.15982 0
M  V30 11286 H 1058.84 1.022 1.058 0
M  V30 11287 H 1060.8 0.553624 4.1351 0
M  V30 11288 H 1059.43 -0.135238 3.22517 0
M  V30 11289 H 1058.48 2.27811 3.04641 0
M  V30 11290 H 1059.79 2.80858 4.12214 0
M  V30 11291 H 1058.95 1.29493 5.9272 0
M  V30 11292 H 1057.69 0.661676 4.83191 0
M  V30 11293 H 1056.69 2.95806 4.63442 0
M  V30 11294 H 1057.92 3.59054 5.76417 0
M  V30 11295 H 1055.86 1.43858 6.40032 0
M  V30 11296 H 1055.78 3.09711 6.89649 0
M  V30 11297 H 1057.05 2.07987 7.5124 0
M  V30 11298 N 1061.28 -1.12907 1.09954 0
M  V30 11299 C 1062.52 -1.84786 0.850039 0
M  V30 11300 C 1062.88 -1.82214 -0.617724 0
M  V30 11301 O 1062.17 -1.25319 -1.44934 0
M  V30 11302 C 1062.36 -3.31885 1.32616 0
M  V30 11303 C 1062.19 -3.48782 2.83868 0
M  V30 11304 C 1060.96 -3.62708 3.51811 0
M  V30 11305 C 1063.16 -3.44367 3.8199 0
M  V30 11306 N 1061.14 -3.67921 4.91434 0
M  V30 11307 C 1062.51 -3.56015 5.07596 0
M  V30 11308 C 1064.57 -3.27801 3.74768 0
M  V30 11309 C 1063.27 -3.52807 6.26833 0
M  V30 11310 C 1065.3 -3.25904 4.93499 0
M  V30 11311 C 1064.66 -3.38108 6.1795 0
M  V30 11312 H 1060.76 -0.692126 0.363986 0
M  V30 11313 H 1063.34 -1.35208 1.40096 0
M  V30 11314 H 1061.51 -3.80016 0.802625 0
M  V30 11315 H 1063.25 -3.91598 1.02142 0
M  V30 11316 H 1060 -3.64613 3.02248 0
M  V30 11317 H 1060.42 -3.74204 5.64181 0
M  V30 11318 H 1065.07 -3.17264 2.7947 0
M  V30 11319 H 1062.78 -3.62116 7.22425 0
M  V30 11320 H 1066.37 -3.14275 4.89615 0
M  V30 11321 H 1065.25 -3.36607 7.08283 0
M  V30 11322 N 1062.75 -0.88754 -1.30232 0
M  V30 11323 C 1063.68 -0.372481 -2.3051 0
M  V30 11324 C 1064.66 0.546037 -1.61098 0
M  V30 11325 O 1065.85 0.459345 -1.88689 0
M  V30 11326 C 1062.98 0.411605 -3.44852 0
M  V30 11327 C 1061.93 -0.415383 -4.2598 0
M  V30 11328 C 1061.26 0.495463 -5.324 0
M  V30 11329 C 1062.56 -1.65886 -4.95257 0
M  V30 11330 H 1064.25 -1.21045 -2.7384 0
M  V30 11331 H 1061.8 -0.583498 -1.31648 0
M  V30 11332 H 1063.75 0.782584 -4.1407 0
M  V30 11333 H 1062.48 1.28325 -3.00334 0
M  V30 11334 H 1061.14 -0.768534 -3.58454 0
M  V30 11335 H 1060.78 1.36489 -4.84128 0
M  V30 11336 H 1060.48 -0.0540885 -5.87575 0
M  V30 11337 H 1062.01 0.862901 -6.04472 0
M  V30 11338 H 1063.42 -1.35832 -5.56976 0
M  V30 11339 H 1061.82 -2.14881 -5.60309 0
M  V30 11340 H 1062.89 -2.40181 -4.21237 0
M  V30 11341 N 1064.23 1.43628 -0.648757 0
M  V30 11342 C 1065.18 2.30755 0.0455536 0
M  V30 11343 C 1066.15 1.44495 0.819168 0
M  V30 11344 O 1067.33 1.73372 0.79667 0
M  V30 11345 C 1064.47 3.30017 1.00908 0
M  V30 11346 C 1063.59 4.31376 0.232039 0
M  V30 11347 C 1062.72 5.17723 1.18897 0
M  V30 11348 C 1061.76 6.10778 0.402096 0
M  V30 11349 N 1060.9 6.89763 1.31038 0
M  V30 11350 H 1065.74 2.89581 -0.70332 0
M  V30 11351 H 1063.28 1.42662 -0.3586 0
M  V30 11352 H 1065.23 3.86072 1.58128 0
M  V30 11353 H 1063.86 2.72851 1.72488 0
M  V30 11354 H 1062.92 3.77652 -0.456373 0
M  V30 11355 H 1064.23 4.9735 -0.380023 0
M  V30 11356 H 1063.38 5.78381 1.83194 0
M  V30 11357 H 1062.12 4.51864 1.83494 0
M  V30 11358 H 1061.13 5.49212 -0.254255 0
M  V30 11359 H 1062.35 6.78678 -0.239411 0
M  V30 11360 H 1060.3 6.26557 1.94324 0
M  V30 11361 H 1060.21 7.52243 0.752774 0
M  V30 11362 H 1061.48 7.54931 1.94164 0
M  V30 11363 N 1065.71 0.390394 1.52688 0
M  V30 11364 C 1066.96 -0.192697 2.00777 0
M  V30 11365 C 1067.27 -1.4781 1.28108 0
M  V30 11366 O 1068.48 -2.1413 1.66914 0
M  V30 11367 C 1066.93 -0.393955 3.57737 0
M  V30 11368 C 1066.54 0.878259 4.39307 0
M  V30 11369 C 1068.29 -0.933352 4.14112 0
M  V30 11370 C 1066.19 0.645218 5.8787 0
M  V30 11371 H 1065.12 -0.0757862 0.750182 0
M  V30 11372 H 1067.77 0.512961 1.76184 0
M  V30 11373 H 1066.16 -1.16149 3.78583 0
M  V30 11374 H 1067.33 1.65049 4.30227 0
M  V30 11375 H 1065.65 1.34269 3.94158 0
M  V30 11376 H 1068.24 -1.12343 5.22765 0
M  V30 11377 H 1068.59 -1.90272 3.70273 0
M  V30 11378 H 1069.12 -0.225361 3.97161 0
M  V30 11379 H 1065.86 1.58562 6.36033 0
M  V30 11380 H 1065.38 -0.0880609 5.99735 0
M  V30 11381 H 1067.06 0.280178 6.46393 0
M  V30 11382 N 1067.19 -1.57141 0.120249 0
M  V30 11383 C 1068.41 -2.00017 -0.548454 0
M  V30 11384 C 1068.84 -0.999433 -1.59352 0
M  V30 11385 O 1068.2 0.0286978 -1.81277 0
M  V30 11386 C 1068.24 -3.41766 -1.15015 0
M  V30 11387 O 1067.35 -3.44589 -2.26566 0
M  V30 11388 H 1066.69 -0.649739 -0.136875 0
M  V30 11389 H 1069.22 -2.03529 0.209092 0
M  V30 11390 H 1069.23 -3.80001 -1.48537 0
M  V30 11391 H 1067.9 -4.14117 -0.384681 0
M  V30 11392 H 1066.48 -3.18174 -1.94473 0
M  V30 11393 N 1068.67 0.153526 -1.5685 0
M  V30 11394 C 1069.91 0.867232 -1.8299 0
M  V30 11395 C 1070.24 1.81462 -0.700125 0
M  V30 11396 O 1069.5 1.93207 0.311348 0
M  V30 11397 C 1069.8 1.68066 -3.15418 0
M  V30 11398 C 1069.46 0.880635 -4.42217 0
M  V30 11399 C 1068.12 0.659899 -4.76654 0
M  V30 11400 C 1070.48 0.320698 -5.20212 0
M  V30 11401 C 1067.8 -0.131588 -5.86552 0
M  V30 11402 C 1070.16 -0.457794 -6.30941 0
M  V30 11403 C 1068.82 -0.689168 -6.63933 0
M  V30 11404 H 1068.09 0.317343 -0.669608 0
M  V30 11405 H 1070.74 0.131208 -1.9105 0
M  V30 11406 H 1069.04 2.4866 -3.02779 0
M  V30 11407 H 1070.74 2.23623 -3.32857 0
M  V30 11408 H 1067.33 1.06274 -4.15215 0
M  V30 11409 H 1071.51 0.47853 -4.93988 0
M  V30 11410 H 1066.77 -0.320413 -6.1056 0
M  V30 11411 H 1070.94 -0.898839 -6.90575 0
M  V30 11412 H 1068.57 -1.30433 -7.48927 0
M  V30 11413 N 1070.14 1.51827 0.422667 0
M  V30 11414 C 1071.42 1.55772 1.18299 0
M  V30 11415 C 1071.8 0.330657 2.08494 0
M  V30 11416 O 1071.15 -0.683373 2.18042 0
M  V30 11417 C 1071.36 2.87941 1.97208 0
M  V30 11418 C 1072.71 3.4044 2.53744 0
M  V30 11419 O 1073.73 2.8959 2.07403 0
M  V30 11420 O 1072.59 4.29201 3.38303 0
M  V30 11421 H 1069.68 0.626889 0.539388 0
M  V30 11422 H 1072.23 1.64147 0.430545 0
M  V30 11423 H 1071 3.68702 1.31052 0
M  V30 11424 H 1070.63 2.82795 2.79486 0
M  V30 11425 N 1071.62 -0.679052 1.4222 0
M  V30 11426 C 1072.87 -1.43485 1.41757 0
M  V30 11427 C 1073.18 -1.95567 0.0358698 0
M  V30 11428 O 1074.39 -2.71346 -0.0913713 0
M  V30 11429 C 1072.85 -2.59541 2.49332 0
M  V30 11430 C 1072.45 -2.14176 3.93488 0
M  V30 11431 C 1074.2 -3.37078 2.58029 0
M  V30 11432 C 1072.11 -3.27289 4.92581 0
M  V30 11433 H 1071.04 -0.539022 0.52723 0
M  V30 11434 H 1073.69 -0.735581 1.68111 0
M  V30 11435 H 1072.07 -3.31815 2.16135 0
M  V30 11436 H 1073.24 -1.49082 4.36017 0
M  V30 11437 H 1071.56 -1.49589 3.88603 0
M  V30 11438 H 1074.15 -4.21312 3.29242 0
M  V30 11439 H 1074.5 -3.83383 1.62245 0
M  V30 11440 H 1075.03 -2.7187 2.90399 0
M  V30 11441 H 1071.77 -2.8598 5.89827 0
M  V30 11442 H 1071.29 -3.91178 4.54687 0
M  V30 11443 H 1072.97 -3.9282 5.14103 0
M  V30 11444 N 1073.1 -1.28322 -0.914942 0
M  V30 11445 C 1074.05 -1.12146 -2.01722 0
M  V30 11446 C 1075.02 -0.0189279 -1.66089 0
M  V30 11447 O 1076.2 -0.183638 -1.89914 0
M  V30 11448 C 1073.34 -0.78808 -3.35981 0
M  V30 11449 C 1072.46 -1.96954 -3.84491 0
M  V30 11450 C 1071.59 -1.57688 -5.07255 0
M  V30 11451 C 1070.63 -2.72506 -5.48094 0
M  V30 11452 N 1069.77 -2.33741 -6.62049 0
M  V30 11453 H 1074.61 -2.06461 -2.1489 0
M  V30 11454 H 1072.14 -1.0276 -1.05256 0
M  V30 11455 H 1074.1 -0.575546 -4.13211 0
M  V30 11456 H 1072.73 0.118132 -3.22584 0
M  V30 11457 H 1071.78 -2.29423 -3.03429 0
M  V30 11458 H 1073.1 -2.8304 -4.10719 0
M  V30 11459 H 1072.25 -1.32634 -5.92025 0
M  V30 11460 H 1070.99 -0.687291 -4.82833 0
M  V30 11461 H 1069.99 -2.9826 -4.61867 0
M  V30 11462 H 1071.22 -3.62106 -5.74505 0
M  V30 11463 H 1069.16 -1.4725 -6.3926 0
M  V30 11464 H 1069.08 -3.13364 -6.87997 0
M  V30 11465 H 1070.35 -2.11968 -7.50127 0
M  V30 11466 N 1074.58 1.12322 -1.10551 0
M  V30 11467 C 1075.8 1.8822 -0.871093 0
M  V30 11468 C 1076.23 1.7916 0.573005 0
M  V30 11469 O 1075.59 1.14738 1.40374 0
M  V30 11470 C 1075.63 3.35349 -1.32565 0
M  V30 11471 O 1074.74 4.09461 -0.49145 0
M  V30 11472 H 1074.08 0.584787 -0.314516 0
M  V30 11473 H 1076.61 1.42039 -1.47262 0
M  V30 11474 H 1076.62 3.86189 -1.31612 0
M  V30 11475 H 1075.29 3.4126 -2.37728 0
M  V30 11476 H 1073.87 3.68575 -0.566294 0
M  V30 11477 N 1076.06 0.894434 1.2976 0
M  V30 11478 C 1077.3 0.518435 1.96061 0
M  V30 11479 C 1077.64 -0.931882 1.70381 0
M  V30 11480 O 1076.91 -1.65988 1.01381 0
M  V30 11481 C 1077.19 0.80519 3.50982 0
M  V30 11482 C 1077.05 2.30683 3.86142 0
M  V30 11483 C 1078.37 0.288096 4.39156 0
M  V30 11484 H 1075.48 0.18983 0.712133 0
M  V30 11485 H 1078.13 1.12016 1.53468 0
M  V30 11486 H 1076.28 0.293071 3.87393 0
M  V30 11487 H 1077.95 2.88808 3.59705 0
M  V30 11488 H 1076.19 2.76968 3.33873 0
M  V30 11489 H 1076.86 2.45805 4.94251 0
M  V30 11490 H 1079.34 0.726547 4.09708 0
M  V30 11491 H 1078.21 0.517985 5.4645 0
M  V30 11492 H 1078.48 -0.811018 4.34597 0
M  V30 11493 N 1077.53 -1.43282 0.656365 0
M  V30 11494 C 1078.81 -1.9534 0.100816 0
M  V30 11495 C 1079.19 -1.59755 -1.37992 0
M  V30 11496 O 1078.54 -0.884264 -2.10697 0
M  V30 11497 C 1078.75 -3.47237 0.35038 0
M  V30 11498 C 1080.1 -4.23822 0.257001 0
M  V30 11499 O 1081.12 -3.55073 0.283111 0
M  V30 11500 O 1079.98 -5.46192 0.183397 0
M  V30 11501 H 1077.07 -0.826963 -0.00780287 0
M  V30 11502 H 1079.62 -1.53205 0.72982 0
M  V30 11503 H 1078.39 -3.66276 1.37685 0
M  V30 11504 H 1078.02 -3.96378 -0.311539 0
M  V30 11505 N 1079.01 -0.398486 -1.52479 0
M  V30 11506 C 1080.26 0.180394 -2.01293 0
M  V30 11507 C 1080.58 1.46548 -1.28641 0
M  V30 11508 O 1079.85 1.91579 -0.409173 0
M  V30 11509 H 1078.43 0.0696528 -0.743746 0
M  V30 11510 H 1081.09 -0.532285 -1.87491 0
M  V30 11511 H 1080.19 0.38409 -3.09728 0
M  V30 11512 N 1080.49 1.57075 -0.12858 0
M  V30 11513 C 1081.72 2.00305 0.537839 0
M  V30 11514 C 1082.14 1.00787 1.58819 0
M  V30 11515 O 1081.5 -0.0190839 1.8129 0
M  V30 11516 C 1081.55 3.42371 1.13201 0
M  V30 11517 O 1080.65 3.45786 2.24735 0
M  V30 11518 H 1079.99 0.650456 0.133428 0
M  V30 11519 H 1082.52 2.03415 -0.219882 0
M  V30 11520 H 1082.53 3.80783 1.4652 0
M  V30 11521 H 1081.21 4.14315 0.362713 0
M  V30 11522 H 1079.78 3.19201 1.92783 0
M  V30 11523 N 1081.97 -0.145205 1.5693 0
M  V30 11524 C 1082.93 -1.16316 1.97492 0
M  V30 11525 C 1083.93 -1.35764 0.861668 0
M  V30 11526 O 1085.12 -1.32726 1.12825 0
M  V30 11527 C 1082.25 -2.52311 2.29242 0
M  V30 11528 H 1083.45 -0.815138 2.8861 0
M  V30 11529 H 1081 -0.38861 1.51392 0
M  V30 11530 H 1081.74 -2.92081 1.40922 0
M  V30 11531 H 1081.52 -2.39555 3.10412 0
M  V30 11532 H 1083.01 -3.25624 2.61456 0
M  V30 11533 N 1083.45 -1.52049 -0.414609 0
M  V30 11534 C 1084.4 -1.75603 -1.52533 0
M  V30 11535 C 1085.39 -0.622965 -1.57529 0
M  V30 11536 O 1086.6 -0.804886 -1.61002 0
M  V30 11537 H 1082.97 -0.555222 -0.507181 0
M  V30 11538 H 1084.94 -2.68666 -1.2985 0
M  V30 11539 C 1083.69 -1.9188 -2.89961 0
M  V30 11540 H 1083.01 -2.78483 -2.86857 0
M  V30 11541 H 1084.45 -2.12363 -3.66985 0
M  V30 11542 C 1082.91 -0.684453 -3.29874 0
M  V30 11543 O 1083.44 0.150256 -4.01419 0
M  V30 11544 N 1081.65 -0.521936 -2.85874 0
M  V30 11545 H 1081.2 -1.20229 -2.27822 0
M  V30 11546 H 1081.15 0.302655 -3.1294 0
M  V30 11547 N 1084.93 0.6715 -1.42579 0
M  V30 11548 C 1085.84 1.81435 -1.48723 0
M  V30 11549 C 1086.85 1.69895 -0.375716 0
M  V30 11550 O 1088.03 1.91388 -0.627115 0
M  V30 11551 C 1085.09 3.17599 -1.39038 0
M  V30 11552 C 1084.15 3.41071 -2.60709 0
M  V30 11553 C 1083.39 4.7074 -2.51476 0
M  V30 11554 O 1083.61 5.48868 -1.55243 0
M  V30 11555 O 1082.54 4.95528 -3.41666 0
M  V30 11556 H 1086.37 1.79206 -2.45191 0
M  V30 11557 H 1083.95 0.827666 -1.24379 0
M  V30 11558 H 1085.84 3.98847 -1.3601 0
M  V30 11559 H 1084.51 3.20458 -0.456966 0
M  V30 11560 H 1083.42 2.59659 -2.69311 0
M  V30 11561 H 1084.75 3.43045 -3.5296 0
M  V30 11562 N 1086.4 1.28806 0.908124 0
M  V30 11563 C 1087.65 1.15663 1.65242 0
M  V30 11564 C 1087.97 -0.292883 1.93395 0
M  V30 11565 O 1089.17 -0.545509 2.65963 0
M  V30 11566 C 1087.63 2.02233 2.97707 0
M  V30 11567 C 1087.24 3.51958 2.77181 0
M  V30 11568 C 1088.98 1.97792 3.75604 0
M  V30 11569 C 1086.89 4.3066 4.05322 0
M  V30 11570 H 1085.82 0.42928 0.619867 0
M  V30 11571 H 1088.47 1.5338 1.00731 0
M  V30 11572 H 1086.85 1.57377 3.63385 0
M  V30 11573 H 1088.02 4.0481 2.20149 0
M  V30 11574 H 1086.34 3.57983 2.12691 0
M  V30 11575 H 1088.94 2.53858 4.70596 0
M  V30 11576 H 1089.28 0.955956 4.05175 0
M  V30 11577 H 1089.81 2.40648 3.16755 0
M  V30 11578 H 1086.55 5.3346 3.8092 0
M  V30 11579 H 1086.07 3.8258 4.61944 0
M  V30 11580 H 1087.75 4.40878 4.73535 0
M  V30 11581 N 1087.88 -1.11734 1.11145 0
M  V30 11582 C 1089.3 -1.35412 0.844736 0
M  V30 11583 C 1089.5 -1.94347 -0.532111 0
M  V30 11584 O 1088.55 -2.17443 -1.28353 0
M  V30 11585 C 1089.87 -2.28869 1.95037 0
M  V30 11586 C 1091.41 -2.42442 1.97967 0
M  V30 11587 C 1091.89 -3.39219 3.07725 0
M  V30 11588 N 1093.38 -3.4678 3.07079 0
M  V30 11589 C 1094.12 -4.21595 3.88646 0
M  V30 11590 N 1093.61 -4.99411 4.80167 0
M  V30 11591 N 1095.4 -4.17075 3.76835 0
M  V30 11592 H 1087.56 -0.718412 1.99881 0
M  V30 11593 H 1089.82 -0.378787 0.869037 0
M  V30 11594 H 1089.52 -1.92752 2.94176 0
M  V30 11595 H 1089.4 -3.2906 1.84389 0
M  V30 11596 H 1091.79 -2.77835 0.994561 0
M  V30 11597 H 1091.87 -1.42113 2.12691 0
M  V30 11598 H 1091.51 -3.04553 4.0646 0
M  V30 11599 H 1091.44 -4.39394 2.90242 0
M  V30 11600 H 1093.93 -2.91272 2.40767 0
M  V30 11601 H 1094.24 -5.53856 5.38946 0
M  V30 11602 H 1092.59 -4.98582 4.84191 0
M  V30 11603 H 1095.78 -3.55369 3.04681 0
M  V30 11604 H 1095.95 -4.75125 4.40637 0
M  V30 11605 N 1089.36 -0.901303 -1.29284 0
M  V30 11606 C 1090.61 -0.528043 -1.95494 0
M  V30 11607 C 1090.93 0.92597 -1.71044 0
M  V30 11608 O 1090.19 1.67185 -1.01723 0
M  V30 11609 C 1090.49 -0.768828 -3.49033 0
M  V30 11610 C 1090.15 -2.20045 -3.93562 0
M  V30 11611 C 1088.82 -2.59189 -4.05431 0
M  V30 11612 C 1091.17 -3.13266 -4.1655 0
M  V30 11613 C 1088.5 -3.90733 -4.37658 0
M  V30 11614 C 1090.85 -4.4436 -4.50252 0
M  V30 11615 C 1089.51 -4.83375 -4.60331 0
M  V30 11616 H 1088.78 -0.193225 -0.715364 0
M  V30 11617 H 1091.43 -1.14027 -1.53851 0
M  V30 11618 H 1089.73 -0.0736997 -3.91731 0
M  V30 11619 H 1091.43 -0.459384 -3.9836 0
M  V30 11620 H 1088.02 -1.88666 -3.84842 0
M  V30 11621 H 1092.21 -2.84237 -4.06845 0
M  V30 11622 H 1087.46 -4.2068 -4.43665 0
M  V30 11623 H 1091.64 -5.16618 -4.66989 0
M  V30 11624 H 1089.26 -5.8534 -4.85058 0
M  V30 11625 N 1090.84 1.42931 -0.663954 0
M  V30 11626 C 1091.77 2.28089 0.0710318 0
M  V30 11627 C 1092.75 1.40446 0.819375 0
M  V30 11628 O 1093.93 1.69887 0.816738 0
M  V30 11629 C 1091.06 3.20079 1.10756 0
M  V30 11630 C 1090.11 4.24055 0.456045 0
M  V30 11631 S 1090.94 5.29813 -0.778356 0
M  V30 11632 C 1092.09 6.25371 0.257373 0
M  V30 11633 H 1092.33 2.90078 -0.651315 0
M  V30 11634 H 1089.86 1.47601 -0.453137 0
M  V30 11635 H 1091.82 3.7362 1.70055 0
M  V30 11636 H 1090.48 2.57248 1.80229 0
M  V30 11637 H 1089.67 4.88564 1.23779 0
M  V30 11638 H 1089.27 3.73947 -0.0630832 0
M  V30 11639 H 1091.57 6.68172 1.12037 0
M  V30 11640 H 1092.51 7.0722 -0.352969 0
M  V30 11641 H 1092.92 5.61324 0.597991 0
M  V30 11642 N 1092.32 0.406567 1.52266 0
M  V30 11643 C 1093.56 -0.171391 2.00971 0
M  V30 11644 C 1093.88 -1.46443 1.29668 0
M  V30 11645 O 1095.08 -2.12348 1.69176 0
M  V30 11646 C 1093.54 -0.35599 3.58135 0
M  V30 11647 C 1093.15 0.924803 4.38351 0
M  V30 11648 C 1094.89 -0.889378 4.15079 0
M  V30 11649 C 1092.8 0.707534 5.87152 0
M  V30 11650 H 1091.73 -0.0678253 0.750943 0
M  V30 11651 H 1094.38 0.531619 1.7563 0
M  V30 11652 H 1092.76 -1.12127 3.79794 0
M  V30 11653 H 1093.94 1.69603 4.28452 0
M  V30 11654 H 1092.25 1.38442 3.92712 0
M  V30 11655 H 1094.85 -1.06792 5.23927 0
M  V30 11656 H 1095.19 -1.86334 3.7227 0
M  V30 11657 H 1095.72 -0.183224 3.97378 0
M  V30 11658 H 1092.46 1.65299 6.34316 0
M  V30 11659 H 1091.98 -0.024446 5.99795 0
M  V30 11660 H 1093.66 0.348721 6.4606 0
M  V30 11661 N 1093.79 -1.57004 0.136909 0
M  V30 11662 C 1094.76 -2.15066 -0.792419 0
M  V30 11663 C 1095.76 -1.08991 -1.18226 0
M  V30 11664 O 1096.95 -1.34681 -1.10484 0
M  V30 11665 C 1094.08 -2.70554 -2.07397 0
M  V30 11666 H 1095.27 -2.98519 -0.28752 0
M  V30 11667 H 1092.83 -1.55895 -0.112469 0
M  V30 11668 H 1093.56 -1.90739 -2.62277 0
M  V30 11669 H 1093.35 -3.48149 -1.80374 0
M  V30 11670 H 1094.84 -3.15322 -2.73792 0
M  V30 11671 N 1095.27 0.136881 -1.57004 0
M  V30 11672 C 1096.18 1.18793 -2.023 0
M  V30 11673 C 1097.2 1.46412 -0.94018 0
M  V30 11674 O 1098.37 1.57883 -1.2504 0
M  V30 11675 C 1095.44 2.49903 -2.40311 0
M  V30 11676 C 1094.5 2.29841 -3.6259 0
M  V30 11677 C 1093.73 3.54699 -3.98779 0
M  V30 11678 O 1093.96 4.61291 -3.3551 0
M  V30 11679 O 1092.89 3.46761 -4.91976 0
M  V30 11680 H 1096.72 0.833345 -2.92043 0
M  V30 11681 H 1094.3 0.346361 -1.4533 0
M  V30 11682 H 1096.18 3.27183 -2.65574 0
M  V30 11683 H 1094.86 2.84872 -1.5372 0
M  V30 11684 H 1093.77 1.50478 -3.42501 0
M  V30 11685 H 1095.1 1.99784 -4.4983 0
M  V30 11686 N 1096.75 1.52266 0.40654 0
M  V30 11687 C 1097.7 1.75794 1.4955 0
M  V30 11688 C 1098.67 0.600472 1.54866 0
M  V30 11689 O 1099.85 0.838305 1.71397 0
M  V30 11690 C 1096.99 1.91682 2.86971 0
M  V30 11691 C 1096.11 3.19337 2.90943 0
M  V30 11692 C 1095.24 3.25641 4.1968 0
M  V30 11693 C 1094.28 4.47488 4.17637 0
M  V30 11694 N 1093.42 4.51171 5.37949 0
M  V30 11695 H 1098.26 2.68733 1.28789 0
M  V30 11696 H 1095.79 1.33157 0.625102 0
M  V30 11697 H 1097.75 1.98877 3.66748 0
M  V30 11698 H 1096.38 1.02121 3.06221 0
M  V30 11699 H 1095.43 3.21301 2.03642 0
M  V30 11700 H 1096.75 4.09153 2.85299 0
M  V30 11701 H 1095.9 3.31922 5.07851 0
M  V30 11702 H 1094.64 2.33769 4.28023 0
M  V30 11703 H 1093.64 4.41351 3.27856 0
M  V30 11704 H 1094.87 5.40659 4.10932 0
M  V30 11705 H 1092.81 3.62182 5.46955 0
M  V30 11706 H 1092.73 5.34835 5.3431 0
M  V30 11707 H 1094 4.61685 6.28066 0
M  V30 11708 N 1098.23 -0.663929 1.42933 0
M  V30 11709 C 1099.45 -1.45691 1.47611 0
M  V30 11710 C 1099.88 -1.87875 0.0920305 0
M  V30 11711 O 1099.24 -1.56696 -0.91192 0
M  V30 11712 C 1099.28 -2.67517 2.41799 0
M  V30 11713 O 1098.39 -3.66187 1.89686 0
M  V30 11714 H 1097.73 -0.437257 0.499702 0
M  V30 11715 H 1100.26 -0.813397 1.87737 0
M  V30 11716 H 1100.27 -3.1546 2.58745 0
M  V30 11717 H 1098.94 -2.36155 3.4235 0
M  V30 11718 H 1097.52 -3.25274 1.82349 0
M  V30 11719 N 1099.71 -1.29285 -0.901281 0
M  V30 11720 C 1100.96 -1.16538 -1.64626 0
M  V30 11721 C 1101.27 0.282623 -1.93547 0
M  V30 11722 O 1102.47 0.531396 -2.66249 0
M  V30 11723 C 1100.93 -2.03809 -2.96631 0
M  V30 11724 C 1100.54 -3.53423 -2.75311 0
M  V30 11725 C 1102.28 -1.99782 -3.7455 0
M  V30 11726 C 1100.19 -4.32804 -4.03032 0
M  V30 11727 H 1099.12 -0.432561 -0.617581 0
M  V30 11728 H 1101.77 -1.53912 -0.999159 0
M  V30 11729 H 1100.15 -1.59302 -3.62545 0
M  V30 11730 H 1101.33 -4.05971 -2.18 0
M  V30 11731 H 1099.64 -3.59106 -2.10789 0
M  V30 11732 H 1102.24 -2.5635 -4.69243 0
M  V30 11733 H 1102.58 -0.97743 -4.04663 0
M  V30 11734 H 1103.11 -2.42324 -3.15474 0
M  V30 11735 H 1099.85 -5.35473 -3.78086 0
M  V30 11736 H 1099.37 -3.85025 -4.59909 0
M  V30 11737 H 1101.05 -4.43383 -4.71191 0
M  V30 11738 N 1101.18 1.11143 -1.11736 0
M  V30 11739 C 1102.13 2.19358 -0.773626 0
M  V30 11740 C 1103.13 1.67744 0.236288 0
M  V30 11741 O 1104.33 1.79748 0.09525 0
M  V30 11742 H 1100.71 0.715218 -0.232309 0
M  V30 11743 H 1102.68 2.45594 -1.69487 0
M  V30 11744 C 1101.43 3.46895 -0.236457 0
M  V30 11745 H 1100.75 3.86967 -1.00483 0
M  V30 11746 H 1102.19 4.23986 -0.034168 0
M  V30 11747 C 1100.65 3.20641 1.03397 0
M  V30 11748 O 1101.18 3.41629 2.11312 0
M  V30 11749 N 1099.39 2.74356 0.957986 0
M  V30 11750 H 1098.93 2.57477 0.0796924 0
M  V30 11751 H 1098.89 2.57166 1.80867 0
M  V30 11752 N 1102.66 0.908147 1.28804 0
M  V30 11753 C 1103.91 0.53734 1.94826 0
M  V30 11754 C 1104.23 -0.920962 1.71882 0
M  V30 11755 O 1103.5 -1.65043 1.05534 0
M  V30 11756 H 1102.08 0.195729 0.720902 0
M  V30 11757 H 1104.74 1.15628 1.56895 0
M  V30 11758 H 1103.84 0.727052 3.03513 0
M  V30 11759 N 1104.14 -1.42577 0.671525 0
M  V30 11760 C 1105.39 -2.01882 0.192716 0
M  V30 11761 C 1105.72 -1.52959 -1.19654 0
M  V30 11762 O 1104.99 -0.730404 -1.80265 0
M  V30 11763 C 1105.28 -3.59404 0.223734 0
M  V30 11764 C 1105.13 -4.18514 1.64821 0
M  V30 11765 C 1106.45 -4.37996 -0.429858 0
M  V30 11766 H 1103.57 -0.733523 0.0715026 0
M  V30 11767 H 1106.21 -1.69641 0.855689 0
M  V30 11768 H 1104.36 -3.87003 -0.340776 0
M  V30 11769 H 1106.03 -4.01881 2.26472 0
M  V30 11770 H 1104.28 -3.74467 2.1899 0
M  V30 11771 H 1104.95 -5.27643 1.62162 0
M  V30 11772 H 1107.42 -4.16069 0.0506433 0
M  V30 11773 H 1106.3 -5.476 -0.377503 0
M  V30 11774 H 1106.56 -4.15625 -1.50693 0
M  V30 11775 N 1105.62 -0.414636 -1.52048 0
M  V30 11776 C 1106.87 0.159034 -2.01473 0
M  V30 11777 C 1107.19 1.45176 -1.30188 0
M  V30 11778 O 1106.46 1.91134 -0.429469 0
M  V30 11779 H 1105.04 0.0617604 -0.744443 0
M  V30 11780 H 1107.7 -0.552141 -1.86916 0
M  V30 11781 H 1106.8 0.351217 -3.10118 0
M  V30 11782 N 1107.1 1.56929 -0.145233 0
M  V30 11783 C 1108.37 1.8767 0.551288 0
M  V30 11784 C 1108.75 1.05089 1.83083 0
M  V30 11785 O 1108.1 0.137201 2.28088 0
M  V30 11786 C 1108.31 3.39268 0.818445 0
M  V30 11787 C 1109.66 4.08447 1.16 0
M  V30 11788 O 1110.68 3.44436 0.907857 0
M  V30 11789 O 1109.54 5.21488 1.63441 0
M  V30 11790 H 1106.64 0.777788 0.281024 0
M  V30 11791 H 1109.18 1.68724 -0.181712 0
M  V30 11792 H 1107.95 3.91203 -0.0871897 0
M  V30 11793 H 1107.58 3.63735 1.60569 0
M  V30 11794 N 1108.58 -0.128553 1.57075 0
M  V30 11795 C 1109.82 -0.836355 1.83982 0
M  V30 11796 C 1110.14 -1.80862 0.728971 0
M  V30 11797 O 1109.41 -1.94326 -0.247859 0
M  V30 11798 H 1107.99 -0.31185 0.678792 0
M  V30 11799 H 1110.66 -0.118153 1.94542 0
M  V30 11800 H 1109.75 -1.38741 2.79567 0
M  V30 11801 N 1110.05 -1.5248 -0.398459 0
M  V30 11802 C 1110.96 -1.79492 -1.51062 0
M  V30 11803 C 1111.98 -0.681101 -1.60116 0
M  V30 11804 O 1113.16 -0.967671 -1.7663 0
M  V30 11805 C 1110.22 -1.94958 -2.86692 0
M  V30 11806 C 1109.28 -3.1887 -2.87438 0
M  V30 11807 C 1108.51 -3.33588 -4.16599 0
M  V30 11808 O 1108.74 -2.53327 -5.11059 0
M  V30 11809 O 1107.67 -4.26795 -4.24416 0
M  V30 11810 H 1111.5 -2.73913 -1.31169 0
M  V30 11811 H 1109.08 -1.37455 -0.585372 0
M  V30 11812 H 1110.96 -2.06891 -3.67116 0
M  V30 11813 H 1109.64 -1.03726 -3.06631 0
M  V30 11814 H 1108.55 -3.12386 -2.0583 0
M  V30 11815 H 1109.88 -4.09917 -2.7245 0
M  V30 11816 N 1111.53 0.65634 -1.43283 0
M  V30 11817 C 1112.48 1.76243 -1.44646 0
M  V30 11818 C 1113.47 1.5778 -0.31532 0
M  V30 11819 O 1114.66 1.67945 -0.558881 0
M  V30 11820 C 1111.79 3.14813 -1.36921 0
M  V30 11821 C 1110.87 3.38835 -2.55053 0
M  V30 11822 N 1111.26 3.33345 -3.80414 0
M  V30 11823 C 1109.56 3.69542 -2.4971 0
M  V30 11824 C 1110.26 3.57361 -4.58986 0
M  V30 11825 N 1109.24 3.79022 -3.8967 0
M  V30 11826 H 1113.04 1.70419 -2.39447 0
M  V30 11827 H 1110.55 0.85789 -1.37891 0
M  V30 11828 H 1112.55 3.941 -1.3598 0
M  V30 11829 H 1111.21 3.21822 -0.431381 0
M  V30 11830 H 1112.22 3.12827 -4.12747 0
M  V30 11831 H 1108.9 3.83684 -1.64598 0
M  V30 11832 H 1110.29 3.58921 -5.68001 0
M  V30 11833 N 1113.01 1.29761 0.894412 0
M  V30 11834 C 1114.26 1.19224 1.64794 0
M  V30 11835 C 1114.61 -0.252648 1.90734 0
M  V30 11836 O 1113.9 -1.17881 1.51045 0
M  V30 11837 C 1114.1 1.94458 2.99868 0
M  V30 11838 C 1113.93 3.46115 2.87114 0
M  V30 11839 C 1112.7 4.15469 2.87599 0
M  V30 11840 C 1114.89 4.41518 2.63754 0
M  V30 11841 N 1112.88 5.53453 2.65637 0
M  V30 11842 C 1114.25 5.66999 2.50823 0
M  V30 11843 C 1116.3 4.31221 2.48903 0
M  V30 11844 C 1115.01 6.83351 2.24554 0
M  V30 11845 C 1117.03 5.4733 2.24018 0
M  V30 11846 C 1116.39 6.71786 2.11856 0
M  V30 11847 H 1112.49 0.491294 0.608403 0
M  V30 11848 H 1115.08 1.63656 1.05474 0
M  V30 11849 H 1113.25 1.52432 3.57238 0
M  V30 11850 H 1114.98 1.76142 3.64357 0
M  V30 11851 H 1111.73 3.67217 2.9908 0
M  V30 11852 H 1112.16 6.26037 2.57695 0
M  V30 11853 H 1116.8 3.35689 2.57046 0
M  V30 11854 H 1114.52 7.78933 2.15149 0
M  V30 11855 H 1118.1 5.41265 2.13363 0
M  V30 11856 H 1116.98 7.60113 1.92867 0
M  V30 11857 N 1114.49 -1.10549 1.12324 0
M  V30 11858 C 1115.73 -1.82755 0.879117 0
M  V30 11859 C 1116.07 -1.84905 -0.593604 0
M  V30 11860 O 1115.34 -1.30884 -1.43873 0
M  V30 11861 C 1115.62 -3.29481 1.45308 0
M  V30 11862 C 1115.48 -3.3567 2.99408 0
M  V30 11863 C 1116.8 -4.25828 1.11167 0
M  V30 11864 H 1113.92 -0.663513 0.32081 0
M  V30 11865 H 1116.56 -1.29572 1.38965 0
M  V30 11866 H 1114.71 -3.74902 1.01887 0
M  V30 11867 H 1116.38 -2.98739 3.515 0
M  V30 11868 H 1114.62 -2.75606 3.34998 0
M  V30 11869 H 1115.29 -4.38983 3.34661 0
M  V30 11870 H 1117.77 -3.88635 1.48667 0
M  V30 11871 H 1116.65 -5.26857 1.53991 0
M  V30 11872 H 1116.91 -4.42094 0.0237046 0
M  V30 11873 N 1115.97 -0.914965 -1.28321 0
M  V30 11874 C 1117.2 -0.563835 -1.98757 0
M  V30 11875 C 1117.6 0.859528 -1.68549 0
M  V30 11876 O 1116.95 1.58105 -0.935336 0
M  V30 11877 C 1117.01 -0.694539 -3.52727 0
M  V30 11878 C 1116.67 -2.08767 -4.06528 0
M  V30 11879 C 1117.67 -3.06052 -4.20272 0
M  V30 11880 C 1115.35 -2.40118 -4.4119 0
M  V30 11881 C 1117.35 -4.32803 -4.67932 0
M  V30 11882 C 1115.04 -3.67108 -4.88544 0
M  V30 11883 C 1116.03 -4.63265 -5.01871 0
M  V30 11884 O 1115.72 -5.87997 -5.48192 0
M  V30 11885 H 1115.45 -0.213557 -0.641381 0
M  V30 11886 H 1118.01 -1.23062 -1.64453 0
M  V30 11887 H 1116.24 0.0293186 -3.86689 0
M  V30 11888 H 1117.93 -0.350335 -4.04385 0
M  V30 11889 H 1118.69 -2.8315 -3.93765 0
M  V30 11890 H 1114.57 -1.66025 -4.30066 0
M  V30 11891 H 1118.12 -5.07861 -4.78249 0
M  V30 11892 H 1114.01 -3.89834 -5.14489 0
M  V30 11893 H 1114.78 -5.90804 -5.66474 0
M  V30 11894 N 1117.44 1.42219 -0.679077 0
M  V30 11895 C 1118.67 2.06333 -0.210097 0
M  V30 11896 C 1119.09 1.50703 1.12562 0
M  V30 11897 O 1118.45 0.627241 1.70104 0
M  V30 11898 C 1118.5 3.60243 -0.160322 0
M  V30 11899 O 1117.6 4.03122 0.869872 0
M  V30 11900 H 1116.94 0.655362 -0.106754 0
M  V30 11901 H 1119.47 1.82278 -0.929294 0
M  V30 11902 H 1119.48 4.07997 0.014384 0
M  V30 11903 H 1118.16 4.00106 -1.13526 0
M  V30 11904 H 1116.74 3.66907 0.66586 0
M  V30 11905 N 1118.92 0.422693 1.51826 0
M  V30 11906 C 1120.17 -0.150066 2.01141 0
M  V30 11907 C 1120.48 -1.45059 1.31214 0
M  V30 11908 O 1121.69 -2.10542 1.71419 0
M  V30 11909 C 1120.15 -0.317985 3.58492 0
M  V30 11910 C 1119.75 0.971244 4.37345 0
M  V30 11911 C 1121.5 -0.845303 4.15999 0
M  V30 11912 C 1119.4 0.769769 5.86369 0
M  V30 11913 H 1118.33 -0.0598567 0.75162 0
M  V30 11914 H 1120.99 0.550217 1.75057 0
M  V30 11915 H 1119.37 -1.08092 3.80962 0
M  V30 11916 H 1120.54 1.74138 4.26629 0
M  V30 11917 H 1118.86 1.42599 3.91222 0
M  V30 11918 H 1121.45 -1.01229 5.2503 0
M  V30 11919 H 1121.8 -1.82375 3.74226 0
M  V30 11920 H 1122.33 -0.141067 3.9755 0
M  V30 11921 H 1119.07 1.72017 6.32527 0
M  V30 11922 H 1118.59 0.0391717 5.99787 0
M  V30 11923 H 1120.27 0.417225 6.45653 0
M  V30 11924 N 1120.4 -1.5685 0.153553 0
M  V30 11925 C 1121.63 -2.00701 -0.502678 0
M  V30 11926 C 1122.04 -1.0337 -1.57988 0
M  V30 11927 O 1121.4 -0.0317233 -1.82472 0
M  V30 11928 C 1121.45 -3.44443 -1.09732 0
M  V30 11929 O 1121.17 -4.38054 -0.0631405 0
M  V30 11930 C 1122.67 -4.03605 -1.83352 0
M  V30 11931 H 1119.89 -0.658229 -0.130289 0
M  V30 11932 H 1122.44 -2.02965 0.250063 0
M  V30 11933 H 1120.59 -3.43009 -1.80065 0
M  V30 11934 H 1121.01 -5.22114 -0.499681 0
M  V30 11935 H 1122.48 -5.0616 -2.20241 0
M  V30 11936 H 1122.96 -3.44687 -2.7219 0
M  V30 11937 H 1123.56 -4.08688 -1.17703 0
M  V30 11938 N 1121.88 0.120221 -1.57141 0
M  V30 11939 C 1123.29 0.677497 -1.73974 0
M  V30 11940 C 1123.64 1.80371 -0.772055 0
M  V30 11941 O 1122.76 2.16329 0.0553062 0
M  V30 11942 C 1123.36 1.23575 -3.1546 0
M  V30 11943 C 1121.92 1.73933 -3.33803 0
M  V30 11944 C 1121.07 0.638542 -2.69848 0
M  V30 11945 H 1124.02 -0.105685 -1.58348 0
M  V30 11946 H 1124.04 2.10542 -3.16942 0
M  V30 11947 H 1123.55 0.415851 -3.85866 0
M  V30 11948 H 1121.65 2.58404 -2.68437 0
M  V30 11949 H 1121.76 1.84961 -4.41957 0
M  V30 11950 H 1120.13 1.07185 -2.31049 0
M  V30 11951 H 1120.91 -0.170356 -3.42877 0
M  V30 11952 N 1123.36 1.52689 0.390367 0
M  V30 11953 C 1124.63 1.58246 1.14968 0
M  V30 11954 C 1125.01 0.374808 2.07746 0
M  V30 11955 O 1124.36 -0.636969 2.19442 0
M  V30 11956 C 1124.57 2.92059 1.91056 0
M  V30 11957 C 1125.92 3.45745 2.46466 0
M  V30 11958 O 1126.94 2.93924 2.01214 0
M  V30 11959 O 1125.8 4.3628 3.29122 0
M  V30 11960 H 1122.9 0.638189 0.52597 0
M  V30 11961 H 1125.44 1.65024 0.39563 0
M  V30 11962 H 1124.21 3.71399 1.23201 0
M  V30 11963 H 1123.84 2.8866 2.73425 0
M  V30 11964 N 1124.83 -0.648732 1.43629 0
M  V30 11965 C 1126.06 -1.44117 1.49148 0
M  V30 11966 C 1126.48 -1.87767 0.111952 0
M  V30 11967 O 1125.84 -1.57655 -0.895249 0
M  V30 11968 C 1125.89 -2.64938 2.44623 0
M  V30 11969 O 1124.99 -3.64155 1.93559 0
M  V30 11970 H 1124.34 -0.431933 0.504312 0
M  V30 11971 H 1126.87 -0.793439 1.88589 0
M  V30 11972 H 1126.88 -3.12698 2.62076 0
M  V30 11973 H 1125.55 -2.3251 3.44836 0
M  V30 11974 H 1124.13 -3.23322 1.85789 0
M  V30 11975 N 1126.31 -1.30234 -0.887518 0
M  V30 11976 C 1127.54 -1.21955 -1.67755 0
M  V30 11977 C 1127.96 0.214701 -1.86871 0
M  V30 11978 O 1127.32 1.15459 -1.39782 0
M  V30 11979 C 1127.37 -1.95079 -3.03276 0
M  V30 11980 O 1126.47 -1.27615 -3.92158 0
M  V30 11981 H 1125.81 -0.421948 -0.512695 0
M  V30 11982 H 1128.34 -1.72011 -1.10785 0
M  V30 11983 H 1128.35 -2.04004 -3.53336 0
M  V30 11984 H 1127.03 -2.99392 -2.88682 0
M  V30 11985 H 1125.61 -1.27029 -3.50597 0
M  V30 11986 N 1127.79 1.09952 -1.12909 0
M  V30 11987 C 1129.04 1.82467 -0.898733 0
M  V30 11988 C 1129.39 1.83788 0.569196 0
M  V30 11989 O 1128.68 1.29117 1.4156 0
M  V30 11990 C 1128.88 3.28252 -1.41369 0
M  V30 11991 C 1128.71 3.41133 -2.93015 0
M  V30 11992 C 1127.48 3.53253 -3.61304 0
M  V30 11993 C 1129.68 3.34118 -3.90986 0
M  V30 11994 N 1127.66 3.54762 -5.01016 0
M  V30 11995 C 1129.03 3.42431 -5.16857 0
M  V30 11996 C 1131.08 3.1775 -3.83327 0
M  V30 11997 C 1129.79 3.36063 -6.35967 0
M  V30 11998 C 1131.81 3.12705 -5.01966 0
M  V30 11999 C 1131.17 3.21605 -6.26697 0
M  V30 12000 H 1127.27 0.682232 -0.382208 0
M  V30 12001 H 1129.86 1.31446 -1.43631 0
M  V30 12002 H 1128.03 3.77755 -0.903097 0
M  V30 12003 H 1129.76 3.88752 -1.12489 0
M  V30 12004 H 1126.52 3.56472 -3.11809 0
M  V30 12005 H 1126.94 3.59115 -5.73904 0
M  V30 12006 H 1131.58 3.09742 -2.87784 0
M  V30 12007 H 1129.3 3.42835 -7.31772 0
M  V30 12008 H 1132.89 3.01183 -4.97775 0
M  V30 12009 H 1131.77 3.1771 -7.16959 0
M  V30 12010 N 1129.27 0.921757 1.27833 0
M  V30 12011 C 1130.22 0.414838 2.27041 0
M  V30 12012 C 1131.19 -0.515045 1.57913 0
M  V30 12013 O 1132.37 -0.435499 1.85763 0
M  V30 12014 C 1129.51 -0.331744 3.43502 0
M  V30 12015 C 1128.62 0.631565 4.27358 0
M  V30 12016 C 1127.76 -0.134265 5.3103 0
M  V30 12017 C 1126.8 0.822138 6.06554 0
M  V30 12018 N 1125.93 0.0893149 7.02043 0
M  V30 12019 H 1130.77 1.26585 2.69778 0
M  V30 12020 H 1128.31 0.635488 1.32665 0
M  V30 12021 H 1130.27 -0.780866 4.09827 0
M  V30 12022 H 1128.9 -1.14704 3.01733 0
M  V30 12023 H 1127.95 1.19922 3.61003 0
M  V30 12024 H 1129.26 1.36274 4.79824 0
M  V30 12025 H 1128.42 -0.643579 6.03277 0
M  V30 12026 H 1127.16 -0.898443 4.79353 0
M  V30 12027 H 1126.16 1.34275 5.33151 0
M  V30 12028 H 1127.39 1.586 6.6032 0
M  V30 12029 H 1125.33 -0.656725 6.52704 0
M  V30 12030 H 1125.25 0.760167 7.52169 0
M  V30 12031 H 1126.52 -0.399541 7.78475 0
M  V30 12032 N 1130.75 -1.41857 0.686609 0
M  V30 12033 C 1131.97 -2.05699 0.222561 0
M  V30 12034 C 1132.39 -1.51636 -1.12481 0
M  V30 12035 O 1131.75 -0.660925 -1.70112 0
M  V30 12036 C 1131.8 -3.61138 0.161818 0
M  V30 12037 O 1131.52 -4.13199 1.45596 0
M  V30 12038 C 1133.02 -4.42112 -0.324304 0
M  V30 12039 H 1130.24 -0.662665 0.10543 0
M  V30 12040 H 1132.78 -1.81788 0.936671 0
M  V30 12041 H 1130.94 -3.8412 -0.503056 0
M  V30 12042 H 1131.35 -5.0717 1.33712 0
M  V30 12043 H 1132.83 -5.51097 -0.315694 0
M  V30 12044 H 1133.3 -4.1756 -1.36164 0
M  V30 12045 H 1133.91 -4.24174 0.309251 0
M  V30 12046 N 1132.22 -0.430739 -1.51599 0
M  V30 12047 C 1133.47 0.139396 -2.01218 0
M  V30 12048 C 1133.79 1.44361 -1.31982 0
M  V30 12049 O 1134.99 2.0963 -1.72533 0
M  V30 12050 C 1133.45 0.298969 -3.58656 0
M  V30 12051 C 1133.06 -0.994424 -4.36824 0
M  V30 12052 C 1134.8 0.82323 -4.16441 0
M  V30 12053 C 1132.71 -0.800855 -5.85952 0
M  V30 12054 H 1131.64 0.0558698 -0.751927 0
M  V30 12055 H 1134.29 -0.559493 -1.74762 0
M  V30 12056 H 1132.67 1.06071 -3.8153 0
M  V30 12057 H 1133.84 -1.76398 -4.257 0
M  V30 12058 H 1132.16 -1.44672 -3.9046 0
M  V30 12059 H 1134.76 0.984434 -5.2556 0
M  V30 12060 H 1135.1 1.80388 -3.75188 0
M  V30 12061 H 1135.63 0.119982 -3.97619 0
M  V30 12062 H 1132.37 -1.75369 -6.31606 0
M  V30 12063 H 1131.89 -0.0709793 -5.99758 0
M  V30 12064 H 1133.57 -0.451459 -6.45423 0
M  V30 12065 N 1133.7 1.56767 -0.161869 0
M  V30 12066 C 1134.61 2.21083 0.784814 0
M  V30 12067 C 1135.63 1.19959 1.26039 0
M  V30 12068 O 1136.8 1.52588 1.31449 0
M  V30 12069 C 1133.87 2.83153 2.00063 0
M  V30 12070 C 1132.93 3.9945 1.57285 0
M  V30 12071 C 1132.16 4.5855 2.7307 0
M  V30 12072 O 1132.39 4.16534 3.89686 0
M  V30 12073 O 1131.32 5.48575 2.47688 0
M  V30 12074 H 1135.15 3.02522 0.267243 0
M  V30 12075 H 1132.73 1.49255 0.0658783 0
M  V30 12076 H 1134.61 3.22546 2.71186 0
M  V30 12077 H 1133.29 2.04718 2.50744 0
M  V30 12078 H 1132.2 3.64745 0.831393 0
M  V30 12079 H 1133.53 4.7945 1.11304 0
M  V30 12080 N 1135.18 -0.111886 1.57202 0
M  V30 12081 C 1136.43 -0.817022 1.84412 0
M  V30 12082 C 1136.74 -1.80708 0.748608 0
M  V30 12083 O 1137.95 -2.55891 0.907319 0
M  V30 12084 C 1136.4 -1.50376 3.26979 0
M  V30 12085 C 1136.01 -0.554334 4.44557 0
M  V30 12086 C 1137.76 -2.19361 3.63429 0
M  V30 12087 C 1135.66 -1.24471 5.78153 0
M  V30 12088 H 1134.59 -0.308864 0.687836 0
M  V30 12089 H 1137.24 -0.0698109 1.83367 0
M  V30 12090 H 1135.63 -2.29785 3.22514 0
M  V30 12091 H 1136.8 0.207045 4.60335 0
M  V30 12092 H 1135.12 0.0289261 4.1639 0
M  V30 12093 H 1137.71 -2.71716 4.60515 0
M  V30 12094 H 1138.06 -2.97488 2.91215 0
M  V30 12095 H 1138.59 -1.46833 3.69709 0
M  V30 12096 H 1135.33 -0.504584 6.53555 0
M  V30 12097 H 1134.85 -1.97792 5.66249 0
M  V30 12098 H 1136.53 -1.77591 6.2215 0
M  V30 12099 N 1136.66 -1.52894 -0.382264 0
M  V30 12100 C 1138.07 -1.60135 -0.959887 0
M  V30 12101 C 1138.42 -0.458363 -1.90771 0
M  V30 12102 O 1137.55 0.417614 -2.12332 0
M  V30 12103 C 1138.14 -2.90243 -1.74769 0
M  V30 12104 C 1136.7 -2.99874 -2.27491 0
M  V30 12105 C 1135.85 -2.55302 -1.0824 0
M  V30 12106 H 1138.8 -1.57875 -0.161589 0
M  V30 12107 H 1138.82 -2.77108 -2.60751 0
M  V30 12108 H 1138.33 -3.73412 -1.0576 0
M  V30 12109 H 1136.43 -2.21258 -2.99793 0
M  V30 12110 H 1136.54 -4.04643 -2.56516 0
M  V30 12111 H 1134.91 -2.09781 -1.44444 0
M  V30 12112 H 1135.69 -3.40872 -0.407553 0
M  V30 12113 N 1138.14 0.641106 -1.43971 0
M  V30 12114 C 1139.38 1.40084 -1.46228 0
M  V30 12115 C 1139.71 1.94287 -0.0911011 0
M  V30 12116 O 1138.97 1.73481 0.905688 0
M  V30 12117 C 1139.27 2.59092 -2.46183 0
M  V30 12118 C 1138.93 2.23237 -3.9176 0
M  V30 12119 C 1137.59 2.13171 -4.31407 0
M  V30 12120 C 1139.95 1.94746 -4.83449 0
M  V30 12121 C 1137.27 1.72788 -5.60679 0
M  V30 12122 C 1139.63 1.55858 -6.13099 0
M  V30 12123 C 1138.29 1.44326 -6.5171 0
M  V30 12124 H 1137.56 0.512603 -0.535088 0
M  V30 12125 H 1140.21 0.727956 -1.77124 0
M  V30 12126 H 1138.51 3.31568 -2.08734 0
M  V30 12127 H 1140.21 3.17313 -2.4518 0
M  V30 12128 H 1136.8 2.31986 -3.60389 0
M  V30 12129 H 1140.98 2.01438 -4.53582 0
M  V30 12130 H 1136.24 1.62455 -5.89422 0
M  V30 12131 H 1140.41 1.32848 -6.83611 0
M  V30 12132 H 1138.04 1.12806 -7.51784 0
M  V30 12133 N 1139.62 1.30703 0.880598 0
M  V30 12134 C 1140.84 1.22843 1.67106 0
M  V30 12135 C 1141.27 -0.204788 1.86982 0
M  V30 12136 O 1140.62 -1.14716 1.40392 0
M  V30 12137 C 1140.67 1.96685 3.02237 0
M  V30 12138 O 1139.78 1.29693 3.91476 0
M  V30 12139 H 1139.12 0.424661 0.51045 0
M  V30 12140 H 1141.65 1.72596 1.09871 0
M  V30 12141 H 1141.66 2.05874 3.52249 0
M  V30 12142 H 1140.33 3.00919 2.8709 0
M  V30 12143 H 1138.91 1.28886 3.49918 0
M  V30 12144 N 1141.09 -1.09351 1.1349 0
M  V30 12145 C 1142.32 -1.85844 0.92069 0
M  V30 12146 C 1142.74 -1.80616 -0.525303 0
M  V30 12147 O 1142.1 -1.1842 -1.37282 0
M  V30 12148 C 1142.15 -3.31716 1.4141 0
M  V30 12149 O 1141.25 -4.08014 0.599838 0
M  V30 12150 H 1140.59 -0.576242 0.32991 0
M  V30 12151 H 1143.12 -1.38084 1.50976 0
M  V30 12152 H 1143.13 -3.82564 1.41805 0
M  V30 12153 H 1141.81 -3.34837 2.46692 0
M  V30 12154 H 1140.39 -3.66944 0.663816 0
M  V30 12155 N 1142.57 -0.928524 -1.27343 0
M  V30 12156 C 1143.82 -0.569392 -1.9433 0
M  V30 12157 C 1144.15 0.889481 -1.7297 0
M  V30 12158 O 1143.4 1.6499 -1.05247 0
M  V30 12159 C 1143.7 -0.84269 -3.47323 0
M  V30 12160 C 1143.37 -2.28344 -3.88806 0
M  V30 12161 C 1142.03 -2.67731 -3.99842 0
M  V30 12162 C 1144.38 -3.22031 -4.09811 0
M  V30 12163 C 1141.71 -3.99928 -4.29272 0
M  V30 12164 C 1144.06 -4.5381 -4.40725 0
M  V30 12165 C 1142.72 -4.93031 -4.49975 0
M  V30 12166 H 1141.99 -0.208355 -0.711104 0
M  V30 12167 H 1144.64 -1.17264 -1.51398 0
M  V30 12168 H 1142.95 -0.156775 -3.91486 0
M  V30 12169 H 1144.64 -0.543779 -3.97296 0
M  V30 12170 H 1141.23 -1.96787 -3.80753 0
M  V30 12171 H 1145.42 -2.92803 -4.00724 0
M  V30 12172 H 1140.67 -4.29996 -4.34642 0
M  V30 12173 H 1144.85 -5.26407 -4.55926 0
M  V30 12174 H 1142.47 -5.95497 -4.72533 0
M  V30 12175 N 1144.05 1.41491 -0.694123 0
M  V30 12176 C 1145.47 1.55358 -0.365532 0
M  V30 12177 C 1145.67 1.66994 1.12762 0
M  V30 12178 O 1144.72 1.64756 1.91342 0
M  V30 12179 C 1146.03 2.79352 -1.11279 0
M  V30 12180 C 1147.58 2.93147 -1.097 0
M  V30 12181 C 1148.06 4.20027 -1.82597 0
M  V30 12182 N 1149.55 4.26981 -1.7956 0
M  V30 12183 C 1150.28 5.24013 -2.32805 0
M  V30 12184 N 1149.78 6.27083 -2.94515 0
M  V30 12185 N 1151.57 5.15943 -2.23069 0
M  V30 12186 H 1143.72 1.32183 -1.66257 0
M  V30 12187 H 1145.99 0.637624 -0.701527 0
M  V30 12188 H 1145.69 2.76958 -2.16765 0
M  V30 12189 H 1145.57 3.70827 -0.690439 0
M  V30 12190 H 1147.95 2.95057 -0.0504037 0
M  V30 12191 H 1148.03 2.02849 -1.55839 0
M  V30 12192 H 1147.68 4.18878 -2.87235 0
M  V30 12193 H 1147.61 5.09294 -1.33893 0
M  V30 12194 H 1150.1 3.53129 -1.34567 0
M  V30 12195 H 1150.41 6.97511 -3.32714 0
M  V30 12196 H 1148.76 6.27589 -2.98592 0
M  V30 12197 H 1151.95 4.34346 -1.74532 0
M  V30 12198 H 1152.12 5.91396 -2.64868 0
M  V30 12199 N 1145.53 0.438773 1.51369 0
M  V30 12200 C 1146.94 0.0911416 1.5934 0
M  V30 12201 C 1147.14 -1.39962 1.44958 0
M  V30 12202 O 1146.2 -2.16968 1.29155 0
M  V30 12203 C 1147.51 0.612531 2.94395 0
M  V30 12204 C 1149.06 0.573098 3.07709 0
M  V30 12205 C 1149.54 1.07149 4.4529 0
M  V30 12206 N 1151.03 1.02953 4.51614 0
M  V30 12207 C 1151.76 1.38602 5.56397 0
M  V30 12208 N 1151.26 1.81543 6.68591 0
M  V30 12209 N 1153.05 1.30409 5.46763 0
M  V30 12210 H 1145.2 1.40872 1.58962 0
M  V30 12211 H 1147.46 0.580589 0.749414 0
M  V30 12212 H 1147.17 1.65562 3.10294 0
M  V30 12213 H 1147.04 0.0382375 3.77181 0
M  V30 12214 H 1149.43 -0.461006 2.91477 0
M  V30 12215 H 1149.51 1.18381 2.26759 0
M  V30 12216 H 1149.16 2.10406 4.62268 0
M  V30 12217 H 1149.09 0.437297 5.24781 0
M  V30 12218 H 1151.58 0.714208 3.7109 0
M  V30 12219 H 1151.89 2.06977 7.44567 0
M  V30 12220 H 1150.24 1.8547 6.69795 0
M  V30 12221 H 1153.43 0.967272 4.57997 0
M  V30 12222 H 1153.6 1.5852 6.28312 0
M  V30 12223 N 1147.01 -1.56678 0.170181 0
M  V30 12224 C 1148.42 -1.58512 -0.185999 0
M  V30 12225 C 1148.62 -1.18548 -1.62937 0
M  V30 12226 O 1147.68 -0.896554 -2.36047 0
M  V30 12227 C 1148.99 -3.00554 0.0937842 0
M  V30 12228 C 1150.54 -3.12984 0.0319057 0
M  V30 12229 C 1151.01 -4.57115 0.284664 0
M  V30 12230 N 1152.5 -4.62617 0.2324 0
M  V30 12231 C 1153.24 -5.71988 0.40216 0
M  V30 12232 N 1152.74 -6.89921 0.630915 0
M  V30 12233 N 1154.53 -5.61082 0.338144 0
M  V30 12234 H 1146.68 -1.80944 1.11235 0
M  V30 12235 H 1148.94 -0.838586 0.442128 0
M  V30 12236 H 1148.65 -3.34265 1.09362 0
M  V30 12237 H 1148.52 -3.72151 -0.615118 0
M  V30 12238 H 1150.91 -2.791 -0.958502 0
M  V30 12239 H 1150.99 -2.43825 0.773501 0
M  V30 12240 H 1150.63 -4.91707 1.27227 0
M  V30 12241 H 1150.56 -5.2443 -0.477529 0
M  V30 12242 H 1153.06 -3.7785 0.0611933 0
M  V30 12243 H 1153.37 -7.69153 0.749931 0
M  V30 12244 H 1151.71 -6.91787 0.667516 0
M  V30 12245 H 1154.9 -4.67826 0.16003 0
M  V30 12246 H 1155.08 -6.46265 0.473872 0
M  V30 12247 N 1148.48 0.103547 -1.57259 0
M  V30 12248 C 1149.41 1.12714 -2.04494 0
M  V30 12249 C 1150.39 1.42278 -0.932255 0
M  V30 12250 O 1151.58 1.52453 -1.20298 0
M  V30 12251 C 1148.71 2.44927 -2.46228 0
M  V30 12252 C 1147.66 2.2979 -3.61082 0
M  V30 12253 C 1146.99 3.67105 -3.88765 0
M  V30 12254 C 1148.29 1.7455 -4.9227 0
M  V30 12255 H 1149.98 0.734198 -2.90258 0
M  V30 12256 H 1147.53 0.351725 -1.39638 0
M  V30 12257 H 1149.48 3.16798 -2.77879 0
M  V30 12258 H 1148.21 2.8614 -1.57453 0
M  V30 12259 H 1146.87 1.60366 -3.29664 0
M  V30 12260 H 1146.51 4.05831 -2.97171 0
M  V30 12261 H 1146.21 3.57825 -4.66084 0
M  V30 12262 H 1147.74 4.40456 -4.22884 0
M  V30 12263 H 1149.15 2.36253 -5.22358 0
M  V30 12264 H 1147.55 1.76051 -5.73695 0
M  V30 12265 H 1148.62 0.704242 -4.79759 0
M  V30 12266 N 1149.96 1.53094 0.37415 0
M  V30 12267 C 1151.24 1.59456 1.13283 0
M  V30 12268 C 1151.62 0.396821 2.07337 0
M  V30 12269 O 1150.97 -0.613659 2.20106 0
M  V30 12270 C 1151.18 2.94069 1.87948 0
M  V30 12271 C 1152.52 3.4834 2.42785 0
M  V30 12272 O 1153.55 2.96042 1.98085 0
M  V30 12273 O 1152.41 4.39747 3.24477 0
M  V30 12274 H 1149.5 0.643731 0.519171 0
M  V30 12275 H 1152.05 1.65434 0.378105 0
M  V30 12276 H 1150.82 3.72685 1.19255 0
M  V30 12277 H 1150.44 2.91544 2.70348 0
M  V30 12278 N 1151.44 -0.633461 1.44309 0
M  V30 12279 C 1152.67 -1.41827 1.50229 0
M  V30 12280 C 1153.08 -1.88786 0.125082 0
M  V30 12281 O 1152.42 -1.61314 -0.878836 0
M  V30 12282 C 1152.48 -2.67372 2.40317 0
M  V30 12283 C 1152.15 -2.42224 3.87526 0
M  V30 12284 C 1153.14 -2.04199 4.7812 0
M  V30 12285 C 1150.83 -2.55936 4.32206 0
M  V30 12286 C 1152.82 -1.80211 6.11394 0
M  V30 12287 C 1150.51 -2.31563 5.65528 0
M  V30 12288 C 1151.51 -1.93758 6.5494 0
M  V30 12289 O 1151.2 -1.69654 7.85794 0
M  V30 12290 H 1150.93 -0.441478 0.51193 0
M  V30 12291 H 1153.48 -0.782118 1.89927 0
M  V30 12292 H 1151.71 -3.33616 1.95543 0
M  V30 12293 H 1153.4 -3.2937 2.37214 0
M  V30 12294 H 1154.17 -1.93164 4.44874 0
M  V30 12295 H 1150.05 -2.84333 3.62872 0
M  V30 12296 H 1153.59 -1.50628 6.81144 0
M  V30 12297 H 1149.49 -2.42206 5.98336 0
M  V30 12298 H 1150.25 -1.83919 7.97569 0
M  V30 12299 N 1152.92 -1.31168 -0.873655 0
M  V30 12300 C 1153.85 -1.14325 -1.98651 0
M  V30 12301 C 1154.86 -0.0833421 -1.62587 0
M  V30 12302 O 1156.05 -0.330477 -1.75414 0
M  V30 12303 C 1153.15 -0.723747 -3.31082 0
M  V30 12304 C 1152.33 -1.86787 -3.95512 0
M  V30 12305 C 1151.38 -1.43503 -5.06254 0
M  V30 12306 O 1150.41 -2.14409 -5.27273 0
M  V30 12307 N 1151.61 -0.320362 -5.79615 0
M  V30 12308 H 1154.38 -2.10179 -2.13647 0
M  V30 12309 H 1151.94 -1.23454 -1.04742 0
M  V30 12310 H 1153.93 -0.416971 -4.02546 0
M  V30 12311 H 1152.5 0.143073 -3.12272 0
M  V30 12312 H 1151.72 -2.34216 -3.17075 0
M  V30 12313 H 1153.01 -2.6343 -4.35296 0
M  V30 12314 H 1152.41 0.270215 -5.65054 0
M  V30 12315 H 1150.96 -0.0731 -6.51759 0
M  V30 12316 N 1154.4 1.08748 -1.14068 0
M  V30 12317 C 1155.81 1.62551 -0.918379 0
M  V30 12318 C 1156.16 1.8852 0.543583 0
M  V30 12319 O 1155.28 1.64007 1.41176 0
M  V30 12320 C 1155.88 2.95309 -1.66066 0
M  V30 12321 C 1154.44 3.4591 -1.48403 0
M  V30 12322 C 1153.58 2.20204 -1.6854 0
M  V30 12323 H 1156.54 0.920196 -1.29298 0
M  V30 12324 H 1156.56 3.63587 -1.12181 0
M  V30 12325 H 1156.07 2.76377 -2.72465 0
M  V30 12326 H 1154.17 3.69953 -0.443353 0
M  V30 12327 H 1154.28 4.2289 -2.25169 0
M  V30 12328 H 1152.65 2.29203 -1.11077 0
M  V30 12329 H 1153.43 2.03783 -2.76274 0
M  V30 12330 N 1155.87 0.935264 1.26849 0
M  V30 12331 C 1157.29 0.623198 1.75992 0
M  V30 12332 C 1157.64 -0.861647 1.76267 0
M  V30 12333 O 1156.76 -1.6743 1.37099 0
M  V30 12334 C 1157.36 1.12451 3.19594 0
M  V30 12335 C 1155.92 0.862974 3.66374 0
M  V30 12336 C 1155.06 1.27886 2.4605 0
M  V30 12337 H 1158.01 1.11422 1.13008 0
M  V30 12338 H 1158.03 0.475626 3.77516 0
M  V30 12339 H 1157.55 2.20522 3.19361 0
M  V30 12340 H 1155.65 -0.203606 3.72043 0
M  V30 12341 H 1155.76 1.48582 4.55478 0
M  V30 12342 H 1154.12 0.697335 2.44968 0
M  V30 12343 H 1154.91 2.36837 2.48522 0
M  V30 12344 N 1157.35 -1.41121 0.701616 0
M  V30 12345 C 1158.6 -2.00733 0.234682 0
M  V30 12346 C 1158.92 -1.55869 -1.17174 0
M  V30 12347 O 1158.19 -0.791965 -1.79178 0
M  V30 12348 H 1156.77 -0.742288 0.0837745 0
M  V30 12349 H 1159.43 -1.7266 0.904127 0
M  V30 12350 H 1158.53 -3.11041 0.256831 0
M  V30 12351 N 1158.83 -0.446794 -1.51134 0
M  V30 12352 C 1159.76 0.395804 -2.25757 0
M  V30 12353 C 1160.78 0.978178 -1.30137 0
M  V30 12354 O 1161.96 0.87071 -1.55823 0
M  V30 12355 C 1159.06 1.56665 -3.00515 0
M  V30 12356 C 1158.24 1.10146 -4.23305 0
M  V30 12357 C 1157.3 2.14352 -4.80562 0
M  V30 12358 O 1156.32 1.73401 -5.42145 0
M  V30 12359 N 1157.52 3.46932 -4.65423 0
M  V30 12360 H 1160.29 -0.243808 -2.98707 0
M  V30 12361 H 1157.85 -0.276205 -1.59527 0
M  V30 12362 H 1159.84 2.26019 -3.35704 0
M  V30 12363 H 1158.41 2.11142 -2.30516 0
M  V30 12364 H 1157.63 0.234644 -3.93501 0
M  V30 12365 H 1158.92 0.768185 -5.02968 0
M  V30 12366 H 1158.32 3.82929 -4.16391 0
M  V30 12367 H 1156.88 4.12154 -5.04948 0
M  V30 12368 N 1160.31 1.56586 -0.178487 0
M  V30 12369 C 1161.59 1.88798 0.511356 0
M  V30 12370 C 1161.97 1.08949 1.80813 0
M  V30 12371 O 1161.31 0.185551 2.27745 0
M  V30 12372 C 1161.52 3.40927 0.746298 0
M  V30 12373 C 1162.87 4.10816 1.0731 0
M  V30 12374 O 1163.9 3.46285 0.834592 0
M  V30 12375 O 1162.75 5.24837 1.52343 0
M  V30 12376 H 1159.85 0.783574 0.264463 0
M  V30 12377 H 1162.39 1.68301 -0.21746 0
M  V30 12378 H 1161.17 3.9093 -0.17015 0
M  V30 12379 H 1160.79 3.67059 1.52817 0
M  V30 12380 N 1161.79 -0.095206 1.57312 0
M  V30 12381 C 1162.72 -1.14662 1.97301 0
M  V30 12382 C 1163.7 -1.38845 0.846212 0
M  V30 12383 O 1164.88 -1.52607 1.1065 0
M  V30 12384 C 1162.01 -2.49582 2.28968 0
M  V30 12385 C 1161.05 -2.41681 3.51415 0
M  V30 12386 S 1161.89 -1.83343 5.03136 0
M  V30 12387 C 1163.04 -3.19888 5.3798 0
M  V30 12388 H 1163.28 -0.805726 2.86174 0
M  V30 12389 H 1160.81 -0.302881 1.514 0
M  V30 12390 H 1162.77 -3.27202 2.47889 0
M  V30 12391 H 1161.43 -2.80841 1.40667 0
M  V30 12392 H 1160.62 -3.41122 3.71015 0
M  V30 12393 H 1160.22 -1.7219 3.32004 0
M  V30 12394 H 1162.52 -4.16161 5.34618 0
M  V30 12395 H 1163.46 -3.05093 6.39002 0
M  V30 12396 H 1163.87 -3.19414 4.6544 0
M  V30 12397 N 1163.26 -1.53291 -0.366026 0
M  V30 12398 C 1164.49 -1.73665 -1.13381 0
M  V30 12399 C 1164.91 -0.464284 -1.8228 0
M  V30 12400 O 1164.27 0.581645 -1.71717 0
M  V30 12401 C 1164.32 -2.90225 -2.14013 0
M  V30 12402 O 1163.42 -2.58803 -3.21084 0
M  V30 12403 H 1162.77 -0.576762 -0.329 0
M  V30 12404 H 1165.3 -2.00174 -0.423287 0
M  V30 12405 H 1165.31 -3.16378 -2.57622 0
M  V30 12406 H 1163.98 -3.82518 -1.63257 0
M  V30 12407 H 1162.56 -2.43466 -2.82451 0
M  V30 12408 N 1164.74 0.6258 -1.44643 0
M  V30 12409 C 1165.99 1.38251 -1.47414 0
M  V30 12410 C 1166.31 1.94689 -0.110043 0
M  V30 12411 O 1165.58 1.76095 0.858333 0
M  V30 12412 H 1164.16 0.513179 -0.542823 0
M  V30 12413 H 1166.82 0.736179 -1.80462 0
M  V30 12414 H 1165.92 2.21115 -2.2026 0
M  V30 12415 N 1166.22 1.31629 0.866686 0
M  V30 12416 C 1167.45 1.24474 1.65269 0
M  V30 12417 C 1167.86 -0.18939 1.87848 0
M  V30 12418 O 1167.22 -1.12251 1.43895 0
M  V30 12419 C 1167.27 1.98872 3.01881 0
M  V30 12420 O 1166.99 3.36687 2.8031 0
M  V30 12421 C 1168.49 1.98595 3.96327 0
M  V30 12422 H 1165.71 0.429966 0.515141 0
M  V30 12423 H 1168.26 1.73559 1.08156 0
M  V30 12424 H 1166.41 1.53539 3.55675 0
M  V30 12425 H 1166.83 3.74612 3.67105 0
M  V30 12426 H 1168.3 2.55156 4.89489 0
M  V30 12427 H 1168.78 0.969257 4.28371 0
M  V30 12428 H 1169.38 2.43821 3.4847 0
M  V30 12429 N 1167.7 -1.08142 1.14644 0
M  V30 12430 C 1168.63 -2.17139 0.858667 0
M  V30 12431 C 1169.61 -1.69064 -0.187452 0
M  V30 12432 O 1170.8 -1.94151 -0.0435458 0
M  V30 12433 C 1167.93 -3.45648 0.33834 0
M  V30 12434 C 1166.88 -4.07129 1.32021 0
M  V30 12435 C 1166.21 -5.30623 0.659075 0
M  V30 12436 C 1167.51 -4.48095 2.68343 0
M  V30 12437 H 1169.2 -2.41468 1.77012 0
M  V30 12438 H 1166.75 -1.16052 0.852523 0
M  V30 12439 H 1168.7 -4.21216 0.124611 0
M  V30 12440 H 1167.42 -3.2088 -0.608553 0
M  V30 12441 H 1166.08 -3.33596 1.52016 0
M  V30 12442 H 1165.73 -5.02142 -0.293711 0
M  V30 12443 H 1165.43 -5.72714 1.31427 0
M  V30 12444 H 1166.95 -6.08903 0.454933 0
M  V30 12445 H 1168.37 -5.14828 2.5224 0
M  V30 12446 H 1166.76 -5.01113 3.30161 0
M  V30 12447 H 1167.83 -3.59852 3.25015 0
M  V30 12448 N 1169.18 -0.941978 -1.26351 0
M  V30 12449 C 1170.45 -0.507822 -1.88893 0
M  V30 12450 C 1170.83 1.0146 -1.85119 0
M  V30 12451 O 1170.18 1.87495 -1.30606 0
M  V30 12452 C 1170.39 -1.07007 -3.3219 0
M  V30 12453 C 1171.74 -1.13922 -4.09032 0
M  V30 12454 O 1172.76 -1.02072 -3.41262 0
M  V30 12455 O 1171.62 -1.32362 -5.30229 0
M  V30 12456 H 1168.72 -0.165621 -0.810246 0
M  V30 12457 H 1171.26 -1.03459 -1.34515 0
M  V30 12458 H 1170.04 -2.11366 -3.29302 0
M  V30 12459 H 1169.66 -0.525797 -3.94108 0
M  V30 12460 N 1170.66 1.40747 -0.709091 0
M  V30 12461 C 1171.59 2.33404 -0.0669763 0
M  V30 12462 C 1172.57 1.52546 0.752582 0
M  V30 12463 O 1173.75 1.81036 0.702823 0
M  V30 12464 C 1170.88 3.36476 0.860285 0
M  V30 12465 C 1169.84 4.27748 0.146828 0
M  V30 12466 C 1169.16 5.21304 1.18937 0
M  V30 12467 C 1170.46 5.12734 -0.995064 0
M  V30 12468 H 1172.16 2.87349 -0.840888 0
M  V30 12469 H 1169.7 1.38163 -0.405817 0
M  V30 12470 H 1171.65 4.00231 1.31883 0
M  V30 12471 H 1170.38 2.80912 1.66602 0
M  V30 12472 H 1169.04 3.65437 -0.291826 0
M  V30 12473 H 1168.69 4.62048 1.98798 0
M  V30 12474 H 1168.39 5.8321 0.716917 0
M  V30 12475 H 1169.91 5.87936 1.64815 0
M  V30 12476 H 1171.32 5.69979 -0.61618 0
M  V30 12477 H 1169.72 5.83649 -1.39547 0
M  V30 12478 H 1170.79 4.49097 -1.82867 0
M  V30 12479 N 1172.13 0.454803 1.50895 0
M  V30 12480 C 1173.41 -0.166559 1.9489 0
M  V30 12481 C 1173.79 -1.58492 1.3944 0
M  V30 12482 O 1173.14 -2.20788 0.588622 0
M  V30 12483 C 1173.35 -0.126506 3.48771 0
M  V30 12484 C 1174.7 -0.32347 4.23366 0
M  V30 12485 O 1175.72 -0.203835 3.55616 0
M  V30 12486 O 1174.58 -0.563292 5.43589 0
M  V30 12487 H 1171.67 -0.120523 0.818171 0
M  V30 12488 H 1174.22 0.514037 1.61727 0
M  V30 12489 H 1172.99 0.864407 3.81633 0
M  V30 12490 H 1172.61 -0.849264 3.88424 0
M  V30 12491 N 1173.61 -1.56489 0.186789 0
M  V30 12492 C 1174.56 -2.20034 -0.754164 0
M  V30 12493 C 1175.55 -1.16899 -1.22601 0
M  V30 12494 O 1176.76 -1.35064 -1.18987 0
M  V30 12495 H 1173.13 -0.705058 -0.261529 0
M  V30 12496 H 1175.11 -2.97766 -0.194418 0
M  V30 12497 C 1173.85 -2.86733 -1.9667 0
M  V30 12498 H 1173.18 -3.65831 -1.61268 0
M  V30 12499 H 1174.62 -3.34645 -2.60363 0
M  V30 12500 C 1173.08 -1.87325 -2.8002 0
M  V30 12501 O 1173.61 -1.36835 -3.77676 0
M  V30 12502 N 1171.81 -1.55738 -2.45345 0
M  V30 12503 H 1171.36 -1.9699 -1.6599 0
M  V30 12504 H 1171.32 -0.894805 -3.01398 0
M  V30 12505 N 1175.09 0.086862 -1.5736 0
M  V30 12506 C 1176.34 0.787581 -1.85688 0
M  V30 12507 C 1176.65 1.79494 -0.777263 0
M  V30 12508 O 1177.86 2.54415 -0.947914 0
M  V30 12509 C 1176.31 1.45155 -3.2933 0
M  V30 12510 C 1175.92 0.483539 -4.45383 0
M  V30 12511 C 1177.67 2.13552 -3.66873 0
M  V30 12512 C 1175.57 1.15257 -5.8006 0
M  V30 12513 H 1174.5 0.297882 -0.692663 0
M  V30 12514 H 1177.15 0.0406299 -1.83455 0
M  V30 12515 H 1175.54 2.24625 -3.26128 0
M  V30 12516 H 1176.71 -0.280254 -4.59947 0
M  V30 12517 H 1175.02 -0.0951664 -4.16291 0
M  V30 12518 H 1177.62 2.64355 -4.6478 0
M  V30 12519 H 1177.96 2.92818 -2.95911 0
M  V30 12520 H 1178.5 1.40932 -3.71999 0
M  V30 12521 H 1175.24 0.400546 -6.54275 0
M  V30 12522 H 1174.76 1.88759 -5.69324 0
M  V30 12523 H 1176.44 1.67671 -6.24896 0
M  V30 12524 N 1176.57 1.53483 0.357892 0
M  V30 12525 C 1177.84 1.60649 1.11585 0
M  V30 12526 C 1178.22 0.418789 2.06904 0
M  V30 12527 O 1177.57 -0.590279 2.20744 0
M  V30 12528 C 1177.78 2.96046 1.84818 0
M  V30 12529 C 1179.13 3.50895 2.39076 0
M  V30 12530 O 1180.15 2.98126 1.94934 0
M  V30 12531 O 1179.01 4.43163 3.19794 0
M  V30 12532 H 1176.11 0.649202 0.512315 0
M  V30 12533 H 1178.65 1.65826 0.360537 0
M  V30 12534 H 1177.43 3.73929 1.15296 0
M  V30 12535 H 1177.05 2.94395 2.6724 0
M  V30 12536 N 1178.05 -0.61812 1.44973 0
M  V30 12537 C 1179.27 -1.40921 1.52171 0
M  V30 12538 C 1179.7 -1.87487 0.151755 0
M  V30 12539 O 1179.05 -1.59518 -0.861606 0
M  V30 12540 C 1179.1 -2.59689 2.50188 0
M  V30 12541 O 1178.21 -3.59967 2.0124 0
M  V30 12542 H 1177.55 -0.421138 0.51336 0
M  V30 12543 H 1180.08 -0.753258 1.90229 0
M  V30 12544 H 1180.09 -3.07069 2.6865 0
M  V30 12545 H 1178.76 -2.25144 3.4969 0
M  V30 12546 H 1177.34 -3.19308 1.92605 0
M  V30 12547 N 1179.52 -1.32087 -0.859693 0
M  V30 12548 C 1180.77 -1.21716 -1.60836 0
M  V30 12549 C 1181.09 0.220904 -1.94349 0
M  V30 12550 O 1182.29 0.446422 -2.67805 0
M  V30 12551 C 1180.75 -2.13143 -2.89997 0
M  V30 12552 C 1180.36 -3.62003 -2.63928 0
M  V30 12553 C 1182.1 -2.11596 -3.68004 0
M  V30 12554 C 1180.01 -4.45407 -3.89059 0
M  V30 12555 H 1178.94 -0.45199 -0.603507 0
M  V30 12556 H 1181.59 -1.57013 -0.949687 0
M  V30 12557 H 1179.97 -1.70755 -3.57294 0
M  V30 12558 H 1181.14 -4.12701 -2.04974 0
M  V30 12559 H 1179.46 -3.6563 -1.99258 0
M  V30 12560 H 1182.06 -2.71149 -4.6085 0
M  V30 12561 H 1182.4 -1.10568 -4.01348 0
M  V30 12562 H 1182.93 -2.52238 -3.07605 0
M  V30 12563 H 1179.67 -5.4723 -3.60859 0
M  V30 12564 H 1179.19 -3.99462 -4.47427 0
M  V30 12565 H 1180.87 -4.58149 -4.56846 0
M  V30 12566 N 1181 1.07532 -1.15215 0
M  V30 12567 C 1181.95 2.12909 -0.815714 0
M  V30 12568 C 1182.94 1.59662 0.1992 0
M  V30 12569 O 1184.13 1.77 0.000215597 0
M  V30 12570 C 1181.26 3.41945 -0.304717 0
M  V30 12571 C 1180.34 4.0205 -1.34968 0
M  V30 12572 N 1180.73 4.36439 -2.55646 0
M  V30 12573 C 1179.03 4.29498 -1.20199 0
M  V30 12574 C 1179.73 4.84044 -3.22609 0
M  V30 12575 N 1178.71 4.82702 -2.5 0
M  V30 12576 H 1182.51 2.37327 -1.73358 0
M  V30 12577 H 1180.02 1.24952 -1.03734 0
M  V30 12578 H 1182.02 4.16875 -0.0453503 0
M  V30 12579 H 1180.68 3.18971 0.607235 0
M  V30 12580 H 1181.69 4.27184 -2.92804 0
M  V30 12581 H 1178.37 4.16032 -0.349781 0
M  V30 12582 H 1179.76 5.19959 -4.2555 0
M  V30 12583 N 1182.48 0.948665 1.2585 0
M  V30 12584 C 1183.73 0.600236 1.934 0
M  V30 12585 C 1184.06 -0.86185 1.74363 0
M  V30 12586 O 1183.31 -1.63294 1.07858 0
M  V30 12587 C 1183.61 0.89784 3.45939 0
M  V30 12588 C 1183.28 2.345 3.85124 0
M  V30 12589 C 1181.94 2.74058 3.95532 0
M  V30 12590 C 1184.29 3.2851 4.04636 0
M  V30 12591 C 1181.62 4.06707 4.22855 0
M  V30 12592 C 1183.97 4.60764 4.3345 0
M  V30 12593 C 1182.63 5.00127 4.42074 0
M  V30 12594 H 1181.9 0.219642 0.707699 0
M  V30 12595 H 1184.55 1.19658 1.49513 0
M  V30 12596 H 1182.86 0.219037 3.91187 0
M  V30 12597 H 1184.55 0.606916 3.96381 0
M  V30 12598 H 1181.14 2.02819 3.77574 0
M  V30 12599 H 1185.33 2.99141 3.96015 0
M  V30 12600 H 1180.58 4.36856 4.27746 0
M  V30 12601 H 1184.76 5.33594 4.47493 0
M  V30 12602 H 1182.38 6.02939 4.63 0
M  V30 12603 N 1183.96 -1.40369 0.716545 0
M  V30 12604 C 1184.89 -2.28196 0.013671 0
M  V30 12605 C 1185.87 -1.4339 -0.766685 0
M  V30 12606 O 1187.05 -1.72801 -0.753123 0
M  V30 12607 C 1184.18 -3.23969 -0.988006 0
M  V30 12608 C 1183.23 -4.25455 -0.298345 0
M  V30 12609 S 1184.06 -5.26559 0.974456 0
M  V30 12610 C 1185.22 -6.25895 -0.0250932 0
M  V30 12611 H 1185.45 -2.87461 0.758526 0
M  V30 12612 H 1182.98 -1.45817 0.507606 0
M  V30 12613 H 1184.94 -3.79674 -1.56071 0
M  V30 12614 H 1183.6 -2.63759 -1.70557 0
M  V30 12615 H 1182.79 -4.92821 -1.05561 0
M  V30 12616 H 1182.4 -3.73455 0.201828 0
M  V30 12617 H 1184.69 -6.7187 -0.871615 0
M  V30 12618 H 1185.63 -7.05422 0.615206 0
M  V30 12619 H 1186.04 -5.63156 -0.389248 0
M  V30 12620 N 1185.44 -0.462799 -1.50652 0
M  V30 12621 C 1186.67 0.0928413 -2.06391 0
M  V30 12622 C 1187.07 1.34791 -1.3277 0
M  V30 12623 O 1186.42 1.79555 -0.388048 0
M  V30 12624 C 1186.48 0.45517 -3.56607 0
M  V30 12625 C 1186.14 -0.696698 -4.51658 0
M  V30 12626 C 1187.14 -1.57633 -4.95427 0
M  V30 12627 C 1184.83 -0.884669 -4.94448 0
M  V30 12628 C 1186.82 -2.62841 -5.80684 0
M  V30 12629 C 1184.51 -1.93998 -5.79489 0
M  V30 12630 C 1185.5 -2.81022 -6.22508 0
M  V30 12631 O 1185.19 -3.84738 -7.05856 0
M  V30 12632 H 1184.92 -3.18898e-05 -0.676 0
M  V30 12633 H 1187.48 -0.648161 -1.94905 0
M  V30 12634 H 1185.71 1.24924 -3.65966 0
M  V30 12635 H 1187.4 0.944923 -3.94748 0
M  V30 12636 H 1188.16 -1.44276 -4.63044 0
M  V30 12637 H 1184.04 -0.216807 -4.6049 0
M  V30 12638 H 1187.59 -3.30797 -6.14182 0
M  V30 12639 H 1183.48 -2.07366 -6.11285 0
M  V30 12640 H 1184.25 -3.81626 -7.24088 0
M  V30 12641 N 1186.91 1.56388 -0.195085 0
M  V30 12642 C 1187.88 2.17859 0.712053 0
M  V30 12643 C 1188.88 1.13304 1.141 0
M  V30 12644 O 1190.07 1.38689 1.05409 0
M  V30 12645 C 1187.2 2.78065 1.97213 0
M  V30 12646 H 1188.39 2.9938 0.176529 0
M  V30 12647 H 1185.95 1.56205 0.0545322 0
M  V30 12648 H 1186.68 2.00342 2.55017 0
M  V30 12649 H 1186.47 3.54603 1.67329 0
M  V30 12650 H 1187.96 3.25266 2.619 0
M  V30 12651 N 1188.39 -0.0785156 1.57404 0
M  V30 12652 C 1189.34 -1.11278 2.04255 0
M  V30 12653 C 1190.33 -1.40482 0.946633 0
M  V30 12654 O 1191.54 -1.39968 1.13177 0
M  V30 12655 H 1187.92 -0.376157 0.65116 0
M  V30 12656 H 1189.89 -0.691437 2.90279 0
M  V30 12657 C 1188.64 -2.42006 2.49656 0
M  V30 12658 H 1187.96 -2.20383 3.33574 0
M  V30 12659 H 1189.4 -3.12837 2.86197 0
M  V30 12660 C 1187.86 -3.07488 1.37669 0
M  V30 12661 O 1188.39 -3.95285 0.715036 0
M  V30 12662 N 1186.59 -2.68004 1.1235 0
M  V30 12663 H 1186.14 -1.96698 1.66336 0
M  V30 12664 H 1186.1 -3.12141 0.376238 0
M  V30 12665 N 1189.87 -1.5367 -0.349747 0
M  V30 12666 C 1190.82 -1.81914 -1.44948 0
M  V30 12667 C 1191.81 -0.689218 -1.54745 0
M  V30 12668 O 1193.02 -0.872448 -1.57443 0
M  V30 12669 H 1189.39 -0.576234 -0.483176 0
M  V30 12670 H 1191.36 -2.73932 -1.18338 0
M  V30 12671 C 1190.11 -2.04005 -2.81562 0
M  V30 12672 H 1189.44 -2.90399 -2.74788 0
M  V30 12673 H 1190.88 -2.27737 -3.57648 0
M  V30 12674 C 1189.34 -0.823748 -3.26674 0
M  V30 12675 O 1189.87 -0.0201351 -4.01695 0
M  V30 12676 N 1188.07 -0.642716 -2.83403 0
M  V30 12677 H 1187.62 -1.29783 -2.22517 0
M  V30 12678 H 1187.58 0.169654 -3.13942 0
M  V30 12679 N 1191.35 0.610423 -1.45298 0
M  V30 12680 C 1192.3 1.7213 -1.53753 0
M  V30 12681 C 1193.27 1.61609 -0.383632 0
M  V30 12682 O 1194.45 1.8123 -0.596694 0
M  V30 12683 C 1191.59 3.10433 -1.50749 0
M  V30 12684 C 1190.7 3.3178 -2.76669 0
M  V30 12685 C 1189.84 4.60173 -2.65356 0
M  V30 12686 C 1188.88 4.74769 -3.86343 0
M  V30 12687 N 1188.01 5.94459 -3.73581 0
M  V30 12688 H 1192.85 1.64239 -2.48655 0
M  V30 12689 H 1190.39 0.800879 -1.23387 0
M  V30 12690 H 1192.35 3.90446 -1.46996 0
M  V30 12691 H 1190.98 3.17288 -0.593998 0
M  V30 12692 H 1190.03 2.45563 -2.90522 0
M  V30 12693 H 1191.34 3.38439 -3.66416 0
M  V30 12694 H 1190.5 5.48377 -2.59553 0
M  V30 12695 H 1189.24 4.55907 -1.73204 0
M  V30 12696 H 1188.24 3.8499 -3.92509 0
M  V30 12697 H 1189.47 4.80834 -4.79557 0
M  V30 12698 H 1187.41 5.91243 -2.84196 0
M  V30 12699 H 1187.33 6.02265 -4.5696 0
M  V30 12700 H 1188.6 6.85168 -3.71705 0
M  V30 12701 N 1192.83 1.32541 0.852676 0
M  V30 12702 C 1194.05 1.2636 1.64462 0
M  V30 12703 C 1194.48 -0.16508 1.87374 0
M  V30 12704 O 1193.83 -1.11712 1.42794 0
M  V30 12705 C 1193.88 2.03052 2.97997 0
M  V30 12706 O 1192.99 1.37967 3.88637 0
M  V30 12707 H 1192.33 0.435393 0.501327 0
M  V30 12708 H 1194.86 1.74888 1.06186 0
M  V30 12709 H 1194.87 2.133 3.47803 0
M  V30 12710 H 1193.54 3.06941 2.80642 0
M  V30 12711 H 1192.12 1.36279 3.47106 0
M  V30 12712 N 1194.3 -1.0692 1.15784 0
M  V30 12713 C 1195.55 -1.79245 0.933581 0
M  V30 12714 C 1195.87 -1.87362 -0.540427 0
M  V30 12715 O 1195.14 -1.37769 -1.39271 0
M  V30 12716 H 1193.72 -0.663898 0.342416 0
M  V30 12717 H 1196.39 -1.29189 1.45932 0
M  V30 12718 H 1195.48 -2.81546 1.34679 0
M  V30 12719 N 1195.78 -0.955326 -1.25345 0
M  V30 12720 C 1196.73 -0.474888 -2.25862 0
M  V30 12721 C 1197.7 0.472996 -1.59223 0
M  V30 12722 O 1198.88 0.386094 -1.86853 0
M  V30 12723 C 1196.02 0.240554 -3.44261 0
M  V30 12724 C 1195.14 -0.74465 -4.25534 0
M  V30 12725 C 1194.27 -0.00657513 -5.312 0
M  V30 12726 C 1193.31 -0.982666 -6.04161 0
M  V30 12727 N 1192.45 -0.275418 -7.0156 0
M  V30 12728 H 1197.29 -1.33693 -2.66327 0
M  V30 12729 H 1194.83 -0.670439 -1.30933 0
M  V30 12730 H 1196.78 0.671933 -4.11753 0
M  V30 12731 H 1195.41 1.06664 -3.04668 0
M  V30 12732 H 1194.47 -1.29451 -3.57696 0
M  V30 12733 H 1195.78 -1.48948 -4.76042 0
M  V30 12734 H 1194.93 0.483404 -6.04771 0
M  V30 12735 H 1193.67 0.771035 -4.81567 0
M  V30 12736 H 1192.68 -1.48364 -5.29404 0
M  V30 12737 H 1193.9 -1.76052 -6.55883 0
M  V30 12738 H 1191.85 0.483441 -6.54216 0
M  V30 12739 H 1191.76 -0.959324 -7.49889 0
M  V30 12740 H 1193.03 0.193002 -7.79261 0
M  V30 12741 N 1197.26 1.39987 -0.723979 0
M  V30 12742 C 1198.51 2.00731 -0.267115 0
M  V30 12743 C 1198.84 1.57424 1.14228 0
M  V30 12744 O 1198.09 0.789205 1.79081 0
M  V30 12745 C 1198.39 3.56101 -0.304472 0
M  V30 12746 C 1198.06 4.1902 -1.66533 0
M  V30 12747 C 1196.72 4.3592 -2.03783 0
M  V30 12748 C 1199.07 4.54034 -2.55935 0
M  V30 12749 C 1196.4 4.85119 -3.29964 0
M  V30 12750 C 1198.75 5.04637 -3.81477 0
M  V30 12751 C 1197.41 5.19745 -4.18833 0
M  V30 12752 H 1196.68 0.734525 -0.0977442 0
M  V30 12753 H 1199.33 1.67476 -0.928659 0
M  V30 12754 H 1197.64 3.89314 0.440647 0
M  V30 12755 H 1199.33 4.00944 0.0669875 0
M  V30 12756 H 1195.92 4.0626 -1.36569 0
M  V30 12757 H 1200.11 4.40606 -2.2843 0
M  V30 12758 H 1195.36 4.95001 -3.58865 0
M  V30 12759 H 1199.54 5.30705 -4.50916 0
M  V30 12760 H 1197.16 5.5763 -5.16675 0
M  V30 12761 N 1198.74 0.470782 1.50404 0
M  V30 12762 C 1199.99 -0.0844409 2.02624 0
M  V30 12763 C 1200.32 -1.39398 1.3521 0
M  V30 12764 O 1199.59 -1.88542 0.477707 0
M  V30 12765 C 1199.88 -0.268563 3.59097 0
M  V30 12766 C 1199.73 1.06198 4.37084 0
M  V30 12767 C 1201.05 -1.02324 4.28039 0
M  V30 12768 H 1198.17 -0.0292141 0.736421 0
M  V30 12769 H 1200.81 0.616312 1.79726 0
M  V30 12770 H 1198.96 -0.865441 3.78738 0
M  V30 12771 H 1200.63 1.69541 4.29015 0
M  V30 12772 H 1198.87 1.65868 4.00837 0
M  V30 12773 H 1199.55 0.886795 5.4483 0
M  V30 12774 H 1202.02 -0.517325 4.12872 0
M  V30 12775 H 1200.9 -1.12087 5.37334 0
M  V30 12776 H 1201.16 -2.05974 3.91187 0
M  V30 12777 N 1200.22 -1.56282 0.203376 0
M  V30 12778 C 1201.46 -1.98105 -0.433844 0
M  V30 12779 C 1201.8 -1.09044 -1.60695 0
M  V30 12780 O 1201.07 -0.144193 -1.93965 0
M  V30 12781 C 1201.35 -3.4903 -0.885992 0
M  V30 12782 C 1201.21 -4.48867 0.289501 0
M  V30 12783 C 1202.53 -4.03871 -1.7486 0
M  V30 12784 H 1199.65 -0.720252 -0.156224 0
M  V30 12785 H 1202.29 -1.87681 0.295963 0
M  V30 12786 H 1200.44 -3.58045 -1.50785 0
M  V30 12787 H 1202.11 -4.51883 0.92734 0
M  V30 12788 H 1200.35 -4.23495 0.939934 0
M  V30 12789 H 1201.02 -5.51956 -0.0695128 0
M  V30 12790 H 1203.5 -3.97688 -1.22407 0
M  V30 12791 H 1202.38 -5.09827 -2.03391 0
M  V30 12792 H 1202.64 -3.49637 -2.70567 0
M  V30 12793 N 1201.7 0.070167 -1.57444 0
M  V30 12794 C 1202.97 0.802108 -1.78397 0
M  V30 12795 C 1203.35 1.95706 -0.791356 0
M  V30 12796 O 1202.7 2.27827 0.17518 0
M  V30 12797 C 1202.91 1.27354 -3.24934 0
M  V30 12798 C 1204.26 1.70626 -3.88808 0
M  V30 12799 O 1205.28 1.36916 -3.28835 0
M  V30 12800 O 1204.14 2.33041 -4.94322 0
M  V30 12801 H 1201.24 0.384483 -0.73219 0
M  V30 12802 H 1203.78 0.0501168 -1.69626 0
M  V30 12803 H 1202.55 0.447204 -3.88736 0
M  V30 12804 H 1202.18 2.0868 -3.38435 0
M  V30 12805 N 1203.17 1.53854 0.341593 0
M  V30 12806 C 1204.12 1.8268 1.43982 0
M  V30 12807 C 1205.12 0.697415 1.54378 0
M  V30 12808 O 1206.32 0.880785 1.56978 0
M  V30 12809 H 1202.7 0.578788 0.480113 0
M  V30 12810 H 1204.67 2.74556 1.16884 0
M  V30 12811 C 1203.42 2.05496 2.80476 0
M  V30 12812 H 1202.74 2.91852 2.73244 0
M  V30 12813 H 1204.18 2.2963 3.56435 0
M  V30 12814 C 1202.64 0.841061 3.26233 0
M  V30 12815 O 1203.17 0.0414376 4.01679 0
M  V30 12816 N 1201.37 0.657736 2.83059 0
M  V30 12817 H 1200.92 1.30962 2.21826 0
M  V30 12818 H 1200.88 -0.153003 3.14027 0
M  V30 12819 N 1204.65 -0.602709 1.4562 0
M  V30 12820 C 1205.9 -1.35769 1.49163 0
M  V30 12821 C 1206.21 -1.95102 0.139485 0
M  V30 12822 O 1207.42 -2.71449 0.0525919 0
M  V30 12823 C 1205.88 -2.45959 2.62739 0
M  V30 12824 C 1205.48 -1.93017 4.04288 0
M  V30 12825 C 1207.23 -3.22926 2.75534 0
M  V30 12826 C 1205.13 -3.00718 5.09237 0
M  V30 12827 H 1204.06 -0.510317 0.555061 0
M  V30 12828 H 1206.72 -0.645434 1.71774 0
M  V30 12829 H 1205.1 -3.19892 2.3342 0
M  V30 12830 H 1206.27 -1.2576 4.43307 0
M  V30 12831 H 1204.59 -1.2878 3.95986 0
M  V30 12832 H 1207.18 -4.03267 3.51112 0
M  V30 12833 H 1207.53 -3.74243 1.82339 0
M  V30 12834 H 1208.06 -2.56095 3.04402 0
M  V30 12835 H 1204.8 -2.54312 6.04157 0
M  V30 12836 H 1204.32 -3.66526 4.74783 0
M  V30 12837 H 1206 -3.65016 5.34202 0
M  V30 12838 N 1206.13 -1.32992 -0.845635 0
M  V30 12839 C 1207.08 -1.22682 -1.95494 0
M  V30 12840 C 1208.05 -0.106942 -1.65755 0
M  V30 12841 O 1209.23 -0.28405 -1.88674 0
M  V30 12842 C 1206.37 -0.965068 -3.31331 0
M  V30 12843 C 1205.48 -2.17058 -3.7351 0
M  V30 12844 C 1204.62 -1.84355 -4.98183 0
M  V30 12845 C 1203.66 -3.01176 -5.32878 0
M  V30 12846 N 1202.8 -2.68506 -6.48729 0
M  V30 12847 H 1207.64 -2.17562 -2.03644 0
M  V30 12848 H 1205.17 -1.08194 -0.996613 0
M  V30 12849 H 1207.13 -0.793771 -4.09579 0
M  V30 12850 H 1205.76 -0.0530285 -3.22756 0
M  V30 12851 H 1204.81 -2.45185 -2.90841 0
M  V30 12852 H 1206.12 -3.04413 -3.95138 0
M  V30 12853 H 1205.28 -1.6383 -5.84162 0
M  V30 12854 H 1204.02 -0.942264 -4.78511 0
M  V30 12855 H 1203.02 -3.22323 -4.45408 0
M  V30 12856 H 1204.25 -3.9205 -5.54503 0
M  V30 12857 H 1202.19 -1.80929 -6.30556 0
M  V30 12858 H 1202.11 -3.49392 -6.70419 0
M  V30 12859 H 1203.38 -2.51432 -7.37836 0
M  V30 12860 N 1207.61 1.06304 -1.1635 0
M  V30 12861 C 1208.54 2.15745 -0.893103 0
M  V30 12862 C 1209.52 1.69341 0.160531 0
M  V30 12863 O 1210.7 1.94196 0.0126526 0
M  V30 12864 C 1207.83 3.45066 -0.393287 0
M  V30 12865 C 1206.79 4.04978 -1.38482 0
M  V30 12866 C 1206.11 5.29507 -0.743409 0
M  V30 12867 C 1207.41 4.4377 -2.75438 0
M  V30 12868 H 1209.11 2.38622 -1.80831 0
M  V30 12869 H 1206.65 1.14681 -0.870878 0
M  V30 12870 H 1208.61 4.20964 -0.191607 0
M  V30 12871 H 1207.33 3.21808 0.557426 0
M  V30 12872 H 1205.99 3.31136 -1.57304 0
M  V30 12873 H 1205.64 5.02545 0.213787 0
M  V30 12874 H 1205.34 5.7055 -1.40521 0
M  V30 12875 H 1206.86 6.08102 -0.551746 0
M  V30 12876 H 1208.28 5.1075 -2.60398 0
M  V30 12877 H 1206.67 4.95797 -3.38091 0
M  V30 12878 H 1207.74 3.54636 -3.30699 0
M  V30 12879 N 1209.09 0.96196 1.24836 0
M  V30 12880 C 1210.33 0.616342 1.92052 0
M  V30 12881 C 1210.65 -0.851601 1.76088 0
M  V30 12882 O 1211.85 -1.3075 2.37943 0
M  V30 12883 C 1210.31 1.05168 3.44191 0
M  V30 12884 C 1209.92 2.54268 3.68852 0
M  V30 12885 C 1211.66 0.778938 4.17292 0
M  V30 12886 C 1209.57 2.91564 5.14533 0
M  V30 12887 H 1208.5 0.22681 0.719078 0
M  V30 12888 H 1211.15 1.1674 1.41577 0
M  V30 12889 H 1209.53 0.428979 3.9367 0
M  V30 12890 H 1210.71 3.21619 3.29997 0
M  V30 12891 H 1209.02 2.79091 3.09026 0
M  V30 12892 H 1211.62 1.03366 5.24614 0
M  V30 12893 H 1211.96 -0.284772 4.15325 0
M  V30 12894 H 1212.49 1.36233 3.73745 0
M  V30 12895 H 1209.23 3.96982 5.21618 0
M  V30 12896 H 1208.75 2.28892 5.54408 0
M  V30 12897 H 1210.43 2.81155 5.82718 0
M  V30 12898 N 1210.56 -1.39601 0.731392 0
M  V30 12899 C 1211.81 -2.0019 0.277208 0
M  V30 12900 C 1212.13 -1.5832 -1.13841 0
M  V30 12901 O 1211.4 -0.829793 -1.77458 0
M  V30 12902 H 1209.98 -0.740344 0.0995006 0
M  V30 12903 H 1212.64 -1.70704 0.940547 0
M  V30 12904 H 1211.74 -3.10427 0.322749 0
M  V30 12905 N 1212.04 -0.478751 -1.50152 0
M  V30 12906 C 1213.01 0.300181 -2.27226 0
M  V30 12907 C 1214.01 0.913705 -1.32318 0
M  V30 12908 O 1215.2 0.781692 -1.55677 0
M  V30 12909 C 1212.33 1.42838 -3.09532 0
M  V30 12910 H 1213.52 -0.375845 -2.97536 0
M  V30 12911 H 1211.07 -0.233037 -1.54553 0
M  V30 12912 H 1211.81 2.13923 -2.43737 0
M  V30 12913 H 1211.59 0.994161 -3.79287 0
M  V30 12914 H 1213.08 1.97765 -3.67802 0
M  V30 12915 N 1213.52 1.56172 -0.211661 0
M  V30 12916 C 1214.75 2.02428 0.427843 0
M  V30 12917 C 1215.16 1.09162 1.54043 0
M  V30 12918 O 1214.52 0.0994249 1.82229 0
M  V30 12919 C 1214.57 3.48279 0.968728 0
M  V30 12920 O 1214.29 4.37987 -0.0994841 0
M  V30 12921 C 1215.79 4.10132 1.68246 0
M  V30 12922 H 1213.01 0.662611 0.10577 0
M  V30 12923 H 1215.56 2.01897 -0.32522 0
M  V30 12924 H 1213.71 3.49456 1.6721 0
M  V30 12925 H 1214.13 5.23609 0.305558 0
M  V30 12926 H 1215.6 5.13985 2.01304 0
M  V30 12927 H 1216.08 3.54552 2.5921 0
M  V30 12928 H 1216.68 4.12775 1.02453 0
M  V30 12929 N 1215 -0.0618163 1.57479 0
M  V30 12930 C 1216.22 -0.775513 1.92355 0
M  V30 12931 C 1216.65 -1.69816 0.808949 0
M  V30 12932 O 1216.01 -1.79736 -0.23761 0
M  V30 12933 C 1216.05 -1.5367 3.26218 0
M  V30 12934 O 1215.16 -2.64802 3.16155 0
M  V30 12935 H 1214.5 -0.210909 0.629614 0
M  V30 12936 H 1217.03 -0.0270752 2.04582 0
M  V30 12937 H 1217.04 -1.91379 3.6033 0
M  V30 12938 H 1215.71 -0.859798 4.06916 0
M  V30 12939 H 1214.29 -2.29876 2.93618 0
M  V30 12940 N 1216.48 -1.54033 -0.333429 0
M  V30 12941 C 1217.75 -1.62404 -1.09015 0
M  V30 12942 C 1218.13 -0.451653 -2.06212 0
M  V30 12943 O 1217.48 0.555086 -2.21655 0
M  V30 12944 C 1217.69 -2.98949 -1.80085 0
M  V30 12945 C 1219.04 -3.54655 -2.33464 0
M  V30 12946 O 1220.06 -3.0119 -1.90166 0
M  V30 12947 O 1218.92 -4.48195 -3.12703 0
M  V30 12948 H 1216.02 -0.65727 -0.501921 0
M  V30 12949 H 1218.56 -1.66378 -0.33411 0
M  V30 12950 H 1217.33 -3.75716 -1.09332 0
M  V30 12951 H 1216.96 -2.98609 -2.62523 0
M  V30 12952 N 1217.95 0.594978 -1.45938 0
M  V30 12953 C 1219.37 1.17703 -1.44924 0
M  V30 12954 C 1219.72 1.9534 -0.183522 0
M  V30 12955 O 1218.84 2.04276 0.714163 0
M  V30 12956 C 1219.44 2.14119 -2.62561 0
M  V30 12957 C 1218 2.67674 -2.64627 0
M  V30 12958 C 1217.14 1.43312 -2.37397 0
M  V30 12959 H 1220.09 0.383583 -1.53995 0
M  V30 12960 H 1220.11 2.97374 -2.3738 0
M  V30 12961 H 1219.63 1.57586 -3.54667 0
M  V30 12962 H 1217.73 3.28111 -1.76562 0
M  V30 12963 H 1217.84 3.11246 -3.64229 0
M  V30 12964 H 1216.2 1.72702 -1.87206 0
M  V30 12965 H 1216.99 0.886276 -3.31663 0
M  V30 12966 N 1219.43 1.33438 0.838571 0
M  V30 12967 C 1220.66 1.27951 1.62592 0
M  V30 12968 C 1221.08 -0.149502 1.88207 0
M  V30 12969 O 1220.43 -1.09174 1.46244 0
M  V30 12970 C 1220.48 2.0523 2.97595 0
M  V30 12971 O 1220.2 3.42557 2.73105 0
M  V30 12972 C 1221.71 2.06957 3.92025 0
M  V30 12973 H 1218.93 0.440796 0.505905 0
M  V30 12974 H 1221.47 1.75814 1.0445 0
M  V30 12975 H 1219.62 1.61049 3.52338 0
M  V30 12976 H 1220.04 3.82314 3.59076 0
M  V30 12977 H 1221.51 2.65481 4.83967 0
M  V30 12978 H 1221.99 1.0599 4.26219 0
M  V30 12979 H 1222.6 2.51158 3.4322 0
M  V30 12980 N 1220.91 -1.05686 1.16912 0
M  V30 12981 C 1222.32 -1.60059 0.961153 0
M  V30 12982 C 1222.67 -1.89894 -0.493409 0
M  V30 12983 O 1221.8 -1.67692 -1.36778 0
M  V30 12984 C 1222.39 -2.90803 1.73837 0
M  V30 12985 C 1220.95 -3.41854 1.57522 0
M  V30 12986 C 1220.1 -2.15658 1.74319 0
M  V30 12987 H 1223.05 -0.885592 1.31693 0
M  V30 12988 H 1223.07 -3.60485 1.21781 0
M  V30 12989 H 1222.58 -2.69056 2.79697 0
M  V30 12990 H 1220.68 -3.68647 0.541284 0
M  V30 12991 H 1220.8 -4.16771 2.36302 0
M  V30 12992 H 1219.16 -2.26177 1.17115 0
M  V30 12993 H 1219.94 -1.96386 2.8158 0
M  V30 12994 N 1222.39 -0.968567 -1.24324 0
M  V30 12995 C 1223.61 -0.648166 -1.97012 0
M  V30 12996 C 1224.04 0.775842 -1.71354 0
M  V30 12997 O 1223.4 1.52672 -0.977804 0
M  V30 12998 C 1223.44 -0.929974 -3.48402 0
M  V30 12999 O 1222.55 -0.015854 -4.12397 0
M  V30 13000 H 1221.89 -0.244961 -0.617163 0
M  V30 13001 H 1224.42 -1.29895 -1.58077 0
M  V30 13002 H 1224.43 -0.861863 -3.98793 0
M  V30 13003 H 1223.1 -1.96776 -3.66404 0
M  V30 13004 H 1221.68 -0.137361 -3.72647 0
M  V30 13005 N 1223.87 1.39211 -0.738786 0
M  V30 13006 C 1225.12 1.99673 -0.285254 0
M  V30 13007 C 1225.43 1.59297 1.13507 0
M  V30 13008 O 1226.63 2.12622 1.68832 0
M  V30 13009 C 1225.09 3.5696 -0.45906 0
M  V30 13010 C 1224.7 4.06297 -1.88751 0
M  V30 13011 C 1226.44 4.24446 -0.0674954 0
M  V30 13012 C 1224.35 5.56171 -2.01067 0
M  V30 13013 H 1223.28 0.746945 -0.102901 0
M  V30 13014 H 1225.93 1.59163 -0.913209 0
M  V30 13015 H 1224.31 3.95285 0.23785 0
M  V30 13016 H 1225.49 3.79297 -2.61669 0
M  V30 13017 H 1223.8 3.51486 -2.23264 0
M  V30 13018 H 1226.4 5.34521 -0.138475 0
M  V30 13019 H 1226.74 4.04653 0.977823 0
M  V30 13020 H 1227.27 3.91309 -0.715704 0
M  V30 13021 H 1224.01 5.80849 -3.03801 0
M  V30 13022 H 1223.53 5.84961 -1.32591 0
M  V30 13023 H 1225.21 6.21642 -1.79362 0
M  V30 13024 N 1225.34 0.486708 1.49896 0
M  V30 13025 C 1226.29 -0.299294 2.28851 0
M  V30 13026 C 1227.26 -0.973251 1.346 0
M  V30 13027 O 1228.45 -0.982678 1.63548 0
M  V30 13028 C 1225.59 -1.36624 3.16904 0
M  V30 13029 C 1224.7 -0.705492 4.262 0
M  V30 13030 C 1223.83 -1.75165 5.01488 0
M  V30 13031 C 1222.87 -1.072 6.0264 0
M  V30 13032 N 1222.01 -2.06172 6.71147 0
M  V30 13033 H 1226.85 0.380272 2.95564 0
M  V30 13034 H 1224.39 0.199377 1.45743 0
M  V30 13035 H 1226.35 -1.99666 3.66319 0
M  V30 13036 H 1224.98 -2.01476 2.52205 0
M  V30 13037 H 1224.03 0.0378757 3.80381 0
M  V30 13038 H 1225.34 -0.169774 4.98511 0
M  V30 13039 H 1224.49 -2.45749 5.547 0
M  V30 13040 H 1223.23 -2.3212 4.28919 0
M  V30 13041 H 1222.24 -0.351868 5.48673 0
M  V30 13042 H 1223.46 -0.509139 6.77189 0
M  V30 13043 H 1221.41 -2.62115 6.01358 0
M  V30 13044 H 1221.33 -1.57627 7.39385 0
M  V30 13045 H 1222.59 -2.76088 7.28969 0
M  V30 13046 N 1226.82 -1.56058 0.219941 0
M  V30 13047 C 1227.77 -2.16853 -0.704185 0
M  V30 13048 C 1228.76 -1.11639 -1.15869 0
M  V30 13049 O 1229.95 -1.37632 -1.11295 0
M  V30 13050 C 1227.08 -2.85073 -1.9128 0
M  V30 13051 C 1226.16 -3.9751 -1.47805 0
M  V30 13052 N 1226.56 -5.00121 -0.755792 0
M  V30 13053 C 1224.85 -4.0957 -1.76546 0
M  V30 13054 C 1225.55 -5.79241 -0.534332 0
M  V30 13055 N 1224.53 -5.32549 -1.09055 0
M  V30 13056 H 1228.33 -2.93547 -0.143914 0
M  V30 13057 H 1225.85 -1.62386 0.021133 0
M  V30 13058 H 1227.84 -3.27037 -2.58558 0
M  V30 13059 H 1226.5 -2.09874 -2.47756 0
M  V30 13060 H 1227.51 -5.16285 -0.408647 0
M  V30 13061 H 1224.19 -3.45521 -2.34353 0
M  V30 13062 H 1225.58 -6.71888 0.0404032 0
M  V30 13063 N 1228.3 0.053464 -1.57509 0
M  V30 13064 C 1229.55 0.747622 -1.87763 0
M  V30 13065 C 1229.87 1.77178 -0.814433 0
M  V30 13066 O 1229.14 1.95287 0.154862 0
M  V30 13067 H 1227.72 0.279109 -0.692898 0
M  V30 13068 H 1230.38 0.0252006 -1.94884 0
M  V30 13069 H 1229.48 1.25244 -2.85868 0
M  V30 13070 N 1229.78 1.54207 0.325255 0
M  V30 13071 C 1231.06 1.6298 1.08153 0
M  V30 13072 C 1231.44 0.462583 2.05969 0
M  V30 13073 O 1230.78 -0.543323 2.21947 0
M  V30 13074 C 1230.99 2.999 1.78497 0
M  V30 13075 C 1232.34 3.55888 2.3158 0
M  V30 13076 O 1233.37 3.02194 1.88566 0
M  V30 13077 O 1232.23 4.49847 3.10322 0
M  V30 13078 H 1229.32 0.659923 0.498429 0
M  V30 13079 H 1231.87 1.66553 0.325282 0
M  V30 13080 H 1230.64 3.7629 1.07338 0
M  V30 13081 H 1230.26 2.99997 2.60936 0
M  V30 13082 N 1231.26 -0.58723 1.46251 0
M  V30 13083 C 1232.19 -1.70694 1.5933 0
M  V30 13084 C 1233.17 -1.64208 0.443831 0
M  V30 13085 O 1234.35 -1.82294 0.669516 0
M  V30 13086 C 1231.48 -3.0933 1.579 0
M  V30 13087 C 1230.44 -3.30643 2.7177 0
M  V30 13088 C 1229.76 -4.69761 2.554 0
M  V30 13089 C 1231.06 -3.18916 4.1363 0
M  V30 13090 H 1232.76 -1.60004 2.53059 0
M  V30 13091 H 1230.3 -0.768343 1.21789 0
M  V30 13092 H 1232.26 -3.87479 1.65644 0
M  V30 13093 H 1230.98 -3.20907 0.60712 0
M  V30 13094 H 1229.64 -2.54892 2.63488 0
M  V30 13095 H 1229.29 -4.78098 1.56306 0
M  V30 13096 H 1228.99 -4.84974 3.31774 0
M  V30 13097 H 1230.51 -5.50084 2.65028 0
M  V30 13098 H 1231.93 -3.86915 4.23048 0
M  V30 13099 H 1230.32 -3.45653 4.90555 0
M  V30 13100 H 1231.39 -2.1606 4.34104 0
M  V30 13101 N 1232.74 -1.33881 -0.831482 0
M  V30 13102 C 1233.68 -1.24741 -1.96322 0
M  V30 13103 C 1234.68 -0.147251 -1.68759 0
M  V30 13104 O 1235.88 -0.311684 -1.77281 0
M  V30 13105 H 1232.26 -0.387298 -0.644596 0
M  V30 13106 H 1234.23 -2.20407 -2.01155 0
M  V30 13107 C 1232.98 -1.01102 -3.32677 0
M  V30 13108 H 1232.3 -1.84986 -3.54429 0
M  V30 13109 H 1233.74 -0.987398 -4.12343 0
M  V30 13110 C 1232.2 0.285903 -3.35685 0
M  V30 13111 O 1232.73 1.29014 -3.80419 0
M  V30 13112 N 1230.94 0.316026 -2.88877 0
M  V30 13113 H 1230.48 -0.501758 -2.52666 0
M  V30 13114 H 1230.44 1.18357 -2.91271 0
M  V30 13115 N 1234.21 1.05064 -1.1747 0
M  V30 13116 C 1235.46 1.78089 -0.963883 0
M  V30 13117 C 1235.79 1.87766 0.507365 0
M  V30 13118 O 1235.04 1.37477 1.39279 0
M  V30 13119 C 1235.34 3.21961 -1.55164 0
M  V30 13120 C 1235.01 3.32339 -3.04732 0
M  V30 13121 C 1233.67 3.34878 -3.45557 0
M  V30 13122 C 1236.02 3.3325 -4.00741 0
M  V30 13123 C 1233.35 3.35959 -4.80987 0
M  V30 13124 C 1235.7 3.3587 -5.36073 0
M  V30 13125 C 1234.37 3.36697 -5.7636 0
M  V30 13126 H 1233.64 0.651672 -0.35271 0
M  V30 13127 H 1236.28 1.23471 -1.4638 0
M  V30 13128 H 1234.59 3.79514 -0.973471 0
M  V30 13129 H 1236.29 3.77087 -1.36406 0
M  V30 13130 H 1232.88 3.31076 -2.72188 0
M  V30 13131 H 1237.06 3.30488 -3.70258 0
M  V30 13132 H 1232.32 3.34911 -5.11512 0
M  V30 13133 H 1236.49 3.35524 -6.10243 0
M  V30 13134 H 1234.12 3.37288 -6.81279 0
M  V30 13135 N 1235.69 0.975146 1.23809 0
M  V30 13136 C 1236.97 0.557725 1.8748 0
M  V30 13137 C 1237.35 -0.965164 1.87744 0
M  V30 13138 O 1236.7 -1.83966 1.35531 0
M  V30 13139 C 1236.91 1.15777 3.29236 0
M  V30 13140 C 1238.25 1.24726 4.05868 0
M  V30 13141 O 1239.28 1.11084 3.38436 0
M  V30 13142 O 1238.14 1.46373 5.26533 0
M  V30 13143 H 1235.23 0.187045 0.80557 0
M  V30 13144 H 1237.78 1.06989 1.31725 0
M  V30 13145 H 1236.55 2.20023 3.23583 0
M  V30 13146 H 1236.17 0.630103 3.92575 0
M  V30 13147 N 1237.17 -1.38817 0.746158 0
M  V30 13148 C 1238.12 -2.32373 0.102785 0
M  V30 13149 C 1239.11 -1.53638 -0.713556 0
M  V30 13150 O 1240.32 -1.69223 -0.613488 0
M  V30 13151 H 1236.69 -0.751861 0.0144405 0
M  V30 13152 H 1238.66 -2.84249 0.908032 0
M  V30 13153 C 1237.41 -3.38796 -0.781827 0
M  V30 13154 H 1236.74 -3.99467 -0.163057 0
M  V30 13155 H 1238.18 -4.06682 -1.19941 0
M  V30 13156 C 1236.63 -2.76756 -1.92113 0
M  V30 13157 O 1237.16 -2.65478 -3.0147 0
M  V30 13158 N 1235.37 -2.34676 -1.71392 0
M  V30 13159 H 1234.92 -2.44049 -0.824483 0
M  V30 13160 H 1234.88 -1.93508 -2.47794 0
M  V30 13161 N 1238.65 -0.49465 -1.49636 0
M  V30 13162 C 1239.61 0.276064 -2.27531 0
M  V30 13163 C 1240.61 0.899619 -1.3328 0
M  V30 13164 O 1241.8 0.765136 -1.56497 0
M  V30 13165 C 1238.93 1.39547 -3.1103 0
M  V30 13166 H 1240.13 -0.407381 -2.9712 0
M  V30 13167 H 1237.68 -0.249416 -1.54297 0
M  V30 13168 H 1238.41 2.11326 -2.45992 0
M  V30 13169 H 1238.2 0.953877 -3.8032 0
M  V30 13170 H 1239.69 1.93853 -3.69879 0
M  V30 13171 N 1240.13 1.55939 -0.228214 0
M  V30 13172 C 1241.37 1.9877 0.402272 0
M  V30 13173 C 1241.7 1.11587 1.5894 0
M  V30 13174 O 1240.98 0.175032 1.93711 0
M  V30 13175 C 1241.26 3.50396 0.830353 0
M  V30 13176 C 1241.12 4.4835 -0.360876 0
M  V30 13177 C 1242.43 4.06602 1.68413 0
M  V30 13178 H 1239.55 0.722646 0.144746 0
M  V30 13179 H 1242.2 1.87186 -0.325784 0
M  V30 13180 H 1240.35 3.60398 1.4507 0
M  V30 13181 H 1242.02 4.5035 -0.999113 0
M  V30 13182 H 1240.26 4.21946 -1.00719 0
M  V30 13183 H 1240.93 5.51997 -0.0183074 0
M  V30 13184 H 1243.41 3.99585 1.16064 0
M  V30 13185 H 1242.28 5.12998 1.95254 0
M  V30 13186 H 1242.54 3.53897 2.64971 0
M  V30 13187 N 1241.6 -0.0451101 1.57535 0
M  V30 13188 C 1242.55 -1.0692 2.06569 0
M  V30 13189 C 1243.55 -1.38443 0.976218 0
M  V30 13190 O 1244.75 -1.37536 1.1612 0
M  V30 13191 H 1241.13 -0.36226 0.658993 0
M  V30 13192 H 1243.1 -0.629709 2.9168 0
M  V30 13193 C 1241.85 -2.36656 2.54733 0
M  V30 13194 H 1241.17 -2.13257 3.38174 0
M  V30 13195 H 1242.61 -3.06696 2.92769 0
M  V30 13196 C 1241.07 -3.04499 1.4416 0
M  V30 13197 O 1241.6 -3.93679 0.798721 0
M  V30 13198 N 1239.81 -2.6556 1.18009 0
M  V30 13199 H 1239.35 -1.93126 1.7047 0
M  V30 13200 H 1239.31 -3.11272 0.442363 0
M  V30 13201 N 1243.08 -1.54377 -0.317073 0
M  V30 13202 C 1244.31 -1.77184 -1.07798 0
M  V30 13203 C 1244.73 -0.52204 -1.80711 0
M  V30 13204 O 1244.09 0.52672 -1.7348 0
M  V30 13205 C 1244.14 -2.96887 -2.04671 0
M  V30 13206 O 1243.24 -2.68887 -3.12688 0
M  V30 13207 H 1242.58 -0.586937 -0.310485 0
M  V30 13208 H 1245.11 -2.01419 -0.35939 0
M  V30 13209 H 1245.12 -3.24414 -2.47426 0
M  V30 13210 H 1243.8 -3.87518 -1.51005 0
M  V30 13211 H 1242.38 -2.52329 -2.74562 0
M  V30 13212 N 1244.56 0.579466 -1.4656 0
M  V30 13213 C 1245.79 1.36351 -1.55615 0
M  V30 13214 C 1246.2 1.87755 -0.198405 0
M  V30 13215 O 1245.56 1.63795 0.804834 0
M  V30 13216 C 1245.61 2.54881 -2.56355 0
M  V30 13217 O 1245.33 2.05607 -3.86856 0
M  V30 13218 C 1246.83 3.47391 -2.75381 0
M  V30 13219 H 1244.05 0.416426 -0.526147 0
M  V30 13220 H 1246.6 0.704134 -1.91995 0
M  V30 13221 H 1244.75 3.16802 -2.2297 0
M  V30 13222 H 1245.17 2.82823 -4.41714 0
M  V30 13223 H 1246.64 4.27031 -3.49783 0
M  V30 13224 H 1247.12 3.99532 -1.82403 0
M  V30 13225 H 1247.72 2.91303 -3.09875 0
M  V30 13226 N 1246.04 1.3432 0.824371 0
M  V30 13227 C 1247.32 1.17178 1.56616 0
M  V30 13228 C 1247.7 -0.256195 2.0954 0
M  V30 13229 O 1247.04 -1.25732 1.90798 0
M  V30 13230 C 1247.25 2.22511 2.68867 0
M  V30 13231 C 1248.6 2.57414 3.37673 0
M  V30 13232 O 1249.63 2.2129 2.79122 0
M  V30 13233 O 1248.48 3.19462 4.43403 0
M  V30 13234 H 1245.58 0.454141 0.691147 0
M  V30 13235 H 1248.12 1.45948 0.865869 0
M  V30 13236 H 1246.9 3.18366 2.27505 0
M  V30 13237 H 1246.52 1.9491 3.46548 0
M  V30 13238 N 1247.52 -1.0444 1.18026 0
M  V30 13239 C 1248.45 -2.14297 0.927314 0
M  V30 13240 C 1249.43 -1.69575 -0.13357 0
M  V30 13241 O 1250.61 -1.94191 0.0182439 0
M  V30 13242 C 1247.74 -3.44397 0.448134 0
M  V30 13243 C 1246.7 -4.02723 1.44907 0
M  V30 13244 C 1246.02 -5.28257 0.827555 0
M  V30 13245 C 1247.32 -4.39331 2.82463 0
M  V30 13246 H 1249.02 -2.35715 1.84605 0
M  V30 13247 H 1246.56 -1.13281 0.889012 0
M  V30 13248 H 1248.52 -4.20606 0.258554 0
M  V30 13249 H 1247.24 -3.22654 -0.506159 0
M  V30 13250 H 1245.9 -3.28591 1.62552 0
M  V30 13251 H 1245.55 -5.02822 -0.13381 0
M  V30 13252 H 1245.25 -5.68242 1.49581 0
M  V30 13253 H 1246.77 -6.07147 0.64842 0
M  V30 13254 H 1248.18 -5.06543 2.68491 0
M  V30 13255 H 1246.58 -4.90355 3.45936 0
M  V30 13256 H 1247.65 -3.4933 3.36299 0
M  V30 13257 N 1248.99 -0.981699 -1.2329 0
M  V30 13258 C 1249.92 -0.542441 -2.27112 0
M  V30 13259 C 1250.91 0.425034 -1.64704 0
M  V30 13260 O 1252.09 0.318114 -1.91577 0
M  V30 13261 C 1249.22 0.154668 -3.46955 0
M  V30 13262 C 1248.17 -0.73022 -4.21725 0
M  V30 13263 C 1247.5 0.0991766 -5.34608 0
M  V30 13264 C 1248.8 -2.02166 -4.81587 0
M  V30 13265 H 1250.49 -1.41024 -2.64107 0
M  V30 13266 H 1248.04 -0.679544 -1.26957 0
M  V30 13267 H 1249.99 0.473281 -4.18734 0
M  V30 13268 H 1248.72 1.05693 -3.09025 0
M  V30 13269 H 1247.38 -1.03231 -3.51765 0
M  V30 13270 H 1247.02 1.00201 -4.92919 0
M  V30 13271 H 1246.72 -0.489788 -5.85555 0
M  V30 13272 H 1248.25 0.412141 -6.09207 0
M  V30 13273 H 1249.66 -1.76773 -5.45366 0
M  V30 13274 H 1248.06 -2.55851 -5.42826 0
M  V30 13275 H 1249.13 -2.70766 -4.02261 0
M  V30 13276 N 1250.47 1.3842 -0.753509 0
M  V30 13277 C 1251.41 2.28079 -0.0741683 0
M  V30 13278 C 1252.38 1.45372 0.728398 0
M  V30 13279 O 1253.57 1.74737 0.707043 0
M  V30 13280 C 1250.69 3.26475 0.901764 0
M  V30 13281 C 1249.74 4.26097 0.185438 0
M  V30 13282 S 1250.57 5.23791 -1.11372 0
M  V30 13283 C 1251.73 6.25741 -0.140861 0
M  V30 13284 H 1251.96 2.85349 -0.834475 0
M  V30 13285 H 1249.5 1.4442 -0.546089 0
M  V30 13286 H 1251.45 3.83678 1.4595 0
M  V30 13287 H 1250.11 2.68189 1.63504 0
M  V30 13288 H 1249.31 4.95447 0.924578 0
M  V30 13289 H 1248.91 3.72789 -0.300772 0
M  V30 13290 H 1251.2 6.73945 0.693174 0
M  V30 13291 H 1252.14 7.03543 -0.80202 0
M  V30 13292 H 1252.55 5.6399 0.2398 0
M  V30 13293 N 1251.95 0.502579 1.49372 0
M  V30 13294 C 1252.88 -0.264307 2.31999 0
M  V30 13295 C 1253.86 -0.96107 1.40348 0
M  V30 13296 O 1255.05 -0.952167 1.69255 0
M  V30 13297 C 1252.18 -1.32822 3.20898 0
M  V30 13298 C 1251.13 -0.751236 4.21355 0
M  V30 13299 C 1250.46 -1.91578 4.99201 0
M  V30 13300 C 1251.76 0.258764 5.21659 0
M  V30 13301 H 1253.45 0.425391 2.96363 0
M  V30 13302 H 1251 0.206022 1.42519 0
M  V30 13303 H 1252.95 -1.87245 3.77515 0
M  V30 13304 H 1251.67 -2.04712 2.54481 0
M  V30 13305 H 1250.33 -0.228743 3.65886 0
M  V30 13306 H 1249.98 -2.62241 4.2923 0
M  V30 13307 H 1249.68 -1.53578 5.67175 0
M  V30 13308 H 1251.2 -2.46432 5.58663 0
M  V30 13309 H 1252.62 -0.197385 5.7296 0
M  V30 13310 H 1251.02 0.554681 5.97531 0
M  V30 13311 H 1252.09 1.1741 4.70471 0
M  V30 13312 N 1253.43 -1.55816 0.23648 0
M  V30 13313 C 1254.38 -2.20938 -0.66745 0
M  V30 13314 C 1255.35 -1.16982 -1.17917 0
M  V30 13315 O 1256.53 -1.45392 -1.23555 0
M  V30 13316 C 1253.67 -2.90469 -1.86337 0
M  V30 13317 C 1252.78 -4.09056 -1.38915 0
M  V30 13318 C 1251.92 -4.6633 -2.54382 0
M  V30 13319 C 1250.96 -5.77187 -2.0377 0
M  V30 13320 N 1250.09 -6.28688 -3.12564 0
M  V30 13321 H 1254.93 -2.97814 -0.105411 0
M  V30 13322 H 1252.47 -1.47045 -0.0402712 0
M  V30 13323 H 1254.43 -3.28975 -2.56576 0
M  V30 13324 H 1253.06 -2.16086 -2.39806 0
M  V30 13325 H 1252.11 -3.75934 -0.581173 0
M  V30 13326 H 1253.42 -4.89115 -0.978152 0
M  V30 13327 H 1252.58 -5.07355 -3.32679 0
M  V30 13328 H 1251.32 -3.85464 -2.98778 0
M  V30 13329 H 1250.32 -5.35648 -1.23939 0
M  V30 13330 H 1251.55 -6.59896 -1.60355 0
M  V30 13331 H 1249.49 -5.50731 -3.56414 0
M  V30 13332 H 1249.41 -7.03911 -2.75762 0
M  V30 13333 H 1250.68 -6.74371 -3.90952 0
M  V30 13334 N 1254.91 0.036755 -1.57557 0
M  V30 13335 C 1256.32 0.392264 -1.54704 0
M  V30 13336 C 1256.52 1.77076 -0.96157 0
M  V30 13337 O 1255.58 2.45766 -0.579263 0
M  V30 13338 C 1256.89 0.301168 -2.99188 0
M  V30 13339 C 1258.44 0.378813 -3.10699 0
M  V30 13340 C 1258.91 0.317249 -4.569 0
M  V30 13341 N 1260.41 0.376277 -4.61669 0
M  V30 13342 C 1261.14 0.351411 -5.72322 0
M  V30 13343 N 1260.64 0.279288 -6.92237 0
M  V30 13344 N 1262.43 0.400571 -5.60671 0
M  V30 13345 H 1254.58 -0.865455 -1.93968 0
M  V30 13346 H 1256.84 -0.328339 -0.889324 0
M  V30 13347 H 1256.55 -0.64582 -3.4572 0
M  V30 13348 H 1256.42 1.09784 -3.6087 0
M  V30 13349 H 1258.81 1.31623 -2.6412 0
M  V30 13350 H 1258.89 -0.447072 -2.51863 0
M  V30 13351 H 1258.54 -0.616469 -5.04145 0
M  V30 13352 H 1258.47 1.16114 -5.13639 0
M  V30 13353 H 1260.96 0.434843 -3.7539 0
M  V30 13354 H 1261.27 0.265202 -7.72345 0
M  V30 13355 H 1259.61 0.24545 -6.94566 0
M  V30 13356 H 1262.81 0.454854 -4.65885 0
M  V30 13357 H 1262.98 0.377724 -6.46898 0
M  V30 13358 N 1256.39 1.54543 0.308881 0
M  V30 13359 C 1257.62 1.77174 1.06268 0
M  V30 13360 C 1258.02 0.527461 1.81699 0
M  V30 13361 O 1257.37 -0.512027 1.7642 0
M  V30 13362 C 1257.43 2.92115 2.09545 0
M  V30 13363 C 1257.09 4.30492 1.5338 0
M  V30 13364 C 1258.09 5.1081 0.967923 0
M  V30 13365 C 1255.77 4.77074 1.5718 0
M  V30 13366 C 1257.77 6.35827 0.447517 0
M  V30 13367 C 1255.46 6.02055 1.04753 0
M  V30 13368 C 1256.45 6.81266 0.486345 0
M  V30 13369 O 1256.14 8.03894 -0.0300055 0
M  V30 13370 H 1255.87 0.594773 0.321281 0
M  V30 13371 H 1258.43 2.02289 0.356136 0
M  V30 13372 H 1256.66 2.62606 2.83857 0
M  V30 13373 H 1258.35 3.02394 2.70763 0
M  V30 13374 H 1259.11 4.7597 0.931523 0
M  V30 13375 H 1254.99 4.15453 1.998 0
M  V30 13376 H 1258.54 6.97599 0.00884212 0
M  V30 13377 H 1254.43 6.36383 1.08105 0
M  V30 13378 H 1255.2 8.18457 0.0840381 0
M  V30 13379 N 1257.86 -0.571685 1.46866 0
M  V30 13380 C 1259.11 -1.32574 1.5201 0
M  V30 13381 C 1259.43 -1.94762 0.180838 0
M  V30 13382 O 1260.63 -2.71276 0.110158 0
M  V30 13383 C 1259.09 -2.40331 2.67897 0
M  V30 13384 C 1258.7 -1.84398 4.08291 0
M  V30 13385 C 1260.44 -3.17009 2.82321 0
M  V30 13386 C 1258.35 -2.89849 5.15501 0
M  V30 13387 H 1257.28 -0.498428 0.565761 0
M  V30 13388 H 1259.93 -0.608853 1.73105 0
M  V30 13389 H 1258.31 -3.14869 2.40153 0
M  V30 13390 H 1259.48 -1.16329 4.45875 0
M  V30 13391 H 1257.8 -1.20351 3.98628 0
M  V30 13392 H 1260.4 -3.95729 3.59587 0
M  V30 13393 H 1260.74 -3.70292 1.90236 0
M  V30 13394 H 1261.27 -2.4958 3.09765 0
M  V30 13395 H 1258.01 -2.4144 6.09415 0
M  V30 13396 H 1257.53 -3.56372 4.82451 0
M  V30 13397 H 1259.21 -3.53603 5.41825 0
M  V30 13398 N 1259.34 -1.34755 -0.817236 0
M  V30 13399 C 1260.27 -1.29452 -1.94331 0
M  V30 13400 C 1261.25 -0.170902 -1.69239 0
M  V30 13401 O 1262.44 -0.364173 -1.90755 0
M  V30 13402 C 1259.57 -1.05497 -3.30889 0
M  V30 13403 C 1258.52 -2.14386 -3.70436 0
M  V30 13404 C 1257.85 -1.75612 -5.05039 0
M  V30 13405 C 1259.15 -3.56265 -3.81933 0
M  V30 13406 H 1260.84 -2.23672 -1.99025 0
M  V30 13407 H 1258.39 -1.07674 -0.956159 0
M  V30 13408 H 1260.34 -1.0043 -4.09257 0
M  V30 13409 H 1259.06 -0.0772059 -3.26509 0
M  V30 13410 H 1257.72 -2.18532 -2.94345 0
M  V30 13411 H 1257.37 -0.764809 -4.97152 0
M  V30 13412 H 1257.07 -2.48495 -5.3247 0
M  V30 13413 H 1258.6 -1.72051 -5.85859 0
M  V30 13414 H 1260.01 -3.545 -4.50558 0
M  V30 13415 H 1258.41 -4.27818 -4.20822 0
M  V30 13416 H 1259.48 -3.93192 -2.83775 0
M  V30 13417 N 1260.82 1.03812 -1.18578 0
M  V30 13418 C 1261.77 2.11883 -0.915115 0
M  V30 13419 C 1262.74 1.65453 0.146479 0
M  V30 13420 O 1263.92 1.90799 0.00630058 0
M  V30 13421 C 1261.06 3.42157 -0.449755 0
M  V30 13422 C 1260.17 4.02185 -1.57706 0
M  V30 13423 C 1259.31 5.20431 -1.06417 0
M  V30 13424 C 1258.35 5.72496 -2.16599 0
M  V30 13425 N 1257.49 6.82027 -1.66685 0
M  V30 13426 H 1262.33 2.34373 -1.84047 0
M  V30 13427 H 1259.86 1.14962 -0.917728 0
M  V30 13428 H 1261.82 4.16888 -0.161407 0
M  V30 13429 H 1260.45 3.19806 0.438622 0
M  V30 13430 H 1259.5 3.24757 -1.98083 0
M  V30 13431 H 1260.81 4.36851 -2.40754 0
M  V30 13432 H 1259.97 6.02286 -0.730497 0
M  V30 13433 H 1258.71 4.87276 -0.203301 0
M  V30 13434 H 1257.71 4.8926 -2.50808 0
M  V30 13435 H 1258.94 6.07694 -3.03126 0
M  V30 13436 H 1256.88 6.50742 -0.828916 0
M  V30 13437 H 1256.8 7.1577 -2.43329 0
M  V30 13438 H 1258.07 7.67499 -1.36253 0
M  V30 13439 N 1262.3 0.988223 1.22768 0
M  V30 13440 C 1263.52 0.679426 1.95955 0
M  V30 13441 C 1263.95 -0.748483 1.72567 0
M  V30 13442 O 1263.31 -1.51097 1.00197 0
M  V30 13443 C 1263.35 0.985284 3.46878 0
M  V30 13444 O 1262.46 0.0814607 4.1232 0
M  V30 13445 H 1261.8 0.254749 0.613188 0
M  V30 13446 H 1264.33 1.32393 1.55991 0
M  V30 13447 H 1264.34 0.925198 3.97371 0
M  V30 13448 H 1263.01 2.02581 3.63227 0
M  V30 13449 H 1261.59 0.196629 3.72381 0
M  V30 13450 N 1263.78 -1.38018 0.760839 0
M  V30 13451 C 1264.71 -2.32995 0.153557 0
M  V30 13452 C 1265.69 -1.55234 -0.695448 0
M  V30 13453 O 1266.87 -1.8352 -0.635148 0
M  V30 13454 C 1264 -3.39437 -0.734811 0
M  V30 13455 C 1262.96 -4.27998 0.0120287 0
M  V30 13456 C 1262.28 -5.25359 -0.995067 0
M  V30 13457 C 1263.58 -5.08687 1.18468 0
M  V30 13458 H 1265.28 -2.8403 0.946956 0
M  V30 13459 H 1262.82 -1.36562 0.456816 0
M  V30 13460 H 1264.77 -4.0485 -1.16938 0
M  V30 13461 H 1263.5 -2.86901 -1.56061 0
M  V30 13462 H 1262.16 -3.64102 0.427254 0
M  V30 13463 H 1261.81 -4.69108 -1.81512 0
M  V30 13464 H 1261.51 -5.85469 -0.499969 0
M  V30 13465 H 1263.03 -5.93648 -1.4288 0
M  V30 13466 H 1264.44 -5.67299 0.8273 0
M  V30 13467 H 1262.84 -5.78068 1.61112 0
M  V30 13468 H 1263.91 -4.42 1.99409 0
M  V30 13469 N 1265.25 -0.510493 -1.49103 0
M  V30 13470 C 1266.16 0.267176 -2.33074 0
M  V30 13471 C 1267.18 0.958117 -1.45245 0
M  V30 13472 O 1268.36 0.937399 -1.78255 0
M  V30 13473 C 1265.42 1.31212 -3.20911 0
M  V30 13474 C 1264.48 0.633613 -4.24598 0
M  V30 13475 C 1263.71 1.62878 -5.08239 0
M  V30 13476 O 1263.94 2.85958 -4.93543 0
M  V30 13477 O 1262.87 1.17887 -5.90242 0
M  V30 13478 H 1266.7 -0.420384 -3.00776 0
M  V30 13479 H 1264.28 -0.271683 -1.46909 0
M  V30 13480 H 1266.16 1.91647 -3.75299 0
M  V30 13481 H 1264.84 1.98244 -2.55892 0
M  V30 13482 H 1263.75 -0.0107246 -3.74098 0
M  V30 13483 H 1265.08 0.0055777 -4.922 0
M  V30 13484 N 1266.73 1.55688 -0.24474 0
M  V30 13485 C 1267.66 2.24272 0.64995 0
M  V30 13486 C 1268.64 1.22226 1.183 0
M  V30 13487 O 1269.83 1.50873 1.22274 0
M  V30 13488 C 1266.96 2.94053 1.84798 0
M  V30 13489 C 1265.91 4.02769 1.44779 0
M  V30 13490 C 1265.24 4.59965 2.72647 0
M  V30 13491 C 1266.54 5.18601 0.62047 0
M  V30 13492 H 1268.23 2.99298 0.0780654 0
M  V30 13493 H 1265.78 1.43955 0.0361069 0
M  V30 13494 H 1267.73 3.40732 2.47951 0
M  V30 13495 H 1266.45 2.16511 2.44521 0
M  V30 13496 H 1265.11 3.56856 0.839609 0
M  V30 13497 H 1264.76 3.79126 3.30564 0
M  V30 13498 H 1264.46 5.33352 2.46596 0
M  V30 13499 H 1265.99 5.09376 3.36703 0
M  V30 13500 H 1267.4 5.61519 1.15625 0
M  V30 13501 H 1265.8 5.98364 0.456097 0
M  V30 13502 H 1266.87 4.83503 -0.367798 0
M  V30 13503 N 1268.21 -0.0283989 1.57574 0
M  V30 13504 C 1269.46 -0.717656 1.88929 0
M  V30 13505 C 1269.78 -1.7586 0.842517 0
M  V30 13506 O 1269.05 -1.95509 -0.123774 0
M  V30 13507 H 1267.63 -0.268051 0.69725 0
M  V30 13508 H 1270.29 0.00580691 1.94899 0
M  V30 13509 H 1269.39 -1.2068 2.87824 0
M  V30 13510 N 1269.69 -1.54705 -0.300681 0
M  V30 13511 C 1270.92 -1.77993 -1.0548 0
M  V30 13512 C 1271.33 -0.539574 -1.80926 0
M  V30 13513 O 1270.69 0.490597 -1.75782 0
M  V30 13514 C 1270.74 -2.98774 -2.0351 0
M  V30 13515 O 1270.46 -4.18016 -1.31126 0
M  V30 13516 C 1271.96 -3.34452 -2.90958 0
M  V30 13517 H 1269.18 -0.593628 -0.312805 0
M  V30 13518 H 1271.72 -2.01656 -0.339858 0
M  V30 13519 H 1269.88 -2.77318 -2.70506 0
M  V30 13520 H 1270.29 -4.86113 -1.96963 0
M  V30 13521 H 1271.77 -4.22206 -3.55593 0
M  V30 13522 H 1272.24 -2.52622 -3.59275 0
M  V30 13523 H 1272.85 -3.58069 -2.29493 0
M  V30 13524 N 1271.17 0.563888 -1.47167 0
M  V30 13525 C 1272.39 1.35176 -1.57297 0
M  V30 13526 C 1272.82 1.86794 -0.221235 0
M  V30 13527 O 1272.17 1.62606 0.801809 0
M  V30 13528 C 1272.22 2.50225 -2.59654 0
M  V30 13529 O 1271.33 3.5225 -2.14461 0
M  V30 13530 H 1270.67 0.401795 -0.528637 0
M  V30 13531 H 1273.2 0.682137 -1.92894 0
M  V30 13532 H 1273.21 2.96886 -2.79862 0
M  V30 13533 H 1271.88 2.1201 -3.57805 0
M  V30 13534 H 1270.46 3.1194 -2.04323 0
M  V30 13535 N 1272.64 1.35187 0.810078 0
M  V30 13536 C 1273.55 1.29926 1.95337 0
M  V30 13537 C 1274.57 0.204748 1.72791 0
M  V30 13538 O 1275.75 0.433507 1.96679 0
M  V30 13539 C 1272.81 1.06736 3.29861 0
M  V30 13540 C 1271.87 2.25466 3.65326 0
M  V30 13541 C 1271.11 2.03373 4.93432 0
M  V30 13542 O 1271.33 0.998419 5.61594 0
M  V30 13543 O 1270.26 2.90648 5.27075 0
M  V30 13544 H 1274.09 2.26137 2.02721 0
M  V30 13545 H 1271.67 1.15523 0.947354 0
M  V30 13546 H 1273.56 0.956367 4.10404 0
M  V30 13547 H 1272.23 0.135735 3.23415 0
M  V30 13548 H 1271.14 2.42129 2.85175 0
M  V30 13549 H 1272.47 3.17063 3.76473 0
M  V30 13550 N 1274.12 -1.03182 1.19127 0
M  V30 13551 C 1275.05 -2.11462 0.884098 0
M  V30 13552 C 1276.07 -1.62342 -0.121984 0
M  V30 13553 O 1277.26 -1.78179 0.107038 0
M  V30 13554 C 1274.36 -3.37559 0.301227 0
M  V30 13555 C 1273.53 -4.15878 1.35514 0
M  V30 13556 C 1272.59 -5.20291 0.786349 0
M  V30 13557 O 1271.61 -5.50069 1.46331 0
M  V30 13558 N 1272.82 -5.79038 -0.411803 0
M  V30 13559 H 1275.58 -2.38405 1.81613 0
M  V30 13560 H 1273.14 -1.19449 1.09287 0
M  V30 13561 H 1275.13 -4.04593 -0.0930685 0
M  V30 13562 H 1273.7 -3.07987 -0.535022 0
M  V30 13563 H 1272.92 -3.44036 1.9244 0
M  V30 13564 H 1274.21 -4.64993 2.06539 0
M  V30 13565 H 1273.61 -5.57158 -0.979353 0
M  V30 13566 H 1272.17 -6.47495 -0.747912 0
M  V30 13567 N 1275.6 -0.99472 -1.22242 0
M  V30 13568 C 1276.51 -0.555502 -2.27928 0
M  V30 13569 C 1277.53 0.396584 -1.6942 0
M  V30 13570 O 1278.7 0.262965 -1.99676 0
M  V30 13571 C 1275.77 0.121121 -3.46488 0
M  V30 13572 C 1274.83 -0.874155 -4.20306 0
M  V30 13573 C 1274.06 -0.229726 -5.33205 0
M  V30 13574 O 1274.28 0.975935 -5.61989 0
M  V30 13575 O 1273.22 -0.935501 -5.94586 0
M  V30 13576 H 1277.04 -1.4348 -2.6767 0
M  V30 13577 H 1274.63 -0.763061 -1.28444 0
M  V30 13578 H 1276.51 0.500043 -4.18423 0
M  V30 13579 H 1275.19 0.974959 -3.08668 0
M  V30 13580 H 1274.09 -1.30404 -3.50636 0
M  V30 13581 H 1275.43 -1.69725 -4.62011 0
M  V30 13582 N 1277.08 1.37613 -0.768148 0
M  V30 13583 C 1277.99 2.34103 -0.152649 0
M  V30 13584 C 1279 1.6 0.683811 0
M  V30 13585 O 1280.18 1.92112 0.604572 0
M  V30 13586 C 1277.25 3.39164 0.718954 0
M  V30 13587 C 1276.31 4.29092 -0.13355 0
M  V30 13588 C 1275.54 5.29135 0.696547 0
M  V30 13589 O 1275.76 5.36618 1.93383 0
M  V30 13590 O 1274.7 6.01804 0.107652 0
M  V30 13591 H 1278.52 2.88462 -0.949899 0
M  V30 13592 H 1276.11 1.39711 -0.529252 0
M  V30 13593 H 1277.99 4.03454 1.21665 0
M  V30 13594 H 1276.66 2.87137 1.49445 0
M  V30 13595 H 1275.57 3.67914 -0.677528 0
M  V30 13596 H 1276.9 4.84413 -0.872048 0
M  V30 13597 N 1278.56 0.518393 1.4883 0
M  V30 13598 C 1279.5 -0.250684 2.29435 0
M  V30 13599 C 1280.47 -0.944481 1.36634 0
M  V30 13600 O 1281.66 -0.947766 1.65596 0
M  V30 13601 C 1278.8 -1.29871 3.1973 0
M  V30 13602 C 1277.91 -0.61493 4.27601 0
M  V30 13603 C 1277.05 -1.64489 5.05091 0
M  V30 13604 C 1276.09 -0.943932 6.04778 0
M  V30 13605 N 1275.22 -1.91889 6.75369 0
M  V30 13606 H 1280.06 0.44288 2.94691 0
M  V30 13607 H 1277.6 0.230246 1.45287 0
M  V30 13608 H 1279.56 -1.91851 3.70471 0
M  V30 13609 H 1278.19 -1.96081 2.56422 0
M  V30 13610 H 1277.24 0.118552 3.80215 0
M  V30 13611 H 1278.55 -0.063994 4.98759 0
M  V30 13612 H 1277.71 -2.33928 5.59788 0
M  V30 13613 H 1276.44 -2.2297 4.33746 0
M  V30 13614 H 1275.45 -0.235407 5.49296 0
M  V30 13615 H 1276.67 -0.365383 6.78116 0
M  V30 13616 H 1274.62 -2.493 6.06783 0
M  V30 13617 H 1274.54 -1.41909 7.42562 0
M  V30 13618 H 1275.81 -2.60563 7.34661 0
M  V30 13619 N 1280.03 -1.55556 0.252993 0
M  V30 13620 C 1281.28 -1.9909 -0.37005 0
M  V30 13621 C 1281.61 -1.1412 -1.57502 0
M  V30 13622 O 1280.86 -0.193471 -1.94741 0
M  V30 13623 C 1281.16 -3.47925 -0.817484 0
M  V30 13624 C 1280.83 -4.50027 0.280398 0
M  V30 13625 C 1279.49 -4.77669 0.581914 0
M  V30 13626 C 1281.84 -5.11096 1.02129 0
M  V30 13627 C 1279.17 -5.63652 1.62829 0
M  V30 13628 C 1281.52 -5.98215 2.05723 0
M  V30 13629 C 1280.19 -6.24186 2.36533 0
M  V30 13630 H 1279.46 -0.728522 -0.135411 0
M  V30 13631 H 1282.1 -1.88046 0.36209 0
M  V30 13632 H 1280.41 -3.56333 -1.62893 0
M  V30 13633 H 1282.11 -3.79001 -1.30993 0
M  V30 13634 H 1278.7 -4.28585 0.0352579 0
M  V30 13635 H 1282.88 -4.89784 0.801603 0
M  V30 13636 H 1278.14 -5.82028 1.87227 0
M  V30 13637 H 1282.31 -6.44575 2.6362 0
M  V30 13638 H 1279.94 -6.90607 3.17752 0
M  V30 13639 N 1281.51 0.0200419 -1.57587 0
M  V30 13640 C 1282.46 1.01784 -2.07144 0
M  V30 13641 C 1283.43 1.3537 -0.962501 0
M  V30 13642 O 1284.61 1.45553 -1.23365 0
M  V30 13643 C 1281.75 2.31091 -2.56302 0
M  V30 13644 C 1280.87 2.03584 -3.81022 0
M  V30 13645 C 1280 3.26827 -4.18757 0
M  V30 13646 C 1279.04 2.94915 -5.36369 0
M  V30 13647 N 1278.18 4.10636 -5.69493 0
M  V30 13648 H 1283.02 0.588288 -2.92136 0
M  V30 13649 H 1280.56 0.278848 -1.44433 0
M  V30 13650 H 1282.51 3.06656 -2.82874 0
M  V30 13651 H 1281.14 2.71752 -1.74215 0
M  V30 13652 H 1280.2 1.18475 -3.6148 0
M  V30 13653 H 1281.51 1.76049 -4.66699 0
M  V30 13654 H 1280.66 4.10753 -4.46505 0
M  V30 13655 H 1279.4 3.57483 -3.31749 0
M  V30 13656 H 1278.41 2.09392 -5.08365 0
M  V30 13657 H 1279.63 2.65528 -6.25037 0
M  V30 13658 H 1277.58 4.41226 -4.85444 0
M  V30 13659 H 1277.49 3.86556 -6.497 0
M  V30 13660 H 1278.76 4.95409 -6.01822 0
M  V30 13661 N 1282.99 1.54862 0.292472 0
M  V30 13662 C 1283.94 1.86403 1.36098 0
M  V30 13663 C 1284.91 0.713694 1.49985 0
M  V30 13664 O 1286.09 0.963134 1.64707 0
M  V30 13665 C 1283.23 2.1244 2.71962 0
M  V30 13666 C 1282.35 3.40038 2.66454 0
M  V30 13667 C 1281.48 3.55875 3.94368 0
M  V30 13668 C 1280.52 4.77235 3.83293 0
M  V30 13669 N 1279.66 4.89832 5.03 0
M  V30 13670 H 1284.5 2.77546 1.085 0
M  V30 13671 H 1282.03 1.37427 0.524607 0
M  V30 13672 H 1283.99 2.25533 3.50985 0
M  V30 13673 H 1282.62 1.24554 2.97802 0
M  V30 13674 H 1281.67 3.35521 1.79248 0
M  V30 13675 H 1282.99 4.29188 2.54163 0
M  V30 13676 H 1282.14 3.68679 4.8183 0
M  V30 13677 H 1280.88 2.64874 4.09503 0
M  V30 13678 H 1279.88 4.64455 2.94214 0
M  V30 13679 H 1281.11 5.69651 3.69695 0
M  V30 13680 H 1279.05 4.01756 5.18582 0
M  V30 13681 H 1278.97 5.72996 4.93165 0
M  V30 13682 H 1280.24 5.07001 5.92089 0
M  V30 13683 N 1284.47 -0.556076 1.47464 0
M  V30 13684 C 1285.43 -1.64515 1.59586 0
M  V30 13685 C 1286.43 -1.53751 0.470881 0
M  V30 13686 O 1287.62 -1.57889 0.735979 0
M  V30 13687 C 1284.75 -3.0406 1.54143 0
M  V30 13688 H 1285.95 -1.55116 2.56669 0
M  V30 13689 H 1283.5 -0.776087 1.35671 0
M  V30 13690 H 1284.23 -3.18991 0.584395 0
M  V30 13691 H 1284.02 -3.13282 2.3579 0
M  V30 13692 H 1285.51 -3.8329 1.65766 0
M  V30 13693 N 1285.95 -1.35615 -0.802897 0
M  V30 13694 C 1286.91 -1.28705 -1.89651 0
M  V30 13695 C 1287.91 -0.197681 -1.5958 0
M  V30 13696 O 1289.1 -0.451618 -1.68244 0
M  V30 13697 C 1286.23 -0.991941 -3.26149 0
M  V30 13698 H 1287.43 -2.25951 -1.97196 0
M  V30 13699 H 1284.98 -1.20192 -0.999179 0
M  V30 13700 H 1285.71 -0.0235051 -3.24291 0
M  V30 13701 H 1285.5 -1.78013 -3.49362 0
M  V30 13702 H 1286.99 -0.969298 -4.06195 0
M  V30 13703 N 1287.43 1.02549 -1.19673 0
M  V30 13704 C 1288.7 1.73106 -0.9107 0
M  V30 13705 C 1289.08 2.02897 0.582769 0
M  V30 13706 O 1288.43 1.68633 1.54192 0
M  V30 13707 C 1288.64 3.00535 -1.77425 0
M  V30 13708 C 1289.99 3.73976 -2.01065 0
M  V30 13709 O 1291.01 3.1047 -1.74605 0
M  V30 13710 O 1289.87 4.88153 -2.457 0
M  V30 13711 H 1286.97 0.754006 -0.339711 0
M  V30 13712 H 1289.51 1.08477 -1.30502 0
M  V30 13713 H 1288.28 2.74773 -2.78595 0
M  V30 13714 H 1287.91 3.72904 -1.37943 0
M  V30 13715 N 1288.9 1.00119 1.21713 0
M  V30 13716 C 1289.83 0.578504 2.2622 0
M  V30 13717 C 1290.81 -0.398777 1.6536 0
M  V30 13718 O 1292 -0.287596 1.92059 0
M  V30 13719 C 1289.13 -0.0994508 3.47158 0
M  V30 13720 C 1288.08 0.79722 4.2051 0
M  V30 13721 C 1287.41 -0.0141125 5.34698 0
M  V30 13722 C 1288.71 2.09802 4.7831 0
M  V30 13723 H 1290.4 1.45208 2.6183 0
M  V30 13724 H 1287.95 0.699656 1.2586 0
M  V30 13725 H 1289.9 -0.406605 4.19434 0
M  V30 13726 H 1288.63 -1.00763 3.10667 0
M  V30 13727 H 1287.29 1.08814 3.50079 0
M  V30 13728 H 1286.93 -0.923468 4.9445 0
M  V30 13729 H 1286.63 0.582883 5.84702 0
M  V30 13730 H 1288.16 -0.31517 6.09786 0
M  V30 13731 H 1289.57 1.85427 5.42485 0
M  V30 13732 H 1287.97 2.64455 5.38687 0
M  V30 13733 H 1289.04 2.77132 3.97902 0
M  V30 13734 N 1290.38 -1.37203 0.775435 0
M  V30 13735 C 1291.33 -2.32102 0.152051 0
M  V30 13736 C 1292.32 -1.55117 -0.680806 0
M  V30 13737 O 1293.53 -1.70486 -0.577455 0
M  V30 13738 H 1289.9 -0.751386 0.0303853 0
M  V30 13739 H 1291.88 -2.82259 0.968121 0
M  V30 13740 C 1290.62 -3.40378 -0.709788 0
M  V30 13741 H 1289.95 -3.99723 -0.0782879 0
M  V30 13742 H 1291.39 -4.09134 -1.11288 0
M  V30 13743 C 1289.85 -2.80769 -1.862 0
M  V30 13744 O 1290.38 -2.71813 -2.95771 0
M  V30 13745 N 1288.58 -2.38259 -1.66376 0
M  V30 13746 H 1288.13 -2.45743 -0.772531 0
M  V30 13747 H 1288.09 -1.98721 -2.43634 0
M  V30 13748 N 1291.86 -0.526279 -1.48553 0
M  V30 13749 C 1293.28 -0.183886 -1.58537 0
M  V30 13750 C 1293.48 1.31272 -1.52872 0
M  V30 13751 O 1292.53 2.09069 -1.41585 0
M  V30 13752 C 1293.84 -0.78313 -2.90323 0
M  V30 13753 C 1295.39 -0.751527 -3.03844 0
M  V30 13754 C 1295.87 -1.32928 -4.38285 0
M  V30 13755 N 1297.36 -1.29109 -4.44843 0
M  V30 13756 C 1298.09 -1.70806 -5.47369 0
M  V30 13757 N 1297.59 -2.20215 -6.56869 0
M  V30 13758 N 1299.38 -1.62065 -5.3823 0
M  V30 13759 H 1291.53 -1.499 -1.50478 0
M  V30 13760 H 1293.8 -0.623294 -0.714289 0
M  V30 13761 H 1293.5 -1.83371 -3.00113 0
M  V30 13762 H 1293.38 -0.25808 -3.76316 0
M  V30 13763 H 1295.76 0.290282 -2.93669 0
M  V30 13764 H 1295.84 -1.314 -2.19471 0
M  V30 13765 H 1295.49 -2.37 -4.49214 0
M  V30 13766 H 1295.42 -0.742516 -5.21339 0
M  V30 13767 H 1297.91 -0.929348 -3.66294 0
M  V30 13768 H 1298.22 -2.50035 -7.31233 0
M  V30 13769 H 1296.57 -2.24206 -6.57842 0
M  V30 13770 H 1299.76 -1.23265 -4.51579 0
M  V30 13771 H 1299.93 -1.94883 -6.18001 0
M  V30 13772 N 1293.34 1.5542 -0.261239 0
M  V30 13773 C 1294.61 1.91243 0.41056 0
M  V30 13774 C 1294.99 1.1838 1.74784 0
M  V30 13775 O 1294.34 0.306013 2.26442 0
M  V30 13776 C 1294.55 3.44404 0.56453 0
M  V30 13777 C 1295.9 4.15927 0.853827 0
M  V30 13778 O 1296.92 3.50222 0.649861 0
M  V30 13779 O 1295.78 5.32175 1.24308 0
M  V30 13780 H 1292.88 0.796491 0.222555 0
M  V30 13781 H 1295.42 1.66912 -0.306367 0
M  V30 13782 H 1294.2 3.89478 -0.377134 0
M  V30 13783 H 1293.82 3.74644 1.33145 0
M  V30 13784 N 1294.82 -0.0116844 1.57596 0
M  V30 13785 C 1295.76 -1.02514 2.08791 0
M  V30 13786 C 1296.76 -1.36341 1.00536 0
M  V30 13787 O 1297.96 -1.35042 1.19011 0
M  V30 13788 H 1294.34 -0.348201 0.666528 0
M  V30 13789 H 1296.31 -0.567698 2.9295 0
M  V30 13790 C 1295.06 -2.312 2.59696 0
M  V30 13791 H 1294.38 -2.06036 3.42621 0
M  V30 13792 H 1295.82 -3.00417 2.99208 0
M  V30 13793 C 1294.28 -3.01372 1.50586 0
M  V30 13794 O 1294.81 -3.91896 0.882046 0
M  V30 13795 N 1293.02 -2.62997 1.23616 0
M  V30 13796 H 1292.56 -1.89466 1.74529 0
M  V30 13797 H 1292.52 -3.10264 0.508289 0
M  V30 13798 N 1296.29 -1.55015 -0.284256 0
M  V30 13799 C 1297.24 -1.87122 -1.35107 0
M  V30 13800 C 1298.21 -0.721638 -1.49605 0
M  V30 13801 O 1299.4 -0.971855 -1.64194 0
M  V30 13802 C 1296.54 -2.1388 -2.70831 0
M  V30 13803 C 1295.65 -3.41447 -2.64647 0
M  V30 13804 C 1294.78 -3.57961 -3.92476 0
M  V30 13805 C 1293.82 -4.79261 -3.80757 0
M  V30 13806 N 1292.96 -4.92492 -5.00395 0
M  V30 13807 H 1297.8 -2.78117 -1.07027 0
M  V30 13808 H 1295.34 -1.37704 -0.517311 0
M  V30 13809 H 1297.29 -2.27391 -3.49784 0
M  V30 13810 H 1295.92 -1.26132 -2.97137 0
M  V30 13811 H 1294.98 -3.36467 -1.77466 0
M  V30 13812 H 1296.29 -4.3053 -2.51884 0
M  V30 13813 H 1295.44 -3.71229 -4.79868 0
M  V30 13814 H 1294.18 -2.67042 -4.08093 0
M  V30 13815 H 1293.19 -4.66008 -2.91747 0
M  V30 13816 H 1294.41 -5.71604 -3.66669 0
M  V30 13817 H 1292.36 -4.04501 -5.16445 0
M  V30 13818 H 1292.27 -5.75603 -4.9012 0
M  V30 13819 H 1293.54 -5.10134 -5.89392 0
M  V30 13820 N 1297.77 0.548248 -1.47757 0
M  V30 13821 C 1299.02 1.30694 -1.55071 0
M  V30 13822 C 1299.35 1.92994 -0.216075 0
M  V30 13823 O 1298.63 1.78341 0.776196 0
M  V30 13824 C 1298.91 2.41024 -2.67543 0
M  V30 13825 C 1298.76 1.83534 -4.10652 0
M  V30 13826 C 1300.08 3.42902 -2.75874 0
M  V30 13827 H 1297.2 0.47383 -0.564494 0
M  V30 13828 H 1299.84 0.612628 -1.79852 0
M  V30 13829 H 1297.99 3.00248 -2.46543 0
M  V30 13830 H 1299.66 1.28503 -4.4304 0
M  V30 13831 H 1297.91 1.14161 -4.18509 0
M  V30 13832 H 1298.58 2.63335 -4.85138 0
M  V30 13833 H 1301.05 2.9361 -2.94843 0
M  V30 13834 H 1299.93 4.17516 -3.5633 0
M  V30 13835 H 1300.19 4.02314 -1.83291 0
M  V30 13836 N 1299.25 1.36039 0.795694 0
M  V30 13837 C 1300.53 1.20474 1.54096 0
M  V30 13838 C 1300.91 -0.211691 2.10036 0
M  V30 13839 O 1300.25 -1.21656 1.93422 0
M  V30 13840 C 1300.46 2.28164 2.64087 0
M  V30 13841 C 1301.81 2.64519 3.32137 0
M  V30 13842 O 1302.84 2.2716 2.74366 0
M  V30 13843 O 1301.7 3.28796 4.36527 0
M  V30 13844 H 1298.79 0.468699 0.681359 0
M  V30 13845 H 1301.34 1.47752 0.834716 0
M  V30 13846 H 1300.11 3.23121 2.20701 0
M  V30 13847 H 1299.73 2.02217 3.42336 0
M  V30 13848 N 1300.73 -1.01913 1.20215 0
M  V30 13849 C 1301.95 -1.79613 1.03702 0
M  V30 13850 C 1302.38 -1.83591 -0.409374 0
M  V30 13851 O 1301.74 -1.26911 -1.29473 0
M  V30 13852 C 1301.78 -3.22052 1.62219 0
M  V30 13853 O 1300.89 -4.03374 0.858106 0
M  V30 13854 H 1300.23 -0.554095 0.365889 0
M  V30 13855 H 1302.76 -1.28203 1.59452 0
M  V30 13856 H 1302.77 -3.72772 1.65847 0
M  V30 13857 H 1301.44 -3.18471 2.67487 0
M  V30 13858 H 1300.02 -3.6198 0.895835 0
M  V30 13859 N 1302.21 -1.00763 -1.2118 0
M  V30 13860 C 1303.43 -0.710746 -1.94309 0
M  V30 13861 C 1303.85 0.727103 -1.74237 0
M  V30 13862 O 1303.21 1.49223 -1.05065 0
M  V30 13863 C 1303.26 -1.02562 -3.46646 0
M  V30 13864 O 1302.98 -2.40699 -3.66054 0
M  V30 13865 C 1304.48 -0.748517 -4.36935 0
M  V30 13866 H 1301.7 -0.26171 -0.617858 0
M  V30 13867 H 1304.24 -1.34639 -1.53924 0
M  V30 13868 H 1302.4 -0.435537 -3.84944 0
M  V30 13869 H 1302.81 -2.51764 -4.60125 0
M  V30 13870 H 1304.29 -1.01899 -5.42513 0
M  V30 13871 H 1304.76 0.317423 -4.38051 0
M  V30 13872 H 1305.37 -1.32033 -4.04286 0
M  V30 13873 N 1303.68 1.3679 -0.7827 0
M  V30 13874 C 1304.96 1.93639 -0.276278 0
M  V30 13875 C 1305.34 1.7153 1.23048 0
M  V30 13876 O 1304.69 1.07037 2.01879 0
M  V30 13877 C 1304.9 3.42672 -0.661586 0
M  V30 13878 C 1306.25 4.19786 -0.637538 0
M  V30 13879 O 1307.27 3.51082 -0.601645 0
M  V30 13880 O 1306.13 5.42323 -0.674408 0
M  V30 13881 H 1303.22 0.824307 -0.0666832 0
M  V30 13882 H 1305.77 1.46012 -0.864792 0
M  V30 13883 H 1304.54 3.52393 -1.70103 0
M  V30 13884 H 1304.17 3.97573 -0.0465987 0
M  V30 13885 N 1305.16 0.53415 1.48272 0
M  V30 13886 C 1306.09 -0.215037 2.32508 0
M  V30 13887 C 1307.07 -0.931083 1.42355 0
M  V30 13888 O 1308.26 -0.916051 1.71237 0
M  V30 13889 C 1305.39 -1.25985 3.23643 0
M  V30 13890 C 1304.34 -0.661692 4.22854 0
M  V30 13891 C 1303.67 -1.80946 5.03153 0
M  V30 13892 C 1304.97 0.369358 5.20992 0
M  V30 13893 H 1306.66 0.488158 2.95394 0
M  V30 13894 H 1304.21 0.236206 1.4205 0
M  V30 13895 H 1306.16 -1.79195 3.81402 0
M  V30 13896 H 1304.89 -1.99268 2.58766 0
M  V30 13897 H 1303.54 -0.151082 3.66289 0
M  V30 13898 H 1303.19 -2.53077 4.34696 0
M  V30 13899 H 1302.89 -1.41513 5.70305 0
M  V30 13900 H 1304.42 -2.34526 5.63764 0
M  V30 13901 H 1305.83 -0.0758076 5.7325 0
M  V30 13902 H 1304.23 0.681301 5.9622 0
M  V30 13903 H 1305.3 1.27363 4.67875 0
M  V30 13904 N 1306.64 -1.55279 0.269478 0
M  V30 13905 C 1307.87 -2.03876 -0.352418 0
M  V30 13906 C 1308.28 -1.14804 -1.49885 0
M  V30 13907 O 1307.64 -0.166989 -1.81734 0
M  V30 13908 C 1307.69 -3.51634 -0.838799 0
M  V30 13909 O 1307.41 -4.37316 0.261972 0
M  V30 13910 C 1308.91 -4.16094 -1.52909 0
M  V30 13911 H 1306.13 -0.66608 -0.0811043 0
M  V30 13912 H 1308.68 -2.00551 0.399929 0
M  V30 13913 H 1306.83 -3.55421 -1.54125 0
M  V30 13914 H 1307.25 -5.24383 -0.111013 0
M  V30 13915 H 1308.72 -5.21102 -1.82089 0
M  V30 13916 H 1309.2 -3.63928 -2.45872 0
M  V30 13917 H 1309.8 -4.16293 -0.87063 0
M  V30 13918 N 1308.12 0.00332656 -1.576 0
M  V30 13919 C 1309.37 0.688044 -1.89602 0
M  V30 13920 C 1309.68 1.75121 -0.871316 0
M  V30 13921 O 1310.89 2.49032 -1.08144 0
M  V30 13922 C 1309.34 1.27494 -3.36561 0
M  V30 13923 C 1308.95 0.246771 -4.4732 0
M  V30 13924 C 1310.69 1.93804 -3.77677 0
M  V30 13925 C 1308.6 0.843471 -5.85354 0
M  V30 13926 H 1307.53 0.260747 -0.707479 0
M  V30 13927 H 1310.18 -0.0566727 -1.83412 0
M  V30 13928 H 1308.56 2.07022 -3.37577 0
M  V30 13929 H 1309.74 -0.523668 -4.57815 0
M  V30 13930 H 1308.05 -0.3157 -4.15202 0
M  V30 13931 H 1310.65 2.39347 -4.78139 0
M  V30 13932 H 1310.99 2.7672 -3.11017 0
M  V30 13933 H 1311.53 1.21015 -3.78946 0
M  V30 13934 H 1308.27 0.0531655 -6.55478 0
M  V30 13935 H 1307.79 1.58315 -5.7853 0
M  V30 13936 H 1309.46 1.34311 -6.32906 0
M  V30 13937 N 1309.6 1.55164 0.276031 0
M  V30 13938 C 1310.53 1.90844 1.34539 0
M  V30 13939 C 1311.51 0.769968 1.51676 0
M  V30 13940 O 1312.69 1.02785 1.64769 0
M  V30 13941 C 1309.82 2.17769 2.70543 0
M  V30 13942 C 1308.78 3.33592 2.68142 0
M  V30 13943 C 1308.1 3.45991 4.07669 0
M  V30 13944 C 1309.4 4.70064 2.27678 0
M  V30 13945 H 1311.1 2.80412 1.04926 0
M  V30 13946 H 1308.64 1.34918 0.503303 0
M  V30 13947 H 1310.6 2.41317 3.45462 0
M  V30 13948 H 1309.32 1.24997 3.01734 0
M  V30 13949 H 1307.98 3.10007 1.95681 0
M  V30 13950 H 1307.63 2.50691 4.36077 0
M  V30 13951 H 1307.33 4.23862 4.06958 0
M  V30 13952 H 1308.85 3.71828 4.84331 0
M  V30 13953 H 1310.26 4.93176 2.92319 0
M  V30 13954 H 1308.66 5.50829 2.38134 0
M  V30 13955 H 1309.73 4.69091 1.22808 0
M  V30 13956 N 1311.07 -0.540404 1.48045 0
M  V30 13957 C 1312.02 -1.64598 1.61791 0
M  V30 13958 C 1312.99 -1.59595 0.460301 0
M  V30 13959 O 1314.18 -1.78176 0.682482 0
M  V30 13960 C 1311.32 -3.02887 1.65389 0
M  V30 13961 C 1310.43 -3.18202 2.92184 0
M  V30 13962 C 1309.56 -4.46989 2.87009 0
M  V30 13963 C 1308.6 -4.55795 4.08555 0
M  V30 13964 N 1307.74 -5.75958 4.01518 0
M  V30 13965 H 1312.58 -1.52188 2.56208 0
M  V30 13966 H 1310.12 -0.741097 1.27068 0
M  V30 13967 H 1312.08 -3.82988 1.65457 0
M  V30 13968 H 1310.71 -3.14092 0.744703 0
M  V30 13969 H 1309.76 -2.31422 3.01907 0
M  V30 13970 H 1311.07 -3.20571 3.82146 0
M  V30 13971 H 1310.22 -5.35369 2.85421 0
M  V30 13972 H 1308.96 -4.47125 1.94759 0
M  V30 13973 H 1307.97 -3.65824 4.1043 0
M  V30 13974 H 1309.19 -4.57406 5.01953 0
M  V30 13975 H 1307.14 -5.77011 3.12081 0
M  V30 13976 H 1307.06 -5.79777 4.85175 0
M  V30 13977 H 1308.32 -6.66653 4.03972 0
M  V30 13978 N 1312.55 -1.36459 -0.788468 0
M  V30 13979 C 1313.97 -1.16893 -1.08666 0
M  V30 13980 C 1314.17 0.00633808 -2.01499 0
M  V30 13981 O 1313.22 0.671417 -2.4341 0
M  V30 13982 C 1314.54 -2.48018 -1.70022 0
M  V30 13983 C 1316.09 -2.5439 -1.82358 0
M  V30 13984 C 1316.56 -3.85605 -2.47129 0
M  V30 13985 N 1318.05 -3.86956 -2.54597 0
M  V30 13986 C 1318.79 -4.85224 -3.05525 0
M  V30 13987 N 1318.28 -5.93885 -3.56753 0
M  V30 13988 N 1320.08 -4.72643 -3.04246 0
M  V30 13989 H 1312.23 -2.11705 -0.171733 0
M  V30 13990 H 1314.49 -0.937784 -0.1388 0
M  V30 13991 H 1314.2 -3.34292 -1.09277 0
M  V30 13992 H 1314.07 -2.63894 -2.69518 0
M  V30 13993 H 1316.46 -1.68534 -2.4224 0
M  V30 13994 H 1316.54 -2.42414 -0.816651 0
M  V30 13995 H 1316.18 -4.71868 -1.87891 0
M  V30 13996 H 1316.11 -3.94878 -3.48395 0
M  V30 13997 H 1318.6 -3.08453 -2.18323 0
M  V30 13998 H 1318.92 -6.64839 -3.93966 0
M  V30 13999 H 1317.26 -5.97553 -3.54902 0
M  V30 14000 H 1320.45 -3.86883 -2.63513 0
M  V30 14001 H 1320.62 -5.49385 -3.43627 0
M  V30 14002 N 1314.03 1.01274 -1.20754 0
M  V30 14003 C 1315.26 1.78265 -1.04427 0
M  V30 14004 C 1315.67 1.84718 0.409361 0
M  V30 14005 O 1315.01 1.30195 1.29595 0
M  V30 14006 C 1315.07 3.24037 -1.55693 0
M  V30 14007 C 1314.74 3.41181 -3.04047 0
M  V30 14008 C 1315.73 3.30087 -4.0167 0
M  V30 14009 C 1313.42 3.66872 -3.43089 0
M  V30 14010 C 1315.41 3.44436 -5.36323 0
M  V30 14011 C 1313.1 3.80865 -4.77896 0
M  V30 14012 C 1314.1 3.69652 -5.74322 0
M  V30 14013 O 1313.79 3.83211 -7.06686 0
M  V30 14014 H 1313.52 0.567327 -0.367582 0
M  V30 14015 H 1316.07 1.28336 -1.60372 0
M  V30 14016 H 1314.3 3.75067 -0.941382 0
M  V30 14017 H 1315.99 3.82676 -1.35328 0
M  V30 14018 H 1316.76 3.10172 -3.72852 0
M  V30 14019 H 1312.64 3.74685 -2.68574 0
M  V30 14020 H 1316.18 3.35601 -6.1157 0
M  V30 14021 H 1312.08 4.00282 -5.06403 0
M  V30 14022 H 1312.85 4.00205 -7.13987 0
M  V30 14023 N 1315.51 1.01404 1.20644 0
M  V30 14024 C 1316.44 0.602465 2.25594 0
M  V30 14025 C 1317.42 -0.381216 1.65773 0
M  V30 14026 O 1318.61 -0.267209 1.92353 0
M  V30 14027 C 1315.74 -0.0626245 3.47244 0
M  V30 14028 C 1314.69 0.841776 4.1964 0
M  V30 14029 C 1314.02 0.0426002 5.34683 0
M  V30 14030 C 1315.32 2.14864 4.76058 0
M  V30 14031 H 1317.01 1.47977 2.60275 0
M  V30 14032 H 1314.56 0.712966 1.25111 0
M  V30 14033 H 1316.51 -0.362095 4.19841 0
M  V30 14034 H 1315.23 -0.974627 3.11719 0
M  V30 14035 H 1313.89 1.12521 3.48905 0
M  V30 14036 H 1313.54 -0.870973 4.95402 0
M  V30 14037 H 1313.24 0.644866 5.84051 0
M  V30 14038 H 1314.76 -0.250476 6.10086 0
M  V30 14039 H 1316.18 1.9117 5.40488 0
M  V30 14040 H 1314.57 2.70153 5.35852 0
M  V30 14041 H 1315.64 2.81336 3.9494 0
M  V30 14042 N 1316.99 -1.36373 0.789944 0
M  V30 14043 C 1317.92 -2.32616 0.202944 0
M  V30 14044 C 1318.9 -1.56674 -0.662364 0
M  V30 14045 O 1320.08 -1.84826 -0.596078 0
M  V30 14046 C 1317.21 -3.4092 -0.662646 0
M  V30 14047 C 1316.17 -4.27877 0.102811 0
M  V30 14048 C 1315.49 -5.27352 -0.883407 0
M  V30 14049 C 1316.79 -5.0606 1.29231 0
M  V30 14050 H 1318.49 -2.81958 1.00699 0
M  V30 14051 H 1316.03 -1.35562 0.48568 0
M  V30 14052 H 1317.99 -4.07239 -1.08324 0
M  V30 14053 H 1316.71 -2.90147 -1.4994 0
M  V30 14054 H 1315.37 -3.63114 0.504389 0
M  V30 14055 H 1315.02 -4.72853 -1.71521 0
M  V30 14056 H 1314.72 -5.86398 -0.375669 0
M  V30 14057 H 1316.24 -5.96545 -1.30256 0
M  V30 14058 H 1317.66 -5.65417 0.947446 0
M  V30 14059 H 1316.05 -5.74521 1.73338 0
M  V30 14060 H 1317.12 -4.37671 2.08739 0
M  V30 14061 N 1318.47 -0.542005 -1.47987 0
M  V30 14062 C 1319.41 0.214151 -2.29804 0
M  V30 14063 C 1320.38 0.922625 -1.38119 0
M  V30 14064 O 1321.57 0.921301 -1.67083 0
M  V30 14065 C 1318.71 1.24768 -3.21756 0
M  V30 14066 C 1317.82 0.546824 -4.28525 0
M  V30 14067 C 1316.96 1.56432 -5.07644 0
M  V30 14068 C 1315.99 0.847598 -6.06203 0
M  V30 14069 N 1315.13 1.81121 -6.78336 0
M  V30 14070 H 1319.97 -0.489707 -2.93949 0
M  V30 14071 H 1317.51 -0.253331 -1.44902 0
M  V30 14072 H 1319.47 1.85933 -3.73477 0
M  V30 14073 H 1318.1 1.91976 -2.59509 0
M  V30 14074 H 1317.15 -0.179026 -3.79978 0
M  V30 14075 H 1318.46 -0.0153623 -4.98798 0
M  V30 14076 H 1317.61 2.24992 -5.63439 0
M  V30 14077 H 1316.35 2.16041 -4.37238 0
M  V30 14078 H 1315.36 0.147989 -5.49601 0
M  V30 14079 H 1316.58 0.257454 -6.78612 0
M  V30 14080 H 1314.53 2.39615 -6.10672 0
M  V30 14081 H 1314.45 1.30077 -7.44725 0
M  V30 14082 H 1315.71 2.48842 -7.38714 0
M  V30 14083 N 1319.94 1.55134 -0.277709 0
M  V30 14084 C 1320.91 2.21327 0.595569 0
M  V30 14085 C 1321.91 1.19193 1.07933 0
M  V30 14086 O 1323.1 1.44081 0.979093 0
M  V30 14087 C 1320.23 2.88127 1.82196 0
M  V30 14088 H 1321.42 2.99895 0.0175855 0
M  V30 14089 H 1318.97 1.56274 -0.0283453 0
M  V30 14090 H 1319.71 2.13578 2.44039 0
M  V30 14091 H 1319.49 3.62974 1.48297 0
M  V30 14092 H 1320.98 3.38691 2.44291 0
M  V30 14093 N 1321.42 0.00503138 1.57599 0
M  V30 14094 C 1322.67 -0.677979 1.89964 0
M  V30 14095 C 1322.98 -1.74657 0.88059 0
M  V30 14096 O 1324.19 -2.48455 1.09463 0
M  V30 14097 C 1322.65 -1.25708 3.37232 0
M  V30 14098 C 1322.25 -0.223045 4.47444 0
M  V30 14099 C 1324 -1.91799 3.787 0
M  V30 14100 C 1321.9 -0.812416 5.85793 0
M  V30 14101 H 1320.83 -0.256991 0.708852 0
M  V30 14102 H 1323.49 0.0663988 1.8338 0
M  V30 14103 H 1321.87 -2.05228 3.3867 0
M  V30 14104 H 1323.04 0.54794 4.57531 0
M  V30 14105 H 1321.36 0.337714 4.15028 0
M  V30 14106 H 1323.95 -2.36808 4.79402 0
M  V30 14107 H 1324.3 -2.75067 3.1248 0
M  V30 14108 H 1324.83 -1.19004 3.79583 0
M  V30 14109 H 1321.57 -0.0184031 6.55497 0
M  V30 14110 H 1321.09 -1.55244 5.79361 0
M  V30 14111 H 1322.77 -1.30952 6.33609 0
M  V30 14112 N 1322.9 -1.55308 -0.267798 0
M  V30 14113 C 1324.12 -1.80524 -1.02107 0
M  V30 14114 C 1324.55 -0.579268 -1.78958 0
M  V30 14115 O 1323.91 0.471262 -1.75068 0
M  V30 14116 C 1323.96 -3.03248 -1.95123 0
M  V30 14117 O 1323.06 -2.78699 -3.03975 0
M  V30 14118 H 1322.4 -0.596518 -0.291655 0
M  V30 14119 H 1324.93 -2.0246 -0.295128 0
M  V30 14120 H 1324.94 -3.32121 -2.3698 0
M  V30 14121 H 1323.62 -3.92126 -1.386 0
M  V30 14122 H 1322.19 -2.60936 -2.66396 0
M  V30 14123 N 1324.38 0.532545 -1.4833 0
M  V30 14124 C 1325.29 1.66433 -1.65339 0
M  V30 14125 C 1326.3 1.65541 -0.535939 0
M  V30 14126 O 1327.48 1.84539 -0.806679 0
M  V30 14127 C 1324.54 3.02901 -1.68676 0
M  V30 14128 C 1323.61 3.14669 -2.92031 0
M  V30 14129 C 1322.84 4.44627 -2.95199 0
M  V30 14130 O 1323.06 5.31572 -2.06851 0
M  V30 14131 O 1322 4.60707 -3.87341 0
M  V30 14132 H 1325.82 1.5502 -2.61156 0
M  V30 14133 H 1323.41 0.705348 -1.31701 0
M  V30 14134 H 1325.29 3.84068 -1.73407 0
M  V30 14135 H 1323.96 3.14644 -0.760327 0
M  V30 14136 H 1322.87 2.32807 -2.92834 0
M  V30 14137 H 1324.2 3.07841 -3.8405 0
M  V30 14138 N 1325.86 1.36875 0.78122 0
M  V30 14139 C 1327.1 1.30886 1.53466 0
M  V30 14140 C 1327.42 -0.107218 1.95306 0
M  V30 14141 O 1328.62 -0.289525 2.69952 0
M  V30 14142 C 1327.08 2.29688 2.77076 0
M  V30 14143 C 1326.69 3.76775 2.42373 0
M  V30 14144 C 1328.43 2.32692 3.55042 0
M  V30 14145 C 1326.34 4.67332 3.62428 0
M  V30 14146 H 1325.27 0.486408 0.576128 0
M  V30 14147 H 1327.92 1.62283 0.856529 0
M  V30 14148 H 1326.3 1.91296 3.4673 0
M  V30 14149 H 1327.48 4.2395 1.80563 0
M  V30 14150 H 1325.79 3.76625 1.77602 0
M  V30 14151 H 1328.39 2.97556 4.44257 0
M  V30 14152 H 1328.73 1.33779 3.94219 0
M  V30 14153 H 1329.26 2.69743 2.92375 0
M  V30 14154 H 1326 5.67339 3.2834 0
M  V30 14155 H 1325.52 4.24868 4.23376 0
M  V30 14156 H 1327.2 4.84005 4.29358 0
M  V30 14157 N 1327.33 -1.00632 1.21289 0
M  V30 14158 C 1328.74 -1.55838 1.02817 0
M  V30 14159 C 1329.1 -1.91816 -0.412425 0
M  V30 14160 O 1328.22 -1.73342 -1.29543 0
M  V30 14161 C 1328.82 -2.83168 1.86014 0
M  V30 14162 C 1327.37 -3.34865 1.71879 0
M  V30 14163 C 1326.52 -2.0807 1.83309 0
M  V30 14164 H 1329.47 -0.828939 1.3533 0
M  V30 14165 H 1329.49 -3.54996 1.36961 0
M  V30 14166 H 1329.01 -2.56951 2.90857 0
M  V30 14167 H 1327.11 -3.6602 0.697153 0
M  V30 14168 H 1327.22 -4.06374 2.53766 0
M  V30 14169 H 1325.58 -2.21006 1.26603 0
M  V30 14170 H 1326.37 -1.84267 2.89656 0
M  V30 14171 N 1328.81 -1.02043 -1.20104 0
M  V30 14172 C 1330.06 -0.707271 -1.88893 0
M  V30 14173 C 1330.37 0.766617 -1.79951 0
M  V30 14174 O 1331.58 1.19248 -2.4391 0
M  V30 14175 C 1330.04 -1.2147 -3.38782 0
M  V30 14176 C 1329.64 -2.71576 -3.56301 0
M  V30 14177 C 1331.39 -0.977146 -4.13101 0
M  V30 14178 C 1329.29 -3.15781 -5.00037 0
M  V30 14179 H 1328.22 -0.26086 -0.707438 0
M  V30 14180 H 1330.88 -1.23361 -1.35846 0
M  V30 14181 H 1329.26 -0.616315 -3.91175 0
M  V30 14182 H 1330.43 -3.36997 -3.14276 0
M  V30 14183 H 1328.75 -2.93517 -2.95359 0
M  V30 14184 H 1331.34 -1.28278 -5.19085 0
M  V30 14185 H 1331.69 0.0862909 -4.16211 0
M  V30 14186 H 1332.22 -1.5391 -3.6682 0
M  V30 14187 H 1328.96 -4.21417 -5.02084 0
M  V30 14188 H 1328.48 -2.55083 -5.42856 0
M  V30 14189 H 1330.16 -3.08637 -5.6864 0
M  V30 14190 O 1330.33 1.31809 -0.933195 0
M  V30 14191 H 1331.02 1.85497 -0.557724 0
M  V30 END ATOM
M  V30 BEGIN BOND
M  V30 END BOND
M  V30 END CTAB
M  END
$$$$
