drugbank_target|O07015 Sigma factor SigB regulation protein RsbQ (DB02175; DB03297; DB04349)
 OpenBabel12092120023D

  0  0  0     0  0            999 V3000
M  V30 BEGIN CTAB
M  V30 COUNTS 4157 4210 0 0 0
M  V30 BEGIN ATOM
M  V30 1 H -0.908 1.98254 -0.117106 0
M  V30 2 N 0 1.576 0 0
M  V30 3 C 0.933 2.03868 1.02534 0
M  V30 4 C 1.911 0.928543 1.3348 0
M  V30 5 O 3.095 1.19667 1.45644 0
M  V30 6 C 0.222 2.43627 2.35294 0
M  V30 7 C -0.732 3.65373 2.2001 0
M  V30 8 S 0.101 5.13292 1.52614 0
M  V30 9 C 1.257 5.56322 2.86805 0
M  V30 10 H 1.49 2.90518 0.631377 0
M  V30 11 H -0.977 1.52953 0.210867 0
M  V30 12 H 0.981 2.67203 3.11629 0
M  V30 13 H -0.358 1.57376 2.7183 0
M  V30 14 H -1.165 3.90944 3.18086 0
M  V30 15 H -1.563 3.418 1.51819 0
M  V30 16 H 0.729 5.58782 3.83104 0
M  V30 17 H 1.672 6.56266 2.65933 0
M  V30 18 H 2.08 4.83886 2.90714 0
M  V30 19 N 1.4781 -0.272755 1.55222 0
M  V30 20 C 2.4261 -1.35705 1.88909 0
M  V30 21 C 3.4201 -1.5112 0.765456 0
M  V30 22 O 4.6261 -1.52901 0.949802 0
M  V30 23 H 1.0011 -0.453868 0.59959 0
M  V30 24 H 2.9721 -1.04544 2.79487 0
M  V30 25 C 1.7211 -2.71049 2.17779 0
M  V30 26 H 1.0441 -2.59979 3.03728 0
M  V30 27 H 2.4841 -3.45858 2.45272 0
M  V30 28 C 0.9431 -3.22165 0.985473 0
M  V30 29 O 1.4731 -4.01096 0.220233 0
M  V30 30 N -0.3209 -2.7985 0.783108 0
M  V30 31 H -0.7739 -2.15775 1.40708 0
M  V30 32 H -0.8159 -3.14397 -0.0130392 0
M  V30 33 N 2.9562 -1.48159 -0.537278 0
M  V30 34 C 3.8662 -1.64807 -1.6696 0
M  V30 35 C 4.8822 -0.530651 -1.65711 0
M  V30 36 O 6.0582 -0.800784 -1.84796 0
M  V30 37 C 3.1232 -1.67708 -3.03438 0
M  V30 38 C 2.1842 -2.91025 -3.156 0
M  V30 39 C 1.4172 -2.93778 -4.45567 0
M  V30 40 O 1.6402 -2.05153 -5.3223 0
M  V30 41 O 0.5742 -3.85868 -4.61941 0
M  V30 42 H 4.4002 -2.6066 -1.55853 0
M  V30 43 H 1.9852 -1.31475 -0.709549 0
M  V30 44 H 3.8672 -1.7218 -3.84619 0
M  V30 45 H 2.5422 -0.750278 -3.14885 0
M  V30 46 H 1.4492 -2.92089 -2.33741 0
M  V30 47 H 2.7822 -3.83065 -3.09066 0
M  V30 48 N 4.4343 0.785586 -1.36625 0
M  V30 49 C 5.3973 1.87999 -1.31107 0
M  V30 50 C 6.3973 1.59316 -0.217959 0
M  V30 51 O 7.5873 1.67656 -0.472977 0
M  V30 52 C 4.7193 3.24861 -1.03334 0
M  V30 53 H 5.9123 1.94307 -2.2844 0
M  V30 54 H 3.4653 0.983813 -1.21453 0
M  V30 55 H 4.2003 3.24235 -0.0647432 0
M  V30 56 H 3.9853 3.4707 -1.82441 0
M  V30 57 H 5.4753 4.04929 -1.02088 0
M  V30 58 N 5.9124 1.20967 1.01018 0
M  V30 59 C 7.1614 1.01796 1.74128 0
M  V30 60 C 7.4744 -0.449691 1.90361 0
M  V30 61 O 8.6804 -0.76068 2.60626 0
M  V30 62 C 7.1364 1.7727 3.13215 0
M  V30 63 C 6.7444 3.28171 3.04972 0
M  V30 64 C 8.4884 1.66489 3.90489 0
M  V30 65 C 6.3954 3.96156 4.39107 0
M  V30 66 H 5.3254 0.377276 0.652824 0
M  V30 67 H 7.9764 1.44651 1.12909 0
M  V30 68 H 6.3584 1.27205 3.75013 0
M  V30 69 H 7.5324 3.85499 2.52443 0
M  V30 70 H 5.8474 3.39437 2.41188 0
M  V30 71 H 8.4444 2.14617 4.89738 0
M  V30 72 H 8.7874 0.6222 4.11624 0
M  V30 73 H 9.3204 2.14003 3.35332 0
M  V30 74 H 6.0594 5.00604 4.23174 0
M  V30 75 H 5.5794 3.43617 4.91617 0
M  V30 76 H 7.2584 4.00774 5.07926 0
M  V30 77 N 7.3905 -1.2043 1.01659 0
M  V30 78 C 8.3205 -2.25466 0.607226 0
M  V30 79 C 9.3015 -1.65853 -0.377716 0
M  V30 80 O 10.4865 -1.92409 -0.263149 0
M  V30 81 C 7.6165 -3.47256 -0.0552949 0
M  V30 82 C 6.5705 -4.19462 0.850632 0
M  V30 83 C 5.8965 -5.34673 0.0538859 0
M  V30 84 C 7.1965 -4.75603 2.15868 0
M  V30 85 H 8.8905 -2.59962 1.48526 0
M  V30 86 H 6.4365 -1.2496 0.715605 0
M  V30 87 H 8.3895 -4.19917 -0.353233 0
M  V30 88 H 7.1135 -3.11924 -0.968045 0
M  V30 89 H 5.7725 -3.48667 1.13257 0
M  V30 90 H 5.4205 -4.95585 -0.860514 0
M  V30 91 H 5.1205 -5.83913 0.657192 0
M  V30 92 H 6.6445 -6.10138 -0.237598 0
M  V30 93 H 8.0585 -5.40083 1.92311 0
M  V30 94 H 6.4555 -5.3528 2.71284 0
M  V30 95 H 7.5255 -3.94346 2.82169 0
M  V30 96 N 8.8686 -0.792821 -1.36206 0
M  V30 97 C 10.0936 -0.377701 -2.03932 0
M  V30 98 C 10.5186 0.998947 -1.59382 0
M  V30 99 O 9.8766 1.64421 -0.763903 0
M  V30 100 C 9.9246 -0.453635 -3.57735 0
M  V30 101 O 9.0286 0.538151 -4.08874 0
M  V30 102 H 8.3696 -0.159855 -0.644471 0
M  V30 103 H 10.8996 -1.07488 -1.7409 0
M  V30 104 H 10.9096 -0.318464 -4.06755 0
M  V30 105 H 9.5846 -1.45784 -3.89512 0
M  V30 106 H 8.1616 0.364359 -3.71116 0
M  V30 107 N 10.3467 1.47872 -0.545128 0
M  V30 108 C 11.7627 1.5829 -0.204032 0
M  V30 109 C 11.9627 1.54529 1.29317 0
M  V30 110 O 11.0187 1.44232 2.07252 0
M  V30 111 C 12.3317 2.89304 -0.819987 0
M  V30 112 C 13.8797 3.02864 -0.790105 0
M  V30 113 C 14.3547 4.3656 -1.38491 0
M  V30 114 N 15.8457 4.43165 -1.34755 0
M  V30 115 C 16.5807 5.45153 -1.77753 0
M  V30 116 N 16.0767 6.54016 -2.2855 0
M  V30 117 N 17.8697 5.36125 -1.68897 0
M  V30 118 H 10.0207 1.4856 -1.51802 0
M  V30 119 H 12.2837 0.706305 -0.632327 0
M  V30 120 H 11.9897 2.97757 -1.87173 0
M  V30 121 H 11.8637 3.75957 -0.305915 0
M  V30 122 H 14.2507 2.94014 0.252913 0
M  V30 123 H 14.3317 2.17782 -1.34181 0
M  V30 124 H 13.9757 4.46164 -2.42693 0
M  V30 125 H 13.9057 5.20353 -0.808754 0
M  V30 126 H 16.3967 3.65083 -0.975855 0
M  V30 127 H 16.7097 7.27994 -2.59314 0
M  V30 128 H 15.0547 6.54938 -2.32553 0
M  V30 129 H 18.2457 4.49975 -1.28998 0
M  V30 130 H 18.4187 6.15472 -2.02726 0
M  V30 131 N 11.8248 0.280983 1.55075 0
M  V30 132 C 12.7728 -0.619864 2.24188 0
M  V30 133 C 13.7668 -1.15315 1.24092 0
M  V30 134 O 14.9728 -1.1061 1.42005 0
M  V30 135 H 11.3478 -0.218459 0.719569 0
M  V30 136 H 13.3188 -0.0141831 2.98397 0
M  V30 137 C 12.0678 -1.7899 2.98091 0
M  V30 138 H 11.3908 -1.38874 3.74905 0
M  V30 139 H 12.8308 -2.39672 3.49762 0
M  V30 140 C 11.2898 -2.68192 2.03899 0
M  V30 141 O 11.8198 -3.6872 1.594 0
M  V30 142 N 10.0258 -2.35488 1.70275 0
M  V30 143 H 9.5728 -1.53787 2.06658 0
M  V30 144 H 9.5308 -2.95442 1.07524 0
M  V30 145 N 13.3029 -1.57598 0.00835791 0
M  V30 146 C 14.2529 -2.05431 -0.989045 0
M  V30 147 C 15.2369 -0.950662 -1.29812 0
M  V30 148 O 16.4289 -1.21438 -1.28771 0
M  V30 149 C 13.5579 -2.56801 -2.27833 0
M  V30 150 C 12.6439 -3.74058 -1.99853 0
M  V30 151 N 13.0349 -4.8544 -1.42062 0
M  V30 152 C 11.3329 -3.82148 -2.29953 0
M  V30 153 C 12.0339 -5.66817 -1.30743 0
M  V30 154 N 11.0099 -5.13077 -1.7959 0
M  V30 155 H 14.8119 -2.88955 -0.536853 0
M  V30 156 H 12.3259 -1.61199 -0.197148 0
M  V30 157 H 14.3229 -2.89349 -3.00137 0
M  V30 158 H 12.9829 -1.74699 -2.73698 0
M  V30 159 H 13.9939 -5.0612 -1.09833 0
M  V30 160 H 10.6709 -3.10916 -2.78635 0
M  V30 161 H 12.0609 -6.66343 -0.862328 0
M  V30 162 N 14.781 0.264519 -1.55364 0
M  V30 163 C 16.027 0.99646 -1.76631 0
M  V30 164 C 16.36 1.85632 -0.570478 0
M  V30 165 O 15.635 1.89647 0.43175 0
M  V30 166 C 15.918 1.87187 -3.07625 0
M  V30 167 C 15.771 1.04138 -4.37579 0
M  V30 168 C 17.09 2.85749 -3.34717 0
M  V30 169 H 14.209 0.360841 -0.642622 0
M  V30 170 H 16.851 0.268218 -1.88097 0
M  V30 171 H 15.001 2.49279 -2.9798 0
M  V30 172 H 16.673 0.440517 -4.59192 0
M  V30 173 H 14.916 0.345115 -4.32425 0
M  V30 174 H 15.587 1.68729 -5.2558 0
M  V30 175 H 18.063 2.33793 -3.4421 0
M  V30 176 H 16.939 3.44136 -4.27623 0
M  V30 177 H 17.2 3.61311 -2.54768 0
M  V30 178 N 16.2591 1.48442 0.529413 0
M  V30 179 C 17.2061 1.63007 1.63394 0
M  V30 180 C 18.1761 0.47212 1.59249 0
M  V30 181 O 19.3611 0.695673 1.77666 0
M  V30 182 C 16.5011 1.6763 3.01653 0
M  V30 183 C 15.6141 2.94535 3.16027 0
M  V30 184 C 14.7491 2.90316 4.44849 0
M  V30 185 C 13.7881 4.11923 4.52754 0
M  V30 186 N 12.9251 4.05777 5.72965 0
M  V30 187 H 17.7651 2.5733 1.50285 0
M  V30 188 H 15.3021 1.27613 0.731656 0
M  V30 189 H 17.2601 1.68292 3.81751 0
M  V30 190 H 15.8901 0.76797 3.13532 0
M  V30 191 H 14.9421 3.03615 2.29177 0
M  V30 192 H 16.2541 3.84512 3.17729 0
M  V30 193 H 15.4081 2.89382 5.33238 0
M  V30 194 H 14.1471 1.98068 4.45668 0
M  V30 195 H 13.1521 4.13131 3.62771 0
M  V30 196 H 14.3771 5.0533 4.53672 0
M  V30 197 H 12.3231 3.16351 5.74681 0
M  V30 198 H 12.2401 4.8946 5.76164 0
M  V30 199 H 13.5081 4.08904 6.6364 0
M  V30 200 N 17.7372 -0.778329 1.37039 0
M  V30 201 C 18.9832 -1.53892 1.32079 0
M  V30 202 C 19.3162 -1.9396 -0.0965386 0
M  V30 203 O 18.5912 -1.63568 -1.05242 0
M  V30 204 C 18.8742 -2.80847 2.25382 0
M  V30 205 C 18.7272 -2.47076 3.75864 0
M  V30 206 C 20.0462 -3.82741 2.1725 0
M  V30 207 H 17.1652 -0.558303 0.48111 0
M  V30 208 H 19.8072 -0.893397 1.67685 0
M  V30 209 H 17.9572 -3.35931 1.95148 0
M  V30 210 H 19.6292 -1.97957 4.16666 0
M  V30 211 H 17.8722 -1.79863 3.94755 0
M  V30 212 H 18.5432 -3.37798 4.36574 0
M  V30 213 H 21.0192 -3.37133 2.43887 0
M  V30 214 H 19.8952 -4.69303 2.84686 0
M  V30 215 H 20.1562 -4.2652 1.16331 0
M  V30 216 N 19.2153 -1.21501 -1.00376 0
M  V30 217 C 20.1623 -0.975387 -2.09177 0
M  V30 218 C 21.1323 0.0990615 -1.65804 0
M  V30 219 O 22.3173 -0.0483147 -1.90739 0
M  V30 220 C 19.4573 -0.547507 -3.40729 0
M  V30 221 C 18.5703 -1.69153 -3.97506 0
M  V30 222 C 17.7053 -1.2127 -5.17172 0
M  V30 223 C 16.7443 -2.32897 -5.66061 0
M  V30 224 N 15.8813 -1.86138 -6.76976 0
M  V30 225 H 20.7213 -1.9068 -2.29009 0
M  V30 226 H 18.2583 -0.950257 -1.12288 0
M  V30 227 H 20.2163 -0.280667 -4.16255 0
M  V30 228 H 18.8463 0.346904 -3.20931 0
M  V30 229 H 17.8983 -2.07298 -3.18954 0
M  V30 230 H 19.2103 -2.5316 -4.29781 0
M  V30 231 H 18.3643 -0.902591 -5.99948 0
M  V30 232 H 17.1033 -0.342692 -4.86495 0
M  V30 233 H 16.1083 -2.64709 -4.81881 0
M  V30 234 H 17.3333 -3.20396 -5.98768 0
M  V30 235 H 15.2793 -1.01484 -6.48103 0
M  V30 236 H 15.1963 -2.63717 -7.08512 0
M  V30 237 H 16.4643 -1.58165 -7.63285 0
M  V30 238 N 20.6934 1.19889 -1.02296 0
M  V30 239 C 21.9414 1.89046 -0.714558 0
M  V30 240 C 22.2624 1.79636 0.758681 0
M  V30 241 O 21.5324 1.20292 1.54618 0
M  V30 242 H 20.1124 0.699802 -0.261317 0
M  V30 243 H 22.7744 1.45574 -1.29592 0
M  V30 244 H 21.8704 2.95524 -1.0036 0
M  V30 245 N 22.1715 0.800033 1.35784 0
M  V30 246 C 23.3965 0.388511 2.03729 0
M  V30 247 C 23.8215 -0.990481 1.5991 0
M  V30 248 O 23.1795 -1.64013 0.772612 0
M  V30 249 C 23.2275 0.4726 3.5749 0
M  V30 250 O 22.3315 -0.51646 4.09153 0
M  V30 251 H 21.6725 0.163271 0.643614 0
M  V30 252 H 24.2025 1.0841 1.73518 0
M  V30 253 H 24.2125 0.34003 4.06581 0
M  V30 254 H 22.8875 1.47848 3.88734 0
M  V30 255 H 21.4645 -0.344673 3.71304 0
M  V30 256 N 23.6496 -1.47581 0.552962 0
M  V30 257 C 24.8976 -2.02082 0.0272703 0
M  V30 258 C 25.2186 -1.4301 -1.32563 0
M  V30 259 O 24.4886 -0.603745 -1.86365 0
M  V30 260 H 23.0686 -0.746966 0.00709182 0
M  V30 261 H 25.7306 -1.81033 0.722008 0
M  V30 262 H 24.8266 -3.12034 -0.0639951 0
M  V30 263 N 25.1277 -0.289203 -1.54924 0
M  V30 264 C 26.0747 0.592115 -2.23075 0
M  V30 265 C 27.0447 1.13881 -1.20915 0
M  V30 266 O 28.2297 1.18551 -1.495 0
M  V30 267 C 25.3697 1.76376 -2.96623 0
M  V30 268 C 24.4827 1.24959 -4.13533 0
M  V30 269 C 23.6177 2.38416 -4.74691 0
M  V30 270 C 22.6567 1.84072 -5.83767 0
M  V30 271 N 21.7937 2.91057 -6.38929 0
M  V30 272 H 26.6337 0.00432038 -2.98 0
M  V30 273 H 24.1707 -0.00963529 -1.47097 0
M  V30 274 H 26.1287 2.45268 -3.3749 0
M  V30 275 H 24.7587 2.32337 -2.24097 0
M  V30 276 H 23.8107 0.453307 -3.77689 0
M  V30 277 H 25.1227 0.811662 -4.92152 0
M  V30 278 H 24.2767 3.15276 -5.18349 0
M  V30 279 H 23.0157 2.8553 -3.95378 0
M  V30 280 H 22.0207 1.05697 -5.39545 0
M  V30 281 H 23.2457 1.37877 -6.64956 0
M  V30 282 H 21.1917 3.37526 -5.62505 0
M  V30 283 H 21.1087 2.51724 -7.12861 0
M  V30 284 H 22.3767 3.6785 -6.87246 0
M  V30 285 N 26.6058 1.57591 -0.0167156 0
M  V30 286 C 27.5688 2.08393 0.954204 0
M  V30 287 C 28.5688 0.996531 1.26198 0
M  V30 288 O 29.7588 1.25858 1.20438 0
M  V30 289 C 26.8908 2.5394 2.27436 0
M  V30 290 H 28.0838 2.95455 0.514451 0
M  V30 291 H 25.6368 1.54582 0.231089 0
M  V30 292 H 26.3718 1.70171 2.76066 0
M  V30 293 H 26.1568 3.33371 2.06412 0
M  V30 294 H 27.6468 2.93512 2.97053 0
M  V30 295 N 28.0839 -0.256276 1.55502 0
M  V30 296 C 29.3089 -1.00766 1.81276 0
M  V30 297 C 29.7339 -1.78524 0.59252 0
M  V30 298 O 29.0919 -1.75413 -0.45827 0
M  V30 299 C 29.1399 -1.92869 3.04687 0
M  V30 300 O 28.2439 -3.019 2.80945 0
M  V30 301 H 27.5849 -0.287224 0.598664 0
M  V30 302 H 30.1149 -0.280109 2.02674 0
M  V30 303 H 30.1249 -2.34511 3.33869 0
M  V30 304 H 28.7999 -1.35689 3.93143 0
M  V30 305 H 27.3769 -2.64454 2.62904 0
M  V30 306 N 29.562 -1.4872 -0.521534 0
M  V30 307 C 30.811 -1.56419 -1.27341 0
M  V30 308 C 31.124 -0.246805 -1.94037 0
M  V30 309 O 32.33 -0.202122 -2.70747 0
M  V30 310 C 30.786 -2.75896 -2.31105 0
M  V30 311 C 30.394 -4.14311 -1.70441 0
M  V30 312 C 32.138 -2.92913 -3.07249 0
M  V30 313 C 30.045 -5.25038 -2.72194 0
M  V30 314 H 28.975 -0.582344 -0.478949 0
M  V30 315 H 31.626 -1.75071 -0.549779 0
M  V30 316 H 30.008 -2.50697 -3.06541 0
M  V30 317 H 31.182 -4.49564 -1.01136 0
M  V30 318 H 29.497 -4.02482 -1.06759 0
M  V30 319 H 32.094 -3.72805 -3.83302 0
M  V30 320 H 32.437 -2.02689 -3.63625 0
M  V30 321 H 32.97 -3.18054 -2.38928 0
M  V30 322 H 29.709 -6.17255 -2.20627 0
M  V30 323 H 29.229 -4.94263 -3.39801 0
M  V30 324 H 30.908 -5.53508 -3.35019 0
M  V30 325 N 31.0401 0.771051 -1.3745 0
M  V30 326 C 31.9731 1.89166 -1.27638 0
M  V30 327 C 32.9511 1.61842 -0.156782 0
M  V30 328 O 34.1351 1.85569 -0.331111 0
M  V30 329 C 31.2621 3.24405 -0.973621 0
M  V30 330 C 30.3081 3.70638 -2.1102 0
M  V30 331 S 31.1411 3.84228 -3.73 0
M  V30 332 C 32.2971 5.22313 -3.44876 0
M  V30 333 H 32.5301 1.972 -2.22485 0
M  V30 334 H 30.0631 0.932224 -1.23081 0
M  V30 335 H 32.0211 4.02514 -0.805766 0
M  V30 336 H 30.6821 3.14071 -0.0426279 0
M  V30 337 H 29.8751 4.68685 -1.85338 0
M  V30 338 H 29.4771 2.99632 -2.23822 0
M  V30 339 H 31.7691 6.07505 -2.99908 0
M  V30 340 H 32.7121 5.53008 -4.42253 0
M  V30 341 H 33.1201 4.90284 -2.79789 0
M  V30 342 N 32.5182 1.22032 0.997298 0
M  V30 343 C 33.7652 1.04222 1.73621 0
M  V30 344 C 34.0932 -0.423264 1.89839 0
M  V30 345 O 33.3482 -1.3302 1.43542 0
M  V30 346 C 33.6472 1.69345 3.14733 0
M  V30 347 C 33.3132 3.19226 3.18442 0
M  V30 348 C 31.9752 3.60124 3.19161 0
M  V30 349 C 34.3272 4.15181 3.15078 0
M  V30 350 C 31.6552 4.95467 3.14212 0
M  V30 351 C 34.0072 5.50495 3.1167 0
M  V30 352 C 32.6712 5.90779 3.10703 0
M  V30 353 H 31.9412 0.381374 0.635323 0
M  V30 354 H 34.5882 1.51732 1.16831 0
M  V30 355 H 32.8932 1.14147 3.74803 0
M  V30 356 H 34.5902 1.53059 3.7064 0
M  V30 357 H 31.1802 2.86659 3.18629 0
M  V30 358 H 35.3642 3.84605 3.13676 0
M  V30 359 H 30.6202 5.25916 3.11805 0
M  V30 360 H 34.7942 6.24576 3.08022 0
M  V30 361 H 32.4212 6.9562 3.06622 0
M  V30 362 N 33.9963 -1.19345 1.0293 0
M  V30 363 C 34.9593 -2.20793 0.615069 0
M  V30 364 C 35.9593 -1.57553 -0.321533 0
M  V30 365 O 37.1493 -1.73862 -0.108483 0
M  V30 366 C 34.2813 -3.40754 -0.0999222 0
M  V30 367 H 35.4743 -2.58955 1.51269 0
M  V30 368 H 33.0273 -1.3303 0.820534 0
M  V30 369 H 33.7623 -3.0811 -1.01187 0
M  V30 370 H 33.5473 -3.87889 0.57309 0
M  V30 371 H 35.0373 -4.15898 -0.376645 0
M  V30 372 N 35.4744 -0.807222 -1.35358 0
M  V30 373 C 36.8854 -0.44876 -1.81226 0
M  V30 374 C 37.2364 1.02929 -1.67033 0
M  V30 375 O 36.3614 1.79991 -1.20133 0
M  V30 376 C 36.9564 -0.807774 -3.2903 0
M  V30 377 C 35.5154 -0.501901 -3.73039 0
M  V30 378 C 34.6624 -1.03304 -2.57339 0
M  V30 379 H 37.6134 -0.998808 -1.23327 0
M  V30 380 H 37.6344 -0.10554 -3.80354 0
M  V30 381 H 37.1464 -1.88357 -3.39328 0
M  V30 382 H 35.2474 0.565128 -3.68289 0
M  V30 383 H 35.3604 -1.03497 -4.67787 0
M  V30 384 H 33.7244 -0.455339 -2.50597 0
M  V30 385 H 34.5074 -2.11496 -2.70415 0
M  V30 386 N 36.9525 1.47285 -0.560781 0
M  V30 387 C 38.2005 2.02064 -0.0379868 0
M  V30 388 C 38.5215 1.43711 1.31803 0
M  V30 389 O 37.7915 0.61362 1.86042 0
M  V30 390 H 36.3715 0.746918 -0.0110531 0
M  V30 391 H 39.0335 1.80648 -0.731598 0
M  V30 392 H 38.1295 3.12064 0.0474463 0
M  V30 393 N 38.4306 0.297415 1.54768 0
M  V30 394 C 39.6776 -0.312913 2.00068 0
M  V30 395 C 40.0056 -1.54171 1.18582 0
M  V30 396 O 39.2606 -1.94108 0.249133 0
M  V30 397 C 39.5596 -0.717561 3.50123 0
M  V30 398 C 39.2256 0.409095 4.4904 0
M  V30 399 C 37.8876 0.718399 4.75807 0
M  V30 400 C 40.2396 1.16717 5.07963 0
M  V30 401 C 37.5676 1.78896 5.5876 0
M  V30 402 C 39.9196 2.22762 5.92081 0
M  V30 403 C 38.5836 2.54303 6.1716 0
M  V30 404 H 37.8536 -0.114503 0.7321 0
M  V30 405 H 40.5006 0.415767 1.86932 0
M  V30 406 H 38.8056 -1.52627 3.60849 0
M  V30 407 H 40.5026 -1.20091 3.82595 0
M  V30 408 H 37.0926 0.157918 4.28309 0
M  V30 409 H 41.2766 0.941466 4.87289 0
M  V30 410 H 36.5326 2.0381 5.7643 0
M  V30 411 H 40.7066 2.81962 6.36765 0
M  V30 412 H 38.3336 3.3739 6.81229 0
M  V30 413 N 39.9087 -1.5758 0.0250728 0
M  V30 414 C 41.1567 -1.91255 -0.653151 0
M  V30 415 C 41.4777 -0.901691 -1.729 0
M  V30 416 O 40.7477 0.0573785 -1.95816 0
M  V30 417 H 39.3277 -0.705942 -0.244243 0
M  V30 418 H 41.9897 -1.94767 0.0719209 0
M  V30 419 H 41.0857 -2.91752 -1.10847 0
M  V30 420 N 41.3868 0.248026 -1.55636 0
M  V30 421 C 42.6268 0.983592 -1.79178 0
M  V30 422 C 42.9908 1.82567 -0.594414 0
M  V30 423 O 44.1918 2.59292 -0.708583 0
M  V30 424 C 42.4628 1.82228 -3.07454 0
M  V30 425 S 44.0218 2.61709 -3.52213 0
M  V30 426 H 40.8398 0.330866 -0.629324 0
M  V30 427 H 43.4418 0.251562 -1.93875 0
M  V30 428 H 42.1458 1.19333 -3.92668 0
M  V30 429 H 41.6768 2.59708 -2.95492 0
M  V30 430 H 43.6918 3.84655 -3.13457 0
M  V30 431 N 42.8649 1.48995 0.513639 0
M  V30 432 C 44.1419 1.48338 1.27495 0
M  V30 433 C 44.5219 0.204065 2.10111 0
M  V30 434 O 43.8699 -0.813881 2.13514 0
M  V30 435 C 44.0799 2.75498 2.14247 0
M  V30 436 C 45.4279 3.24484 2.73852 0
M  V30 437 O 46.4519 2.76528 2.24523 0
M  V30 438 O 45.3109 4.07974 3.6362 0
M  V30 439 H 42.4049 0.593149 0.576284 0
M  V30 440 H 44.9509 1.61246 0.528948 0
M  V30 441 H 43.7229 3.60109 1.53092 0
M  V30 442 H 43.3459 2.6539 2.96064 0
M  V30 443 N 44.343 -0.763751 1.37857 0
M  V30 444 C 45.275 -1.88664 1.30148 0
M  V30 445 C 46.288 -1.61365 0.215685 0
M  V30 446 O 47.477 -1.72134 0.472459 0
M  V30 447 C 44.577 -3.24075 0.991396 0
M  V30 448 C 43.75 -3.78958 2.18426 0
M  V30 449 C 42.809 -4.92862 1.8432 0
M  V30 450 O 41.835 -5.08027 2.56704 0
M  V30 451 N 43.037 -5.75071 0.792081 0
M  V30 452 H 45.802 -1.95791 2.26905 0
M  V30 453 H 43.363 -0.943226 1.31586 0
M  V30 454 H 45.355 -3.97804 0.743935 0
M  V30 455 H 43.925 -3.12399 0.112122 0
M  V30 456 H 43.145 -2.96913 2.59299 0
M  V30 457 H 44.433 -4.12357 2.98058 0
M  V30 458 H 43.831 -5.65375 0.191595 0
M  V30 459 H 42.388 -6.48991 0.60449 0
M  V30 460 N 45.8211 -1.22559 -0.990812 0
M  V30 461 C 47.0461 -1.07862 -1.77145 0
M  V30 462 C 47.4711 0.366447 -1.84496 0
M  V30 463 O 46.8291 1.26478 -1.29896 0
M  V30 464 C 46.8771 -1.69686 -3.18181 0
M  V30 465 O 45.9811 -0.951946 -4.01263 0
M  V30 466 H 45.3221 -0.378712 -0.545411 0
M  V30 467 H 47.8521 -1.62399 -1.2445 0
M  V30 468 H 47.8621 -1.74496 -3.68802 0
M  V30 469 H 46.5371 -2.74841 -3.12146 0
M  V30 470 H 45.1141 -0.980011 -3.59792 0
M  V30 471 N 47.2992 1.18797 -1.03562 0
M  V30 472 C 48.5452 1.8893 -0.737113 0
M  V30 473 C 48.8782 1.79837 0.732956 0
M  V30 474 O 48.1532 1.19525 1.5344 0
M  V30 475 C 48.4362 3.39607 -1.19745 0
M  V30 476 C 48.2892 3.57537 -2.72924 0
M  V30 477 C 49.6082 4.33069 -0.783526 0
M  V30 478 H 46.7272 0.686057 -0.269249 0
M  V30 479 H 49.3692 1.39797 -1.28673 0
M  V30 480 H 47.5192 3.81583 -0.729855 0
M  V30 481 H 49.1912 3.24688 -3.27682 0
M  V30 482 H 47.4342 3.00363 -3.12993 0
M  V30 483 H 48.1052 4.63238 -3.00191 0
M  V30 484 H 50.5812 3.98846 -1.18581 0
M  V30 485 H 49.4572 5.3707 -1.13343 0
M  V30 486 H 49.7182 4.40986 0.313681 0
M  V30 487 N 48.7773 0.814389 1.34928 0
M  V30 488 C 50.0233 0.408167 1.99263 0
M  V30 489 C 50.3783 -1.0154 1.63424 0
M  V30 490 O 49.6713 -1.69607 0.891289 0
M  V30 491 C 49.8653 0.537781 3.53331 0
M  V30 492 C 49.6943 1.9724 4.04137 0
M  V30 493 C 48.4643 2.60245 4.33129 0
M  V30 494 C 50.6623 2.93801 4.2212 0
M  V30 495 N 48.6443 3.95036 4.69914 0
M  V30 496 C 50.0153 4.1348 4.6199 0
M  V30 497 C 52.0703 2.9053 4.04348 0
M  V30 498 C 50.7733 5.3033 4.85945 0
M  V30 499 C 52.7993 4.06589 4.29464 0
M  V30 500 C 52.1613 5.25017 4.69613 0
M  V30 501 H 48.2603 0.197289 0.756704 0
M  V30 502 H 50.8443 1.05728 1.63492 0
M  V30 503 H 49.0153 -0.0813868 3.88315 0
M  V30 504 H 50.7473 0.105389 4.04563 0
M  V30 505 H 47.5023 2.11545 4.23728 0
M  V30 506 H 47.9263 4.64455 4.92555 0
M  V30 507 H 52.5683 2.00115 3.72443 0
M  V30 508 H 50.2863 6.21309 5.16721 0
M  V30 509 H 53.8723 4.05447 4.17257 0
M  V30 510 H 52.7523 6.1333 4.88667 0
M  V30 511 N 50.2554 -1.46986 0.568584 0
M  V30 512 C 51.2034 -2.31858 -0.185649 0
M  V30 513 C 52.1974 -1.43624 -0.898249 0
M  V30 514 O 53.4034 -1.60327 -0.818242 0
M  V30 515 H 49.7784 -0.747866 -0.0787399 0
M  V30 516 H 51.7494 -2.93303 0.549191 0
M  V30 517 C 50.4984 -3.26513 -1.19519 0
M  V30 518 H 49.8214 -3.94377 -0.656285 0
M  V30 519 H 51.2614 -3.88707 -1.6936 0
M  V30 520 C 49.7204 -2.50847 -2.24894 0
M  V30 521 O 50.2504 -2.26119 -3.32014 0
M  V30 522 N 48.4564 -2.11656 -1.99124 0
M  V30 523 H 48.0034 -2.31966 -1.12024 0
M  V30 524 H 47.9614 -1.61347 -2.69842 0
M  V30 525 N 51.7335 -0.305618 -1.54608 0
M  V30 526 C 52.6965 0.555591 -2.22364 0
M  V30 527 C 53.6965 1.05768 -1.21119 0
M  V30 528 O 54.8865 0.952972 -1.45822 0
M  V30 529 C 52.0185 1.76974 -2.91364 0
M  V30 530 H 53.2115 -0.0364572 -2.99878 0
M  V30 531 H 50.7645 -0.0565007 -1.56198 0
M  V30 532 H 51.4995 2.40151 -2.17941 0
M  V30 533 H 51.2845 1.41732 -3.65588 0
M  V30 534 H 52.7745 2.38148 -3.43038 0
M  V30 535 N 53.2116 1.57565 -0.0334293 0
M  V30 536 C 54.4576 1.92262 0.645226 0
M  V30 537 C 54.7906 0.910543 1.71531 0
M  V30 538 O 54.0656 -0.066099 1.94388 0
M  V30 539 C 54.3486 3.37422 1.2577 0
M  V30 540 C 54.2016 4.49369 0.196891 0
M  V30 541 C 55.5206 3.82628 2.17449 0
M  V30 542 H 52.6396 0.699171 0.233085 0
M  V30 543 H 55.2816 1.89779 -0.0915694 0
M  V30 544 H 53.4316 3.39669 1.88566 0
M  V30 545 H 55.1036 4.59254 -0.433962 0
M  V30 546 H 53.3466 4.31168 -0.477137 0
M  V30 547 H 54.0176 5.47978 0.665124 0
M  V30 548 H 56.4936 3.82145 1.64634 0
M  V30 549 H 55.3696 4.84883 2.57254 0
M  V30 550 H 55.6306 3.18376 3.0674 0
M  V30 551 N 54.6897 -0.239769 1.55765 0
M  V30 552 C 55.6527 -1.28038 1.90103 0
M  V30 553 C 56.6527 -1.40723 0.778055 0
M  V30 554 O 57.8427 -1.39301 1.04599 0
M  V30 555 C 54.9747 -2.65702 2.13577 0
M  V30 556 H 56.1677 -0.988048 2.83157 0
M  V30 557 H 53.7207 -0.479382 1.48767 0
M  V30 558 H 54.4557 -3.00063 1.23015 0
M  V30 559 H 54.2407 -2.57875 2.95369 0
M  V30 560 H 55.7307 -3.40828 2.41301 0
M  V30 561 N 56.1678 -1.49265 -0.50573 0
M  V30 562 C 57.5788 -1.51769 -1.08734 0
M  V30 563 C 57.9298 -0.301192 -1.93874 0
M  V30 564 O 57.0548 0.589456 -2.08217 0
M  V30 565 C 57.6498 -2.75017 -1.97867 0
M  V30 566 C 56.2088 -2.80314 -2.51199 0
M  V30 567 C 55.3558 -2.4562 -1.28709 0
M  V30 568 H 58.3068 -1.56031 -0.289855 0
M  V30 569 H 58.3278 -2.5491 -2.82491 0
M  V30 570 H 57.8398 -3.63539 -1.35873 0
M  V30 571 H 55.9408 -1.96061 -3.16845 0
M  V30 572 H 56.0538 -3.82366 -2.88675 0
M  V30 573 H 54.4178 -1.97297 -1.61078 0
M  V30 574 H 55.2008 -3.36411 -0.6843 0
M  V30 575 N 57.6459 0.756429 -1.3826 0
M  V30 576 C 58.6089 1.85176 -1.35065 0
M  V30 577 C 59.6089 1.58818 -0.251703 0
M  V30 578 O 60.7989 1.66615 -0.508433 0
M  V30 579 C 57.9309 3.22596 -1.10201 0
M  V30 580 H 59.1239 1.89417 -2.3251 0
M  V30 581 H 56.6769 0.95783 -1.23512 0
M  V30 582 H 57.4119 3.24025 -0.133504 0
M  V30 583 H 57.1969 3.43122 -1.89762 0
M  V30 584 H 58.6869 4.02673 -1.10654 0
M  V30 585 N 59.124 1.23083 0.984299 0
M  V30 586 C 60.371 1.06057 1.72505 0
M  V30 587 C 60.699 -0.403105 1.90277 0
M  V30 588 O 59.954 -1.3149 1.44944 0
M  V30 589 C 60.253 1.72673 3.1292 0
M  V30 590 C 59.919 3.22586 3.15038 0
M  V30 591 C 58.581 3.63489 3.15324 0
M  V30 592 C 60.933 4.185 3.10657 0
M  V30 593 C 58.261 4.98772 3.08939 0
M  V30 594 C 60.613 5.53769 3.05814 0
M  V30 595 C 59.277 5.94041 3.04419 0
M  V30 596 H 58.547 0.388091 0.631242 0
M  V30 597 H 61.194 1.52963 1.15215 0
M  V30 598 H 59.499 1.18116 3.73572 0
M  V30 599 H 61.196 1.56982 3.68996 0
M  V30 600 H 57.786 2.90022 3.15571 0
M  V30 601 H 61.97 3.87911 3.09579 0
M  V30 602 H 57.226 5.29193 3.0621 0
M  V30 603 H 61.4 6.27808 3.0138 0
M  V30 604 H 59.027 6.98833 2.99227 0
M  V30 605 N 60.6021 -1.18246 1.0419 0
M  V30 606 C 61.5121 -2.25574 0.644476 0
M  V30 607 C 62.5281 -1.70845 -0.329826 0
M  V30 608 O 63.7041 -2.00554 -0.184443 0
M  V30 609 C 60.7691 -3.46697 0.014877 0
M  V30 610 C 59.8301 -4.16554 1.03834 0
M  V30 611 C 59.0631 -5.31894 0.438692 0
M  V30 612 O 59.2861 -5.65385 -0.754752 0
M  V30 613 O 58.2201 -5.90459 1.168 0
M  V30 614 H 62.0461 -2.61836 1.53869 0
M  V30 615 H 59.6311 -1.25352 0.812854 0
M  V30 616 H 61.5131 -4.20062 -0.335538 0
M  V30 617 H 60.1881 -3.12255 -0.853138 0
M  V30 618 H 59.0951 -3.45251 1.44057 0
M  V30 619 H 60.4281 -4.54998 1.87716 0
M  V30 620 N 62.0802 -0.821533 -1.34494 0
M  V30 621 C 62.9902 -0.244355 -2.33324 0
M  V30 622 C 64.0062 0.620527 -1.62559 0
M  V30 623 O 65.1822 0.528754 -1.94335 0
M  V30 624 C 62.2472 0.585368 -3.41723 0
M  V30 625 C 61.3082 -0.301752 -4.28238 0
M  V30 626 C 60.5412 0.488466 -5.3146 0
M  V30 627 O 60.7642 1.72186 -5.4379 0
M  V30 628 O 59.6982 -0.12848 -6.01763 0
M  V30 629 H 63.5242 -1.06231 -2.84515 0
M  V30 630 H 61.1092 -0.583645 -1.37528 0
M  V30 631 H 62.9912 1.05747 -4.07916 0
M  V30 632 H 61.6662 1.38068 -2.92778 0
M  V30 633 H 60.5732 -0.821315 -3.64973 0
M  V30 634 H 61.9062 -1.06138 -4.8062 0
M  V30 635 N 63.5583 1.46682 -0.576371 0
M  V30 636 C 64.8353 1.95599 0.00703437 0
M  V30 637 C 65.2153 1.51904 1.46589 0
M  V30 638 O 64.5633 0.766755 2.15251 0
M  V30 639 C 64.7733 3.4864 -0.158404 0
M  V30 640 C 66.1213 4.24594 -0.0229439 0
M  V30 641 O 67.1453 3.56094 -0.0869173 0
M  V30 642 O 66.0043 5.46373 0.118015 0
M  V30 643 H 63.0983 0.825275 0.053384 0
M  V30 644 H 65.6443 1.56996 -0.644244 0
M  V30 645 H 64.4163 3.7331 -1.17282 0
M  V30 646 H 64.0393 3.94057 0.5296 0
M  V30 647 N 65.0364 0.313813 1.54444 0
M  V30 648 C 65.9864 -0.571898 2.20711 0
M  V30 649 C 66.9704 -1.08913 1.18435 0
M  V30 650 O 68.1624 -1.02777 1.44104 0
M  V30 651 C 65.2914 -1.7371 2.96108 0
M  V30 652 C 64.3774 -1.23522 4.05713 0
M  V30 653 N 64.7684 -0.452288 5.03774 0
M  V30 654 C 63.0664 -1.51482 4.19487 0
M  V30 655 C 63.7674 -0.183438 5.81411 0
M  V30 656 N 62.7434 -0.766845 5.38164 0
M  V30 657 H 66.5454 0.0336802 2.93881 0
M  V30 658 H 64.0594 0.119192 1.61962 0
M  V30 659 H 66.0564 -2.38329 3.4206 0
M  V30 660 H 64.7164 -2.34625 2.24458 0
M  V30 661 H 65.7274 -0.0960131 5.17811 0
M  V30 662 H 62.4044 -2.13053 3.59047 0
M  V30 663 H 63.7944 0.446216 6.70417 0
M  V30 664 N 66.5145 -1.57545 0.0417849 0
M  V30 665 C 67.9305 -1.56467 -0.314704 0
M  V30 666 C 68.1305 -1.04859 -1.72066 0
M  V30 667 O 67.1865 -0.700983 -2.42575 0
M  V30 668 C 68.4995 -3.00317 -0.15174 0
M  V30 669 C 70.0475 -3.12201 -0.223553 0
M  V30 670 C 70.5225 -4.57913 -0.0892295 0
M  V30 671 N 72.0135 -4.6297 -0.145808 0
M  V30 672 C 72.7485 -5.73362 -0.0658459 0
M  V30 673 N 72.2445 -6.92769 0.0659282 0
M  V30 674 N 74.0375 -5.6197 -0.12075 0
M  V30 675 H 66.1885 -1.89416 0.961014 0
M  V30 676 H 68.4515 -0.871862 0.372237 0
M  V30 677 H 68.1575 -3.42073 0.817254 0
M  V30 678 H 68.0315 -3.65892 -0.916692 0
M  V30 679 H 70.4185 -2.70349 -1.18301 0
M  V30 680 H 70.4995 -2.49323 0.571994 0
M  V30 681 H 70.1435 -5.00448 0.866867 0
M  V30 682 H 70.0735 -5.18786 -0.903802 0
M  V30 683 H 72.5645 -3.7709 -0.247286 0
M  V30 684 H 72.8775 -7.72707 0.119905 0
M  V30 685 H 71.2225 -6.94927 0.100885 0
M  V30 686 H 74.4135 -4.67572 -0.222187 0
M  V30 687 H 74.5865 -6.47977 -0.0549735 0
M  V30 688 N 67.9926 0.231505 -1.5589 0
M  V30 689 C 69.2386 0.95877 -1.78705 0
M  V30 690 C 69.5716 1.8438 -0.609725 0
M  V30 691 O 68.8466 1.90521 0.391426 0
M  V30 692 C 69.1296 1.8062 -3.11526 0
M  V30 693 C 68.9826 0.948328 -4.39689 0
M  V30 694 C 70.3016 2.78585 -3.40703 0
M  V30 695 H 67.4206 0.347129 -0.650131 0
M  V30 696 H 70.0626 0.228259 -1.88624 0
M  V30 697 H 68.2126 2.42902 -3.03201 0
M  V30 698 H 69.8846 0.343016 -4.60023 0
M  V30 699 H 68.1276 0.253314 -4.3306 0
M  V30 700 H 68.7986 1.57543 -5.29041 0
M  V30 701 H 71.2746 2.26439 -3.49091 0
M  V30 702 H 70.1506 3.34988 -4.34826 0
M  V30 703 H 70.4116 3.55825 -2.62375 0
M  V30 704 N 69.4707 1.49531 0.497807 0
M  V30 705 C 70.7197 1.58426 1.24837 0
M  V30 706 C 71.0327 0.277643 1.93619 0
M  V30 707 O 72.2387 0.24517 2.70391 0
M  V30 708 C 70.6947 2.79538 2.26686 0
M  V30 709 C 70.3027 4.16971 1.63828 0
M  V30 710 C 72.0467 2.97764 3.0255 0
M  V30 711 C 69.9537 5.29301 2.63807 0
M  V30 712 H 68.8837 0.58989 0.469623 0
M  V30 713 H 71.5347 1.75923 0.521857 0
M  V30 714 H 69.9167 2.55542 3.02514 0
M  V30 715 H 71.0907 4.51116 0.939711 0
M  V30 716 H 69.4057 4.04129 1.00342 0
M  V30 717 H 72.0027 3.78856 3.77323 0
M  V30 718 H 72.3457 2.08448 3.60354 0
M  V30 719 H 72.8787 3.21815 2.33838 0
M  V30 720 H 69.6177 6.20687 2.10779 0
M  V30 721 H 69.1377 4.99606 3.31894 0
M  V30 722 H 70.8167 5.58768 3.2617 0
M  V30 723 N 70.9488 -0.749086 1.3866 0
M  V30 724 C 71.8788 -1.8764 1.38973 0
M  V30 725 C 72.8598 -1.68178 0.255004 0
M  V30 726 O 74.0448 -1.88704 0.458754 0
M  V30 727 C 71.1748 -3.25222 1.21851 0
M  V30 728 C 70.1288 -3.59295 2.32575 0
M  V30 729 C 69.4548 -4.95663 2.00555 0
M  V30 730 C 70.7548 -3.63709 3.7485 0
M  V30 731 H 72.4488 -1.87635 2.3331 0
M  V30 732 H 69.9948 -0.901329 1.12303 0
M  V30 733 H 71.9478 -4.03746 1.20695 0
M  V30 734 H 70.6718 -3.25719 0.239775 0
M  V30 735 H 69.3308 -2.83093 2.32925 0
M  V30 736 H 68.9788 -4.92724 1.01154 0
M  V30 737 H 68.6788 -5.19429 2.74714 0
M  V30 738 H 70.2028 -5.7656 2.01024 0
M  V30 739 H 71.6168 -4.32338 3.76506 0
M  V30 740 H 70.0138 -3.98986 4.48252 0
M  V30 741 H 71.0838 -2.63834 4.06841 0
M  V30 742 N 72.4269 -1.23603 -0.977757 0
M  V30 743 C 73.6739 -1.06971 -1.71941 0
M  V30 744 C 74.0019 0.393009 -1.90488 0
M  V30 745 O 73.2569 1.30719 -1.4564 0
M  V30 746 C 73.5559 -1.7433 -3.11999 0
M  V30 747 C 73.2219 -3.24252 -3.13323 0
M  V30 748 C 71.8839 -3.65156 -3.13392 0
M  V30 749 C 74.2359 -4.20141 -3.08433 0
M  V30 750 C 71.5639 -5.00403 -3.0629 0
M  V30 751 C 73.9159 -5.55384 -3.02873 0
M  V30 752 C 72.5799 -5.95647 -3.01265 0
M  V30 753 H 71.8499 -0.391433 -0.629175 0
M  V30 754 H 74.4969 -1.53572 -1.14403 0
M  V30 755 H 72.8019 -1.20096 -3.7294 0
M  V30 756 H 74.4989 -1.58936 -3.68158 0
M  V30 757 H 71.0889 -2.91692 -3.14029 0
M  V30 758 H 75.2729 -3.89547 -3.07517 0
M  V30 759 H 70.5289 -5.3081 -3.03399 0
M  V30 760 H 74.7029 -6.29398 -2.98046 0
M  V30 761 H 72.3299 -7.0041 -2.95516 0
M  V30 762 N 73.905 1.17692 -1.04816 0
M  V30 763 C 75.182 1.83768 -0.669963 0
M  V30 764 C 75.562 1.93232 0.849986 0
M  V30 765 O 74.91 1.46397 1.75443 0
M  V30 766 C 75.12 3.21641 -1.35455 0
M  V30 767 C 76.468 3.97592 -1.49017 0
M  V30 768 O 77.492 3.31107 -1.31326 0
M  V30 769 O 76.351 5.16729 -1.77914 0
M  V30 770 H 73.445 0.792799 -0.235368 0
M  V30 771 H 75.991 1.25021 -1.14751 0
M  V30 772 H 74.763 3.097 -2.39168 0
M  V30 773 H 74.386 3.88052 -0.866107 0
M  V30 774 N 75.3831 0.828654 1.34056 0
M  V30 775 C 76.6131 0.431993 2.02033 0
M  V30 776 C 77.0211 -0.96844 1.62536 0
M  V30 777 O 76.3641 -1.6391 0.829408 0
M  V30 778 C 76.4261 0.461224 3.56529 0
M  V30 779 C 76.0901 1.81599 4.1937 0
M  V30 780 C 77.0871 2.7777 4.39477 0
M  V30 781 C 74.7721 2.10604 4.56017 0
M  V30 782 C 76.7661 4.01115 4.95364 0
M  V30 783 C 74.4531 3.34207 5.11614 0
M  V30 784 C 75.4511 4.2928 5.31232 0
M  V30 785 O 75.1391 5.50699 5.8565 0
M  V30 786 H 74.8711 0.170943 0.654029 0
M  V30 787 H 77.4251 1.11988 1.72185 0
M  V30 788 H 75.6551 -0.283388 3.8566 0
M  V30 789 H 77.3441 0.0838149 4.05813 0
M  V30 790 H 78.1101 2.56659 4.11523 0
M  V30 791 H 73.9891 1.37402 4.40047 0
M  V30 792 H 77.5331 4.75333 5.10592 0
M  V30 793 H 73.4301 3.55179 5.38997 0
M  V30 794 H 74.1981 5.52298 6.04077 0
M  V30 795 N 76.8612 -1.46375 0.584142 0
M  V30 796 C 78.1072 -2.02678 0.0703716 0
M  V30 797 C 78.4402 -1.4545 -1.28678 0
M  V30 798 O 77.7152 -0.62014 -1.84349 0
M  V30 799 C 77.9982 -3.60099 0.00614674 0
M  V30 800 C 77.8512 -4.27709 1.3923 0
M  V30 801 C 79.1702 -4.34598 -0.693742 0
M  V30 802 H 76.2892 -0.736504 0.027047 0
M  V30 803 H 78.9312 -1.74501 0.751615 0
M  V30 804 H 77.0812 -3.84236 -0.574009 0
M  V30 805 H 78.7532 -4.14832 2.01773 0
M  V30 806 H 76.9962 -3.87016 1.95962 0
M  V30 807 H 77.6672 -5.36478 1.29982 0
M  V30 808 H 80.1432 -4.15615 -0.200869 0
M  V30 809 H 79.0192 -5.44318 -0.707714 0
M  V30 810 H 79.2802 -4.05759 -1.75533 0
M  V30 811 N 78.3393 -0.321999 -1.54275 0
M  V30 812 C 79.5873 0.280489 -2.00144 0
M  V30 813 C 79.9083 1.52777 -1.21178 0
M  V30 814 O 79.1783 1.9338 -0.313187 0
M  V30 815 H 77.7583 0.106632 -0.73935 0
M  V30 816 H 80.4203 -0.438184 -1.8991 0
M  V30 817 H 79.5163 0.537972 -3.07428 0
M  V30 818 N 79.8174 1.5752 -0.0501392 0
M  V30 819 C 81.0424 1.97376 0.636997 0
M  V30 820 C 81.4674 0.927466 1.63645 0
M  V30 821 O 80.8254 -0.10941 1.8097 0
M  V30 822 C 80.8734 3.36304 1.30123 0
M  V30 823 O 79.9774 3.34156 2.41689 0
M  V30 824 H 79.3184 0.642998 0.165679 0
M  V30 825 H 81.8484 2.04258 -0.118233 0
M  V30 826 H 81.8584 3.73008 1.65315 0
M  V30 827 H 80.5334 4.11993 0.568746 0
M  V30 828 H 79.1104 3.09196 2.08451 0
M  V30 829 N 81.2955 -0.223234 1.56011 0
M  V30 830 C 82.5435 -0.946003 1.78592 0
M  V30 831 C 82.8645 -1.84936 0.618349 0
M  V30 832 O 82.1345 -1.92473 -0.364833 0
M  V30 833 H 80.7145 -0.352298 0.658707 0
M  V30 834 H 83.3765 -0.235494 1.93472 0
M  V30 835 H 82.4725 -1.55381 2.70672 0
M  V30 836 N 82.7736 -1.49793 -0.48987 0
M  V30 837 C 83.7236 -1.63673 -1.5873 0
M  V30 838 C 84.7076 -0.491956 -1.53195 0
M  V30 839 O 85.8996 -0.745461 -1.60536 0
M  V30 840 C 83.0286 -1.71689 -2.97284 0
M  V30 841 C 82.1146 -2.91781 -3.07774 0
M  V30 842 N 82.5056 -4.15714 -2.88124 0
M  V30 843 C 80.8036 -2.89949 -3.38889 0
M  V30 844 C 81.5046 -4.965 -3.03088 0
M  V30 845 N 80.4806 -4.30083 -3.3246 0
M  V30 846 H 84.2826 -2.57204 -1.42208 0
M  V30 847 H 81.7966 -1.46719 -0.69623 0
M  V30 848 H 83.7936 -1.79732 -3.76168 0
M  V30 849 H 82.4536 -0.793024 -3.14867 0
M  V30 850 H 83.4646 -4.45515 -2.64077 0
M  V30 851 H 80.1416 -2.06987 -3.62578 0
M  V30 852 H 81.5316 -6.04991 -2.92294 0
M  V30 853 N 84.2517 0.741722 -1.39055 0
M  V30 854 C 85.4767 1.53607 -1.39354 0
M  V30 855 C 85.9017 1.88096 0.0116905 0
M  V30 856 O 85.2597 1.5143 0.996924 0
M  V30 857 C 85.3077 2.80441 -2.26682 0
M  V30 858 O 84.4117 3.76088 -1.69208 0
M  V30 859 H 83.7527 0.464142 -0.474835 0
M  V30 860 H 86.2827 0.915665 -1.82967 0
M  V30 861 H 86.2927 3.29246 -2.40959 0
M  V30 862 H 84.9677 2.5467 -3.2881 0
M  V30 863 H 83.5447 3.34833 -1.64138 0
M  V30 864 N 85.7298 1.2412 0.971189 0
M  V30 865 C 87.0068 0.986867 1.6888 0
M  V30 866 C 87.3868 -0.491857 2.0529 0
M  V30 867 O 86.7348 -1.46531 1.75331 0
M  V30 868 C 86.9448 1.9063 2.92338 0
M  V30 869 C 88.2928 2.17515 3.64654 0
M  V30 870 O 89.3168 1.88254 3.02388 0
M  V30 871 O 88.1758 2.6719 4.7673 0
M  V30 872 H 85.2698 0.372944 0.738134 0
M  V30 873 H 87.8158 1.35203 1.02559 0
M  V30 874 H 86.5878 2.90552 2.62097 0
M  V30 875 H 86.2108 1.54408 3.66393 0
M  V30 876 N 87.2079 -1.17134 1.05439 0
M  V30 877 C 88.1379 -2.2342 0.678649 0
M  V30 878 C 89.1189 -1.66971 -0.32476 0
M  V30 879 O 90.3039 -1.93149 -0.201802 0
M  V30 880 C 87.4339 -3.47256 0.0552099 0
M  V30 881 C 86.3879 -4.16543 0.98365 0
M  V30 882 C 85.7139 -5.34231 0.223961 0
M  V30 883 C 87.0139 -4.68495 2.3089 0
M  V30 884 H 88.7079 -2.55105 1.56722 0
M  V30 885 H 86.2539 -1.2262 0.754998 0
M  V30 886 H 88.2069 -4.20828 -0.21946 0
M  V30 887 H 86.9309 -3.14846 -0.868319 0
M  V30 888 H 85.5899 -3.44887 1.24293 0
M  V30 889 H 85.2379 -4.98071 -0.702412 0
M  V30 890 H 84.9379 -5.81527 0.842627 0
M  V30 891 H 86.4619 -6.10585 -0.0433671 0
M  V30 892 H 87.8759 -5.33691 2.09396 0
M  V30 893 H 86.2729 -5.26379 2.88176 0
M  V30 894 H 87.3429 -3.85169 2.94572 0
M  V30 895 N 88.686 -0.835752 -1.33615 0
M  V30 896 C 90.102 -0.523139 -1.50783 0
M  V30 897 C 90.302 0.950171 -1.77691 0
M  V30 898 O 89.358 1.73411 -1.83534 0
M  V30 899 C 90.671 -1.39378 -2.66448 0
M  V30 900 C 92.219 -1.39223 -2.80332 0
M  V30 901 C 92.694 -2.24765 -3.99055 0
M  V30 902 N 94.185 -2.22458 -4.06284 0
M  V30 903 C 94.92 -2.85386 -4.97336 0
M  V30 904 N 94.416 -3.57354 -5.93523 0
M  V30 905 N 96.209 -2.74872 -4.90308 0
M  V30 906 H 88.36 -1.78952 -1.14411 0
M  V30 907 H 90.623 -0.763297 -0.562212 0
M  V30 908 H 90.329 -2.44061 -2.53234 0
M  V30 909 H 90.203 -1.0676 -3.61776 0
M  V30 910 H 92.59 -0.353136 -2.92979 0
M  V30 911 H 92.671 -1.75846 -1.85773 0
M  V30 912 H 92.315 -3.28732 -3.87167 0
M  V30 913 H 92.245 -1.85485 -4.92852 0
M  V30 914 H 94.736 -1.70119 -3.37443 0
M  V30 915 H 95.049 -4.02584 -6.59656 0
M  V30 916 H 93.394 -3.61461 -5.93608 0
M  V30 917 H 96.585 -2.18213 -4.14126 0
M  V30 918 H 96.758 -3.24199 -5.61069 0
M  V30 919 N 90.1641 1.46063 -0.591896 0
M  V30 920 C 91.1271 2.28854 0.125973 0
M  V30 921 C 92.1271 1.38903 0.810107 0
M  V30 922 O 93.3171 1.61186 0.66066 0
M  V30 923 C 90.4491 3.19526 1.1881 0
M  V30 924 H 91.6421 2.93802 -0.601717 0
M  V30 925 H 89.1951 1.52325 -0.350254 0
M  V30 926 H 89.9301 2.59345 1.94707 0
M  V30 927 H 89.7151 3.85766 0.701936 0
M  V30 928 H 91.2051 3.81817 1.69132 0
M  V30 929 N 91.6422 0.330177 1.54103 0
M  V30 930 C 92.8722 -0.271784 2.04805 0
M  V30 931 C 93.2802 -1.45816 1.20559 0
M  V30 932 O 92.6232 -1.82247 0.2306 0
M  V30 933 C 92.6852 -0.763238 3.51305 0
M  V30 934 C 92.3492 0.301705 4.56003 0
M  V30 935 C 93.3462 1.13999 5.07248 0
M  V30 936 C 91.0312 0.451793 5.00264 0
M  V30 937 C 93.0252 2.11402 6.01322 0
M  V30 938 C 90.7122 1.42924 5.94151 0
M  V30 939 C 91.7102 2.25882 6.44567 0
M  V30 940 O 91.3982 3.21965 7.3661 0
M  V30 941 H 91.1302 -0.058693 0.673447 0
M  V30 942 H 93.6842 0.476395 1.99799 0
M  V30 943 H 91.9142 -1.56244 3.5373 0
M  V30 944 H 93.6032 -1.28427 3.85047 0
M  V30 945 H 94.3692 1.03505 4.73827 0
M  V30 946 H 90.2482 -0.184044 4.60632 0
M  V30 947 H 93.7922 2.76192 6.40596 0
M  V30 948 H 89.6892 1.53479 6.26988 0
M  V30 949 H 90.4572 3.17281 7.54503 0
M  V30 950 N 93.1203 -1.57491 0.0584922 0
M  V30 951 C 94.3973 -1.84346 -0.653918 0
M  V30 952 C 94.7773 -0.948355 -1.88599 0
M  V30 953 O 94.1253 -0.0112403 -2.28497 0
M  V30 954 C 94.3353 -3.34239 -1.00425 0
M  V30 955 C 95.6833 -4.01431 -1.38342 0
M  V30 956 O 96.7073 -3.38907 -1.09637 0
M  V30 957 O 95.5663 -5.11683 -1.91943 0
M  V30 958 H 92.6603 -0.761112 -0.323478 0
M  V30 959 H 95.2063 -1.6947 0.0884125 0
M  V30 960 H 93.9783 -3.91089 -0.128625 0
M  V30 961 H 93.6013 -3.54329 -1.80378 0
M  V30 962 N 94.5984 0.214957 -1.56127 0
M  V30 963 C 95.5284 1.2695 -1.95974 0
M  V30 964 C 96.5094 1.48539 -0.828868 0
M  V30 965 O 97.6944 1.60611 -1.09168 0
M  V30 966 C 94.8244 2.61794 -2.28214 0
M  V30 967 C 93.7784 2.54851 -3.43853 0
M  V30 968 C 93.1044 3.93785 -3.61715 0
M  V30 969 C 94.4044 2.09065 -4.78632 0
M  V30 970 H 96.0984 0.93846 -2.84312 0
M  V30 971 H 93.6444 0.449996 -1.36788 0
M  V30 972 H 95.5974 3.35731 -2.54682 0
M  V30 973 H 94.3214 2.96599 -1.36736 0
M  V30 974 H 92.9804 1.8337 -3.17444 0
M  V30 975 H 92.6284 4.25908 -2.67602 0
M  V30 976 H 92.3284 3.90019 -4.39498 0
M  V30 977 H 93.8524 4.69374 -3.90539 0
M  V30 978 H 95.2664 2.7275 -5.04262 0
M  V30 979 H 93.6634 2.16346 -5.59745 0
M  V30 980 H 94.7334 1.04315 -4.73547 0
M  V30 981 N 96.0765 1.50051 0.48192 0
M  V30 982 C 97.0245 1.68635 1.60203 0
M  V30 983 C 98.0185 0.552184 1.60148 0
M  V30 984 O 99.2245 0.732377 1.64427 0
M  V30 985 H 95.5995 0.532081 0.531407 0
M  V30 986 H 97.5705 2.62616 1.41688 0
M  V30 987 C 96.3195 1.78775 2.9822 0
M  V30 988 H 95.6425 2.6543 2.98976 0
M  V30 989 H 97.0825 1.95806 3.7608 0
M  V30 990 C 95.5415 0.536849 3.32595 0
M  V30 991 O 96.0715 -0.328897 4.00351 0
M  V30 992 N 94.2775 0.394091 2.87915 0
M  V30 993 H 93.8245 1.09962 2.32951 0
M  V30 994 H 93.7825 -0.441737 3.11281 0
M  V30 995 N 97.5546 -0.734337 1.39446 0
M  V30 996 C 98.9706 -1.03997 1.21065 0
M  V30 997 C 99.1706 -2.01369 0.0727019 0
M  V30 998 O 98.2266 -2.45856 -0.575426 0
M  V30 999 C 99.5396 -1.60163 2.54496 0
M  V30 1000 C 101.088 -1.7224 2.61347 0
M  V30 1001 C 101.563 -2.31814 3.95002 0
M  V30 1002 N 103.054 -2.39223 3.96644 0
M  V30 1003 C 103.789 -2.86258 4.96834 0
M  V30 1004 N 103.285 -3.33184 6.07421 0
M  V30 1005 N 105.078 -2.85473 4.84213 0
M  V30 1006 H 97.2286 -0.0885624 2.12215 0
M  V30 1007 H 99.4916 -0.10191 0.942506 0
M  V30 1008 H 99.1976 -0.960811 3.38321 0
M  V30 1009 H 99.0716 -2.5896 2.74262 0
M  V30 1010 H 101.459 -2.35443 1.77906 0
M  V30 1011 H 101.54 -0.720939 2.4543 0
M  V30 1012 H 101.184 -1.69238 4.78875 0
M  V30 1013 H 101.114 -3.32638 4.08239 0
M  V30 1014 H 103.605 -2.06057 3.16779 0
M  V30 1015 H 103.918 -3.67586 6.7978 0
M  V30 1016 H 102.263 -3.31191 6.11013 0
M  V30 1017 H 105.454 -2.48136 3.96921 0
M  V30 1018 H 105.627 -3.21814 5.62441 0
M  V30 1019 N 99.0327 -1.24633 -0.964593 0
M  V30 1020 C 100.263 -1.11339 -1.74032 0
M  V30 1021 C 100.671 0.336593 -1.86182 0
M  V30 1022 O 100.014 1.24389 -1.35178 0
M  V30 1023 C 100.076 -1.68284 -3.1768 0
M  V30 1024 C 99.7397 -3.17196 -3.28992 0
M  V30 1025 C 100.737 -4.14308 -3.14078 0
M  V30 1026 C 98.4217 -3.57215 -3.53133 0
M  V30 1027 C 100.416 -5.4942 -3.23135 0
M  V30 1028 C 98.1027 -4.92468 -3.61827 0
M  V30 1029 C 99.1007 -5.8838 -3.46841 0
M  V30 1030 O 98.7887 -7.21173 -3.55197 0
M  V30 1031 H 98.5207 -0.389551 -0.552472 0
M  V30 1032 H 101.075 -1.65282 -1.21946 0
M  V30 1033 H 99.3047 -1.08777 -3.71085 0
M  V30 1034 H 100.994 -1.50234 -3.77074 0
M  V30 1035 H 101.76 -3.84731 -2.95308 0
M  V30 1036 H 97.6387 -2.83063 -3.63863 0
M  V30 1037 H 101.183 -6.24263 -3.11355 0
M  V30 1038 H 97.0797 -5.21714 -3.80111 0
M  V30 1039 H 97.8477 -7.29135 -3.71892 0
M  V30 1040 N 100.511 1.16574 -1.06058 0
M  V30 1041 C 101.443 2.2045 -0.627239 0
M  V30 1042 C 102.456 1.59752 0.313534 0
M  V30 1043 O 103.645 1.78192 0.104896 0
M  V30 1044 C 100.745 3.3875 0.100974 0
M  V30 1045 C 99.9178 4.29008 -0.852687 0
M  V30 1046 C 98.9768 5.25944 -0.164152 0
M  V30 1047 O 98.0028 5.63535 -0.801047 0
M  V30 1048 N 99.2048 5.70075 1.09518 0
M  V30 1049 H 101.97 2.58249 -1.52077 0
M  V30 1050 H 99.5308 1.3156 -0.943594 0
M  V30 1051 H 101.523 4.00638 0.57194 0
M  V30 1052 H 100.093 2.99476 0.89628 0
M  V30 1053 H 99.3128 3.64419 -1.50308 0
M  V30 1054 H 100.601 4.86195 -1.49972 0
M  V30 1055 H 99.9988 5.41624 1.6328 0
M  V30 1056 H 98.5558 6.34067 1.51006 0
M  V30 1057 N 101.989 0.842826 1.3317 0
M  V30 1058 C 103.217 0.454055 2.01856 0
M  V30 1059 C 103.632 -0.94587 1.63397 0
M  V30 1060 O 102.989 -1.61534 0.849302 0
M  V30 1061 C 103.04 0.569715 3.56982 0
M  V30 1062 O 102.761 1.91448 3.94055 0
M  V30 1063 C 104.262 0.178412 4.42941 0
M  V30 1064 H 101.482 0.17979 0.646465 0
M  V30 1065 H 104.026 1.1365 1.70012 0
M  V30 1066 H 102.181 -0.0648587 3.87346 0
M  V30 1067 H 102.595 1.90282 4.88767 0
M  V30 1068 H 104.069 0.310376 5.51127 0
M  V30 1069 H 104.546 -0.880056 4.30293 0
M  V30 1070 H 105.152 0.787579 4.17944 0
M  V30 1071 N 103.467 -1.45747 0.599634 0
M  V30 1072 C 104.397 -2.33235 -0.111306 0
M  V30 1073 C 105.378 -1.46359 -0.866781 0
M  V30 1074 O 106.563 -1.75146 -0.838904 0
M  V30 1075 C 103.693 -3.28932 -1.11451 0
M  V30 1076 C 102.647 -4.25381 -0.472772 0
M  V30 1077 C 101.973 -5.1071 -1.58365 0
M  V30 1078 C 103.273 -5.18831 0.600948 0
M  V30 1079 H 104.967 -2.92927 0.61919 0
M  V30 1080 H 102.513 -1.40857 0.299215 0
M  V30 1081 H 104.466 -3.89002 -1.62036 0
M  V30 1082 H 103.19 -2.67381 -1.8755 0
M  V30 1083 H 101.849 -3.66598 0.0121472 0
M  V30 1084 H 101.497 -4.45533 -2.33473 0
M  V30 1085 H 101.197 -5.7604 -1.15982 0
M  V30 1086 H 102.721 -5.73647 -2.09194 0
M  V30 1087 H 104.135 -5.73019 0.179491 0
M  V30 1088 H 102.532 -5.92595 0.946076 0
M  V30 1089 H 103.602 -4.6174 1.48068 0
M  V30 1090 N 104.945 -0.338344 -1.53925 0
M  V30 1091 C 106.222 0.314774 -1.93051 0
M  V30 1092 C 106.602 1.68669 -1.26941 0
M  V30 1093 O 105.95 2.24636 -0.418445 0
M  V30 1094 C 106.16 0.392249 -3.46789 0
M  V30 1095 C 107.508 0.645554 -4.19664 0
M  V30 1096 O 108.532 0.474575 -3.53024 0
M  V30 1097 O 107.391 0.976408 -5.37707 0
M  V30 1098 H 104.485 0.182598 -0.80659 0
M  V30 1099 H 107.031 -0.389141 -1.65178 0
M  V30 1100 H 105.803 -0.570702 -3.87116 0
M  V30 1101 H 105.426 1.14316 -3.80812 0
M  V30 1102 N 106.423 1.57458 -0.0668435 0
M  V30 1103 C 107.671 1.92919 0.602214 0
M  V30 1104 C 107.992 0.947215 1.70449 0
M  V30 1105 O 107.262 -0.00544117 1.95899 0
M  V30 1106 H 105.842 0.71217 0.22544 0
M  V30 1107 H 108.504 1.94508 -0.123535 0
M  V30 1108 H 107.6 2.94589 1.03073 0
M  V30 1109 N 107.901 -0.206675 1.56239 0
M  V30 1110 C 109.131 -0.943975 1.83773 0
M  V30 1111 C 109.539 -1.77841 0.645703 0
M  V30 1112 O 108.882 -1.79403 -0.395008 0
M  V30 1113 C 108.944 -1.899 3.05251 0
M  V30 1114 C 108.608 -1.24764 4.39639 0
M  V30 1115 C 109.605 -0.630216 5.16066 0
M  V30 1116 C 107.29 -1.25496 4.8637 0
M  V30 1117 C 109.284 -0.0287946 6.37393 0
M  V30 1118 C 106.971 -0.649698 6.07637 0
M  V30 1119 C 107.969 -0.0376845 6.8299 0
M  V30 1120 O 107.657 0.55812 8.0196 0
M  V30 1121 H 107.389 -0.281508 0.614597 0
M  V30 1122 H 109.943 -0.222458 2.04192 0
M  V30 1123 H 108.173 -2.6599 2.80689 0
M  V30 1124 H 109.862 -2.5031 3.1953 0
M  V30 1125 H 110.628 -0.616785 4.81062 0
M  V30 1126 H 106.507 -1.72072 4.27683 0
M  V30 1127 H 110.051 0.449518 6.9615 0
M  V30 1128 H 105.948 -0.660592 6.42111 0
M  V30 1129 H 106.716 0.453891 8.17241 0
M  V30 1130 N 109.379 -1.50304 -0.473955 0
M  V30 1131 C 110.342 -1.6841 -1.55469 0
M  V30 1132 C 111.342 -0.554905 -1.50922 0
M  V30 1133 O 112.532 -0.821882 -1.53593 0
M  V30 1134 C 109.664 -1.70667 -2.95102 0
M  V30 1135 H 110.857 -2.64828 -1.40733 0
M  V30 1136 H 108.41 -1.39742 -0.700132 0
M  V30 1137 H 109.145 -0.75932 -3.15285 0
M  V30 1138 H 108.93 -2.52698 -2.9981 0
M  V30 1139 H 110.42 -1.8664 -3.73571 0
M  V30 1140 N 110.857 0.726932 -1.39834 0
M  V30 1141 C 111.789 1.85147 -1.35104 0
M  V30 1142 C 112.802 1.60736 -0.258392 0
M  V30 1143 O 113.991 1.70821 -0.517931 0
M  V30 1144 C 111.091 3.21332 -1.07697 0
M  V30 1145 C 110.264 3.73033 -2.28396 0
M  V30 1146 C 109.323 4.87802 -1.97322 0
M  V30 1147 O 108.349 5.01043 -2.70083 0
M  V30 1148 N 109.551 5.72768 -0.944273 0
M  V30 1149 H 112.316 1.89706 -2.32017 0
M  V30 1150 H 109.877 0.908006 -1.3404 0
M  V30 1151 H 111.869 3.95691 -0.849144 0
M  V30 1152 H 110.439 3.11992 -0.194909 0
M  V30 1153 H 109.659 2.89934 -2.6708 0
M  V30 1154 H 110.947 4.0431 -3.08887 0
M  V30 1155 H 110.345 5.64669 -0.341427 0
M  V30 1156 H 108.902 6.4716 -0.776346 0
M  V30 1157 N 112.336 1.25143 0.95797 0
M  V30 1158 C 113.613 1.00472 1.67823 0
M  V30 1159 C 113.993 -0.470056 2.058 0
M  V30 1160 O 113.341 -1.44663 1.76875 0
M  V30 1161 C 113.551 1.9372 2.90299 0
M  V30 1162 C 114.899 2.21371 3.62326 0
M  V30 1163 O 115.923 1.91451 3.00375 0
M  V30 1164 O 114.782 2.72231 4.7387 0
M  V30 1165 H 111.876 0.380752 0.734137 0
M  V30 1166 H 114.422 1.36283 1.01119 0
M  V30 1167 H 113.194 2.93316 2.59001 0
M  V30 1168 H 112.817 1.58286 3.64735 0
M  V30 1169 N 113.814 -1.1601 1.06675 0
M  V30 1170 C 115.06 -1.86909 0.786945 0
M  V30 1171 C 115.393 -1.81717 -0.685018 0
M  V30 1172 O 114.668 -1.23551 -1.50218 0
M  V30 1173 C 114.951 -3.36313 1.28707 0
M  V30 1174 C 114.804 -3.50175 2.82308 0
M  V30 1175 C 116.123 -4.3084 0.898071 0
M  V30 1176 H 113.242 -0.678677 0.287343 0
M  V30 1177 H 115.884 -1.36336 1.32334 0
M  V30 1178 H 114.034 -3.79513 0.830768 0
M  V30 1179 H 115.706 -3.15886 3.36175 0
M  V30 1180 H 113.949 -2.91959 3.20847 0
M  V30 1181 H 114.62 -4.55116 3.12368 0
M  V30 1182 H 117.096 -3.95561 1.29114 0
M  V30 1183 H 115.972 -5.33876 1.27543 0
M  V30 1184 H 116.233 -4.41662 -0.196651 0
M  V30 1185 N 115.292 -0.849877 -1.32721 0
M  V30 1186 C 116.222 -0.306308 -2.31482 0
M  V30 1187 C 117.203 0.591952 -1.59468 0
M  V30 1188 O 118.388 0.513199 -1.87296 0
M  V30 1189 C 115.518 0.510204 -3.43532 0
M  V30 1190 C 114.472 -0.293209 -4.26994 0
M  V30 1191 C 113.798 0.647743 -5.30762 0
M  V30 1192 C 115.098 -1.51634 -4.99804 0
M  V30 1193 H 116.792 -1.13153 -2.77195 0
M  V30 1194 H 114.338 -0.545553 -1.33266 0
M  V30 1195 H 116.291 0.900856 -4.11658 0
M  V30 1196 H 115.015 1.36874 -2.96535 0
M  V30 1197 H 113.674 -0.665555 -3.60508 0
M  V30 1198 H 113.322 1.50299 -4.8002 0
M  V30 1199 H 113.022 0.11422 -5.87489 0
M  V30 1200 H 114.546 1.03567 -6.01753 0
M  V30 1201 H 115.96 -1.19824 -5.60638 0
M  V30 1202 H 114.357 -1.98745 -5.66234 0
M  V30 1203 H 115.427 -2.28018 -4.27943 0
M  V30 1204 N 116.77 1.45427 -0.607355 0
M  V30 1205 C 118.047 1.9557 -0.0344566 0
M  V30 1206 C 118.427 1.54979 1.43334 0
M  V30 1207 O 117.775 0.812241 2.13576 0
M  V30 1208 C 117.985 3.48226 -0.232321 0
M  V30 1209 C 119.333 4.2445 -0.113001 0
M  V30 1210 O 120.357 3.55829 -0.162431 0
M  V30 1211 O 119.216 5.465 0.00209442 0
M  V30 1212 H 116.31 0.826222 0.0358667 0
M  V30 1213 H 118.856 1.55594 -0.6774 0
M  V30 1214 H 117.628 3.70739 -1.25174 0
M  V30 1215 H 117.251 3.95092 0.445896 0
M  V30 1216 N 118.248 0.346503 1.53744 0
M  V30 1217 C 119.494 -0.249473 2.0126 0
M  V30 1218 C 119.827 -1.49965 1.23386 0
M  V30 1219 O 119.102 -1.91811 0.32229 0
M  V30 1220 C 119.385 -0.560643 3.55709 0
M  V30 1221 C 119.238 0.701836 4.44291 0
M  V30 1222 C 120.557 -1.36905 4.18264 0
M  V30 1223 H 117.676 -0.0891987 0.731582 0
M  V30 1224 H 120.318 0.467624 1.84156 0
M  V30 1225 H 118.468 -1.17156 3.70414 0
M  V30 1226 H 120.14 1.33974 4.41417 0
M  V30 1227 H 118.383 1.32612 4.13033 0
M  V30 1228 H 119.054 0.43933 5.50249 0
M  V30 1229 H 121.53 -0.852448 4.07275 0
M  V30 1230 H 120.406 -1.55553 5.26398 0
M  V30 1231 H 120.667 -2.37203 3.73078 0
M  V30 1232 N 119.726 -1.57421 0.075193 0
M  V30 1233 C 120.966 -1.95495 -0.596757 0
M  V30 1234 C 121.33 -0.954886 -1.66571 0
M  V30 1235 O 122.531 -1.22341 -2.39345 0
M  V30 1236 C 120.802 -3.382 -1.15566 0
M  V30 1237 S 122.361 -3.98254 -1.84226 0
M  V30 1238 H 119.179 -0.683649 -0.195307 0
M  V30 1239 H 121.781 -1.94925 0.149859 0
M  V30 1240 H 120.485 -4.08766 -0.36588 0
M  V30 1241 H 120.016 -3.42321 -1.93856 0
M  V30 1242 H 122.031 -3.85435 -3.12497 0
M  V30 1243 N 121.204 0.198386 -1.56346 0
M  V30 1244 C 122.114 1.2664 -1.97483 0
M  V30 1245 C 123.13 1.49989 -0.882002 0
M  V30 1246 O 124.306 1.62668 -1.18748 0
M  V30 1247 C 121.371 2.59141 -2.30319 0
M  V30 1248 C 120.432 2.43892 -3.53292 0
M  V30 1249 C 119.665 3.70074 -3.84553 0
M  V30 1250 O 119.888 4.74101 -3.1715 0
M  V30 1251 O 118.822 3.658 -4.7799 0
M  V30 1252 H 122.648 0.947304 -2.88548 0
M  V30 1253 H 120.233 0.403123 -1.43859 0
M  V30 1254 H 122.115 3.37352 -2.5253 0
M  V30 1255 H 120.79 2.90684 -1.42423 0
M  V30 1256 H 119.697 1.63803 -3.36332 0
M  V30 1257 H 121.03 2.17282 -4.41644 0
M  V30 1258 N 122.682 1.50554 0.465978 0
M  V30 1259 C 123.645 1.69233 1.54574 0
M  V30 1260 C 124.645 0.562901 1.50626 0
M  V30 1261 O 125.835 0.830016 1.53155 0
M  V30 1262 C 122.967 1.7223 2.94193 0
M  V30 1263 H 124.16 2.65571 1.39327 0
M  V30 1264 H 121.713 1.40111 0.692711 0
M  V30 1265 H 122.448 0.77603 3.14878 0
M  V30 1266 H 122.233 2.54285 2.98466 0
M  V30 1267 H 123.723 1.88618 3.72576 0
M  V30 1268 N 124.16 -0.719506 1.40217 0
M  V30 1269 C 125.09 -1.8465 1.42922 0
M  V30 1270 C 126.071 -1.67599 0.29062 0
M  V30 1271 O 127.256 -1.87688 0.498677 0
M  V30 1272 C 124.386 -3.22565 1.28722 0
M  V30 1273 C 123.34 -3.54281 2.40144 0
M  V30 1274 C 122.666 -4.91298 2.11023 0
M  V30 1275 C 123.966 -3.55676 3.82481 0
M  V30 1276 H 125.66 -1.82644 2.37237 0
M  V30 1277 H 123.206 -0.877305 1.1419 0
M  V30 1278 H 125.159 -4.01095 1.29232 0
M  V30 1279 H 123.883 -3.25137 0.308811 0
M  V30 1280 H 122.542 -2.78088 2.38877 0
M  V30 1281 H 122.19 -4.90468 1.11582 0
M  V30 1282 H 121.89 -5.13485 2.8567 0
M  V30 1283 H 123.414 -5.72166 2.13209 0
M  V30 1284 H 124.828 -4.24254 3.85592 0
M  V30 1285 H 123.225 -3.89388 4.56614 0
M  V30 1286 H 124.295 -2.55144 4.12346 0
M  V30 1287 N 125.638 -1.25649 -0.95132 0
M  V30 1288 C 126.915 -1.01361 -1.67288 0
M  V30 1289 C 127.295 0.459135 -2.06046 0
M  V30 1290 O 126.643 1.43723 -1.7764 0
M  V30 1291 C 126.853 -1.95256 -2.89268 0
M  V30 1292 C 128.201 -2.23289 -3.61147 0
M  V30 1293 O 129.225 -1.93041 -2.99355 0
M  V30 1294 O 128.084 -2.74741 -4.72419 0
M  V30 1295 H 125.178 -0.38464 -0.732107 0
M  V30 1296 H 127.724 -1.36817 -1.00395 0
M  V30 1297 H 126.496 -2.94685 -2.57442 0
M  V30 1298 H 126.119 -1.60218 -3.6389 0
M  V30 1299 N 127.117 1.15442 -1.07289 0
M  V30 1300 C 128.047 2.22312 -0.714107 0
M  V30 1301 C 129.028 1.67467 0.298155 0
M  V30 1302 O 130.213 1.93445 0.171048 0
M  V30 1303 C 127.343 3.47124 -0.110448 0
M  V30 1304 C 126.297 4.14926 -1.04979 0
M  V30 1305 C 125.623 5.33807 -0.308924 0
M  V30 1306 C 126.923 4.64762 -2.38314 0
M  V30 1307 H 128.617 2.5258 -1.6076 0
M  V30 1308 H 126.163 1.21404 -0.77441 0
M  V30 1309 H 128.116 4.21124 0.152482 0
M  V30 1310 H 126.84 3.16187 0.81812 0
M  V30 1311 H 125.499 3.42866 -1.29764 0
M  V30 1312 H 125.147 4.99126 0.623084 0
M  V30 1313 H 124.847 5.80113 -0.935036 0
M  V30 1314 H 126.371 6.10576 -0.0537771 0
M  V30 1315 H 127.785 5.30292 -2.1786 0
M  V30 1316 H 126.182 5.21728 -2.96514 0
M  V30 1317 H 127.252 3.80434 -3.00663 0
M  V30 1318 N 128.595 0.856903 1.32268 0
M  V30 1319 C 129.542 0.301172 2.28827 0
M  V30 1320 C 130.512 -0.593104 1.5515 0
M  V30 1321 O 131.697 -0.527537 1.83362 0
M  V30 1322 C 128.837 -0.502523 3.41422 0
M  V30 1323 C 127.95 0.417797 4.29975 0
M  V30 1324 C 127.085 -0.398749 5.29701 0
M  V30 1325 C 126.124 0.518827 6.09897 0
M  V30 1326 N 125.261 -0.260674 7.01616 0
M  V30 1327 H 130.101 1.12983 2.75751 0
M  V30 1328 H 127.638 0.568582 1.35667 0
M  V30 1329 H 129.596 -0.984141 4.05426 0
M  V30 1330 H 128.226 -1.29599 2.95642 0
M  V30 1331 H 127.278 1.01781 3.66531 0
M  V30 1332 H 128.59 1.12191 4.86019 0
M  V30 1333 H 127.744 -0.943435 5.9932 0
M  V30 1334 H 126.483 -1.13622 4.7428 0
M  V30 1335 H 125.488 1.07538 5.39181 0
M  V30 1336 H 126.713 1.25495 6.67404 0
M  V30 1337 H 124.659 -0.981198 6.4862 0
M  V30 1338 H 124.576 0.384364 7.55022 0
M  V30 1339 H 125.844 -0.787014 7.75517 0
M  V30 1340 N 130.073 -1.45103 0.615059 0
M  V30 1341 C 130.983 -2.34382 -0.101034 0
M  V30 1342 C 131.999 -1.51681 -0.852585 0
M  V30 1343 O 133.175 -1.8446 -0.808484 0
M  V30 1344 C 130.24 -3.29417 -1.08099 0
M  V30 1345 C 129.301 -4.28025 -0.330577 0
M  V30 1346 C 128.534 -5.1852 -1.26385 0
M  V30 1347 O 128.757 -5.12598 -2.50198 0
M  V30 1348 O 127.691 -5.97122 -0.756866 0
M  V30 1349 H 131.517 -2.97033 0.632855 0
M  V30 1350 H 129.102 -1.4461 0.375293 0
M  V30 1351 H 130.984 -3.87958 -1.6452 0
M  V30 1352 H 129.659 -2.69321 -1.79577 0
M  V30 1353 H 128.566 -3.73078 0.276283 0
M  V30 1354 H 129.899 -4.90997 0.343866 0
M  V30 1355 N 131.551 -0.354651 -1.53558 0
M  V30 1356 C 132.779 0.239515 -2.05509 0
M  V30 1357 C 133.194 1.4333 -1.2289 0
M  V30 1358 O 132.551 1.80538 -0.266899 0
M  V30 1359 C 132.602 0.643719 -3.55723 0
M  V30 1360 O 132.323 -0.502602 -4.35207 0
M  V30 1361 C 133.824 1.29743 -4.23889 0
M  V30 1362 H 131.044 0.0442697 -0.669538 0
M  V30 1363 H 133.588 -0.509856 -1.98042 0
M  V30 1364 H 131.743 1.34302 -3.63376 0
M  V30 1365 H 132.157 -0.178172 -5.24197 0
M  V30 1366 H 133.631 1.53091 -5.30346 0
M  V30 1367 H 134.108 2.25441 -3.76926 0
M  V30 1368 H 134.714 0.639865 -4.20459 0
M  V30 1369 N 133.029 1.57378 -0.0835403 0
M  V30 1370 C 134.275 1.94217 0.583733 0
M  V30 1371 C 134.608 0.964653 1.68547 0
M  V30 1372 O 133.883 -0.00422258 1.945 0
M  V30 1373 C 134.166 3.41253 1.14972 0
M  V30 1374 C 134.019 4.49768 0.0538277 0
M  V30 1375 C 135.338 3.89352 2.05166 0
M  V30 1376 H 132.457 0.706233 0.210724 0
M  V30 1377 H 135.099 1.89392 -0.1519 0
M  V30 1378 H 133.249 3.45496 1.77665 0
M  V30 1379 H 134.921 4.57641 -0.579851 0
M  V30 1380 H 133.164 4.29432 -0.614068 0
M  V30 1381 H 133.835 5.49817 0.490452 0
M  V30 1382 H 136.311 3.87189 1.52393 0
M  V30 1383 H 135.187 4.92822 2.41698 0
M  V30 1384 H 135.448 3.27973 2.96456 0
M  V30 1385 N 134.507 -0.190092 1.56449 0
M  V30 1386 C 135.754 -0.909705 1.80916 0
M  V30 1387 C 136.082 -1.83047 0.657583 0
M  V30 1388 O 135.337 -1.92428 -0.356356 0
M  V30 1389 C 135.636 -1.75382 3.1141 0
M  V30 1390 C 135.302 -0.983606 4.40041 0
M  V30 1391 C 133.964 -0.770967 4.74984 0
M  V30 1392 C 136.316 -0.442024 5.19322 0
M  V30 1393 C 133.644 -0.0053448 5.867 0
M  V30 1394 C 135.996 0.310412 6.31838 0
M  V30 1395 C 134.66 0.534023 6.6536 0
M  V30 1396 H 133.93 -0.332885 0.662019 0
M  V30 1397 H 136.577 -0.175762 1.90692 0
M  V30 1398 H 134.882 -2.55659 2.96893 0
M  V30 1399 H 136.579 -2.31331 3.27547 0
M  V30 1400 H 133.169 -1.15936 4.12622 0
M  V30 1401 H 137.353 -0.593693 4.92736 0
M  V30 1402 H 132.609 0.177825 6.11141 0
M  V30 1403 H 136.783 0.737419 6.92485 0
M  V30 1404 H 134.41 1.12918 7.51767 0
M  V30 1405 N 135.985 -1.50799 -0.457987 0
M  V30 1406 C 137.231 -1.62683 -1.21088 0
M  V30 1407 C 137.564 -0.332268 -1.91336 0
M  V30 1408 O 136.839 0.667043 -1.82704 0
M  V30 1409 C 137.122 -2.81615 -2.24422 0
M  V30 1410 C 136.975 -4.20989 -1.58392 0
M  V30 1411 C 138.294 -2.96085 -3.2561 0
M  V30 1412 H 135.413 -0.592087 -0.438864 0
M  V30 1413 H 138.055 -1.83225 -0.50286 0
M  V30 1414 H 136.205 -2.64231 -2.84806 0
M  V30 1415 H 137.877 -4.49994 -1.01504 0
M  V30 1416 H 136.12 -4.24641 -0.886704 0
M  V30 1417 H 136.791 -5.0016 -2.33547 0
M  V30 1418 H 139.267 -3.12042 -2.75262 0
M  V30 1419 H 138.143 -3.80902 -3.95228 0
M  V30 1420 H 138.404 -2.0726 -3.90507 0
M  V30 1421 N 137.463 0.71206 -1.40597 0
M  V30 1422 C 138.711 1.46907 -1.38791 0
M  V30 1423 C 139.032 1.94998 0.00780391 0
M  V30 1424 O 138.302 1.70587 0.963174 0
M  V30 1425 H 136.882 0.545043 -0.51082 0
M  V30 1426 H 139.544 0.843882 -1.75683 0
M  V30 1427 H 138.64 2.34021 -2.06496 0
M  V30 1428 N 138.941 1.26152 0.944643 0
M  V30 1429 C 139.891 1.04081 2.02857 0
M  V30 1430 C 140.875 -0.0256555 1.6088 0
M  V30 1431 O 142.067 0.190884 1.75968 0
M  V30 1432 C 139.196 0.672118 3.36656 0
M  V30 1433 C 138.282 1.77586 3.85128 0
M  V30 1434 N 138.673 3.01272 4.06287 0
M  V30 1435 C 136.971 1.65867 4.1401 0
M  V30 1436 C 137.672 3.72983 4.46384 0
M  V30 1437 N 136.648 3.00653 4.52889 0
M  V30 1438 H 140.45 1.97968 2.17223 0
M  V30 1439 H 137.964 1.16618 1.13022 0
M  V30 1440 H 139.961 0.495166 4.13949 0
M  V30 1441 H 138.621 -0.259307 3.23663 0
M  V30 1442 H 139.632 3.37213 3.93075 0
M  V30 1443 H 136.309 0.796907 4.09824 0
M  V30 1444 H 137.699 4.792 4.70975 0
M  V30 1445 N 140.419 -1.14872 1.07899 0
M  V30 1446 C 141.644 -1.90202 0.826926 0
M  V30 1447 C 142.069 -1.77774 -0.614664 0
M  V30 1448 O 141.427 -1.11431 -1.43013 0
M  V30 1449 C 141.475 -3.38352 1.24702 0
M  V30 1450 O 140.579 -4.10497 0.39575 0
M  V30 1451 H 139.92 -0.591968 0.300782 0
M  V30 1452 H 142.45 -1.45437 1.43907 0
M  V30 1453 H 142.46 -3.89156 1.22563 0
M  V30 1454 H 141.135 -3.46715 2.29698 0
M  V30 1455 H 139.712 -3.69796 0.480117 0
M  V30 1456 N 141.898 -0.863906 -1.31812 0
M  V30 1457 C 143.144 -0.472535 -1.97218 0
M  V30 1458 C 143.477 0.971394 -1.68159 0
M  V30 1459 O 142.752 1.68309 -0.974798 0
M  V30 1460 C 143.035 -0.723054 -3.52766 0
M  V30 1461 C 142.888 -2.21608 -3.91421 0
M  V30 1462 C 144.207 -0.185522 -4.39709 0
M  V30 1463 H 141.326 -0.173158 -0.71637 0
M  V30 1464 H 143.968 -1.08403 -1.56041 0
M  V30 1465 H 142.118 -0.202577 -3.87971 0
M  V30 1466 H 143.79 -2.80334 -3.66347 0
M  V30 1467 H 142.033 -2.691 -3.40246 0
M  V30 1468 H 142.704 -2.34203 -4.99853 0
M  V30 1469 H 145.18 -0.630726 -4.11292 0
M  V30 1470 H 144.056 -0.390306 -5.47511 0
M  V30 1471 H 144.317 0.912229 -4.32586 0
M  V30 1472 N 143.376 1.44774 -0.622745 0
M  V30 1473 C 144.624 2.01721 -0.123655 0
M  V30 1474 C 144.945 1.49172 1.25589 0
M  V30 1475 O 144.215 0.691974 1.83272 0
M  V30 1476 H 142.795 0.745777 -0.0427225 0
M  V30 1477 H 145.457 1.77382 -0.807559 0
M  V30 1478 H 144.553 3.11984 -0.0849534 0
M  V30 1479 N 144.854 0.36279 1.53368 0
M  V30 1480 C 145.817 -0.472679 2.24273 0
M  V30 1481 C 146.817 -1.012 1.24961 0
M  V30 1482 O 148.007 -0.898194 1.49259 0
M  V30 1483 C 145.139 -1.66039 2.97731 0
M  V30 1484 H 146.332 0.14773 2.99536 0
M  V30 1485 H 143.885 0.114434 1.55881 0
M  V30 1486 H 144.62 -2.31896 2.26704 0
M  V30 1487 H 144.405 -1.28066 3.70596 0
M  V30 1488 H 145.895 -2.25252 3.51641 0
M  V30 1489 N 146.332 -1.57332 0.0918853 0
M  V30 1490 C 147.262 -2.16872 -0.865371 0
M  V30 1491 C 148.243 -1.10118 -1.29646 0
M  V30 1492 O 149.428 -1.38242 -1.36392 0
M  V30 1493 C 146.558 -2.74649 -2.12569 0
M  V30 1494 C 145.512 -3.86747 -1.83333 0
M  V30 1495 C 144.838 -4.31212 -3.16166 0
M  V30 1496 C 146.138 -5.10089 -1.1228 0
M  V30 1497 H 147.832 -2.97114 -0.369307 0
M  V30 1498 H 145.378 -1.42918 -0.176194 0
M  V30 1499 H 147.331 -3.14952 -2.7997 0
M  V30 1500 H 146.055 -1.91657 -2.64452 0
M  V30 1501 H 144.714 -3.46978 -1.18331 0
M  V30 1502 H 144.362 -3.45115 -3.6593 0
M  V30 1503 H 144.062 -5.06788 -2.97388 0
M  V30 1504 H 145.586 -4.74146 -3.84731 0
M  V30 1505 H 147 -5.47582 -1.69785 0
M  V30 1506 H 145.397 -5.91073 -1.03693 0
M  V30 1507 H 146.467 -4.84786 -0.105041 0
M  V30 1508 N 147.81 0.181792 -1.56548 0
M  V30 1509 C 149.059 0.898348 -1.8059 0
M  V30 1510 C 149.372 1.83862 -0.667379 0
M  V30 1511 O 150.578 2.59678 -0.792446 0
M  V30 1512 C 149.034 1.64791 -3.19956 0
M  V30 1513 C 148.642 0.751789 -4.41647 0
M  V30 1514 C 150.386 2.35331 -3.53298 0
M  V30 1515 C 148.293 1.50098 -5.72035 0
M  V30 1516 H 147.223 0.339194 -0.673397 0
M  V30 1517 H 149.874 0.151413 -1.82874 0
M  V30 1518 H 148.256 2.43921 -3.11959 0
M  V30 1519 H 149.43 -0.0018076 -4.608 0
M  V30 1520 H 147.745 0.156562 -4.16106 0
M  V30 1521 H 150.342 2.91958 -4.47956 0
M  V30 1522 H 150.685 3.10164 -2.77676 0
M  V30 1523 H 151.218 1.63154 -3.62803 0
M  V30 1524 H 147.957 0.795175 -6.50659 0
M  V30 1525 H 147.477 2.22817 -5.56878 0
M  V30 1526 H 149.156 2.05125 -6.13622 0
M  V30 1527 N 149.288 1.51039 0.449983 0
M  V30 1528 C 150.536 1.62759 1.19808 0
M  V30 1529 C 150.857 0.339981 1.92013 0
M  V30 1530 O 150.127 -0.643606 1.85026 0
M  V30 1531 H 148.707 0.599811 0.445237 0
M  V30 1532 H 151.369 1.87914 0.517138 0
M  V30 1533 H 150.465 2.44911 1.93455 0
M  V30 1534 N 150.766 -0.704594 1.40972 0
M  V30 1535 C 151.699 -1.82861 1.36518 0
M  V30 1536 C 152.677 -1.6091 0.23382 0
M  V30 1537 O 153.861 -1.83778 0.419271 0
M  V30 1538 C 150.988 -3.1939 1.12729 0
M  V30 1539 C 150.034 -3.60148 2.28463 0
M  V30 1540 S 150.867 -3.65994 3.90907 0
M  V30 1541 C 152.023 -5.05264 3.69403 0
M  V30 1542 H 152.256 -1.86361 2.3164 0
M  V30 1543 H 149.789 -0.872439 1.27389 0
M  V30 1544 H 151.747 -3.98211 0.996893 0
M  V30 1545 H 150.408 -3.1351 0.192427 0
M  V30 1546 H 149.601 -4.59309 2.07489 0
M  V30 1547 H 149.203 -2.88612 2.37863 0
M  V30 1548 H 151.495 -5.92504 3.28551 0
M  V30 1549 H 152.438 -5.31278 4.68134 0
M  V30 1550 H 152.846 -4.76377 3.02862 0
M  V30 1551 N 152.244 -1.26651 -0.937939 0
M  V30 1552 C 153.174 -1.10993 -2.05433 0
M  V30 1553 C 154.155 -0.0142161 -1.70094 0
M  V30 1554 O 155.34 -0.186837 -1.93299 0
M  V30 1555 C 152.47 -0.745561 -3.39203 0
M  V30 1556 C 151.424 -1.79337 -3.88616 0
M  V30 1557 C 150.75 -1.28324 -5.19073 0
M  V30 1558 C 152.05 -3.19553 -4.13138 0
M  V30 1559 H 153.744 -2.0438 -2.1879 0
M  V30 1560 H 151.29 -0.984041 -1.05131 0
M  V30 1561 H 153.243 -0.622888 -4.16771 0
M  V30 1562 H 151.967 0.22401 -3.25831 0
M  V30 1563 H 150.626 -1.90477 -3.13231 0
M  V30 1564 H 150.274 -0.303414 -5.02084 0
M  V30 1565 H 149.974 -1.98369 -5.53103 0
M  V30 1566 H 151.498 -1.1733 -5.99221 0
M  V30 1567 H 152.912 -3.11471 -4.81309 0
M  V30 1568 H 151.309 -3.87218 -4.58457 0
M  V30 1569 H 152.379 -3.65368 -3.18801 0
M  V30 1570 N 153.722 1.14298 -1.08507 0
M  V30 1571 C 154.685 2.17607 -0.719711 0
M  V30 1572 C 155.685 1.58907 0.245997 0
M  V30 1573 O 156.875 1.74181 0.0254081 0
M  V30 1574 C 154.007 3.40842 -0.0627695 0
M  V30 1575 H 155.2 2.51443 -1.63452 0
M  V30 1576 H 152.753 1.28963 -0.88307 0
M  V30 1577 H 153.488 3.12587 0.863716 0
M  V30 1578 H 153.273 3.84713 -0.757504 0
M  V30 1579 H 154.763 4.17221 0.177786 0
M  V30 1580 N 155.201 0.870884 1.31352 0
M  V30 1581 C 156.426 0.495957 2.01383 0
M  V30 1582 C 156.851 -0.904324 1.64935 0
M  V30 1583 O 156.209 -1.59687 0.858466 0
M  V30 1584 C 156.257 0.661433 3.54482 0
M  V30 1585 O 155.361 -0.298851 4.11316 0
M  V30 1586 H 154.702 0.197158 0.634054 0
M  V30 1587 H 157.232 1.17455 1.67527 0
M  V30 1588 H 157.242 0.555072 4.04207 0
M  V30 1589 H 155.917 1.68246 3.8035 0
M  V30 1590 H 154.494 -0.147368 3.72609 0
M  V30 1591 N 156.679 -1.44442 0.630414 0
M  V30 1592 C 157.928 -2.01267 0.132073 0
M  V30 1593 C 158.241 -1.50172 -1.25331 0
M  V30 1594 O 159.447 -1.9912 -1.84562 0
M  V30 1595 C 157.903 -3.59422 0.185362 0
M  V30 1596 C 157.511 -4.19514 1.57201 0
M  V30 1597 C 159.255 -4.23724 -0.256553 0
M  V30 1598 C 157.162 -5.69891 1.58045 0
M  V30 1599 H 156.092 -0.752619 0.0456092 0
M  V30 1600 H 158.743 -1.65666 0.789106 0
M  V30 1601 H 157.125 -3.92318 -0.538759 0
M  V30 1602 H 158.299 -3.98156 2.31966 0
M  V30 1603 H 156.614 -3.67496 1.95795 0
M  V30 1604 H 159.211 -5.34019 -0.269767 0
M  V30 1605 H 159.554 -3.96013 -1.28372 0
M  V30 1606 H 160.087 -3.95629 0.41505 0
M  V30 1607 H 156.826 -6.02336 2.58597 0
M  V30 1608 H 156.346 -5.93373 0.875725 0
M  V30 1609 H 158.025 -6.33515 1.31408 0
M  V30 1610 N 158.157 -0.370918 -1.53173 0
M  V30 1611 C 159.573 -0.0200818 -1.59587 0
M  V30 1612 C 159.773 1.46279 -1.38581 0
M  V30 1613 O 158.829 2.22506 -1.19363 0
M  V30 1614 C 160.142 -0.4808 -2.96831 0
M  V30 1615 C 161.69 -0.435477 -3.09956 0
M  V30 1616 C 162.165 -0.872092 -4.4962 0
M  V30 1617 N 163.656 -0.827364 -4.55751 0
M  V30 1618 C 164.391 -1.13683 -5.62018 0
M  V30 1619 N 163.887 -1.51584 -6.76014 0
M  V30 1620 N 165.68 -1.05927 -5.52029 0
M  V30 1621 H 157.831 -1.33652 -1.65079 0
M  V30 1622 H 160.094 -0.546634 -0.774529 0
M  V30 1623 H 159.8 -1.51577 -3.1736 0
M  V30 1624 H 159.674 0.129796 -3.76977 0
M  V30 1625 H 162.061 0.590371 -2.89134 0
M  V30 1626 H 162.142 -1.08164 -2.31806 0
M  V30 1627 H 161.786 -1.89608 -4.71181 0
M  V30 1628 H 161.716 -0.203127 -5.26208 0
M  V30 1629 H 164.207 -0.548216 -3.73902 0
M  V30 1630 H 164.52 -1.73609 -7.53047 0
M  V30 1631 H 162.865 -1.55454 -6.77391 0
M  V30 1632 H 166.056 -0.762321 -4.61851 0
M  V30 1633 H 166.229 -1.30378 -6.34749 0
M  V30 1634 N 159.635 1.57281 -0.100228 0
M  V30 1635 C 161.051 1.57527 0.256416 0
M  V30 1636 C 161.251 1.11173 1.68056 0
M  V30 1637 O 160.307 0.79053 2.39806 0
M  V30 1638 C 161.62 3.00673 0.0401747 0
M  V30 1639 C 163.168 3.12815 0.107528 0
M  V30 1640 C 163.643 4.57929 -0.0807834 0
M  V30 1641 N 165.134 4.63193 -0.0261207 0
M  V30 1642 C 165.869 5.73212 -0.146999 0
M  V30 1643 N 165.365 6.92047 -0.322999 0
M  V30 1644 N 167.158 5.62031 -0.0879044 0
M  V30 1645 H 159.309 1.85718 -1.03065 0
M  V30 1646 H 161.572 0.857446 -0.404339 0
M  V30 1647 H 161.278 3.38804 -0.943649 0
M  V30 1648 H 161.152 3.69042 0.780262 0
M  V30 1649 H 163.539 2.74554 1.08186 0
M  V30 1650 H 163.62 2.47028 -0.664134 0
M  V30 1651 H 163.264 4.96886 -1.05201 0
M  V30 1652 H 163.194 5.21783 0.710635 0
M  V30 1653 H 165.685 3.77748 0.107161 0
M  V30 1654 H 165.998 7.7173 -0.406608 0
M  V30 1655 H 164.343 6.94074 -0.358733 0
M  V30 1656 H 167.534 4.68075 0.048498 0
M  V30 1657 H 167.707 6.47734 -0.185557 0
M  V30 1658 N 161.113 -0.173488 1.56642 0
M  V30 1659 C 162.524 -0.736155 1.71574 0
M  V30 1660 C 162.875 -1.82888 0.710389 0
M  V30 1661 O 162 -2.16017 -0.1287 0
M  V30 1662 C 162.595 -1.34211 3.11083 0
M  V30 1663 C 161.154 -1.85162 3.27707 0
M  V30 1664 C 160.301 -0.729765 2.67525 0
M  V30 1665 H 163.252 0.0518786 1.58615 0
M  V30 1666 H 163.273 -2.21178 3.09613 0
M  V30 1667 H 162.785 -0.546579 3.84232 0
M  V30 1668 H 160.886 -2.67366 2.59512 0
M  V30 1669 H 160.999 -1.99855 4.35425 0
M  V30 1670 H 159.363 -1.14965 2.27278 0
M  V30 1671 H 160.146 0.0538806 3.43258 0
M  V30 1672 N 162.591 -1.51276 -0.441967 0
M  V30 1673 C 163.501 -1.75092 -1.56141 0
M  V30 1674 C 164.517 -0.634963 -1.62001 0
M  V30 1675 O 165.693 -0.916686 -1.79329 0
M  V30 1676 C 162.758 -1.86666 -2.92158 0
M  V30 1677 C 161.819 -3.10506 -2.96453 0
M  V30 1678 C 161.052 -3.21519 -4.25982 0
M  V30 1679 O 161.275 -2.38586 -5.18105 0
M  V30 1680 O 160.209 -4.14465 -4.36466 0
M  V30 1681 H 164.035 -2.70044 -1.38961 0
M  V30 1682 H 161.62 -1.35722 -0.624499 0
M  V30 1683 H 163.502 -1.96292 -3.72891 0
M  V30 1684 H 162.177 -0.949014 -3.09476 0
M  V30 1685 H 161.084 -3.06363 -2.14692 0
M  V30 1686 H 162.417 -4.01945 -2.84079 0
M  V30 1687 N 164.069 0.697108 -1.41344 0
M  V30 1688 C 164.999 1.82353 -1.45841 0
M  V30 1689 C 165.98 1.67115 -0.317247 0
M  V30 1690 O 167.165 1.86871 -0.528474 0
M  V30 1691 C 164.295 3.20476 -1.33838 0
M  V30 1692 C 163.249 3.50415 -2.4575 0
M  V30 1693 C 162.575 4.87878 -2.18813 0
M  V30 1694 C 163.875 3.49546 -3.88091 0
M  V30 1695 H 165.569 1.78846 -2.40113 0
M  V30 1696 H 163.115 0.859028 -1.15571 0
M  V30 1697 H 165.068 3.98988 -1.35596 0
M  V30 1698 H 163.792 3.24604 -0.360498 0
M  V30 1699 H 162.451 2.74253 -2.43271 0
M  V30 1700 H 162.099 4.8863 -1.19371 0
M  V30 1701 H 161.799 5.08875 -2.93803 0
M  V30 1702 H 163.323 5.68702 -2.22284 0
M  V30 1703 H 164.737 4.18066 -3.92293 0
M  V30 1704 H 163.134 3.82075 -4.62751 0
M  V30 1705 H 164.204 2.48552 -4.16353 0
M  V30 1706 N 165.547 1.27147 0.931209 0
M  V30 1707 C 166.794 1.13278 1.67852 0
M  V30 1708 C 167.122 -0.32204 1.91815 0
M  V30 1709 O 166.377 -1.25224 1.50391 0
M  V30 1710 C 166.676 1.8579 3.05314 0
M  V30 1711 C 166.342 3.35657 3.01073 0
M  V30 1712 C 165.004 3.76536 2.99623 0
M  V30 1713 C 167.356 4.31299 2.92627 0
M  V30 1714 C 164.684 5.11426 2.87506 0
M  V30 1715 C 167.036 5.66242 2.82051 0
M  V30 1716 C 165.7 6.06418 2.7895 0
M  V30 1717 H 164.97 0.414515 0.614214 0
M  V30 1718 H 167.617 1.57712 1.08624 0
M  V30 1719 H 165.922 1.33854 3.68226 0
M  V30 1720 H 167.619 1.72491 3.62005 0
M  V30 1721 H 164.209 3.03146 3.02986 0
M  V30 1722 H 168.393 4.00692 2.92848 0
M  V30 1723 H 163.649 5.41705 2.83489 0
M  V30 1724 H 167.823 6.40026 2.74481 0
M  V30 1725 H 165.45 7.10895 2.69318 0
M  V30 1726 N 167.025 -1.13721 1.09112 0
M  V30 1727 C 168.25 -1.89314 0.847053 0
M  V30 1728 C 168.675 -1.78416 -0.595774 0
M  V30 1729 O 168.033 -1.12942 -1.41823 0
M  V30 1730 C 168.081 -3.3701 1.28284 0
M  V30 1731 O 167.185 -4.10054 0.439267 0
M  V30 1732 H 166.526 -0.588745 0.307044 0
M  V30 1733 H 169.056 -1.43902 1.45442 0
M  V30 1734 H 169.066 -3.87834 1.26683 0
M  V30 1735 H 167.741 -3.4426 2.33363 0
M  V30 1736 H 166.318 -3.69266 0.519312 0
M  V30 1737 N 168.503 -0.877838 -1.30888 0
M  V30 1738 C 169.453 -0.310872 -2.25871 0
M  V30 1739 C 170.437 0.556596 -1.50966 0
M  V30 1740 O 171.629 0.402187 -1.7237 0
M  V30 1741 C 168.758 0.479821 -3.3993 0
M  V30 1742 C 167.844 -0.401333 -4.22197 0
M  V30 1743 N 168.235 -1.49848 -4.83093 0
M  V30 1744 C 166.533 -0.195167 -4.45573 0
M  V30 1745 C 167.234 -2.0425 -5.44662 0
M  V30 1746 N 166.21 -1.33843 -5.26865 0
M  V30 1747 H 170.012 -1.1493 -2.70496 0
M  V30 1748 H 167.526 -0.726458 -1.45246 0
M  V30 1749 H 169.523 0.902582 -4.07012 0
M  V30 1750 H 168.183 1.31577 -2.96846 0
M  V30 1751 H 169.194 -1.88137 -4.82519 0
M  V30 1752 H 165.871 0.604192 -4.13105 0
M  V30 1753 H 167.261 -2.96345 -6.03017 0
M  V30 1754 N 169.982 1.44106 -0.638065 0
M  V30 1755 C 170.912 2.33448 0.0494287 0
M  V30 1756 C 171.893 1.48606 0.827672 0
M  V30 1757 O 173.078 1.77308 0.792173 0
M  V30 1758 C 170.208 3.31771 1.02691 0
M  V30 1759 C 169.162 4.26485 0.359823 0
M  V30 1760 C 168.488 5.14729 1.44769 0
M  V30 1761 C 169.788 5.17056 -0.738296 0
M  V30 1762 H 171.482 2.91183 -0.696636 0
M  V30 1763 H 169.028 1.40014 -0.336456 0
M  V30 1764 H 170.981 3.93161 1.51666 0
M  V30 1765 H 169.705 2.7226 1.80395 0
M  V30 1766 H 168.364 3.66437 -0.10934 0
M  V30 1767 H 168.012 4.51566 2.21578 0
M  V30 1768 H 167.712 5.78913 1.00668 0
M  V30 1769 H 169.236 5.78991 1.93911 0
M  V30 1770 H 170.65 5.72342 -0.331354 0
M  V30 1771 H 169.047 5.89879 -1.10286 0
M  V30 1772 H 170.117 4.57652 -1.60258 0
M  V30 1773 N 171.46 0.379036 1.52974 0
M  V30 1774 C 172.706 -0.206727 2.01744 0
M  V30 1775 C 173.039 -1.47314 1.26539 0
M  V30 1776 O 172.314 -1.91084 0.362903 0
M  V30 1777 C 172.597 -0.485066 3.56818 0
M  V30 1778 C 172.45 0.795919 4.42702 0
M  V30 1779 C 173.769 -1.28003 4.21074 0
M  V30 1780 H 170.888 -0.0736607 0.73331 0
M  V30 1781 H 173.53 0.506581 1.83122 0
M  V30 1782 H 171.68 -1.09272 3.72816 0
M  V30 1783 H 173.352 1.43307 4.38476 0
M  V30 1784 H 171.595 1.41344 4.10127 0
M  V30 1785 H 172.266 0.555947 5.49193 0
M  V30 1786 H 174.742 -0.765867 4.08991 0
M  V30 1787 H 173.618 -1.44352 5.29579 0
M  V30 1788 H 173.879 -2.29236 3.78026 0
M  V30 1789 N 172.938 -1.57226 0.108567 0
M  V30 1790 C 173.871 -2.10447 -0.882464 0
M  V30 1791 C 174.849 -1.01829 -1.26766 0
M  V30 1792 O 176.033 -1.29415 -1.37054 0
M  V30 1793 C 173.16 -2.59258 -2.17952 0
M  V30 1794 C 172.206 -3.79662 -1.94318 0
M  V30 1795 S 173.039 -5.22586 -1.16892 0
M  V30 1796 C 174.195 -5.74758 -2.47799 0
M  V30 1797 H 174.428 -2.94178 -0.429745 0
M  V30 1798 H 171.961 -1.54043 -0.105 0
M  V30 1799 H 173.919 -2.88036 -2.92482 0
M  V30 1800 H 172.58 -1.75728 -2.60343 0
M  V30 1801 H 171.773 -4.11928 -2.90399 0
M  V30 1802 H 171.375 -3.51446 -1.27913 0
M  V30 1803 H 173.667 -5.83846 -3.43701 0
M  V30 1804 H 174.61 -6.73027 -2.20093 0
M  V30 1805 H 175.018 -5.02763 -2.56689 0
M  V30 1806 N 174.416 0.165178 -1.56732 0
M  V30 1807 C 175.662 0.882112 -1.82611 0
M  V30 1808 C 175.995 1.81628 -0.687378 0
M  V30 1809 O 175.27 1.92009 0.310267 0
M  V30 1810 C 175.553 1.67245 -3.18906 0
M  V30 1811 C 175.406 0.760987 -4.43316 0
M  V30 1812 C 176.725 2.63884 -3.52212 0
M  V30 1813 H 173.844 0.319242 -0.664269 0
M  V30 1814 H 176.486 0.148052 -1.89422 0
M  V30 1815 H 174.636 2.29824 -3.1323 0
M  V30 1816 H 176.308 0.147596 -4.61064 0
M  V30 1817 H 174.551 0.0694102 -4.33744 0
M  V30 1818 H 175.222 1.34962 -5.35247 0
M  V30 1819 H 177.698 2.11429 -3.58381 0
M  V30 1820 H 176.574 3.16245 -4.48643 0
M  V30 1821 H 176.835 3.44377 -2.77231 0
M  V30 1822 N 175.894 1.51508 0.433938 0
M  V30 1823 C 177.142 1.6402 1.18075 0
M  V30 1824 C 177.463 0.360328 1.91642 0
M  V30 1825 O 176.733 -0.623945 1.85698 0
M  V30 1826 H 175.313 0.6045 0.43885 0
M  V30 1827 H 177.975 1.88452 0.497178 0
M  V30 1828 H 177.071 2.46949 1.90847 0
M  V30 1829 N 177.372 -0.689602 1.41712 0
M  V30 1830 C 178.783 -1.26973 1.36875 0
M  V30 1831 C 179.134 -1.96124 0.054748 0
M  V30 1832 O 178.259 -1.99141 -0.84687 0
M  V30 1833 C 178.854 -2.30912 2.47922 0
M  V30 1834 C 177.413 -2.84486 2.46464 0
M  V30 1835 C 176.56 -1.58603 2.27465 0
M  V30 1836 H 179.511 -0.48396 1.51141 0
M  V30 1837 H 179.532 -3.12331 2.17323 0
M  V30 1838 H 179.044 -1.80554 3.43543 0
M  V30 1839 H 177.145 -3.39005 1.54617 0
M  V30 1840 H 177.258 -3.34511 3.42986 0
M  V30 1841 H 175.622 -1.84632 1.75451 0
M  V30 1842 H 176.405 -1.10233 3.25121 0
M  V30 1843 N 178.85 -1.27639 -0.924453 0
M  V30 1844 C 180.075 -1.17101 -1.71179 0
M  V30 1845 C 180.5 0.268134 -1.86179 0
M  V30 1846 O 179.858 1.19415 -1.36418 0
M  V30 1847 C 179.906 -1.86313 -3.08739 0
M  V30 1848 O 179.01 -1.16331 -3.95652 0
M  V30 1849 H 178.351 -0.407091 -0.524569 0
M  V30 1850 H 180.881 -1.68767 -1.15666 0
M  V30 1851 H 180.891 -1.938 -3.59034 0
M  V30 1852 H 179.566 -2.91001 -2.97138 0
M  V30 1853 H 178.143 -1.16935 -3.54091 0
M  V30 1854 N 180.328 1.1314 -1.09713 0
M  V30 1855 C 181.739 1.66029 -0.853885 0
M  V30 1856 C 182.09 1.86241 0.617142 0
M  V30 1857 O 181.215 1.5834 1.47503 0
M  V30 1858 C 181.81 3.01599 -1.5435 0
M  V30 1859 C 180.369 3.51467 -1.34714 0
M  V30 1860 C 179.516 2.26648 -1.59769 0
M  V30 1861 H 182.467 0.970226 -1.25588 0
M  V30 1862 H 182.488 3.67709 -0.978267 0
M  V30 1863 H 182 2.86856 -2.6141 0
M  V30 1864 H 180.101 3.71408 -0.297838 0
M  V30 1865 H 180.214 4.314 -2.08401 0
M  V30 1866 H 178.578 2.33385 -1.01998 0
M  V30 1867 H 179.361 2.14467 -2.68065 0
M  V30 1868 N 181.806 0.884767 1.30421 0
M  V30 1869 C 183.046 0.509806 1.9794 0
M  V30 1870 C 183.41 -0.923736 1.68319 0
M  V30 1871 O 184.611 -1.40481 2.29169 0
M  V30 1872 C 182.882 0.776732 3.48858 0
M  V30 1873 S 184.441 0.503843 4.35898 0
M  V30 1874 H 181.259 0.189699 0.685227 0
M  V30 1875 H 183.861 1.14399 1.58535 0
M  V30 1876 H 182.565 1.81857 3.67908 0
M  V30 1877 H 182.096 0.1301 3.93185 0
M  V30 1878 H 184.111 -0.657625 4.91823 0
M  V30 1879 N 183.284 -1.43765 0.645699 0
M  V30 1880 C 184.514 -2.05953 0.163318 0
M  V30 1881 C 184.922 -1.48432 -1.17322 0
M  V30 1882 O 184.265 -0.607295 -1.73371 0
M  V30 1883 C 184.327 -3.59499 -0.0103065 0
M  V30 1884 C 183.991 -4.39563 1.25035 0
M  V30 1885 C 184.988 -4.72108 2.17739 0
M  V30 1886 C 182.673 -4.79697 1.48983 0
M  V30 1887 C 184.667 -5.43688 3.3269 0
M  V30 1888 C 182.354 -5.51023 2.64229 0
M  V30 1889 C 183.352 -5.8294 3.55908 0
M  V30 1890 O 183.04 -6.5281 4.69142 0
M  V30 1891 H 182.772 -0.670798 0.0836986 0
M  V30 1892 H 185.326 -1.85384 0.884407 0
M  V30 1893 H 183.556 -3.78613 -0.78669 0
M  V30 1894 H 185.245 -4.03408 -0.449087 0
M  V30 1895 H 186.011 -4.41627 2.00476 0
M  V30 1896 H 181.89 -4.54266 0.785078 0
M  V30 1897 H 185.434 -5.68517 4.04269 0
M  V30 1898 H 181.331 -5.8092 2.81429 0
M  V30 1899 H 182.099 -6.71288 4.6831 0
M  V30 1900 N 184.763 -0.387143 -1.52771 0
M  V30 1901 C 185.693 0.440551 -2.29306 0
M  V30 1902 C 186.674 1.06535 -1.32606 0
M  V30 1903 O 187.859 1.07853 -1.61497 0
M  V30 1904 C 184.989 1.56919 -3.09829 0
M  V30 1905 C 183.943 1.07054 -4.14395 0
M  V30 1906 C 183.269 2.29109 -4.83129 0
M  V30 1907 C 184.569 0.140015 -5.22112 0
M  V30 1908 H 186.263 -0.198026 -2.98744 0
M  V30 1909 H 183.809 -0.09668 -1.43675 0
M  V30 1910 H 185.762 2.15503 -3.62128 0
M  V30 1911 H 184.486 2.23532 -2.3812 0
M  V30 1912 H 183.145 0.507247 -3.63074 0
M  V30 1913 H 182.793 2.94227 -4.0797 0
M  V30 1914 H 182.493 1.96406 -5.53804 0
M  V30 1915 H 184.017 2.88339 -5.38231 0
M  V30 1916 H 185.431 0.633978 -5.69784 0
M  V30 1917 H 183.828 -0.0971485 -6.00021 0
M  V30 1918 H 184.898 -0.811711 -4.78058 0
M  V30 1919 N 186.241 1.57166 -0.116904 0
M  V30 1920 C 187.189 2.16457 0.851418 0
M  V30 1921 C 188.183 1.11323 1.27686 0
M  V30 1922 O 189.389 1.2963 1.24884 0
M  V30 1923 H 185.764 0.69271 0.292672 0
M  V30 1924 H 187.735 2.96605 0.32685 0
M  V30 1925 C 186.484 2.77689 2.09246 0
M  V30 1926 H 185.807 3.58285 1.77402 0
M  V30 1927 H 187.247 3.22716 2.7501 0
M  V30 1928 C 185.706 1.74667 2.88085 0
M  V30 1929 O 186.236 1.19877 3.83396 0
M  V30 1930 N 184.442 1.44656 2.52038 0
M  V30 1931 H 183.989 1.89402 1.74599 0
M  V30 1932 H 183.947 0.759675 3.05084 0
M  V30 1933 N 187.719 -0.156864 1.56817 0
M  V30 1934 C 188.996 -0.899244 1.73704 0
M  V30 1935 C 189.376 -1.99771 0.682254 0
M  V30 1936 O 188.724 -2.26515 -0.300522 0
M  V30 1937 C 188.934 -1.45075 3.17418 0
M  V30 1938 C 190.282 -1.91802 3.7881 0
M  V30 1939 O 191.306 -1.54838 3.20786 0
M  V30 1940 O 190.165 -2.5994 4.80722 0
M  V30 1941 H 187.259 -0.424267 0.709878 0
M  V30 1942 H 189.805 -0.143561 1.69092 0
M  V30 1943 H 188.577 -0.660846 3.85679 0
M  V30 1944 H 188.2 -2.27021 3.26416 0
M  V30 1945 N 189.197 -1.51736 -0.425897 0
M  V30 1946 C 190.608 -1.5732 -1.00536 0
M  V30 1947 C 190.959 -0.403537 -1.92005 0
M  V30 1948 O 190.084 0.478256 -2.11049 0
M  V30 1949 C 190.679 -2.85119 -1.8301 0
M  V30 1950 C 189.238 -2.93236 -2.35987 0
M  V30 1951 C 188.385 -2.52098 -1.15508 0
M  V30 1952 H 191.336 -1.57348 -0.206739 0
M  V30 1953 H 191.357 -2.69526 -2.68581 0
M  V30 1954 H 190.869 -3.7023 -1.16411 0
M  V30 1955 H 188.97 -2.12581 -3.06007 0
M  V30 1956 H 189.083 -3.9713 -2.68001 0
M  V30 1957 H 187.447 -2.05558 -1.50393 0
M  V30 1958 H 188.23 -3.39565 -0.505014 0
M  V30 1959 N 190.675 0.682077 -1.42076 0
M  V30 1960 C 192.086 1.26246 -1.37546 0
M  V30 1961 C 192.437 1.96092 -0.0651481 0
M  V30 1962 O 191.562 1.99587 0.836297 0
M  V30 1963 C 192.157 2.29594 -2.49143 0
M  V30 1964 C 190.716 2.83175 -2.47969 0
M  V30 1965 C 189.863 1.57395 -2.28303 0
M  V30 1966 H 192.814 0.475937 -1.51395 0
M  V30 1967 H 192.835 3.11175 -2.18976 0
M  V30 1968 H 192.347 1.78729 -3.44496 0
M  V30 1969 H 190.448 3.3818 -1.56413 0
M  V30 1970 H 190.561 3.32687 -3.44755 0
M  V30 1971 H 188.925 1.83699 -1.76428 0
M  V30 1972 H 189.708 1.08507 -3.25701 0
M  V30 1973 N 192.153 1.28127 0.917671 0
M  V30 1974 C 193.063 1.13556 2.05286 0
M  V30 1975 C 194.079 0.0630914 1.73886 0
M  V30 1976 O 195.255 0.271598 1.9956 0
M  V30 1977 C 192.32 0.794676 3.3747 0
M  V30 1978 C 191.381 1.94909 3.82504 0
M  V30 1979 C 190.614 1.62437 5.0838 0
M  V30 1980 O 190.837 0.536905 5.67867 0
M  V30 1981 O 189.771 2.46677 5.4903 0
M  V30 1982 H 193.597 2.08844 2.20495 0
M  V30 1983 H 191.182 1.07409 1.03845 0
M  V30 1984 H 193.064 0.618344 4.16839 0
M  V30 1985 H 191.739 -0.128581 3.23445 0
M  V30 1986 H 190.646 2.18055 3.03978 0
M  V30 1987 H 191.979 2.85291 4.01086 0
M  V30 1988 N 193.631 -1.12557 1.10312 0
M  V30 1989 C 194.861 -1.87592 0.865617 0
M  V30 1990 C 195.269 -1.79851 -0.587389 0
M  V30 1991 O 194.612 -1.16949 -1.41664 0
M  V30 1992 C 194.674 -3.37665 1.23381 0
M  V30 1993 C 194.338 -3.69181 2.69359 0
M  V30 1994 C 195.335 -3.67652 3.67597 0
M  V30 1995 C 193.02 -3.98555 3.05711 0
M  V30 1996 C 195.014 -3.95053 5.00212 0
M  V30 1997 C 192.701 -4.25616 4.38514 0
M  V30 1998 C 193.699 -4.23851 5.35574 0
M  V30 1999 O 193.387 -4.50242 6.65986 0
M  V30 2000 H 193.119 -0.600442 0.310557 0
M  V30 2001 H 195.673 -1.4335 1.47105 0
M  V30 2002 H 193.903 -3.82454 0.571467 0
M  V30 2003 H 195.592 -3.94041 0.973994 0
M  V30 2004 H 196.358 -3.45024 3.40857 0
M  V30 2005 H 192.237 -3.99071 2.30789 0
M  V30 2006 H 195.781 -3.93591 5.75962 0
M  V30 2007 H 191.678 -4.47718 4.64994 0
M  V30 2008 H 192.446 -4.67867 6.71597 0
M  V30 2009 N 195.109 -0.891671 -1.2995 0
M  V30 2010 C 196.339 -0.527893 -1.99742 0
M  V30 2011 C 196.747 0.88979 -1.66971 0
M  V30 2012 O 196.09 1.59766 -0.906667 0
M  V30 2013 C 196.152 -0.630804 -3.53922 0
M  V30 2014 C 195.816 -2.01401 -4.10228 0
M  V30 2015 C 196.813 -2.98422 -4.25724 0
M  V30 2016 C 194.498 -2.32121 -4.45449 0
M  V30 2017 C 196.492 -4.24293 -4.75662 0
M  V30 2018 C 194.179 -3.58237 -4.95086 0
M  V30 2019 C 195.177 -4.54137 -5.10146 0
M  V30 2020 O 194.865 -5.78014 -5.58708 0
M  V30 2021 H 194.597 -0.201953 -0.645129 0
M  V30 2022 H 197.151 -1.20076 -1.66646 0
M  V30 2023 H 195.381 0.0990616 -3.86573 0
M  V30 2024 H 197.07 -0.277338 -4.04951 0
M  V30 2025 H 197.836 -2.76001 -3.98809 0
M  V30 2026 H 193.715 -1.5824 -4.32991 0
M  V30 2027 H 197.259 -4.99153 -4.87332 0
M  V30 2028 H 193.156 -3.80491 -5.21437 0
M  V30 2029 H 193.924 -5.8049 -5.77039 0
M  V30 2030 N 196.587 1.43421 -0.653314 0
M  V30 2031 C 197.835 2.01414 -0.166415 0
M  V30 2032 C 198.156 1.51803 1.22397 0
M  V30 2033 O 197.426 0.730693 1.81763 0
M  V30 2034 H 196.006 0.744703 -0.0585319 0
M  V30 2035 H 198.668 1.75629 -0.845003 0
M  V30 2036 H 197.764 3.11734 -0.151111 0
M  V30 2037 N 198.065 0.39524 1.52563 0
M  V30 2038 C 199.313 -0.184678 2.01254 0
M  V30 2039 C 199.634 -1.46822 1.28329 0
M  V30 2040 O 198.904 -1.91666 0.405094 0
M  V30 2041 H 197.484 -0.0712355 0.743596 0
M  V30 2042 H 200.146 0.528293 1.87603 0
M  V30 2043 H 199.242 -0.390681 3.09645 0
M  V30 2044 N 199.544 -1.57102 0.125237 0
M  V30 2045 C 200.791 -1.95407 -0.531248 0
M  V30 2046 C 201.119 -1.0089 -1.66287 0
M  V30 2047 O 200.374 -0.0339431 -1.95671 0
M  V30 2048 C 200.673 -3.40096 -1.09862 0
M  V30 2049 C 200.339 -4.50815 -0.0876989 0
M  V30 2050 C 199.001 -4.80824 0.19026 0
M  V30 2051 C 201.353 -5.17724 0.600902 0
M  V30 2052 C 198.681 -5.75058 1.163 0
M  V30 2053 C 201.033 -6.13005 1.56231 0
M  V30 2054 C 199.697 -6.41403 1.8482 0
M  V30 2055 H 198.967 -0.715046 -0.194397 0
M  V30 2056 H 201.614 -1.90373 0.207463 0
M  V30 2057 H 199.919 -3.41855 -1.91422 0
M  V30 2058 H 201.616 -3.6705 -1.61478 0
M  V30 2059 H 198.206 -4.27444 -0.314528 0
M  V30 2060 H 202.39 -4.94691 0.399333 0
M  V30 2061 H 197.646 -5.95362 1.39117 0
M  V30 2062 H 201.82 -6.63934 2.10153 0
M  V30 2063 H 199.447 -7.14229 2.60349 0
M  V30 2064 N 201.022 0.148545 -1.56898 0
M  V30 2065 C 201.932 1.20293 -2.01412 0
M  V30 2066 C 202.948 1.47107 -0.929273 0
M  V30 2067 O 204.124 1.58807 -1.23863 0
M  V30 2068 C 201.189 2.51682 -2.38447 0
M  V30 2069 C 200.25 2.32529 -3.60872 0
M  V30 2070 C 199.483 3.57653 -3.96132 0
M  V30 2071 O 199.706 4.63771 -3.32073 0
M  V30 2072 O 198.64 3.50408 -4.89385 0
M  V30 2073 H 202.466 0.855025 -2.91416 0
M  V30 2074 H 200.051 0.357151 -1.45068 0
M  V30 2075 H 201.933 3.29147 -2.63135 0
M  V30 2076 H 200.608 2.86006 -1.51599 0
M  V30 2077 H 199.515 1.53019 -3.41373 0
M  V30 2078 H 200.848 2.03121 -4.48333 0
M  V30 2079 N 202.5 1.5196 0.417844 0
M  V30 2080 C 203.41 1.77554 1.53336 0
M  V30 2081 C 204.426 0.660655 1.6097 0
M  V30 2082 O 205.602 0.945099 1.77848 0
M  V30 2083 C 202.667 1.91291 2.89152 0
M  V30 2084 C 201.728 3.15183 2.91475 0
M  V30 2085 C 200.961 3.28256 4.20813 0
M  V30 2086 O 201.184 2.46798 5.14244 0
M  V30 2087 O 200.118 4.21356 4.29817 0
M  V30 2088 H 203.944 2.7222 1.34647 0
M  V30 2089 H 201.529 1.36698 0.602828 0
M  V30 2090 H 203.411 2.02199 3.69721 0
M  V30 2091 H 202.086 0.998129 3.07927 0
M  V30 2092 H 200.993 3.09739 2.09791 0
M  V30 2093 H 202.326 4.06414 2.77648 0
M  V30 2094 N 203.978 -0.674533 1.42435 0
M  V30 2095 C 204.888 -1.81751 1.48337 0
M  V30 2096 C 205.904 -1.69975 0.372099 0
M  V30 2097 O 207.08 -1.91521 0.62304 0
M  V30 2098 C 204.145 -3.17895 1.38361 0
M  V30 2099 C 203.206 -3.41625 2.59982 0
M  V30 2100 C 202.439 -4.71274 2.50473 0
M  V30 2101 O 202.662 -5.49197 1.54075 0
M  V30 2102 O 201.596 -4.96254 3.4061 0
M  V30 2103 H 205.422 -1.79728 2.44809 0
M  V30 2104 H 203.007 -0.830312 1.24202 0
M  V30 2105 H 204.889 -3.99136 1.35161 0
M  V30 2106 H 203.564 -3.20555 0.450144 0
M  V30 2107 H 202.471 -2.60231 2.68757 0
M  V30 2108 H 203.804 -3.43796 3.52229 0
M  V30 2109 N 205.456 -1.28612 -0.910864 0
M  V30 2110 C 206.388 -1.08589 -2.01844 0
M  V30 2111 C 207.401 -0.0367419 -1.62759 0
M  V30 2112 O 208.59 -0.280101 -1.76289 0
M  V30 2113 C 205.69 -0.628626 -3.33019 0
M  V30 2114 C 204.863 -1.75382 -4.00699 0
M  V30 2115 C 203.922 -1.28945 -5.10156 0
M  V30 2116 O 202.948 -1.9922 -5.33198 0
M  V30 2117 N 204.15 -0.154224 -5.80295 0
M  V30 2118 H 206.915 -2.03973 -2.19579 0
M  V30 2119 H 204.476 -1.20403 -1.08234 0
M  V30 2120 H 206.468 -0.301508 -4.03575 0
M  V30 2121 H 205.038 0.232451 -3.11735 0
M  V30 2122 H 204.258 -2.25039 -3.23653 0
M  V30 2123 H 205.546 -2.50854 -4.42662 0
M  V30 2124 H 204.944 0.43194 -5.64049 0
M  V30 2125 H 203.501 0.113599 -6.51701 0
M  V30 2126 N 206.934 1.1197 -1.10907 0
M  V30 2127 C 207.864 2.19928 -0.784473 0
M  V30 2128 C 208.845 1.6833 0.244726 0
M  V30 2129 O 210.03 1.93892 0.109418 0
M  V30 2130 C 207.16 3.46597 -0.220827 0
M  V30 2131 C 206.114 4.11376 -1.18127 0
M  V30 2132 C 205.44 5.32554 -0.478594 0
M  V30 2133 C 206.74 4.56945 -2.52979 0
M  V30 2134 H 208.434 2.47337 -1.68715 0
M  V30 2135 H 205.98 1.18879 -0.812642 0
M  V30 2136 H 207.933 4.21396 0.0184278 0
M  V30 2137 H 206.657 3.1863 0.717113 0
M  V30 2138 H 205.316 3.38564 -1.40606 0
M  V30 2139 H 204.964 5.00856 0.463976 0
M  V30 2140 H 204.664 5.76844 -1.11912 0
M  V30 2141 H 206.188 6.10096 -0.248 0
M  V30 2142 H 207.602 5.23093 -2.3462 0
M  V30 2143 H 205.999 5.1203 -3.12962 0
M  V30 2144 H 207.069 3.70676 -3.12614 0
M  V30 2145 N 208.412 0.89855 1.29475 0
M  V30 2146 C 209.342 0.39201 2.30186 0
M  V30 2147 C 210.323 -0.532359 1.61555 0
M  V30 2148 O 211.508 -0.443331 1.89072 0
M  V30 2149 C 208.638 -0.382353 3.45189 0
M  V30 2150 C 207.592 0.451483 4.25612 0
M  V30 2151 C 206.918 -0.450307 5.328 0
M  V30 2152 C 208.218 1.70079 4.93832 0
M  V30 2153 H 209.912 1.23362 2.72804 0
M  V30 2154 H 207.458 0.594638 1.31149 0
M  V30 2155 H 209.411 -0.747451 4.14718 0
M  V30 2156 H 208.135 -1.25774 3.01411 0
M  V30 2157 H 206.794 0.798897 3.57789 0
M  V30 2158 H 206.442 -1.32379 4.85268 0
M  V30 2159 H 206.142 0.103902 5.87508 0
M  V30 2160 H 207.666 -0.811623 6.05182 0
M  V30 2161 H 209.08 1.40549 5.55805 0
M  V30 2162 H 207.477 2.19623 5.58467 0
M  V30 2163 H 208.547 2.43744 4.19186 0
M  V30 2164 N 209.89 -1.43072 0.660911 0
M  V30 2165 C 211.138 -2.01323 0.177094 0
M  V30 2166 C 211.459 -1.5245 -1.2159 0
M  V30 2167 O 210.729 -0.740322 -1.81373 0
M  V30 2168 H 209.309 -0.744382 0.0624804 0
M  V30 2169 H 211.971 -1.75179 0.854305 0
M  V30 2170 H 211.067 -3.11649 0.167641 0
M  V30 2171 N 211.368 -0.403325 -1.52352 0
M  V30 2172 C 212.298 0.416205 -2.29761 0
M  V30 2173 C 213.279 1.05123 -1.33728 0
M  V30 2174 O 214.464 1.06134 -1.62632 0
M  V30 2175 C 211.594 1.53624 -3.11475 0
M  V30 2176 C 210.548 1.02653 -4.15507 0
M  V30 2177 C 209.874 2.23971 -4.85532 0
M  V30 2178 C 211.174 0.08463 -5.22231 0
M  V30 2179 H 212.868 -0.229701 -2.98518 0
M  V30 2180 H 210.414 -0.111913 -1.43564 0
M  V30 2181 H 212.367 2.1165 -3.64393 0
M  V30 2182 H 211.091 2.20994 -2.40477 0
M  V30 2183 H 209.75 0.46871 -3.63591 0
M  V30 2184 H 209.398 2.89883 -4.11068 0
M  V30 2185 H 209.098 1.90521 -5.55856 0
M  V30 2186 H 210.622 2.82614 -5.41259 0
M  V30 2187 H 212.036 0.573509 -5.70424 0
M  V30 2188 H 210.433 -0.160783 -5.99885 0
M  V30 2189 H 211.503 -0.86237 -4.7717 0
M  V30 2190 N 212.846 1.57033 -0.133567 0
M  V30 2191 C 213.776 2.1909 0.807567 0
M  V30 2192 C 214.757 1.13517 1.26681 0
M  V30 2193 O 215.942 1.41809 1.32679 0
M  V30 2194 C 213.072 2.80188 2.05212 0
M  V30 2195 C 212.026 3.91471 1.73015 0
M  V30 2196 C 211.352 4.39443 3.04622 0
M  V30 2197 C 212.652 5.12886 0.987168 0
M  V30 2198 H 214.346 2.97988 0.290403 0
M  V30 2199 H 211.892 1.43335 0.138239 0
M  V30 2200 H 213.845 3.22264 2.71521 0
M  V30 2201 H 212.569 1.98601 2.59278 0
M  V30 2202 H 211.228 3.49993 1.0909 0
M  V30 2203 H 210.876 3.54695 3.56651 0
M  V30 2204 H 210.576 5.14495 2.83847 0
M  V30 2205 H 212.1 4.8418 3.72024 0
M  V30 2206 H 213.514 5.51891 1.55208 0
M  V30 2207 H 211.911 5.93615 0.87985 0
M  V30 2208 H 212.981 4.84894 -0.0235286 0
M  V30 2209 N 214.325 -0.140222 1.56975 0
M  V30 2210 C 215.235 -1.19223 2.02047 0
M  V30 2211 C 216.251 -1.46612 0.937062 0
M  V30 2212 O 217.427 -1.58148 1.24704 0
M  V30 2213 C 214.492 -2.50414 2.39778 0
M  V30 2214 C 213.553 -2.30612 3.621 0
M  V30 2215 C 212.786 -3.55547 3.98023 0
M  V30 2216 O 213.009 -4.62004 3.34528 0
M  V30 2217 O 211.943 -3.47808 4.91237 0
M  V30 2218 H 215.769 -0.839559 2.91865 0
M  V30 2219 H 213.354 -0.349453 1.45256 0
M  V30 2220 H 215.236 -3.27747 2.64877 0
M  V30 2221 H 213.911 -2.85198 1.53114 0
M  V30 2222 H 212.818 -1.51207 3.4218 0
M  V30 2223 H 214.151 -2.00741 4.49404 0
M  V30 2224 N 215.803 -1.52179 -0.40978 0
M  V30 2225 C 216.736 -1.70196 -1.52015 0
M  V30 2226 C 217.714 -0.549542 -1.53032 0
M  V30 2227 O 218.898 -0.776815 -1.71749 0
M  V30 2228 C 216.025 -1.74069 -2.90547 0
M  V30 2229 C 215.071 -2.95601 -3.07445 0
M  V30 2230 S 215.904 -4.55956 -2.80827 0
M  V30 2231 C 217.06 -4.62614 -4.21591 0
M  V30 2232 H 217.293 -2.64109 -1.36504 0
M  V30 2233 H 214.826 -1.4221 -0.601312 0
M  V30 2234 H 216.784 -1.76985 -3.70387 0
M  V30 2235 H 215.445 -0.812835 -3.034 0
M  V30 2236 H 214.638 -2.94791 -4.08796 0
M  V30 2237 H 214.24 -2.90569 -2.35469 0
M  V30 2238 H 216.532 -4.39951 -5.15218 0
M  V30 2239 H 217.475 -5.64548 -4.27424 0
M  V30 2240 H 217.883 -3.91654 -4.06531 0
M  V30 2241 N 217.281 0.66697 -1.42791 0
M  V30 2242 C 218.214 1.79177 -1.41318 0
M  V30 2243 C 219.192 1.60234 -0.276401 0
M  V30 2244 O 220.376 1.82602 -0.46785 0
M  V30 2245 C 217.503 3.16289 -1.21157 0
M  V30 2246 C 216.549 3.53964 -2.37932 0
M  V30 2247 S 217.382 3.55501 -4.00474 0
M  V30 2248 C 218.538 4.95292 -3.8267 0
M  V30 2249 H 218.771 1.80153 -2.365 0
M  V30 2250 H 216.304 0.838357 -1.29657 0
M  V30 2251 H 218.262 3.95428 -1.10212 0
M  V30 2252 H 216.923 3.1289 -0.275481 0
M  V30 2253 H 216.116 4.53646 -2.19594 0
M  V30 2254 H 215.718 2.82204 -2.45432 0
M  V30 2255 H 218.01 5.83584 -3.44145 0
M  V30 2256 H 218.953 5.18679 -4.82055 0
M  V30 2257 H 219.361 4.68179 -3.15386 0
M  V30 2258 N 218.759 1.29093 0.90403 0
M  V30 2259 C 219.669 1.15727 2.0407 0
M  V30 2260 C 220.685 0.0815308 1.73809 0
M  V30 2261 O 221.861 0.292749 1.99261 0
M  V30 2262 C 218.926 0.830424 3.36608 0
M  V30 2263 C 217.987 1.98955 3.80415 0
M  V30 2264 C 217.22 1.6782 5.06628 0
M  V30 2265 O 217.443 0.597105 5.67266 0
M  V30 2266 O 216.377 2.52486 5.46383 0
M  V30 2267 H 220.203 2.11171 2.18267 0
M  V30 2268 H 217.788 1.08504 1.027 0
M  V30 2269 H 219.67 0.662521 4.16159 0
M  V30 2270 H 218.345 -0.0942678 3.23563 0
M  V30 2271 H 217.252 2.21267 3.01648 0
M  V30 2272 H 218.585 2.89529 3.98037 0
M  V30 2273 N 220.237 -1.11381 1.11499 0
M  V30 2274 C 221.184 -2.17439 0.773887 0
M  V30 2275 C 222.154 -1.64132 -0.254899 0
M  V30 2276 O 223.339 -1.90345 -0.13168 0
M  V30 2277 C 220.479 -3.44373 0.223917 0
M  V30 2278 C 219.592 -4.1168 1.30934 0
M  V30 2279 C 218.727 -5.263 0.71984 0
M  V30 2280 C 217.766 -5.85493 1.78507 0
M  V30 2281 N 216.903 -6.91507 1.21502 0
M  V30 2282 H 221.743 -2.45962 1.68246 0
M  V30 2283 H 219.28 -1.20744 0.840191 0
M  V30 2284 H 221.238 -4.17047 -0.112921 0
M  V30 2285 H 219.868 -3.16232 -0.647851 0
M  V30 2286 H 218.92 -3.37073 1.76312 0
M  V30 2287 H 220.232 -4.51729 2.11524 0
M  V30 2288 H 219.386 -6.05785 0.333094 0
M  V30 2289 H 218.125 -4.87559 -0.117377 0
M  V30 2290 H 217.13 -5.04686 2.18111 0
M  V30 2291 H 218.355 -6.26301 2.62533 0
M  V30 2292 H 216.301 -6.54783 0.399455 0
M  V30 2293 H 216.218 -7.30214 1.95763 0
M  V30 2294 H 217.486 -7.74795 0.855181 0
M  V30 2295 N 221.715 -0.905404 -1.28997 0
M  V30 2296 C 222.663 -0.377431 -2.29517 0
M  V30 2297 C 223.657 0.526461 -1.61012 0
M  V30 2298 O 224.863 0.40863 -1.753 0
M  V30 2299 H 221.238 -0.103437 -0.744852 0
M  V30 2300 H 223.209 -1.23848 -2.71485 0
M  V30 2301 C 221.958 0.374833 -3.45674 0
M  V30 2302 H 221.281 -0.311474 -3.98585 0
M  V30 2303 H 222.721 0.70903 -4.1803 0
M  V30 2304 C 221.18 1.57963 -2.97572 0
M  V30 2305 O 221.71 2.67886 -2.99333 0
M  V30 2306 N 219.916 1.42375 -2.53333 0
M  V30 2307 H 219.463 0.529466 -2.521 0
M  V30 2308 H 219.421 2.23117 -2.21509 0
M  V30 2309 N 223.193 1.4272 -0.668489 0
M  V30 2310 C 224.423 2.05668 -0.196063 0
M  V30 2311 C 224.831 1.5028 1.14946 0
M  V30 2312 O 224.174 0.6348 1.72383 0
M  V30 2313 C 224.236 3.59469 -0.0468879 0
M  V30 2314 C 223.9 4.37518 -1.32012 0
M  V30 2315 C 224.897 4.68584 -2.25222 0
M  V30 2316 C 222.582 4.77266 -1.56596 0
M  V30 2317 C 224.576 5.38326 -3.41297 0
M  V30 2318 C 222.263 5.4675 -2.72962 0
M  V30 2319 C 223.261 5.77204 -3.65137 0
M  V30 2320 O 222.949 6.45264 -4.79468 0
M  V30 2321 H 222.681 0.669382 -0.0943599 0
M  V30 2322 H 225.235 1.83954 -0.913788 0
M  V30 2323 H 223.465 3.79817 0.726357 0
M  V30 2324 H 225.154 4.04071 0.384852 0
M  V30 2325 H 225.92 4.38382 -2.07477 0
M  V30 2326 H 221.799 4.52959 -0.857249 0
M  V30 2327 H 225.343 5.62014 -4.13263 0
M  V30 2328 H 221.24 5.76369 -2.90635 0
M  V30 2329 H 222.008 6.63753 -4.78931 0
M  V30 2330 N 224.671 0.411399 1.52136 0
M  V30 2331 C 225.92 -0.165009 2.01024 0
M  V30 2332 C 226.233 -1.4603 1.30133 0
M  V30 2333 O 227.439 -2.1181 1.69849 0
M  V30 2334 C 225.895 -0.344618 3.58246 0
M  V30 2335 C 225.503 0.938716 4.38055 0
M  V30 2336 C 227.247 -0.876195 4.15359 0
M  V30 2337 C 225.154 0.726172 5.86925 0
M  V30 2338 H 224.084 -0.0654407 0.751155 0
M  V30 2339 H 226.735 0.537192 1.75461 0
M  V30 2340 H 225.117 -1.10921 3.80148 0
M  V30 2341 H 226.291 1.70963 4.27912 0
M  V30 2342 H 224.606 1.39688 3.92271 0
M  V30 2343 H 227.203 -1.05128 5.24263 0
M  V30 2344 H 227.546 -1.85152 3.7286 0
M  V30 2345 H 228.079 -0.170607 3.97434 0
M  V30 2346 H 224.818 1.67312 6.33788 0
M  V30 2347 H 224.338 -0.00540283 5.998 0
M  V30 2348 H 226.017 0.369231 6.45946 0
M  V30 2349 N 226.149 -1.5696 0.141893 0
M  V30 2350 C 227.397 -1.95573 -0.509484 0
M  V30 2351 C 227.718 -1.02746 -1.65736 0
M  V30 2352 O 226.988 -0.0880311 -1.95702 0
M  V30 2353 H 225.568 -0.722115 -0.191205 0
M  V30 2354 H 228.23 -1.93697 0.216196 0
M  V30 2355 H 227.326 -2.99171 -0.889 0
M  V30 2356 N 227.627 0.131896 -1.57047 0
M  V30 2357 C 228.873 0.838268 -1.85323 0
M  V30 2358 C 229.228 1.78098 -0.727937 0
M  V30 2359 O 228.521 1.89645 0.27304 0
M  V30 2360 C 228.715 1.63703 -3.17704 0
M  V30 2361 C 228.544 0.773167 -4.43004 0
M  V30 2362 C 227.314 0.432956 -5.03442 0
M  V30 2363 C 229.512 0.0966216 -5.14209 0
M  V30 2364 N 227.494 -0.442924 -6.123 0
M  V30 2365 C 228.865 -0.638778 -6.16701 0
M  V30 2366 C 230.92 0.018861 -4.97896 0
M  V30 2367 C 229.623 -1.44462 -7.04644 0
M  V30 2368 C 231.649 -0.773762 -5.86316 0
M  V30 2369 C 231.011 -1.4974 -6.883 0
M  V30 2370 H 227.11 0.284086 -0.728573 0
M  V30 2371 H 229.694 0.102731 -1.94429 0
M  V30 2372 H 227.865 2.3437 -3.09718 0
M  V30 2373 H 229.597 2.28774 -3.33833 0
M  V30 2374 H 226.352 0.772237 -4.67262 0
M  V30 2375 H 226.776 -0.872332 -6.71356 0
M  V30 2376 H 231.418 0.56397 -4.19022 0
M  V30 2377 H 229.136 -2.00093 -7.82936 0
M  V30 2378 H 232.722 -0.83612 -5.75761 0
M  V30 2379 H 231.602 -2.10087 -7.55535 0
M  V30 2380 N 229.106 1.52395 0.401703 0
M  V30 2381 C 230.069 1.75636 1.47257 0
M  V30 2382 C 231.069 0.62628 1.48103 0
M  V30 2383 O 232.259 0.894227 1.49497 0
M  V30 2384 C 229.391 1.84553 2.86624 0
M  V30 2385 H 230.584 2.71241 1.27938 0
M  V30 2386 H 228.137 1.42923 0.632662 0
M  V30 2387 H 228.872 0.908882 3.11303 0
M  V30 2388 H 228.657 2.66715 2.87412 0
M  V30 2389 H 230.147 2.04251 3.64241 0
M  V30 2390 N 230.584 -0.659388 1.43143 0
M  V30 2391 C 231.812 -1.44723 1.47861 0
M  V30 2392 C 232.227 -1.88563 0.0945886 0
M  V30 2393 O 231.584 -1.59108 -0.893915 0
M  V30 2394 C 231.635 -2.68627 2.41913 0
M  V30 2395 O 231.356 -2.26623 3.74932 0
M  V30 2396 C 232.857 -3.62045 2.55809 0
M  V30 2397 H 230.077 -0.444801 0.502387 0
M  V30 2398 H 232.621 -0.808916 1.87821 0
M  V30 2399 H 230.776 -3.28613 2.05164 0
M  V30 2400 H 231.19 -3.06745 4.2545 0
M  V30 2401 H 232.664 -4.45666 3.25708 0
M  V30 2402 H 233.141 -4.08981 1.60099 0
M  V30 2403 H 233.747 -3.07944 2.93344 0
M  V30 2404 N 232.062 -1.29571 -0.897171 0
M  V30 2405 C 233.308 -1.17863 -1.65034 0
M  V30 2406 C 233.641 0.268729 -1.92332 0
M  V30 2407 O 232.916 1.19378 -1.53555 0
M  V30 2408 C 233.199 -1.995 -2.99786 0
M  V30 2409 C 233.052 -3.5239 -2.79538 0
M  V30 2410 C 234.371 -1.82335 -4.00552 0
M  V30 2411 H 231.49 -0.429528 -0.598895 0
M  V30 2412 H 234.132 -1.59072 -1.03905 0
M  V30 2413 H 232.282 -1.64485 -3.51962 0
M  V30 2414 H 233.954 -3.97401 -2.34244 0
M  V30 2415 H 232.197 -3.77187 -2.14273 0
M  V30 2416 H 232.868 -4.04787 -3.75302 0
M  V30 2417 H 235.344 -2.12924 -3.57495 0
M  V30 2418 H 234.22 -2.41801 -4.92771 0
M  V30 2419 H 234.481 -0.779209 -4.35179 0
M  V30 2420 N 233.54 1.10788 -1.12088 0
M  V30 2421 C 234.787 1.82671 -0.873931 0
M  V30 2422 C 235.115 1.85004 0.600311 0
M  V30 2423 O 234.37 1.30365 1.45957 0
M  V30 2424 C 234.669 3.29294 -1.38926 0
M  V30 2425 C 234.335 3.47113 -2.87791 0
M  V30 2426 C 232.997 3.51684 -3.28439 0
M  V30 2427 C 235.349 3.52808 -3.83635 0
M  V30 2428 C 232.677 3.59513 -4.63646 0
M  V30 2429 C 235.029 3.62169 -5.18668 0
M  V30 2430 C 233.693 3.65003 -5.58864 0
M  V30 2431 H 232.963 0.668441 -0.319794 0
M  V30 2432 H 235.61 1.30613 -1.40045 0
M  V30 2433 H 233.915 3.83894 -0.783122 0
M  V30 2434 H 235.612 3.83416 -1.17443 0
M  V30 2435 H 232.202 3.4423 -2.5535 0
M  V30 2436 H 236.386 3.4853 -3.53328 0
M  V30 2437 H 231.642 3.59987 -4.94185 0
M  V30 2438 H 235.816 3.6552 -5.92763 0
M  V30 2439 H 233.443 3.70822 -6.63623 0
M  V30 2440 N 235.018 0.912232 1.28515 0
M  V30 2441 C 235.981 0.404223 2.25607 0
M  V30 2442 C 236.981 -0.468602 1.53821 0
M  V30 2443 O 238.171 -0.271873 1.72065 0
M  V30 2444 C 235.303 -0.420653 3.38295 0
M  V30 2445 H 236.496 1.26188 2.7206 0
M  V30 2446 H 234.049 0.691495 1.40171 0
M  V30 2447 H 234.784 -1.29777 2.97201 0
M  V30 2448 H 234.569 0.204935 3.91564 0
M  V30 2449 H 236.059 -0.766971 4.10496 0
M  V30 2450 N 236.496 -1.42363 0.676048 0
M  V30 2451 C 237.459 -2.29199 0.00766941 0
M  V30 2452 C 238.459 -1.43389 -0.727745 0
M  V30 2453 O 239.649 -1.64764 -0.56556 0
M  V30 2454 C 236.781 -3.2591 -0.999785 0
M  V30 2455 H 237.974 -2.89794 0.771988 0
M  V30 2456 H 235.527 -1.50024 0.438468 0
M  V30 2457 H 236.262 -2.70256 -1.79255 0
M  V30 2458 H 236.047 -3.89202 -0.475829 0
M  V30 2459 H 237.537 -3.91028 -1.46583 0
M  V30 2460 N 237.974 -0.419461 -1.51915 0
M  V30 2461 C 239.202 0.152136 -2.0634 0
M  V30 2462 C 239.617 1.37988 -1.28859 0
M  V30 2463 O 238.974 1.79243 -0.343232 0
M  V30 2464 C 239.025 0.492266 -3.58133 0
M  V30 2465 O 238.746 -0.686736 -4.32684 0
M  V30 2466 C 240.247 1.11648 -4.2901 0
M  V30 2467 H 237.467 0.0158325 -0.670813 0
M  V30 2468 H 240.011 -0.593394 -1.95702 0
M  V30 2469 H 238.166 1.18769 -3.68745 0
M  V30 2470 H 238.58 -0.400341 -5.2297 0
M  V30 2471 H 240.054 1.3046 -5.36362 0
M  V30 2472 H 240.531 2.09251 -3.86148 0
M  V30 2473 H 241.137 0.460958 -4.22795 0
M  V30 2474 N 239.452 1.56882 -0.150215 0
M  V30 2475 C 240.698 1.96518 0.500834 0
M  V30 2476 C 241.031 1.03527 1.64304 0
M  V30 2477 O 240.306 0.0782751 1.94342 0
M  V30 2478 C 240.589 3.45822 1.00395 0
M  V30 2479 C 240.442 4.49591 -0.136983 0
M  V30 2480 C 241.761 3.97704 1.88467 0
M  V30 2481 H 238.88 0.714535 0.18058 0
M  V30 2482 H 241.522 1.88577 -0.232091 0
M  V30 2483 H 239.672 3.5272 1.62851 0
M  V30 2484 H 241.344 4.5477 -0.77343 0
M  V30 2485 H 239.587 4.26441 -0.795652 0
M  V30 2486 H 240.258 5.51402 0.256815 0
M  V30 2487 H 242.734 3.93304 1.35834 0
M  V30 2488 H 241.61 5.0263 2.20578 0
M  V30 2489 H 241.871 3.40252 2.82279 0
M  V30 2490 N 240.93 -0.123565 1.57115 0
M  V30 2491 C 241.86 -1.15309 2.03042 0
M  V30 2492 C 242.841 -1.43454 0.914061 0
M  V30 2493 O 244.026 -1.53973 1.18347 0
M  V30 2494 C 241.156 -2.48043 2.43089 0
M  V30 2495 C 240.11 -2.3437 3.58127 0
M  V30 2496 C 239.436 -3.72026 3.84059 0
M  V30 2497 C 240.736 -1.80804 4.90007 0
M  V30 2498 H 242.43 -0.771102 2.893 0
M  V30 2499 H 239.976 -0.369479 1.39179 0
M  V30 2500 H 241.929 -3.20311 2.73823 0
M  V30 2501 H 240.653 -2.88122 1.53796 0
M  V30 2502 H 239.312 -1.64551 3.27595 0
M  V30 2503 H 238.96 -4.09582 2.91979 0
M  V30 2504 H 238.66 -3.63732 4.6149 0
M  V30 2505 H 240.184 -4.45806 4.1724 0
M  V30 2506 H 241.598 -2.42886 5.19307 0
M  V30 2507 H 239.995 -1.83343 5.71407 0
M  V30 2508 H 241.065 -0.76528 4.78823 0
M  V30 2509 N 242.408 -1.52605 -0.393616 0
M  V30 2510 C 243.356 -1.77688 -1.50099 0
M  V30 2511 C 244.35 -0.644615 -1.56656 0
M  V30 2512 O 245.556 -0.826997 -1.59877 0
M  V30 2513 H 241.931 -0.562159 -0.499481 0
M  V30 2514 H 243.902 -2.7043 -1.26135 0
M  V30 2515 C 242.651 -1.95858 -2.87289 0
M  V30 2516 H 241.974 -2.8241 -2.82992 0
M  V30 2517 H 243.414 -2.174 -3.64024 0
M  V30 2518 C 241.873 -0.729848 -3.28899 0
M  V30 2519 O 242.403 0.0949217 -4.01588 0
M  V30 2520 N 240.609 -0.561283 -2.85128 0
M  V30 2521 H 240.156 -1.23357 -2.26143 0
M  V30 2522 H 240.114 0.2595 -3.13327 0
M  V30 2523 N 243.887 0.651787 -1.4349 0
M  V30 2524 C 244.819 1.77725 -1.44729 0
M  V30 2525 C 245.832 1.59141 -0.343231 0
M  V30 2526 O 247.021 1.67835 -0.607751 0
M  V30 2527 C 244.121 3.15172 -1.24579 0
M  V30 2528 C 243.294 3.60402 -2.47849 0
M  V30 2529 C 242.353 4.76656 -2.22902 0
M  V30 2530 O 241.379 4.86022 -2.96263 0
M  V30 2531 N 242.581 5.66958 -1.24656 0
M  V30 2532 H 245.346 1.77141 -2.41746 0
M  V30 2533 H 242.907 0.835678 -1.38665 0
M  V30 2534 H 244.899 3.90634 -1.0577 0
M  V30 2535 H 243.469 3.1052 -0.360015 0
M  V30 2536 H 242.689 2.75369 -2.82073 0
M  V30 2537 H 243.977 3.87368 -3.29884 0
M  V30 2538 H 243.375 5.62065 -0.640265 0
M  V30 2539 H 241.932 6.42135 -1.1183 0
M  V30 2540 N 245.365 1.30045 0.890287 0
M  V30 2541 C 246.776 1.16738 1.45702 0
M  V30 2542 C 247.127 -0.233939 1.948 0
M  V30 2543 O 246.252 -1.13021 1.84541 0
M  V30 2544 C 246.847 2.11313 2.64825 0
M  V30 2545 C 245.406 2.02001 3.17604 0
M  V30 2546 C 244.553 2.01699 1.90296 0
M  V30 2547 H 247.504 1.42392 0.700726 0
M  V30 2548 H 247.525 1.69086 3.40867 0
M  V30 2549 H 247.037 3.13294 2.2906 0
M  V30 2550 H 245.138 1.03142 3.5804 0
M  V30 2551 H 245.251 2.90128 3.81264 0
M  V30 2552 H 243.615 1.46427 2.08402 0
M  V30 2553 H 244.398 3.05402 1.56795 0
M  V30 2554 N 246.843 -1.10192 1.12674 0
M  V30 2555 C 248.12 -1.78717 0.794965 0
M  V30 2556 C 248.5 -1.98628 -0.714853 0
M  V30 2557 O 247.848 -1.58135 -1.64941 0
M  V30 2558 C 248.058 -3.11546 1.5729 0
M  V30 2559 C 249.406 -3.86382 1.76052 0
M  V30 2560 O 250.43 -3.21274 1.53823 0
M  V30 2561 O 249.289 -5.03246 2.13087 0
M  V30 2562 H 246.383 -0.774702 0.289423 0
M  V30 2563 H 248.929 -1.16819 1.23091 0
M  V30 2564 H 247.701 -2.92489 2.59935 0
M  V30 2565 H 247.324 -3.81164 1.13137 0
M  V30 2566 N 248.321 -0.919034 -1.28029 0
M  V30 2567 C 249.737 -0.617972 -1.4715 0
M  V30 2568 C 249.937 0.835242 -1.83374 0
M  V30 2569 O 248.993 1.61388 -1.94191 0
M  V30 2570 C 250.306 -1.56041 -2.57044 0
M  V30 2571 C 251.854 -1.56769 -2.7091 0
M  V30 2572 C 252.329 -2.49688 -3.83953 0
M  V30 2573 N 253.82 -2.47845 -3.91314 0
M  V30 2574 C 254.555 -3.16437 -4.78179 0
M  V30 2575 N 254.051 -3.94376 -5.69596 0
M  V30 2576 N 255.844 -3.05498 -4.71834 0
M  V30 2577 H 247.995 -1.85866 -1.02798 0
M  V30 2578 H 250.258 -0.797506 -0.512531 0
M  V30 2579 H 249.964 -2.59671 -2.372 0
M  V30 2580 H 249.838 -1.29551 -3.54255 0
M  V30 2581 H 252.225 -0.538745 -2.90141 0
M  V30 2582 H 252.306 -1.87305 -1.74214 0
M  V30 2583 H 251.95 -3.52688 -3.65477 0
M  V30 2584 H 251.88 -2.16453 -4.80058 0
M  V30 2585 H 254.371 -1.91234 -3.25941 0
M  V30 2586 H 254.684 -4.43721 -6.32718 0
M  V30 2587 H 253.029 -3.98481 -5.69419 0
M  V30 2588 H 256.22 -2.44108 -3.99411 0
M  V30 2589 H 256.393 -3.59225 -5.39316 0
M  V30 2590 N 249.799 1.42003 -0.683588 0
M  V30 2591 C 251.21 1.84501 -0.285736 0
M  V30 2592 C 251.561 1.57213 1.17382 0
M  V30 2593 O 250.686 1.03642 1.89966 0
M  V30 2594 C 251.281 3.34912 -0.511821 0
M  V30 2595 C 249.84 3.76025 -0.168005 0
M  V30 2596 C 248.987 2.6551 -0.799983 0
M  V30 2597 H 251.938 1.31724 -0.885119 0
M  V30 2598 H 251.959 3.79784 0.233292 0
M  V30 2599 H 251.471 3.54741 -1.57418 0
M  V30 2600 H 249.572 3.61801 0.890567 0
M  V30 2601 H 249.685 4.75141 -0.614661 0
M  V30 2602 H 248.049 2.53654 -0.230568 0
M  V30 2603 H 248.832 2.8816 -1.86597 0
M  V30 2604 N 251.277 0.427512 1.51691 0
M  V30 2605 C 252.187 -0.39527 2.31246 0
M  V30 2606 C 253.203 -1.03674 1.39742 0
M  V30 2607 O 254.379 -1.03425 1.72816 0
M  V30 2608 C 251.444 -1.48706 3.13189 0
M  V30 2609 C 250.505 -0.866743 4.20459 0
M  V30 2610 C 249.738 -1.90651 4.98486 0
M  V30 2611 O 249.961 -3.12733 4.77026 0
M  V30 2612 O 248.895 -1.5025 5.82845 0
M  V30 2613 H 252.721 0.253918 3.02637 0
M  V30 2614 H 250.306 0.190274 1.48183 0
M  V30 2615 H 252.188 -2.12047 3.64162 0
M  V30 2616 H 250.863 -2.12051 2.44573 0
M  V30 2617 H 249.77 -0.195544 3.73589 0
M  V30 2618 H 251.103 -0.276934 4.9142 0
M  V30 2619 N 252.755 -1.56801 0.158532 0
M  V30 2620 C 254.004 -1.95665 -0.489702 0
M  V30 2621 C 254.317 -1.04654 -1.65248 0
M  V30 2622 O 255.523 -1.33146 -2.3661 0
M  V30 2623 C 253.979 -3.47874 -0.922582 0
M  V30 2624 C 253.587 -4.47489 0.213893 0
M  V30 2625 C 255.331 -3.95583 -1.53996 0
M  V30 2626 C 253.238 -5.90921 -0.237903 0
M  V30 2627 H 252.168 -0.730516 -0.186716 0
M  V30 2628 H 254.819 -1.81861 0.244722 0
M  V30 2629 H 253.201 -3.57051 -1.71261 0
M  V30 2630 H 254.375 -4.50017 0.991036 0
M  V30 2631 H 252.69 -4.09764 0.740407 0
M  V30 2632 H 255.287 -5.0019 -1.8898 0
M  V30 2633 H 255.63 -3.37789 -2.43319 0
M  V30 2634 H 256.163 -3.8937 -0.814611 0
M  V30 2635 H 252.902 -6.52559 0.620236 0
M  V30 2636 H 252.422 -5.91729 -0.980676 0
M  V30 2637 H 254.101 -6.43352 -0.686067 0
M  V30 2638 N 254.233 0.115231 -1.57178 0
M  V30 2639 C 255.18 1.14115 -2.00615 0
M  V30 2640 C 256.15 1.40939 -0.878941 0
M  V30 2641 O 257.335 1.52741 -1.14345 0
M  V30 2642 C 254.475 2.46156 -2.4187 0
M  V30 2643 C 253.588 2.26236 -3.68024 0
M  V30 2644 C 252.723 3.51534 -3.98243 0
M  V30 2645 C 251.762 3.26787 -5.17568 0
M  V30 2646 N 250.899 4.44298 -5.43639 0
M  V30 2647 H 255.739 0.763743 -2.88047 0
M  V30 2648 H 253.276 0.365615 -1.42484 0
M  V30 2649 H 255.234 3.23189 -2.63827 0
M  V30 2650 H 253.864 2.81783 -1.57475 0
M  V30 2651 H 252.916 1.40102 -3.5366 0
M  V30 2652 H 254.228 2.03929 -4.55208 0
M  V30 2653 H 253.382 4.36984 -4.20868 0
M  V30 2654 H 252.121 3.76876 -3.09541 0
M  V30 2655 H 251.126 2.39729 -4.94783 0
M  V30 2656 H 252.351 3.02812 -6.0785 0
M  V30 2657 H 250.297 4.69754 -4.57895 0
M  V30 2658 H 250.214 4.25109 -6.25154 0
M  V30 2659 H 251.482 5.3087 -5.70786 0
M  V30 2660 N 255.711 1.52812 0.385517 0
M  V30 2661 C 256.621 1.80766 1.49535 0
M  V30 2662 C 257.637 0.694651 1.59532 0
M  V30 2663 O 258.813 0.982611 1.75803 0
M  V30 2664 C 255.878 1.97381 2.85029 0
M  V30 2665 C 254.939 3.21295 2.84724 0
M  V30 2666 C 254.172 3.37108 4.13756 0
M  V30 2667 O 254.395 2.5765 5.08893 0
M  V30 2668 O 253.329 4.30378 4.20783 0
M  V30 2669 H 257.155 2.75015 1.28842 0
M  V30 2670 H 254.74 1.37946 0.573697 0
M  V30 2671 H 256.622 2.09996 3.65349 0
M  V30 2672 H 255.297 1.06322 3.05741 0
M  V30 2673 H 254.204 3.1412 2.03174 0
M  V30 2674 H 255.537 4.12212 2.68965 0
M  V30 2675 N 257.189 -0.644168 1.43834 0
M  V30 2676 C 258.099 -1.78563 1.52159 0
M  V30 2677 C 259.115 -1.69147 0.408069 0
M  V30 2678 O 260.291 -1.90156 0.663524 0
M  V30 2679 C 257.356 -3.14888 1.45073 0
M  V30 2680 C 256.417 -3.36034 2.6717 0
M  V30 2681 C 255.65 -4.65855 2.60413 0
M  V30 2682 O 255.873 -5.45805 1.65689 0
M  V30 2683 O 254.807 -4.88918 3.5106 0
M  V30 2684 H 258.633 -1.74494 2.48567 0
M  V30 2685 H 256.218 -0.80378 1.25935 0
M  V30 2686 H 258.1 -3.96179 1.43597 0
M  V30 2687 H 256.775 -3.19528 0.518037 0
M  V30 2688 H 255.682 -2.54472 2.74217 0
M  V30 2689 H 257.015 -3.36247 3.59442 0
M  V30 2690 N 258.668 -1.30515 -0.883378 0
M  V30 2691 C 259.598 -1.19607 -2.00541 0
M  V30 2692 C 260.579 -0.086346 -1.69881 0
M  V30 2693 O 261.764 -0.268654 -1.92333 0
M  V30 2694 C 258.894 -0.888758 -3.35736 0
M  V30 2695 C 257.848 -1.95659 -3.8066 0
M  V30 2696 C 257.174 -1.50224 -5.13164 0
M  V30 2697 C 258.474 -3.36788 -3.99213 0
M  V30 2698 H 260.168 -2.13476 -2.09925 0
M  V30 2699 H 257.714 -1.02775 -1.00863 0
M  V30 2700 H 259.667 -0.799094 -4.13754 0
M  V30 2701 H 258.391 0.0856125 -3.26488 0
M  V30 2702 H 257.05 -2.03591 -3.04871 0
M  V30 2703 H 256.698 -0.516092 -5.00345 0
M  V30 2704 H 256.398 -2.2165 -5.44192 0
M  V30 2705 H 257.922 -1.42639 -5.93706 0
M  V30 2706 H 259.336 -3.31605 -4.67665 0
M  V30 2707 H 257.733 -4.06314 -4.41621 0
M  V30 2708 H 258.803 -3.78561 -3.03017 0
M  V30 2709 N 260.146 1.09593 -1.13257 0
M  V30 2710 C 261.056 2.19739 -0.821691 0
M  V30 2711 C 262.072 1.72926 0.19302 0
M  V30 2712 O 263.248 2.01385 0.0244895 0
M  V30 2713 C 260.313 3.45482 -0.290333 0
M  V30 2714 C 259.374 4.06985 -1.36607 0
M  V30 2715 C 258.607 5.26726 -0.859975 0
M  V30 2716 O 258.83 5.69594 0.303082 0
M  V30 2717 O 257.764 5.7931 -1.63351 0
M  V30 2718 H 261.59 2.48781 -1.74189 0
M  V30 2719 H 259.175 1.18496 -0.909894 0
M  V30 2720 H 261.057 4.214 0.000674022 0
M  V30 2721 H 259.732 3.18047 0.602306 0
M  V30 2722 H 258.639 3.32712 -1.71037 0
M  V30 2723 H 259.972 4.38643 -2.23279 0
M  V30 2724 N 261.624 0.925811 1.2754 0
M  V30 2725 C 262.849 0.580924 1.99098 0
M  V30 2726 C 263.274 -0.833555 1.68622 0
M  V30 2727 O 262.632 -1.55903 0.925422 0
M  V30 2728 C 262.68 0.811186 3.51358 0
M  V30 2729 O 261.784 -0.124129 4.12213 0
M  V30 2730 H 261.125 0.223873 0.625122 0
M  V30 2731 H 263.655 1.24455 1.62395 0
M  V30 2732 H 263.665 0.72601 4.01489 0
M  V30 2733 H 262.34 1.84227 3.72872 0
M  V30 2734 H 260.917 0.0108006 3.72898 0
M  V30 2735 N 263.102 -1.41638 0.69111 0
M  V30 2736 C 264.518 -1.55435 0.362224 0
M  V30 2737 C 264.718 -1.66754 -1.13117 0
M  V30 2738 O 263.774 -1.64348 -1.91692 0
M  V30 2739 C 265.087 -2.79588 1.10684 0
M  V30 2740 C 266.635 -2.9338 1.09075 0
M  V30 2741 C 267.11 -4.20414 1.81703 0
M  V30 2742 N 268.601 -4.27362 1.7865 0
M  V30 2743 C 269.336 -5.24507 2.31689 0
M  V30 2744 N 268.832 -6.27708 2.93179 0
M  V30 2745 N 270.625 -5.16416 2.2197 0
M  V30 2746 H 262.776 -1.32536 1.65976 0
M  V30 2747 H 265.039 -0.639115 0.700168 0
M  V30 2748 H 264.745 -2.77419 2.16175 0
M  V30 2749 H 264.619 -3.70973 0.682545 0
M  V30 2750 H 267.006 -2.95067 0.0441238 0
M  V30 2751 H 267.087 -2.0318 1.55407 0
M  V30 2752 H 266.731 -4.19488 2.86343 0
M  V30 2753 H 266.661 -5.09578 1.32808 0
M  V30 2754 H 269.152 -3.53415 1.33815 0
M  V30 2755 H 269.465 -6.98217 3.31229 0
M  V30 2756 H 267.81 -6.28223 2.97255 0
M  V30 2757 H 271.001 -4.34716 1.73607 0
M  V30 2758 H 271.174 -5.91958 2.63609 0
M  V30 2759 N 264.58 -0.43555 -1.51462 0
M  V30 2760 C 265.827 0.131514 -2.02072 0
M  V30 2761 C 266.155 1.42868 -1.31981 0
M  V30 2762 O 265.41 1.91076 -0.422883 0
M  V30 2763 C 265.709 0.39942 -3.55161 0
M  V30 2764 C 265.375 -0.81172 -4.43533 0
M  V30 2765 C 264.037 -1.14387 -4.67407 0
M  V30 2766 C 266.389 -1.61976 -4.95392 0
M  V30 2767 C 263.717 -2.28477 -5.40384 0
M  V30 2768 C 266.069 -2.75164 -5.6962 0
M  V30 2769 C 264.733 -3.08835 -5.91758 0
M  V30 2770 H 264.003 0.0481244 -0.739436 0
M  V30 2771 H 266.65 -0.58238 -1.8243 0
M  V30 2772 H 264.955 1.19519 -3.73125 0
M  V30 2773 H 266.652 0.85157 -3.91854 0
M  V30 2774 H 263.242 -0.542898 -4.25148 0
M  V30 2775 H 267.426 -1.37637 -4.76833 0
M  V30 2776 H 262.682 -2.5488 -5.55739 0
M  V30 2777 H 266.856 -3.38147 -6.08793 0
M  V30 2778 H 264.483 -3.97353 -6.48086 0
M  V30 2779 N 266.058 1.56714 -0.166846 0
M  V30 2780 C 267.298 1.98641 0.481763 0
M  V30 2781 C 267.662 1.05038 1.6072 0
M  V30 2782 O 268.863 1.36087 2.31805 0
M  V30 2783 C 267.134 3.44362 0.956517 0
M  V30 2784 S 268.693 4.08317 1.60694 0
M  V30 2785 H 265.511 0.693873 0.155116 0
M  V30 2786 H 268.113 1.93719 -0.263251 0
M  V30 2787 H 266.817 4.10204 0.126936 0
M  V30 2788 H 266.348 3.53041 1.73568 0
M  V30 2789 H 268.363 4.02999 2.89494 0
M  V30 2790 N 267.536 -0.106894 1.57237 0
M  V30 2791 C 268.761 -0.830287 1.90055 0
M  V30 2792 C 269.186 -1.72064 0.75998 0
M  V30 2793 O 268.544 -1.78982 -0.288991 0
M  V30 2794 C 268.592 -1.6295 3.21683 0
M  V30 2795 O 267.696 -2.73748 3.08441 0
M  V30 2796 H 267.037 -0.228855 0.623315 0
M  V30 2797 H 269.567 -0.085658 2.04421 0
M  V30 2798 H 269.577 -2.01621 3.54701 0
M  V30 2799 H 268.252 -0.975989 4.04286 0
M  V30 2800 H 266.829 -2.38192 2.86913 0
M  V30 2801 N 269.014 -1.53014 -0.377408 0
M  V30 2802 C 270.242 -1.72515 -1.14219 0
M  V30 2803 C 270.657 -0.448735 -1.8339 0
M  V30 2804 O 270.014 0.577592 -1.73119 0
M  V30 2805 C 270.065 -2.8826 -2.18148 0
M  V30 2806 O 269.786 -4.10962 -1.51795 0
M  V30 2807 C 271.287 -3.19536 -3.07264 0
M  V30 2808 H 268.507 -0.577301 -0.342001 0
M  V30 2809 H 271.051 -1.99712 -0.439935 0
M  V30 2810 H 269.206 -2.63492 -2.83991 0
M  V30 2811 H 269.62 -4.75693 -2.20945 0
M  V30 2812 H 271.094 -4.03959 -3.76193 0
M  V30 2813 H 271.571 -2.34403 -3.71419 0
M  V30 2814 H 272.177 -3.46186 -2.47053 0
M  V30 2815 N 270.492 0.636531 -1.44174 0
M  V30 2816 C 271.769 1.39463 -1.37148 0
M  V30 2817 C 272.149 2.11082 -0.027507 0
M  V30 2818 O 271.497 2.05954 0.989716 0
M  V30 2819 C 271.707 2.36552 -2.56601 0
M  V30 2820 C 273.055 3.00048 -3.00427 0
M  V30 2821 O 274.079 2.46878 -2.56767 0
M  V30 2822 O 272.938 3.96488 -3.76111 0
M  V30 2823 H 270.032 0.623903 -0.542839 0
M  V30 2824 H 272.578 0.662039 -1.56253 0
M  V30 2825 H 271.35 1.82692 -3.46034 0
M  V30 2826 H 270.973 3.17236 -2.39681 0
M  V30 2827 N 271.97 1.30982 0.876444 0
M  V30 2828 C 273.381 1.18277 1.44456 0
M  V30 2829 C 273.732 -0.213265 1.95037 0
M  V30 2830 O 272.857 -1.11057 1.85729 0
M  V30 2831 C 273.452 2.1411 2.62569 0
M  V30 2832 C 272.011 2.05358 3.15444 0
M  V30 2833 C 271.158 2.03706 1.88146 0
M  V30 2834 H 274.109 1.43127 0.685584 0
M  V30 2835 H 274.13 1.72692 3.39054 0
M  V30 2836 H 273.642 3.15706 2.25724 0
M  V30 2837 H 271.743 1.06934 3.56926 0
M  V30 2838 H 271.856 2.94156 3.78166 0
M  V30 2839 H 270.22 1.48629 2.06837 0
M  V30 2840 H 271.003 3.07047 1.53547 0
M  V30 2841 N 273.449 -1.08991 1.13837 0
M  V30 2842 C 274.695 -1.81526 0.90422 0
M  V30 2843 C 275.028 -1.85706 -0.568066 0
M  V30 2844 O 274.303 -1.32855 -1.42056 0
M  V30 2845 C 274.586 -3.27447 1.49835 0
M  V30 2846 C 274.439 -3.31512 3.04006 0
M  V30 2847 C 275.758 -4.24256 1.17025 0
M  V30 2848 H 272.877 -0.659029 0.329923 0
M  V30 2849 H 275.519 -1.27644 1.40737 0
M  V30 2850 H 273.669 -3.73462 1.07044 0
M  V30 2851 H 275.341 -2.93867 3.55584 0
M  V30 2852 H 273.584 -2.70963 3.38765 0
M  V30 2853 H 274.255 -4.34329 3.40679 0
M  V30 2854 H 276.731 -3.86549 1.54009 0
M  V30 2855 H 275.607 -5.24684 1.61237 0
M  V30 2856 H 275.868 -4.42019 0.0846274 0
M  V30 2857 N 274.927 -0.932562 -1.27047 0
M  V30 2858 C 276.176 -0.571351 -1.93439 0
M  V30 2859 C 276.489 0.892467 -1.74053 0
M  V30 2860 O 277.695 1.36267 -2.34826 0
M  V30 2861 C 276.151 -0.97106 -3.46552 0
M  V30 2862 C 275.759 -2.4559 -3.74686 0
M  V30 2863 C 277.503 -0.681333 -4.18997 0
M  V30 2864 C 275.41 -2.79475 -5.21198 0
M  V30 2865 H 274.34 -0.209966 -0.724176 0
M  V30 2866 H 276.991 -1.13403 -1.44263 0
M  V30 2867 H 275.373 -0.336983 -3.94564 0
M  V30 2868 H 276.547 -3.13829 -3.37414 0
M  V30 2869 H 274.862 -2.71802 -3.15456 0
M  V30 2870 H 277.459 -0.910939 -5.26883 0
M  V30 2871 H 277.802 0.381628 -4.14547 0
M  V30 2872 H 278.335 -1.27473 -3.76823 0
M  V30 2873 H 275.074 -3.847 -5.30741 0
M  V30 2874 H 274.594 -2.1589 -5.596 0
M  V30 2875 H 276.273 -2.67478 -5.89122 0
M  V30 2876 N 276.405 1.4127 -0.698611 0
M  V30 2877 C 277.368 2.29158 -0.044132 0
M  V30 2878 C 278.368 1.44529 0.704841 0
M  V30 2879 O 279.558 1.65643 0.539276 0
M  V30 2880 C 276.69 3.27459 0.947809 0
M  V30 2881 H 277.883 2.88529 -0.817994 0
M  V30 2882 H 275.436 1.49307 -0.46228 0
M  V30 2883 H 276.171 2.73073 1.74933 0
M  V30 2884 H 275.956 3.8991 0.41385 0
M  V30 2885 H 277.446 3.93311 1.40344 0
M  V30 2886 N 277.883 0.443576 1.51229 0
M  V30 2887 C 279.299 0.0962001 1.5931 0
M  V30 2888 C 279.499 -1.39501 1.45402 0
M  V30 2889 O 278.555 -2.16557 1.29843 0
M  V30 2890 C 279.868 0.621875 2.94199 0
M  V30 2891 C 281.416 0.582865 3.07525 0
M  V30 2892 C 281.891 1.08562 4.44948 0
M  V30 2893 N 283.382 1.04387 4.51284 0
M  V30 2894 C 284.117 1.40368 5.55954 0
M  V30 2895 N 283.613 1.83664 6.68011 0
M  V30 2896 N 285.406 1.32145 5.46346 0
M  V30 2897 H 277.557 1.41376 1.58514 0
M  V30 2898 H 279.82 0.582965 0.747567 0
M  V30 2899 H 279.526 1.66546 3.09767 0
M  V30 2900 H 279.4 0.0502125 3.77167 0
M  V30 2901 H 281.787 -0.451749 2.91622 0
M  V30 2902 H 281.868 1.191 2.26382 0
M  V30 2903 H 281.512 2.11873 4.61598 0
M  V30 2904 H 281.442 0.453956 5.2464 0
M  V30 2905 H 283.933 0.725986 3.70861 0
M  V30 2906 H 284.246 2.0934 7.43906 0
M  V30 2907 H 282.591 1.87596 6.69203 0
M  V30 2908 H 285.782 0.981808 4.57688 0
M  V30 2909 H 285.955 1.60514 6.27805 0
M  V30 2910 N 279.361 -1.56624 0.175154 0
M  V30 2911 C 280.293 -2.15333 -0.785128 0
M  V30 2912 C 281.306 -1.1099 -1.19101 0
M  V30 2913 O 282.495 -1.38162 -1.13019 0
M  V30 2914 C 279.595 -2.68427 -2.06882 0
M  V30 2915 C 278.768 -3.97466 -1.8259 0
M  V30 2916 C 277.827 -4.35585 -2.95215 0
M  V30 2917 O 276.853 -5.03389 -2.65684 0
M  V30 2918 N 278.055 -3.97457 -4.23094 0
M  V30 2919 H 280.82 -2.98359 -0.283187 0
M  V30 2920 H 278.381 -1.61898 -0.00749817 0
M  V30 2921 H 280.373 -2.90924 -2.81328 0
M  V30 2922 H 278.943 -1.89968 -2.48256 0
M  V30 2923 H 278.163 -3.83307 -0.920287 0
M  V30 2924 H 279.451 -4.81736 -1.63733 0
M  V30 2925 H 278.849 -3.42878 -4.49945 0
M  V30 2926 H 277.406 -4.24947 -4.9423 0
M  V30 2927 N 280.839 0.0985539 -1.57292 0
M  V30 2928 C 282.086 0.802678 -1.85912 0
M  V30 2929 C 282.414 1.78901 -0.763186 0
M  V30 2930 O 281.669 1.94178 0.243559 0
M  V30 2931 C 281.968 1.56927 -3.21105 0
M  V30 2932 C 281.634 0.725376 -4.45027 0
M  V30 2933 C 280.296 0.492726 -4.78671 0
M  V30 2934 C 282.648 0.138493 -5.21016 0
M  V30 2935 C 279.976 -0.336727 -5.85733 0
M  V30 2936 C 282.328 -0.678264 -6.28953 0
M  V30 2937 C 280.992 -0.921039 -6.61115 0
M  V30 2938 H 280.262 0.293721 -0.680301 0
M  V30 2939 H 282.909 0.0642841 -1.91392 0
M  V30 2940 H 281.214 2.37914 -3.11294 0
M  V30 2941 H 282.911 2.11841 -3.40477 0
M  V30 2942 H 279.501 0.916815 -4.18679 0
M  V30 2943 H 283.685 0.305404 -4.95359 0
M  V30 2944 H 278.941 -0.533836 -6.09065 0
M  V30 2945 H 283.115 -1.1399 -6.87007 0
M  V30 2946 H 280.742 -1.56556 -7.43905 0
M  V30 2947 N 282.317 1.53212 0.369288 0
M  V30 2948 C 283.28 1.7872 1.43498 0
M  V30 2949 C 284.28 0.657554 1.46741 0
M  V30 2950 O 285.47 0.925736 1.47566 0
M  V30 2951 C 282.602 1.90591 2.82645 0
M  V30 2952 H 283.795 2.73894 1.22156 0
M  V30 2953 H 281.348 1.44233 0.602203 0
M  V30 2954 H 282.083 0.974709 3.09306 0
M  V30 2955 H 281.868 2.72751 2.8169 0
M  V30 2956 H 283.358 2.11931 3.59826 0
M  V30 2957 N 283.795 -0.628877 1.44509 0
M  V30 2958 C 284.742 -1.74074 1.51549 0
M  V30 2959 C 285.712 -1.62084 0.363021 0
M  V30 2960 O 286.897 -1.81975 0.573567 0
M  V30 2961 C 284.037 -3.12328 1.46784 0
M  V30 2962 C 283.15 -3.35277 2.72422 0
M  V30 2963 C 282.285 -4.63515 2.59475 0
M  V30 2964 C 281.324 -4.7965 3.80266 0
M  V30 2965 N 280.461 -5.99168 3.65981 0
M  V30 2966 H 285.301 -1.67392 2.46544 0
M  V30 2967 H 282.838 -0.816527 1.22357 0
M  V30 2968 H 284.796 -3.92286 1.42012 0
M  V30 2969 H 283.426 -3.18018 0.553544 0
M  V30 2970 H 282.478 -2.49242 2.87372 0
M  V30 2971 H 283.79 -3.43078 3.62076 0
M  V30 2972 H 282.944 -5.51638 2.52548 0
M  V30 2973 H 281.683 -4.58076 1.67384 0
M  V30 2974 H 280.688 -3.89957 3.87574 0
M  V30 2975 H 281.913 -4.86902 4.73395 0
M  V30 2976 H 279.859 -5.94814 2.76644 0
M  V30 2977 H 279.776 -6.08035 4.49254 0
M  V30 2978 H 281.044 -6.89846 3.6295 0
M  V30 2979 N 285.273 -1.31445 -0.869486 0
M  V30 2980 C 286.236 -1.19094 -1.9583 0
M  V30 2981 C 287.236 -0.117906 -1.60367 0
M  V30 2982 O 288.426 -0.367208 -1.70286 0
M  V30 2983 C 285.558 -0.828165 -3.30688 0
M  V30 2984 H 286.751 -2.15842 -2.08212 0
M  V30 2985 H 284.304 -1.15063 -1.05784 0
M  V30 2986 H 285.039 0.138142 -3.24006 0
M  V30 2987 H 284.824 -1.6038 -3.578 0
M  V30 2988 H 286.314 -0.765658 -4.10521 0
M  V30 2989 N 286.751 1.08385 -1.14413 0
M  V30 2990 C 287.714 2.13486 -0.834048 0
M  V30 2991 C 288.714 1.59988 0.161418 0
M  V30 2992 O 289.904 1.74071 -0.0669575 0
M  V30 2993 C 287.036 3.4003 -0.243354 0
M  V30 2994 H 288.229 2.42425 -1.7655 0
M  V30 2995 H 285.782 1.24101 -0.950189 0
M  V30 2996 H 286.517 3.16726 0.696807 0
M  V30 2997 H 286.302 3.80157 -0.960367 0
M  V30 2998 H 287.792 4.17577 -0.0436242 0
M  V30 2999 N 288.23 0.939286 1.26551 0
M  V30 3000 C 289.477 0.585847 1.9384 0
M  V30 3001 C 289.805 -0.874784 1.73718 0
M  V30 3002 O 289.06 -1.64092 1.06642 0
M  V30 3003 C 289.359 0.872106 3.46596 0
M  V30 3004 C 289.025 2.31632 3.86856 0
M  V30 3005 C 287.687 2.71111 3.97558 0
M  V30 3006 C 290.039 3.25494 4.07066 0
M  V30 3007 C 287.367 4.03553 4.25866 0
M  V30 3008 C 289.719 4.57531 4.36862 0
M  V30 3009 C 288.383 4.96828 4.45778 0
M  V30 3010 H 287.653 0.214377 0.709312 0
M  V30 3011 H 290.3 1.18544 1.50398 0
M  V30 3012 H 288.605 0.18996 3.91339 0
M  V30 3013 H 290.302 0.577442 3.96821 0
M  V30 3014 H 286.892 2.00008 3.79071 0
M  V30 3015 H 291.076 2.9619 3.98227 0
M  V30 3016 H 286.332 4.33665 4.30981 0
M  V30 3017 H 290.506 5.30254 4.51446 0
M  V30 3018 H 288.133 5.99482 4.67468 0
M  V30 3019 N 289.708 -1.40897 0.706093 0
M  V30 3020 C 290.955 -2.01054 0.241531 0
M  V30 3021 C 291.283 -1.55956 -1.16223 0
M  V30 3022 O 290.538 -0.766336 -1.80072 0
M  V30 3023 C 290.837 -3.5646 0.259099 0
M  V30 3024 C 290.503 -4.21106 1.61184 0
M  V30 3025 C 289.165 -4.38479 1.98216 0
M  V30 3026 C 291.517 -4.57256 2.50132 0
M  V30 3027 C 288.845 -4.89282 3.2376 0
M  V30 3028 C 291.197 -5.09454 3.7502 0
M  V30 3029 C 289.861 -5.25037 4.12181 0
M  V30 3030 H 289.131 -0.73571 0.0883825 0
M  V30 3031 H 291.778 -1.68645 0.907257 0
M  V30 3032 H 290.083 -3.88721 -0.490189 0
M  V30 3033 H 291.78 -4.00826 -0.11804 0
M  V30 3034 H 288.37 -4.07966 1.31384 0
M  V30 3035 H 292.554 -4.43479 2.228 0
M  V30 3036 H 287.81 -4.99531 3.52532 0
M  V30 3037 H 291.984 -5.36404 4.44121 0
M  V30 3038 H 289.611 -5.64164 5.09532 0
M  V30 3039 N 291.186 -0.45159 -1.50991 0
M  V30 3040 C 292.411 0.110667 -2.07105 0
M  V30 3041 C 292.836 1.3446 -1.31538 0
M  V30 3042 O 292.194 1.77743 -0.357365 0
M  V30 3043 C 292.242 0.397238 -3.58405 0
M  V30 3044 O 291.346 1.48124 -3.84881 0
M  V30 3045 H 290.687 -0.00439271 -0.663985 0
M  V30 3046 H 293.217 -0.637026 -1.9443 0
M  V30 3047 H 293.227 0.64351 -4.02893 0
M  V30 3048 H 291.902 -0.504553 -4.12828 0
M  V30 3049 H 290.479 1.22381 -3.52246 0
M  V30 3050 N 292.664 1.56529 -0.183458 0
M  V30 3051 C 293.941 1.88959 0.50536 0
M  V30 3052 C 294.321 1.09523 1.80466 0
M  V30 3053 O 293.669 0.19278 2.27685 0
M  V30 3054 C 293.879 3.41162 0.73547 0
M  V30 3055 C 295.227 4.11155 1.06005 0
M  V30 3056 O 296.251 3.46548 0.823594 0
M  V30 3057 O 295.11 5.25318 1.50675 0
M  V30 3058 H 292.204 0.78441 0.261973 0
M  V30 3059 H 294.75 1.68231 -0.222802 0
M  V30 3060 H 293.522 3.90874 -0.182561 0
M  V30 3061 H 293.145 3.67543 1.51651 0
M  V30 3062 N 294.142 -0.090211 1.57342 0
M  V30 3063 C 295.092 -1.11557 1.98844 0
M  V30 3064 C 296.076 -1.35503 0.867624 0
M  V30 3065 O 297.268 -1.36113 1.13148 0
M  V30 3066 C 294.397 -2.43446 2.42051 0
M  V30 3067 C 293.483 -2.22853 3.60828 0
M  V30 3068 N 293.874 -1.72141 4.75606 0
M  V30 3069 C 292.172 -2.53401 3.67021 0
M  V30 3070 C 292.873 -1.65932 5.57531 0
M  V30 3071 N 291.849 -2.11323 5.00843 0
M  V30 3072 H 295.651 -0.716499 2.85032 0
M  V30 3073 H 293.165 -0.297567 1.59651 0
M  V30 3074 H 295.162 -3.17644 2.70014 0
M  V30 3075 H 293.822 -2.84087 1.57241 0
M  V30 3076 H 294.833 -1.41268 4.98261 0
M  V30 3077 H 291.51 -2.97532 2.92884 0
M  V30 3078 H 292.9 -1.27733 6.59647 0
M  V30 3079 N 295.62 -1.53406 -0.361157 0
M  V30 3080 C 297.036 -1.43277 -0.703124 0
M  V30 3081 C 297.236 -0.575384 -1.9311 0
M  V30 3082 O 296.292 -0.0595362 -2.5243 0
M  V30 3083 C 297.605 -2.8653 -0.9122 0
M  V30 3084 C 299.153 -2.96191 -1.01193 0
M  V30 3085 C 299.628 -4.40514 -1.25345 0
M  V30 3086 N 301.119 -4.43962 -1.32105 0
M  V30 3087 C 301.854 -5.52746 -1.5251 0
M  V30 3088 N 301.35 -6.71567 -1.70203 0
M  V30 3089 N 303.143 -5.40331 -1.54916 0
M  V30 3090 H 295.294 -2.07654 0.446475 0
M  V30 3091 H 297.557 -0.937944 0.137715 0
M  V30 3092 H 297.263 -3.51605 -0.0816414 0
M  V30 3093 H 297.137 -3.30441 -1.81903 0
M  V30 3094 H 299.524 -2.31266 -1.83303 0
M  V30 3095 H 299.605 -2.55667 -0.0823929 0
M  V30 3096 H 299.249 -5.06014 -0.437346 0
M  V30 3097 H 299.179 -4.78614 -2.19627 0
M  V30 3098 H 301.67 -3.58332 -1.20028 0
M  V30 3099 H 301.983 -7.50241 -1.85359 0
M  V30 3100 H 300.328 -6.74545 -1.67373 0
M  V30 3101 H 303.519 -4.46465 -1.40663 0
M  V30 3102 H 303.692 -6.25173 -1.70477 0
M  V30 3103 N 297.098 0.621204 -1.44841 0
M  V30 3104 C 298.008 1.7612 -1.5498 0
M  V30 3105 C 299.024 1.68477 -0.434927 0
M  V30 3106 O 300.2 1.89076 -0.693693 0
M  V30 3107 C 297.265 3.1254 -1.50065 0
M  V30 3108 C 296.326 3.31741 -2.72482 0
M  V30 3109 C 295.559 4.61653 -2.67792 0
M  V30 3110 O 295.782 5.431 -1.74352 0
M  V30 3111 O 294.716 4.83271 -3.58794 0
M  V30 3112 H 298.542 1.70518 -2.51311 0
M  V30 3113 H 296.127 0.783643 -1.27198 0
M  V30 3114 H 298.009 3.93844 -1.49882 0
M  V30 3115 H 296.684 3.18663 -0.568806 0
M  V30 3116 H 295.591 2.50077 -2.7823 0
M  V30 3117 H 296.924 3.30486 -3.64746 0
M  V30 3118 N 298.576 1.31904 0.862503 0
M  V30 3119 C 299.853 1.12644 1.59908 0
M  V30 3120 C 300.233 -0.316104 2.0872 0
M  V30 3121 O 299.581 -1.31145 1.87118 0
M  V30 3122 C 299.791 2.1472 2.7513 0
M  V30 3123 C 301.139 2.47637 3.44907 0
M  V30 3124 O 302.163 2.13205 2.85346 0
M  V30 3125 O 301.022 3.06632 4.52371 0
M  V30 3126 H 298.116 0.43416 0.703871 0
M  V30 3127 H 300.662 1.43408 0.907314 0
M  V30 3128 H 299.434 3.1172 2.3653 0
M  V30 3129 H 299.057 1.84905 3.51989 0
M  V30 3130 N 300.054 -1.07777 1.14986 0
M  V30 3131 C 300.984 -2.16865 0.865557 0
M  V30 3132 C 301.965 -1.69123 -0.182083 0
M  V30 3133 O 303.15 -1.94164 -0.0373815 0
M  V30 3134 C 300.28 -3.45539 0.349313 0
M  V30 3135 C 299.234 -4.06708 1.33313 0
M  V30 3136 C 298.56 -5.30411 0.675918 0
M  V30 3137 C 299.86 -4.47241 2.69764 0
M  V30 3138 H 301.554 -2.40905 1.77778 0
M  V30 3139 H 299.1 -1.15781 0.856203 0
M  V30 3140 H 301.053 -4.21174 0.137983 0
M  V30 3141 H 299.777 -3.21072 -0.598362 0
M  V30 3142 H 298.436 -3.33112 1.53075 0
M  V30 3143 H 298.084 -5.02232 -0.277767 0
M  V30 3144 H 297.784 -5.72293 1.33244 0
M  V30 3145 H 299.308 -6.08755 0.474262 0
M  V30 3146 H 300.722 -5.14025 2.53873 0
M  V30 3147 H 299.119 -5.00062 3.3175 0
M  V30 3148 H 300.189 -3.58818 3.26156 0
M  V30 3149 N 301.532 -0.945985 -1.26051 0
M  V30 3150 C 302.757 -0.612525 -1.98149 0
M  V30 3151 C 303.182 0.806623 -1.69927 0
M  V30 3152 O 302.54 1.54411 -0.950108 0
M  V30 3153 C 302.588 -0.866981 -3.50023 0
M  V30 3154 O 301.692 0.0585333 -4.12358 0
M  V30 3155 H 301.033 -0.23379 -0.621481 0
M  V30 3156 H 303.563 -1.27023 -1.60395 0
M  V30 3157 H 303.573 -0.789792 -4.00283 0
M  V30 3158 H 302.248 -1.90135 -3.69894 0
M  V30 3159 H 300.825 -0.0701241 -3.72834 0
M  V30 3160 N 303.011 1.40521 -0.713556 0
M  V30 3161 C 303.958 2.30723 -0.059684 0
M  V30 3162 C 304.928 1.48079 0.752448 0
M  V30 3163 O 306.113 1.76823 0.71681 0
M  V30 3164 C 303.253 3.34274 0.857594 0
M  V30 3165 C 302.366 4.31986 0.0351536 0
M  V30 3166 C 301.501 5.22605 0.951724 0
M  V30 3167 C 300.54 6.11976 0.123253 0
M  V30 3168 N 299.677 6.9502 0.99459 0
M  V30 3169 H 304.517 2.86074 -0.834596 0
M  V30 3170 H 302.054 1.40879 -0.42326 0
M  V30 3171 H 304.012 3.92879 1.40364 0
M  V30 3172 H 302.642 2.8043 1.59871 0
M  V30 3173 H 301.694 3.7518 -0.628052 0
M  V30 3174 H 303.006 4.95101 -0.606347 0
M  V30 3175 H 302.16 5.86131 1.56638 0
M  V30 3176 H 300.899 4.59759 1.62705 0
M  V30 3177 H 299.904 5.47482 -0.50435 0
M  V30 3178 H 301.129 6.76881 -0.548539 0
M  V30 3179 H 299.075 6.34764 1.6556 0
M  V30 3180 H 298.992 7.54892 0.40908 0
M  V30 3181 H 300.26 7.62997 1.59549 0
M  V30 3182 N 304.489 0.459591 1.5075 0
M  V30 3183 C 305.735 -0.0994966 2.02556 0
M  V30 3184 C 306.068 -1.40399 1.3417 0
M  V30 3185 O 305.343 -1.88892 0.463683 0
M  V30 3186 C 305.626 -0.295242 3.58888 0
M  V30 3187 C 305.479 1.02947 4.37861 0
M  V30 3188 C 306.798 -1.05502 4.27267 0
M  V30 3189 H 303.917 -0.034686 0.736183 0
M  V30 3190 H 306.559 0.602938 1.8018 0
M  V30 3191 H 304.709 -0.893563 3.78084 0
M  V30 3192 H 306.381 1.66348 4.30263 0
M  V30 3193 H 304.624 1.62885 4.02058 0
M  V30 3194 H 305.295 0.846281 5.45474 0
M  V30 3195 H 307.771 -0.547993 4.12476 0
M  V30 3196 H 306.647 -1.16077 5.36486 0
M  V30 3197 H 306.908 -2.08875 3.89645 0
M  V30 3198 N 305.967 -1.56429 0.191757 0
M  V30 3199 C 307.195 -2.01867 -0.453586 0
M  V30 3200 C 307.61 -1.07191 -1.5542 0
M  V30 3201 O 306.967 -0.0762108 -1.82341 0
M  V30 3202 C 307.018 -3.47017 -1.013 0
M  V30 3203 O 306.739 -4.38078 0.0437005 0
M  V30 3204 C 308.24 -4.07956 -1.73456 0
M  V30 3205 H 305.46 -0.661211 -0.114199 0
M  V30 3206 H 308.004 -2.02295 0.299483 0
M  V30 3207 H 306.159 -3.47298 -1.71647 0
M  V30 3208 H 306.573 -5.23178 -0.372212 0
M  V30 3209 H 308.047 -5.1138 -2.07833 0
M  V30 3210 H 308.524 -3.51222 -2.63704 0
M  V30 3211 H 309.13 -4.11437 -1.07702 0
M  V30 3212 N 307.445 0.0818655 -1.57387 0
M  V30 3213 C 308.691 0.784074 -1.8703 0
M  V30 3214 C 309.024 1.77729 -0.782689 0
M  V30 3215 O 308.299 1.93384 0.208051 0
M  V30 3216 C 308.582 1.50105 -3.27323 0
M  V30 3217 C 308.435 0.524925 -4.46727 0
M  V30 3218 C 309.754 2.44843 -3.65705 0
M  V30 3219 H 306.873 0.283582 -0.680257 0
M  V30 3220 H 309.515 0.0474352 -1.89941 0
M  V30 3221 H 307.665 2.12897 -3.24972 0
M  V30 3222 H 309.337 -0.0970111 -4.61198 0
M  V30 3223 H 307.58 -0.160606 -4.33503 0
M  V30 3224 H 308.251 1.064 -5.41648 0
M  V30 3225 H 310.727 1.92135 -3.69085 0
M  V30 3226 H 309.603 2.92018 -4.64776 0
M  V30 3227 H 309.864 3.29197 -2.95096 0
M  V30 3228 N 308.923 1.53595 0.353017 0
M  V30 3229 C 310.334 1.61937 0.929153 0
M  V30 3230 C 310.685 0.494686 1.89861 0
M  V30 3231 O 309.81 -0.377017 2.1309 0
M  V30 3232 C 310.405 2.93526 1.69199 0
M  V30 3233 C 308.964 3.04161 2.21727 0
M  V30 3234 C 308.111 2.57322 1.03348 0
M  V30 3235 H 311.062 1.58155 0.131431 0
M  V30 3236 H 311.083 2.82034 2.55416 0
M  V30 3237 H 310.595 3.75362 0.986144 0
M  V30 3238 H 308.696 2.26938 2.95516 0
M  V30 3239 H 308.809 4.09465 2.48748 0
M  V30 3240 H 307.173 2.12499 1.40414 0
M  V30 3241 H 307.956 3.41588 0.342428 0
M  V30 3242 N 310.401 -0.613514 1.45168 0
M  V30 3243 C 311.626 -1.40437 1.52618 0
M  V30 3244 C 312.051 -1.87438 0.157707 0
M  V30 3245 O 311.409 -1.59791 -0.856537 0
M  V30 3246 C 311.457 -2.58894 2.51011 0
M  V30 3247 O 310.561 -3.59326 2.02382 0
M  V30 3248 H 309.902 -0.419506 0.514695 0
M  V30 3249 H 312.432 -0.747215 1.90467 0
M  V30 3250 H 312.442 -3.06214 2.69624 0
M  V30 3251 H 311.117 -2.24032 3.50403 0
M  V30 3252 H 309.694 -3.18695 1.93618 0
M  V30 3253 N 311.879 -1.3236 -0.855495 0
M  V30 3254 C 312.809 -1.23833 -1.97958 0
M  V30 3255 C 313.79 -0.122361 -1.69659 0
M  V30 3256 O 314.975 -0.30939 -1.9172 0
M  V30 3257 C 312.105 -0.959772 -3.33775 0
M  V30 3258 C 311.059 -2.03689 -3.76424 0
M  V30 3259 C 310.385 -1.61075 -5.09862 0
M  V30 3260 C 311.685 -3.4518 -3.9198 0
M  V30 3261 H 313.379 -2.1788 -2.0535 0
M  V30 3262 H 310.925 -1.04891 -0.986605 0
M  V30 3263 H 312.878 -0.886678 -4.11966 0
M  V30 3264 H 311.602 0.0163404 -3.26596 0
M  V30 3265 H 310.261 -2.10012 -3.00484 0
M  V30 3266 H 309.909 -0.622107 -4.99138 0
M  V30 3267 H 309.609 -2.33143 -5.39368 0
M  V30 3268 H 311.133 -1.55201 -5.90546 0
M  V30 3269 H 312.547 -3.4145 -4.60526 0
M  V30 3270 H 310.944 -4.1559 -4.32903 0
M  V30 3271 H 312.014 -3.84903 -2.94919 0
M  V30 3272 N 313.357 1.07166 -1.15556 0
M  V30 3273 C 314.606 1.79181 -0.926132 0
M  V30 3274 C 314.919 1.87768 0.547967 0
M  V30 3275 O 316.125 2.56323 0.895036 0
M  V30 3276 C 314.581 3.22 -1.60761 0
M  V30 3277 C 314.189 3.21607 -3.11886 0
M  V30 3278 C 315.933 3.9861 -1.4598 0
M  V30 3279 C 313.84 4.59092 -3.72812 0
M  V30 3280 H 312.77 0.67154 -0.342856 0
M  V30 3281 H 315.421 1.2027 -1.3859 0
M  V30 3282 H 313.803 3.81115 -1.07553 0
M  V30 3283 H 314.977 2.72127 -3.71865 0
M  V30 3284 H 313.292 2.58495 -3.2645 0
M  V30 3285 H 315.889 5.00225 -1.88888 0
M  V30 3286 H 316.232 4.143 -0.407541 0
M  V30 3287 H 316.765 3.45996 -1.96295 0
M  V30 3288 H 313.504 4.48606 -4.77946 0
M  V30 3289 H 313.024 5.08803 -3.17616 0
M  V30 3290 H 314.703 5.28059 -3.73848 0
M  V30 3291 N 314.835 0.952656 1.25548 0
M  V30 3292 C 315.765 0.489287 2.28316 0
M  V30 3293 C 316.746 -0.463359 1.63667 0
M  V30 3294 O 317.931 -0.36274 1.90782 0
M  V30 3295 C 315.061 -0.235603 3.465 0
M  V30 3296 C 314.015 0.631593 4.23314 0
M  V30 3297 C 313.341 -0.223923 5.34231 0
M  V30 3298 C 314.641 1.90871 4.86174 0
M  V30 3299 H 316.335 1.34822 2.67326 0
M  V30 3300 H 313.881 0.649728 1.28509 0
M  V30 3301 H 315.834 -0.570882 4.17515 0
M  V30 3302 H 314.558 -1.12877 3.06474 0
M  V30 3303 H 313.217 0.949929 3.54079 0
M  V30 3304 H 312.865 -1.11678 4.90446 0
M  V30 3305 H 312.565 0.35299 5.86539 0
M  V30 3306 H 314.089 -0.554214 6.0808 0
M  V30 3307 H 315.503 1.63997 5.49343 0
M  V30 3308 H 313.9 2.43112 5.4865 0
M  V30 3309 H 314.97 2.61304 4.08471 0
M  V30 3310 N 316.313 -1.40141 0.720998 0
M  V30 3311 C 317.245 -2.29177 0.0324669 0
M  V30 3312 C 318.258 -1.46105 -0.718126 0
M  V30 3313 O 319.447 -1.69335 -0.564608 0
M  V30 3314 C 316.547 -3.24473 -0.978292 0
M  V30 3315 C 315.72 -4.36423 -0.292115 0
M  V30 3316 C 314.779 -5.12122 -1.20901 0
M  V30 3317 O 313.805 -5.64981 -0.691766 0
M  V30 3318 N 315.007 -5.21992 -2.53978 0
M  V30 3319 H 317.772 -2.88909 0.796984 0
M  V30 3320 H 315.333 -1.51569 0.569068 0
M  V30 3321 H 317.325 -3.71987 -1.59398 0
M  V30 3322 H 315.895 -2.65871 -1.64413 0
M  V30 3323 H 315.115 -3.90967 0.503847 0
M  V30 3324 H 316.403 -5.08467 0.183971 0
M  V30 3325 H 315.801 -4.8054 -2.98493 0
M  V30 3326 H 314.358 -5.72995 -3.10677 0
M  V30 3327 N 317.792 -0.46758 -1.50504 0
M  V30 3328 C 319.032 0.0874114 -2.04213 0
M  V30 3329 C 319.396 1.37301 -1.34211 0
M  V30 3330 O 320.597 2.01015 -1.78456 0
M  V30 3331 C 318.868 0.270571 -3.56374 0
M  V30 3332 S 320.427 0.784623 -4.31728 0
M  V30 3333 H 317.245 0.0176153 -0.710782 0
M  V30 3334 H 319.847 -0.633915 -1.84937 0
M  V30 3335 H 318.551 -0.670942 -4.04878 0
M  V30 3336 H 318.082 1.01811 -3.79997 0
M  V30 3337 H 320.097 2.05849 -4.51487 0
M  V30 3338 N 319.27 1.56325 -0.20005 0
M  V30 3339 C 320.233 2.18084 0.705132 0
M  V30 3340 C 321.233 1.13666 1.1374 0
M  V30 3341 O 322.423 1.39023 1.04968 0
M  V30 3342 C 319.555 2.78689 1.96329 0
M  V30 3343 H 320.748 2.99435 0.167023 0
M  V30 3344 H 318.301 1.56221 0.0495725 0
M  V30 3345 H 319.036 2.0115 2.5438 0
M  V30 3346 H 318.821 3.55133 1.66202 0
M  V30 3347 H 320.311 3.26096 2.60866 0
M  V30 3348 N 320.748 -0.0735177 1.57428 0
M  V30 3349 C 322.025 -0.805903 1.78226 0
M  V30 3350 C 322.405 -1.95874 0.787189 0
M  V30 3351 O 321.753 -2.2779 -0.180029 0
M  V30 3352 C 321.963 -1.28045 3.24662 0
M  V30 3353 C 323.311 -1.71453 3.88444 0
M  V30 3354 O 324.335 -1.37616 3.28543 0
M  V30 3355 O 323.194 -2.34093 4.93825 0
M  V30 3356 H 320.288 -0.386041 0.73137 0
M  V30 3357 H 322.834 -0.0537269 1.69615 0
M  V30 3358 H 321.606 -0.455476 3.8864 0
M  V30 3359 H 321.229 -2.094 3.37991 0
M  V30 3360 N 322.226 -1.5378 -0.344866 0
M  V30 3361 C 323.503 -1.61589 -1.10219 0
M  V30 3362 C 323.883 -0.436316 -2.06542 0
M  V30 3363 O 323.231 0.571543 -2.21237 0
M  V30 3364 C 323.441 -2.97602 -1.82301 0
M  V30 3365 C 324.789 -3.5291 -2.36093 0
M  V30 3366 O 325.813 -2.99768 -1.924 0
M  V30 3367 O 324.672 -4.45859 -3.16026 0
M  V30 3368 H 321.766 -0.653522 -0.506792 0
M  V30 3369 H 324.312 -1.66126 -0.346465 0
M  V30 3370 H 323.084 -3.74893 -1.12121 0
M  V30 3371 H 322.707 -2.9665 -2.64735 0
M  V30 3372 N 323.704 0.605807 -1.45491 0
M  V30 3373 C 324.953 1.36086 -1.48874 0
M  V30 3374 C 325.266 1.95131 -0.135333 0
M  V30 3375 O 326.472 2.7146 -0.0468144 0
M  V30 3376 C 324.928 2.46518 -2.62215 0
M  V30 3377 C 324.536 1.93877 -4.03876 0
M  V30 3378 C 326.28 3.23512 -2.74846 0
M  V30 3379 C 324.187 3.01801 -5.08596 0
M  V30 3380 H 323.117 0.511497 -0.553974 0
M  V30 3381 H 325.768 0.649089 -1.71636 0
M  V30 3382 H 324.15 3.20388 -2.32739 0
M  V30 3383 H 325.324 1.26704 -4.43038 0
M  V30 3384 H 323.639 1.29622 -3.95711 0
M  V30 3385 H 326.236 4.04013 -3.50253 0
M  V30 3386 H 326.579 3.74631 -1.81542 0
M  V30 3387 H 327.112 2.56742 -3.03856 0
M  V30 3388 H 323.851 2.55597 -6.03614 0
M  V30 3389 H 323.371 3.67535 -4.74002 0
M  V30 3390 H 325.05 3.66152 -5.33424 0
M  V30 3391 N 325.182 1.32811 0.848464 0
M  V30 3392 C 326.431 1.23075 1.59798 0
M  V30 3393 C 326.744 -0.204419 1.94529 0
M  V30 3394 O 327.95 -0.423701 2.68173 0
M  V30 3395 C 326.406 2.15594 2.88179 0
M  V30 3396 C 326.014 3.64228 2.60849 0
M  V30 3397 C 327.758 2.14709 3.66197 0
M  V30 3398 C 325.665 4.48689 3.85269 0
M  V30 3399 H 324.595 0.457091 0.599653 0
M  V30 3400 H 327.246 1.57813 0.936342 0
M  V30 3401 H 325.628 1.73778 3.55833 0
M  V30 3402 H 326.802 4.14424 2.01467 0
M  V30 3403 H 325.117 3.67306 1.96151 0
M  V30 3404 H 327.714 2.75046 4.58534 0
M  V30 3405 H 328.057 1.13966 4.00397 0
M  V30 3406 H 328.59 2.54837 3.05455 0
M  V30 3407 H 325.329 5.5027 3.56207 0
M  V30 3408 H 324.849 4.03241 4.44024 0
M  V30 3409 H 326.528 4.62006 4.52946 0
M  V30 3410 N 326.66 -1.06551 1.16123 0
M  V30 3411 C 327.623 -2.12132 0.867906 0
M  V30 3412 C 328.623 -1.60224 -0.135944 0
M  V30 3413 O 329.813 -1.73943 0.0946422 0
M  V30 3414 C 326.945 -3.396 0.297419 0
M  V30 3415 H 328.138 -2.39586 1.80385 0
M  V30 3416 H 325.691 -1.22574 0.969812 0
M  V30 3417 H 326.426 -3.17794 -0.64633 0
M  V30 3418 H 326.211 -3.78581 1.02073 0
M  V30 3419 H 327.701 -4.17455 0.110052 0
M  V30 3420 N 328.138 -0.959301 -1.25041 0
M  V30 3421 C 329.549 -0.65667 -1.74771 0
M  V30 3422 C 329.9 0.827852 -1.77879 0
M  V30 3423 O 329.025 1.64783 -1.40269 0
M  V30 3424 C 329.62 -1.1853 -3.1739 0
M  V30 3425 C 328.179 -0.932734 -3.6466 0
M  V30 3426 C 327.326 -1.32558 -2.43564 0
M  V30 3427 H 330.277 -1.13558 -1.10862 0
M  V30 3428 H 330.298 -0.547582 -3.76539 0
M  V30 3429 H 329.81 -2.26576 -3.15095 0
M  V30 3430 H 327.911 0.13257 -3.72364 0
M  V30 3431 H 328.024 -1.57248 -4.52559 0
M  V30 3432 H 326.388 -0.743956 -2.43593 0
M  V30 3433 H 327.171 -2.41537 -2.43957 0
M  V30 3434 N 329.616 1.39756 -0.72842 0
M  V30 3435 C 330.579 2.29012 -0.0927297 0
M  V30 3436 C 331.579 1.45992 0.674025 0
M  V30 3437 O 332.769 1.66749 0.50402 0
M  V30 3438 C 329.901 3.29396 0.878137 0
M  V30 3439 H 331.094 2.86729 -0.879011 0
M  V30 3440 H 328.647 1.48293 -0.493847 0
M  V30 3441 H 329.382 2.76722 1.69101 0
M  V30 3442 H 329.167 3.907 0.331051 0
M  V30 3443 H 330.657 3.96199 1.3197 0
M  V30 3444 N 331.094 0.475555 1.50254 0
M  V30 3445 C 332.322 -0.0754493 2.06762 0
M  V30 3446 C 332.737 -1.33111 1.33891 0
M  V30 3447 O 332.094 -1.77846 0.40952 0
M  V30 3448 C 332.145 -0.359008 3.59713 0
M  V30 3449 O 331.866 0.846851 4.29837 0
M  V30 3450 C 333.367 -0.956484 4.32858 0
M  V30 3451 H 330.587 0.00907525 0.670939 0
M  V30 3452 H 333.131 0.665618 1.93364 0
M  V30 3453 H 331.286 -1.05001 3.72899 0
M  V30 3454 H 331.7 0.594162 5.21124 0
M  V30 3455 H 333.174 -1.10463 5.40834 0
M  V30 3456 H 333.651 -1.94775 3.93649 0
M  V30 3457 H 334.257 -0.303723 4.24214 0
M  V30 3458 N 332.573 -1.56217 0.208337 0
M  V30 3459 C 333.819 -1.98242 -0.427552 0
M  V30 3460 C 334.152 -1.09554 -1.60348 0
M  V30 3461 O 333.427 -0.15035 -1.93918 0
M  V30 3462 C 333.71 -3.4931 -0.874907 0
M  V30 3463 C 333.563 -4.48773 0.303751 0
M  V30 3464 C 334.882 -4.04424 -1.73577 0
M  V30 3465 H 332.001 -0.720744 -0.153936 0
M  V30 3466 H 334.643 -1.87586 0.30192 0
M  V30 3467 H 332.793 -3.58522 -1.49648 0
M  V30 3468 H 334.465 -4.51586 0.941682 0
M  V30 3469 H 332.708 -4.23194 0.953375 0
M  V30 3470 H 333.379 -5.51976 -0.0519883 0
M  V30 3471 H 335.855 -3.98075 -1.21143 0
M  V30 3472 H 334.731 -5.1047 -2.01771 0
M  V30 3473 H 334.992 -3.50494 -2.69456 0
M  V30 3474 N 334.051 0.0651679 -1.57465 0
M  V30 3475 C 335.299 0.761555 -1.87202 0
M  V30 3476 C 335.62 1.77778 -0.801243 0
M  V30 3477 O 334.89 1.95166 0.16937 0
M  V30 3478 H 333.47 0.284251 -0.690804 0
M  V30 3479 H 336.132 0.0396827 -1.9486 0
M  V30 3480 H 335.228 1.27365 -2.84929 0
M  V30 3481 N 335.529 1.53961 0.336706 0
M  V30 3482 C 336.476 1.82428 1.41381 0
M  V30 3483 C 337.446 0.670444 1.51968 0
M  V30 3484 O 338.631 0.915565 1.67398 0
M  V30 3485 C 335.771 2.04564 2.77934 0
M  V30 3486 C 334.884 3.32267 2.76084 0
M  V30 3487 C 334.019 3.44434 4.04399 0
M  V30 3488 C 333.058 4.66061 3.96804 0
M  V30 3489 N 332.195 4.75224 5.16823 0
M  V30 3490 H 337.035 2.74324 1.16405 0
M  V30 3491 H 334.572 1.35869 0.563752 0
M  V30 3492 H 336.53 2.15388 3.57301 0
M  V30 3493 H 335.16 1.15974 3.01247 0
M  V30 3494 H 334.212 3.3025 1.88784 0
M  V30 3495 H 335.524 4.21733 2.66351 0
M  V30 3496 H 334.678 3.54728 4.92192 0
M  V30 3497 H 333.417 2.53037 4.16921 0
M  V30 3498 H 332.422 4.55838 3.07396 0
M  V30 3499 H 333.647 5.58829 3.85858 0
M  V30 3500 H 331.593 3.86739 5.29876 0
M  V30 3501 H 331.51 5.58636 5.09374 0
M  V30 3502 H 332.778 4.89835 6.06367 0
M  V30 3503 N 337.007 -0.598083 1.45811 0
M  V30 3504 C 338.237 -1.38121 1.53643 0
M  V30 3505 C 338.645 -1.88425 0.171081 0
M  V30 3506 O 337.988 -1.63409 -0.839237 0
M  V30 3507 C 338.05 -2.61432 2.46766 0
M  V30 3508 C 337.714 -2.32702 3.93318 0
M  V30 3509 C 338.711 -1.92479 4.82957 0
M  V30 3510 C 336.396 -2.45321 4.38318 0
M  V30 3511 C 338.39 -1.65248 6.15607 0
M  V30 3512 C 336.077 -2.17703 5.71007 0
M  V30 3513 C 337.075 -1.7773 6.5947 0
M  V30 3514 O 336.763 -1.50441 7.89698 0
M  V30 3515 H 336.495 -0.428863 0.522544 0
M  V30 3516 H 339.049 -0.73557 1.91777 0
M  V30 3517 H 337.279 -3.28749 2.0362 0
M  V30 3518 H 338.968 -3.23487 2.45175 0
M  V30 3519 H 339.734 -1.82258 4.49452 0
M  V30 3520 H 335.613 -2.75399 3.69697 0
M  V30 3521 H 339.157 -1.33973 6.84614 0
M  V30 3522 H 335.054 -2.27544 6.04065 0
M  V30 3523 H 335.822 -1.64415 8.01817 0
M  V30 3524 N 338.485 -1.33259 -0.841409 0
M  V30 3525 C 339.418 -1.1764 -1.95541 0
M  V30 3526 C 340.396 -0.072501 -1.62438 0
M  V30 3527 O 341.58 -0.23427 -1.87039 0
M  V30 3528 C 338.707 -0.803794 -3.29024 0
M  V30 3529 C 337.753 -1.91482 -3.81099 0
M  V30 3530 S 338.586 -3.52538 -4.03085 0
M  V30 3531 C 339.742 -3.17279 -5.39523 0
M  V30 3532 H 339.975 -2.11941 -2.08491 0
M  V30 3533 H 337.508 -1.18072 -0.9949 0
M  V30 3534 H 339.466 -0.595592 -4.06156 0
M  V30 3535 H 338.127 0.120574 -3.13868 0
M  V30 3536 H 337.32 -1.60742 -4.7768 0
M  V30 3537 H 336.922 -2.07956 -3.10854 0
M  V30 3538 H 339.214 -2.67946 -6.22263 0
M  V30 3539 H 340.157 -4.1293 -5.75234 0
M  V30 3540 H 340.565 -2.53943 -5.04156 0
M  V30 3541 N 339.963 1.05934 -1.16686 0
M  V30 3542 C 340.913 2.11764 -0.844978 0
M  V30 3543 C 341.897 1.59922 0.177178 0
M  V30 3544 O 343.089 1.76983 -0.0241768 0
M  V30 3545 C 340.218 3.41493 -0.351812 0
M  V30 3546 C 339.304 4.00152 -1.40496 0
M  V30 3547 N 339.695 4.32874 -2.61636 0
M  V30 3548 C 337.993 4.278 -1.26106 0
M  V30 3549 C 338.694 4.79552 -3.29249 0
M  V30 3550 N 337.67 4.79211 -2.56628 0
M  V30 3551 H 341.472 2.34916 -1.76612 0
M  V30 3552 H 338.986 1.23511 -1.05446 0
M  V30 3553 H 340.983 4.16773 -0.102796 0
M  V30 3554 H 339.643 3.19778 0.56322 0
M  V30 3555 H 340.654 4.23109 -2.98663 0
M  V30 3556 H 337.331 4.15511 -0.407081 0
M  V30 3557 H 338.721 5.14045 -4.32675 0
M  V30 3558 N 341.441 0.965919 1.2453 0
M  V30 3559 C 342.373 0.452465 2.2469 0
M  V30 3560 C 343.386 -0.437821 1.56802 0
M  V30 3561 O 344.575 -0.244283 1.76821 0
M  V30 3562 C 341.675 -0.366258 3.36915 0
M  V30 3563 C 340.848 0.513701 4.34373 0
M  V30 3564 C 339.907 -0.248716 5.25612 0
M  V30 3565 O 338.933 0.356745 5.68081 0
M  V30 3566 N 340.135 -1.53877 5.59734 0
M  V30 3567 H 342.9 1.31361 2.69378 0
M  V30 3568 H 340.461 0.837541 1.38553 0
M  V30 3569 H 342.453 -0.884297 3.94921 0
M  V30 3570 H 341.023 -1.12832 2.91526 0
M  V30 3571 H 340.243 1.21273 3.75082 0
M  V30 3572 H 341.531 1.11391 4.96457 0
M  V30 3573 H 340.929 -2.05243 5.27154 0
M  V30 3574 H 339.486 -2.00254 6.20275 0
M  V30 3575 N 342.919 -1.39368 0.735821 0
M  V30 3576 C 343.869 -2.27885 0.0724287 0
M  V30 3577 C 344.853 -1.44301 -0.711756 0
M  V30 3578 O 346.045 -1.67206 -0.58063 0
M  V30 3579 C 343.174 -3.33029 -0.833454 0
M  V30 3580 C 342.26 -4.24078 -0.0433749 0
M  V30 3581 N 342.651 -4.96138 0.983903 0
M  V30 3582 C 340.949 -4.45164 -0.272905 0
M  V30 3583 C 341.65 -5.63069 1.4604 0
M  V30 3584 N 340.626 -5.37991 0.778857 0
M  V30 3585 H 344.428 -2.81052 0.859467 0
M  V30 3586 H 341.942 -1.5206 0.570227 0
M  V30 3587 H 343.939 -3.95311 -1.32419 0
M  V30 3588 H 342.599 -2.81421 -1.61964 0
M  V30 3589 H 343.61 -4.9958 1.36528 0
M  V30 3590 H 340.287 -4.04497 -1.03383 0
M  V30 3591 H 341.677 -6.30755 2.31511 0
M  V30 3592 N 344.397 -0.483516 -1.5 0
M  V30 3593 C 345.327 0.293829 -2.31644 0
M  V30 3594 C 346.308 0.978864 -1.39112 0
M  V30 3595 O 347.493 0.973644 -1.68029 0
M  V30 3596 C 344.623 1.36897 -3.19181 0
M  V30 3597 C 343.577 0.804833 -4.20365 0
M  V30 3598 C 342.903 1.9792 -4.96721 0
M  V30 3599 C 344.203 -0.192313 -5.21946 0
M  V30 3600 H 345.897 -0.387616 -2.9688 0
M  V30 3601 H 343.443 -0.187856 -1.42769 0
M  V30 3602 H 345.396 1.92037 -3.751 0
M  V30 3603 H 344.12 2.07936 -2.51853 0
M  V30 3604 H 342.779 0.275319 -3.65565 0
M  V30 3605 H 342.427 2.67686 -4.25856 0
M  V30 3606 H 342.127 1.60789 -5.65173 0
M  V30 3607 H 343.651 2.53526 -5.55479 0
M  V30 3608 H 345.065 0.270333 -5.72662 0
M  V30 3609 H 343.462 -0.478543 -5.98189 0
M  V30 3610 H 344.532 -1.11409 -4.71928 0
M  V30 3611 N 345.875 1.56104 -0.216619 0
M  V30 3612 C 347.286 1.844 0.292128 0
M  V30 3613 C 347.637 1.13788 1.59833 0
M  V30 3614 O 346.762 0.405888 2.12559 0
M  V30 3615 C 347.357 3.3452 0.53681 0
M  V30 3616 C 345.916 3.63151 0.989876 0
M  V30 3617 C 345.063 2.77255 0.0502302 0
M  V30 3618 H 348.014 1.52481 -0.439926 0
M  V30 3619 H 348.035 3.54459 1.38345 0
M  V30 3620 H 347.547 3.85885 -0.414031 0
M  V30 3621 H 345.648 3.17238 1.95425 0
M  V30 3622 H 345.761 4.71177 0.867698 0
M  V30 3623 H 344.125 2.48555 0.556117 0
M  V30 3624 H 344.908 3.31416 -0.89544 0
M  V30 3625 N 347.353 -0.0568162 1.57498 0
M  V30 3626 C 348.583 -0.764515 1.91934 0
M  V30 3627 C 348.991 -1.70877 0.81227 0
M  V30 3628 O 348.334 -1.82351 -0.222213 0
M  V30 3629 C 348.396 -1.5994 3.21962 0
M  V30 3630 C 348.06 -0.822925 4.4953 0
M  V30 3631 C 349.057 -0.135464 5.19723 0
M  V30 3632 C 346.742 -0.785666 4.96117 0
M  V30 3633 C 348.736 0.578861 6.34766 0
M  V30 3634 C 346.423 -0.0675784 6.11063 0
M  V30 3635 C 347.421 0.613471 6.80239 0
M  V30 3636 O 347.109 1.31996 7.92989 0
M  V30 3637 H 346.841 -0.221647 0.63863 0
M  V30 3638 H 349.395 -0.0268218 2.05382 0
M  V30 3639 H 347.625 -2.38026 3.04763 0
M  V30 3640 H 349.314 -2.18715 3.41934 0
M  V30 3641 H 350.08 -0.155458 4.84751 0
M  V30 3642 H 345.959 -1.30524 4.42136 0
M  V30 3643 H 349.503 1.111 6.88696 0
M  V30 3644 H 345.4 -0.0455636 6.45484 0
M  V30 3645 H 346.168 1.23077 8.09194 0
M  V30 3646 N 348.832 -1.54138 -0.328536 0
M  V30 3647 C 350.057 -1.76378 -1.09112 0
M  V30 3648 C 350.482 -0.508596 -1.81094 0
M  V30 3649 O 349.84 0.539598 -1.73084 0
M  V30 3650 C 349.888 -2.95358 -2.06872 0
M  V30 3651 O 348.992 -2.66556 -3.14677 0
M  V30 3652 H 348.333 -0.584614 -0.314838 0
M  V30 3653 H 350.863 -2.01146 -0.374348 0
M  V30 3654 H 350.873 -3.22566 -2.4983 0
M  V30 3655 H 349.548 -3.86385 -1.5388 0
M  V30 3656 H 348.125 -2.50282 -2.7643 0
M  V30 3657 N 350.31 0.590341 -1.46126 0
M  V30 3658 C 351.535 1.37991 -1.54833 0
M  V30 3659 C 351.96 1.87163 -0.187506 0
M  V30 3660 O 351.318 1.61133 0.831008 0
M  V30 3661 C 351.366 2.54867 -2.55098 0
M  V30 3662 O 350.47 3.56061 -2.08073 0
M  V30 3663 H 349.811 0.411265 -0.521303 0
M  V30 3664 H 352.341 0.716819 -1.91632 0
M  V30 3665 H 352.351 3.01886 -2.74461 0
M  V30 3666 H 351.026 2.18429 -3.53923 0
M  V30 3667 H 349.603 3.15574 -1.98664 0
M  V30 3668 N 351.788 1.33704 0.83433 0
M  V30 3669 C 352.718 1.26967 1.95963 0
M  V30 3670 C 353.699 0.149337 1.69443 0
M  V30 3671 O 354.884 0.339852 1.91203 0
M  V30 3672 C 352.014 1.01275 3.32206 0
M  V30 3673 C 350.968 2.09652 3.73136 0
M  V30 3674 C 350.294 1.69166 5.07235 0
M  V30 3675 C 351.594 3.51372 3.86439 0
M  V30 3676 H 353.288 2.2112 2.01857 0
M  V30 3677 H 350.834 1.06447 0.969793 0
M  V30 3678 H 352.787 0.952106 4.10503 0
M  V30 3679 H 351.511 0.0356203 3.26581 0
M  V30 3680 H 350.17 2.14766 2.97104 0
M  V30 3681 H 349.818 0.701437 4.98085 0
M  V30 3682 H 349.518 2.41694 5.35591 0
M  V30 3683 H 351.042 1.64576 5.88003 0
M  V30 3684 H 352.456 3.48734 4.55036 0
M  V30 3685 H 350.853 4.22425 4.26236 0
M  V30 3686 H 351.923 3.89546 2.88759 0
M  V30 3687 N 353.266 -1.05314 1.17247 0
M  V30 3688 C 354.213 -2.13031 0.888058 0
M  V30 3689 C 355.183 -1.65253 -0.167537 0
M  V30 3690 O 356.368 -1.90775 -0.0305974 0
M  V30 3691 C 353.508 -3.42702 0.406147 0
M  V30 3692 C 352.621 -4.04161 1.52572 0
M  V30 3693 C 351.756 -5.21744 0.997808 0
M  V30 3694 C 350.795 -5.75207 2.09291 0
M  V30 3695 N 349.932 -6.84094 1.57986 0
M  V30 3696 H 354.772 -2.36698 1.81048 0
M  V30 3697 H 352.309 -1.16121 0.903013 0
M  V30 3698 H 354.267 -4.17059 0.108305 0
M  V30 3699 H 352.897 -3.19222 -0.479313 0
M  V30 3700 H 351.949 -3.27253 1.93931 0
M  V30 3701 H 353.261 -4.39881 2.35172 0
M  V30 3702 H 352.415 -6.03168 0.653739 0
M  V30 3703 H 351.154 -4.87495 0.141232 0
M  V30 3704 H 350.159 -4.92414 2.44557 0
M  V30 3705 H 351.384 -6.11505 2.95362 0
M  V30 3706 H 349.33 -6.51745 0.74598 0
M  V30 3707 H 349.247 -7.18811 2.34195 0
M  V30 3708 H 350.515 -7.69172 1.26468 0
M  V30 3709 N 354.744 -0.972509 -1.24016 0
M  V30 3710 C 355.676 -0.464375 -2.24446 0
M  V30 3711 C 356.689 0.4295 -1.57032 0
M  V30 3712 O 357.878 0.234902 -1.76948 0
M  V30 3713 C 354.978 0.348385 -3.37105 0
M  V30 3714 C 354.151 -0.53673 -4.34094 0
M  V30 3715 C 353.21 0.220838 -5.25736 0
M  V30 3716 O 352.236 -0.386867 -5.67884 0
M  V30 3717 N 353.438 1.50907 -5.60542 0
M  V30 3718 H 356.203 -1.32788 -2.68677 0
M  V30 3719 H 353.764 -0.844877 -1.38107 0
M  V30 3720 H 355.756 0.863341 -3.95384 0
M  V30 3721 H 354.326 1.11285 -2.92121 0
M  V30 3722 H 353.546 -1.23261 -3.74433 0
M  V30 3723 H 354.834 -1.14022 -4.95859 0
M  V30 3724 H 354.232 2.02444 -5.28236 0
M  V30 3725 H 352.789 1.96962 -6.21329 0
M  V30 3726 N 356.222 1.38976 -0.743202 0
M  V30 3727 C 357.155 2.28128 -0.0572165 0
M  V30 3728 C 358.133 1.44827 0.739182 0
M  V30 3729 O 359.317 1.74207 0.720009 0
M  V30 3730 C 356.444 3.25796 0.926001 0
M  V30 3731 C 355.49 4.25947 0.217099 0
M  V30 3732 S 356.323 5.24604 -1.07477 0
M  V30 3733 C 357.479 6.25829 -0.0943545 0
M  V30 3734 H 357.712 2.85961 -0.813246 0
M  V30 3735 H 355.245 1.44822 -0.535341 0
M  V30 3736 H 357.203 3.82583 1.48797 0
M  V30 3737 H 355.864 2.66966 1.65493 0
M  V30 3738 H 355.057 4.94746 0.961372 0
M  V30 3739 H 354.659 3.73002 -0.273059 0
M  V30 3740 H 356.951 6.73411 0.743239 0
M  V30 3741 H 357.894 7.0412 -0.749713 0
M  V30 3742 H 358.302 5.63797 0.281706 0
M  V30 3743 N 357.7 0.491464 1.49741 0
M  V30 3744 C 358.61 -0.296835 2.32715 0
M  V30 3745 C 359.626 -0.976536 1.44013 0
M  V30 3746 O 360.802 -0.960023 1.77047 0
M  V30 3747 C 357.867 -1.35288 3.19215 0
M  V30 3748 C 356.928 -0.687632 4.23757 0
M  V30 3749 C 356.161 -1.69336 5.06123 0
M  V30 3750 O 356.384 -2.92219 4.89861 0
M  V30 3751 O 355.318 -1.25394 5.88693 0
M  V30 3752 H 359.144 0.382048 3.01287 0
M  V30 3753 H 356.729 0.252953 1.47243 0
M  V30 3754 H 358.611 -1.96411 3.72828 0
M  V30 3755 H 357.286 -2.01487 2.53347 0
M  V30 3756 H 356.193 -0.0369159 3.74082 0
M  V30 3757 H 357.526 -0.0682566 4.92153 0
M  V30 3758 N 359.178 -1.55987 0.224894 0
M  V30 3759 C 360.141 -2.19178 -0.670348 0
M  V30 3760 C 361.141 -1.15461 -1.11917 0
M  V30 3761 O 362.331 -1.40675 -1.02743 0
M  V30 3762 C 359.463 -2.81777 -1.9187 0
M  V30 3763 H 360.656 -2.99662 -0.119364 0
M  V30 3764 H 358.209 -1.5628 -0.0247128 0
M  V30 3765 H 358.944 -2.05172 -2.51147 0
M  V30 3766 H 358.729 -3.57732 -1.60531 0
M  V30 3767 H 360.219 -3.30205 -2.55645 0
M  V30 3768 N 360.656 0.0484629 -1.57525 0
M  V30 3769 C 362.072 0.40375 -1.54409 0
M  V30 3770 C 362.272 1.77786 -0.948384 0
M  V30 3771 O 361.328 2.46189 -0.560983 0
M  V30 3772 C 362.641 0.323394 -2.98956 0
M  V30 3773 C 364.189 0.401892 -3.10409 0
M  V30 3774 C 364.664 0.351195 -4.56652 0
M  V30 3775 N 366.155 0.410576 -4.61377 0
M  V30 3776 C 366.89 0.393933 -5.72045 0
M  V30 3777 N 366.386 0.330724 -6.9201 0
M  V30 3778 N 368.179 0.442227 -5.60358 0
M  V30 3779 H 360.33 -0.851016 -1.94606 0
M  V30 3780 H 362.593 -0.321721 -0.89174 0
M  V30 3781 H 362.299 -0.62011 -3.4619 0
M  V30 3782 H 362.173 1.12463 -3.60044 0
M  V30 3783 H 364.56 1.33582 -2.63134 0
M  V30 3784 H 364.641 -0.428342 -2.52188 0
M  V30 3785 H 364.285 -0.578987 -5.04589 0
M  V30 3786 H 364.215 1.19928 -5.12762 0
M  V30 3787 H 366.706 0.462729 -3.75056 0
M  V30 3788 H 367.019 0.322592 -7.72126 0
M  V30 3789 H 365.364 0.29706 -6.94365 0
M  V30 3790 H 368.555 0.489464 -4.65534 0
M  V30 3791 H 368.728 0.425788 -6.466 0
M  V30 3792 N 362.134 1.5431 0.320358 0
M  V30 3793 C 363.382 1.72327 1.05583 0
M  V30 3794 C 363.703 0.50149 1.88441 0
M  V30 3795 O 362.973 -0.48448 1.89815 0
M  V30 3796 H 361.553 0.635387 0.3928 0
M  V30 3797 H 364.215 1.91621 0.356019 0
M  V30 3798 H 363.311 2.60426 1.72003 0
M  V30 3799 N 363.613 -0.582584 1.46437 0
M  V30 3800 C 364.563 -1.68654 1.53426 0
M  V30 3801 C 365.547 -1.55971 0.395194 0
M  V30 3802 O 366.739 -1.64884 0.643612 0
M  V30 3803 C 363.868 -3.07439 1.52762 0
M  V30 3804 C 362.954 -3.25418 2.71963 0
M  V30 3805 N 363.345 -3.13556 3.96883 0
M  V30 3806 C 361.643 -3.56357 2.68189 0
M  V30 3807 C 362.344 -3.33543 4.76575 0
M  V30 3808 N 361.32 -3.58704 4.08451 0
M  V30 3809 H 365.122 -1.58014 2.47808 0
M  V30 3810 H 362.636 -0.786617 1.42078 0
M  V30 3811 H 364.633 -3.86671 1.55857 0
M  V30 3812 H 363.293 -3.1921 0.594573 0
M  V30 3813 H 364.304 -2.9142 4.28129 0
M  V30 3814 H 360.981 -3.74812 1.83908 0
M  V30 3815 H 362.371 -3.29555 5.85528 0
M  V30 3816 N 365.091 -1.34144 -0.827227 0
M  V30 3817 C 366.331 -1.27603 -1.59677 0
M  V30 3818 C 366.695 0.153035 -1.91389 0
M  V30 3819 O 367.896 0.342566 -2.66608 0
M  V30 3820 C 366.167 -2.13784 -2.86411 0
M  V30 3821 S 367.726 -2.24552 -3.76991 0
M  V30 3822 H 364.544 -0.453789 -0.547354 0
M  V30 3823 H 367.146 -1.69309 -0.977479 0
M  V30 3824 H 365.85 -3.16627 -2.61104 0
M  V30 3825 H 365.381 -1.72959 -3.5334 0
M  V30 3826 H 367.396 -1.41514 -4.75593 0
M  V30 3827 N 366.569 1.04691 -1.17803 0
M  V30 3828 C 367.98 1.59238 -0.974689 0
M  V30 3829 C 368.331 1.90306 0.477292 0
M  V30 3830 O 367.456 1.68846 1.35352 0
M  V30 3831 C 368.051 2.89318 -1.76296 0
M  V30 3832 C 366.61 3.40506 -1.60414 0
M  V30 3833 C 365.757 2.14172 -1.76141 0
M  V30 3834 H 368.708 0.874395 -1.32439 0
M  V30 3835 H 368.729 3.5944 -1.24833 0
M  V30 3836 H 368.241 2.66675 -2.81968 0
M  V30 3837 H 366.342 3.68175 -0.572519 0
M  V30 3838 H 366.455 4.14753 -2.39827 0
M  V30 3839 H 364.819 2.25176 -1.19028 0
M  V30 3840 H 365.602 1.93992 -2.83235 0
M  V30 3841 N 368.047 0.979072 1.23499 0
M  V30 3842 C 368.997 0.489378 2.22686 0
M  V30 3843 C 369.981 -0.434871 1.54912 0
M  V30 3844 O 371.173 -0.263941 1.75021 0
M  V30 3845 C 368.302 -0.208178 3.42668 0
M  V30 3846 C 367.388 0.735563 4.17672 0
M  V30 3847 N 367.779 1.87763 4.69658 0
M  V30 3848 C 366.077 0.548625 4.42613 0
M  V30 3849 C 366.778 2.46886 5.26709 0
M  V30 3850 N 365.754 1.75287 5.14563 0
M  V30 3851 H 369.556 1.36062 2.60508 0
M  V30 3852 H 367.07 0.83958 1.39014 0
M  V30 3853 H 369.067 -0.576295 4.12898 0
M  V30 3854 H 367.727 -1.07572 3.06363 0
M  V30 3855 H 368.738 2.25885 4.66043 0
M  V30 3856 H 365.415 -0.274006 4.166 0
M  V30 3857 H 366.805 3.43326 5.77561 0
M  V30 3858 N 369.525 -1.3858 0.750561 0
M  V30 3859 C 370.458 -2.28095 0.0693139 0
M  V30 3860 C 371.436 -1.45217 -0.731491 0
M  V30 3861 O 372.62 -1.74587 -0.71076 0
M  V30 3862 C 369.747 -3.26282 -0.90871 0
M  V30 3863 C 368.793 -4.26056 -0.194507 0
M  V30 3864 S 369.626 -5.24026 1.10257 0
M  V30 3865 C 370.782 -6.2577 0.127542 0
M  V30 3866 H 371.015 -2.85526 0.8284 0
M  V30 3867 H 368.548 -1.44536 0.543014 0
M  V30 3868 H 370.506 -3.83367 -1.46766 0
M  V30 3869 H 369.167 -2.6784 -1.64075 0
M  V30 3870 H 368.36 -4.95249 -0.93512 0
M  V30 3871 H 367.962 -3.72852 0.292837 0
M  V30 3872 H 370.254 -6.73796 -0.707516 0
M  V30 3873 H 371.197 -7.03712 0.787044 0
M  V30 3874 H 371.605 -5.63938 -0.251803 0
M  V30 3875 N 371.003 -0.499398 -1.49478 0
M  V30 3876 C 372.228 0.044722 -2.07352 0
M  V30 3877 C 372.653 1.30207 -1.35749 0
M  V30 3878 O 372.011 1.76516 -0.413732 0
M  V30 3879 C 372.059 0.283013 -3.59488 0
M  V30 3880 O 371.163 1.35804 -3.89398 0
M  V30 3881 H 370.504 -0.0255147 -0.66351 0
M  V30 3882 H 373.034 -0.698561 -1.92305 0
M  V30 3883 H 373.044 0.515007 -4.04737 0
M  V30 3884 H 371.719 -0.635636 -4.11014 0
M  V30 3885 H 370.296 1.11113 -3.55961 0
M  V30 3886 N 372.481 1.55866 -0.233164 0
M  V30 3887 C 373.431 2.17442 0.685774 0
M  V30 3888 C 374.415 1.12617 1.14918 0
M  V30 3889 O 375.607 1.3857 1.10124 0
M  V30 3890 C 372.736 2.86685 1.88856 0
M  V30 3891 C 371.822 3.98749 1.4443 0
M  V30 3892 N 372.213 5.00744 0.713364 0
M  V30 3893 C 370.511 4.11052 1.73068 0
M  V30 3894 C 371.212 5.79673 0.485205 0
M  V30 3895 N 370.188 5.33454 1.04536 0
M  V30 3896 H 373.99 2.93659 0.119022 0
M  V30 3897 H 371.504 1.62362 -0.0348995 0
M  V30 3898 H 373.501 3.29218 2.55776 0
M  V30 3899 H 372.161 2.11967 2.45967 0
M  V30 3900 H 373.172 5.16613 0.364861 0
M  V30 3901 H 369.849 3.47495 2.31416 0
M  V30 3902 H 371.239 6.71829 -0.097365 0
M  V30 3903 N 373.959 -0.0401083 1.57549 0
M  V30 3904 C 375.37 -0.588097 1.77196 0
M  V30 3905 C 375.721 -1.76209 0.862832 0
M  V30 3906 O 374.846 -2.16331 0.0548389 0
M  V30 3907 C 375.441 -1.07363 3.21339 0
M  V30 3908 C 374 -1.56723 3.42221 0
M  V30 3909 C 373.147 -0.50041 2.72747 0
M  V30 3910 H 376.098 0.186119 1.57605 0
M  V30 3911 H 376.119 -1.94143 3.27244 0
M  V30 3912 H 375.631 -0.218975 3.87482 0
M  V30 3913 H 373.732 -2.4441 2.81237 0
M  V30 3914 H 373.845 -1.62234 4.50796 0
M  V30 3915 H 372.209 -0.952894 2.36203 0
M  V30 3916 H 372.992 0.344599 3.41566 0
M  V30 3917 N 375.437 -1.54477 -0.31217 0
M  V30 3918 C 376.714 -1.63891 -1.06767 0
M  V30 3919 C 377.094 -0.480028 -2.0557 0
M  V30 3920 O 376.442 0.524487 -2.22399 0
M  V30 3921 C 376.652 -3.01402 -1.75948 0
M  V30 3922 C 378 -3.57838 -2.28554 0
M  V30 3923 O 379.024 -3.03782 -1.85998 0
M  V30 3924 O 377.883 -4.52462 -3.06497 0
M  V30 3925 H 374.977 -0.664125 -0.492816 0
M  V30 3926 H 377.523 -1.66823 -0.311149 0
M  V30 3927 H 376.295 -3.77187 -1.04144 0
M  V30 3928 H 375.918 -3.02199 -2.58383 0
M  V30 3929 N 376.915 0.57481 -1.46744 0
M  V30 3930 C 377.825 1.711 -1.60505 0
M  V30 3931 C 378.841 1.67008 -0.488307 0
M  V30 3932 O 380.017 1.86774 -0.753495 0
M  V30 3933 C 377.082 3.07608 -1.59932 0
M  V30 3934 C 376.143 3.22904 -2.82898 0
M  V30 3935 C 375.376 4.529 -2.82343 0
M  V30 3936 O 375.599 5.37278 -1.91542 0
M  V30 3937 O 374.533 4.71611 -3.73987 0
M  V30 3938 H 378.359 1.62436 -2.56609 0
M  V30 3939 H 375.944 0.742779 -1.29627 0
M  V30 3940 H 377.826 3.88877 -1.62336 0
M  V30 3941 H 376.501 3.16692 -0.669898 0
M  V30 3942 H 375.408 2.41099 -2.86046 0
M  V30 3943 H 376.741 3.18715 -3.75076 0
M  V30 3944 N 378.394 1.34581 0.820102 0
M  V30 3945 C 379.622 1.3018 1.60813 0
M  V30 3946 C 380.037 -0.123551 1.88395 0
M  V30 3947 O 379.394 -1.07148 1.47735 0
M  V30 3948 C 379.445 2.09312 2.94739 0
M  V30 3949 O 379.166 3.46288 2.68358 0
M  V30 3950 C 380.667 2.1234 3.89136 0
M  V30 3951 H 377.887 0.447726 0.499782 0
M  V30 3952 H 380.431 1.77237 1.02017 0
M  V30 3953 H 378.586 1.65889 3.50085 0
M  V30 3954 H 379 3.87227 3.53774 0
M  V30 3955 H 380.474 2.72126 4.80262 0
M  V30 3956 H 380.951 1.11854 4.24718 0
M  V30 3957 H 381.557 2.55864 3.39726 0
M  V30 3958 N 379.872 -1.04064 1.18357 0
M  V30 3959 C 381.121 -1.76662 0.973313 0
M  V30 3960 C 381.434 -1.89154 -0.497991 0
M  V30 3961 O 382.64 -2.58606 -0.826762 0
M  V30 3962 C 381.096 -3.17624 1.69242 0
M  V30 3963 C 380.704 -3.13225 3.20303 0
M  V30 3964 C 382.448 -3.946 1.56497 0
M  V30 3965 C 380.355 -4.49046 3.84853 0
M  V30 3966 H 379.285 -0.662214 0.36054 0
M  V30 3967 H 381.936 -1.16553 1.41731 0
M  V30 3968 H 380.318 -3.78129 1.1762 0
M  V30 3969 H 381.492 -2.62172 3.78949 0
M  V30 3970 H 379.807 -2.49749 3.33189 0
M  V30 3971 H 382.404 -4.95042 2.02084 0
M  V30 3972 H 382.747 -4.13074 0.517243 0
M  V30 3973 H 383.28 -3.4067 2.05399 0
M  V30 3974 H 380.019 -4.35777 4.89672 0
M  V30 3975 H 379.539 -5.00203 3.30994 0
M  V30 3976 H 381.218 -5.17961 3.87718 0
M  V30 3977 N 381.35 -0.985608 -1.22978 0
M  V30 3978 C 382.282 -0.488154 -2.23941 0
M  V30 3979 C 383.295 0.41282 -1.57479 0
M  V30 3980 O 384.484 0.216121 -1.77187 0
M  V30 3981 C 381.584 0.312611 -3.37455 0
M  V30 3982 C 380.757 -0.582741 -4.33501 0
M  V30 3983 C 379.816 0.165064 -5.25941 0
M  V30 3984 O 378.842 -0.447077 -5.67442 0
M  V30 3985 N 380.044 1.44953 -5.62111 0
M  V30 3986 H 382.809 -1.3563 -2.67254 0
M  V30 3987 H 380.37 -0.859477 -1.37203 0
M  V30 3988 H 382.362 0.821357 -3.96277 0
M  V30 3989 H 380.932 1.0818 -2.93285 0
M  V30 3990 H 380.152 -1.27225 -3.73105 0
M  V30 3991 H 381.44 -1.19275 -4.94622 0
M  V30 3992 H 380.838 1.9683 -5.30353 0
M  V30 3993 H 379.395 1.90361 -6.23383 0
M  V30 3994 N 382.828 1.3818 -0.7579 0
M  V30 3995 C 383.758 2.33027 -0.148597 0
M  V30 3996 C 384.739 1.55085 0.69875 0
M  V30 3997 O 385.924 1.83384 0.639053 0
M  V30 3998 C 383.054 3.3928 0.742034 0
M  V30 3999 C 382.008 4.28 -0.00291946 0
M  V30 4000 C 381.334 5.25146 1.00625 0
M  V30 4001 C 382.634 5.08938 -1.17385 0
M  V30 4002 H 384.328 2.84231 -0.940909 0
M  V30 4003 H 381.874 1.36659 -0.453908 0
M  V30 4004 H 383.827 4.046 1.17799 0
M  V30 4005 H 382.551 2.86569 1.56671 0
M  V30 4006 H 381.21 3.64192 -0.419504 0
M  V30 4007 H 380.858 4.68721 1.8251 0
M  V30 4008 H 380.558 5.85361 0.512428 0
M  V30 4009 H 382.082 5.93342 1.44143 0
M  V30 4010 H 383.496 5.67474 -0.815224 0
M  V30 4011 H 381.893 5.7841 -1.59882 0
M  V30 4012 H 382.963 4.42424 -1.98468 0
M  V30 4013 N 384.306 0.507319 1.49211 0
M  V30 4014 C 385.555 -0.0368315 2.01666 0
M  V30 4015 C 385.868 -1.37459 1.39156 0
M  V30 4016 O 387.074 -2.00579 1.82976 0
M  V30 4017 C 385.53 -0.116089 3.59713 0
M  V30 4018 C 385.138 1.2154 4.31198 0
M  V30 4019 C 386.882 -0.610268 4.2009 0
M  V30 4020 C 384.789 1.09796 5.81119 0
M  V30 4021 H 383.719 -0.0175376 0.753796 0
M  V30 4022 H 386.37 0.647691 1.71689 0
M  V30 4023 H 384.752 -0.8652 3.86433 0
M  V30 4024 H 385.926 1.9783 4.16173 0
M  V30 4025 H 384.241 1.64352 3.82593 0
M  V30 4026 H 386.838 -0.715742 5.29888 0
M  V30 4027 H 387.181 -1.61064 3.8388 0
M  V30 4028 H 387.714 0.0824916 3.97714 0
M  V30 4029 H 384.453 2.0728 6.21864 0
M  V30 4030 H 383.973 0.376058 5.9862 0
M  V30 4031 H 385.652 0.779281 6.4229 0
M  V30 4032 N 385.784 -1.5574 0.241426 0
M  V30 4033 C 387.032 -1.98417 -0.384075 0
M  V30 4034 C 387.353 -1.13078 -1.58866 0
M  V30 4035 O 386.623 -0.212312 -1.94746 0
M  V30 4036 H 385.203 -0.732813 -0.144894 0
M  V30 4037 H 387.865 -1.9193 0.338943 0
M  V30 4038 H 386.961 -3.04219 -0.696939 0
M  V30 4039 N 387.262 0.0317525 -1.57568 0
M  V30 4040 C 388.539 0.758366 -1.803 0
M  V30 4041 C 388.919 1.93718 -0.838845 0
M  V30 4042 O 388.267 2.28187 0.119571 0
M  V30 4043 C 388.477 1.19392 -3.27943 0
M  V30 4044 C 389.825 1.61094 -3.92854 0
M  V30 4045 O 390.849 1.28857 -3.32076 0
M  V30 4046 O 389.708 2.20918 -4.99858 0
M  V30 4047 H 386.802 0.366514 -0.741348 0
M  V30 4048 H 389.348 0.00873765 -1.69698 0
M  V30 4049 H 388.12 0.352275 -3.89711 0
M  V30 4050 H 387.743 2.00365 -3.43424 0
M  V30 4051 N 388.74 1.54641 0.303973 0
M  V30 4052 C 389.97 1.77511 1.05705 0
M  V30 4053 C 390.378 0.533228 1.81531 0
M  V30 4054 O 389.721 -0.506423 1.76582 0
M  V30 4055 C 389.783 2.92779 2.08617 0
M  V30 4056 C 389.447 4.30977 1.52013 0
M  V30 4057 C 390.444 5.11115 0.9517 0
M  V30 4058 C 388.129 4.77571 1.55665 0
M  V30 4059 C 390.123 6.35966 0.427327 0
M  V30 4060 C 387.81 6.02384 1.02841 0
M  V30 4061 C 388.808 6.81417 0.464713 0
M  V30 4062 O 388.496 8.03881 -0.0555283 0
M  V30 4063 H 388.228 0.59579 0.319391 0
M  V30 4064 H 390.782 2.02401 0.349712 0
M  V30 4065 H 389.012 2.63506 2.83022 0
M  V30 4066 H 390.701 3.03252 2.69802 0
M  V30 4067 H 391.467 4.76264 0.916407 0
M  V30 4068 H 387.346 4.16085 1.9848 0
M  V30 4069 H 390.89 6.97599 -0.0133062 0
M  V30 4070 H 386.787 6.36723 1.06084 0
M  V30 4071 H 387.555 8.18479 0.0580522 0
M  V30 4072 N 390.218 -0.567019 1.47046 0
M  V30 4073 C 391.148 -1.68482 1.61667 0
M  V30 4074 C 392.129 -1.6358 0.466418 0
M  V30 4075 O 393.314 -1.81354 0.694574 0
M  V30 4076 C 390.444 -3.07124 1.62148 0
M  V30 4077 C 389.398 -3.26867 2.76301 0
M  V30 4078 C 388.724 -4.66196 2.61849 0
M  V30 4079 C 390.024 -3.13186 4.17986 0
M  V30 4080 H 391.718 -1.56502 2.5524 0
M  V30 4081 H 389.264 -0.751486 1.22836 0
M  V30 4082 H 391.217 -3.8516 1.70968 0
M  V30 4083 H 389.941 -3.2004 0.651287 0
M  V30 4084 H 388.6 -2.51237 2.66975 0
M  V30 4085 H 388.248 -4.75898 1.62879 0
M  V30 4086 H 387.948 -4.80356 3.38425 0
M  V30 4087 H 389.472 -5.46379 2.72584 0
M  V30 4088 H 390.886 -3.81049 4.2834 0
M  V30 4089 H 389.283 -3.3886 4.95272 0
M  V30 4090 H 390.353 -2.10057 4.3704 0
M  V30 4091 N 391.696 -1.35014 -0.812953 0
M  V30 4092 C 392.643 -1.27412 -1.92444 0
M  V30 4093 C 393.613 -0.14733 -1.65445 0
M  V30 4094 O 394.798 -0.329974 -1.87925 0
M  V30 4095 C 391.938 -1.04558 -3.28879 0
M  V30 4096 C 391.051 -2.26101 -3.68106 0
M  V30 4097 C 390.186 -1.96449 -4.9354 0
M  V30 4098 C 389.225 -3.14081 -5.25376 0
M  V30 4099 N 388.362 -2.84246 -6.41988 0
M  V30 4100 H 393.202 -2.22463 -1.98278 0
M  V30 4101 H 390.739 -1.10593 -0.969933 0
M  V30 4102 H 392.697 -0.893413 -4.07522 0
M  V30 4103 H 391.327 -0.131719 -3.22531 0
M  V30 4104 H 390.379 -2.52204 -2.84775 0
M  V30 4105 H 391.691 -3.13959 -3.87597 0
M  V30 4106 H 390.845 -1.78026 -5.79993 0
M  V30 4107 H 389.584 -1.05867 -4.76071 0
M  V30 4108 H 388.589 -3.33089 -4.37415 0
M  V30 4109 H 389.814 -4.05455 -5.44778 0
M  V30 4110 H 387.76 -1.96252 -6.25956 0
M  V30 4111 H 387.677 -3.65637 -6.61699 0
M  V30 4112 H 388.945 -2.6935 -7.31485 0
M  V30 4113 N 393.175 1.03435 -1.18907 0
M  V30 4114 C 394.138 2.09756 -0.923844 0
M  V30 4115 C 395.138 1.60528 0.093416 0
M  V30 4116 O 396.328 1.73631 -0.140727 0
M  V30 4117 C 393.46 3.38692 -0.387354 0
M  V30 4118 H 394.653 2.34719 -1.86674 0
M  V30 4119 H 392.206 1.19959 -1.00197 0
M  V30 4120 H 392.941 3.19396 0.561845 0
M  V30 4121 H 392.726 3.75742 -1.12074 0
M  V30 4122 H 394.216 4.17016 -0.220694 0
M  V30 4123 N 394.653 0.992116 1.22453 0
M  V30 4124 C 395.603 0.512969 2.22155 0
M  V30 4125 C 396.587 -0.418416 1.55364 0
M  V30 4126 O 397.779 -0.245363 1.75291 0
M  V30 4127 C 394.908 -0.171822 3.4287 0
M  V30 4128 C 393.994 0.779822 4.16869 0
M  V30 4129 N 394.385 1.92734 4.6764 0
M  V30 4130 C 392.683 0.59554 4.42006 0
M  V30 4131 C 393.384 2.52458 5.24061 0
M  V30 4132 N 392.36 1.80735 5.12675 0
M  V30 4133 H 396.162 1.38817 2.5905 0
M  V30 4134 H 393.676 0.854277 1.38115 0
M  V30 4135 H 395.673 -0.532469 4.13486 0
M  V30 4136 H 394.333 -1.04317 3.07487 0
M  V30 4137 H 395.344 2.30816 4.63621 0
M  V30 4138 H 392.021 -0.229805 4.16867 0
M  V30 4139 H 393.411 3.49433 5.73887 0
M  V30 4140 N 396.131 -1.37776 0.765217 0
M  V30 4141 C 397.377 -2.00145 0.327072 0
M  V30 4142 C 397.71 -1.60607 -1.09175 0
M  V30 4143 O 396.985 -0.849127 -1.74986 0
M  V30 4144 C 397.268 -3.57109 0.46319 0
M  V30 4145 C 397.121 -4.06576 1.92395 0
M  V30 4146 C 398.44 -4.39888 -0.136473 0
M  V30 4147 H 395.559 -0.727113 0.120316 0
M  V30 4148 H 398.201 -1.63549 0.967039 0
M  V30 4149 H 396.351 -3.88414 -0.0816358 0
M  V30 4150 H 398.023 -3.85864 2.52798 0
M  V30 4151 H 396.266 -3.59011 2.43503 0
M  V30 4152 H 396.937 -5.15639 1.97028 0
M  V30 4153 H 399.413 -4.14803 0.328317 0
M  V30 4154 H 398.289 -5.48899 -0.0110582 0
M  V30 4155 H 398.55 -4.24758 -1.22608 0
M  V30 4156 O 397.648 -0.656736 -1.47544 0
M  V30 4157 H 398.339 -0.183317 -1.92831 0
M  V30 END ATOM
M  V30 BEGIN BOND
M  V30 END BOND
M  V30 END CTAB
M  END
$$$$
