drugbank_target|P09874 Poly [ADP-ribose] polymerase 1 (DB00277; DB01593; DB02498; DB02690; DB02701; DB03072; DB03073; DB03509; DB03722; DB04010; DB07096; DB07232; DB07330; DB07787; DB09074; DB11760; DB11793; DB12332; DB13877; DB14487; DB14533; DB14548)
 OpenBabel12092119583D

  0  0  0     0  0            999 V3000
M  V30 BEGIN CTAB
M  V30 COUNTS 16020 16170 0 0 0
M  V30 BEGIN ATOM
M  V30 1 H -0.908 1.98254 -0.117106 0
M  V30 2 N 0 1.576 0 0
M  V30 3 C 0.933 2.03868 1.02534 0
M  V30 4 C 1.911 0.928543 1.3348 0
M  V30 5 O 3.095 1.19667 1.45644 0
M  V30 6 C 0.222 2.43627 2.35294 0
M  V30 7 C -0.732 3.65373 2.2001 0
M  V30 8 S 0.101 5.13292 1.52614 0
M  V30 9 C 1.257 5.56322 2.86805 0
M  V30 10 H 1.49 2.90518 0.631377 0
M  V30 11 H -0.977 1.52953 0.210867 0
M  V30 12 H 0.981 2.67203 3.11629 0
M  V30 13 H -0.358 1.57376 2.7183 0
M  V30 14 H -1.165 3.90944 3.18086 0
M  V30 15 H -1.563 3.418 1.51819 0
M  V30 16 H 0.729 5.58782 3.83104 0
M  V30 17 H 1.672 6.56266 2.65933 0
M  V30 18 H 2.08 4.83886 2.90714 0
M  V30 19 N 1.4781 -0.272755 1.55222 0
M  V30 20 C 2.4411 -1.32041 1.87344 0
M  V30 21 C 3.4411 -1.42342 0.74803 0
M  V30 22 O 4.6311 -1.41488 1.0162 0
M  V30 23 C 1.7631 -2.70173 2.07893 0
M  V30 24 H 2.9561 -1.04789 2.80997 0
M  V30 25 H 0.5091 -0.51083 1.47717 0
M  V30 26 H 1.2441 -3.02605 1.16622 0
M  V30 27 H 1.0291 -2.64082 2.89833 0
M  V30 28 H 2.5191 -3.45869 2.34017 0
M  V30 29 N 2.9562 -1.48159 -0.537278 0
M  V30 30 C 3.8662 -1.64807 -1.6696 0
M  V30 31 C 4.8822 -0.530651 -1.65711 0
M  V30 32 O 6.0582 -0.800784 -1.84796 0
M  V30 33 C 3.1232 -1.67708 -3.03438 0
M  V30 34 C 2.1842 -2.91025 -3.156 0
M  V30 35 C 1.4172 -2.93778 -4.45567 0
M  V30 36 O 1.6402 -2.05153 -5.3223 0
M  V30 37 O 0.5742 -3.85868 -4.61941 0
M  V30 38 H 4.4002 -2.6066 -1.55853 0
M  V30 39 H 1.9852 -1.31475 -0.709549 0
M  V30 40 H 3.8672 -1.7218 -3.84619 0
M  V30 41 H 2.5422 -0.750278 -3.14885 0
M  V30 42 H 1.4492 -2.92089 -2.33741 0
M  V30 43 H 2.7822 -3.83065 -3.09066 0
M  V30 44 N 4.4343 0.785586 -1.36625 0
M  V30 45 C 5.6593 1.57963 -1.34397 0
M  V30 46 C 6.0843 1.87964 0.071526 0
M  V30 47 O 5.4423 1.48182 1.0446 0
M  V30 48 C 5.4903 2.87511 -2.17646 0
M  V30 49 O 4.5943 3.81281 -1.57158 0
M  V30 50 H 3.9353 0.479014 -0.459828 0
M  V30 51 H 6.4653 0.973411 -1.79961 0
M  V30 52 H 6.4753 3.36745 -2.30362 0
M  V30 53 H 5.1503 2.65002 -3.20541 0
M  V30 54 H 3.7273 3.39885 -1.53403 0
M  V30 55 N 5.9124 1.20967 1.01018 0
M  V30 56 C 7.1374 1.0503 1.78839 0
M  V30 57 C 7.5624 -0.395752 1.8389 0
M  V30 58 O 6.9204 -1.28529 1.27867 0
M  V30 59 C 6.9684 1.64602 3.2084 0
M  V30 60 O 6.0724 0.887988 4.02726 0
M  V30 61 H 5.4134 0.369987 0.551367 0
M  V30 62 H 7.9434 1.60399 1.27018 0
M  V30 63 H 7.9534 1.68607 3.71532 0
M  V30 64 H 6.6284 2.69841 3.16479 0
M  V30 65 H 5.2054 0.922648 3.61305 0
M  V30 66 N 7.3905 -1.2043 1.01659 0
M  V30 67 C 8.6675 -1.8548 0.621004 0
M  V30 68 C 9.0475 -1.9091 -0.900919 0
M  V30 69 O 8.3955 -1.41694 -1.79263 0
M  V30 70 C 8.6055 -3.25119 1.2688 0
M  V30 71 C 9.9535 -4.01403 1.38423 0
M  V30 72 O 10.9775 -3.34473 1.22501 0
M  V30 73 O 9.8365 -5.21265 1.64151 0
M  V30 74 H 6.9305 -0.798761 0.214266 0
M  V30 75 H 9.4765 -1.28019 1.11396 0
M  V30 76 H 8.2485 -3.15932 2.30873 0
M  V30 77 H 7.8715 -3.90212 0.762917 0
M  V30 78 N 8.8686 -0.792821 -1.36206 0
M  V30 79 C 9.8156 -0.191653 -2.30003 0
M  V30 80 C 10.7856 0.666453 -1.52143 0
M  V30 81 O 11.9706 0.61442 -1.80636 0
M  V30 82 C 9.1106 0.664848 -3.38635 0
M  V30 83 C 8.2236 -0.212175 -4.31479 0
M  V30 84 C 7.3586 0.651022 -5.27196 0
M  V30 85 C 6.3976 -0.227247 -6.11678 0
M  V30 86 N 5.5346 0.595127 -6.99573 0
M  V30 87 H 10.3746 -0.996978 -2.80828 0
M  V30 88 H 7.9116 -0.503206 -1.38225 0
M  V30 89 H 9.8696 1.17645 -4.00269 0
M  V30 90 H 8.4996 1.43557 -2.89122 0
M  V30 91 H 7.5516 -0.841777 -3.70969 0
M  V30 92 H 8.8636 -0.888751 -4.90818 0
M  V30 93 H 8.0176 1.2283 -5.94136 0
M  V30 94 H 6.7566 1.36121 -4.68319 0
M  V30 95 H 5.7616 -0.816904 -5.43697 0
M  V30 96 H 6.9866 -0.93509 -6.72631 0
M  V30 97 H 4.9326 1.28955 -6.432 0
M  V30 98 H 4.8496 -0.0236952 -7.55996 0
M  V30 99 H 6.1176 1.15613 -7.70879 0
M  V30 100 N 10.3467 1.47872 -0.545128 0
M  V30 101 C 11.2767 2.32661 0.197793 0
M  V30 102 C 12.2577 1.43041 0.920504 0
M  V30 103 O 13.4427 1.71912 0.90333 0
M  V30 104 C 10.5727 3.24569 1.23582 0
M  V30 105 C 9.5267 4.23333 0.630323 0
M  V30 106 C 8.8527 5.0448 1.77211 0
M  V30 107 C 10.1527 5.20704 -0.407974 0
M  V30 108 H 11.8467 2.95024 -0.510045 0
M  V30 109 H 9.3927 1.4187 -0.246731 0
M  V30 110 H 11.3457 3.8272 1.76362 0
M  V30 111 H 10.0697 2.60236 1.97344 0
M  V30 112 H 8.7287 3.6639 0.123922 0
M  V30 113 H 8.3767 4.36561 2.49847 0
M  V30 114 H 8.0767 5.71339 1.37281 0
M  V30 115 H 9.6007 5.65487 2.3034 0
M  V30 116 H 11.0147 5.7329 0.033305 0
M  V30 117 H 9.4117 5.95699 -0.725486 0
M  V30 118 H 10.4817 4.66917 -1.30828 0
M  V30 119 N 11.8248 0.280983 1.55075 0
M  V30 120 C 13.0548 -0.336804 2.03836 0
M  V30 121 C 13.4628 -1.49577 1.15859 0
M  V30 122 O 12.8058 -1.82888 0.172503 0
M  V30 123 C 12.8678 -0.874616 3.48699 0
M  V30 124 C 12.5318 0.156478 4.56732 0
M  V30 125 C 13.5288 0.978032 5.10618 0
M  V30 126 C 11.2138 0.292409 5.01448 0
M  V30 127 C 13.2078 1.92165 6.07743 0
M  V30 128 C 10.8948 1.23949 5.98398 0
M  V30 129 C 11.8928 2.05261 6.51427 0
M  V30 130 O 11.5808 2.98367 7.4648 0
M  V30 131 H 11.3128 -0.0800885 0.671239 0
M  V30 132 H 13.8668 0.412589 2.01213 0
M  V30 133 H 12.0968 -1.67418 3.4858 0
M  V30 134 H 13.7858 -1.40612 3.80766 0
M  V30 135 H 14.5518 0.883782 4.7688 0
M  V30 136 H 10.4308 -0.330498 4.59814 0
M  V30 137 H 13.9748 2.55672 6.49059 0
M  V30 138 H 9.8718 1.33454 6.31554 0
M  V30 139 H 10.6398 2.93116 7.64215 0
M  V30 140 N 13.3029 -1.57598 0.00835791 0
M  V30 141 C 14.7189 -1.55764 -0.347822 0
M  V30 142 C 14.9189 -1.01186 -1.74252 0
M  V30 143 O 13.9749 -0.649371 -2.44007 0
M  V30 144 C 15.2879 -2.99927 -0.215407 0
M  V30 145 C 16.8359 -3.11656 -0.289725 0
M  V30 146 C 17.3109 -4.57621 -0.18634 0
M  V30 147 N 18.8019 -4.62557 -0.243978 0
M  V30 148 C 19.5369 -5.73094 -0.18745 0
M  V30 149 N 19.0329 -6.92753 -0.0810331 0
M  V30 150 N 20.8259 -5.61588 -0.239925 0
M  V30 151 H 12.9769 -1.91411 0.92062 0
M  V30 152 H 15.2399 -0.879562 0.353659 0
M  V30 153 H 14.9459 -3.43729 0.744512 0
M  V30 154 H 14.8199 -3.63865 -0.994097 0
M  V30 155 H 17.2069 -2.67779 -1.24009 0
M  V30 156 H 17.2879 -2.5048 0.51898 0
M  V30 157 H 16.9319 -5.02174 0.760519 0
M  V30 158 H 16.8619 -5.16752 -1.01364 0
M  V30 159 H 19.3529 -3.76481 -0.327217 0
M  V30 160 H 19.6659 -7.72787 -0.0440241 0
M  V30 161 H 18.0109 -6.94984 -0.0465419 0
M  V30 162 H 21.2019 -4.66996 -0.321317 0
M  V30 163 H 21.3749 -6.47714 -0.192407 0
M  V30 164 N 14.781 0.264519 -1.55364 0
M  V30 165 C 16.027 0.99646 -1.76631 0
M  V30 166 C 16.36 1.85632 -0.570478 0
M  V30 167 O 15.635 1.89647 0.43175 0
M  V30 168 C 15.918 1.87187 -3.07625 0
M  V30 169 C 15.771 1.04138 -4.37579 0
M  V30 170 C 17.09 2.85749 -3.34717 0
M  V30 171 H 14.209 0.360841 -0.642622 0
M  V30 172 H 16.851 0.268218 -1.88097 0
M  V30 173 H 15.001 2.49279 -2.9798 0
M  V30 174 H 16.673 0.440517 -4.59192 0
M  V30 175 H 14.916 0.345115 -4.32425 0
M  V30 176 H 15.587 1.68729 -5.2558 0
M  V30 177 H 18.063 2.33793 -3.4421 0
M  V30 178 H 16.939 3.44136 -4.27623 0
M  V30 179 H 17.2 3.61311 -2.54768 0
M  V30 180 N 16.2591 1.48442 0.529413 0
M  V30 181 C 17.1691 1.6569 1.66084 0
M  V30 182 C 18.1851 0.539432 1.65427 0
M  V30 183 O 19.3611 0.810572 1.84368 0
M  V30 184 C 16.4261 1.69315 3.02545 0
M  V30 185 C 15.4871 2.92694 3.14052 0
M  V30 186 C 14.7201 2.96137 4.44003 0
M  V30 187 O 14.9431 2.07973 5.31134 0
M  V30 188 O 13.8771 3.88312 4.59888 0
M  V30 189 H 17.7031 2.61483 1.54469 0
M  V30 190 H 15.2881 1.3185 0.702567 0
M  V30 191 H 17.1701 1.74217 3.83701 0
M  V30 192 H 15.8451 0.766966 3.14483 0
M  V30 193 H 14.7521 2.93324 2.32189 0
M  V30 194 H 16.0851 3.84699 3.0703 0
M  V30 195 N 17.7372 -0.778329 1.37039 0
M  V30 196 C 18.9672 -1.56507 1.34868 0
M  V30 197 C 19.3752 -1.89072 -0.0694802 0
M  V30 198 O 18.7182 -1.51434 -1.03987 0
M  V30 199 C 18.7802 -2.90641 2.11585 0
M  V30 200 C 18.4442 -2.80746 3.60598 0
M  V30 201 C 19.4412 -2.52226 4.54618 0
M  V30 202 C 17.1262 -2.98974 4.03633 0
M  V30 203 C 19.1202 -2.42054 5.89651 0
M  V30 204 C 16.8072 -2.88423 5.38754 0
M  V30 205 C 17.8052 -2.60002 6.31576 0
M  V30 206 O 17.4932 -2.49465 7.64214 0
M  V30 207 H 17.2252 -0.491723 0.463879 0
M  V30 208 H 19.7792 -0.973053 1.80889 0
M  V30 209 H 18.0092 -3.51936 1.60243 0
M  V30 210 H 19.6982 -3.51992 2.0213 0
M  V30 211 H 20.4642 -2.37835 4.22681 0
M  V30 212 H 16.3432 -3.20099 3.31749 0
M  V30 213 H 19.8872 -2.19791 6.62071 0
M  V30 214 H 15.7842 -3.0238 5.70295 0
M  V30 215 H 16.5522 -2.64864 7.74461 0
M  V30 216 N 19.2153 -1.21501 -1.00376 0
M  V30 217 C 20.1783 -0.976927 -2.07337 0
M  V30 218 C 21.1783 0.0525322 -1.60714 0
M  V30 219 O 22.3683 -0.184869 -1.73216 0
M  V30 220 C 19.5003 -0.473423 -3.37597 0
M  V30 221 H 20.6933 -1.92587 -2.29892 0
M  V30 222 H 18.2463 -1.03217 -1.17371 0
M  V30 223 H 18.9813 0.480379 -3.20722 0
M  V30 224 H 18.7663 -1.216 -3.72768 0
M  V30 225 H 20.2563 -0.32675 -4.1632 0
M  V30 226 N 20.6934 1.19889 -1.02296 0
M  V30 227 C 21.6404 2.22901 -0.598651 0
M  V30 228 C 22.6104 1.61588 0.384521 0
M  V30 229 O 23.7954 1.88697 0.282522 0
M  V30 230 C 20.9354 3.45063 0.0504476 0
M  V30 231 C 20.0484 4.20783 -0.978053 0
M  V30 232 C 19.1834 5.30356 -0.299338 0
M  V30 233 C 18.2224 5.97826 -1.31416 0
M  V30 234 N 17.3594 6.98975 -0.661667 0
M  V30 235 H 22.1994 2.58554 -1.48169 0
M  V30 236 H 19.7364 1.27039 -0.741584 0
M  V30 237 H 21.6944 4.14831 0.443971 0
M  V30 238 H 20.3244 3.10084 0.897097 0
M  V30 239 H 19.3764 3.50018 -1.48969 0
M  V30 240 H 20.6884 4.67109 -1.74958 0
M  V30 241 H 19.8424 6.06516 0.149347 0
M  V30 242 H 18.5814 4.85084 0.504445 0
M  V30 243 H 17.5864 5.20422 -1.77317 0
M  V30 244 H 18.8114 6.45183 -2.11933 0
M  V30 245 H 16.7574 6.55886 0.122132 0
M  V30 246 H 16.6744 7.43461 -1.37117 0
M  V30 247 H 17.9424 7.7914 -0.236785 0
M  V30 248 N 22.1715 0.800033 1.35784 0
M  V30 249 C 23.3965 0.388511 2.03729 0
M  V30 250 C 23.8215 -0.990481 1.5991 0
M  V30 251 O 23.1795 -1.64013 0.772612 0
M  V30 252 C 23.2275 0.4726 3.5749 0
M  V30 253 O 22.3315 -0.51646 4.09153 0
M  V30 254 H 21.6725 0.163271 0.643614 0
M  V30 255 H 24.2025 1.0841 1.73518 0
M  V30 256 H 24.2125 0.34003 4.06581 0
M  V30 257 H 22.8875 1.47848 3.88734 0
M  V30 258 H 21.4645 -0.344673 3.71304 0
M  V30 259 N 23.6496 -1.47581 0.552962 0
M  V30 260 C 24.8976 -2.02082 0.0272703 0
M  V30 261 C 25.2186 -1.4301 -1.32563 0
M  V30 262 O 24.4886 -0.603745 -1.86365 0
M  V30 263 H 23.0686 -0.746966 0.00709182 0
M  V30 264 H 25.7306 -1.81033 0.722008 0
M  V30 265 H 24.8266 -3.12034 -0.0639951 0
M  V30 266 N 25.1277 -0.289203 -1.54924 0
M  V30 267 C 26.5437 0.0645403 -1.59469 0
M  V30 268 C 26.7437 1.53419 -1.30632 0
M  V30 269 O 25.7997 2.2852 -1.074 0
M  V30 270 C 27.1127 -0.32278 -2.98963 0
M  V30 271 C 28.6607 -0.270564 -3.11828 0
M  V30 272 C 29.1357 -0.632532 -4.53611 0
M  V30 273 N 30.6267 -0.584617 -4.59496 0
M  V30 274 C 31.3617 -0.837314 -5.67254 0
M  V30 275 N 30.8577 -1.15536 -6.83098 0
M  V30 276 N 32.6507 -0.765166 -5.56868 0
M  V30 277 H 24.8017 -1.24714 -1.71931 0
M  V30 278 H 27.0647 -0.504809 -0.802416 0
M  V30 279 H 26.7707 -1.34541 -3.24948 0
M  V30 280 H 26.6447 0.32944 -3.75759 0
M  V30 281 H 29.0317 0.742805 -2.85598 0
M  V30 282 H 29.1127 -0.957242 -2.37214 0
M  V30 283 H 28.7567 -1.64365 -4.80569 0
M  V30 284 H 28.6867 0.07609 -5.26545 0
M  V30 285 H 31.1777 -0.349248 -3.76283 0
M  V30 286 H 31.4907 -1.33447 -7.61191 0
M  V30 287 H 29.8357 -1.19328 -6.84679 0
M  V30 288 H 33.0267 -0.516432 -4.65243 0
M  V30 289 H 33.1997 -0.965477 -6.40767 0
M  V30 290 N 26.6058 1.57591 -0.0167156 0
M  V30 291 C 27.5688 2.08393 0.954204 0
M  V30 292 C 28.5688 0.996531 1.26198 0
M  V30 293 O 29.7588 1.25858 1.20438 0
M  V30 294 C 26.8908 2.5394 2.27436 0
M  V30 295 H 28.0838 2.95455 0.514451 0
M  V30 296 H 25.6368 1.54582 0.231089 0
M  V30 297 H 26.3718 1.70171 2.76066 0
M  V30 298 H 26.1568 3.33371 2.06412 0
M  V30 299 H 27.6468 2.93512 2.97053 0
M  V30 300 N 28.0839 -0.256276 1.55502 0
M  V30 301 C 29.3089 -1.00766 1.81276 0
M  V30 302 C 29.7339 -1.78524 0.59252 0
M  V30 303 O 29.0919 -1.75413 -0.45827 0
M  V30 304 C 29.1399 -1.92869 3.04687 0
M  V30 305 O 28.2439 -3.019 2.80945 0
M  V30 306 H 27.5849 -0.287224 0.598664 0
M  V30 307 H 30.1149 -0.280109 2.02674 0
M  V30 308 H 30.1249 -2.34511 3.33869 0
M  V30 309 H 28.7999 -1.35689 3.93143 0
M  V30 310 H 27.3769 -2.64454 2.62904 0
M  V30 311 N 29.562 -1.4872 -0.521534 0
M  V30 312 C 30.802 -1.58771 -1.28729 0
M  V30 313 C 31.166 -0.259394 -1.9024 0
M  V30 314 O 32.367 -0.234942 -2.67771 0
M  V30 315 C 30.638 -2.70039 -2.34124 0
M  V30 316 S 32.197 -2.9991 -3.20312 0
M  V30 317 H 29.015 -0.560251 -0.437767 0
M  V30 318 H 31.617 -1.86283 -0.593188 0
M  V30 319 H 30.321 -3.65101 -1.87429 0
M  V30 320 H 29.852 -2.44455 -3.08229 0
M  V30 321 H 31.867 -2.39855 -4.34378 0
M  V30 322 N 31.0401 0.771051 -1.3745 0
M  V30 323 C 31.9871 1.88435 -1.3327 0
M  V30 324 C 32.9571 1.64914 -0.198136 0
M  V30 325 O 34.1421 1.86821 -0.387606 0
M  V30 326 C 31.2821 3.25509 -1.14622 0
M  V30 327 C 30.3951 3.60979 -2.37314 0
M  V30 328 C 29.5301 4.87265 -2.11533 0
M  V30 329 C 28.5691 5.15469 -3.30088 0
M  V30 330 N 27.7061 6.32944 -3.03853 0
M  V30 331 H 32.5461 1.91344 -2.28455 0
M  V30 332 H 30.0831 0.935466 -1.13523 0
M  V30 333 H 32.0411 4.04582 -1.01831 0
M  V30 334 H 30.6711 3.21974 -0.230837 0
M  V30 335 H 29.7231 2.76885 -2.60842 0
M  V30 336 H 31.0351 3.77759 -3.25729 0
M  V30 337 H 30.1891 5.74244 -1.95777 0
M  V30 338 H 28.9281 4.7259 -1.20457 0
M  V30 339 H 27.9331 4.26966 -3.46382 0
M  V30 340 H 29.1581 5.32052 -4.22016 0
M  V30 341 H 27.1041 6.19625 -2.15407 0
M  V30 342 H 27.0211 6.50143 -3.85812 0
M  V30 343 H 28.2891 7.22857 -2.91716 0
M  V30 344 N 32.5182 1.22032 0.997298 0
M  V30 345 C 33.4652 0.986467 2.08656 0
M  V30 346 C 34.4352 -0.0902671 1.65855 0
M  V30 347 O 35.6202 0.0584294 1.90711 0
M  V30 348 C 32.7602 0.565569 3.40434 0
M  V30 349 C 31.8732 1.71259 3.96604 0
M  V30 350 C 31.0082 1.24011 5.16522 0
M  V30 351 C 30.0472 2.35896 5.64818 0
M  V30 352 N 29.1842 1.89726 6.7598 0
M  V30 353 H 34.0242 1.91892 2.27994 0
M  V30 354 H 31.5612 0.956199 1.11782 0
M  V30 355 H 33.5192 0.302738 4.161 0
M  V30 356 H 32.1492 -0.329879 3.2111 0
M  V30 357 H 31.2012 2.08986 3.17851 0
M  V30 358 H 32.5132 2.55436 4.28432 0
M  V30 359 H 31.6672 0.934395 5.99461 0
M  V30 360 H 30.4062 0.368487 4.86306 0
M  V30 361 H 29.4112 2.67261 4.8047 0
M  V30 362 H 30.6362 3.23567 5.97061 0
M  V30 363 H 28.5822 1.0492 6.47555 0
M  V30 364 H 28.4992 2.67471 7.07103 0
M  V30 365 H 29.7672 1.62211 7.62435 0
M  V30 366 N 33.9963 -1.19345 1.0293 0
M  V30 367 C 35.2363 -1.90738 0.734727 0
M  V30 368 C 35.6003 -1.7785 -0.723414 0
M  V30 369 O 36.8013 -2.43844 -1.13108 0
M  V30 370 C 35.0723 -3.37569 1.17396 0
M  V30 371 S 36.6313 -4.27176 1.00329 0
M  V30 372 H 33.4493 -0.658771 0.267474 0
M  V30 373 H 36.0513 -1.4428 1.31922 0
M  V30 374 H 34.7553 -3.44475 2.23081 0
M  V30 375 H 34.2863 -3.8906 0.582772 0
M  V30 376 H 36.3013 -4.96126 -0.0859152 0
M  V30 377 N 35.4744 -0.807222 -1.35358 0
M  V30 378 C 36.6994 -0.399309 -2.0352 0
M  V30 379 C 37.1244 0.981986 -1.60433 0
M  V30 380 O 36.4824 1.63601 -0.781299 0
M  V30 381 C 36.5304 -0.491552 -3.57234 0
M  V30 382 O 35.6344 0.494754 -4.09421 0
M  V30 383 H 34.9754 -0.166682 -0.642739 0
M  V30 384 H 37.5054 -1.09328 -1.72941 0
M  V30 385 H 37.5154 -0.361588 -4.06395 0
M  V30 386 H 36.1904 -1.49907 -3.87944 0
M  V30 387 H 34.7674 0.324977 -3.71481 0
M  V30 388 N 36.9525 1.47285 -0.560781 0
M  V30 389 C 37.8625 2.33846 0.187954 0
M  V30 390 C 38.8785 1.48412 0.908293 0
M  V30 391 O 40.0545 1.81332 0.876388 0
M  V30 392 C 37.1195 3.25178 1.2025 0
M  V30 393 C 36.1805 4.26504 0.489208 0
M  V30 394 C 35.4135 5.13472 1.45542 0
M  V30 395 O 35.6365 5.02959 2.6905 0
M  V30 396 O 34.5705 5.93902 0.977963 0
M  V30 397 H 38.3965 2.99177 -0.522177 0
M  V30 398 H 35.9815 1.45903 -0.321364 0
M  V30 399 H 37.8635 3.81584 1.78805 0
M  V30 400 H 36.5385 2.6247 1.89449 0
M  V30 401 H 35.4455 3.73847 -0.137627 0
M  V30 402 H 36.7785 4.91935 -0.161399 0
M  V30 403 N 38.4306 0.297415 1.54768 0
M  V30 404 C 39.6556 -0.318435 2.04941 0
M  V30 405 C 40.0806 -1.4701 1.17345 0
M  V30 406 O 39.4386 -1.80436 0.176758 0
M  V30 407 C 39.4866 -0.755749 3.52592 0
M  V30 408 O 38.5906 -1.86088 3.68028 0
M  V30 409 H 37.9316 -0.062421 0.661059 0
M  V30 410 H 40.4616 0.438215 1.99852 0
M  V30 411 H 40.4716 -1.04552 3.94376 0
M  V30 412 H 39.1466 0.0867233 4.1581 0
M  V30 413 H 37.7236 -1.57193 3.38149 0
M  V30 414 N 39.9087 -1.5758 0.0250728 0
M  V30 415 C 41.1577 -1.90811 -0.653767 0
M  V30 416 C 41.4707 -0.90273 -1.73523 0
M  V30 417 O 42.6767 -1.12614 -2.47043 0
M  V30 418 C 41.1327 -3.38804 -1.21409 0
M  V30 419 C 40.7407 -4.47692 -0.166126 0
M  V30 420 C 42.4847 -3.81108 -1.86967 0
M  V30 421 C 40.3917 -5.86779 -0.737856 0
M  V30 422 H 39.3217 -0.712063 -0.247956 0
M  V30 423 H 41.9727 -1.83281 0.0897137 0
M  V30 424 H 40.3547 -3.41252 -2.00905 0
M  V30 425 H 41.5287 -4.56797 0.606079 0
M  V30 426 H 39.8437 -4.14565 0.390466 0
M  V30 427 H 42.4407 -4.82375 -2.30692 0
M  V30 428 H 42.7837 -3.15953 -2.71071 0
M  V30 429 H 43.3167 -3.81065 -1.14167 0
M  V30 430 H 40.0557 -6.55468 0.0649577 0
M  V30 431 H 39.5757 -5.81288 -1.47864 0
M  V30 432 H 41.2547 -6.35223 -1.22884 0
M  V30 433 N 41.3868 0.248026 -1.55636 0
M  V30 434 C 42.7978 0.817177 -1.67866 0
M  V30 435 C 43.1488 1.86069 -0.622322 0
M  V30 436 O 42.2738 2.15157 0.231618 0
M  V30 437 C 42.8688 1.489 -3.04326 0
M  V30 438 C 41.4278 2.00587 -3.185 0
M  V30 439 C 40.5748 0.856573 -2.63739 0
M  V30 440 H 43.5258 0.0238579 -1.58682 0
M  V30 441 H 43.5468 2.35698 -2.98708 0
M  V30 442 H 43.0588 0.729279 -3.81186 0
M  V30 443 H 41.1598 2.79443 -2.4646 0
M  V30 444 H 41.2728 2.20402 -4.25393 0
M  V30 445 H 39.6368 1.25678 -2.21534 0
M  V30 446 H 40.4198 0.109953 -3.43124 0
M  V30 447 N 42.8649 1.48995 0.513639 0
M  V30 448 C 43.8119 1.6473 1.61656 0
M  V30 449 C 44.7819 0.488984 1.58739 0
M  V30 450 O 45.9669 0.714478 1.76918 0
M  V30 451 C 43.1069 1.7082 2.99858 0
M  V30 452 C 42.2199 2.9787 3.12885 0
M  V30 453 C 41.3549 2.95017 4.41744 0
M  V30 454 C 40.3939 4.16702 4.48359 0
M  V30 455 N 39.5309 4.11832 5.68629 0
M  V30 456 H 44.3709 2.58909 1.47547 0
M  V30 457 H 41.9079 1.28382 0.71808 0
M  V30 458 H 43.8659 1.72331 3.79944 0
M  V30 459 H 42.4959 0.801181 3.12699 0
M  V30 460 H 41.5479 3.06029 2.25944 0
M  V30 461 H 42.8599 3.8786 3.13633 0
M  V30 462 H 42.0139 2.95021 5.30139 0
M  V30 463 H 40.7529 2.02784 4.43542 0
M  V30 464 H 39.7579 4.16955 3.58369 0
M  V30 465 H 40.9829 5.10113 4.48287 0
M  V30 466 H 38.9289 3.22428 5.71293 0
M  V30 467 H 38.8459 4.95543 5.7094 0
M  V30 468 H 40.1139 4.1592 6.59266 0
M  V30 469 N 44.343 -0.763751 1.37857 0
M  V30 470 C 45.62 -1.51244 1.24035 0
M  V30 471 C 46 -2.10472 -0.162649 0
M  V30 472 O 45.348 -1.96206 -1.17112 0
M  V30 473 C 45.558 -2.58694 2.34261 0
M  V30 474 C 46.906 -3.25878 2.72193 0
M  V30 475 O 47.93 -2.68993 2.33497 0
M  V30 476 O 46.789 -4.2874 3.38887 0
M  V30 477 H 43.883 -0.670243 0.484462 0
M  V30 478 H 46.429 -0.800031 1.49658 0
M  V30 479 H 45.201 -2.13105 3.2818 0
M  V30 480 H 44.824 -3.37527 2.10146 0
M  V30 481 N 45.8211 -1.22559 -0.990812 0
M  V30 482 C 47.0461 -1.07862 -1.77145 0
M  V30 483 C 47.4711 0.366447 -1.84496 0
M  V30 484 O 46.8291 1.26478 -1.29896 0
M  V30 485 C 46.8771 -1.69686 -3.18181 0
M  V30 486 O 45.9811 -0.951946 -4.01263 0
M  V30 487 H 45.3221 -0.378712 -0.545411 0
M  V30 488 H 47.8521 -1.62399 -1.2445 0
M  V30 489 H 47.8621 -1.74496 -3.68802 0
M  V30 490 H 46.5371 -2.74841 -3.12146 0
M  V30 491 H 45.1141 -0.980011 -3.59792 0
M  V30 492 N 47.2992 1.18797 -1.03562 0
M  V30 493 C 48.2292 2.24472 -0.643019 0
M  V30 494 C 49.2102 1.66433 0.351283 0
M  V30 495 O 50.3952 1.92803 0.232505 0
M  V30 496 C 47.5252 3.473 4.24935e-05 0
M  V30 497 C 46.4792 4.18055 -0.917257 0
M  V30 498 C 45.8052 5.34519 -0.138941 0
M  V30 499 C 47.1052 4.72109 -2.23407 0
M  V30 500 H 48.7992 2.57566 -1.52643 0
M  V30 501 H 46.3452 1.23806 -0.735394 0
M  V30 502 H 48.2982 4.20426 0.286383 0
M  V30 503 H 47.0222 3.13424 0.918299 0
M  V30 504 H 45.6812 3.46821 -1.1879 0
M  V30 505 H 45.3292 4.96891 0.781562 0
M  V30 506 H 45.0292 5.82794 -0.750005 0
M  V30 507 H 46.5532 6.10438 0.1405 0
M  V30 508 H 47.9672 5.36955 -2.00879 0
M  V30 509 H 46.3642 5.30897 -2.79765 0
M  V30 510 H 47.4342 3.89807 -2.88407 0
M  V30 511 N 48.7773 0.814389 1.34928 0
M  V30 512 C 50.1933 0.499084 1.51596 0
M  V30 513 C 50.3933 -0.978319 1.76157 0
M  V30 514 O 49.4493 -1.76309 1.80752 0
M  V30 515 C 50.7623 1.35121 2.68631 0
M  V30 516 C 52.3103 1.34746 2.82511 0
M  V30 517 C 52.7853 2.18388 4.0258 0
M  V30 518 N 54.2763 2.15966 4.09772 0
M  V30 519 C 55.0113 2.77437 5.01813 0
M  V30 520 N 54.5073 3.47866 5.99134 0
M  V30 521 N 56.3003 2.67037 4.94619 0
M  V30 522 H 48.4513 1.7711 1.17243 0
M  V30 523 H 50.7143 0.754256 0.574284 0
M  V30 524 H 50.4203 2.40001 2.57085 0
M  V30 525 H 50.2943 1.00991 3.63429 0
M  V30 526 H 52.6813 0.30648 2.93504 0
M  V30 527 H 52.7623 1.72869 1.88547 0
M  V30 528 H 52.4063 3.2253 3.92347 0
M  V30 529 H 52.3363 1.77621 4.9574 0
M  V30 530 H 54.8273 1.64729 3.40107 0
M  V30 531 H 55.1403 3.92038 6.65977 0
M  V30 532 H 53.4853 3.51972 5.99284 0
M  V30 533 H 56.6763 2.11597 4.17546 0
M  V30 534 H 56.8493 3.15232 5.66156 0
M  V30 535 N 50.2554 -1.46986 0.568584 0
M  V30 536 C 51.1884 -2.27129 -0.220779 0
M  V30 537 C 52.1664 -1.34757 -0.909905 0
M  V30 538 O 53.3504 -1.64152 -0.926622 0
M  V30 539 C 50.4774 -3.12108 -1.31553 0
M  V30 540 C 49.5234 -4.20141 -0.733748 0
M  V30 541 S 50.3564 -5.33783 0.428479 0
M  V30 542 C 51.5124 -6.22327 -0.667811 0
M  V30 543 H 51.7454 -2.93731 0.459267 0
M  V30 544 H 49.2784 -1.5026 0.355154 0
M  V30 545 H 51.2364 -3.61636 -1.94241 0
M  V30 546 H 49.8974 -2.44847 -1.96746 0
M  V30 547 H 49.0904 -4.79373 -1.5562 0
M  V30 548 H 48.6924 -3.73553 -0.182812 0
M  V30 549 H 50.9844 -6.59364 -1.55708 0
M  V30 550 H 51.9274 -7.0801 -0.11258 0
M  V30 551 H 52.3354 -5.5618 -0.965601 0
M  V30 552 N 51.7335 -0.305618 -1.54608 0
M  V30 553 C 52.6965 0.555591 -2.22364 0
M  V30 554 C 53.6965 1.05768 -1.21119 0
M  V30 555 O 54.8865 0.952972 -1.45822 0
M  V30 556 C 52.0185 1.76974 -2.91364 0
M  V30 557 H 53.2115 -0.0364572 -2.99878 0
M  V30 558 H 50.7645 -0.0565007 -1.56198 0
M  V30 559 H 51.4995 2.40151 -2.17941 0
M  V30 560 H 51.2845 1.41732 -3.65588 0
M  V30 561 H 52.7745 2.38148 -3.43038 0
M  V30 562 N 53.2116 1.57565 -0.0334293 0
M  V30 563 C 54.4606 1.91155 0.643639 0
M  V30 564 C 54.7736 0.91192 1.73042 0
M  V30 565 O 55.9796 1.13923 2.46442 0
M  V30 566 C 54.4356 3.39443 1.1961 0
M  V30 567 C 54.0436 4.47774 0.142381 0
M  V30 568 C 55.7876 3.82094 1.84944 0
M  V30 569 C 53.6946 5.87162 0.706727 0
M  V30 570 H 52.6246 0.713368 0.244176 0
M  V30 571 H 55.2756 1.8323 -0.0994323 0
M  V30 572 H 53.6576 3.42313 1.99092 0
M  V30 573 H 54.8316 4.56469 -0.630296 0
M  V30 574 H 53.1466 4.14352 -0.412446 0
M  V30 575 H 55.7436 4.83591 2.2813 0
M  V30 576 H 56.0866 3.17386 2.69392 0
M  V30 577 H 56.6196 3.81665 1.12145 0
M  V30 578 H 53.3586 6.55424 -0.0997178 0
M  V30 579 H 52.8786 5.82064 1.44779 0
M  V30 580 H 54.5576 6.35866 1.19514 0
M  V30 581 N 54.6897 -0.239769 1.55765 0
M  V30 582 C 55.6227 -1.32356 1.85895 0
M  V30 583 C 56.6007 -1.46053 0.714662 0
M  V30 584 O 57.7847 -1.62154 0.961157 0
M  V30 585 C 54.9117 -2.6962 2.04994 0
M  V30 586 C 53.9577 -2.73036 3.27648 0
M  V30 587 S 54.7907 -2.28929 4.84099 0
M  V30 588 C 55.9467 -3.68103 5.06212 0
M  V30 589 H 56.1797 -1.06601 2.77531 0
M  V30 590 H 53.7127 -0.441112 1.47965 0
M  V30 591 H 55.6707 -3.48653 2.16682 0
M  V30 592 H 54.3317 -2.92609 1.14188 0
M  V30 593 H 53.5247 -3.7386 3.38 0
M  V30 594 H 53.1267 -2.02052 3.14723 0
M  V30 595 H 55.4187 -4.63656 4.93993 0
M  V30 596 H 56.3617 -3.6268 6.08168 0
M  V30 597 H 56.7697 -3.60947 4.34025 0
M  V30 598 N 56.1678 -1.49265 -0.50573 0
M  V30 599 C 57.4138 -1.58748 -1.26202 0
M  V30 600 C 57.7468 -0.271227 -1.92297 0
M  V30 601 O 57.0218 0.724831 -1.80489 0
M  V30 602 C 57.3048 -2.74332 -2.33268 0
M  V30 603 C 57.1578 -4.15737 -1.71705 0
M  V30 604 C 58.4768 -2.85576 -3.34865 0
M  V30 605 H 55.5958 -0.577826 -0.457478 0
M  V30 606 H 58.2378 -1.81532 -0.560897 0
M  V30 607 H 56.3878 -2.55036 -2.93068 0
M  V30 608 H 58.0598 -4.46537 -1.15769 0
M  V30 609 H 56.3028 -4.21605 -1.02135 0
M  V30 610 H 56.9738 -4.92477 -2.49341 0
M  V30 611 H 59.4498 -3.03127 -2.8505 0
M  V30 612 H 58.3258 -3.68135 -4.07146 0
M  V30 613 H 58.5868 -1.94732 -3.96903 0
M  V30 614 N 57.6459 0.756429 -1.3826 0
M  V30 615 C 58.5779 1.87971 -1.31147 0
M  V30 616 C 59.5909 1.61248 -0.224239 0
M  V30 617 O 60.7799 1.71881 -0.481581 0
M  V30 618 C 57.8799 3.23545 -1.00857 0
M  V30 619 C 57.0529 3.77794 -2.20432 0
M  V30 620 C 56.1119 4.91877 -1.86931 0
M  V30 621 O 55.1379 5.06659 -2.59395 0
M  V30 622 N 56.3399 5.74643 -0.822568 0
M  V30 623 H 59.1049 1.94585 -2.2794 0
M  V30 624 H 56.6659 0.936234 -1.32084 0
M  V30 625 H 58.6579 3.97403 -0.765021 0
M  V30 626 H 57.2279 3.12335 -0.128687 0
M  V30 627 H 56.4479 2.95534 -2.6087 0
M  V30 628 H 57.7359 4.10771 -3.00241 0
M  V30 629 H 57.1339 5.65266 -0.221575 0
M  V30 630 H 55.6909 6.48661 -0.638899 0
M  V30 631 N 59.124 1.23083 0.984299 0
M  V30 632 C 60.349 1.088 1.76571 0
M  V30 633 C 60.774 -0.356657 1.84688 0
M  V30 634 O 60.132 -1.25788 1.30565 0
M  V30 635 C 60.18 1.71371 3.17277 0
M  V30 636 O 59.284 0.973213 4.00752 0
M  V30 637 H 58.625 0.381599 0.543395 0
M  V30 638 H 61.155 1.63057 1.23587 0
M  V30 639 H 61.165 1.76449 3.67872 0
M  V30 640 H 59.84 2.76493 3.10684 0
M  V30 641 H 58.417 0.999078 3.59267 0
M  V30 642 N 60.6021 -1.18246 1.0419 0
M  V30 643 C 62.0131 -1.69914 0.773698 0
M  V30 644 C 62.3641 -1.83085 -0.705297 0
M  V30 645 O 61.4891 -1.51123 -1.5489 0
M  V30 646 C 62.0841 -3.08619 1.39784 0
M  V30 647 C 60.6431 -3.57494 1.17792 0
M  V30 648 C 59.7901 -2.34013 1.48773 0
M  V30 649 H 62.7411 -1.02904 1.20816 0
M  V30 650 H 62.7621 -3.71958 0.801714 0
M  V30 651 H 62.2741 -2.99001 2.47426 0
M  V30 652 H 60.3751 -3.72406 0.120295 0
M  V30 653 H 60.4881 -4.40852 1.87581 0
M  V30 654 H 58.8521 -2.37986 0.907463 0
M  V30 655 H 59.6351 -2.27013 2.57527 0
M  V30 656 N 62.0802 -0.821533 -1.34494 0
M  V30 657 C 63.0132 -0.187704 -2.27427 0
M  V30 658 C 63.9912 0.65507 -1.48821 0
M  V30 659 O 65.1752 0.619111 -1.78043 0
M  V30 660 C 62.3022 0.737996 -3.30562 0
M  V30 661 C 61.3482 -0.0270713 -4.26491 0
M  V30 662 S 62.1812 -1.37329 -5.17592 0
M  V30 663 C 63.3372 -0.452427 -6.24263 0
M  V30 664 H 63.5702 -0.975598 -2.80837 0
M  V30 665 H 61.1032 -0.61736 -1.4152 0
M  V30 666 H 63.0612 1.26654 -3.90473 0
M  V30 667 H 61.7222 1.4994 -2.76001 0
M  V30 668 H 60.9152 0.6766 -4.99438 0
M  V30 669 H 60.5172 -0.48612 -3.70827 0
M  V30 670 H 62.8092 0.356557 -6.76561 0
M  V30 671 H 63.7522 -1.15153 -6.98674 0
M  V30 672 H 64.1602 -0.0414755 -5.64485 0
M  V30 673 N 63.5583 1.46682 -0.576371 0
M  V30 674 C 64.8053 2.02412 -0.0595339 0
M  V30 675 C 65.1333 1.44859 1.29793 0
M  V30 676 O 64.3883 0.601099 1.8624 0
M  V30 677 C 64.6873 3.57345 0.062886 0
M  V30 678 C 64.3533 4.33908 -1.22616 0
M  V30 679 C 63.0153 4.54544 -1.57933 0
M  V30 680 C 65.3673 4.77919 -2.07948 0
M  V30 681 C 62.6953 5.16444 -2.78393 0
M  V30 682 C 65.0473 5.41149 -3.27629 0
M  V30 683 C 63.7113 5.60014 -3.63236 0
M  V30 684 H 62.9813 0.74068 -0.021785 0
M  V30 685 H 65.6283 1.76128 -0.751735 0
M  V30 686 H 63.9333 3.82729 0.838178 0
M  V30 687 H 65.6303 3.98136 0.478439 0
M  V30 688 H 62.2203 4.18138 -0.941202 0
M  V30 689 H 66.4043 4.61738 -1.81967 0
M  V30 690 H 61.6603 5.29242 -3.06126 0
M  V30 691 H 65.8343 5.74211 -3.94023 0
M  V30 692 H 63.4613 6.07748 -4.56669 0
M  V30 693 N 65.0364 0.313813 1.54444 0
M  V30 694 C 66.3134 -0.345447 1.92525 0
M  V30 695 C 66.6934 -1.70667 1.24242 0
M  V30 696 O 66.0414 -2.25273 0.382654 0
M  V30 697 C 66.2514 -0.44737 3.46121 0
M  V30 698 C 67.5994 -0.712238 4.18584 0
M  V30 699 O 68.6234 -0.530678 3.52225 0
M  V30 700 O 67.4824 -1.06183 5.36085 0
M  V30 701 H 64.5764 -0.195407 0.803583 0
M  V30 702 H 67.1224 0.362813 1.65776 0
M  V30 703 H 65.8944 0.509043 3.87975 0
M  V30 704 H 65.5174 -1.20359 3.78945 0
M  V30 705 N 66.5145 -1.57545 0.0417849 0
M  V30 706 C 67.7625 -1.91937 -0.632829 0
M  V30 707 C 68.0835 -0.919978 -1.71934 0
M  V30 708 O 67.3535 0.0366064 -1.95866 0
M  V30 709 H 65.9335 -0.708493 -0.236742 0
M  V30 710 H 68.5955 -1.9468 0.0925745 0
M  V30 711 H 67.6915 -2.92912 -1.07746 0
M  V30 712 N 67.9926 0.231505 -1.5589 0
M  V30 713 C 68.9396 1.28682 -1.91598 0
M  V30 714 C 69.9096 1.47071 -0.771974 0
M  V30 715 O 71.0946 1.60802 -1.027 0
M  V30 716 C 68.2346 2.6342 -2.22944 0
M  V30 717 C 67.3476 2.52912 -3.50228 0
M  V30 718 C 66.4826 3.80106 -3.7107 0
M  V30 719 C 65.5216 3.64279 -4.91902 0
M  V30 720 N 64.6586 4.834 -5.09184 0
M  V30 721 H 69.4986 0.975305 -2.81588 0
M  V30 722 H 67.0356 0.470299 -1.39379 0
M  V30 723 H 68.9936 3.41869 -2.39126 0
M  V30 724 H 67.6236 2.92687 -1.36139 0
M  V30 725 H 66.6756 1.6595 -3.42294 0
M  V30 726 H 67.9876 2.37133 -4.38827 0
M  V30 727 H 67.1416 4.66999 -3.87295 0
M  V30 728 H 65.8806 3.98799 -2.80733 0
M  V30 729 H 64.8856 2.7577 -4.75637 0
M  V30 730 H 66.1106 3.47067 -5.83714 0
M  V30 731 H 64.0566 5.02425 -4.21788 0
M  V30 732 H 63.9736 4.70311 -5.91898 0
M  V30 733 H 65.2416 5.71747 -5.29835 0
M  V30 734 N 69.4707 1.49531 0.497807 0
M  V30 735 C 70.7167 1.59415 1.25358 0
M  V30 736 C 71.0497 0.281422 1.9215 0
M  V30 737 O 70.3247 -0.715249 1.80871 0
M  V30 738 C 70.6077 2.75566 2.3181 0
M  V30 739 C 70.4607 4.16642 1.69498 0
M  V30 740 C 71.7797 2.87347 3.33346 0
M  V30 741 H 68.8987 0.580244 0.454408 0
M  V30 742 H 71.5407 1.81827 0.551262 0
M  V30 743 H 69.6907 2.56587 2.91711 0
M  V30 744 H 71.3627 4.47145 1.13399 0
M  V30 745 H 69.6057 4.22141 0.998978 0
M  V30 746 H 70.2767 4.93792 2.46725 0
M  V30 747 H 72.7527 3.04634 2.83438 0
M  V30 748 H 71.6287 3.70289 4.05188 0
M  V30 749 H 71.8897 1.96834 3.95865 0
M  V30 750 N 70.9488 -0.749086 1.3866 0
M  V30 751 C 72.3598 -1.32664 1.31366 0
M  V30 752 C 72.7108 -1.96179 -0.028484 0
M  V30 753 O 71.8358 -1.9537 -0.93057 0
M  V30 754 C 72.4308 -2.41219 2.37905 0
M  V30 755 C 70.9898 -2.94684 2.34176 0
M  V30 756 C 70.1368 -1.68108 2.20533 0
M  V30 757 H 73.0878 -0.547628 1.48952 0
M  V30 758 H 73.1088 -3.21268 2.0388 0
M  V30 759 H 72.6208 -1.94962 3.35576 0
M  V30 760 H 70.7218 -3.45258 1.401 0
M  V30 761 H 70.8348 -3.48757 3.2849 0
M  V30 762 H 69.1988 -1.91907 1.67463 0
M  V30 763 H 69.9818 -1.23923 3.20153 0
M  V30 764 N 72.4269 -1.23603 -0.977757 0
M  V30 765 C 73.3769 -0.986664 -2.05545 0
M  V30 766 C 74.3609 0.0683009 -1.60755 0
M  V30 767 O 75.5529 -0.144162 -1.76412 0
M  V30 768 C 72.6819 -0.582623 -3.3832 0
M  V30 769 C 71.7679 -1.67313 -3.89701 0
M  V30 770 N 72.1589 -2.90394 -4.14132 0
M  V30 771 C 70.4569 -1.54832 -4.18262 0
M  V30 772 C 71.1579 -3.61017 -4.56116 0
M  V30 773 N 70.1339 -2.8854 -4.60701 0
M  V30 774 H 73.9359 -1.92139 -2.22396 0
M  V30 775 H 71.4499 -1.1358 -1.16074 0
M  V30 776 H 73.4469 -0.38524 -4.15116 0
M  V30 777 H 72.1069 0.34503 -3.22862 0
M  V30 778 H 73.1179 -3.26673 -4.01877 0
M  V30 779 H 69.7949 -0.687969 -4.11793 0
M  V30 780 H 71.1849 -4.66544 -4.83514 0
M  V30 781 N 73.905 1.17692 -1.04816 0
M  V30 782 C 75.151 1.88389 -0.766892 0
M  V30 783 C 75.506 1.79282 0.698269 0
M  V30 784 O 74.799 1.18739 1.50372 0
M  V30 785 C 74.993 3.37462 -1.17703 0
M  V30 786 C 74.822 3.6108 -2.68051 0
M  V30 787 C 73.592 3.78018 -3.35307 0
M  V30 788 C 75.79 3.61039 -3.66273 0
M  V30 789 N 73.772 3.89444 -4.74559 0
M  V30 790 C 75.143 3.78269 -4.91235 0
M  V30 791 C 77.198 3.44168 -3.59796 0
M  V30 792 C 75.901 3.80376 -6.10497 0
M  V30 793 C 77.927 3.4756 -4.78493 0
M  V30 794 C 77.289 3.65295 -6.02278 0
M  V30 795 H 73.388 0.707651 -0.332798 0
M  V30 796 H 75.972 1.41314 -1.33934 0
M  V30 797 H 74.143 3.83214 -0.63257 0
M  V30 798 H 75.875 3.95759 -0.845989 0
M  V30 799 H 72.63 3.77714 -2.85708 0
M  V30 800 H 73.054 3.98962 -5.46954 0
M  V30 801 H 77.696 3.29396 -2.65062 0
M  V30 802 H 75.414 3.93933 -7.05579 0
M  V30 803 H 79 3.3577 -4.75131 0
M  V30 804 H 77.88 3.6782 -6.92588 0
M  V30 805 N 75.3831 0.828654 1.34056 0
M  V30 806 C 76.6131 0.431993 2.02033 0
M  V30 807 C 77.0211 -0.96844 1.62536 0
M  V30 808 O 76.3641 -1.6391 0.829408 0
M  V30 809 C 76.4261 0.461224 3.56529 0
M  V30 810 C 76.0901 1.81599 4.1937 0
M  V30 811 C 77.0871 2.7777 4.39477 0
M  V30 812 C 74.7721 2.10604 4.56017 0
M  V30 813 C 76.7661 4.01115 4.95364 0
M  V30 814 C 74.4531 3.34207 5.11614 0
M  V30 815 C 75.4511 4.2928 5.31232 0
M  V30 816 O 75.1391 5.50699 5.8565 0
M  V30 817 H 74.8711 0.170943 0.654029 0
M  V30 818 H 77.4251 1.11988 1.72185 0
M  V30 819 H 75.6551 -0.283388 3.8566 0
M  V30 820 H 77.3441 0.0838149 4.05813 0
M  V30 821 H 78.1101 2.56659 4.11523 0
M  V30 822 H 73.9891 1.37402 4.40047 0
M  V30 823 H 77.5331 4.75333 5.10592 0
M  V30 824 H 73.4301 3.55179 5.38997 0
M  V30 825 H 74.1981 5.52298 6.04077 0
M  V30 826 N 76.8612 -1.46375 0.584142 0
M  V30 827 C 77.8112 -2.27371 -0.169232 0
M  V30 828 C 78.7952 -1.35955 -0.860523 0
M  V30 829 O 79.9872 -1.60119 -0.754382 0
M  V30 830 C 77.1162 -3.22334 -1.18134 0
M  V30 831 C 76.2022 -4.21235 -0.492088 0
M  V30 832 N 76.5932 -5.03766 0.453129 0
M  V30 833 C 74.8912 -4.39773 -0.742652 0
M  V30 834 C 75.5922 -5.75366 0.85609 0
M  V30 835 N 74.5682 -5.43214 0.204926 0
M  V30 836 H 78.3702 -2.88572 0.557097 0
M  V30 837 H 75.8842 -1.57242 0.406042 0
M  V30 838 H 77.8812 -3.79071 -1.73525 0
M  V30 839 H 76.5412 -2.62693 -1.90847 0
M  V30 840 H 77.5522 -5.11227 0.828723 0
M  V30 841 H 74.2292 -3.91279 -1.45625 0
M  V30 842 H 75.6192 -6.5172 1.63434 0
M  V30 843 N 78.3393 -0.321999 -1.54275 0
M  V30 844 C 79.5863 0.281044 -2.0054 0
M  V30 845 C 79.9143 1.52265 -1.21019 0
M  V30 846 O 79.1693 1.93687 -0.279982 0
M  V30 847 C 79.4683 0.661769 -3.5122 0
M  V30 848 C 79.1343 -0.480482 -4.48333 0
M  V30 849 C 77.7963 -0.794005 -4.74604 0
M  V30 850 C 80.1483 -1.24783 -5.06042 0
M  V30 851 C 77.4763 -1.87763 -5.55844 0
M  V30 852 C 79.8283 -2.32153 -5.88462 0
M  V30 853 C 78.4923 -2.64089 -6.13036 0
M  V30 854 H 77.7623 0.102841 -0.733829 0
M  V30 855 H 80.4093 -0.445453 -1.86247 0
M  V30 856 H 78.7143 1.46867 -3.63232 0
M  V30 857 H 80.4113 1.13989 -3.84457 0
M  V30 858 H 77.0013 -0.226039 -4.28004 0
M  V30 859 H 81.1853 -1.01887 -4.85729 0
M  V30 860 H 76.4413 -2.12954 -5.73115 0
M  V30 861 H 80.6153 -2.92057 -6.32199 0
M  V30 862 H 78.2423 -3.48185 -6.75775 0
M  V30 863 N 79.8174 1.5752 -0.0501392 0
M  V30 864 C 81.0424 1.97376 0.636997 0
M  V30 865 C 81.4674 0.927466 1.63645 0
M  V30 866 O 80.8254 -0.10941 1.8097 0
M  V30 867 C 80.8734 3.36304 1.30123 0
M  V30 868 O 79.9774 3.34156 2.41689 0
M  V30 869 H 79.3184 0.642998 0.165679 0
M  V30 870 H 81.8484 2.04258 -0.118233 0
M  V30 871 H 81.8584 3.73008 1.65315 0
M  V30 872 H 80.5334 4.11993 0.568746 0
M  V30 873 H 79.1104 3.09196 2.08451 0
M  V30 874 N 81.2955 -0.223234 1.56011 0
M  V30 875 C 82.5355 -0.954962 1.8072 0
M  V30 876 C 82.8995 -1.81598 0.623384 0
M  V30 877 O 84.1005 -2.58132 0.749745 0
M  V30 878 C 82.3715 -1.77313 3.10314 0
M  V30 879 S 83.9305 -2.56073 3.56332 0
M  V30 880 H 80.7485 -0.320812 0.634508 0
M  V30 881 H 83.3505 -0.220686 1.9425 0
M  V30 882 H 82.0545 -1.13071 3.94516 0
M  V30 883 H 81.5855 -2.54974 2.99586 0
M  V30 884 H 83.6005 -3.79619 3.19536 0
M  V30 885 N 82.7736 -1.49793 -0.48987 0
M  V30 886 C 84.0206 -1.59841 -1.24327 0
M  V30 887 C 84.3486 -0.290135 -1.92324 0
M  V30 888 O 83.6036 0.722749 -1.81865 0
M  V30 889 C 83.9026 -2.71488 -2.32441 0
M  V30 890 C 83.5686 -4.12614 -1.81826 0
M  V30 891 C 82.2306 -4.51017 -1.67742 0
M  V30 892 C 84.5826 -5.00892 -1.4407 0
M  V30 893 C 81.9106 -5.75459 -1.14297 0
M  V30 894 C 84.2626 -6.25863 -0.920742 0
M  V30 895 C 82.9266 -6.63086 -0.766383 0
M  V30 896 H 82.1966 -0.584899 -0.454944 0
M  V30 897 H 84.8436 -1.83663 -0.542215 0
M  V30 898 H 83.1486 -2.4168 -3.0838 0
M  V30 899 H 84.8456 -2.76469 -2.90458 0
M  V30 900 H 81.4356 -3.82307 -1.93751 0
M  V30 901 H 85.6196 -4.7187 -1.53794 0
M  V30 902 H 80.8756 -6.02989 -1.01068 0
M  V30 903 H 85.0496 -6.9364 -0.619448 0
M  V30 904 H 82.6766 -7.59393 -0.350083 0
M  V30 905 N 84.2517 0.741722 -1.39055 0
M  V30 906 C 85.4977 1.50234 -1.37118 0
M  V30 907 C 85.8527 1.92368 0.0350439 0
M  V30 908 O 85.1457 1.63422 1.00019 0
M  V30 909 C 85.3397 2.7592 -2.27163 0
M  V30 910 C 85.1687 2.46074 -3.76401 0
M  V30 911 C 83.9387 2.38704 -4.45364 0
M  V30 912 C 86.1367 2.12062 -4.68545 0
M  V30 913 N 84.1187 2.01258 -5.79973 0
M  V30 914 C 85.4897 1.85005 -5.91754 0
M  V30 915 C 87.5447 1.98473 -4.56632 0
M  V30 916 C 86.2477 1.4573 -7.04383 0
M  V30 917 C 88.2737 1.60599 -5.69176 0
M  V30 918 C 87.6357 1.34423 -6.91455 0
M  V30 919 H 83.7347 0.548858 -0.557027 0
M  V30 920 H 86.3187 0.862642 -1.74547 0
M  V30 921 H 84.4897 3.3768 -1.91904 0
M  V30 922 H 86.2217 3.42068 -2.16267 0
M  V30 923 H 82.9767 2.55574 -3.98721 0
M  V30 924 H 83.4007 1.85147 -6.51191 0
M  V30 925 H 88.0427 2.17381 -3.62637 0
M  V30 926 H 85.7607 1.25562 -7.98286 0
M  V30 927 H 89.3467 1.507 -5.61944 0
M  V30 928 H 88.2267 1.05555 -7.77064 0
M  V30 929 N 85.7298 1.2412 0.971189 0
M  V30 930 C 86.6768 1.0305 2.06517 0
M  V30 931 C 87.6468 -0.0550666 1.66009 0
M  V30 932 O 88.8318 0.0988688 1.90544 0
M  V30 933 C 85.9718 0.637653 3.39158 0
M  V30 934 C 85.0848 1.79633 3.92882 0
M  V30 935 C 84.2198 1.34939 5.13775 0
M  V30 936 C 83.2588 2.47823 5.59687 0
M  V30 937 N 82.3958 2.04022 6.71803 0
M  V30 938 H 87.2358 1.96685 2.23873 0
M  V30 939 H 84.7728 0.979694 1.09729 0
M  V30 940 H 86.7308 0.390931 4.15364 0
M  V30 941 H 85.3608 -0.261693 3.21737 0
M  V30 942 H 84.4128 2.15681 3.13346 0
M  V30 943 H 85.7248 2.64466 4.22918 0
M  V30 944 H 84.8788 1.06134 5.97345 0
M  V30 945 H 83.6178 0.471557 4.85415 0
M  V30 946 H 82.6228 2.77392 4.74693 0
M  V30 947 H 83.8478 3.36158 5.90063 0
M  V30 948 H 81.7938 1.18632 6.45184 0
M  V30 949 H 81.7108 2.82409 7.01271 0
M  V30 950 H 82.9788 1.78347 7.58823 0
M  V30 951 N 87.2079 -1.17134 1.05439 0
M  V30 952 C 88.4539 -1.87733 0.767077 0
M  V30 953 C 88.7869 -1.8098 -0.704253 0
M  V30 954 O 88.0619 -1.21951 -1.5152 0
M  V30 955 C 88.3449 -3.37659 1.25133 0
M  V30 956 C 88.1979 -3.53149 2.78578 0
M  V30 957 C 89.5169 -4.31768 0.852324 0
M  V30 958 H 86.6359 -0.681687 0.280129 0
M  V30 959 H 89.2779 -1.37732 1.30881 0
M  V30 960 H 87.4279 -3.80373 0.790469 0
M  V30 961 H 89.0999 -3.19434 3.32806 0
M  V30 962 H 87.3429 -2.95345 3.17732 0
M  V30 963 H 88.0139 -4.58403 3.07523 0
M  V30 964 H 90.4899 -3.96909 1.24911 0
M  V30 965 H 89.3659 -5.35199 1.21873 0
M  V30 966 H 89.6269 -4.41429 -0.243485 0
M  V30 967 N 88.686 -0.835752 -1.33615 0
M  V30 968 C 89.934 -0.429109 -1.97492 0
M  V30 969 C 90.255 1.01433 -1.66543 0
M  V30 970 O 89.525 1.70611 -0.962744 0
M  V30 971 H 88.105 -0.155686 -0.730596 0
M  V30 972 H 90.767 -1.06802 -1.63031 0
M  V30 973 H 89.863 -0.55861 -3.0706 0
M  V30 974 N 90.1641 1.46063 -0.591896 0
M  V30 975 C 91.1141 2.27458 0.157172 0
M  V30 976 C 92.0981 1.3641 0.853301 0
M  V30 977 O 93.2901 1.60517 0.74588 0
M  V30 978 C 90.4191 3.22956 1.16423 0
M  V30 979 C 89.5051 4.2149 0.469742 0
M  V30 980 N 89.8961 5.03519 -0.479839 0
M  V30 981 C 88.1941 4.40161 0.719319 0
M  V30 982 C 88.8951 5.74904 -0.886591 0
M  V30 983 N 87.8711 5.43097 -0.233731 0
M  V30 984 H 91.6731 2.88272 -0.572392 0
M  V30 985 H 89.1871 1.57024 -0.414375 0
M  V30 986 H 91.1841 3.79986 1.71513 0
M  V30 987 H 89.8441 2.63701 1.89451 0
M  V30 988 H 90.8551 5.1078 -0.855823 0
M  V30 989 H 87.5321 3.92046 1.43548 0
M  V30 990 H 88.9221 6.50844 -1.66888 0
M  V30 991 N 91.6422 0.330177 1.54103 0
M  V30 992 C 92.8672 -0.274893 2.0557 0
M  V30 993 C 93.2922 -1.44487 1.20437 0
M  V30 994 O 92.6502 -1.80021 0.214991 0
M  V30 995 C 92.6982 -0.68079 3.54115 0
M  V30 996 O 91.8022 -1.7824 3.71893 0
M  V30 997 H 91.1432 -0.0483849 0.662235 0
M  V30 998 H 93.6732 0.480508 1.98878 0
M  V30 999 H 93.6832 -0.961635 3.96505 0
M  V30 1000 H 92.3582 0.174903 4.15532 0
M  V30 1001 H 90.9352 -1.49985 3.41407 0
M  V30 1002 N 93.1203 -1.57491 0.0584922 0
M  V30 1003 C 94.3693 -1.92155 -0.613146 0
M  V30 1004 C 94.6823 -0.939334 -1.71569 0
M  V30 1005 O 95.8883 -1.17829 -2.44599 0
M  V30 1006 C 94.3443 -3.41303 -1.14195 0
M  V30 1007 C 93.9523 -4.47944 -0.0711265 0
M  V30 1008 C 95.6963 -3.84988 -1.78841 0
M  V30 1009 C 93.6033 -5.88212 -0.613225 0
M  V30 1010 H 92.5333 -0.717162 -0.232796 0
M  V30 1011 H 95.1843 -1.83049 0.12857 0
M  V30 1012 H 93.5663 -3.45437 -1.93621 0
M  V30 1013 H 94.7403 -4.55408 0.702836 0
M  V30 1014 H 93.0553 -4.13644 0.478313 0
M  V30 1015 H 95.6523 -4.87159 -2.20408 0
M  V30 1016 H 95.9953 -3.21632 -2.64308 0
M  V30 1017 H 96.5283 -3.83401 -1.06059 0
M  V30 1018 H 93.2673 -6.55183 0.203978 0
M  V30 1019 H 92.7873 -5.84294 -1.35501 0
M  V30 1020 H 94.4663 -6.37687 -1.09383 0
M  V30 1021 N 94.5984 0.214957 -1.56127 0
M  V30 1022 C 96.0144 0.564948 -1.49267 0
M  V30 1023 C 96.2144 1.86827 -0.754838 0
M  V30 1024 O 95.2704 2.50745 -0.297198 0
M  V30 1025 C 96.5834 0.638071 -2.93852 0
M  V30 1026 C 98.1314 0.728253 -3.0441 0
M  V30 1027 C 98.6064 0.832663 -4.50367 0
M  V30 1028 N 100.097 0.896712 -4.54437 0
M  V30 1029 C 100.832 0.997324 -5.6466 0
M  V30 1030 N 100.328 1.06147 -6.8462 0
M  V30 1031 N 102.121 1.03297 -5.52527 0
M  V30 1032 H 94.2724 -0.640211 -2.02522 0
M  V30 1033 H 96.5354 -0.225507 -0.920788 0
M  V30 1034 H 96.2414 -0.250126 -3.50809 0
M  V30 1035 H 96.1154 1.49947 -3.46115 0
M  V30 1036 H 98.5024 1.60689 -2.47514 0
M  V30 1037 H 98.5834 -0.158952 -2.55306 0
M  V30 1038 H 98.2274 -0.0415417 -5.07883 0
M  V30 1039 H 98.1574 1.73538 -4.97184 0
M  V30 1040 H 100.648 0.857188 -3.6805 0
M  V30 1041 H 100.961 1.1382 -7.64372 0
M  V30 1042 H 99.3064 1.03049 -6.87318 0
M  V30 1043 H 102.497 0.979558 -4.57736 0
M  V30 1044 H 102.67 1.10793 -6.38458 0
M  V30 1045 N 96.0765 1.50051 0.48192 0
M  V30 1046 C 97.0265 1.64512 1.5786 0
M  V30 1047 C 98.0105 0.500073 1.52932 0
M  V30 1048 O 99.2025 0.753964 1.60139 0
M  V30 1049 C 96.3315 1.73263 2.9637 0
M  V30 1050 C 95.4175 2.93409 3.06222 0
M  V30 1051 N 95.8085 4.17236 2.85915 0
M  V30 1052 C 94.1065 2.91742 3.37346 0
M  V30 1053 C 94.8075 4.981 3.00451 0
M  V30 1054 N 93.7835 4.3184 3.30174 0
M  V30 1055 H 97.5855 2.57955 1.40842 0
M  V30 1056 H 95.0995 1.47086 0.688439 0
M  V30 1057 H 97.0965 1.81724 3.75209 0
M  V30 1058 H 95.7565 0.809711 3.14442 0
M  V30 1059 H 96.7675 4.46909 2.6171 0
M  V30 1060 H 93.4445 2.08907 3.61475 0
M  V30 1061 H 94.8345 6.06532 2.89082 0
M  V30 1062 N 97.5546 -0.734337 1.39446 0
M  V30 1063 C 98.9656 -1.31264 1.32766 0
M  V30 1064 C 99.3166 -1.96198 -0.00767497 0
M  V30 1065 O 98.4416 -1.96346 -0.909796 0
M  V30 1066 C 99.0366 -2.38682 2.4045 0
M  V30 1067 C 97.5956 -2.92184 2.37288 0
M  V30 1068 C 96.7426 -1.6576 2.22304 0
M  V30 1069 H 99.6936 -0.531799 1.49525 0
M  V30 1070 H 99.7146 -3.19087 2.07276 0
M  V30 1071 H 99.2266 -1.91392 3.37625 0
M  V30 1072 H 97.3276 -3.43752 1.43754 0
M  V30 1073 H 97.4406 -3.45253 3.3217 0
M  V30 1074 H 95.8046 -1.9012 1.69489 0
M  V30 1075 H 96.5876 -1.20521 3.21449 0
M  V30 1076 N 99.0327 -1.24633 -0.964593 0
M  V30 1077 C 100.31 -0.995809 -1.68354 0
M  V30 1078 C 100.69 0.480964 -2.05548 0
M  V30 1079 O 100.038 1.45599 -1.76105 0
M  V30 1080 C 100.248 -1.92177 -2.91323 0
M  V30 1081 C 101.596 -2.19446 -3.63495 0
M  V30 1082 O 102.62 -1.89855 -3.01386 0
M  V30 1083 O 101.479 -2.69714 -4.75307 0
M  V30 1084 H 98.5727 -0.376854 -0.736146 0
M  V30 1085 H 101.119 -1.35745 -1.0184 0
M  V30 1086 H 99.8907 -2.91938 -2.60553 0
M  V30 1087 H 99.5137 -1.56349 -3.65569 0
M  V30 1088 N 100.511 1.16574 -1.06058 0
M  V30 1089 C 101.757 1.87324 -0.777022 0
M  V30 1090 C 102.09 1.81351 0.694645 0
M  V30 1091 O 101.365 1.22753 1.50871 0
M  V30 1092 C 101.648 3.36991 -1.26922 0
M  V30 1093 C 101.501 3.51667 -2.80447 0
M  V30 1094 C 102.82 4.3131 -0.87521 0
M  V30 1095 H 99.9388 0.680191 -0.28374 0
M  V30 1096 H 102.581 1.37036 -1.3161 0
M  V30 1097 H 100.731 3.79949 -0.81063 0
M  V30 1098 H 102.403 3.17664 -3.34495 0
M  V30 1099 H 100.646 2.93656 -3.19294 0
M  V30 1100 H 101.317 4.56766 -3.0995 0
M  V30 1101 H 103.793 3.9624 -1.27014 0
M  V30 1102 H 102.669 5.34545 -1.2471 0
M  V30 1103 H 102.93 4.41552 0.220071 0
M  V30 1104 N 101.989 0.842826 1.3317 0
M  V30 1105 C 102.899 0.281444 2.32906 0
M  V30 1106 C 103.915 -0.594587 1.63526 0
M  V30 1107 O 105.091 -0.49777 1.95152 0
M  V30 1108 C 102.156 -0.530929 3.42611 0
M  V30 1109 C 101.217 0.369843 4.27704 0
M  V30 1110 C 100.45 -0.403853 5.3217 0
M  V30 1111 O 100.673 -1.63513 5.46461 0
M  V30 1112 O 99.6069 0.224199 6.01482 0
M  V30 1113 H 103.433 1.10744 2.82789 0
M  V30 1114 H 101.018 0.60545 1.36582 0
M  V30 1115 H 102.9 -0.992437 4.09547 0
M  V30 1116 H 101.575 -1.33392 2.94938 0
M  V30 1117 H 100.482 0.879275 3.6362 0
M  V30 1118 H 101.815 1.13771 4.78871 0
M  V30 1119 N 103.467 -1.45747 0.599634 0
M  V30 1120 C 104.713 -2.02592 0.0918643 0
M  V30 1121 C 105.046 -1.46806 -1.27128 0
M  V30 1122 O 104.321 -0.639658 -1.83681 0
M  V30 1123 C 104.604 -3.60073 0.0443398 0
M  V30 1124 C 104.457 -4.26208 1.43759 0
M  V30 1125 C 105.776 -4.35309 -0.647608 0
M  V30 1126 H 102.895 -0.736175 0.034857 0
M  V30 1127 H 105.537 -1.73694 0.770081 0
M  V30 1128 H 103.687 -3.84823 -0.533224 0
M  V30 1129 H 105.359 -4.12668 2.06162 0
M  V30 1130 H 103.602 -3.84916 2.00056 0
M  V30 1131 H 104.273 -5.35069 1.35665 0
M  V30 1132 H 106.749 -4.15805 -0.156776 0
M  V30 1133 H 105.625 -5.45038 -0.649942 0
M  V30 1134 H 105.886 -4.07598 -1.71219 0
M  V30 1135 N 104.945 -0.338344 -1.53925 0
M  V30 1136 C 106.222 0.314774 -1.93051 0
M  V30 1137 C 106.602 1.68669 -1.26941 0
M  V30 1138 O 105.95 2.24636 -0.418445 0
M  V30 1139 C 106.16 0.392249 -3.46789 0
M  V30 1140 C 107.508 0.645554 -4.19664 0
M  V30 1141 O 108.532 0.474575 -3.53024 0
M  V30 1142 O 107.391 0.976408 -5.37707 0
M  V30 1143 H 104.485 0.182598 -0.80659 0
M  V30 1144 H 107.031 -0.389141 -1.65178 0
M  V30 1145 H 105.803 -0.570702 -3.87116 0
M  V30 1146 H 105.426 1.14316 -3.80812 0
M  V30 1147 N 106.423 1.57458 -0.0668435 0
M  V30 1148 C 107.671 1.92919 0.602214 0
M  V30 1149 C 107.992 0.947215 1.70449 0
M  V30 1150 O 107.262 -0.00544117 1.95899 0
M  V30 1151 H 105.842 0.71217 0.22544 0
M  V30 1152 H 108.504 1.94508 -0.123535 0
M  V30 1153 H 107.6 2.94589 1.03073 0
M  V30 1154 N 107.901 -0.206675 1.56239 0
M  V30 1155 C 109.148 -0.928842 1.79941 0
M  V30 1156 C 109.476 -1.83734 0.638131 0
M  V30 1157 O 108.731 -1.92039 -0.376746 0
M  V30 1158 C 109.03 -1.78675 3.09532 0
M  V30 1159 C 108.696 -1.03022 4.38973 0
M  V30 1160 C 107.358 -0.821302 4.74139 0
M  V30 1161 C 109.71 -0.497081 5.18824 0
M  V30 1162 C 107.038 -0.0675719 5.86661 0
M  V30 1163 C 109.39 0.24338 6.32132 0
M  V30 1164 C 108.054 0.463422 6.65889 0
M  V30 1165 H 107.324 -0.339887 0.658451 0
M  V30 1166 H 109.971 -0.195977 1.90495 0
M  V30 1167 H 108.276 -2.58794 2.94165 0
M  V30 1168 H 109.973 -2.34792 3.25075 0
M  V30 1169 H 106.563 -1.20306 4.11369 0
M  V30 1170 H 110.747 -0.645921 4.92079 0
M  V30 1171 H 106.003 0.112995 6.11296 0
M  V30 1172 H 110.177 0.66393 6.93228 0
M  V30 1173 H 107.804 1.04938 7.52922 0
M  V30 1174 N 109.379 -1.50304 -0.473955 0
M  V30 1175 C 110.604 -1.65175 -1.25427 0
M  V30 1176 C 111.029 -0.333673 -1.85117 0
M  V30 1177 O 110.387 0.702114 -1.67153 0
M  V30 1178 C 110.435 -2.74295 -2.34082 0
M  V30 1179 O 109.539 -2.35349 -3.38651 0
M  V30 1180 H 108.88 -0.551944 -0.369126 0
M  V30 1181 H 111.41 -1.96662 -0.564364 0
M  V30 1182 H 111.42 -2.97285 -2.79438 0
M  V30 1183 H 110.095 -3.69959 -1.90008 0
M  V30 1184 H 108.672 -2.22794 -2.99027 0
M  V30 1185 N 110.857 0.726932 -1.39834 0
M  V30 1186 C 111.767 1.87131 -1.41489 0
M  V30 1187 C 112.783 1.71239 -0.308757 0
M  V30 1188 O 113.959 1.93701 -0.551529 0
M  V30 1189 C 111.024 3.22811 -1.26468 0
M  V30 1190 C 110.085 3.51039 -2.47124 0
M  V30 1191 C 109.318 4.80245 -2.3281 0
M  V30 1192 O 109.541 5.54537 -1.33585 0
M  V30 1193 O 108.475 5.08554 -3.21957 0
M  V30 1194 H 112.301 1.8869 -2.3797 0
M  V30 1195 H 109.886 0.875837 -1.21035 0
M  V30 1196 H 111.768 4.03877 -1.20255 0
M  V30 1197 H 110.443 3.22005 -0.330862 0
M  V30 1198 H 109.35 2.70027 -2.58914 0
M  V30 1199 H 110.683 3.56632 -3.39227 0
M  V30 1200 N 112.336 1.25143 0.95797 0
M  V30 1201 C 113.266 1.07711 2.07173 0
M  V30 1202 C 114.247 -0.0128462 1.70095 0
M  V30 1203 O 115.432 0.156061 1.93572 0
M  V30 1204 C 112.562 0.691503 3.40346 0
M  V30 1205 C 111.516 1.73132 3.9142 0
M  V30 1206 C 110.842 1.20049 5.21049 0
M  V30 1207 C 112.142 3.1294 4.1817 0
M  V30 1208 H 113.836 2.00873 2.22014 0
M  V30 1209 H 111.382 0.967191 1.06684 0
M  V30 1210 H 113.335 0.556505 4.17709 0
M  V30 1211 H 112.059 -0.275819 3.25433 0
M  V30 1212 H 110.718 1.8547 3.16222 0
M  V30 1213 H 110.366 0.223499 5.02503 0
M  V30 1214 H 110.066 1.89545 5.56189 0
M  V30 1215 H 111.59 1.07782 6.01012 0
M  V30 1216 H 113.004 3.03775 4.86203 0
M  V30 1217 H 111.401 3.79875 4.64559 0
M  V30 1218 H 112.471 3.6025 3.24573 0
M  V30 1219 N 113.814 -1.1601 1.06675 0
M  V30 1220 C 115.23 -1.38622 0.790948 0
M  V30 1221 C 115.43 -1.92109 -0.607965 0
M  V30 1222 O 114.486 -2.12239 -1.36787 0
M  V30 1223 C 115.799 -2.36347 1.85905 0
M  V30 1224 C 117.347 -2.50023 1.88301 0
M  V30 1225 C 117.822 -3.51033 2.94176 0
M  V30 1226 N 119.313 -3.58563 2.93235 0
M  V30 1227 C 120.048 -4.36521 3.71803 0
M  V30 1228 N 119.544 -5.17869 4.602 0
M  V30 1229 N 121.337 -4.31541 3.60178 0
M  V30 1230 H 113.488 -0.796294 1.96908 0
M  V30 1231 H 115.751 -0.412597 0.853503 0
M  V30 1232 H 115.457 -2.04147 2.86386 0
M  V30 1233 H 115.331 -3.36042 1.71334 0
M  V30 1234 H 117.718 -2.81524 0.884769 0
M  V30 1235 H 117.799 -1.5035 2.06951 0
M  V30 1236 H 117.443 -3.20268 3.94196 0
M  V30 1237 H 117.373 -4.50445 2.72776 0
M  V30 1238 H 119.864 -3.00496 2.29152 0
M  V30 1239 H 120.177 -5.74578 5.16797 0
M  V30 1240 H 118.522 -5.17199 4.64253 0
M  V30 1241 H 121.713 -3.67051 2.90502 0
M  V30 1242 H 121.886 -4.9205 4.21653 0
M  V30 1243 N 115.292 -0.849877 -1.32721 0
M  V30 1244 C 116.538 -0.460855 -1.9811 0
M  V30 1245 C 116.893 0.971716 -1.66059 0
M  V30 1246 O 116.186 1.67184 -0.935944 0
M  V30 1247 C 116.38 -0.631272 -3.51781 0
M  V30 1248 C 116.209 -2.07886 -3.98765 0
M  V30 1249 C 114.979 -2.71637 -4.26077 0
M  V30 1250 C 117.177 -3.04889 -4.14182 0
M  V30 1251 N 115.159 -4.07356 -4.59276 0
M  V30 1252 C 116.53 -4.25583 -4.50865 0
M  V30 1253 C 118.585 -3.01148 -3.96503 0
M  V30 1254 C 117.288 -5.43027 -4.71714 0
M  V30 1255 C 119.314 -4.17832 -4.18533 0
M  V30 1256 C 118.676 -5.37284 -4.55528 0
M  V30 1257 H 114.775 -0.217283 -0.751207 0
M  V30 1258 H 117.359 -1.10026 -1.60631 0
M  V30 1259 H 115.53 -0.0215966 -3.88394 0
M  V30 1260 H 117.262 -0.212614 -4.04141 0
M  V30 1261 H 114.017 -2.22705 -4.17971 0
M  V30 1262 H 114.441 -4.77351 -4.80068 0
M  V30 1263 H 119.083 -2.0992 -3.67006 0
M  V30 1264 H 116.801 -6.34791 -5.00066 0
M  V30 1265 H 120.387 -4.16368 -4.06361 0
M  V30 1266 H 119.267 -6.26071 -4.72234 0
M  V30 1267 N 116.77 1.45427 -0.607355 0
M  V30 1268 C 118.047 1.9557 -0.0344566 0
M  V30 1269 C 118.427 1.54979 1.43334 0
M  V30 1270 O 117.775 0.812241 2.13576 0
M  V30 1271 C 117.985 3.48226 -0.232321 0
M  V30 1272 C 119.333 4.2445 -0.113001 0
M  V30 1273 O 120.357 3.55829 -0.162431 0
M  V30 1274 O 119.216 5.465 0.00209442 0
M  V30 1275 H 116.31 0.826222 0.0358667 0
M  V30 1276 H 118.856 1.55594 -0.6774 0
M  V30 1277 H 117.628 3.70739 -1.25174 0
M  V30 1278 H 117.251 3.95092 0.445896 0
M  V30 1279 N 118.248 0.346503 1.53744 0
M  V30 1280 C 119.525 -0.304532 1.93215 0
M  V30 1281 C 119.905 -1.67993 1.27834 0
M  V30 1282 O 119.253 -2.24411 0.430352 0
M  V30 1283 C 119.463 -0.373852 3.46992 0
M  V30 1284 C 120.811 -0.62329 4.2 0
M  V30 1285 O 121.835 -0.455847 3.53271 0
M  V30 1286 O 120.694 -0.947879 5.38217 0
M  V30 1287 H 117.788 -0.178318 0.807547 0
M  V30 1288 H 120.334 0.397895 1.64969 0
M  V30 1289 H 119.106 0.591224 3.86808 0
M  V30 1290 H 118.729 -1.12294 3.81413 0
M  V30 1291 N 119.726 -1.57421 0.075193 0
M  V30 1292 C 120.658 -2.09904 -0.920483 0
M  V30 1293 C 121.671 -1.03191 -1.25918 0
M  V30 1294 O 122.86 -1.30695 -1.21577 0
M  V30 1295 C 119.96 -2.54726 -2.23534 0
M  V30 1296 C 119.133 -3.8505 -2.07498 0
M  V30 1297 C 118.192 -4.15929 -3.22319 0
M  V30 1298 O 117.218 -4.85474 -2.9716 0
M  V30 1299 N 118.42 -3.69745 -4.47514 0
M  V30 1300 H 121.185 -2.95954 -0.472359 0
M  V30 1301 H 118.746 -1.61523 -0.110444 0
M  V30 1302 H 120.738 -2.72443 -2.9926 0
M  V30 1303 H 119.308 -1.73795 -2.59835 0
M  V30 1304 H 118.528 -3.76679 -1.16219 0
M  V30 1305 H 119.816 -4.70348 -1.94038 0
M  V30 1306 H 119.214 -3.13569 -4.7084 0
M  V30 1307 H 117.771 -3.92655 -5.20255 0
M  V30 1308 N 121.204 0.198386 -1.56346 0
M  V30 1309 C 122.136 1.26987 -1.90806 0
M  V30 1310 C 123.149 1.41877 -0.798419 0
M  V30 1311 O 124.338 1.42362 -1.07682 0
M  V30 1312 C 121.438 2.64246 -2.12196 0
M  V30 1313 C 120.611 2.71007 -3.43328 0
M  V30 1314 C 119.67 3.89439 -3.5387 0
M  V30 1315 O 118.696 3.76695 -4.26719 0
M  V30 1316 N 119.898 5.04752 -2.86715 0
M  V30 1317 H 122.663 0.977433 -2.83313 0
M  V30 1318 H 120.224 0.388322 -1.57174 0
M  V30 1319 H 122.216 3.41896 -2.1654 0
M  V30 1320 H 120.786 2.85992 -1.26204 0
M  V30 1321 H 120.006 1.79657 -3.50881 0
M  V30 1322 H 121.294 2.72512 -4.29668 0
M  V30 1323 H 120.692 5.18004 -2.2735 0
M  V30 1324 H 119.249 5.8036 -2.96691 0
M  V30 1325 N 122.682 1.50554 0.465978 0
M  V30 1326 C 123.629 1.6979 1.56333 0
M  V30 1327 C 124.599 0.539239 1.57103 0
M  V30 1328 O 125.784 0.770401 1.74555 0
M  V30 1329 C 122.924 1.80273 2.94271 0
M  V30 1330 C 122.037 3.07674 3.0325 0
M  V30 1331 C 121.172 3.08922 4.32135 0
M  V30 1332 C 120.211 4.30755 4.34875 0
M  V30 1333 N 119.348 4.29714 5.55239 0
M  V30 1334 H 124.188 2.63472 1.39235 0
M  V30 1335 H 121.725 1.30602 0.676873 0
M  V30 1336 H 123.683 1.84332 3.74269 0
M  V30 1337 H 122.313 0.900258 3.09992 0
M  V30 1338 H 121.365 3.13062 2.16094 0
M  V30 1339 H 122.677 3.97642 3.01135 0
M  V30 1340 H 121.831 3.11738 5.20485 0
M  V30 1341 H 120.57 2.16792 4.36866 0
M  V30 1342 H 119.575 4.28146 3.44922 0
M  V30 1343 H 120.8 5.24117 4.31831 0
M  V30 1344 H 118.746 3.4044 5.60746 0
M  V30 1345 H 118.663 5.13456 5.54886 0
M  V30 1346 H 119.931 4.36683 6.457 0
M  V30 1347 N 124.16 -0.719506 1.40217 0
M  V30 1348 C 125.406 -1.48152 1.38488 0
M  V30 1349 C 125.739 -1.94195 -0.0141867 0
M  V30 1350 O 125.014 -1.67884 -0.982096 0
M  V30 1351 C 125.297 -2.71035 2.37091 0
M  V30 1352 C 125.15 -2.30912 3.86005 0
M  V30 1353 C 126.469 -3.73182 2.33288 0
M  V30 1354 H 123.588 -0.537395 0.504357 0
M  V30 1355 H 126.23 -0.821472 1.71324 0
M  V30 1356 H 124.38 -3.27352 2.0922 0
M  V30 1357 H 126.052 -1.80107 4.24687 0
M  V30 1358 H 124.295 -1.62958 4.02029 0
M  V30 1359 H 124.966 -3.18978 4.50508 0
M  V30 1360 H 127.442 -3.26485 2.57966 0
M  V30 1361 H 126.318 -4.56806 3.04334 0
M  V30 1362 H 126.579 -4.21202 1.34317 0
M  V30 1363 N 125.638 -1.25649 -0.95132 0
M  V30 1364 C 126.585 -1.06323 -2.04851 0
M  V30 1365 C 127.555 0.0286491 -1.66075 0
M  V30 1366 O 128.74 -0.12917 -1.90362 0
M  V30 1367 C 125.88 -0.691529 -3.381 0
M  V30 1368 C 124.993 -1.85861 -3.89974 0
M  V30 1369 C 124.128 -1.43096 -5.11563 0
M  V30 1370 C 123.167 -2.56696 -5.55674 0
M  V30 1371 N 122.304 -2.14684 -6.68472 0
M  V30 1372 H 127.144 -2.00222 -2.20715 0
M  V30 1373 H 124.681 -0.997027 -1.08156 0
M  V30 1374 H 126.639 -0.456963 -4.1469 0
M  V30 1375 H 125.269 0.210474 -3.22113 0
M  V30 1376 H 124.321 -2.20639 -3.09875 0
M  V30 1377 H 125.633 -2.71161 -4.18657 0
M  V30 1378 H 124.787 -1.15624 -5.9558 0
M  V30 1379 H 123.526 -0.548722 -4.84603 0
M  V30 1380 H 122.531 -2.84909 -4.7022 0
M  V30 1381 H 123.756 -3.45503 -5.8464 0
M  V30 1382 H 121.702 -1.28881 -6.43215 0
M  V30 1383 H 121.619 -2.9353 -6.96689 0
M  V30 1384 H 122.887 -1.90397 -7.5589 0
M  V30 1385 N 127.117 1.15442 -1.07289 0
M  V30 1386 C 128.064 2.20161 -0.692653 0
M  V30 1387 C 129.034 1.63073 0.31564 0
M  V30 1388 O 130.219 1.89725 0.202235 0
M  V30 1389 C 127.359 3.44967 -0.0959509 0
M  V30 1390 C 126.472 4.16256 -1.15564 0
M  V30 1391 C 125.607 5.28609 -0.524011 0
M  V30 1392 C 124.646 5.91715 -1.56653 0
M  V30 1393 N 123.783 6.9554 -0.957531 0
M  V30 1394 H 128.623 2.52037 -1.59002 0
M  V30 1395 H 126.16 1.2378 -0.794798 0
M  V30 1396 H 128.118 4.16341 0.267628 0
M  V30 1397 H 126.748 3.1361 0.764772 0
M  V30 1398 H 125.8 3.43385 -1.6368 0
M  V30 1399 H 127.112 4.59268 -1.94613 0
M  V30 1400 H 126.266 6.06604 -0.108032 0
M  V30 1401 H 125.005 4.86787 0.29825 0
M  V30 1402 H 124.01 5.12433 -1.9923 0
M  V30 1403 H 125.235 6.35614 -2.39107 0
M  V30 1404 H 123.181 6.55814 -0.156162 0
M  V30 1405 H 123.098 7.36977 -1.68526 0
M  V30 1406 H 124.366 7.77435 -0.567032 0
M  V30 1407 N 128.595 0.856903 1.32268 0
M  V30 1408 C 129.823 0.475439 2.01363 0
M  V30 1409 C 130.238 -0.928486 1.64392 0
M  V30 1410 O 129.595 -1.60624 0.866387 0
M  V30 1411 C 129.646 0.607545 3.56358 0
M  V30 1412 O 129.367 1.95617 3.92002 0
M  V30 1413 C 130.868 0.225382 4.42727 0
M  V30 1414 H 128.088 0.186636 0.644521 0
M  V30 1415 H 130.632 1.15446 1.68797 0
M  V30 1416 H 128.787 -0.0237719 3.87393 0
M  V30 1417 H 129.201 1.95455 4.86721 0
M  V30 1418 H 130.675 0.368813 5.50767 0
M  V30 1419 H 131.152 -0.834369 4.31202 0
M  V30 1420 H 131.758 0.831864 4.17085 0
M  V30 1421 N 130.073 -1.45103 0.615059 0
M  V30 1422 C 131.036 -2.29025 -0.0895485 0
M  V30 1423 C 132.036 -1.40174 -0.787906 0
M  V30 1424 O 133.226 -1.62217 -0.634933 0
M  V30 1425 C 130.358 -3.21376 -1.13711 0
M  V30 1426 H 131.551 -2.92807 0.648382 0
M  V30 1427 H 129.104 -1.51749 0.374444 0
M  V30 1428 H 129.839 -2.6241 -1.90556 0
M  V30 1429 H 129.624 -3.86834 -0.640475 0
M  V30 1430 H 131.114 -3.84459 -1.63036 0
M  V30 1431 N 131.551 -0.354651 -1.53558 0
M  V30 1432 C 132.461 0.50515 -2.29097 0
M  V30 1433 C 133.477 1.10223 -1.34636 0
M  V30 1434 O 134.653 1.11553 -1.67684 0
M  V30 1435 C 131.718 1.63479 -3.05738 0
M  V30 1436 C 130.779 1.06636 -4.15845 0
M  V30 1437 C 130.012 2.14217 -4.88822 0
M  V30 1438 O 130.235 3.35137 -4.61562 0
M  V30 1439 O 129.169 1.77887 -5.75013 0
M  V30 1440 H 132.995 -0.109237 -3.03503 0
M  V30 1441 H 130.58 -0.119357 -1.48922 0
M  V30 1442 H 132.462 2.2918 -3.5363 0
M  V30 1443 H 131.137 2.23478 -2.34178 0
M  V30 1444 H 130.044 0.373565 -3.7223 0
M  V30 1445 H 131.377 0.511081 -4.89539 0
M  V30 1446 N 133.029 1.57378 -0.0835403 0
M  V30 1447 C 133.992 2.12252 0.864959 0
M  V30 1448 C 134.992 1.04916 1.21858 0
M  V30 1449 O 136.182 1.30853 1.14991 0
M  V30 1450 C 133.314 2.63358 2.16461 0
M  V30 1451 H 134.507 2.97371 0.388676 0
M  V30 1452 H 132.06 1.55423 0.165317 0
M  V30 1453 H 132.795 1.81727 2.686 0
M  V30 1454 H 132.58 3.41826 1.92087 0
M  V30 1455 H 134.07 3.05847 2.84337 0
M  V30 1456 N 134.507 -0.190092 1.56449 0
M  V30 1457 C 135.755 -0.907908 1.80559 0
M  V30 1458 C 136.076 -1.83583 0.657438 0
M  V30 1459 O 135.346 -1.93203 -0.323924 0
M  V30 1460 H 133.926 -0.338247 0.666032 0
M  V30 1461 H 136.588 -0.194403 1.93928 0
M  V30 1462 H 135.684 -1.49604 2.73907 0
M  V30 1463 N 135.985 -1.50799 -0.457987 0
M  V30 1464 C 137.233 -1.62121 -1.2067 0
M  V30 1465 C 137.554 -0.329793 -1.92191 0
M  V30 1466 O 136.824 0.653409 -1.84682 0
M  V30 1467 H 135.404 -0.597441 -0.448411 0
M  V30 1468 H 138.066 -1.87637 -0.527096 0
M  V30 1469 H 137.162 -2.43882 -1.94751 0
M  V30 1470 N 137.463 0.71206 -1.40597 0
M  V30 1471 C 138.709 1.47416 -1.39271 0
M  V30 1472 C 139.042 1.942 0.00388791 0
M  V30 1473 O 138.317 1.68403 0.973179 0
M  V30 1474 C 138.6 2.69774 -2.38525 0
M  V30 1475 C 138.453 2.28861 -3.87224 0
M  V30 1476 C 139.772 3.71939 -2.35264 0
M  V30 1477 H 136.891 0.534713 -0.5072 0
M  V30 1478 H 139.533 0.812375 -1.71757 0
M  V30 1479 H 137.683 3.26238 -2.10953 0
M  V30 1480 H 139.355 1.77852 -4.25636 0
M  V30 1481 H 137.598 1.60824 -4.02887 0
M  V30 1482 H 138.269 3.16584 -4.52193 0
M  V30 1483 H 140.745 3.25113 -2.59694 0
M  V30 1484 H 139.621 4.55186 -3.06753 0
M  V30 1485 H 139.882 4.20484 -1.36549 0
M  V30 1486 N 138.941 1.26152 0.944643 0
M  V30 1487 C 140.169 1.14259 1.72489 0
M  V30 1488 C 140.584 -0.302555 1.8636 0
M  V30 1489 O 139.941 -1.20741 1.36849 0
M  V30 1490 C 139.992 1.80266 3.13347 0
M  V30 1491 O 139.713 3.19133 3.00143 0
M  V30 1492 C 141.214 1.74283 4.07603 0
M  V30 1493 H 138.434 0.398051 0.540181 0
M  V30 1494 H 140.978 1.66706 1.18446 0
M  V30 1495 H 139.133 1.31766 3.64303 0
M  V30 1496 H 139.547 3.51744 3.89071 0
M  V30 1497 H 141.021 2.25111 5.04013 0
M  V30 1498 H 141.498 0.708631 4.33446 0
M  V30 1499 H 142.104 2.22319 3.62567 0
M  V30 1500 N 140.419 -1.14872 1.07899 0
M  V30 1501 C 141.667 -1.85422 0.803941 0
M  V30 1502 C 141.988 -1.83051 -0.67211 0
M  V30 1503 O 141.258 -1.27532 -1.48703 0
M  V30 1504 H 139.838 -0.686537 0.294408 0
M  V30 1505 H 142.5 -1.39226 1.3639 0
M  V30 1506 H 141.596 -2.90399 1.14346 0
M  V30 1507 N 141.898 -0.863906 -1.31812 0
M  V30 1508 C 142.845 -0.313303 -2.28664 0
M  V30 1509 C 143.815 0.584868 -1.55462 0
M  V30 1510 O 145 0.517805 -1.83639 0
M  V30 1511 C 142.14 0.48441 -3.41683 0
M  V30 1512 C 141.253 -0.440594 -4.29747 0
M  V30 1513 C 140.388 0.370652 -5.29905 0
M  V30 1514 C 139.427 -0.551164 -6.09613 0
M  V30 1515 N 138.564 0.223462 -7.01744 0
M  V30 1516 H 143.404 -1.14444 -2.75148 0
M  V30 1517 H 140.941 -0.575769 -1.35364 0
M  V30 1518 H 142.899 0.962627 -4.05943 0
M  V30 1519 H 141.529 1.28029 -2.96325 0
M  V30 1520 H 140.581 -1.03724 -3.65986 0
M  V30 1521 H 141.893 -1.14767 -4.85417 0
M  V30 1522 H 141.047 0.911638 -5.99812 0
M  V30 1523 H 139.786 1.11105 -4.74876 0
M  V30 1524 H 138.791 -1.10396 -5.38603 0
M  V30 1525 H 140.016 -1.29032 -6.66729 0
M  V30 1526 H 137.962 0.946787 -6.49132 0
M  V30 1527 H 137.879 -0.424399 -7.54808 0
M  V30 1528 H 139.147 0.745876 -7.75923 0
M  V30 1529 N 143.376 1.44774 -0.622745 0
M  V30 1530 C 144.624 2.01721 -0.123655 0
M  V30 1531 C 144.945 1.49172 1.25589 0
M  V30 1532 O 144.215 0.691974 1.83272 0
M  V30 1533 H 142.795 0.745777 -0.0427225 0
M  V30 1534 H 145.457 1.77382 -0.807559 0
M  V30 1535 H 144.553 3.11984 -0.0849534 0
M  V30 1536 N 144.854 0.36279 1.53368 0
M  V30 1537 C 145.786 -0.519668 2.23231 0
M  V30 1538 C 146.799 -1.04844 1.24546 0
M  V30 1539 O 147.988 -0.955296 1.50786 0
M  V30 1540 C 145.088 -1.72995 2.9142 0
M  V30 1541 C 144.261 -1.33316 4.16588 0
M  V30 1542 C 143.32 -2.40521 4.68013 0
M  V30 1543 O 142.346 -2.03027 5.3176 0
M  V30 1544 N 143.548 -3.72065 4.45587 0
M  V30 1545 H 146.313 0.078751 2.99597 0
M  V30 1546 H 143.874 0.187833 1.60807 0
M  V30 1547 H 145.866 -2.44184 3.22733 0
M  V30 1548 H 144.436 -2.2353 2.18525 0
M  V30 1549 H 143.656 -0.451236 3.91609 0
M  V30 1550 H 144.944 -1.04432 4.97967 0
M  V30 1551 H 144.342 -4.05304 3.94646 0
M  V30 1552 H 142.899 -4.39366 4.81457 0
M  V30 1553 N 146.332 -1.57332 0.0918853 0
M  V30 1554 C 147.609 -1.85691 -0.614668 0
M  V30 1555 C 147.989 -0.988146 -1.86545 0
M  V30 1556 O 147.337 -0.0597055 -2.28422 0
M  V30 1557 C 147.547 -3.36294 -0.933126 0
M  V30 1558 C 148.895 -4.04275 -1.29796 0
M  V30 1559 O 149.919 -3.41157 -1.02424 0
M  V30 1560 O 148.778 -5.1564 -1.81047 0
M  V30 1561 H 145.872 -0.767802 -0.307261 0
M  V30 1562 H 148.418 -1.69244 0.12434 0
M  V30 1563 H 147.19 -3.91273 -0.0456404 0
M  V30 1564 H 146.813 -3.58076 -1.72822 0
M  V30 1565 N 147.81 0.181792 -1.56548 0
M  V30 1566 C 149.058 0.89832 -1.81038 0
M  V30 1567 C 149.379 1.83232 -0.667164 0
M  V30 1568 O 148.649 1.93372 0.313673 0
M  V30 1569 H 147.229 0.33471 -0.667816 0
M  V30 1570 H 149.891 0.184116 -1.94028 0
M  V30 1571 H 148.987 1.4815 -2.74696 0
M  V30 1572 N 149.288 1.51039 0.449983 0
M  V30 1573 C 150.537 1.62317 1.19733 0
M  V30 1574 C 150.85 0.339101 1.92638 0
M  V30 1575 O 152.056 0.331069 2.69474 0
M  V30 1576 C 150.512 2.86608 2.17678 0
M  V30 1577 C 150.12 4.21972 1.50479 0
M  V30 1578 C 151.864 3.07239 2.92924 0
M  V30 1579 C 149.771 5.37426 2.46834 0
M  V30 1580 H 148.701 0.604532 0.450619 0
M  V30 1581 H 151.352 1.77494 0.465625 0
M  V30 1582 H 149.734 2.65037 2.94231 0
M  V30 1583 H 150.908 4.53878 0.795716 0
M  V30 1584 H 149.223 4.07117 0.874344 0
M  V30 1585 H 151.82 3.90668 3.65079 0
M  V30 1586 H 152.163 2.19807 3.5354 0
M  V30 1587 H 152.696 3.29091 2.23481 0
M  V30 1588 H 149.435 6.27079 1.90926 0
M  V30 1589 H 148.955 5.09912 3.15832 0
M  V30 1590 H 150.634 5.68862 3.08228 0
M  V30 1591 N 150.766 -0.704594 1.40972 0
M  V30 1592 C 152.014 -1.46169 1.39568 0
M  V30 1593 C 152.335 -1.95 0.00253745 0
M  V30 1594 O 151.605 -1.71095 -0.954114 0
M  V30 1595 H 150.185 -0.542326 0.513704 0
M  V30 1596 H 152.847 -0.834553 1.76128 0
M  V30 1597 H 151.943 -2.32922 2.07735 0
M  V30 1598 N 152.244 -1.26651 -0.937939 0
M  V30 1599 C 153.469 -1.15279 -1.72411 0
M  V30 1600 C 153.894 0.287866 -1.85884 0
M  V30 1601 O 153.252 1.20855 -1.35143 0
M  V30 1602 C 153.3 -1.83028 -3.10698 0
M  V30 1603 O 152.404 -1.12128 -3.96864 0
M  V30 1604 H 151.745 -0.401504 -0.528858 0
M  V30 1605 H 154.275 -1.67531 -1.1745 0
M  V30 1606 H 154.285 -1.89981 -3.6107 0
M  V30 1607 H 152.96 -2.87833 -3.00208 0
M  V30 1608 H 151.537 -1.13173 -3.55312 0
M  V30 1609 N 153.722 1.14298 -1.08507 0
M  V30 1610 C 154.669 2.19414 -0.715965 0
M  V30 1611 C 155.639 1.63399 0.298326 0
M  V30 1612 O 156.824 1.89929 0.182101 0
M  V30 1613 C 153.964 3.44845 -0.132534 0
M  V30 1614 C 153.077 4.15007 -1.19973 0
M  V30 1615 C 152.212 5.28024 -0.580048 0
M  V30 1616 C 151.251 5.9002 -1.62921 0
M  V30 1617 N 150.388 6.94485 -1.03125 0
M  V30 1618 H 155.228 2.50336 -1.61666 0
M  V30 1619 H 152.765 1.2293 -0.807882 0
M  V30 1620 H 154.723 4.16601 0.223454 0
M  V30 1621 H 153.353 3.14403 0.731467 0
M  V30 1622 H 152.405 3.41629 -1.67313 0
M  V30 1623 H 153.717 4.57178 -1.99473 0
M  V30 1624 H 152.871 6.06455 -0.172364 0
M  V30 1625 H 151.61 4.87076 0.246603 0
M  V30 1626 H 150.615 5.10291 -2.04654 0
M  V30 1627 H 151.84 6.33042 -2.45835 0
M  V30 1628 H 149.786 6.55612 -0.225711 0
M  V30 1629 H 149.703 7.35148 -1.76334 0
M  V30 1630 H 150.971 7.7679 -0.649458 0
M  V30 1631 N 155.201 0.870884 1.31352 0
M  V30 1632 C 156.164 0.332243 2.26779 0
M  V30 1633 C 157.164 -0.517302 1.52252 0
M  V30 1634 O 158.354 -0.326477 1.71113 0
M  V30 1635 C 155.486 -0.528066 3.36785 0
M  V30 1636 H 156.679 1.17469 2.75937 0
M  V30 1637 H 154.232 0.64655 1.423 0
M  V30 1638 H 154.967 -1.39167 2.92922 0
M  V30 1639 H 154.752 0.0802582 3.92018 0
M  V30 1640 H 156.242 -0.897179 4.07849 0
M  V30 1641 N 156.679 -1.44442 0.630414 0
M  V30 1642 C 157.589 -2.34476 -0.0761693 0
M  V30 1643 C 158.605 -1.52576 -0.836449 0
M  V30 1644 O 159.781 -1.85307 -0.788874 0
M  V30 1645 C 156.846 -3.30545 -1.04599 0
M  V30 1646 C 155.907 -4.28352 -0.28516 0
M  V30 1647 C 155.14 -5.19831 -1.20878 0
M  V30 1648 O 155.363 -5.15223 -2.44747 0
M  V30 1649 O 154.297 -5.97892 -0.693491 0
M  V30 1650 H 158.123 -2.96345 0.664324 0
M  V30 1651 H 155.708 -1.44203 0.39061 0
M  V30 1652 H 157.59 -3.89681 -1.60396 0
M  V30 1653 H 156.265 -2.7121 -1.76711 0
M  V30 1654 H 155.172 -3.72764 0.315837 0
M  V30 1655 H 156.505 -4.90605 0.395924 0
M  V30 1656 N 158.157 -0.370918 -1.53173 0
M  V30 1657 C 159.104 0.473035 -2.259 0
M  V30 1658 C 160.074 1.07311 -1.26781 0
M  V30 1659 O 161.259 1.1046 -1.55574 0
M  V30 1660 C 158.399 1.60405 -3.05556 0
M  V30 1661 C 157.512 1.02863 -4.19575 0
M  V30 1662 C 156.647 2.12918 -4.86661 0
M  V30 1663 C 155.686 1.52869 -5.92704 0
M  V30 1664 N 154.823 2.56779 -6.53459 0
M  V30 1665 H 159.663 -0.153649 -2.97604 0
M  V30 1666 H 157.2 -0.0875946 -1.46839 0
M  V30 1667 H 159.158 2.27034 -3.50016 0
M  V30 1668 H 157.788 2.20131 -2.36097 0
M  V30 1669 H 156.84 0.252465 -3.79561 0
M  V30 1670 H 158.152 0.549642 -4.95762 0
M  V30 1671 H 157.306 2.87356 -5.34333 0
M  V30 1672 H 156.045 2.6417 -4.09958 0
M  V30 1673 H 155.05 0.769479 -5.44389 0
M  V30 1674 H 156.275 1.02435 -6.7133 0
M  V30 1675 H 154.221 3.07235 -5.79606 0
M  V30 1676 H 154.138 2.13583 -7.25202 0
M  V30 1677 H 155.406 3.30903 -7.05779 0
M  V30 1678 N 159.635 1.57281 -0.100228 0
M  V30 1679 C 160.863 1.98879 0.570509 0
M  V30 1680 C 161.278 0.979476 1.61405 0
M  V30 1681 O 160.635 -0.0302288 1.82475 0
M  V30 1682 C 160.686 3.4052 1.2136 0
M  V30 1683 O 160.407 4.37588 0.211786 0
M  V30 1684 C 161.908 3.97149 1.96945 0
M  V30 1685 H 159.128 0.653428 0.152555 0
M  V30 1686 H 161.672 2.03697 -0.18103 0
M  V30 1687 H 159.827 3.367 1.91603 0
M  V30 1688 H 160.241 5.20118 0.676607 0
M  V30 1689 H 161.715 4.98393 2.37294 0
M  V30 1690 H 162.192 3.3525 2.83733 0
M  V30 1691 H 162.798 4.04458 1.31506 0
M  V30 1692 N 161.113 -0.173488 1.56642 0
M  V30 1693 C 162.043 -1.2171 1.99271 0
M  V30 1694 C 163.024 -1.46289 0.867959 0
M  V30 1695 O 164.209 -1.5766 1.13388 0
M  V30 1696 C 161.339 -2.55651 2.35074 0
M  V30 1697 C 160.293 -2.45645 3.50489 0
M  V30 1698 C 159.619 -3.84056 3.72028 0
M  V30 1699 C 160.919 -1.96302 4.84007 0
M  V30 1700 H 162.613 -0.86275 2.867 0
M  V30 1701 H 160.159 -0.413571 1.37933 0
M  V30 1702 H 162.112 -3.2886 2.63494 0
M  V30 1703 H 160.836 -2.92869 1.44552 0
M  V30 1704 H 159.495 -1.7489 3.22194 0
M  V30 1705 H 159.143 -4.18664 2.788 0
M  V30 1706 H 158.843 -3.7823 4.49684 0
M  V30 1707 H 160.367 -4.58854 4.02846 0
M  V30 1708 H 161.781 -2.59284 5.11317 0
M  V30 1709 H 160.178 -2.01429 5.65284 0
M  V30 1710 H 161.248 -0.917226 4.76146 0
M  V30 1711 N 162.591 -1.51276 -0.441967 0
M  V30 1712 C 163.839 -1.63392 -1.18943 0
M  V30 1713 C 164.16 -0.350159 -1.9183 0
M  V30 1714 O 163.43 0.633784 -1.85364 0
M  V30 1715 H 162.01 -0.602164 -0.442049 0
M  V30 1716 H 164.672 -1.88186 -0.507165 0
M  V30 1717 H 163.768 -2.45934 -1.92154 0
M  V30 1718 N 164.069 0.697108 -1.41344 0
M  V30 1719 C 165.346 1.45154 -1.31109 0
M  V30 1720 C 165.726 2.11009 0.0620449 0
M  V30 1721 O 165.074 2.01571 1.07618 0
M  V30 1722 C 165.284 2.47223 -2.46337 0
M  V30 1723 C 166.632 3.1252 -2.87431 0
M  V30 1724 O 167.656 2.57547 -2.46065 0
M  V30 1725 O 166.515 4.12083 -3.58957 0
M  V30 1726 H 163.609 0.646365 -0.515889 0
M  V30 1727 H 166.155 0.727716 -1.53305 0
M  V30 1728 H 164.927 1.97204 -3.37974 0
M  V30 1729 H 164.55 3.27116 -2.2601 0
M  V30 1730 N 165.547 1.27147 0.931209 0
M  V30 1731 C 166.794 1.13278 1.67852 0
M  V30 1732 C 167.122 -0.32204 1.91815 0
M  V30 1733 O 166.377 -1.25224 1.50391 0
M  V30 1734 C 166.676 1.8579 3.05314 0
M  V30 1735 C 166.342 3.35657 3.01073 0
M  V30 1736 C 165.004 3.76536 2.99623 0
M  V30 1737 C 167.356 4.31299 2.92627 0
M  V30 1738 C 164.684 5.11426 2.87506 0
M  V30 1739 C 167.036 5.66242 2.82051 0
M  V30 1740 C 165.7 6.06418 2.7895 0
M  V30 1741 H 164.97 0.414515 0.614214 0
M  V30 1742 H 167.617 1.57712 1.08624 0
M  V30 1743 H 165.922 1.33854 3.68226 0
M  V30 1744 H 167.619 1.72491 3.62005 0
M  V30 1745 H 164.209 3.03146 3.02986 0
M  V30 1746 H 168.393 4.00692 2.92848 0
M  V30 1747 H 163.649 5.41705 2.83489 0
M  V30 1748 H 167.823 6.40026 2.74481 0
M  V30 1749 H 165.45 7.10895 2.69318 0
M  V30 1750 N 167.025 -1.13721 1.09112 0
M  V30 1751 C 167.988 -2.17222 0.731241 0
M  V30 1752 C 168.988 -1.59035 -0.237566 0
M  V30 1753 O 170.178 -1.74192 -0.0161704 0
M  V30 1754 C 167.31 -3.40804 0.0808443 0
M  V30 1755 H 168.503 -2.50573 1.64783 0
M  V30 1756 H 166.056 -1.28493 0.889897 0
M  V30 1757 H 166.791 -3.1304 -0.847127 0
M  V30 1758 H 166.576 -3.84306 0.777896 0
M  V30 1759 H 168.066 -4.1731 -0.155657 0
M  V30 1760 N 168.503 -0.877838 -1.30888 0
M  V30 1761 C 169.466 -0.344265 -2.266 0
M  V30 1762 C 170.466 0.50922 -1.52524 0
M  V30 1763 O 171.656 0.317398 -1.71284 0
M  V30 1764 C 168.788 0.510198 -3.37061 0
M  V30 1765 H 169.981 -1.1893 -2.7531 0
M  V30 1766 H 167.534 -0.654088 -1.41956 0
M  V30 1767 H 168.269 1.37612 -2.93655 0
M  V30 1768 H 168.054 -0.101047 -3.9197 0
M  V30 1769 H 169.544 0.875537 -4.08319 0
M  V30 1770 N 169.982 1.44106 -0.638065 0
M  V30 1771 C 170.892 2.34513 0.0637334 0
M  V30 1772 C 171.908 1.53018 0.828346 0
M  V30 1773 O 173.084 1.85723 0.779036 0
M  V30 1774 C 170.149 3.31095 1.02844 0
M  V30 1775 C 169.21 4.28497 0.26244 0
M  V30 1776 C 168.443 5.20465 1.1812 0
M  V30 1777 O 168.666 5.16514 2.42011 0
M  V30 1778 O 167.6 5.98251 0.661774 0
M  V30 1779 H 171.426 2.95989 -0.68003 0
M  V30 1780 H 169.011 1.43994 -0.398252 0
M  V30 1781 H 170.893 3.90526 1.58327 0
M  V30 1782 H 169.568 2.72144 1.7527 0
M  V30 1783 H 168.475 3.72592 -0.335602 0
M  V30 1784 H 169.808 4.90388 -0.421936 0
M  V30 1785 N 171.46 0.379036 1.52974 0
M  V30 1786 C 172.69 -0.20649 2.05566 0
M  V30 1787 C 173.098 -1.41906 1.25137 0
M  V30 1788 O 172.441 -1.81421 0.288464 0
M  V30 1789 C 172.503 -0.651086 3.53555 0
M  V30 1790 C 172.167 0.446626 4.54812 0
M  V30 1791 C 173.164 1.30079 5.03364 0
M  V30 1792 C 170.849 0.610719 4.98573 0
M  V30 1793 C 172.843 2.30426 5.94292 0
M  V30 1794 C 170.53 1.61754 5.89304 0
M  V30 1795 C 171.528 2.46274 6.37054 0
M  V30 1796 O 171.216 3.45237 7.25994 0
M  V30 1797 H 170.948 -0.0372381 0.674974 0
M  V30 1798 H 173.502 0.539718 1.98182 0
M  V30 1799 H 171.732 -1.44911 3.58522 0
M  V30 1800 H 173.421 -1.16112 3.88938 0
M  V30 1801 H 174.187 1.18527 4.70294 0
M  V30 1802 H 170.066 -0.0374044 4.60985 0
M  V30 1803 H 173.61 2.96432 6.31485 0
M  V30 1804 H 169.507 1.73348 6.21788 0
M  V30 1805 H 170.275 3.41124 7.44027 0
M  V30 1806 N 172.938 -1.57226 0.108567 0
M  V30 1807 C 173.901 -2.13602 -0.831082 0
M  V30 1808 C 174.901 -1.06841 -1.20173 0
M  V30 1809 O 176.091 -1.32666 -1.12895 0
M  V30 1810 C 173.223 -2.66769 -2.12243 0
M  V30 1811 H 174.416 -2.97951 -0.341317 0
M  V30 1812 H 171.969 -1.55667 -0.14057 0
M  V30 1813 H 172.704 -1.85977 -2.65675 0
M  V30 1814 H 172.489 -3.44839 -1.86625 0
M  V30 1815 H 173.979 -3.10332 -2.79435 0
M  V30 1816 N 174.416 0.165178 -1.56732 0
M  V30 1817 C 175.363 1.2044 -1.96883 0
M  V30 1818 C 176.333 1.43664 -0.833657 0
M  V30 1819 O 177.518 1.56302 -1.09427 0
M  V30 1820 C 174.658 2.53727 -2.33916 0
M  V30 1821 C 173.771 2.3783 -3.6064 0
M  V30 1822 C 172.906 3.64026 -3.86857 0
M  V30 1823 C 171.945 3.43088 -5.06909 0
M  V30 1824 N 171.082 4.61369 -5.29229 0
M  V30 1825 H 175.922 0.854996 -2.85471 0
M  V30 1826 H 173.459 0.41076 -1.41249 0
M  V30 1827 H 175.417 3.31419 -2.53411 0
M  V30 1828 H 174.047 2.8665 -1.48431 0
M  V30 1829 H 173.099 1.51282 -3.49024 0
M  V30 1830 H 174.411 2.18308 -4.4849 0
M  V30 1831 H 173.565 4.50152 -4.06753 0
M  V30 1832 H 172.304 3.86533 -2.97394 0
M  V30 1833 H 171.309 2.55349 -4.86906 0
M  V30 1834 H 172.534 3.21997 -5.97909 0
M  V30 1835 H 170.48 4.84084 -4.42718 0
M  V30 1836 H 170.397 4.44783 -6.11313 0
M  V30 1837 H 171.665 5.48761 -5.53608 0
M  V30 1838 N 175.894 1.51508 0.433938 0
M  V30 1839 C 177.119 1.68443 1.21003 0
M  V30 1840 C 177.544 0.382636 1.84167 0
M  V30 1841 O 176.902 -0.65755 1.68956 0
M  V30 1842 C 176.95 2.80405 2.26727 0
M  V30 1843 O 176.054 2.44245 3.32292 0
M  V30 1844 H 175.395 0.561536 0.354363 0
M  V30 1845 H 177.925 1.9809 0.512024 0
M  V30 1846 H 177.935 3.0459 2.71457 0
M  V30 1847 H 176.61 3.74867 1.80132 0
M  V30 1848 H 175.187 2.30644 2.93015 0
M  V30 1849 N 177.372 -0.689602 1.41712 0
M  V30 1850 C 178.32 -1.82475 1.44242 0
M  V30 1851 C 179.314 -1.66354 0.319774 0
M  V30 1852 O 180.52 -1.73143 0.492089 0
M  V30 1853 H 176.895 -0.601416 0.451445 0
M  V30 1854 H 178.866 -1.77458 2.39899 0
M  V30 1855 C 177.615 -3.20535 1.3473 0
M  V30 1856 H 176.938 -3.33559 2.20405 0
M  V30 1857 H 178.378 -4.00023 1.40562 0
M  V30 1858 C 176.837 -3.36846 0.0603281 0
M  V30 1859 O 177.367 -3.91656 -0.892663 0
M  V30 1860 N 175.573 -2.90595 -0.0177039 0
M  V30 1861 H 175.12 -2.46178 0.758572 0
M  V30 1862 H 175.078 -3.01886 -0.878201 0
M  V30 1863 N 178.85 -1.27639 -0.924453 0
M  V30 1864 C 180.266 -1.05113 -1.20097 0
M  V30 1865 C 180.466 0.213262 -2.00368 0
M  V30 1866 O 179.522 0.91787 -2.35226 0
M  V30 1867 C 180.835 -2.29244 -1.94596 0
M  V30 1868 C 182.383 -2.34315 -2.07522 0
M  V30 1869 C 182.858 -3.58183 -2.85427 0
M  V30 1870 N 184.349 -3.5876 -2.92994 0
M  V30 1871 C 185.084 -4.51277 -3.53746 0
M  V30 1872 N 184.58 -5.54102 -4.15863 0
M  V30 1873 N 186.373 -4.38894 -3.51181 0
M  V30 1874 H 178.524 -2.08821 -0.388264 0
M  V30 1875 H 180.787 -0.918568 -0.234385 0
M  V30 1876 H 180.493 -3.21301 -1.43034 0
M  V30 1877 H 180.367 -2.34816 -2.95197 0
M  V30 1878 H 182.754 -1.42762 -2.58269 0
M  V30 1879 H 182.835 -2.32744 -1.06131 0
M  V30 1880 H 182.479 -4.50074 -2.35363 0
M  V30 1881 H 182.409 -3.57006 -3.8711 0
M  V30 1882 H 184.9 -2.84398 -2.4885 0
M  V30 1883 H 185.213 -6.20859 -4.60168 0
M  V30 1884 H 183.558 -5.57941 -4.144 0
M  V30 1885 H 186.749 -3.57772 -3.01856 0
M  V30 1886 H 186.922 -5.11186 -3.98237 0
M  V30 1887 N 180.328 1.1314 -1.09713 0
M  V30 1888 C 181.553 1.88862 -0.857081 0
M  V30 1889 C 181.978 1.78729 0.586304 0
M  V30 1890 O 181.336 1.13692 1.41222 0
M  V30 1891 C 181.384 3.36325 -1.30069 0
M  V30 1892 O 180.488 4.09815 -0.461007 0
M  V30 1893 H 179.829 0.587108 -0.310162 0
M  V30 1894 H 182.359 1.43129 -1.46203 0
M  V30 1895 H 182.369 3.87157 -1.28738 0
M  V30 1896 H 181.044 3.43017 -2.35185 0
M  V30 1897 H 179.621 3.68986 -0.538888 0
M  V30 1898 N 181.806 0.884767 1.30421 0
M  V30 1899 C 183.034 0.518044 2.0031 0
M  V30 1900 C 183.449 -0.893408 1.66324 0
M  V30 1901 O 182.806 -1.5875 0.900262 0
M  V30 1902 C 182.857 0.682997 3.54989 0
M  V30 1903 O 182.578 2.03888 3.87764 0
M  V30 1904 C 184.079 0.31924 4.42149 0
M  V30 1905 H 181.299 0.200265 0.640418 0
M  V30 1906 H 183.843 1.19001 1.6631 0
M  V30 1907 H 181.998 0.0584052 3.87356 0
M  V30 1908 H 182.412 2.05735 4.82466 0
M  V30 1909 H 183.886 0.485555 5.4986 0
M  V30 1910 H 184.363 -0.742717 4.32875 0
M  V30 1911 H 184.969 0.920147 4.15227 0
M  V30 1912 N 183.284 -1.43765 0.645699 0
M  V30 1913 C 184.524 -2.03776 0.159542 0
M  V30 1914 C 184.888 -1.49792 -1.2011 0
M  V30 1915 O 186.089 -2.01398 -1.78023 0
M  V30 1916 C 184.36 -3.57036 0.161251 0
M  V30 1917 S 185.919 -4.3804 -0.258159 0
M  V30 1918 H 182.737 -0.707717 0.0682454 0
M  V30 1919 H 185.339 -1.75941 0.852352 0
M  V30 1920 H 184.043 -3.9383 1.15439 0
M  V30 1921 H 183.574 -3.89503 -0.552339 0
M  V30 1922 H 185.589 -4.7302 -1.49889 0
M  V30 1923 N 184.763 -0.387143 -1.52771 0
M  V30 1924 C 185.71 0.449048 -2.26389 0
M  V30 1925 C 186.68 1.05961 -1.27912 0
M  V30 1926 O 187.865 1.08804 -1.56737 0
M  V30 1927 C 185.005 1.57155 -3.0724 0
M  V30 1928 C 184.118 0.984066 -4.20643 0
M  V30 1929 C 183.253 2.07745 -4.88892 0
M  V30 1930 C 182.292 1.46574 -5.94292 0
M  V30 1931 N 181.429 2.49834 -6.56146 0
M  V30 1932 H 186.269 -0.185205 -2.97424 0
M  V30 1933 H 183.806 -0.103164 -1.46738 0
M  V30 1934 H 185.764 2.23309 -3.52405 0
M  V30 1935 H 184.394 2.17615 -2.38419 0
M  V30 1936 H 183.446 0.212193 -3.79808 0
M  V30 1937 H 184.758 0.497029 -4.96318 0
M  V30 1938 H 183.912 2.81673 -5.3735 0
M  V30 1939 H 182.651 2.59807 -4.12737 0
M  V30 1940 H 181.656 0.711696 -5.45174 0
M  V30 1941 H 182.881 0.953088 -6.72379 0
M  V30 1942 H 180.827 3.0107 -5.82832 0
M  V30 1943 H 180.744 2.05879 -7.27427 0
M  V30 1944 H 182.012 3.23399 -7.09249 0
M  V30 1945 N 186.241 1.57166 -0.116904 0
M  V30 1946 C 187.489 1.94737 0.540533 0
M  V30 1947 C 187.81 1.00096 1.67349 0
M  V30 1948 O 187.08 0.0568854 1.95817 0
M  V30 1949 H 185.66 0.718981 0.202669 0
M  V30 1950 H 188.322 1.94017 -0.185353 0
M  V30 1951 H 187.418 2.97719 0.936483 0
M  V30 1952 N 187.719 -0.156864 1.56817 0
M  V30 1953 C 188.959 -0.877453 1.84608 0
M  V30 1954 C 189.323 -1.78791 0.699845 0
M  V30 1955 O 190.524 -2.5472 0.858553 0
M  V30 1956 C 188.795 -1.63992 3.17555 0
M  V30 1957 S 190.354 -2.40729 3.66872 0
M  V30 1958 H 187.172 -0.293612 0.647544 0
M  V30 1959 H 189.774 -0.138099 1.95012 0
M  V30 1960 H 188.478 -0.962363 3.98957 0
M  V30 1961 H 188.009 -2.42038 3.10131 0
M  V30 1962 H 190.024 -3.65725 3.3535 0
M  V30 1963 N 189.197 -1.51736 -0.425897 0
M  V30 1964 C 190.13 -1.68574 -1.53812 0
M  V30 1965 C 191.108 -0.53328 -1.53606 0
M  V30 1966 O 192.292 -0.758555 -1.72564 0
M  V30 1967 C 189.419 -1.70977 -2.92377 0
M  V30 1968 C 188.465 -2.92324 -3.10563 0
M  V30 1969 S 189.298 -4.52952 -2.85648 0
M  V30 1970 C 190.454 -4.58117 -4.26474 0
M  V30 1971 H 190.687 -2.62647 -1.39298 0
M  V30 1972 H 188.22 -1.41564 -0.616361 0
M  V30 1973 H 190.178 -1.73047 -3.72243 0
M  V30 1974 H 188.839 -0.78061 -3.04245 0
M  V30 1975 H 188.032 -2.90439 -4.11899 0
M  V30 1976 H 187.634 -2.88055 -2.38538 0
M  V30 1977 H 189.926 -4.34462 -5.19855 0
M  V30 1978 H 190.869 -5.59983 -4.33388 0
M  V30 1979 H 191.277 -3.8732 -4.10662 0
M  V30 1980 N 190.675 0.682077 -1.42076 0
M  V30 1981 C 191.585 1.82535 -1.47371 0
M  V30 1982 C 192.601 1.7017 -0.363079 0
M  V30 1983 O 193.777 1.91848 -0.612875 0
M  V30 1984 C 190.842 3.18624 -1.36674 0
M  V30 1985 C 189.903 3.42999 -2.58167 0
M  V30 1986 C 189.136 4.72595 -2.4797 0
M  V30 1987 O 189.359 5.50006 -1.5116 0
M  V30 1988 O 188.293 4.98054 -3.37974 0
M  V30 1989 H 192.119 1.81023 -2.43853 0
M  V30 1990 H 189.704 0.836887 -1.2376 0
M  V30 1991 H 191.586 3.99847 -1.33043 0
M  V30 1992 H 190.261 3.20789 -0.433138 0
M  V30 1993 H 189.168 2.61653 -2.67373 0
M  V30 1994 H 190.501 3.45659 -3.50401 0
M  V30 1995 N 192.153 1.28127 0.917671 0
M  V30 1996 C 193.1 1.11717 2.0196 0
M  V30 1997 C 194.07 0.0153929 1.66093 0
M  V30 1998 O 195.255 0.179596 1.89953 0
M  V30 1999 C 192.395 0.780927 3.36148 0
M  V30 2000 C 191.508 1.96135 3.84909 0
M  V30 2001 C 190.643 1.56609 5.0759 0
M  V30 2002 C 189.682 2.71339 5.48673 0
M  V30 2003 N 188.819 2.32332 6.62545 0
M  V30 2004 H 193.659 2.06003 2.15329 0
M  V30 2005 H 191.196 1.02535 1.05475 0
M  V30 2006 H 193.154 0.56675 4.13333 0
M  V30 2007 H 191.784 -0.124998 3.22558 0
M  V30 2008 H 190.836 2.28777 3.03916 0
M  V30 2009 H 192.148 2.82165 4.1132 0
M  V30 2010 H 191.302 1.31374 5.92305 0
M  V30 2011 H 190.041 0.677014 4.82978 0
M  V30 2012 H 189.046 2.97276 4.62501 0
M  V30 2013 H 190.271 3.60882 5.75274 0
M  V30 2014 H 188.217 1.45889 6.39572 0
M  V30 2015 H 188.134 3.11899 6.88662 0
M  V30 2016 H 189.402 2.10371 7.50576 0
M  V30 2017 N 193.631 -1.12557 1.10312 0
M  V30 2018 C 194.88 -1.83395 0.839588 0
M  V30 2019 C 195.193 -1.84939 -0.636929 0
M  V30 2020 O 196.399 -2.51761 -1.01631 0
M  V30 2021 C 194.855 -3.29303 1.45215 0
M  V30 2022 C 194.463 -3.36122 2.96186 0
M  V30 2023 C 196.207 -4.05121 1.26796 0
M  V30 2024 C 194.114 -4.76357 3.50483 0
M  V30 2025 H 193.044 -0.687133 0.310425 0
M  V30 2026 H 195.695 -1.26746 1.32694 0
M  V30 2027 H 194.077 -3.85812 0.892469 0
M  V30 2028 H 195.251 -2.89559 3.58458 0
M  V30 2029 H 193.566 -2.73776 3.13745 0
M  V30 2030 H 196.163 -5.08668 1.64806 0
M  V30 2031 H 196.506 -4.15773 0.209409 0
M  V30 2032 H 197.039 -3.54967 1.79563 0
M  V30 2033 H 193.778 -4.70899 4.55998 0
M  V30 2034 H 193.298 -5.23377 2.92978 0
M  V30 2035 H 194.977 -5.45294 3.48228 0
M  V30 2036 N 195.109 -0.891671 -1.2995 0
M  V30 2037 C 196.019 -0.367691 -2.31701 0
M  V30 2038 C 197.035 0.533486 -1.6562 0
M  V30 2039 O 198.211 0.424997 -1.96865 0
M  V30 2040 C 195.276 0.403406 -3.44345 0
M  V30 2041 C 194.337 -0.528328 -4.26037 0
M  V30 2042 C 193.57 0.206063 -5.33302 0
M  V30 2043 O 193.793 1.43119 -5.52153 0
M  V30 2044 O 192.727 -0.447281 -6.00236 0
M  V30 2045 H 196.553 -1.21163 -2.78484 0
M  V30 2046 H 194.138 -0.655725 -1.34241 0
M  V30 2047 H 196.02 0.839753 -4.12948 0
M  V30 2048 H 194.695 1.22354 -2.99685 0
M  V30 2049 H 193.602 -1.01362 -3.60106 0
M  V30 2050 H 194.935 -1.31465 -4.74318 0
M  V30 2051 N 196.587 1.43421 -0.653314 0
M  V30 2052 C 197.534 2.30768 0.0382271 0
M  V30 2053 C 198.504 1.44755 0.814576 0
M  V30 2054 O 199.689 1.73624 0.791162 0
M  V30 2055 C 196.829 3.30336 0.998599 0
M  V30 2056 C 195.942 4.31448 0.218342 0
M  V30 2057 C 195.077 5.18098 1.17252 0
M  V30 2058 C 194.116 6.10902 0.382702 0
M  V30 2059 N 193.253 6.90176 1.28848 0
M  V30 2060 H 198.093 2.89357 -0.712511 0
M  V30 2061 H 195.63 1.42548 -0.363128 0
M  V30 2062 H 197.588 3.86572 1.56901 0
M  V30 2063 H 196.218 2.73397 1.71621 0
M  V30 2064 H 195.27 3.77506 -0.46836 0
M  V30 2065 H 196.582 4.97227 -0.395812 0
M  V30 2066 H 195.736 5.7896 1.81356 0
M  V30 2067 H 194.475 4.52444 1.82058 0
M  V30 2068 H 193.48 5.49128 -0.27169 0
M  V30 2069 H 194.705 6.78598 -0.260957 0
M  V30 2070 H 192.651 6.27171 1.92334 0
M  V30 2071 H 192.568 7.52478 0.728887 0
M  V30 2072 H 193.836 7.55543 1.91766 0
M  V30 2073 N 198.065 0.39524 1.52563 0
M  V30 2074 C 199.313 -0.184678 2.01254 0
M  V30 2075 C 199.634 -1.46822 1.28329 0
M  V30 2076 O 198.904 -1.91666 0.405094 0
M  V30 2077 H 197.484 -0.0712355 0.743596 0
M  V30 2078 H 200.146 0.528293 1.87603 0
M  V30 2079 H 199.242 -0.390681 3.09645 0
M  V30 2080 N 199.544 -1.57102 0.125237 0
M  V30 2081 C 200.476 -2.12726 -0.853237 0
M  V30 2082 C 201.489 -1.07145 -1.22571 0
M  V30 2083 O 202.678 -1.34497 -1.17358 0
M  V30 2084 C 199.778 -2.61709 -2.15317 0
M  V30 2085 C 198.951 -3.91456 -1.95143 0
M  V30 2086 C 198.01 -4.25973 -3.08923 0
M  V30 2087 O 197.036 -4.94682 -2.81564 0
M  V30 2088 N 198.238 -3.83795 -4.35524 0
M  V30 2089 H 201.003 -2.97307 -0.377964 0
M  V30 2090 H 198.564 -1.61792 -0.0590011 0
M  V30 2091 H 200.556 -2.81826 -2.90441 0
M  V30 2092 H 199.126 -1.81974 -2.54174 0
M  V30 2093 H 198.346 -3.80185 -1.04177 0
M  V30 2094 H 199.634 -4.76283 -1.78976 0
M  V30 2095 H 199.032 -3.2839 -4.60626 0
M  V30 2096 H 197.589 -4.09008 -5.07499 0
M  V30 2097 N 201.022 0.148545 -1.56898 0
M  V30 2098 C 202.268 0.862694 -1.83536 0
M  V30 2099 C 202.601 1.80889 -0.706604 0
M  V30 2100 O 201.876 1.92328 0.289885 0
M  V30 2101 C 202.159 1.63853 -3.20662 0
M  V30 2102 C 202.012 0.713925 -4.44098 0
M  V30 2103 C 203.331 2.60133 -3.54991 0
M  V30 2104 H 200.45 0.312179 -0.667618 0
M  V30 2105 H 203.092 0.127953 -1.89569 0
M  V30 2106 H 201.242 2.26489 -3.1565 0
M  V30 2107 H 202.914 0.098686 -4.61194 0
M  V30 2108 H 201.157 0.0234019 -4.33794 0
M  V30 2109 H 201.828 1.29278 -5.36648 0
M  V30 2110 H 204.304 2.07616 -3.60603 0
M  V30 2111 H 203.18 3.11468 -4.51972 0
M  V30 2112 H 203.441 3.41417 -2.80868 0
M  V30 2113 N 202.5 1.5196 0.417844 0
M  V30 2114 C 203.916 1.40569 0.755816 0
M  V30 2115 C 204.116 0.503316 1.95113 0
M  V30 2116 O 203.172 -0.0341925 2.52477 0
M  V30 2117 C 204.485 2.82947 1.01791 0
M  V30 2118 C 206.033 2.92231 1.12116 0
M  V30 2119 C 206.508 4.35559 1.41608 0
M  V30 2120 N 207.999 4.38753 1.48491 0
M  V30 2121 C 208.734 5.46705 1.7292 0
M  V30 2122 N 208.23 6.64788 1.95011 0
M  V30 2123 N 210.023 5.34209 1.74863 0
M  V30 2124 H 202.174 2.09168 -0.369098 0
M  V30 2125 H 204.437 0.942409 -0.102809 0
M  V30 2126 H 204.143 3.5106 0.212081 0
M  V30 2127 H 204.017 3.23462 1.94042 0
M  V30 2128 H 206.404 2.24304 1.9176 0
M  V30 2129 H 206.485 2.55185 0.177225 0
M  V30 2130 H 206.129 5.04042 0.624848 0
M  V30 2131 H 206.059 4.70133 2.37239 0
M  V30 2132 H 208.55 3.5363 1.33244 0
M  V30 2133 H 208.863 7.42845 2.13076 0
M  V30 2134 H 207.208 6.67869 1.92293 0
M  V30 2135 H 210.399 4.40937 1.57137 0
M  V30 2136 H 210.572 6.18415 1.93563 0
M  V30 2137 N 203.978 -0.674533 1.42435 0
M  V30 2138 C 204.908 -1.80009 1.48724 0
M  V30 2139 C 205.889 -1.6659 0.343793 0
M  V30 2140 O 207.074 -1.86007 0.558137 0
M  V30 2141 C 204.204 -3.18306 1.38919 0
M  V30 2142 C 203.158 -3.46461 2.51294 0
M  V30 2143 C 202.484 -4.84335 2.26547 0
M  V30 2144 C 203.784 -3.43328 3.93603 0
M  V30 2145 H 205.478 -1.75004 2.42928 0
M  V30 2146 H 203.024 -0.840533 1.16923 0
M  V30 2147 H 204.977 -3.9678 1.41927 0
M  V30 2148 H 203.701 -3.2399 0.412094 0
M  V30 2149 H 202.36 -2.70348 2.47604 0
M  V30 2150 H 202.008 -4.86669 1.2713 0
M  V30 2151 H 201.708 -5.04136 3.01861 0
M  V30 2152 H 203.232 -5.65094 2.31304 0
M  V30 2153 H 204.646 -4.11772 3.98894 0
M  V30 2154 H 203.043 -3.74664 4.68771 0
M  V30 2155 H 204.113 -2.41897 4.20255 0
M  V30 2156 N 205.456 -1.28612 -0.910864 0
M  V30 2157 C 206.681 -1.1891 -1.69927 0
M  V30 2158 C 207.106 0.248372 -1.86453 0
M  V30 2159 O 206.464 1.17961 -1.37676 0
M  V30 2160 C 206.512 -1.89578 -3.06745 0
M  V30 2161 O 205.616 -1.20521 -3.94396 0
M  V30 2162 H 204.957 -0.412632 -0.520222 0
M  V30 2163 H 207.487 -1.69985 -1.1387 0
M  V30 2164 H 207.497 -1.97597 -3.56958 0
M  V30 2165 H 206.172 -2.94136 -2.94035 0
M  V30 2166 H 204.749 -1.20684 -3.52831 0
M  V30 2167 N 206.934 1.1197 -1.10907 0
M  V30 2168 C 207.881 2.17846 -0.762345 0
M  V30 2169 C 208.851 1.63995 0.263599 0
M  V30 2170 O 210.036 1.90273 0.141773 0
M  V30 2171 C 207.176 3.44487 -0.205651 0
M  V30 2172 C 206.289 4.12369 -1.28748 0
M  V30 2173 C 205.424 5.26674 -0.691919 0
M  V30 2174 C 204.463 5.86431 -1.75399 0
M  V30 2175 N 203.6 6.92142 -1.17833 0
M  V30 2176 H 208.44 2.46851 -1.6694 0
M  V30 2177 H 205.977 1.21188 -0.833776 0
M  V30 2178 H 207.935 4.16981 0.135037 0
M  V30 2179 H 206.565 3.15884 0.664613 0
M  V30 2180 H 205.617 3.38003 -1.74522 0
M  V30 2181 H 206.929 4.52844 -2.09125 0
M  V30 2182 H 206.083 6.05953 -0.300963 0
M  V30 2183 H 204.822 4.8749 0.143232 0
M  V30 2184 H 203.827 5.05835 -2.15432 0
M  V30 2185 H 205.052 6.27685 -2.59208 0
M  V30 2186 H 202.998 6.54985 -0.364725 0
M  V30 2187 H 202.915 7.31242 -1.91887 0
M  V30 2188 H 204.183 7.75237 -0.81408 0
M  V30 2189 N 208.412 0.89855 1.29475 0
M  V30 2190 C 209.359 0.373819 2.27753 0
M  V30 2191 C 210.329 -0.543444 1.56958 0
M  V30 2192 O 211.514 -0.468934 1.84948 0
M  V30 2193 C 208.654 -0.393648 3.42848 0
M  V30 2194 C 207.767 0.554379 4.28428 0
M  V30 2195 C 206.902 -0.230026 5.30702 0
M  V30 2196 C 205.941 0.712599 6.07938 0
M  V30 2197 N 205.078 -0.0373283 7.0209 0
M  V30 2198 H 209.918 1.21699 2.72017 0
M  V30 2199 H 207.455 0.611456 1.33789 0
M  V30 2200 H 209.413 -0.85466 4.08352 0
M  V30 2201 H 208.043 -1.20128 2.99615 0
M  V30 2202 H 207.095 1.13391 3.63107 0
M  V30 2203 H 208.407 1.27597 4.82204 0
M  V30 2204 H 207.561 -0.752288 6.02018 0
M  V30 2205 H 206.3 -0.984758 4.77654 0
M  V30 2206 H 205.305 1.24637 5.35486 0
M  V30 2207 H 206.53 1.46664 6.63074 0
M  V30 2208 H 204.476 -0.774348 6.51414 0
M  V30 2209 H 204.393 0.624374 7.53417 0
M  V30 2210 H 205.661 -0.539891 7.77628 0
M  V30 2211 N 209.89 -1.43072 0.660911 0
M  V30 2212 C 210.823 -2.28074 -0.0758862 0
M  V30 2213 C 211.801 -1.40271 -0.822362 0
M  V30 2214 O 212.985 -1.69713 -0.820352 0
M  V30 2215 C 210.112 -3.19843 -1.11437 0
M  V30 2216 C 209.158 -4.23957 -0.465069 0
M  V30 2217 S 209.991 -5.29978 0.767078 0
M  V30 2218 C 211.147 -6.25314 -0.270682 0
M  V30 2219 H 211.38 -2.90216 0.645139 0
M  V30 2220 H 208.913 -1.47697 0.449995 0
M  V30 2221 H 210.871 -3.73257 -1.70849 0
M  V30 2222 H 209.532 -2.56863 -1.80776 0
M  V30 2223 H 208.725 -4.88299 -1.24819 0
M  V30 2224 H 208.327 -3.73959 0.0551242 0
M  V30 2225 H 210.619 -6.67932 -1.13459 0
M  V30 2226 H 211.562 -7.07293 0.337916 0
M  V30 2227 H 211.97 -5.61195 -0.609937 0
M  V30 2228 N 211.368 -0.403325 -1.52352 0
M  V30 2229 C 212.614 0.174605 -2.02047 0
M  V30 2230 C 212.947 1.45282 -1.28867 0
M  V30 2231 O 212.222 1.90483 -0.393257 0
M  V30 2232 C 212.505 0.428238 -3.57545 0
M  V30 2233 C 212.358 -0.866248 -4.4138 0
M  V30 2234 C 213.677 1.21287 -4.23057 0
M  V30 2235 H 210.796 0.0619851 -0.734389 0
M  V30 2236 H 213.438 -0.53565 -1.82293 0
M  V30 2237 H 211.588 1.03327 -3.74507 0
M  V30 2238 H 213.26 -1.50265 -4.3614 0
M  V30 2239 H 211.503 -1.47851 -4.07827 0
M  V30 2240 H 212.174 -0.643249 -5.48239 0
M  V30 2241 H 214.65 0.700703 -4.10158 0
M  V30 2242 H 213.526 1.35909 -5.31808 0
M  V30 2243 H 213.787 2.23193 -3.81625 0
M  V30 2244 N 212.846 1.57033 -0.133567 0
M  V30 2245 C 214.123 1.87256 0.56522 0
M  V30 2246 C 214.503 1.03726 1.83859 0
M  V30 2247 O 213.851 0.120247 2.28183 0
M  V30 2248 C 214.061 3.3865 0.843636 0
M  V30 2249 C 215.409 4.07574 1.19032 0
M  V30 2250 O 216.433 3.43752 0.933429 0
M  V30 2251 O 215.292 5.20259 1.67312 0
M  V30 2252 H 212.386 0.775678 0.286796 0
M  V30 2253 H 214.932 1.68855 -0.169168 0
M  V30 2254 H 213.704 3.91257 -0.0581149 0
M  V30 2255 H 213.327 3.62532 1.63268 0
M  V30 2256 N 214.325 -0.140222 1.56975 0
M  V30 2257 C 215.736 -0.699596 1.73097 0
M  V30 2258 C 216.087 -1.8134 0.749022 0
M  V30 2259 O 215.212 -2.16241 -0.0828503 0
M  V30 2260 C 215.807 -1.27582 3.1386 0
M  V30 2261 C 214.366 -1.78169 3.31561 0
M  V30 2262 C 213.513 -0.672855 2.69013 0
M  V30 2263 H 216.464 0.0855115 1.58469 0
M  V30 2264 H 216.485 -2.14561 3.14235 0
M  V30 2265 H 215.997 -0.464955 3.85305 0
M  V30 2266 H 214.098 -2.61801 2.65124 0
M  V30 2267 H 214.211 -1.90574 4.39566 0
M  V30 2268 H 212.575 -1.10118 2.29665 0
M  V30 2269 H 213.358 0.126679 3.43066 0
M  V30 2270 N 215.803 -1.52179 -0.40978 0
M  V30 2271 C 216.713 -1.78364 -1.52392 0
M  V30 2272 C 217.729 -0.669183 -1.60617 0
M  V30 2273 O 218.905 -0.954518 -1.77344 0
M  V30 2274 C 215.97 -1.92822 -2.88133 0
M  V30 2275 C 215.031 -3.16725 -2.898 0
M  V30 2276 C 214.264 -3.30483 -4.19067 0
M  V30 2277 O 214.487 -2.49522 -5.12928 0
M  V30 2278 O 213.421 -4.2363 -4.27576 0
M  V30 2279 H 217.247 -2.72931 -1.33201 0
M  V30 2280 H 214.832 -1.37016 -0.59557 0
M  V30 2281 H 216.714 -2.04157 -3.68643 0
M  V30 2282 H 215.389 -1.01444 -3.07393 0
M  V30 2283 H 214.296 -3.10848 -2.08146 0
M  V30 2284 H 215.629 -4.07881 -2.75489 0
M  V30 2285 N 217.281 0.66697 -1.42791 0
M  V30 2286 C 218.228 1.7803 -1.4688 0
M  V30 2287 C 219.198 1.6299 -0.319919 0
M  V30 2288 O 220.383 1.83432 -0.525118 0
M  V30 2289 C 217.523 3.1611 -1.38451 0
M  V30 2290 C 216.636 3.42381 -2.63437 0
M  V30 2291 C 215.771 4.70232 -2.47094 0
M  V30 2292 C 214.81 4.89564 -3.67415 0
M  V30 2293 N 213.947 6.08661 -3.49966 0
M  V30 2294 H 218.787 1.7387 -2.42019 0
M  V30 2295 H 216.324 0.84868 -1.20149 0
M  V30 2296 H 218.282 3.95914 -1.31561 0
M  V30 2297 H 216.912 3.19374 -0.469033 0
M  V30 2298 H 215.964 2.56774 -2.80662 0
M  V30 2299 H 217.276 3.52557 -3.52853 0
M  V30 2300 H 216.43 5.5814 -2.37834 0
M  V30 2301 H 215.169 4.62353 -1.5518 0
M  V30 2302 H 214.174 4.00096 -3.77099 0
M  V30 2303 H 215.399 4.99282 -4.6032 0
M  V30 2304 H 213.345 6.0194 -2.60776 0
M  V30 2305 H 213.262 6.19733 -4.32975 0
M  V30 2306 H 214.53 6.99226 -3.44532 0
M  V30 2307 N 218.759 1.29093 0.90403 0
M  V30 2308 C 220.17 1.15186 1.46932 0
M  V30 2309 C 220.521 -0.254587 1.94541 0
M  V30 2310 O 219.646 -1.14972 1.83332 0
M  V30 2311 C 220.241 2.08492 2.67051 0
M  V30 2312 C 218.8 1.98621 3.19729 0
M  V30 2313 C 217.947 1.9967 1.92425 0
M  V30 2314 H 220.898 1.41641 0.715789 0
M  V30 2315 H 220.919 1.65461 3.42641 0
M  V30 2316 H 220.431 3.10847 2.3237 0
M  V30 2317 H 218.532 0.993389 3.59114 0
M  V30 2318 H 218.645 2.86068 3.8432 0
M  V30 2319 H 217.009 1.44208 2.09943 0
M  V30 2320 H 217.792 3.03721 1.60026 0
M  V30 2321 N 220.237 -1.11381 1.11499 0
M  V30 2322 C 221.169 -2.17207 0.731704 0
M  V30 2323 C 222.182 -1.61066 -0.236957 0
M  V30 2324 O 223.371 -1.78489 -0.0197591 0
M  V30 2325 C 220.471 -3.38846 0.0607624 0
M  V30 2326 C 219.644 -4.24451 1.0564 0
M  V30 2327 C 218.703 -5.24562 0.4149 0
M  V30 2328 O 217.729 -5.59071 1.069 0
M  V30 2329 N 218.931 -5.74651 -0.821943 0
M  V30 2330 H 221.696 -2.50699 1.64225 0
M  V30 2331 H 219.257 -1.26908 1.00529 0
M  V30 2332 H 221.249 -4.02911 -0.380139 0
M  V30 2333 H 219.819 -3.03411 -0.752376 0
M  V30 2334 H 219.039 -3.56833 1.67524 0
M  V30 2335 H 220.327 -4.78486 1.72998 0
M  V30 2336 H 219.725 -5.48797 -1.37252 0
M  V30 2337 H 218.282 -6.40549 -1.20582 0
M  V30 2338 N 221.715 -0.905404 -1.28997 0
M  V30 2339 C 222.645 -0.404212 -2.29975 0
M  V30 2340 C 223.626 0.523784 -1.61835 0
M  V30 2341 O 224.811 0.433298 -1.89304 0
M  V30 2342 C 221.941 0.364042 -3.45387 0
M  V30 2343 C 220.895 -0.474048 -4.25367 0
M  V30 2344 C 220.221 0.422045 -5.33032 0
M  V30 2345 C 221.521 -1.72696 -4.92923 0
M  V30 2346 H 223.215 -1.24807 -2.72146 0
M  V30 2347 H 220.761 -0.601585 -1.30832 0
M  V30 2348 H 222.714 0.725447 -4.15109 0
M  V30 2349 H 221.438 1.24174 -3.02074 0
M  V30 2350 H 220.097 -0.81786 -3.57361 0
M  V30 2351 H 219.745 1.29804 -4.85963 0
M  V30 2352 H 219.445 -0.135057 -5.87445 0
M  V30 2353 H 220.969 0.779517 -6.05604 0
M  V30 2354 H 222.383 -1.43495 -5.55051 0
M  V30 2355 H 220.78 -2.22582 -5.57295 0
M  V30 2356 H 221.85 -2.45964 -4.17887 0
M  V30 2357 N 223.193 1.4272 -0.668489 0
M  V30 2358 C 224.441 2.01226 -0.187769 0
M  V30 2359 C 224.762 1.53092 1.2078 0
M  V30 2360 O 224.032 0.74993 1.80977 0
M  V30 2361 H 222.612 0.744041 -0.0664272 0
M  V30 2362 H 225.274 1.74723 -0.863583 0
M  V30 2363 H 224.37 3.11556 -0.184166 0
M  V30 2364 N 224.671 0.411399 1.52136 0
M  V30 2365 C 225.604 -0.457614 2.23565 0
M  V30 2366 C 226.582 -1.04613 1.24478 0
M  V30 2367 O 227.766 -1.09356 1.53536 0
M  V30 2368 C 224.893 -1.6354 2.96602 0
M  V30 2369 C 223.939 -1.17005 4.10137 0
M  V30 2370 S 224.772 -0.13333 5.35334 0
M  V30 2371 C 225.928 -1.31638 6.119 0
M  V30 2372 H 226.161 0.148883 2.96927 0
M  V30 2373 H 223.694 0.195713 1.53155 0
M  V30 2374 H 225.652 -2.31074 3.39286 0
M  V30 2375 H 224.313 -2.21324 2.22878 0
M  V30 2376 H 223.506 -2.05005 4.60422 0
M  V30 2377 H 223.108 -0.573319 3.6958 0
M  V30 2378 H 225.4 -2.23957 6.39413 0
M  V30 2379 H 226.343 -0.854014 7.02931 0
M  V30 2380 H 226.751 -1.54321 5.42997 0
M  V30 2381 N 226.149 -1.5696 0.141893 0
M  V30 2382 C 227.398 -1.95135 -0.510427 0
M  V30 2383 C 227.711 -1.02896 -1.66348 0
M  V30 2384 O 228.917 -1.30629 -2.38009 0
M  V30 2385 C 227.373 -3.46876 -0.959427 0
M  V30 2386 C 226.981 -4.47691 0.166419 0
M  V30 2387 C 228.725 -3.93927 -1.58183 0
M  V30 2388 C 226.632 -5.90636 -0.300565 0
M  V30 2389 H 225.562 -0.728494 -0.194454 0
M  V30 2390 H 228.213 -1.8211 0.22542 0
M  V30 2391 H 226.595 -3.55215 -1.75038 0
M  V30 2392 H 227.769 -4.51043 0.94325 0
M  V30 2393 H 226.084 -4.10527 0.696905 0
M  V30 2394 H 228.681 -4.98158 -1.94275 0
M  V30 2395 H 229.024 -3.3519 -2.46888 0
M  V30 2396 H 229.557 -3.88484 -0.855863 0
M  V30 2397 H 226.296 -6.5318 0.550989 0
M  V30 2398 H 225.816 -5.90655 -1.04338 0
M  V30 2399 H 227.495 -6.42588 -0.754265 0
M  V30 2400 N 227.627 0.131896 -1.57047 0
M  V30 2401 C 228.904 0.871495 -1.75112 0
M  V30 2402 C 229.284 1.9866 -0.713949 0
M  V30 2403 O 228.632 2.26965 0.264447 0
M  V30 2404 C 228.842 1.40007 -3.19686 0
M  V30 2405 C 230.19 1.85752 -3.81813 0
M  V30 2406 O 231.214 1.49715 -3.23209 0
M  V30 2407 O 230.073 2.5226 -4.84796 0
M  V30 2408 H 227.167 0.412919 -0.716538 0
M  V30 2409 H 229.713 0.116641 -1.69299 0
M  V30 2410 H 228.485 0.599404 -3.86682 0
M  V30 2411 H 228.108 2.218 -3.29986 0
M  V30 2412 N 229.106 1.52395 0.401703 0
M  V30 2413 C 230.522 1.41363 0.740864 0
M  V30 2414 C 230.722 0.523982 1.94568 0
M  V30 2415 O 229.778 -0.00741204 2.52499 0
M  V30 2416 C 231.091 2.84011 0.987847 0
M  V30 2417 C 232.639 2.93404 1.09011 0
M  V30 2418 C 233.114 4.37036 1.3698 0
M  V30 2419 N 234.605 4.40304 1.43829 0
M  V30 2420 C 235.34 5.48508 1.67112 0
M  V30 2421 N 234.836 6.66819 1.87949 0
M  V30 2422 N 236.629 5.36034 1.69187 0
M  V30 2423 H 228.78 2.08765 -0.391262 0
M  V30 2424 H 231.043 0.941265 -0.112798 0
M  V30 2425 H 230.749 3.51265 0.174835 0
M  V30 2426 H 230.623 3.25502 1.906 0
M  V30 2427 H 233.01 2.26325 1.8937 0
M  V30 2428 H 233.091 2.55359 0.15015 0
M  V30 2429 H 232.735 5.04676 0.571353 0
M  V30 2430 H 232.665 4.72623 2.3224 0
M  V30 2431 H 235.156 3.55024 1.29486 0
M  V30 2432 H 235.469 7.45063 2.05185 0
M  V30 2433 H 233.814 6.6987 1.85199 0
M  V30 2434 H 237.005 4.42579 1.52451 0
M  V30 2435 H 237.178 6.20434 1.86993 0
M  V30 2436 N 230.584 -0.659388 1.43143 0
M  V30 2437 C 231.83 -1.41984 1.45644 0
M  V30 2438 C 232.185 -1.92245 0.0771718 0
M  V30 2439 O 231.478 -1.68976 -0.903205 0
M  V30 2440 C 231.672 -2.62206 2.42864 0
M  V30 2441 C 231.501 -2.23711 3.90107 0
M  V30 2442 C 230.271 -2.12332 4.58523 0
M  V30 2443 C 232.469 -1.84384 4.80112 0
M  V30 2444 N 230.451 -1.67102 5.9072 0
M  V30 2445 C 231.822 -1.5019 6.01534 0
M  V30 2446 C 233.877 -1.71512 4.67427 0
M  V30 2447 C 232.58 -1.04414 7.11681 0
M  V30 2448 C 234.606 -1.27142 5.77572 0
M  V30 2449 C 233.968 -0.938808 6.98116 0
M  V30 2450 H 230.067 -0.515448 0.588079 0
M  V30 2451 H 232.651 -0.759409 1.79279 0
M  V30 2452 H 230.822 -3.25917 2.11265 0
M  V30 2453 H 232.554 -3.28877 2.35843 0
M  V30 2454 H 229.309 -2.31893 4.12944 0
M  V30 2455 H 229.733 -1.46866 6.60878 0
M  V30 2456 H 234.375 -1.95868 3.74694 0
M  V30 2457 H 232.093 -0.788061 8.04248 0
M  V30 2458 H 235.679 -1.17681 5.69774 0
M  V30 2459 H 234.559 -0.6007 7.81896 0
M  V30 2460 N 232.062 -1.29571 -0.897171 0
M  V30 2461 C 233.292 -1.20408 -1.67886 0
M  V30 2462 C 233.7 0.237429 -1.87704 0
M  V30 2463 O 233.043 1.17048 -1.41582 0
M  V30 2464 C 233.105 -1.84887 -3.08314 0
M  V30 2465 C 232.769 -3.34189 -3.11716 0
M  V30 2466 C 233.766 -4.30374 -2.91675 0
M  V30 2467 C 231.451 -3.75431 -3.33701 0
M  V30 2468 C 233.445 -5.65776 -2.93557 0
M  V30 2469 C 231.132 -5.10955 -3.35214 0
M  V30 2470 C 232.13 -6.05938 -3.15164 0
M  V30 2471 O 231.818 -7.38987 -3.1647 0
M  V30 2472 H 231.55 -0.418289 -0.531046 0
M  V30 2473 H 234.104 -1.71514 -1.13014 0
M  V30 2474 H 232.334 -1.28295 -3.64798 0
M  V30 2475 H 234.023 -1.70011 -3.6858 0
M  V30 2476 H 234.789 -3.99844 -2.74499 0
M  V30 2477 H 230.668 -3.01953 -3.48347 0
M  V30 2478 H 234.212 -6.39889 -2.77826 0
M  V30 2479 H 230.109 -5.4113 -3.51922 0
M  V30 2480 H 230.877 -7.47823 -3.3272 0
M  V30 2481 N 233.54 1.10788 -1.12088 0
M  V30 2482 C 234.49 2.15158 -0.754401 0
M  V30 2483 C 235.474 1.59026 0.244846 0
M  V30 2484 O 236.666 1.76927 0.0509097 0
M  V30 2485 C 233.795 3.42677 -0.206657 0
M  V30 2486 C 232.881 4.05751 -1.23398 0
M  V30 2487 N 233.272 4.43582 -2.43041 0
M  V30 2488 C 231.57 4.32764 -1.07848 0
M  V30 2489 C 232.271 4.93085 -3.08613 0
M  V30 2490 N 231.247 4.89664 -2.36072 0
M  V30 2491 H 235.049 2.42195 -1.6649 0
M  V30 2492 H 232.563 1.27872 -1.00112 0
M  V30 2493 H 234.56 4.16834 0.0740646 0
M  V30 2494 H 233.22 3.17101 0.698342 0
M  V30 2495 H 234.231 4.35395 -2.80449 0
M  V30 2496 H 230.908 4.16863 -0.230483 0
M  V30 2497 H 232.298 5.31933 -4.10483 0
M  V30 2498 N 235.018 0.912232 1.28515 0
M  V30 2499 C 236.429 0.591352 1.77087 0
M  V30 2500 C 236.78 -0.8933 1.74684 0
M  V30 2501 O 235.905 -1.69876 1.34056 0
M  V30 2502 C 236.5 1.06668 3.2157 0
M  V30 2503 C 235.059 0.79675 3.67871 0
M  V30 2504 C 234.206 1.23427 2.48316 0
M  V30 2505 H 237.157 1.09365 1.15 0
M  V30 2506 H 237.178 0.407455 3.78312 0
M  V30 2507 H 236.69 2.14726 3.23287 0
M  V30 2508 H 234.791 -0.270679 3.71616 0
M  V30 2509 H 234.904 1.40343 4.58084 0
M  V30 2510 H 233.268 0.653036 2.46186 0
M  V30 2511 H 234.051 2.32316 2.52753 0
M  V30 2512 N 236.496 -1.42363 0.676048 0
M  V30 2513 C 237.744 -2.01123 0.198437 0
M  V30 2514 C 238.065 -1.53731 -1.19966 0
M  V30 2515 O 237.335 -0.759518 -1.80577 0
M  V30 2516 H 235.915 -0.743678 0.0703721 0
M  V30 2517 H 238.577 -1.74263 0.872837 0
M  V30 2518 H 237.673 -3.11454 0.200686 0
M  V30 2519 N 237.974 -0.419461 -1.51915 0
M  V30 2520 C 239.214 0.152336 -2.03832 0
M  V30 2521 C 239.578 1.41501 -1.29775 0
M  V30 2522 O 240.779 2.06591 -1.7197 0
M  V30 2523 C 239.05 0.383812 -3.55333 0
M  V30 2524 S 240.609 0.921577 -4.29013 0
M  V30 2525 H 237.427 0.0402193 -0.709862 0
M  V30 2526 H 240.029 -0.574758 -1.8686 0
M  V30 2527 H 238.733 -0.541794 -4.06808 0
M  V30 2528 H 238.264 1.13849 -3.76566 0
M  V30 2529 H 240.279 2.20108 -4.4471 0
M  V30 2530 N 239.452 1.56882 -0.150215 0
M  V30 2531 C 240.699 1.96228 0.500093 0
M  V30 2532 C 241.027 1.03522 1.64661 0
M  V30 2533 O 240.282 0.0650683 1.95592 0
M  V30 2534 C 240.581 3.41801 1.04437 0
M  V30 2535 C 240.247 4.50897 0.0159671 0
M  V30 2536 C 238.909 4.8046 -0.266731 0
M  V30 2537 C 241.261 5.16703 -0.683192 0
M  V30 2538 C 238.589 5.73135 -1.25434 0
M  V30 2539 C 240.941 6.10441 -1.65964 0
M  V30 2540 C 239.605 6.38382 -1.95 0
M  V30 2541 H 238.875 0.718048 0.182997 0
M  V30 2542 H 241.522 1.90019 -0.237724 0
M  V30 2543 H 239.827 3.44857 1.85959 0
M  V30 2544 H 241.524 3.69573 1.55618 0
M  V30 2545 H 238.114 4.27891 0.246485 0
M  V30 2546 H 242.298 4.93993 -0.477983 0
M  V30 2547 H 237.554 5.93074 -1.48571 0
M  V30 2548 H 241.728 6.60507 -2.20689 0
M  V30 2549 H 239.355 7.09996 -2.71679 0
M  V30 2550 N 240.93 -0.123565 1.57115 0
M  V30 2551 C 242.176 -0.833386 1.84885 0
M  V30 2552 C 242.509 -1.79742 0.735292 0
M  V30 2553 O 241.784 -1.92764 -0.25925 0
M  V30 2554 C 242.067 -1.5873 3.23228 0
M  V30 2555 C 241.92 -0.643183 4.45178 0
M  V30 2556 C 243.239 -2.54453 3.59085 0
M  V30 2557 H 240.358 -0.301518 0.6725 0
M  V30 2558 H 243 -0.097778 1.89748 0
M  V30 2559 H 241.15 -2.21438 3.19214 0
M  V30 2560 H 242.822 -0.0253015 4.61293 0
M  V30 2561 H 241.065 0.0456139 4.33776 0
M  V30 2562 H 241.736 -1.20724 5.38637 0
M  V30 2563 H 244.212 -2.01853 3.63861 0
M  V30 2564 H 243.088 -3.04238 4.5687 0
M  V30 2565 H 243.349 -3.36906 2.86264 0
M  V30 2566 N 242.408 -1.52605 -0.393616 0
M  V30 2567 C 243.355 -1.77055 -1.48054 0
M  V30 2568 C 244.325 -0.61358 -1.54352 0
M  V30 2569 O 245.51 -0.852806 -1.70681 0
M  V30 2570 C 242.65 -1.94108 -2.85335 0
M  V30 2571 C 241.763 -3.21792 -2.88226 0
M  V30 2572 C 240.898 -3.29188 -4.16904 0
M  V30 2573 C 239.937 -4.51013 -4.13828 0
M  V30 2574 N 239.074 -4.55716 -5.34105 0
M  V30 2575 H 243.914 -2.69815 -1.26506 0
M  V30 2576 H 241.451 -1.33683 -0.61379 0
M  V30 2577 H 243.409 -2.01979 -3.65049 0
M  V30 2578 H 242.039 -1.04713 -3.05344 0
M  V30 2579 H 241.091 -3.23015 -2.00911 0
M  V30 2580 H 242.403 -4.11557 -2.8182 0
M  V30 2581 H 241.557 -3.36216 -5.05018 0
M  V30 2582 H 240.296 -2.37389 -4.26026 0
M  V30 2583 H 239.301 -4.44115 -3.24102 0
M  V30 2584 H 240.526 -5.44123 -4.06333 0
M  V30 2585 H 238.472 -3.66807 -5.43865 0
M  V30 2586 H 238.389 -5.39346 -5.29756 0
M  V30 2587 H 239.657 -4.66993 -6.2413 0
M  V30 2588 N 243.887 0.651787 -1.4349 0
M  V30 2589 C 244.835 1.78586 -1.49029 0
M  V30 2590 C 245.829 1.65448 -0.363767 0
M  V30 2591 O 247.035 1.71777 -0.537821 0
M  V30 2592 H 243.41 0.589236 -0.467231 0
M  V30 2593 H 245.381 1.71035 -2.44519 0
M  V30 2594 C 244.13 3.16851 -1.43181 0
M  V30 2595 H 243.453 3.27598 -2.29171 0
M  V30 2596 H 244.893 3.96156 -1.51118 0
M  V30 2597 C 243.352 3.36568 -0.149616 0
M  V30 2598 O 243.882 3.93885 0.788509 0
M  V30 2599 N 242.088 2.90539 -0.0593484 0
M  V30 2600 H 241.635 2.4408 -0.823575 0
M  V30 2601 H 241.593 3.04108 0.797853 0
M  V30 2602 N 245.365 1.30045 0.890287 0
M  V30 2603 C 246.781 1.08261 1.17268 0
M  V30 2604 C 246.981 -0.160063 2.00863 0
M  V30 2605 O 246.037 -0.855181 2.37577 0
M  V30 2606 C 247.35 2.34323 1.8845 0
M  V30 2607 C 248.898 2.39735 2.01237 0
M  V30 2608 C 249.373 3.65625 2.7583 0
M  V30 2609 N 250.864 3.66402 2.83379 0
M  V30 2610 C 251.599 4.60498 3.41657 0
M  V30 2611 N 251.095 5.64933 4.01026 0
M  V30 2612 N 252.888 4.48051 3.39421 0
M  V30 2613 H 245.039 2.09777 0.332762 0
M  V30 2614 H 247.302 0.92446 0.209948 0
M  V30 2615 H 247.008 3.2498 1.34465 0
M  V30 2616 H 246.882 2.4256 2.88867 0
M  V30 2617 H 249.269 1.4956 2.54393 0
M  V30 2618 H 249.35 2.35476 0.999232 0
M  V30 2619 H 248.994 4.56156 2.23347 0
M  V30 2620 H 248.924 3.67144 3.77509 0
M  V30 2621 H 251.415 2.90896 2.41222 0
M  V30 2622 H 251.728 6.32841 4.43545 0
M  V30 2623 H 250.073 5.68732 3.99461 0
M  V30 2624 H 253.264 3.65649 2.92264 0
M  V30 2625 H 253.437 5.21565 3.84544 0
M  V30 2626 N 246.843 -1.10192 1.12674 0
M  V30 2627 C 247.753 -2.20172 0.810026 0
M  V30 2628 C 248.769 -1.72821 -0.202188 0
M  V30 2629 O 249.945 -2.01369 -0.0351691 0
M  V30 2630 C 247.01 -3.45631 0.272007 0
M  V30 2631 C 246.071 -4.07704 1.34447 0
M  V30 2632 C 245.304 -5.27175 0.832029 0
M  V30 2633 O 245.527 -5.69425 -0.333284 0
M  V30 2634 O 244.461 -5.80168 1.60277 0
M  V30 2635 H 248.287 -2.49701 1.72867 0
M  V30 2636 H 245.872 -1.18977 0.903597 0
M  V30 2637 H 247.754 -4.21394 -0.0230219 0
M  V30 2638 H 246.429 -3.17723 -0.619164 0
M  V30 2639 H 245.336 -3.33614 1.6927 0
M  V30 2640 H 246.669 -4.3982 2.2095 0
M  V30 2641 N 248.321 -0.919034 -1.28029 0
M  V30 2642 C 249.231 -0.416756 -2.30869 0
M  V30 2643 C 250.247 0.498235 -1.66714 0
M  V30 2644 O 251.423 0.383144 -1.97722 0
M  V30 2645 C 248.488 0.330274 -3.45123 0
M  V30 2646 C 247.549 -0.618578 -4.2482 0
M  V30 2647 C 246.782 0.0928959 -5.33619 0
M  V30 2648 O 247.005 1.31375 -5.55065 0
M  V30 2649 O 245.939 -0.574499 -5.99152 0
M  V30 2650 H 249.765 -1.27043 -2.75851 0
M  V30 2651 H 247.35 -0.684052 -1.3282 0
M  V30 2652 H 249.232 0.751972 -4.14636 0
M  V30 2653 H 247.907 1.1597 -3.02213 0
M  V30 2654 H 246.814 -1.08978 -3.57875 0
M  V30 2655 H 248.147 -1.41497 -4.71423 0
M  V30 2656 N 249.799 1.42003 -0.683588 0
M  V30 2657 C 250.729 2.33487 -0.024866 0
M  V30 2658 C 251.71 1.51163 0.779975 0
M  V30 2659 O 252.895 1.79739 0.735362 0
M  V30 2660 C 250.025 3.3487 0.920836 0
M  V30 2661 C 248.979 4.27414 0.223958 0
M  V30 2662 C 248.305 5.19074 1.2832 0
M  V30 2663 C 249.605 5.14445 -0.90242 0
M  V30 2664 H 251.299 2.88819 -0.788921 0
M  V30 2665 H 248.845 1.38873 -0.38083 0
M  V30 2666 H 250.798 3.97787 1.39081 0
M  V30 2667 H 249.522 2.77861 1.71642 0
M  V30 2668 H 248.181 3.65904 -0.225864 0
M  V30 2669 H 247.829 4.58387 2.071 0
M  V30 2670 H 247.529 5.81822 0.821995 0
M  V30 2671 H 249.053 5.84867 1.75392 0
M  V30 2672 H 250.467 5.70998 -0.513272 0
M  V30 2673 H 248.864 5.86072 -1.28997 0
M  V30 2674 H 249.934 4.52322 -1.74737 0
M  V30 2675 N 251.277 0.427512 1.51691 0
M  V30 2676 C 252.525 -0.141948 2.01601 0
M  V30 2677 C 252.846 -1.44067 1.31414 0
M  V30 2678 O 252.116 -1.90763 0.445658 0
M  V30 2679 H 250.696 -0.0554468 0.744939 0
M  V30 2680 H 253.358 0.567968 1.86441 0
M  V30 2681 H 252.454 -0.324913 3.10404 0
M  V30 2682 N 252.755 -1.56801 0.158532 0
M  V30 2683 C 254.002 -1.9649 -0.489679 0
M  V30 2684 C 254.33 -1.04394 -1.6411 0
M  V30 2685 O 253.585 -0.0754401 -1.95555 0
M  V30 2686 C 253.884 -3.4235 -1.02623 0
M  V30 2687 C 253.55 -4.50899 0.00794526 0
M  V30 2688 C 252.212 -4.80312 0.292207 0
M  V30 2689 C 254.564 -5.16333 0.710584 0
M  V30 2690 C 251.892 -5.72461 1.28472 0
M  V30 2691 C 254.244 -6.09553 1.69199 0
M  V30 2692 C 252.908 -6.37339 1.98383 0
M  V30 2693 H 252.178 -0.719009 -0.179186 0
M  V30 2694 H 254.825 -1.8989 0.247798 0
M  V30 2695 H 253.13 -3.45838 -1.84128 0
M  V30 2696 H 254.827 -3.70393 -1.53656 0
M  V30 2697 H 251.417 -4.28015 -0.22379 0
M  V30 2698 H 255.601 -4.93732 0.504174 0
M  V30 2699 H 250.857 -5.92278 1.51714 0
M  V30 2700 H 255.031 -6.59327 2.24189 0
M  V30 2701 H 252.658 -7.08546 2.7544 0
M  V30 2702 N 254.233 0.115231 -1.57178 0
M  V30 2703 C 255.649 0.468877 -1.52557 0
M  V30 2704 C 255.849 1.81649 -0.872125 0
M  V30 2705 O 254.905 2.48347 -0.45606 0
M  V30 2706 C 256.218 0.4499 -2.97315 0
M  V30 2707 C 257.766 0.533185 -3.08425 0
M  V30 2708 C 258.241 0.54456 -4.54751 0
M  V30 2709 N 259.732 0.605892 -4.5922 0
M  V30 2710 C 260.467 0.636203 -5.6986 0
M  V30 2711 N 259.963 0.623931 -6.89985 0
M  V30 2712 N 261.756 0.679496 -5.57978 0
M  V30 2713 H 253.907 -0.767712 -1.9804 0
M  V30 2714 H 256.17 -0.283609 -0.904583 0
M  V30 2715 H 255.876 -0.472721 -3.48509 0
M  V30 2716 H 255.75 1.27632 -3.5495 0
M  V30 2717 H 258.137 1.44623 -2.57232 0
M  V30 2718 H 258.218 -0.320995 -2.53778 0
M  V30 2719 H 257.862 -0.364452 -5.06591 0
M  V30 2720 H 257.792 1.41568 -5.07214 0
M  V30 2721 H 260.283 0.621386 -3.72756 0
M  V30 2722 H 260.596 0.649787 -7.70063 0
M  V30 2723 H 258.941 0.591296 -6.9248 0
M  V30 2724 H 262.132 0.686472 -4.63039 0
M  V30 2725 H 262.305 0.69965 -6.44212 0
M  V30 2726 N 255.711 1.52812 0.385517 0
M  V30 2727 C 257.122 1.5993 0.963293 0
M  V30 2728 C 257.473 0.454302 1.90868 0
M  V30 2729 O 256.598 -0.422132 2.12243 0
M  V30 2730 C 257.193 2.89871 1.75387 0
M  V30 2731 C 255.752 2.99389 2.28129 0
M  V30 2732 C 254.899 2.55071 1.08783 0
M  V30 2733 H 257.85 1.5784 0.164948 0
M  V30 2734 H 257.871 2.76553 2.61341 0
M  V30 2735 H 257.383 3.73186 1.06554 0
M  V30 2736 H 255.484 2.20619 3.00263 0
M  V30 2737 H 255.597 4.04096 2.57377 0
M  V30 2738 H 253.961 2.09473 1.4489 0
M  V30 2739 H 254.744 3.40785 0.414807 0
M  V30 2740 N 257.189 -0.644168 1.43834 0
M  V30 2741 C 258.099 -1.78563 1.52159 0
M  V30 2742 C 259.115 -1.69147 0.408069 0
M  V30 2743 O 260.291 -1.90156 0.663524 0
M  V30 2744 C 257.356 -3.14888 1.45073 0
M  V30 2745 C 256.417 -3.36034 2.6717 0
M  V30 2746 C 255.65 -4.65855 2.60413 0
M  V30 2747 O 255.873 -5.45805 1.65689 0
M  V30 2748 O 254.807 -4.88918 3.5106 0
M  V30 2749 H 258.633 -1.74494 2.48567 0
M  V30 2750 H 256.218 -0.80378 1.25935 0
M  V30 2751 H 258.1 -3.96179 1.43597 0
M  V30 2752 H 256.775 -3.19528 0.518037 0
M  V30 2753 H 255.682 -2.54472 2.74217 0
M  V30 2754 H 257.015 -3.36247 3.59442 0
M  V30 2755 N 258.668 -1.30515 -0.883378 0
M  V30 2756 C 259.898 -1.22182 -1.66599 0
M  V30 2757 C 260.306 0.217507 -1.87946 0
M  V30 2758 O 259.649 1.1554 -1.42815 0
M  V30 2759 C 259.711 -1.88146 -3.06335 0
M  V30 2760 C 259.375 -3.37476 -3.08154 0
M  V30 2761 C 260.372 -4.33443 -2.87094 0
M  V30 2762 C 258.057 -3.7895 -3.29701 0
M  V30 2763 C 260.051 -5.68858 -2.8754 0
M  V30 2764 C 257.738 -5.14482 -3.29776 0
M  V30 2765 C 258.736 -6.09246 -3.0872 0
M  V30 2766 O 258.424 -7.42302 -3.08615 0
M  V30 2767 H 258.156 -0.423898 -0.52658 0
M  V30 2768 H 260.71 -1.72703 -1.11188 0
M  V30 2769 H 258.94 -1.32157 -3.63416 0
M  V30 2770 H 260.629 -1.7391 -3.66756 0
M  V30 2771 H 261.395 -4.02733 -2.70243 0
M  V30 2772 H 257.274 -3.05631 -3.45124 0
M  V30 2773 H 260.818 -6.428 -2.71024 0
M  V30 2774 H 256.715 -5.44832 -3.46163 0
M  V30 2775 H 257.483 -7.5131 -3.24769 0
M  V30 2776 N 260.146 1.09593 -1.13257 0
M  V30 2777 C 261.371 1.8604 -0.916732 0
M  V30 2778 C 261.796 1.80504 0.529146 0
M  V30 2779 O 261.154 1.18127 1.37534 0
M  V30 2780 C 261.202 3.32017 -1.40703 0
M  V30 2781 O 260.306 4.08141 -0.591153 0
M  V30 2782 H 259.647 0.576943 -0.328683 0
M  V30 2783 H 262.177 1.38405 -1.50682 0
M  V30 2784 H 262.187 3.82865 -1.4099 0
M  V30 2785 H 260.862 3.35361 -2.45979 0
M  V30 2786 H 259.439 3.67084 -0.656005 0
M  V30 2787 N 261.624 0.925811 1.2754 0
M  V30 2788 C 262.587 0.428129 2.25166 0
M  V30 2789 C 263.587 -0.452261 1.54309 0
M  V30 2790 O 264.777 -0.253608 1.72344 0
M  V30 2791 C 261.909 -0.384749 3.38722 0
M  V30 2792 H 263.102 1.29066 2.70706 0
M  V30 2793 H 260.655 0.706323 1.3943 0
M  V30 2794 H 261.39 -1.26618 2.98561 0
M  V30 2795 H 261.175 0.246454 3.91325 0
M  V30 2796 H 262.665 -0.723389 4.11287 0
M  V30 2797 N 263.102 -1.41638 0.69111 0
M  V30 2798 C 264.327 -2.06148 0.227583 0
M  V30 2799 C 264.752 -1.51652 -1.11281 0
M  V30 2800 O 264.11 -0.64164 -1.69566 0
M  V30 2801 C 264.158 -3.60095 0.190858 0
M  V30 2802 O 263.262 -4.03845 -0.835664 0
M  V30 2803 H 262.603 -0.654434 0.112306 0
M  V30 2804 H 265.133 -1.81484 0.944714 0
M  V30 2805 H 265.143 -4.07995 0.020207 0
M  V30 2806 H 263.818 -3.99129 1.16915 0
M  V30 2807 H 262.395 -3.67458 -0.63473 0
M  V30 2808 N 264.58 -0.43555 -1.51462 0
M  V30 2809 C 265.512 0.41257 -2.25456 0
M  V30 2810 C 266.525 0.987822 -1.29406 0
M  V30 2811 O 267.714 0.882266 -1.55172 0
M  V30 2812 C 264.814 1.58894 -2.99342 0
M  V30 2813 C 263.987 1.13288 -4.22474 0
M  V30 2814 C 263.046 2.17917 -4.78956 0
M  V30 2815 O 262.072 1.77425 -5.40841 0
M  V30 2816 N 263.274 3.50382 -4.62832 0
M  V30 2817 H 266.039 -0.221603 -2.9888 0
M  V30 2818 H 263.6 -0.264342 -1.59727 0
M  V30 2819 H 265.592 2.28508 -3.34015 0
M  V30 2820 H 264.162 2.12849 -2.28941 0
M  V30 2821 H 263.382 0.263881 -3.93316 0
M  V30 2822 H 264.67 0.805542 -5.02383 0
M  V30 2823 H 264.068 3.86013 -4.13534 0
M  V30 2824 H 262.625 4.15895 -5.01871 0
M  V30 2825 N 266.058 1.56714 -0.166846 0
M  V30 2826 C 266.988 2.20754 0.760913 0
M  V30 2827 C 267.969 1.16178 1.24244 0
M  V30 2828 O 269.154 1.44592 1.29641 0
M  V30 2829 C 266.284 2.84478 1.99223 0
M  V30 2830 C 265.238 3.95053 1.64672 0
M  V30 2831 C 264.564 4.45805 2.95232 0
M  V30 2832 C 265.864 5.14865 0.878155 0
M  V30 2833 H 267.558 2.98537 0.22713 0
M  V30 2834 H 265.104 1.43596 0.107805 0
M  V30 2835 H 267.057 3.27951 2.64624 0
M  V30 2836 H 265.781 2.04056 2.55007 0
M  V30 2837 H 264.44 3.52228 1.01641 0
M  V30 2838 H 264.088 3.62181 3.49047 0
M  V30 2839 H 263.788 5.204 2.7287 0
M  V30 2840 H 265.312 4.91962 3.6167 0
M  V30 2841 H 266.726 5.55059 1.43466 0
M  V30 2842 H 265.123 5.95348 0.753738 0
M  V30 2843 H 266.193 4.84735 -0.126377 0
M  V30 2844 N 267.536 -0.106894 1.57237 0
M  V30 2845 C 268.483 -1.13049 2.01217 0
M  V30 2846 C 269.453 -1.40471 0.886403 0
M  V30 2847 O 270.638 -1.52133 1.15153 0
M  V30 2848 C 267.778 -2.4487 2.43172 0
M  V30 2849 C 266.891 -2.24281 3.69218 0
M  V30 2850 C 266.026 -3.49417 4.00101 0
M  V30 2851 C 265.065 -3.24038 5.19294 0
M  V30 2852 N 264.202 -4.41409 5.45988 0
M  V30 2853 H 269.042 -0.748456 2.88448 0
M  V30 2854 H 266.579 -0.358054 1.42676 0
M  V30 2855 H 268.537 -3.21786 2.65537 0
M  V30 2856 H 267.167 -2.80944 1.58967 0
M  V30 2857 H 266.219 -1.38224 3.54398 0
M  V30 2858 H 267.531 -2.01512 4.56283 0
M  V30 2859 H 266.685 -4.34746 4.2318 0
M  V30 2860 H 265.424 -3.75229 3.11535 0
M  V30 2861 H 264.429 -2.37102 4.96047 0
M  V30 2862 H 265.654 -2.99584 6.09447 0
M  V30 2863 H 263.6 -4.67319 4.60379 0
M  V30 2864 H 263.517 -4.21788 6.274 0
M  V30 2865 H 264.785 -5.27836 5.73593 0
M  V30 2866 N 269.014 -1.53014 -0.377408 0
M  V30 2867 C 270.262 -1.6829 -1.11906 0
M  V30 2868 C 270.583 -0.431206 -1.90173 0
M  V30 2869 O 269.853 0.554595 -1.87886 0
M  V30 2870 H 268.433 -0.620371 -0.416112 0
M  V30 2871 H 271.095 -1.90167 -0.426893 0
M  V30 2872 H 270.191 -2.53862 -1.8155 0
M  V30 2873 N 270.492 0.636531 -1.44174 0
M  V30 2874 C 271.739 1.39619 -1.46672 0
M  V30 2875 C 272.067 1.94257 -0.0972691 0
M  V30 2876 O 271.322 1.73768 0.900175 0
M  V30 2877 C 271.621 2.58309 -2.47005 0
M  V30 2878 C 271.287 2.21992 -3.92467 0
M  V30 2879 C 269.949 2.118 -4.32081 0
M  V30 2880 C 272.301 1.9321 -4.84065 0
M  V30 2881 C 269.629 1.71007 -5.61225 0
M  V30 2882 C 271.981 1.53911 -6.13591 0
M  V30 2883 C 270.645 1.42257 -6.52165 0
M  V30 2884 H 269.915 0.510902 -0.536712 0
M  V30 2885 H 272.562 0.722328 -1.77355 0
M  V30 2886 H 270.867 3.30903 -2.09786 0
M  V30 2887 H 272.564 3.16533 -2.46186 0
M  V30 2888 H 269.154 2.30841 -3.61124 0
M  V30 2889 H 273.338 1.99997 -4.54219 0
M  V30 2890 H 268.594 1.60583 -5.89935 0
M  V30 2891 H 272.768 1.30677 -6.8403 0
M  V30 2892 H 270.395 1.10419 -7.52138 0
M  V30 2893 N 271.97 1.30982 0.876444 0
M  V30 2894 C 273.195 1.23373 1.66715 0
M  V30 2895 C 273.62 -0.19885 1.87046 0
M  V30 2896 O 272.978 -1.1427 1.40756 0
M  V30 2897 C 273.026 1.97644 3.01611 0
M  V30 2898 O 272.13 1.30935 3.91062 0
M  V30 2899 H 271.471 0.426279 0.509099 0
M  V30 2900 H 274.001 1.72944 1.09323 0
M  V30 2901 H 274.011 2.06992 3.51594 0
M  V30 2902 H 272.686 3.01829 2.86133 0
M  V30 2903 H 271.263 1.29996 3.49507 0
M  V30 2904 N 273.449 -1.08991 1.13837 0
M  V30 2905 C 274.379 -2.17771 0.842507 0
M  V30 2906 C 275.36 -1.6892 -0.20001 0
M  V30 2907 O 276.545 -1.94113 -0.0579731 0
M  V30 2908 C 273.675 -3.4589 0.312644 0
M  V30 2909 C 272.629 -4.08099 1.28992 0
M  V30 2910 C 271.955 -5.31098 0.619623 0
M  V30 2911 C 273.255 -4.50077 2.65005 0
M  V30 2912 H 274.949 -2.42777 1.75213 0
M  V30 2913 H 272.495 -1.16682 0.843875 0
M  V30 2914 H 274.448 -4.21297 0.0933043 0
M  V30 2915 H 273.172 -3.20419 -0.632382 0
M  V30 2916 H 271.831 -3.34717 1.49533 0
M  V30 2917 H 271.479 -5.0191 -0.33102 0
M  V30 2918 H 271.179 -5.73674 1.27167 0
M  V30 2919 H 272.703 -6.09224 0.409669 0
M  V30 2920 H 274.117 -5.16688 2.48407 0
M  V30 2921 H 272.514 -5.03553 3.26427 0
M  V30 2922 H 273.584 -3.62257 3.22332 0
M  V30 2923 N 274.927 -0.932562 -1.27047 0
M  V30 2924 C 275.857 -0.452902 -2.29066 0
M  V30 2925 C 276.838 0.489338 -1.62909 0
M  V30 2926 O 278.023 0.393046 -1.90181 0
M  V30 2927 C 275.153 0.290698 -3.46081 0
M  V30 2928 C 274.107 -0.564168 -4.24265 0
M  V30 2929 C 273.433 0.308886 -5.33807 0
M  V30 2930 C 274.733 -1.83112 -4.89149 0
M  V30 2931 H 276.427 -1.30552 -2.69437 0
M  V30 2932 H 273.973 -0.629201 -1.29526 0
M  V30 2933 H 275.926 0.637233 -4.16554 0
M  V30 2934 H 274.65 1.17738 -3.0464 0
M  V30 2935 H 273.309 -0.893477 -3.55545 0
M  V30 2936 H 272.957 1.19467 -4.88607 0
M  V30 2937 H 272.657 -0.259633 -5.87026 0
M  V30 2938 H 274.181 0.650884 -6.07121 0
M  V30 2939 H 275.595 -1.55236 -5.51883 0
M  V30 2940 H 273.992 -2.34353 -5.52448 0
M  V30 2941 H 275.062 -2.54772 -4.12576 0
M  V30 2942 N 276.405 1.4127 -0.698611 0
M  V30 2943 C 277.368 2.29158 -0.044132 0
M  V30 2944 C 278.368 1.44529 0.704841 0
M  V30 2945 O 279.558 1.65643 0.539276 0
M  V30 2946 C 276.69 3.27459 0.947809 0
M  V30 2947 H 277.883 2.88529 -0.817994 0
M  V30 2948 H 275.436 1.49307 -0.46228 0
M  V30 2949 H 276.171 2.73073 1.74933 0
M  V30 2950 H 275.956 3.8991 0.41385 0
M  V30 2951 H 277.446 3.93311 1.40344 0
M  V30 2952 N 277.883 0.443576 1.51229 0
M  V30 2953 C 279.111 -0.11929 2.06556 0
M  V30 2954 C 279.526 -1.35921 1.31038 0
M  V30 2955 O 278.883 -1.78675 0.371704 0
M  V30 2956 C 278.934 -0.435228 3.5887 0
M  V30 2957 O 278.655 0.755486 4.31537 0
M  V30 2958 C 280.156 -1.04808 4.30732 0
M  V30 2959 H 277.376 -0.0051584 0.67098 0
M  V30 2960 H 279.92 0.624453 1.94733 0
M  V30 2961 H 278.075 -1.12887 3.70588 0
M  V30 2962 H 278.489 0.483491 5.22267 0
M  V30 2963 H 279.963 -1.2191 5.3837 0
M  V30 2964 H 280.44 -2.03081 3.89429 0
M  V30 2965 H 281.046 -0.393637 4.23474 0
M  V30 2966 N 279.361 -1.56624 0.175154 0
M  V30 2967 C 280.271 -2.21741 -0.766042 0
M  V30 2968 C 281.287 -1.21023 -1.25018 0
M  V30 2969 O 282.463 -1.53697 -1.3015 0
M  V30 2970 C 279.528 -2.84839 -1.97655 0
M  V30 2971 C 278.589 -4.00769 -1.53892 0
M  V30 2972 C 277.822 -4.60849 -2.69173 0
M  V30 2973 O 278.045 -4.19823 -3.86141 0
M  V30 2974 O 276.979 -5.50655 -2.43028 0
M  V30 2975 H 280.805 -3.02738 -0.241585 0
M  V30 2976 H 278.39 -1.49305 -0.053222 0
M  V30 2977 H 280.272 -3.24834 -2.68442 0
M  V30 2978 H 278.947 -2.06836 -2.48999 0
M  V30 2979 H 277.854 -3.65436 -0.80044 0
M  V30 2980 H 279.187 -4.80376 -1.07236 0
M  V30 2981 N 280.839 0.0985539 -1.57292 0
M  V30 2982 C 282.116 0.834155 -1.76921 0
M  V30 2983 C 282.496 1.97101 -0.755928 0
M  V30 2984 O 281.844 2.27474 0.216245 0
M  V30 2985 C 282.054 1.33194 -3.22584 0
M  V30 2986 C 283.402 1.77611 -3.85668 0
M  V30 2987 O 284.426 1.42825 -3.26312 0
M  V30 2988 O 283.285 2.4192 -4.90038 0
M  V30 2989 H 280.379 0.397628 -0.725135 0
M  V30 2990 H 282.925 0.0807044 -1.69508 0
M  V30 2991 H 281.697 0.517248 -3.87866 0
M  V30 2992 H 281.32 2.1475 -3.34616 0
M  V30 2993 N 282.317 1.53212 0.369288 0
M  V30 2994 C 283.264 1.79388 1.45219 0
M  V30 2995 C 284.234 0.638059 1.53356 0
M  V30 2996 O 285.419 0.879852 1.69302 0
M  V30 2997 C 282.559 1.98623 2.82211 0
M  V30 2998 C 281.672 3.26337 2.8307 0
M  V30 2999 C 280.807 3.35779 4.11614 0
M  V30 3000 C 279.846 4.5754 4.06601 0
M  V30 3001 N 278.983 4.64155 5.26787 0
M  V30 3002 H 283.823 2.71794 1.22198 0
M  V30 3003 H 281.36 1.34642 0.592444 0
M  V30 3004 H 283.318 2.07761 3.61789 0
M  V30 3005 H 281.948 1.09558 3.03639 0
M  V30 3006 H 281 3.26171 1.95747 0
M  V30 3007 H 282.312 4.15988 2.75237 0
M  V30 3008 H 281.466 3.44208 4.99606 0
M  V30 3009 H 280.205 2.44137 4.22195 0
M  V30 3010 H 279.21 4.49215 3.16996 0
M  V30 3011 H 280.435 5.50519 3.97625 0
M  V30 3012 H 278.381 3.75413 5.3796 0
M  V30 3013 H 278.298 5.47706 5.21109 0
M  V30 3014 H 279.566 4.76863 6.16621 0
M  V30 3015 N 283.795 -0.628877 1.44509 0
M  V30 3016 C 284.705 -1.7694 1.54044 0
M  V30 3017 C 285.721 -1.68705 0.425987 0
M  V30 3018 O 286.897 -1.89442 0.683656 0
M  V30 3019 C 283.962 -3.13332 1.48405 0
M  V30 3020 C 283.023 -3.33181 2.70719 0
M  V30 3021 C 282.256 -4.63067 2.6534 0
M  V30 3022 O 282.479 -5.44017 1.71469 0
M  V30 3023 O 281.413 -4.85167 3.56226 0
M  V30 3024 H 285.239 -1.71848 2.50403 0
M  V30 3025 H 282.824 -0.790378 1.26781 0
M  V30 3026 H 284.706 -3.94634 1.47791 0
M  V30 3027 H 283.381 -3.1896 0.551898 0
M  V30 3028 H 282.288 -2.51549 2.769 0
M  V30 3029 H 283.621 -3.32416 3.62988 0
M  V30 3030 N 285.273 -1.31445 -0.869486 0
M  V30 3031 C 286.236 -1.19094 -1.9583 0
M  V30 3032 C 287.236 -0.117906 -1.60367 0
M  V30 3033 O 288.426 -0.367208 -1.70286 0
M  V30 3034 C 285.558 -0.828165 -3.30688 0
M  V30 3035 H 286.751 -2.15842 -2.08212 0
M  V30 3036 H 284.304 -1.15063 -1.05784 0
M  V30 3037 H 285.039 0.138142 -3.24006 0
M  V30 3038 H 284.824 -1.6038 -3.578 0
M  V30 3039 H 286.314 -0.765658 -4.10521 0
M  V30 3040 N 286.751 1.08385 -1.14413 0
M  V30 3041 C 287.681 2.17321 -0.854044 0
M  V30 3042 C 288.662 1.69024 0.191049 0
M  V30 3043 O 289.847 1.94141 0.0476779 0
M  V30 3044 C 286.977 3.45719 -0.330983 0
M  V30 3045 C 285.931 4.07409 -1.31155 0
M  V30 3046 C 285.257 5.30762 -0.64778 0
M  V30 3047 C 286.557 4.48665 -2.67388 0
M  V30 3048 H 288.251 2.41845 -1.76498 0
M  V30 3049 H 285.797 1.16233 -0.850051 0
M  V30 3050 H 287.75 4.21241 -0.115645 0
M  V30 3051 H 286.474 3.2075 0.615381 0
M  V30 3052 H 285.133 3.33919 -1.51306 0
M  V30 3053 H 284.781 5.02078 0.304398 0
M  V30 3054 H 284.481 5.72992 -1.30207 0
M  V30 3055 H 286.005 6.08998 -0.441972 0
M  V30 3056 H 287.419 5.15364 -2.51143 0
M  V30 3057 H 285.816 5.01814 -3.29093 0
M  V30 3058 H 286.886 3.60543 -3.24248 0
M  V30 3059 N 288.23 0.939286 1.26551 0
M  V30 3060 C 289.177 0.446088 2.26448 0
M  V30 3061 C 290.147 -0.493234 1.58608 0
M  V30 3062 O 291.332 -0.409857 1.86346 0
M  V30 3063 C 288.472 -0.284375 3.43926 0
M  V30 3064 C 287.585 0.690399 4.26448 0
M  V30 3065 C 286.72 -0.0610712 5.31165 0
M  V30 3066 C 285.759 0.905649 6.05363 0
M  V30 3067 N 284.896 0.186055 7.01853 0
M  V30 3068 H 289.736 1.30291 2.68008 0
M  V30 3069 H 287.273 0.65371 1.31776 0
M  V30 3070 H 289.231 -0.724313 4.10864 0
M  V30 3071 H 287.861 -1.10535 3.03285 0
M  V30 3072 H 286.913 1.24885 3.59316 0
M  V30 3073 H 288.225 1.42873 4.779 0
M  V30 3074 H 287.379 -0.56038 6.04106 0
M  V30 3075 H 286.118 -0.832297 4.80546 0
M  V30 3076 H 285.123 1.4161 5.3125 0
M  V30 3077 H 286.348 1.67685 6.58072 0
M  V30 3078 H 284.294 -0.566714 6.53548 0
M  V30 3079 H 284.211 0.863752 7.51049 0
M  V30 3080 H 285.479 -0.292221 7.78952 0
M  V30 3081 N 289.708 -1.40897 0.706093 0
M  V30 3082 C 290.655 -2.30751 0.0474474 0
M  V30 3083 C 291.625 -1.47678 -0.76029 0
M  V30 3084 O 292.81 -1.76441 -0.726177 0
M  V30 3085 C 289.95 -3.33815 -0.875309 0
M  V30 3086 C 289.063 -4.31961 -0.0580623 0
M  V30 3087 C 288.198 -5.22093 -0.979425 0
M  V30 3088 C 287.237 -6.11902 -0.155706 0
M  V30 3089 N 286.374 -6.94482 -1.03144 0
M  V30 3090 H 291.214 -2.86513 0.819413 0
M  V30 3091 H 288.751 -1.41102 0.415783 0
M  V30 3092 H 290.709 -3.92129 -1.42446 0
M  V30 3093 H 289.339 -2.79579 -1.61356 0
M  V30 3094 H 288.391 -3.75507 0.608147 0
M  V30 3095 H 289.703 -4.95415 0.580082 0
M  V30 3096 H 288.857 -5.85292 -1.59744 0
M  V30 3097 H 287.596 -4.5889 -1.65141 0
M  V30 3098 H 286.601 -5.47742 0.475309 0
M  V30 3099 H 287.826 -6.77162 0.512635 0
M  V30 3100 H 285.772 -6.33877 -1.68924 0
M  V30 3101 H 285.689 -7.54665 -0.449108 0
M  V30 3102 H 286.957 -7.6214 -1.63593 0
M  V30 3103 N 291.186 -0.45159 -1.50991 0
M  V30 3104 C 292.118 0.388634 -2.25881 0
M  V30 3105 C 293.131 0.974041 -1.30446 0
M  V30 3106 O 294.32 0.865758 -1.56099 0
M  V30 3107 C 291.42 1.5571 -3.01011 0
M  V30 3108 C 290.593 1.08801 -4.23652 0
M  V30 3109 C 289.652 2.12825 -4.8124 0
M  V30 3110 O 288.678 1.71678 -5.42693 0
M  V30 3111 N 289.88 3.45453 -4.66522 0
M  V30 3112 H 292.645 -0.25329 -2.98628 0
M  V30 3113 H 290.206 -0.281268 -1.59438 0
M  V30 3114 H 292.198 2.24952 -3.3642 0
M  V30 3115 H 290.768 2.10409 -2.31186 0
M  V30 3116 H 289.988 0.22215 -3.93574 0
M  V30 3117 H 291.276 0.752213 -5.03209 0
M  V30 3118 H 290.674 3.81605 -4.17605 0
M  V30 3119 H 289.231 4.10549 -5.06254 0
M  V30 3120 N 292.664 1.56529 -0.183458 0
M  V30 3121 C 293.594 2.21549 0.737456 0
M  V30 3122 C 294.575 1.17489 1.23005 0
M  V30 3123 O 295.76 1.45959 1.281 0
M  V30 3124 C 292.89 2.86575 1.96194 0
M  V30 3125 C 291.844 3.96778 1.60473 0
M  V30 3126 C 291.17 4.48911 2.90487 0
M  V30 3127 C 292.47 5.15767 0.823497 0
M  V30 3128 H 294.164 2.98761 0.195453 0
M  V30 3129 H 291.71 1.43702 0.0925686 0
M  V30 3130 H 293.663 3.30739 2.61131 0
M  V30 3131 H 292.387 2.06749 2.52828 0
M  V30 3132 H 291.046 3.53286 0.978997 0
M  V30 3133 H 290.694 3.65862 3.45186 0
M  V30 3134 H 290.394 5.23265 2.67335 0
M  V30 3135 H 291.918 4.95771 3.56432 0
M  V30 3136 H 293.332 5.56549 1.37571 0
M  V30 3137 H 291.729 5.96114 0.690551 0
M  V30 3138 H 292.799 4.84574 -0.177782 0
M  V30 3139 N 294.142 -0.090211 1.57342 0
M  V30 3140 C 295.553 -0.644173 1.75235 0
M  V30 3141 C 295.904 -1.78865 0.806335 0
M  V30 3142 O 295.029 -2.16395 -0.0140128 0
M  V30 3143 C 295.624 -1.17532 3.1776 0
M  V30 3144 C 294.183 -1.67531 3.37061 0
M  V30 3145 C 293.33 -0.58693 2.71017 0
M  V30 3146 H 296.281 0.135884 1.58117 0
M  V30 3147 H 296.302 -2.04455 3.20902 0
M  V30 3148 H 295.814 -0.342138 3.86589 0
M  V30 3149 H 293.915 -2.53234 2.73319 0
M  V30 3150 H 294.028 -1.76493 4.45406 0
M  V30 3151 H 292.392 -1.02756 2.33052 0
M  V30 3152 H 293.175 0.235758 3.4249 0
M  V30 3153 N 295.62 -1.53406 -0.361157 0
M  V30 3154 C 296.868 -1.69467 -1.10115 0
M  V30 3155 C 297.189 -0.451352 -1.89705 0
M  V30 3156 O 296.459 0.534636 -1.88463 0
M  V30 3157 H 295.039 -0.624749 -0.409508 0
M  V30 3158 H 297.701 -1.90609 -0.406699 0
M  V30 3159 H 296.797 -2.55774 -1.78847 0
M  V30 3160 N 297.098 0.621204 -1.44841 0
M  V30 3161 C 298.344 1.3826 -1.48365 0
M  V30 3162 C 298.677 1.93831 -0.119624 0
M  V30 3163 O 297.952 1.74251 0.864111 0
M  V30 3164 C 298.235 2.54058 -2.55199 0
M  V30 3165 C 298.088 2.03772 -4.00995 0
M  V30 3166 C 299.407 3.56225 -2.58442 0
M  V30 3167 H 296.526 0.501374 -0.540179 0
M  V30 3168 H 299.168 0.7015 -1.76576 0
M  V30 3169 H 297.318 3.12162 -2.31274 0
M  V30 3170 H 298.99 1.50423 -4.36086 0
M  V30 3171 H 297.233 1.34876 -4.12299 0
M  V30 3172 H 297.904 2.87185 -4.71411 0
M  V30 3173 H 300.38 3.07939 -2.79844 0
M  V30 3174 H 299.256 4.34756 -3.3508 0
M  V30 3175 H 299.517 4.10949 -1.63013 0
M  V30 3176 N 298.576 1.31904 0.862503 0
M  V30 3177 C 299.523 1.20182 1.9704 0
M  V30 3178 C 300.493 0.0858247 1.65878 0
M  V30 3179 O 301.678 0.26 1.8902 0
M  V30 3180 C 298.818 0.922797 3.32533 0
M  V30 3181 C 297.931 2.12284 3.76244 0
M  V30 3182 C 297.066 1.77996 5.00491 0
M  V30 3183 C 296.105 2.94366 5.36671 0
M  V30 3184 N 295.242 2.60223 6.52095 0
M  V30 3185 H 300.082 2.14951 2.06398 0
M  V30 3186 H 297.619 1.06917 1.01031 0
M  V30 3187 H 299.577 0.741548 4.10557 0
M  V30 3188 H 298.207 0.0119227 3.22798 0
M  V30 3189 H 297.259 2.41461 2.9394 0
M  V30 3190 H 298.571 2.99357 3.98982 0
M  V30 3191 H 297.725 1.56377 5.862 0
M  V30 3192 H 296.464 0.881252 4.79672 0
M  V30 3193 H 295.469 3.16625 4.49476 0
M  V30 3194 H 296.694 3.84957 5.59451 0
M  V30 3195 H 294.64 1.72884 6.32809 0
M  V30 3196 H 294.557 3.40827 6.74814 0
M  V30 3197 H 295.825 2.42016 7.40978 0
M  V30 3198 N 300.054 -1.07777 1.14986 0
M  V30 3199 C 301.279 -1.84558 0.946213 0
M  V30 3200 C 301.704 -1.81323 -0.500362 0
M  V30 3201 O 301.062 -1.20301 -1.35637 0
M  V30 3202 C 301.11 -3.29736 1.45968 0
M  V30 3203 O 300.214 -4.07149 0.65601 0
M  V30 3204 H 299.555 -0.571641 0.33782 0
M  V30 3205 H 302.085 -1.35991 1.52865 0
M  V30 3206 H 302.095 -3.80574 1.47063 0
M  V30 3207 H 300.77 -3.31406 2.51283 0
M  V30 3208 H 299.347 -3.65994 0.714322 0
M  V30 3209 N 301.532 -0.945985 -1.26051 0
M  V30 3210 C 302.442 -0.465633 -2.29933 0
M  V30 3211 C 303.458 0.462761 -1.67733 0
M  V30 3212 O 304.634 0.341118 -1.9849 0
M  V30 3213 C 301.699 0.256994 -3.45746 0
M  V30 3214 C 300.76 -0.708549 -4.23412 0
M  V30 3215 C 299.993 -0.0203135 -5.33696 0
M  V30 3216 O 300.216 1.19571 -5.57726 0
M  V30 3217 O 299.15 -0.701459 -5.97799 0
M  V30 3218 H 302.976 -1.32866 -2.73094 0
M  V30 3219 H 300.561 -0.712071 -1.31339 0
M  V30 3220 H 302.443 0.663852 -4.16138 0
M  V30 3221 H 301.118 1.09533 -3.04605 0
M  V30 3222 H 300.025 -1.16545 -3.55483 0
M  V30 3223 H 301.358 -1.51465 -4.68315 0
M  V30 3224 N 303.011 1.40521 -0.713556 0
M  V30 3225 C 304.259 2.00527 -0.251692 0
M  V30 3226 C 304.58 1.56857 1.15848 0
M  V30 3227 O 303.85 0.807127 1.785 0
M  V30 3228 H 302.43 0.741551 -0.0900646 0
M  V30 3229 H 305.092 1.71887 -0.918733 0
M  V30 3230 H 304.188 3.10813 -0.283192 0
M  V30 3231 N 304.489 0.459591 1.5075 0
M  V30 3232 C 305.436 -0.340524 2.28274 0
M  V30 3233 C 306.406 -0.997371 1.32822 0
M  V30 3234 O 307.591 -1.01202 1.61749 0
M  V30 3235 C 304.731 -1.42317 3.14388 0
M  V30 3236 C 303.844 -0.782251 4.24859 0
M  V30 3237 C 302.979 -1.84182 4.98247 0
M  V30 3238 C 302.018 -1.18053 6.00608 0
M  V30 3239 N 301.155 -2.18244 6.67319 0
M  V30 3240 H 305.995 0.326899 2.96202 0
M  V30 3241 H 303.532 0.173057 1.46078 0
M  V30 3242 H 305.49 -2.06241 3.62658 0
M  V30 3243 H 304.12 -2.05992 2.4853 0
M  V30 3244 H 303.172 -0.0307404 3.80388 0
M  V30 3245 H 304.484 -0.259663 4.98124 0
M  V30 3246 H 303.638 -2.55714 5.50177 0
M  V30 3247 H 302.377 -2.39819 4.24662 0
M  V30 3248 H 301.382 -0.450776 5.47949 0
M  V30 3249 H 302.607 -0.631202 6.7616 0
M  V30 3250 H 300.553 -2.72919 5.96533 0
M  V30 3251 H 300.47 -1.70938 7.36421 0
M  V30 3252 H 301.738 -2.89191 7.23871 0
M  V30 3253 N 305.967 -1.56429 0.191757 0
M  V30 3254 C 307.383 -1.58754 -0.164137 0
M  V30 3255 C 307.583 -1.20782 -1.61288 0
M  V30 3256 O 306.639 -0.928999 -2.34789 0
M  V30 3257 C 307.952 -3.00396 0.135195 0
M  V30 3258 C 309.5 -3.1291 0.0750351 0
M  V30 3259 C 309.975 -4.56679 0.347632 0
M  V30 3260 N 311.466 -4.62252 0.296131 0
M  V30 3261 C 312.201 -5.71379 0.480948 0
M  V30 3262 N 311.697 -6.88986 0.725933 0
M  V30 3263 N 313.49 -5.60563 0.415435 0
M  V30 3264 H 305.641 -1.79393 1.13718 0
M  V30 3265 H 307.904 -0.832414 0.453643 0
M  V30 3266 H 307.61 -3.32726 1.13958 0
M  V30 3267 H 307.484 -3.72963 -0.563773 0
M  V30 3268 H 309.871 -2.80394 -0.919948 0
M  V30 3269 H 309.952 -2.42736 0.807029 0
M  V30 3270 H 309.596 -4.89907 1.33992 0
M  V30 3271 H 309.526 -5.25039 -0.405212 0
M  V30 3272 H 312.017 -3.7773 0.113259 0
M  V30 3273 H 312.33 -7.68046 0.855857 0
M  V30 3274 H 310.675 -6.90801 0.762788 0
M  V30 3275 H 313.866 -4.67561 0.224486 0
M  V30 3276 H 314.039 -6.45551 0.562889 0
M  V30 3277 N 307.445 0.0818655 -1.57387 0
M  V30 3278 C 308.392 1.09834 -2.0299 0
M  V30 3279 C 309.362 1.39043 -0.908639 0
M  V30 3280 O 310.547 1.50282 -1.17559 0
M  V30 3281 C 307.687 2.40971 -2.47037 0
M  V30 3282 C 306.8 2.18379 -3.7274 0
M  V30 3283 C 305.935 3.43008 -4.0561 0
M  V30 3284 C 304.974 3.15736 -5.24383 0
M  V30 3285 N 304.111 4.32667 -5.52941 0
M  V30 3286 H 308.951 0.702472 -2.89602 0
M  V30 3287 H 306.488 0.33531 -1.43227 0
M  V30 3288 H 308.446 3.1752 -2.70623 0
M  V30 3289 H 307.076 2.78379 -1.63417 0
M  V30 3290 H 306.128 1.32569 -3.56552 0
M  V30 3291 H 307.44 1.94227 -4.59431 0
M  V30 3292 H 306.594 4.27958 -4.30043 0
M  V30 3293 H 305.333 3.70225 -3.17466 0
M  V30 3294 H 304.338 2.2918 -4.99757 0
M  V30 3295 H 305.563 2.8985 -6.14136 0
M  V30 3296 H 303.509 4.59935 -4.67756 0
M  V30 3297 H 303.426 4.11753 -6.34031 0
M  V30 3298 H 304.694 5.18644 -5.81918 0
M  V30 3299 N 308.923 1.53595 0.353017 0
M  V30 3300 C 310.171 1.70049 1.09215 0
M  V30 3301 C 310.492 0.461406 1.89463 0
M  V30 3302 O 309.762 -0.524633 1.88744 0
M  V30 3303 H 308.342 0.626912 0.40619 0
M  V30 3304 H 311.004 1.90822 0.396585 0
M  V30 3305 H 310.1 2.56718 1.77488 0
M  V30 3306 N 310.401 -0.613514 1.45168 0
M  V30 3307 C 311.678 -1.37263 1.39349 0
M  V30 3308 C 312.058 -2.11012 0.0610848 0
M  V30 3309 O 311.406 -2.07502 -0.956825 0
M  V30 3310 C 311.616 -2.3244 2.60332 0
M  V30 3311 C 312.964 -2.9523 3.05163 0
M  V30 3312 O 313.988 -2.42762 2.60663 0
M  V30 3313 O 312.847 -3.90454 3.82372 0
M  V30 3314 H 309.941 -0.615188 0.552696 0
M  V30 3315 H 312.487 -0.637097 1.57287 0
M  V30 3316 H 311.259 -1.77164 3.48896 0
M  V30 3317 H 310.882 -3.13383 2.44698 0
M  V30 3318 N 311.879 -1.3236 -0.855495 0
M  V30 3319 C 312.789 -1.23221 -1.99634 0
M  V30 3320 C 313.805 -0.145983 -1.73387 0
M  V30 3321 O 314.981 -0.366502 -1.98037 0
M  V30 3322 C 312.046 -0.954782 -3.33294 0
M  V30 3323 C 311.107 -2.12937 -3.72769 0
M  V30 3324 C 310.34 -1.86508 -5.00051 0
M  V30 3325 O 310.563 -0.807231 -5.64659 0
M  V30 3326 O 309.497 -2.72591 -5.36636 0
M  V30 3327 H 313.323 -2.19126 -2.1028 0
M  V30 3328 H 310.908 -1.12241 -0.986018 0
M  V30 3329 H 312.79 -0.816519 -4.13414 0
M  V30 3330 H 311.465 -0.0258854 -3.2369 0
M  V30 3331 H 310.372 -2.3231 -2.93228 0
M  V30 3332 H 311.705 -3.04102 -3.87018 0
M  V30 3333 N 313.357 1.07166 -1.15556 0
M  V30 3334 C 314.603 1.80065 -0.932984 0
M  V30 3335 C 314.936 1.86586 0.53845 0
M  V30 3336 O 314.211 1.35098 1.39924 0
M  V30 3337 C 314.494 3.25022 -1.55025 0
M  V30 3338 C 314.347 3.26634 -3.09242 0
M  V30 3339 C 315.666 4.22341 -1.2376 0
M  V30 3340 H 312.785 0.653697 -0.340366 0
M  V30 3341 H 315.427 1.25389 -1.4275 0
M  V30 3342 H 313.577 3.71712 -1.12972 0
M  V30 3343 H 315.249 2.88173 -3.60214 0
M  V30 3344 H 313.492 2.65539 -3.43033 0
M  V30 3345 H 314.163 4.28854 -3.47546 0
M  V30 3346 H 316.639 3.8405 -1.60139 0
M  V30 3347 H 315.515 5.22053 -1.69564 0
M  V30 3348 H 315.776 4.41828 -0.154938 0
M  V30 3349 N 314.835 0.952656 1.25548 0
M  V30 3350 C 316.112 0.523818 1.88456 0
M  V30 3351 C 316.492 -0.998871 1.85973 0
M  V30 3352 O 315.84 -1.86381 1.3219 0
M  V30 3353 C 316.05 1.0982 3.31271 0
M  V30 3354 C 317.398 1.17385 4.08051 0
M  V30 3355 O 318.422 1.04961 3.40384 0
M  V30 3356 O 317.281 1.36852 5.29088 0
M  V30 3357 H 314.375 0.172485 0.808813 0
M  V30 3358 H 316.921 1.04596 1.33633 0
M  V30 3359 H 315.693 2.1415 3.27499 0
M  V30 3360 H 315.316 0.559191 3.93648 0
M  V30 3361 N 316.313 -1.40141 0.720998 0
M  V30 3362 C 317.561 -2.0039 0.262323 0
M  V30 3363 C 317.882 -1.57469 -1.15015 0
M  V30 3364 O 317.152 -0.816582 -1.78069 0
M  V30 3365 H 315.732 -0.741063 0.093996 0
M  V30 3366 H 318.394 -1.71398 0.927835 0
M  V30 3367 H 317.49 -3.10658 0.299671 0
M  V30 3368 N 317.792 -0.46758 -1.50504 0
M  V30 3369 C 319.038 0.0887532 -2.02606 0
M  V30 3370 C 319.371 1.39686 -1.34913 0
M  V30 3371 O 318.646 1.88644 -0.473694 0
M  V30 3372 C 318.929 0.276206 -3.59039 0
M  V30 3373 C 318.782 -1.05267 -4.37309 0
M  V30 3374 C 320.101 1.03235 -4.27821 0
M  V30 3375 H 317.22 0.0307814 -0.736357 0
M  V30 3376 H 319.862 -0.612485 -1.79857 0
M  V30 3377 H 318.012 0.8735 -3.78553 0
M  V30 3378 H 319.684 -1.68628 -4.29374 0
M  V30 3379 H 317.927 -1.65015 -4.01189 0
M  V30 3380 H 318.598 -0.875197 -5.45018 0
M  V30 3381 H 321.074 0.526111 -4.12761 0
M  V30 3382 H 319.95 1.1323 -5.37094 0
M  V30 3383 H 320.211 2.06806 -3.90748 0
M  V30 3384 N 319.27 1.56325 -0.20005 0
M  V30 3385 C 320.547 1.89484 0.48529 0
M  V30 3386 C 320.927 1.1143 1.79294 0
M  V30 3387 O 320.275 0.216919 2.27468 0
M  V30 3388 C 320.485 3.41923 0.699243 0
M  V30 3389 C 321.833 4.12256 1.01638 0
M  V30 3390 O 322.857 3.47402 0.786792 0
M  V30 3391 O 321.716 5.26887 1.45095 0
M  V30 3392 H 318.81 0.787144 0.253639 0
M  V30 3393 H 321.356 1.67985 -0.240633 0
M  V30 3394 H 320.128 3.90658 -0.224008 0
M  V30 3395 H 319.751 3.69131 1.47744 0
M  V30 3396 N 320.748 -0.0735177 1.57428 0
M  V30 3397 C 321.658 -1.10547 2.06922 0
M  V30 3398 C 322.674 -1.42506 0.998402 0
M  V30 3399 O 323.85 -1.52717 1.31299 0
M  V30 3400 C 320.915 -2.40019 2.50184 0
M  V30 3401 C 319.976 -2.15046 3.71556 0
M  V30 3402 C 319.209 -3.38345 4.12745 0
M  V30 3403 O 319.432 -4.47399 3.53822 0
M  V30 3404 O 318.366 -3.2666 5.05546 0
M  V30 3405 H 322.192 -0.715013 2.95163 0
M  V30 3406 H 319.777 -0.287531 1.46607 0
M  V30 3407 H 321.659 -3.16218 2.78539 0
M  V30 3408 H 320.334 -2.78447 1.65072 0
M  V30 3409 H 319.241 -1.36558 3.48285 0
M  V30 3410 H 320.574 -1.81499 4.57514 0
M  V30 3411 N 322.226 -1.5378 -0.344866 0
M  V30 3412 C 323.472 -1.71216 -1.08687 0
M  V30 3413 C 323.805 -0.473281 -1.88345 0
M  V30 3414 O 323.08 0.52968 -1.87149 0
M  V30 3415 C 323.363 -2.97486 -2.02914 0
M  V30 3416 C 323.216 -4.31579 -1.26727 0
M  V30 3417 C 324.535 -3.19422 -3.0275 0
M  V30 3418 H 321.654 -0.62301 -0.393735 0
M  V30 3419 H 324.296 -1.8645 -0.365563 0
M  V30 3420 H 322.446 -2.84629 -2.64421 0
M  V30 3421 H 324.118 -4.56284 -0.67845 0
M  V30 3422 H 322.361 -4.30049 -0.569273 0
M  V30 3423 H 323.032 -5.16106 -1.95803 0
M  V30 3424 H 325.508 -3.316 -2.51357 0
M  V30 3425 H 324.384 -4.09169 -3.65885 0
M  V30 3426 H 324.645 -2.35656 -3.74057 0
M  V30 3427 N 323.704 0.605807 -1.45491 0
M  V30 3428 C 324.667 1.69836 -1.5391 0
M  V30 3429 C 325.667 1.55261 -0.418424 0
M  V30 3430 O 326.857 1.60296 -0.681965 0
M  V30 3431 C 323.989 3.09117 -1.43734 0
M  V30 3432 H 325.182 1.63738 -2.51257 0
M  V30 3433 H 322.735 0.821689 -1.32959 0
M  V30 3434 H 323.47 3.20791 -0.475788 0
M  V30 3435 H 323.255 3.21104 -2.25021 0
M  V30 3436 H 324.745 3.88696 -1.52661 0
M  V30 3437 N 325.182 1.32811 0.848464 0
M  V30 3438 C 326.129 1.22265 1.95755 0
M  V30 3439 C 327.099 0.103413 1.65778 0
M  V30 3440 O 328.284 0.280033 1.88734 0
M  V30 3441 C 325.424 0.958014 3.31536 0
M  V30 3442 C 324.537 2.16262 3.73971 0
M  V30 3443 C 323.672 1.83295 4.98575 0
M  V30 3444 C 322.711 3.00041 5.33518 0
M  V30 3445 N 321.848 2.67125 6.49299 0
M  V30 3446 H 326.688 2.17128 2.04107 0
M  V30 3447 H 324.225 1.07982 0.998913 0
M  V30 3448 H 326.183 0.785052 4.09747 0
M  V30 3449 H 324.813 0.046159 3.22767 0
M  V30 3450 H 323.865 2.44565 2.91362 0
M  V30 3451 H 325.177 3.03572 3.95785 0
M  V30 3452 H 324.331 1.62586 5.84509 0
M  V30 3453 H 323.07 0.932078 4.7871 0
M  V30 3454 H 322.075 3.21374 4.46093 0
M  V30 3455 H 323.3 3.90869 5.55336 0
M  V30 3456 H 321.246 1.79586 6.3094 0
M  V30 3457 H 321.163 3.47965 6.71161 0
M  V30 3458 H 322.431 2.49861 7.3837 0
M  V30 3459 N 326.66 -1.06551 1.16123 0
M  V30 3460 C 327.607 -2.13961 0.865414 0
M  V30 3461 C 328.577 -1.65066 -0.185055 0
M  V30 3462 O 329.762 -1.90732 -0.05083 0
M  V30 3463 C 326.902 -3.43113 0.369776 0
M  V30 3464 C 326.015 -4.05756 1.48276 0
M  V30 3465 C 325.15 -5.22773 0.942414 0
M  V30 3466 C 324.189 -5.77395 2.03179 0
M  V30 3467 N 323.326 -6.85731 1.50721 0
M  V30 3468 H 328.166 -2.38605 1.78527 0
M  V30 3469 H 325.703 -1.17072 0.890646 0
M  V30 3470 H 327.661 -4.17151 0.0640643 0
M  V30 3471 H 326.291 -3.18695 -0.513143 0
M  V30 3472 H 325.343 -3.29292 1.9045 0
M  V30 3473 H 326.655 -4.42351 2.30493 0
M  V30 3474 H 325.809 -6.03827 0.589729 0
M  V30 3475 H 324.548 -4.87618 0.0895191 0
M  V30 3476 H 323.553 -4.94981 2.3932 0
M  V30 3477 H 324.778 -6.14603 2.8886 0
M  V30 3478 H 322.724 -6.52499 0.676811 0
M  V30 3479 H 322.641 -7.21254 2.26557 0
M  V30 3480 H 323.909 -7.7047 1.18303 0
M  V30 3481 N 328.138 -0.959301 -1.25041 0
M  V30 3482 C 329.085 -0.482057 -2.2571 0
M  V30 3483 C 330.055 0.467939 -1.59372 0
M  V30 3484 O 331.24 0.380159 -1.86974 0
M  V30 3485 C 328.38 0.229623 -3.44335 0
M  V30 3486 C 327.493 -0.758156 -4.25295 0
M  V30 3487 C 326.628 -0.0234403 -5.31195 0
M  V30 3488 C 325.667 -1.00184 -6.03846 0
M  V30 3489 N 324.804 -0.29769 -7.01469 0
M  V30 3490 H 329.644 -1.34538 -2.65901 0
M  V30 3491 H 327.181 -0.674592 -1.3072 0
M  V30 3492 H 329.139 0.658856 -4.11965 0
M  V30 3493 H 327.769 1.05696 -3.05005 0
M  V30 3494 H 326.821 -1.30586 -3.57284 0
M  V30 3495 H 328.133 -1.50458 -4.75567 0
M  V30 3496 H 327.287 0.464201 -6.04922 0
M  V30 3497 H 326.026 0.755741 -4.81809 0
M  V30 3498 H 325.031 -1.50044 -5.2893 0
M  V30 3499 H 326.256 -1.78133 -6.55321 0
M  V30 3500 H 324.202 0.462668 -6.54366 0
M  V30 3501 H 324.119 -0.983128 -7.4958 0
M  V30 3502 H 325.387 0.16826 -7.79318 0
M  V30 3503 N 329.616 1.39756 -0.72842 0
M  V30 3504 C 330.841 2.05472 -0.282159 0
M  V30 3505 C 331.266 1.54549 1.07221 0
M  V30 3506 O 330.624 0.686372 1.67805 0
M  V30 3507 C 330.672 3.59462 -0.286264 0
M  V30 3508 O 329.776 4.05918 0.728298 0
M  V30 3509 H 329.117 0.651226 -0.129618 0
M  V30 3510 H 331.647 1.78915 -0.992499 0
M  V30 3511 H 331.657 4.07798 -0.128373 0
M  V30 3512 H 330.332 3.95889 -1.27456 0
M  V30 3513 H 328.909 3.69012 0.537081 0
M  V30 3514 N 331.094 0.475555 1.50254 0
M  V30 3515 C 332.041 -0.316293 2.28622 0
M  V30 3516 C 333.011 -0.983227 1.33873 0
M  V30 3517 O 334.196 -0.994805 1.62814 0
M  V30 3518 C 331.336 -1.38975 3.1588 0
M  V30 3519 C 330.449 -0.737146 4.25664 0
M  V30 3520 C 329.584 -1.78887 5.00173 0
M  V30 3521 C 328.623 -1.11676 6.01826 0
M  V30 3522 N 327.76 -2.11154 6.69596 0
M  V30 3523 H 332.6 0.358297 2.95838 0
M  V30 3524 H 330.137 0.188541 1.45887 0
M  V30 3525 H 332.095 -2.02383 3.64825 0
M  V30 3526 H 330.725 -2.03344 2.50701 0
M  V30 3527 H 329.777 0.0096065 3.80399 0
M  V30 3528 H 331.089 -0.206816 4.98371 0
M  V30 3529 H 330.243 -2.49865 5.52859 0
M  V30 3530 H 328.982 -2.35302 4.27182 0
M  V30 3531 H 327.987 -0.392633 5.48396 0
M  V30 3532 H 329.212 -0.55945 6.76792 0
M  V30 3533 H 327.158 -2.66577 5.99394 0
M  V30 3534 H 327.075 -1.63118 7.38193 0
M  V30 3535 H 328.343 -2.81497 7.26897 0
M  V30 3536 N 332.573 -1.56217 0.208337 0
M  V30 3537 C 333.52 -2.19699 -0.707192 0
M  V30 3538 C 334.49 -1.14836 -1.20008 0
M  V30 3539 O 335.675 -1.4314 -1.26157 0
M  V30 3540 C 332.815 -2.87061 -1.91546 0
M  V30 3541 C 331.928 -4.06483 -1.46271 0
M  V30 3542 C 331.063 -4.61665 -2.62752 0
M  V30 3543 C 330.102 -5.73417 -2.14147 0
M  V30 3544 N 329.239 -6.22948 -3.23853 0
M  V30 3545 H 334.079 -2.97575 -0.159111 0
M  V30 3546 H 331.616 -1.46948 -0.0667874 0
M  V30 3547 H 333.574 -3.24294 -2.62468 0
M  V30 3548 H 332.204 -2.11725 -2.43664 0
M  V30 3549 H 331.256 -3.74825 -0.648886 0
M  V30 3550 H 332.568 -4.87271 -1.06622 0
M  V30 3551 H 331.722 -5.01272 -3.41776 0
M  V30 3552 H 330.461 -3.80013 -3.05682 0
M  V30 3553 H 329.466 -5.33326 -1.33581 0
M  V30 3554 H 330.691 -6.56897 -1.72232 0
M  V30 3555 H 328.637 -5.44213 -3.6629 0
M  V30 3556 H 328.554 -6.98823 -2.88414 0
M  V30 3557 H 329.822 -6.6721 -4.03052 0
M  V30 3558 N 334.051 0.0651679 -1.57465 0
M  V30 3559 C 334.961 1.09448 -2.07505 0
M  V30 3560 C 335.977 1.41974 -1.00595 0
M  V30 3561 O 337.153 1.52018 -1.32107 0
M  V30 3562 C 334.218 2.38689 -2.51453 0
M  V30 3563 C 333.279 2.13073 -3.72691 0
M  V30 3564 C 332.512 3.36152 -4.14533 0
M  V30 3565 O 332.735 4.45517 -3.56189 0
M  V30 3566 O 331.669 3.23974 -5.07272 0
M  V30 3567 H 335.495 0.69935 -2.95538 0
M  V30 3568 H 333.08 0.279752 -1.46757 0
M  V30 3569 H 334.962 3.14736 -2.80212 0
M  V30 3570 H 333.637 2.77568 -1.66546 0
M  V30 3571 H 332.544 1.34709 -3.49005 0
M  V30 3572 H 333.877 1.79071 -4.5847 0
M  V30 3573 N 335.529 1.53961 0.336706 0
M  V30 3574 C 336.476 1.82428 1.41381 0
M  V30 3575 C 337.446 0.670444 1.51968 0
M  V30 3576 O 338.631 0.915565 1.67398 0
M  V30 3577 C 335.771 2.04564 2.77934 0
M  V30 3578 C 334.884 3.32267 2.76084 0
M  V30 3579 C 334.019 3.44434 4.04399 0
M  V30 3580 C 333.058 4.66061 3.96804 0
M  V30 3581 N 332.195 4.75224 5.16823 0
M  V30 3582 H 337.035 2.74324 1.16405 0
M  V30 3583 H 334.572 1.35869 0.563752 0
M  V30 3584 H 336.53 2.15388 3.57301 0
M  V30 3585 H 335.16 1.15974 3.01247 0
M  V30 3586 H 334.212 3.3025 1.88784 0
M  V30 3587 H 335.524 4.21733 2.66351 0
M  V30 3588 H 334.678 3.54728 4.92192 0
M  V30 3589 H 333.417 2.53037 4.16921 0
M  V30 3590 H 332.422 4.55838 3.07396 0
M  V30 3591 H 333.647 5.58829 3.85858 0
M  V30 3592 H 331.593 3.86739 5.29876 0
M  V30 3593 H 331.51 5.58636 5.09374 0
M  V30 3594 H 332.778 4.89835 6.06367 0
M  V30 3595 N 337.007 -0.598083 1.45811 0
M  V30 3596 C 338.284 -1.35777 1.40797 0
M  V30 3597 C 338.664 -2.10935 0.083462 0
M  V30 3598 O 338.012 -2.08505 -0.934763 0
M  V30 3599 C 338.222 -2.29666 2.62783 0
M  V30 3600 C 339.57 -2.91977 3.08277 0
M  V30 3601 O 340.594 -2.39984 2.63223 0
M  V30 3602 O 339.453 -3.86376 3.86491 0
M  V30 3603 H 336.547 -0.609291 0.55919 0
M  V30 3604 H 339.093 -0.620379 1.57954 0
M  V30 3605 H 337.865 -1.73454 3.50756 0
M  V30 3606 H 337.488 -3.1077 2.48008 0
M  V30 3607 N 338.485 -1.33259 -0.841409 0
M  V30 3608 C 339.432 -1.23302 -1.95103 0
M  V30 3609 C 340.402 -0.112204 -1.65721 0
M  V30 3610 O 341.587 -0.290038 -1.88583 0
M  V30 3611 C 338.727 -0.975583 -3.31023 0
M  V30 3612 C 337.84 -2.18243 -3.72819 0
M  V30 3613 C 336.975 -1.85936 -4.97595 0
M  V30 3614 C 336.014 -3.02866 -5.3192 0
M  V30 3615 N 335.151 -2.70565 -6.47873 0
M  V30 3616 H 339.991 -2.18207 -2.02952 0
M  V30 3617 H 337.528 -1.0851 -0.993173 0
M  V30 3618 H 339.486 -0.80677 -4.09325 0
M  V30 3619 H 338.116 -0.0632755 -3.22738 0
M  V30 3620 H 337.168 -2.46107 -2.90061 0
M  V30 3621 H 338.48 -3.05666 -3.94169 0
M  V30 3622 H 337.634 -1.65684 -5.83638 0
M  V30 3623 H 336.373 -0.957452 -4.78209 0
M  V30 3624 H 335.378 -3.23736 -4.44382 0
M  V30 3625 H 336.603 -3.93809 -5.53255 0
M  V30 3626 H 334.549 -1.8293 -6.29978 0
M  V30 3627 H 334.466 -3.51519 -6.69306 0
M  V30 3628 H 335.734 -2.53774 -7.37034 0
M  V30 3629 N 339.963 1.05934 -1.16686 0
M  V30 3630 C 341.24 1.75643 -0.860747 0
M  V30 3631 C 341.62 2.01144 0.640641 0
M  V30 3632 O 340.968 1.64147 1.58959 0
M  V30 3633 C 341.178 3.05493 -1.68745 0
M  V30 3634 C 342.526 3.79581 -1.90271 0
M  V30 3635 O 343.55 3.15344 -1.65641 0
M  V30 3636 O 342.409 4.9499 -2.31618 0
M  V30 3637 H 339.503 0.763426 -0.317977 0
M  V30 3638 H 342.049 1.1217 -1.27342 0
M  V30 3639 H 340.821 2.8264 -2.70611 0
M  V30 3640 H 340.444 3.76702 -1.27206 0
M  V30 3641 N 341.441 0.965919 1.2453 0
M  V30 3642 C 342.666 0.643971 1.97149 0
M  V30 3643 C 343.091 -0.779487 1.71189 0
M  V30 3644 O 342.449 -1.5288 0.974553 0
M  V30 3645 C 342.497 0.922557 3.48599 0
M  V30 3646 O 341.601 0.00707672 4.12399 0
M  V30 3647 H 340.942 0.243647 0.617683 0
M  V30 3648 H 343.472 1.29558 1.58353 0
M  V30 3649 H 343.482 0.853373 3.98976 0
M  V30 3650 H 342.157 1.95996 3.66822 0
M  V30 3651 H 340.734 0.12943 3.72675 0
M  V30 3652 N 342.919 -1.39368 0.735821 0
M  V30 3653 C 343.866 -2.30599 0.0963825 0
M  V30 3654 C 344.836 -1.49257 -0.728794 0
M  V30 3655 O 346.021 -1.77941 -0.688588 0
M  V30 3656 C 343.161 -3.35596 -0.804305 0
M  V30 3657 C 342.274 -4.31987 0.0335761 0
M  V30 3658 C 341.409 -5.24053 -0.868461 0
M  V30 3659 C 340.448 -6.12095 -0.0258776 0
M  V30 3660 N 339.585 -6.96514 -0.883893 0
M  V30 3661 H 344.425 -2.8471 0.880002 0
M  V30 3662 H 341.962 -1.40188 0.445619 0
M  V30 3663 H 343.92 -3.95062 -1.34096 0
M  V30 3664 H 342.55 -2.82938 -1.55389 0
M  V30 3665 H 341.602 -3.74133 0.68766 0
M  V30 3666 H 342.914 -4.94074 0.685036 0
M  V30 3667 H 342.068 -5.88549 -1.47293 0
M  V30 3668 H 340.807 -4.62289 -1.5537 0
M  V30 3669 H 339.812 -5.4661 0.591386 0
M  V30 3670 H 341.037 -6.75923 0.656156 0
M  V30 3671 H 338.983 -6.37318 -1.55441 0
M  V30 3672 H 338.9 -7.55448 -0.288931 0
M  V30 3673 H 340.168 -7.65439 -1.4739 0
M  V30 3674 N 344.397 -0.483516 -1.5 0
M  V30 3675 C 345.327 0.293829 -2.31644 0
M  V30 3676 C 346.308 0.978864 -1.39112 0
M  V30 3677 O 347.493 0.973644 -1.68029 0
M  V30 3678 C 344.623 1.36897 -3.19181 0
M  V30 3679 C 343.577 0.804833 -4.20365 0
M  V30 3680 C 342.903 1.9792 -4.96721 0
M  V30 3681 C 344.203 -0.192313 -5.21946 0
M  V30 3682 H 345.897 -0.387616 -2.9688 0
M  V30 3683 H 343.443 -0.187856 -1.42769 0
M  V30 3684 H 345.396 1.92037 -3.751 0
M  V30 3685 H 344.12 2.07936 -2.51853 0
M  V30 3686 H 342.779 0.275319 -3.65565 0
M  V30 3687 H 342.427 2.67686 -4.25856 0
M  V30 3688 H 342.127 1.60789 -5.65173 0
M  V30 3689 H 343.651 2.53526 -5.55479 0
M  V30 3690 H 345.065 0.270333 -5.72662 0
M  V30 3691 H 343.462 -0.478543 -5.98189 0
M  V30 3692 H 344.532 -1.11409 -4.71928 0
M  V30 3693 N 345.875 1.56104 -0.216619 0
M  V30 3694 C 346.785 2.23694 0.706982 0
M  V30 3695 C 347.801 1.24295 1.21765 0
M  V30 3696 O 348.977 1.57094 1.2603 0
M  V30 3697 C 346.042 2.8998 1.90033 0
M  V30 3698 C 345.103 4.04708 1.43213 0
M  V30 3699 C 344.336 4.67824 2.56859 0
M  V30 3700 O 344.559 4.29913 3.74874 0
M  V30 3701 O 343.493 5.56905 2.28343 0
M  V30 3702 H 347.319 3.03272 0.161235 0
M  V30 3703 H 344.904 1.49394 0.0136177 0
M  V30 3704 H 346.786 3.31837 2.59735 0
M  V30 3705 H 345.461 2.13365 2.43428 0
M  V30 3706 H 344.368 3.6743 0.70327 0
M  V30 3707 H 345.701 4.83051 0.944615 0
M  V30 3708 N 347.353 -0.0568162 1.57498 0
M  V30 3709 C 348.3 -1.06591 2.04712 0
M  V30 3710 C 349.27 -1.3758 0.930644 0
M  V30 3711 O 350.455 -1.48392 1.19935 0
M  V30 3712 C 347.595 -2.3701 2.50839 0
M  V30 3713 C 346.708 -2.12421 3.76167 0
M  V30 3714 C 345.843 -3.36511 4.11015 0
M  V30 3715 C 344.882 -3.07353 5.2934 0
M  V30 3716 N 344.019 -4.23816 5.59754 0
M  V30 3717 H 348.859 -0.65631 2.90683 0
M  V30 3718 H 346.396 -0.312481 1.43743 0
M  V30 3719 H 348.354 -3.13175 2.7564 0
M  V30 3720 H 346.984 -2.75744 1.67825 0
M  V30 3721 H 346.036 -1.2688 3.58616 0
M  V30 3722 H 347.348 -1.86894 4.62463 0
M  V30 3723 H 346.502 -4.21062 4.36797 0
M  V30 3724 H 345.241 -3.65128 3.23315 0
M  V30 3725 H 344.246 -2.212 5.03339 0
M  V30 3726 H 345.471 -2.80043 6.1867 0
M  V30 3727 H 343.417 -4.52436 4.75014 0
M  V30 3728 H 343.334 -4.01614 6.40501 0
M  V30 3729 H 344.602 -5.0932 5.90096 0
M  V30 3730 N 348.832 -1.54138 -0.328536 0
M  V30 3731 C 349.795 -1.82462 -1.38709 0
M  V30 3732 C 350.795 -0.696229 -1.44946 0
M  V30 3733 O 351.985 -0.964535 -1.4506 0
M  V30 3734 C 349.117 -1.98018 -2.77492 0
M  V30 3735 H 350.31 -2.77037 -1.14851 0
M  V30 3736 H 347.863 -1.45779 -0.563751 0
M  V30 3737 H 348.598 -1.05637 -3.06613 0
M  V30 3738 H 348.383 -2.80124 -2.74359 0
M  V30 3739 H 349.873 -2.21396 -3.54081 0
M  V30 3740 N 350.31 0.590341 -1.46126 0
M  V30 3741 C 351.24 1.71032 -1.58966 0
M  V30 3742 C 352.221 1.64302 -0.440335 0
M  V30 3743 O 353.406 1.82436 -0.665634 0
M  V30 3744 C 350.536 3.09665 -1.57241 0
M  V30 3745 C 349.49 3.31221 -2.71066 0
M  V30 3746 C 348.816 4.70303 -2.54399 0
M  V30 3747 C 350.116 3.19796 -4.1295 0
M  V30 3748 H 351.81 1.60543 -2.52718 0
M  V30 3749 H 349.356 0.770933 -1.21625 0
M  V30 3750 H 351.309 3.87831 -1.64819 0
M  V30 3751 H 350.033 3.21036 -0.600289 0
M  V30 3752 H 348.692 2.55452 -2.62944 0
M  V30 3753 H 348.34 4.78429 -1.55288 0
M  V30 3754 H 348.04 4.85679 -3.30741 0
M  V30 3755 H 349.564 5.50647 -2.63857 0
M  V30 3756 H 350.978 3.87815 -4.22223 0
M  V30 3757 H 349.375 3.46696 -4.89818 0
M  V30 3758 H 350.445 2.16983 -4.33643 0
M  V30 3759 N 351.788 1.33704 0.83433 0
M  V30 3760 C 352.735 1.24335 1.94447 0
M  V30 3761 C 353.705 0.120991 1.65659 0
M  V30 3762 O 354.89 0.300035 1.88426 0
M  V30 3763 C 352.03 0.993124 3.30501 0
M  V30 3764 C 351.143 2.20217 3.71657 0
M  V30 3765 C 350.278 1.88572 4.96602 0
M  V30 3766 C 349.317 3.05683 5.30306 0
M  V30 3767 N 348.454 2.73997 6.46429 0
M  V30 3768 H 353.294 2.1928 2.01792 0
M  V30 3769 H 350.831 1.09035 0.987404 0
M  V30 3770 H 352.789 0.828467 4.08892 0
M  V30 3771 H 351.419 0.0803902 3.227 0
M  V30 3772 H 350.471 2.47642 2.88752 0
M  V30 3773 H 351.783 3.07752 3.92543 0
M  V30 3774 H 350.937 1.68776 5.82752 0
M  V30 3775 H 349.676 0.982799 4.77695 0
M  V30 3776 H 348.681 3.26088 4.42659 0
M  V30 3777 H 349.906 3.96737 5.51159 0
M  V30 3778 H 347.852 1.86268 6.28999 0
M  V30 3779 H 347.769 3.55064 6.67432 0
M  V30 3780 H 349.037 2.57679 7.35678 0
M  V30 3781 N 353.266 -1.05314 1.17247 0
M  V30 3782 C 354.229 -2.112 0.890357 0
M  V30 3783 C 355.229 -1.60359 -0.118943 0
M  V30 3784 O 356.419 -1.73833 0.113086 0
M  V30 3785 C 353.551 -3.39266 0.333422 0
M  V30 3786 H 354.744 -2.37659 1.82916 0
M  V30 3787 H 352.297 -1.21538 0.982758 0
M  V30 3788 H 353.032 -3.18462 -0.612587 0
M  V30 3789 H 352.817 -3.77477 1.06082 0
M  V30 3790 H 354.307 -4.17315 0.154322 0
M  V30 3791 N 354.744 -0.972509 -1.24016 0
M  V30 3792 C 355.676 -0.464375 -2.24446 0
M  V30 3793 C 356.689 0.4295 -1.57032 0
M  V30 3794 O 357.878 0.234902 -1.76948 0
M  V30 3795 C 354.978 0.348385 -3.37105 0
M  V30 3796 C 354.151 -0.53673 -4.34094 0
M  V30 3797 C 353.21 0.220838 -5.25736 0
M  V30 3798 O 352.236 -0.386867 -5.67884 0
M  V30 3799 N 353.438 1.50907 -5.60542 0
M  V30 3800 H 356.203 -1.32788 -2.68677 0
M  V30 3801 H 353.764 -0.844877 -1.38107 0
M  V30 3802 H 355.756 0.863341 -3.95384 0
M  V30 3803 H 354.326 1.11285 -2.92121 0
M  V30 3804 H 353.546 -1.23261 -3.74433 0
M  V30 3805 H 354.834 -1.14022 -4.95859 0
M  V30 3806 H 354.232 2.02444 -5.28236 0
M  V30 3807 H 352.789 1.96962 -6.21329 0
M  V30 3808 N 356.222 1.38976 -0.743202 0
M  V30 3809 C 357.17 2.32394 -0.0978389 0
M  V30 3810 C 358.164 1.53486 0.716824 0
M  V30 3811 O 359.37 1.69092 0.617088 0
M  V30 3812 H 355.745 0.75189 -0.0128402 0
M  V30 3813 H 357.716 2.84441 -0.901981 0
M  V30 3814 C 356.465 3.38629 0.789036 0
M  V30 3815 H 355.788 3.99432 0.171559 0
M  V30 3816 H 357.228 4.06426 1.20807 0
M  V30 3817 C 355.687 2.76347 1.92702 0
M  V30 3818 O 356.217 2.64836 3.02034 0
M  V30 3819 N 354.423 2.34311 1.71891 0
M  V30 3820 H 353.97 2.43873 0.829675 0
M  V30 3821 H 353.928 1.9298 2.48205 0
M  V30 3822 N 357.7 0.491464 1.49741 0
M  V30 3823 C 358.977 -0.118984 1.95238 0
M  V30 3824 C 359.357 -1.55044 1.43264 0
M  V30 3825 O 358.705 -2.19287 0.642287 0
M  V30 3826 C 358.915 -0.0414187 3.48975 0
M  V30 3827 C 360.263 -0.220133 4.24029 0
M  V30 3828 O 361.287 -0.117055 3.56008 0
M  V30 3829 O 360.146 -0.430567 5.44801 0
M  V30 3830 H 357.24 -0.100536 0.820866 0
M  V30 3831 H 359.786 0.553322 1.60426 0
M  V30 3832 H 358.558 0.957214 3.79412 0
M  V30 3833 H 358.181 -0.754292 3.9038 0
M  V30 3834 N 359.178 -1.55987 0.224894 0
M  V30 3835 C 360.108 -2.23426 -0.678457 0
M  V30 3836 C 361.089 -1.20709 -1.19847 0
M  V30 3837 O 362.274 -1.49304 -1.24186 0
M  V30 3838 C 359.404 -2.91676 -1.88527 0
M  V30 3839 C 358.358 -4.00893 -1.49896 0
M  V30 3840 C 357.684 -4.56455 -2.78483 0
M  V30 3841 C 358.984 -5.17769 -0.686461 0
M  V30 3842 H 360.678 -2.99175 -0.116173 0
M  V30 3843 H 358.224 -1.43897 -0.054436 0
M  V30 3844 H 360.177 -3.37547 -2.5227 0
M  V30 3845 H 358.901 -2.1338 -2.47258 0
M  V30 3846 H 357.56 -3.55758 -0.884985 0
M  V30 3847 H 357.208 -3.74886 -3.35365 0
M  V30 3848 H 356.908 -5.30169 -2.53368 0
M  V30 3849 H 358.432 -5.05047 -3.43162 0
M  V30 3850 H 359.846 -5.60001 -1.22767 0
M  V30 3851 H 358.243 -5.97735 -0.532259 0
M  V30 3852 H 359.313 -4.83932 0.306196 0
M  V30 3853 N 360.656 0.0484629 -1.57525 0
M  V30 3854 C 361.905 0.742065 -1.87553 0
M  V30 3855 C 362.218 1.77545 -0.820802 0
M  V30 3856 O 363.424 2.52027 -1.00967 0
M  V30 3857 C 361.88 1.37081 -3.32771 0
M  V30 3858 C 361.488 0.374786 -4.4643 0
M  V30 3859 C 363.232 2.04542 -3.71972 0
M  V30 3860 C 361.139 1.01077 -5.82698 0
M  V30 3861 H 360.069 0.280903 -0.699721 0
M  V30 3862 H 362.72 -0.00411877 -1.835 0
M  V30 3863 H 361.102 2.16605 -3.31509 0
M  V30 3864 H 362.276 -0.392331 -4.59127 0
M  V30 3865 H 360.591 -0.196653 -4.15935 0
M  V30 3866 H 363.188 2.52943 -4.71088 0
M  V30 3867 H 363.531 2.85515 -3.02964 0
M  V30 3868 H 364.064 1.31819 -3.75325 0
M  V30 3869 H 360.803 0.240878 -6.55057 0
M  V30 3870 H 360.323 1.74819 -5.73758 0
M  V30 3871 H 362.002 1.52383 -6.28799 0
M  V30 3872 N 362.134 1.5431 0.320358 0
M  V30 3873 C 363.38 1.73859 1.05568 0
M  V30 3874 C 363.735 0.507807 1.85578 0
M  V30 3875 O 363.028 -0.499789 1.84967 0
M  V30 3876 C 363.222 2.95639 2.00828 0
M  V30 3877 C 363.051 4.30444 1.30186 0
M  V30 3878 C 361.821 4.94544 1.03703 0
M  V30 3879 C 364.019 5.0929 0.716138 0
M  V30 3880 N 362.001 6.13172 0.298846 0
M  V30 3881 C 363.372 6.19903 0.109729 0
M  V30 3882 C 365.427 4.94034 0.619269 0
M  V30 3883 C 364.13 7.16924 -0.584153 0
M  V30 3884 C 366.156 5.91369 -0.0609184 0
M  V30 3885 C 365.518 7.01336 -0.656258 0
M  V30 3886 H 361.617 0.688988 0.36989 0
M  V30 3887 H 364.201 1.9177 0.336494 0
M  V30 3888 H 362.372 2.79188 2.70016 0
M  V30 3889 H 364.104 3.03802 2.6737 0
M  V30 3890 H 360.859 4.54536 1.33019 0
M  V30 3891 H 361.283 6.76977 -0.0561964 0
M  V30 3892 H 365.925 4.0916 1.06526 0
M  V30 3893 H 363.643 8.01354 -1.04197 0
M  V30 3894 H 367.229 5.81642 -0.135552 0
M  V30 3895 H 366.109 7.75359 -1.17423 0
M  V30 3896 N 363.613 -0.582584 1.46437 0
M  V30 3897 C 364.561 -1.71272 1.5738 0
M  V30 3898 C 365.555 -1.63524 0.44229 0
M  V30 3899 O 366.761 -1.69016 0.619166 0
M  V30 3900 H 363.136 -0.566273 0.494813 0
M  V30 3901 H 365.107 -1.59174 2.52401 0
M  V30 3902 C 363.856 -3.09658 1.58136 0
M  V30 3903 H 363.179 -3.16291 2.44541 0
M  V30 3904 H 364.619 -3.88494 1.69847 0
M  V30 3905 C 363.078 -3.3547 0.310026 0
M  V30 3906 O 363.608 -3.97199 -0.599683 0
M  V30 3907 N 361.814 -2.89925 0.197901 0
M  V30 3908 H 361.361 -2.39873 0.93909 0
M  V30 3909 H 361.319 -3.07568 -0.65185 0
M  V30 3910 N 365.091 -1.34144 -0.827227 0
M  V30 3911 C 366.34 -1.25602 -1.5782 0
M  V30 3912 C 366.653 0.173445 -1.94829 0
M  V30 3913 O 367.859 0.380984 -2.68814 0
M  V30 3914 C 366.315 -2.20151 -2.84713 0
M  V30 3915 C 365.923 -3.68331 -2.55021 0
M  V30 3916 C 367.667 -2.20508 -3.62735 0
M  V30 3917 C 365.574 -4.54762 -3.78082 0
M  V30 3918 H 364.504 -0.466573 -0.592306 0
M  V30 3919 H 367.155 -1.59283 -0.911116 0
M  V30 3920 H 365.537 -1.79417 -3.53023 0
M  V30 3921 H 366.711 -4.17577 -1.94849 0
M  V30 3922 H 365.026 -3.7038 -1.90283 0
M  V30 3923 H 367.623 -2.82306 -4.54101 0
M  V30 3924 H 367.966 -1.20322 -3.98533 0
M  V30 3925 H 368.499 -2.59664 -3.01362 0
M  V30 3926 H 365.238 -5.55867 -3.47407 0
M  V30 3927 H 364.758 -4.10254 -4.37552 0
M  V30 3928 H 366.437 -4.69153 -4.45538 0
M  V30 3929 N 366.569 1.04691 -1.17803 0
M  V30 3930 C 367.516 2.12557 -0.899343 0
M  V30 3931 C 368.486 1.65339 0.158771 0
M  V30 3932 O 369.671 1.90789 0.0204797 0
M  V30 3933 C 366.811 3.42481 -0.424315 0
M  V30 3934 C 365.924 4.03346 -1.54713 0
M  V30 3935 C 365.059 5.21208 -1.02546 0
M  V30 3936 C 364.098 5.74089 -2.12339 0
M  V30 3937 N 363.235 6.83247 -1.61612 0
M  V30 3938 H 368.075 2.35734 -1.823 0
M  V30 3939 H 365.612 1.1564 -0.909159 0
M  V30 3940 H 367.57 4.16996 -0.130421 0
M  V30 3941 H 366.2 3.19471 0.462377 0
M  V30 3942 H 365.252 3.2622 -1.95664 0
M  V30 3943 H 366.564 4.38628 -2.37501 0
M  V30 3944 H 365.718 6.02812 -0.685718 0
M  V30 3945 H 364.457 4.87414 -0.167084 0
M  V30 3946 H 363.462 4.91111 -2.47165 0
M  V30 3947 H 364.687 6.0993 -2.98601 0
M  V30 3948 H 362.633 6.5134 -0.780533 0
M  V30 3949 H 362.55 7.17559 -2.38003 0
M  V30 3950 H 363.818 7.68491 -1.30545 0
M  V30 3951 N 368.047 0.979072 1.23499 0
M  V30 3952 C 369.324 0.563674 1.87302 0
M  V30 3953 C 369.704 -0.959199 1.88049 0
M  V30 3954 O 369.052 -1.83535 1.36114 0
M  V30 3955 C 369.262 1.16822 3.28867 0
M  V30 3956 C 370.61 1.26014 4.0547 0
M  V30 3957 O 371.634 1.12158 3.38082 0
M  V30 3958 O 370.493 1.48044 5.26066 0
M  V30 3959 H 367.587 0.189602 0.804972 0
M  V30 3960 H 370.133 1.07407 1.31384 0
M  V30 3961 H 368.905 2.21049 3.22883 0
M  V30 3962 H 368.528 0.642564 3.92373 0
M  V30 3963 N 369.525 -1.3858 0.750561 0
M  V30 3964 C 370.435 -2.34278 0.122825 0
M  V30 3965 C 371.451 -1.59116 -0.704131 0
M  V30 3966 O 372.627 -1.91326 -0.628987 0
M  V30 3967 C 369.692 -3.38221 -0.762086 0
M  V30 3968 C 368.753 -4.29227 0.078896 0
M  V30 3969 C 367.986 -5.28205 -0.763874 0
M  V30 3970 O 368.209 -5.34112 -2.00201 0
M  V30 3971 O 367.143 -6.01618 -0.18428 0
M  V30 3972 H 370.969 -2.89649 0.913088 0
M  V30 3973 H 368.554 -1.40374 0.511417 0
M  V30 3974 H 370.436 -4.01872 -1.26793 0
M  V30 3975 H 369.111 -2.85211 -1.5309 0
M  V30 3976 H 368.018 -3.68747 0.630621 0
M  V30 3977 H 369.351 -4.85484 0.810289 0
M  V30 3978 N 371.003 -0.499398 -1.49478 0
M  V30 3979 C 371.933 0.269244 -2.31943 0
M  V30 3980 C 372.914 0.964054 -1.40143 0
M  V30 3981 O 374.099 0.955767 -1.69052 0
M  V30 3982 C 371.229 1.33504 -3.20615 0
M  V30 3983 C 370.183 0.760202 -4.21195 0
M  V30 3984 C 369.509 1.9264 -4.98792 0
M  V30 3985 C 370.809 -0.247661 -5.21712 0
M  V30 3986 H 372.503 -0.419082 -2.96452 0
M  V30 3987 H 370.049 -0.202988 -1.42562 0
M  V30 3988 H 372.002 1.88048 -3.77115 0
M  V30 3989 H 370.726 2.05253 -2.54045 0
M  V30 3990 H 369.385 0.23653 -3.65836 0
M  V30 3991 H 369.033 2.63154 -4.28671 0
M  V30 3992 H 368.733 1.54785 -5.66847 0
M  V30 3993 H 370.257 2.4762 -5.58137 0
M  V30 3994 H 371.671 0.209579 -5.72917 0
M  V30 3995 H 370.068 -0.541962 -5.97648 0
M  V30 3996 H 371.138 -1.16409 -4.7072 0
M  V30 3997 N 372.481 1.55866 -0.233164 0
M  V30 3998 C 373.428 2.20796 0.67215 0
M  V30 3999 C 374.398 1.16731 1.18166 0
M  V30 4000 O 375.583 1.45129 1.23864 0
M  V30 4001 C 372.723 2.90072 1.86955 0
M  V30 4002 C 371.836 4.08759 1.39786 0
M  V30 4003 C 370.971 4.65787 2.55374 0
M  V30 4004 C 370.01 5.76752 2.04998 0
M  V30 4005 N 369.147 6.28021 3.13901 0
M  V30 4006 H 373.987 2.9779 0.111749 0
M  V30 4007 H 371.524 1.47036 0.0434007 0
M  V30 4008 H 373.482 3.28428 2.57276 0
M  V30 4009 H 372.112 2.15575 2.40265 0
M  V30 4010 H 371.164 3.7581 0.589173 0
M  V30 4011 H 372.476 4.88906 0.98856 0
M  V30 4012 H 371.63 5.06646 3.33758 0
M  V30 4013 H 370.369 3.84828 2.99598 0
M  V30 4014 H 369.374 5.35383 1.25079 0
M  V30 4015 H 370.599 6.59553 1.61759 0
M  V30 4016 H 368.545 5.49971 3.57586 0
M  V30 4017 H 368.462 7.03323 2.7726 0
M  V30 4018 H 369.73 6.73538 3.92386 0
M  V30 4019 N 373.959 -0.0401083 1.57549 0
M  V30 4020 C 374.906 -1.04413 2.05831 0
M  V30 4021 C 375.876 -1.36585 0.945184 0
M  V30 4022 O 377.061 -1.47112 1.21502 0
M  V30 4023 C 374.201 -2.34336 2.53339 0
M  V30 4024 C 373.314 -2.08419 3.78398 0
M  V30 4025 C 372.449 -3.32133 4.14561 0
M  V30 4026 C 371.488 -3.01721 5.3257 0
M  V30 4027 N 370.625 -4.17855 5.64218 0
M  V30 4028 H 375.465 -0.625442 2.91363 0
M  V30 4029 H 373.002 -0.297218 1.44066 0
M  V30 4030 H 374.96 -3.10234 2.78946 0
M  V30 4031 H 373.59 -2.73948 1.7074 0
M  V30 4032 H 372.642 -1.23069 3.59942 0
M  V30 4033 H 373.954 -1.81978 4.64419 0
M  V30 4034 H 373.108 -4.16406 4.41238 0
M  V30 4035 H 371.847 -3.61678 3.2717 0
M  V30 4036 H 370.852 -2.15849 5.05657 0
M  V30 4037 H 372.077 -2.73466 6.21605 0
M  V30 4038 H 370.023 -4.47372 4.79786 0
M  V30 4039 H 369.94 -3.94798 6.44725 0
M  V30 4040 H 371.208 -5.03033 5.95465 0
M  V30 4041 N 375.437 -1.54477 -0.31217 0
M  V30 4042 C 376.683 -1.73483 -1.0503 0
M  V30 4043 C 377.016 -0.513125 -1.87298 0
M  V30 4044 O 376.291 0.489864 -1.8823 0
M  V30 4045 C 376.574 -3.01723 -1.96558 0
M  V30 4046 C 376.427 -4.3417 -1.17545 0
M  V30 4047 C 377.746 -3.25772 -2.95907 0
M  V30 4048 H 374.865 -0.631222 -0.380432 0
M  V30 4049 H 377.507 -1.87184 -0.325932 0
M  V30 4050 H 375.657 -2.90174 -2.58324 0
M  V30 4051 H 377.329 -4.5762 -0.581513 0
M  V30 4052 H 375.572 -4.31159 -0.477925 0
M  V30 4053 H 376.243 -5.20143 -1.84811 0
M  V30 4054 H 378.719 -3.36857 -2.44267 0
M  V30 4055 H 377.595 -4.16838 -3.57123 0
M  V30 4056 H 377.856 -2.43537 -3.68974 0
M  V30 4057 N 376.915 0.57481 -1.46744 0
M  V30 4058 C 378.155 1.34369 -1.54027 0
M  V30 4059 C 378.519 1.91051 -0.190642 0
M  V30 4060 O 379.72 2.68444 -0.138255 0
M  V30 4061 C 377.991 2.43706 -2.61423 0
M  V30 4062 S 379.55 3.30915 -2.88167 0
M  V30 4063 H 376.368 0.45768 -0.544105 0
M  V30 4064 H 378.97 0.659959 -1.84024 0
M  V30 4065 H 377.674 2.0047 -3.58106 0
M  V30 4066 H 377.205 3.16842 -2.33184 0
M  V30 4067 H 379.22 4.42742 -2.24039 0
M  V30 4068 N 378.394 1.34581 0.820102 0
M  V30 4069 C 379.619 1.30333 1.61332 0
M  V30 4070 C 380.044 -0.119339 1.87721 0
M  V30 4071 O 379.402 -1.08197 1.45475 0
M  V30 4072 C 379.45 2.10258 2.92957 0
M  V30 4073 O 378.554 1.47404 3.85157 0
M  V30 4074 H 377.895 0.447488 0.490561 0
M  V30 4075 H 380.425 1.77425 1.01889 0
M  V30 4076 H 380.435 2.21718 3.42498 0
M  V30 4077 H 379.11 3.13693 2.73074 0
M  V30 4078 H 377.687 1.44703 3.43679 0
M  V30 4079 N 379.872 -1.04064 1.18357 0
M  V30 4080 C 381.1 -1.80916 1.00384 0
M  V30 4081 C 381.515 -1.83414 -0.447738 0
M  V30 4082 O 380.872 -1.26962 -1.31099 0
M  V30 4083 C 380.923 -3.26516 1.55144 0
M  V30 4084 O 380.644 -3.2424 2.94618 0
M  V30 4085 C 382.145 -4.20013 1.41789 0
M  V30 4086 H 379.365 -0.569728 0.354474 0
M  V30 4087 H 381.909 -1.31151 1.56906 0
M  V30 4088 H 380.064 -3.73512 1.02798 0
M  V30 4089 H 380.478 -4.15452 3.20156 0
M  V30 4090 H 381.952 -5.20111 1.84901 0
M  V30 4091 H 382.429 -4.37667 0.36661 0
M  V30 4092 H 383.035 -3.78881 1.93207 0
M  V30 4093 N 381.35 -0.985608 -1.22978 0
M  V30 4094 C 382.298 -0.522631 -2.26652 0
M  V30 4095 C 383.292 0.422998 -1.64034 0
M  V30 4096 O 384.498 0.296319 -1.77544 0
M  V30 4097 H 380.873 -0.150597 -0.736766 0
M  V30 4098 H 382.844 -1.40863 -2.63059 0
M  V30 4099 C 381.593 0.154238 -3.47358 0
M  V30 4100 H 380.916 -0.564329 -3.95797 0
M  V30 4101 H 382.356 0.441744 -4.21693 0
M  V30 4102 C 380.815 1.38719 -3.07016 0
M  V30 4103 O 381.345 2.48307 -3.15764 0
M  V30 4104 N 379.551 1.25975 -2.61875 0
M  V30 4105 H 379.098 0.368068 -2.54957 0
M  V30 4106 H 379.056 2.08578 -2.3525 0
M  V30 4107 N 382.828 1.3818 -0.7579 0
M  V30 4108 C 384.105 1.94106 -0.241306 0
M  V30 4109 C 384.485 1.69282 1.26122 0
M  V30 4110 O 383.833 1.03378 2.03777 0
M  V30 4111 C 384.043 3.43809 -0.59967 0
M  V30 4112 C 385.391 4.20868 -0.561717 0
M  V30 4113 O 386.415 3.5211 -0.538222 0
M  V30 4114 O 385.274 5.43451 -0.576478 0
M  V30 4115 H 382.368 0.825376 -0.0518042 0
M  V30 4116 H 384.914 1.47548 -0.838315 0
M  V30 4117 H 383.686 3.55403 -1.6372 0
M  V30 4118 H 383.309 3.97592 0.0251197 0
M  V30 4119 N 384.306 0.507319 1.49211 0
M  V30 4120 C 385.236 -0.256939 2.32082 0
M  V30 4121 C 386.217 -0.956609 1.40652 0
M  V30 4122 O 387.402 -0.946788 1.69557 0
M  V30 4123 C 384.532 -1.31802 3.21318 0
M  V30 4124 C 383.486 -0.737855 4.21592 0
M  V30 4125 C 382.812 -1.89992 4.99807 0
M  V30 4126 C 384.112 0.275325 5.21574 0
M  V30 4127 H 385.806 0.434798 2.96226 0
M  V30 4128 H 383.352 0.210546 1.42452 0
M  V30 4129 H 385.305 -1.86045 3.78107 0
M  V30 4130 H 384.029 -2.03903 2.5513 0
M  V30 4131 H 382.688 -0.217126 3.65956 0
M  V30 4132 H 382.336 -2.60877 4.30061 0
M  V30 4133 H 382.036 -1.51777 5.6766 0
M  V30 4134 H 383.56 -2.44657 5.59442 0
M  V30 4135 H 384.974 -0.179193 5.7302 0
M  V30 4136 H 383.371 0.573649 5.97352 0
M  V30 4137 H 384.441 1.18903 4.70096 0
M  V30 4138 N 385.784 -1.5574 0.241426 0
M  V30 4139 C 386.731 -2.21149 -0.660432 0
M  V30 4140 C 387.701 -1.17356 -1.17545 0
M  V30 4141 O 388.886 -1.45784 -1.23093 0
M  V30 4142 C 386.026 -2.91059 -1.85414 0
M  V30 4143 C 385.139 -4.09495 -1.37616 0
M  V30 4144 C 384.274 -4.67135 -2.529 0
M  V30 4145 C 383.313 -5.77831 -2.01936 0
M  V30 4146 N 382.45 -6.29677 -3.10566 0
M  V30 4147 H 387.29 -2.97845 -0.095955 0
M  V30 4148 H 384.827 -1.47057 -0.0356024 0
M  V30 4149 H 386.785 -3.29788 -2.5553 0
M  V30 4150 H 385.415 -2.16846 -2.39118 0
M  V30 4151 H 384.467 -3.76117 -0.569235 0
M  V30 4152 H 385.779 -4.89423 -0.962618 0
M  V30 4153 H 384.933 -5.08409 -3.31067 0
M  V30 4154 H 383.672 -3.86411 -2.97553 0
M  V30 4155 H 382.677 -5.36039 -1.22238 0
M  V30 4156 H 383.902 -6.60402 -1.58259 0
M  V30 4157 H 381.848 -5.5186 -3.54664 0
M  V30 4158 H 381.765 -7.04783 -2.73526 0
M  V30 4159 H 383.033 -6.75609 -3.88809 0
M  V30 4160 N 387.262 0.0317525 -1.57568 0
M  V30 4161 C 388.172 1.05021 -2.0978 0
M  V30 4162 C 389.188 1.39809 -1.03583 0
M  V30 4163 O 390.364 1.49182 -1.35302 0
M  V30 4164 C 387.429 2.33301 -2.56459 0
M  V30 4165 C 386.49 2.0512 -3.77127 0
M  V30 4166 C 385.723 3.27283 -4.2157 0
M  V30 4167 O 385.946 4.37861 -3.65559 0
M  V30 4168 O 384.88 3.13141 -5.14029 0
M  V30 4169 H 388.706 0.636505 -2.96955 0
M  V30 4170 H 386.291 0.248559 -1.47318 0
M  V30 4171 H 388.173 3.08722 -2.86825 0
M  V30 4172 H 386.848 2.73973 -1.72397 0
M  V30 4173 H 385.755 1.27276 -3.51784 0
M  V30 4174 H 387.088 1.69305 -4.62165 0
M  V30 4175 N 388.74 1.54641 0.303973 0
M  V30 4176 C 389.67 1.88386 1.3796 0
M  V30 4177 C 390.651 0.742485 1.5304 0
M  V30 4178 O 391.836 0.997959 1.66597 0
M  V30 4179 C 388.966 2.12854 2.74427 0
M  V30 4180 C 387.92 3.28702 2.74115 0
M  V30 4181 C 387.246 3.38582 4.13844 0
M  V30 4182 C 388.546 4.65881 2.3612 0
M  V30 4183 H 390.24 2.78474 1.09966 0
M  V30 4184 H 387.786 1.33988 0.527556 0
M  V30 4185 H 389.739 2.35047 3.49758 0
M  V30 4186 H 388.463 1.19535 3.03939 0
M  V30 4187 H 387.122 3.06428 2.0124 0
M  V30 4188 H 386.77 2.42784 4.40528 0
M  V30 4189 H 386.47 4.16453 4.14537 0
M  V30 4190 H 387.994 3.63031 4.90959 0
M  V30 4191 H 389.408 4.87823 3.01167 0
M  V30 4192 H 387.805 5.46444 2.48031 0
M  V30 4193 H 388.875 4.66799 1.3125 0
M  V30 4194 N 390.218 -0.567019 1.47046 0
M  V30 4195 C 391.148 -1.68482 1.61667 0
M  V30 4196 C 392.129 -1.6358 0.466418 0
M  V30 4197 O 393.314 -1.81354 0.694574 0
M  V30 4198 C 390.444 -3.07124 1.62148 0
M  V30 4199 C 389.398 -3.26867 2.76301 0
M  V30 4200 C 388.724 -4.66196 2.61849 0
M  V30 4201 C 390.024 -3.13186 4.17986 0
M  V30 4202 H 391.718 -1.56502 2.5524 0
M  V30 4203 H 389.264 -0.751486 1.22836 0
M  V30 4204 H 391.217 -3.8516 1.70968 0
M  V30 4205 H 389.941 -3.2004 0.651287 0
M  V30 4206 H 388.6 -2.51237 2.66975 0
M  V30 4207 H 388.248 -4.75898 1.62879 0
M  V30 4208 H 387.948 -4.80356 3.38425 0
M  V30 4209 H 389.472 -5.46379 2.72584 0
M  V30 4210 H 390.886 -3.81049 4.2834 0
M  V30 4211 H 389.283 -3.3886 4.95272 0
M  V30 4212 H 390.353 -2.10057 4.3704 0
M  V30 4213 N 391.696 -1.35014 -0.812953 0
M  V30 4214 C 392.945 -1.27269 -1.56479 0
M  V30 4215 C 393.258 0.152771 -1.95002 0
M  V30 4216 O 394.464 0.352451 -2.69203 0
M  V30 4217 C 392.92 -2.23159 -2.82362 0
M  V30 4218 C 392.528 -3.71016 -2.511 0
M  V30 4219 C 394.272 -2.24342 -3.60376 0
M  V30 4220 C 392.179 -4.58746 -3.73237 0
M  V30 4221 H 391.109 -0.472829 -0.587324 0
M  V30 4222 H 393.76 -1.6024 -0.894171 0
M  V30 4223 H 392.142 -1.83151 -3.51101 0
M  V30 4224 H 393.316 -4.1962 -1.90409 0
M  V30 4225 H 391.631 -3.72378 -1.86343 0
M  V30 4226 H 394.228 -2.87107 -4.51081 0
M  V30 4227 H 394.571 -1.24542 -3.97234 0
M  V30 4228 H 395.104 -2.62846 -2.98591 0
M  V30 4229 H 391.843 -5.59521 -3.41492 0
M  V30 4230 H 391.363 -4.14871 -4.33176 0
M  V30 4231 H 393.042 -4.73852 -4.40537 0
M  V30 4232 N 393.175 1.03435 -1.18907 0
M  V30 4233 C 394.422 1.76743 -0.988334 0
M  V30 4234 C 394.75 1.88447 0.481441 0
M  V30 4235 O 394.005 1.39383 1.37371 0
M  V30 4236 C 394.304 3.19792 -1.59586 0
M  V30 4237 C 393.97 3.28108 -3.09283 0
M  V30 4238 C 392.632 3.30084 -3.5014 0
M  V30 4239 C 394.984 3.27696 -4.05296 0
M  V30 4240 C 392.312 3.29299 -4.85571 0
M  V30 4241 C 394.664 3.28451 -5.4065 0
M  V30 4242 C 393.328 3.28723 -5.80946 0
M  V30 4243 H 392.598 0.64675 -0.361657 0
M  V30 4244 H 395.245 1.21442 -1.48068 0
M  V30 4245 H 393.55 3.78136 -1.02568 0
M  V30 4246 H 395.247 3.75171 -1.41589 0
M  V30 4247 H 391.837 3.27294 -2.76725 0
M  V30 4248 H 396.021 3.25354 -3.74778 0
M  V30 4249 H 391.277 3.2783 -5.16079 0
M  V30 4250 H 395.451 3.27082 -6.14809 0
M  V30 4251 H 393.078 3.27868 -6.85862 0
M  V30 4252 N 394.653 0.992116 1.22453 0
M  V30 4253 C 395.601 0.534644 2.26372 0
M  V30 4254 C 396.595 -0.414293 1.64256 0
M  V30 4255 O 397.801 -0.286899 1.77699 0
M  V30 4256 H 394.176 0.154502 0.735957 0
M  V30 4257 H 396.147 1.42256 2.62309 0
M  V30 4258 C 394.896 -0.135815 3.47435 0
M  V30 4259 H 394.219 0.585311 3.95492 0
M  V30 4260 H 395.659 -0.419374 4.21921 0
M  V30 4261 C 394.118 -1.37089 3.07747 0
M  V30 4262 O 394.648 -2.46629 3.17076 0
M  V30 4263 N 392.854 -1.24585 2.62539 0
M  V30 4264 H 392.401 -0.354542 2.55149 0
M  V30 4265 H 392.359 -2.07327 2.36353 0
M  V30 4266 N 396.131 -1.37776 0.765217 0
M  V30 4267 C 397.078 -2.30342 0.145274 0
M  V30 4268 C 398.048 -1.5077 -0.696971 0
M  V30 4269 O 399.233 -1.79362 -0.650689 0
M  V30 4270 C 396.373 -3.37227 -0.732939 0
M  V30 4271 C 395.486 -4.31819 0.125199 0
M  V30 4272 C 394.621 -5.25777 -0.757107 0
M  V30 4273 C 393.66 -6.12012 0.103963 0
M  V30 4274 N 392.797 -6.98232 -0.735953 0
M  V30 4275 H 397.637 -2.8278 0.940195 0
M  V30 4276 H 395.174 -1.39211 0.475255 0
M  V30 4277 H 397.132 -3.97818 -1.25686 0
M  V30 4278 H 395.762 -2.86171 -1.49353 0
M  V30 4279 H 394.814 -3.7259 0.766865 0
M  V30 4280 H 396.126 -4.92509 0.789683 0
M  V30 4281 H 395.28 -5.91541 -1.34776 0
M  V30 4282 H 394.019 -4.65481 -1.45529 0
M  V30 4283 H 393.024 -5.45233 0.707197 0
M  V30 4284 H 394.249 -6.74379 0.799381 0
M  V30 4285 H 392.195 -6.40472 -1.41887 0
M  V30 4286 H 392.112 -7.55891 -0.128624 0
M  V30 4287 H 393.38 -7.68393 -1.31121 0
M  V30 4288 N 397.609 -0.515225 -1.4894 0
M  V30 4289 C 398.541 0.292481 -2.27326 0
M  V30 4290 C 399.554 0.917838 -1.3446 0
M  V30 4291 O 400.743 0.798772 -1.5963 0
M  V30 4292 C 397.843 1.42803 -3.07344 0
M  V30 4293 C 397.016 0.907347 -4.27885 0
M  V30 4294 C 396.075 1.92222 -4.89834 0
M  V30 4295 O 395.101 1.48506 -5.49486 0
M  V30 4296 N 396.303 3.25355 -4.80754 0
M  V30 4297 H 399.068 -0.379721 -2.97285 0
M  V30 4298 H 396.629 -0.348638 -1.58102 0
M  V30 4299 H 398.621 2.10481 -3.45658 0
M  V30 4300 H 397.191 2.00414 -2.39902 0
M  V30 4301 H 396.411 0.0550218 -3.94162 0
M  V30 4302 H 397.699 0.538108 -5.05946 0
M  V30 4303 H 397.097 3.6355 -4.33414 0
M  V30 4304 H 395.654 3.88707 -5.23211 0
M  V30 4305 N 399.087 1.5561 -0.249682 0
M  V30 4306 C 400.019 2.18834 0.681496 0
M  V30 4307 C 401.032 1.16546 1.1367 0
M  V30 4308 O 402.221 1.43397 1.06299 0
M  V30 4309 C 399.321 2.77992 1.9384 0
M  V30 4310 C 398.494 4.05725 1.63419 0
M  V30 4311 C 397.553 4.49174 2.74096 0
M  V30 4312 O 396.579 5.15492 2.41364 0
M  V30 4313 N 397.781 4.17191 4.03649 0
M  V30 4314 H 400.546 2.9937 0.140514 0
M  V30 4315 H 398.107 1.6175 -0.0697541 0
M  V30 4316 H 400.099 3.04015 2.67127 0
M  V30 4317 H 398.669 2.01596 2.38909 0
M  V30 4318 H 397.889 3.87261 0.736358 0
M  V30 4319 H 399.177 4.88999 1.40562 0
M  V30 4320 H 398.575 3.63955 4.33074 0
M  V30 4321 H 397.132 4.48043 4.73393 0
M  V30 4322 N 400.565 -0.0233959 1.57583 0
M  V30 4323 C 401.811 -0.714119 1.89811 0
M  V30 4324 C 402.144 -1.74702 0.848113 0
M  V30 4325 O 401.419 -1.94023 -0.136135 0
M  V30 4326 C 401.702 -1.37853 3.32669 0
M  V30 4327 C 401.555 -0.358764 4.48367 0
M  V30 4328 C 402.874 -2.31101 3.7454 0
M  V30 4329 H 399.993 -0.25814 0.690314 0
M  V30 4330 H 402.635 0.0230927 1.89986 0
M  V30 4331 H 400.785 -2.00689 3.3265 0
M  V30 4332 H 402.457 0.268115 4.6052 0
M  V30 4333 H 400.7 0.321387 4.32608 0
M  V30 4334 H 401.371 -0.862242 5.45224 0
M  V30 4335 H 403.847 -1.78304 3.75961 0
M  V30 4336 H 402.723 -2.74567 4.75294 0
M  V30 4337 H 402.984 -3.18018 3.0711 0
M  V30 4338 N 402.043 -1.548 -0.295768 0
M  V30 4339 C 403.454 -1.65274 -0.868411 0
M  V30 4340 C 403.805 -0.56481 -1.87894 0
M  V30 4341 O 402.93 0.29767 -2.14343 0
M  V30 4342 C 403.525 -2.99603 -1.58188 0
M  V30 4343 C 402.084 -3.12181 -2.10286 0
M  V30 4344 C 401.231 -2.6098 -0.93727 0
M  V30 4345 H 404.182 -1.58534 -0.0726422 0
M  V30 4346 H 404.203 -2.91319 -2.44772 0
M  V30 4347 H 403.715 -3.78764 -0.846151 0
M  V30 4348 H 401.816 -2.3775 -2.8689 0
M  V30 4349 H 401.929 -4.18415 -2.33379 0
M  V30 4350 H 400.293 -2.17564 -1.32431 0
M  V30 4351 H 401.076 -3.42623 -0.215414 0
M  V30 4352 N 403.521 0.559213 -1.47345 0
M  V30 4353 C 404.746 1.34676 -1.57725 0
M  V30 4354 C 405.171 1.86723 -0.227164 0
M  V30 4355 O 404.529 1.6286 0.796642 0
M  V30 4356 C 404.577 2.49399 -2.60447 0
M  V30 4357 O 403.681 3.51567 -2.15578 0
M  V30 4358 H 403.022 0.400115 -0.52991 0
M  V30 4359 H 405.552 0.676009 -1.93109 0
M  V30 4360 H 405.562 2.95996 -2.80803 0
M  V30 4361 H 404.237 2.10873 -3.58477 0
M  V30 4362 H 402.814 3.11289 -2.05313 0
M  V30 4363 N 404.999 1.35443 0.805782 0
M  V30 4364 C 406.247 1.28507 1.55982 0
M  V30 4365 C 406.568 -0.140046 1.94496 0
M  V30 4366 O 405.838 -1.07666 1.63661 0
M  V30 4367 H 404.418 0.472676 0.578434 0
M  V30 4368 H 407.08 1.69555 0.961098 0
M  V30 4369 H 406.176 1.90148 2.47488 0
M  V30 4370 N 406.477 -1.02803 1.19454 0
M  V30 4371 C 407.387 -2.14575 0.948408 0
M  V30 4372 C 408.403 -1.73757 -0.091871 0
M  V30 4373 O 409.579 -2.01185 0.0929654 0
M  V30 4374 C 406.644 -3.43202 0.491265 0
M  V30 4375 C 405.705 -3.98328 1.60103 0
M  V30 4376 C 404.938 -5.20816 1.16561 0
M  V30 4377 O 405.161 -5.70392 0.0295238 0
M  V30 4378 O 404.095 -5.68801 1.96849 0
M  V30 4379 H 407.921 -2.38202 1.88397 0
M  V30 4380 H 405.506 -1.12989 0.977433 0
M  V30 4381 H 407.388 -4.20687 0.245015 0
M  V30 4382 H 406.063 -3.21018 -0.415851 0
M  V30 4383 H 404.97 -3.22174 1.90144 0
M  V30 4384 H 406.303 -4.24879 2.48473 0
M  V30 4385 N 407.956 -0.998596 -1.21925 0
M  V30 4386 C 409.181 -0.696015 -1.95372 0
M  V30 4387 C 409.606 0.733826 -1.73195 0
M  V30 4388 O 408.964 1.50242 -1.01474 0
M  V30 4389 C 409.012 -1.01466 -3.4603 0
M  V30 4390 O 408.116 -0.116415 -4.12236 0
M  V30 4391 H 407.457 -0.259938 -0.611006 0
M  V30 4392 H 409.987 -1.33711 -1.54863 0
M  V30 4393 H 409.997 -0.958855 -3.96573 0
M  V30 4394 H 408.672 -2.05653 -3.61497 0
M  V30 4395 H 407.249 -0.228193 -3.72201 0
M  V30 4396 N 409.434 1.37368 -0.772513 0
M  V30 4397 C 410.397 2.28601 -0.165541 0
M  V30 4398 C 411.397 1.48062 0.627238 0
M  V30 4399 O 412.587 1.68268 0.450715 0
M  V30 4400 C 409.719 3.32023 0.772897 0
M  V30 4401 H 410.912 2.83787 -0.969787 0
M  V30 4402 H 408.465 1.46647 -0.540775 0
M  V30 4403 H 409.2 2.81962 1.60212 0
M  V30 4404 H 408.985 3.91555 0.206585 0
M  V30 4405 H 410.475 4.00197 1.19298 0
M  V30 4406 N 410.912 0.523116 1.48665 0
M  V30 4407 C 412.161 -0.01544 2.01694 0
M  V30 4408 C 412.474 -1.35975 1.40606 0
M  V30 4409 O 413.68 -1.98627 1.85093 0
M  V30 4410 C 412.136 -0.0779303 3.59816 0
M  V30 4411 C 411.744 1.26107 4.29885 0
M  V30 4412 C 413.488 -0.565678 4.20714 0
M  V30 4413 C 411.395 1.15954 5.79921 0
M  V30 4414 H 410.325 -0.00954163 0.75394 0
M  V30 4415 H 412.976 0.665865 1.70993 0
M  V30 4416 H 411.358 -0.824165 3.87329 0
M  V30 4417 H 412.532 2.02233 4.14051 0
M  V30 4418 H 410.847 1.68401 3.80828 0
M  V30 4419 H 413.444 -0.6595 5.30617 0
M  V30 4420 H 413.787 -1.56984 3.85567 0
M  V30 4421 H 414.32 0.12467 3.97605 0
M  V30 4422 H 411.059 2.13864 6.19631 0
M  V30 4423 H 410.579 0.439529 5.98187 0
M  V30 4424 H 412.258 0.847361 6.41427 0
M  V30 4425 N 412.39 -1.55475 0.257931 0
M  V30 4426 C 413.32 -2.24815 -0.630912 0
M  V30 4427 C 414.301 -1.23224 -1.17259 0
M  V30 4428 O 415.486 -1.51904 -1.20991 0
M  V30 4429 C 412.616 -2.95609 -1.82298 0
M  V30 4430 C 411.57 -4.03982 -1.41359 0
M  V30 4431 C 410.896 -4.6226 -2.68738 0
M  V30 4432 C 412.196 -5.19109 -0.57648 0
M  V30 4433 H 413.89 -2.99354 -0.0526878 0
M  V30 4434 H 411.436 -1.4398 -0.023901 0
M  V30 4435 H 413.389 -3.42822 -2.45054 0
M  V30 4436 H 412.113 -2.18577 -2.42676 0
M  V30 4437 H 410.772 -3.57555 -0.809324 0
M  V30 4438 H 410.42 -3.81915 -3.27338 0
M  V30 4439 H 410.12 -5.35424 -2.42065 0
M  V30 4440 H 411.644 -5.12212 -3.32372 0
M  V30 4441 H 413.058 -5.62479 -1.10861 0
M  V30 4442 H 411.455 -5.98729 -0.405351 0
M  V30 4443 H 412.525 -4.83174 0.408776 0
M  V30 4444 N 413.868 0.0150385 -1.57593 0
M  V30 4445 C 415.145 0.7392 -1.81094 0
M  V30 4446 C 415.525 1.92817 -0.859344 0
M  V30 4447 O 414.873 2.28301 0.095362 0
M  V30 4448 C 415.083 1.15907 -3.29191 0
M  V30 4449 C 416.431 1.56918 -3.9454 0
M  V30 4450 O 417.455 1.25328 -3.33424 0
M  V30 4451 O 416.314 2.15604 -5.02173 0
M  V30 4452 H 413.408 0.358631 -0.745193 0
M  V30 4453 H 415.954 -0.00926156 -1.69697 0
M  V30 4454 H 414.726 0.310921 -3.90063 0
M  V30 4455 H 414.349 1.96711 -3.45529 0
M  V30 4456 N 415.346 1.54954 0.287554 0
M  V30 4457 C 416.762 1.46469 0.633964 0
M  V30 4458 C 416.962 0.666865 1.90145 0
M  V30 4459 O 416.018 0.179906 2.51858 0
M  V30 4460 C 417.331 2.90556 0.774454 0
M  V30 4461 C 418.879 3.00681 0.869462 0
M  V30 4462 C 419.354 4.45993 1.04184 0
M  V30 4463 N 420.845 4.4976 1.10772 0
M  V30 4464 C 421.58 5.59393 1.25964 0
M  V30 4465 N 421.076 6.78923 1.37968 0
M  V30 4466 N 422.869 5.47107 1.28959 0
M  V30 4467 H 415.02 2.05288 -0.545041 0
M  V30 4468 H 417.283 0.930305 -0.182308 0
M  V30 4469 H 416.989 3.51594 -0.086207 0
M  V30 4470 H 416.863 3.38743 1.6593 0
M  V30 4471 H 419.25 2.39749 1.7206 0
M  V30 4472 H 419.331 2.55769 -0.0396831 0
M  V30 4473 H 418.975 5.07524 0.195422 0
M  V30 4474 H 418.905 4.88548 1.96542 0
M  V30 4475 H 421.396 3.63651 1.02794 0
M  V30 4476 H 421.709 7.58231 1.49353 0
M  V30 4477 H 420.054 6.81763 1.34999 0
M  V30 4478 H 423.245 4.52668 1.19202 0
M  V30 4479 H 423.418 6.32595 1.40455 0
M  V30 4480 N 416.824 -0.551391 1.4764 0
M  V30 4481 C 418.07 -1.31024 1.54792 0
M  V30 4482 C 418.403 -1.9304 0.211967 0
M  V30 4483 O 417.678 -1.78175 -0.77999 0
M  V30 4484 C 417.961 -2.41593 2.67029 0
M  V30 4485 C 417.814 -1.84408 4.10261 0
M  V30 4486 C 419.133 -3.43488 2.75143 0
M  V30 4487 H 416.252 -0.475031 0.563485 0
M  V30 4488 H 418.894 -0.616454 1.79722 0
M  V30 4489 H 417.044 -3.00772 2.45904 0
M  V30 4490 H 418.716 -1.29445 4.42766 0
M  V30 4491 H 416.959 -1.15051 4.18265 0
M  V30 4492 H 417.63 -2.64367 4.84576 0
M  V30 4493 H 420.106 -2.94236 2.94218 0
M  V30 4494 H 418.982 -4.18274 3.55441 0
M  V30 4495 H 419.243 -4.02703 1.82435 0
M  V30 4496 N 418.302 -1.35869 -0.798587 0
M  V30 4497 C 419.265 -1.29307 -1.89242 0
M  V30 4498 C 420.265 -0.202747 -1.59517 0
M  V30 4499 O 421.455 -0.456957 -1.681 0
M  V30 4500 C 418.587 -1.00229 -3.25833 0
M  V30 4501 H 419.78 -2.26576 -1.96478 0
M  V30 4502 H 417.333 -1.20509 -0.995358 0
M  V30 4503 H 418.068 -0.033801 -3.24282 0
M  V30 4504 H 417.853 -1.79121 -3.48795 0
M  V30 4505 H 419.343 -0.98219 -4.05885 0
M  V30 4506 N 419.78 1.02168 -1.19998 0
M  V30 4507 C 421.057 1.72816 -0.916191 0
M  V30 4508 C 421.437 2.03081 0.576325 0
M  V30 4509 O 420.785 1.69122 1.53656 0
M  V30 4510 C 420.995 2.9997 -1.78378 0
M  V30 4511 C 422.343 3.73336 -2.02251 0
M  V30 4512 O 423.367 3.09914 -1.75589 0
M  V30 4513 O 422.226 4.87371 -2.47249 0
M  V30 4514 H 419.32 0.752924 -0.342103 0
M  V30 4515 H 421.866 1.08062 -1.30846 0
M  V30 4516 H 420.638 2.73888 -2.79466 0
M  V30 4517 H 420.261 3.72464 -1.39126 0
M  V30 4518 N 421.258 1.00505 1.21394 0
M  V30 4519 C 422.506 0.686415 1.90086 0
M  V30 4520 C 422.827 -0.785264 1.7849 0
M  V30 4521 O 422.097 -1.56387 1.17983 0
M  V30 4522 H 420.677 0.2509 0.703604 0
M  V30 4523 H 423.339 1.27417 1.47482 0
M  V30 4524 H 422.435 0.959621 2.96981 0
M  V30 4525 N 422.737 -1.36956 0.779787 0
M  V30 4526 C 423.67 -2.27896 0.117681 0
M  V30 4527 C 424.648 -1.46736 -0.700523 0
M  V30 4528 O 425.832 -1.76055 -0.673568 0
M  V30 4529 C 422.959 -3.28136 -0.839296 0
M  V30 4530 C 422.005 -4.26373 -0.10409 0
M  V30 4531 S 422.838 -5.2157 1.21348 0
M  V30 4532 C 423.994 -6.25359 0.260249 0
M  V30 4533 H 424.227 -2.83704 0.888778 0
M  V30 4534 H 421.76 -1.43352 0.57355 0
M  V30 4535 H 423.718 -3.86394 -1.38601 0
M  V30 4536 H 422.379 -2.7126 -1.58356 0
M  V30 4537 H 421.572 -4.97121 -0.82986 0
M  V30 4538 H 421.174 -3.72147 0.371858 0
M  V30 4539 H 423.466 -6.75145 -0.564435 0
M  V30 4540 H 424.409 -7.01885 0.936135 0
M  V30 4541 H 424.817 -5.64345 -0.132127 0
M  V30 4542 N 424.215 -0.530993 -1.48385 0
M  V30 4543 C 425.461 0.00274135 -2.028 0
M  V30 4544 C 425.794 1.33838 -1.40716 0
M  V30 4545 O 425.069 1.86465 -0.553277 0
M  V30 4546 C 425.352 0.123676 -3.59888 0
M  V30 4547 C 425.205 -1.2372 -4.3245 0
M  V30 4548 C 426.524 0.849967 -4.31814 0
M  V30 4549 H 423.643 -0.000477758 -0.737 0
M  V30 4550 H 426.285 -0.688217 -1.77098 0
M  V30 4551 H 424.435 0.712157 -3.81917 0
M  V30 4552 H 426.107 -1.86687 -4.21836 0
M  V30 4553 H 424.35 -1.81882 -3.93829 0
M  V30 4554 H 425.021 -1.10557 -5.40815 0
M  V30 4555 H 427.497 0.350572 -4.14621 0
M  V30 4556 H 426.373 0.903486 -5.41413 0
M  V30 4557 H 426.634 1.90047 -3.99167 0
M  V30 4558 N 425.693 1.55336 -0.266172 0
M  V30 4559 C 426.94 1.99397 0.353158 0
M  V30 4560 C 427.268 1.15451 1.56529 0
M  V30 4561 O 426.523 0.209974 1.9457 0
M  V30 4562 C 426.822 3.48606 0.787957 0
M  V30 4563 C 426.488 4.49773 -0.318541 0
M  V30 4564 C 425.15 4.77158 -0.62239 0
M  V30 4565 C 427.502 5.10212 -1.06459 0
M  V30 4566 C 424.83 5.62251 -1.67602 0
M  V30 4567 C 427.182 5.96449 -2.10788 0
M  V30 4568 C 425.846 6.22158 -2.41817 0
M  V30 4569 H 425.116 0.729644 0.12923 0
M  V30 4570 H 427.763 1.87732 -0.37802 0
M  V30 4571 H 426.068 3.57701 1.59866 0
M  V30 4572 H 427.765 3.80098 1.27775 0
M  V30 4573 H 424.355 4.2854 -0.0715925 0
M  V30 4574 H 428.539 4.89086 -0.843098 0
M  V30 4575 H 423.795 5.80419 -1.92155 0
M  V30 4576 H 427.969 6.42317 -2.69076 0
M  V30 4577 H 425.596 6.87888 -3.23596 0
M  V30 4578 N 427.171 -0.0066808 1.57599 0
M  V30 4579 C 428.419 -0.691552 1.899 0
M  V30 4580 C 428.74 -1.74682 0.866672 0
M  V30 4581 O 428.01 -1.95661 -0.0968189 0
M  V30 4582 H 426.59 -0.258416 0.700878 0
M  V30 4583 H 429.252 0.0326655 1.94873 0
M  V30 4584 H 428.348 -1.16702 2.8946 0
M  V30 4585 N 428.649 -1.55105 -0.279332 0
M  V30 4586 C 429.612 -1.86783 -1.32834 0
M  V30 4587 C 430.612 -0.74199 -1.42657 0
M  V30 4588 O 431.802 -1.0102 -1.41918 0
M  V30 4589 C 428.934 -2.06746 -2.71052 0
M  V30 4590 H 430.127 -2.8055 -1.05979 0
M  V30 4591 H 427.68 -1.47499 -0.517087 0
M  V30 4592 H 428.415 -1.15339 -3.03097 0
M  V30 4593 H 428.2 -2.88711 -2.65309 0
M  V30 4594 H 429.69 -2.32549 -3.46858 0
M  V30 4595 N 430.127 0.543554 -1.4793 0
M  V30 4596 C 431.057 1.65888 -1.64327 0
M  V30 4597 C 432.038 1.62818 -0.492383 0
M  V30 4598 O 433.223 1.80226 -0.723338 0
M  V30 4599 C 430.353 3.04506 -1.67013 0
M  V30 4600 C 429.307 3.2243 -2.81466 0
M  V30 4601 C 428.633 4.61972 -2.69233 0
M  V30 4602 C 429.933 3.06496 -4.22915 0
M  V30 4603 H 431.627 1.52421 -2.57698 0
M  V30 4604 H 429.173 0.731849 -1.24016 0
M  V30 4605 H 431.126 3.82391 -1.77074 0
M  V30 4606 H 429.85 3.18964 -0.70212 0
M  V30 4607 H 428.509 2.46957 -2.70938 0
M  V30 4608 H 428.157 4.73247 -1.7043 0
M  V30 4609 H 427.857 4.74911 -3.46025 0
M  V30 4610 H 429.381 5.41974 -2.81242 0
M  V30 4611 H 430.795 3.74186 -4.34348 0
M  V30 4612 H 429.192 3.30938 -5.006 0
M  V30 4613 H 430.262 2.03077 -4.40327 0
M  V30 4614 N 431.605 1.3629 0.791371 0
M  V30 4615 C 432.535 1.33137 1.91825 0
M  V30 4616 C 433.516 0.203168 1.68882 0
M  V30 4617 O 434.701 0.400509 1.90025 0
M  V30 4618 C 431.831 1.11793 3.28816 0
M  V30 4619 C 430.785 2.21417 3.66277 0
M  V30 4620 C 430.111 1.85218 5.01596 0
M  V30 4621 C 431.411 3.63489 3.75064 0
M  V30 4622 H 433.105 2.2743 1.9472 0
M  V30 4623 H 430.651 1.09479 0.935437 0
M  V30 4624 H 432.604 1.08222 4.07266 0
M  V30 4625 H 431.328 0.139501 3.26302 0
M  V30 4626 H 429.987 2.2411 2.90121 0
M  V30 4627 H 429.635 0.859544 4.95602 0
M  V30 4628 H 429.335 2.58611 5.27631 0
M  V30 4629 H 430.859 1.832 5.82469 0
M  V30 4630 H 432.273 3.63034 4.43711 0
M  V30 4631 H 430.67 4.35771 4.12582 0
M  V30 4632 H 431.74 3.98536 2.76219 0
M  V30 4633 N 433.083 -1.0153 1.20538 0
M  V30 4634 C 434.494 -1.56598 1.01657 0
M  V30 4635 C 434.845 -1.91505 -0.426668 0
M  V30 4636 O 433.97 -1.72375 -1.30827 0
M  V30 4637 C 434.565 -2.84542 1.83905 0
M  V30 4638 C 433.124 -3.36133 1.69386 0
M  V30 4639 C 432.271 -2.09427 1.81757 0
M  V30 4640 H 435.222 -0.838974 1.34711 0
M  V30 4641 H 435.243 -3.56004 1.34319 0
M  V30 4642 H 434.755 -2.59105 2.8894 0
M  V30 4643 H 432.856 -3.66528 0.669933 0
M  V30 4644 H 432.969 -4.08248 2.50739 0
M  V30 4645 H 431.333 -2.21941 1.24957 0
M  V30 4646 H 432.116 -1.86414 2.88279 0
M  V30 4647 N 434.561 -1.01147 -1.20859 0
M  V30 4648 C 435.801 -0.706331 -1.91808 0
M  V30 4649 C 436.165 0.749736 -1.76757 0
M  V30 4650 O 437.366 1.16716 -2.42138 0
M  V30 4651 C 435.637 -1.12371 -3.39275 0
M  V30 4652 S 437.196 -0.939764 -4.28619 0
M  V30 4653 H 434.014 -0.257665 -0.662669 0
M  V30 4654 H 436.616 -1.29766 -1.46223 0
M  V30 4655 H 435.32 -2.17943 -3.47749 0
M  V30 4656 H 434.851 -0.524952 -3.89882 0
M  V30 4657 H 436.866 0.159556 -4.95943 0
M  V30 4658 N 436.039 1.36541 -0.78704 0
M  V30 4659 C 436.949 2.3387 -0.184896 0
M  V30 4660 C 437.965 1.60927 0.661697 0
M  V30 4661 O 439.141 1.92927 0.57804 0
M  V30 4662 C 436.206 3.40122 0.672145 0
M  V30 4663 C 435.267 4.28867 -0.19267 0
M  V30 4664 C 434.5 5.30045 0.623561 0
M  V30 4665 O 434.723 5.39232 1.8597 0
M  V30 4666 O 433.657 6.01895 0.0247068 0
M  V30 4667 H 437.483 2.87126 -0.989562 0
M  V30 4668 H 435.068 1.38969 -0.548455 0
M  V30 4669 H 436.95 4.05093 1.16094 0
M  V30 4670 H 435.625 2.89169 1.45474 0
M  V30 4671 H 434.532 3.66945 -0.728166 0
M  V30 4672 H 435.865 4.83165 -0.938722 0
M  V30 4673 N 437.518 0.538854 1.48102 0
M  V30 4674 C 438.428 -0.222648 2.33541 0
M  V30 4675 C 439.444 -0.930225 1.47047 0
M  V30 4676 O 440.62 -0.903211 1.80011 0
M  V30 4677 C 437.685 -1.25064 3.23357 0
M  V30 4678 C 436.746 -0.552469 4.2573 0
M  V30 4679 C 435.979 -1.53149 5.11254 0
M  V30 4680 O 436.202 -2.76487 4.9891 0
M  V30 4681 O 435.136 -1.06602 5.92385 0
M  V30 4682 H 438.962 0.477707 2.99919 0
M  V30 4683 H 436.547 0.299669 1.46364 0
M  V30 4684 H 438.429 -1.8445 3.78888 0
M  V30 4685 H 437.104 -1.93325 2.59629 0
M  V30 4686 H 436.011 0.082114 3.7401 0
M  V30 4687 H 437.344 0.0883526 4.92121 0
M  V30 4688 N 438.996 -1.55193 0.274407 0
M  V30 4689 C 440.236 -2.01488 -0.343778 0
M  V30 4690 C 440.6 -1.1586 -1.53103 0
M  V30 4691 O 441.801 -1.51732 -2.2188 0
M  V30 4692 C 440.072 -3.50134 -0.717021 0
M  V30 4693 S 441.631 -4.18417 -1.32184 0
M  V30 4694 H 438.449 -0.70291 -0.106948 0
M  V30 4695 H 441.051 -1.91446 0.396075 0
M  V30 4696 H 439.755 -4.10104 0.155947 0
M  V30 4697 H 439.286 -3.64159 -1.48835 0
M  V30 4698 H 441.301 -4.21984 -2.61044 0
M  V30 4699 N 440.474 -0.00167713 -1.576 0
M  V30 4700 C 441.699 0.69739 -1.95323 0
M  V30 4701 C 442.124 1.6642 -0.876706 0
M  V30 4702 O 441.482 1.80548 0.165007 0
M  V30 4703 C 441.53 1.40403 -3.32144 0
M  V30 4704 O 440.634 2.5185 -3.26566 0
M  V30 4705 H 439.975 0.185373 -0.637599 0
M  V30 4706 H 442.505 -0.0553665 -2.04525 0
M  V30 4707 H 442.515 1.76707 -3.67748 0
M  V30 4708 H 441.19 0.695167 -4.10049 0
M  V30 4709 H 439.767 2.17861 -3.0264 0
M  V30 4710 N 441.952 1.55251 0.271103 0
M  V30 4711 C 443.2 1.75599 1.00047 0
M  V30 4712 C 443.521 0.561188 1.8675 0
M  V30 4713 O 442.791 -0.423846 1.9126 0
M  V30 4714 H 441.371 0.647562 0.372387 0
M  V30 4715 H 444.033 1.92656 0.294876 0
M  V30 4716 H 443.129 2.65766 1.6363 0
M  V30 4717 N 443.43 -0.535701 1.48216 0
M  V30 4718 C 444.362 -1.65662 1.58394 0
M  V30 4719 C 445.375 -1.5591 0.468607 0
M  V30 4720 O 446.564 -1.62475 0.7392 0
M  V30 4721 C 443.664 -3.04276 1.4923 0
M  V30 4722 C 442.837 -3.39567 2.75705 0
M  V30 4723 C 441.896 -4.57436 2.60075 0
M  V30 4724 O 440.922 -4.60942 3.33948 0
M  V30 4725 N 442.124 -5.55259 1.69315 0
M  V30 4726 H 444.889 -1.5737 2.55058 0
M  V30 4727 H 442.45 -0.722845 1.44867 0
M  V30 4728 H 444.442 -3.80994 1.36477 0
M  V30 4729 H 443.012 -3.06677 0.605632 0
M  V30 4730 H 442.232 -2.52083 3.03064 0
M  V30 4731 H 443.52 -3.59929 3.59623 0
M  V30 4732 H 442.918 -5.552 1.08489 0
M  V30 4733 H 441.475 -6.31218 1.62504 0
M  V30 4734 N 444.908 -1.36708 -0.784132 0
M  V30 4735 C 445.838 -1.34153 -1.91116 0
M  V30 4736 C 446.819 -0.212121 -1.68772 0
M  V30 4737 O 448.004 -0.410581 -1.8981 0
M  V30 4738 C 445.134 -1.13535 -3.28218 0
M  V30 4739 C 444.088 -2.23356 -3.65097 0
M  V30 4740 C 443.414 -1.87875 -5.00607 0
M  V30 4741 C 444.714 -3.65473 -3.73131 0
M  V30 4742 H 446.408 -2.28459 -1.93512 0
M  V30 4743 H 443.954 -1.09973 -0.929618 0
M  V30 4744 H 445.907 -1.10381 -4.06687 0
M  V30 4745 H 444.631 -0.156804 -3.26223 0
M  V30 4746 H 443.29 -2.25645 -2.88929 0
M  V30 4747 H 442.938 -0.885814 -4.95139 0
M  V30 4748 H 442.638 -2.61406 -5.26252 0
M  V30 4749 H 444.162 -1.86286 -5.81489 0
M  V30 4750 H 445.576 -3.65382 -4.41779 0
M  V30 4751 H 443.973 -4.37953 -4.10265 0
M  V30 4752 H 445.043 -3.99995 -2.74102 0
M  V30 4753 N 446.386 1.0089 -1.21074 0
M  V30 4754 C 447.632 1.74866 -1.02712 0
M  V30 4755 C 447.965 1.89178 0.438787 0
M  V30 4756 O 447.24 1.42325 1.32567 0
M  V30 4757 C 447.523 3.16347 -1.72036 0
M  V30 4758 C 447.376 3.09782 -3.26121 0
M  V30 4759 C 448.695 4.15187 -1.45973 0
M  V30 4760 H 445.814 0.634736 -0.374539 0
M  V30 4761 H 448.456 1.17646 -1.49196 0
M  V30 4762 H 446.606 3.65201 -1.32517 0
M  V30 4763 H 448.278 2.68673 -3.74983 0
M  V30 4764 H 446.521 2.46982 -3.56626 0
M  V30 4765 H 447.192 4.09829 -3.6979 0
M  V30 4766 H 449.668 3.75022 -1.80272 0
M  V30 4767 H 448.544 5.12331 -1.96999 0
M  V30 4768 H 448.805 4.40386 -0.388924 0
M  V30 4769 N 447.864 1.01787 1.20321 0
M  V30 4770 C 449.111 0.707936 1.89722 0
M  V30 4771 C 449.439 -0.762535 1.78929 0
M  V30 4772 O 448.694 -1.56977 1.16861 0
M  V30 4773 C 448.993 1.09076 3.40349 0
M  V30 4774 C 448.659 2.55765 3.71342 0
M  V30 4775 C 447.321 2.95845 3.79511 0
M  V30 4776 C 449.673 3.50723 3.85542 0
M  V30 4777 C 447.001 4.2982 3.99339 0
M  V30 4778 C 449.353 4.84387 4.06881 0
M  V30 4779 C 448.017 5.24172 4.1328 0
M  V30 4780 H 447.287 0.259052 0.694243 0
M  V30 4781 H 449.934 1.27868 1.42555 0
M  V30 4782 H 448.239 0.438453 3.89339 0
M  V30 4783 H 449.936 0.828636 3.92345 0
M  V30 4784 H 446.526 2.2371 3.65584 0
M  V30 4785 H 450.71 3.20916 3.78585 0
M  V30 4786 H 445.966 4.60196 4.02529 0
M  V30 4787 H 450.14 5.57891 4.1681 0
M  V30 4788 H 447.767 6.27997 4.28396 0
M  V30 4789 N 449.342 -1.36122 0.79427 0
M  V30 4790 C 450.289 -2.29982 0.194101 0
M  V30 4791 C 451.259 -1.52214 -0.664833 0
M  V30 4792 O 452.444 -1.80702 -0.612498 0
M  V30 4793 C 449.584 -3.38706 -0.661244 0
M  V30 4794 C 448.697 -4.31456 0.216766 0
M  V30 4795 C 447.832 -5.27265 -0.645411 0
M  V30 4796 C 446.871 -6.11653 0.233756 0
M  V30 4797 N 446.008 -6.99636 -0.587682 0
M  V30 4798 H 450.848 -2.80722 0.999965 0
M  V30 4799 H 448.385 -1.38172 0.504677 0
M  V30 4800 H 450.343 -4.00394 -1.17219 0
M  V30 4801 H 448.973 -2.89274 -1.43249 0
M  V30 4802 H 448.025 -3.7088 0.845724 0
M  V30 4803 H 449.337 -4.90724 0.893973 0
M  V30 4804 H 448.491 -5.94266 -1.22198 0
M  V30 4805 H 447.23 -4.68463 -1.35623 0
M  V30 4806 H 446.235 -5.4361 0.82269 0
M  V30 4807 H 447.46 -6.72531 0.942247 0
M  V30 4808 H 445.406 -6.43337 -1.2827 0
M  V30 4809 H 445.323 -7.55993 0.0317402 0
M  V30 4810 H 446.591 -7.71001 -1.14792 0
M  V30 4811 N 450.82 -0.546701 -1.47814 0
M  V30 4812 C 452.045 -0.021268 -2.07389 0
M  V30 4813 C 452.47 1.25822 -1.39822 0
M  V30 4814 O 451.828 1.75111 -0.46968 0
M  V30 4815 C 451.876 0.168502 -3.60206 0
M  V30 4816 O 450.98 1.23347 -3.93522 0
M  V30 4817 H 450.321 -0.0466108 -0.662362 0
M  V30 4818 H 452.851 -0.759387 -1.89985 0
M  V30 4819 H 452.861 0.385982 -4.0617 0
M  V30 4820 H 451.536 -0.766075 -4.08784 0
M  V30 4821 H 450.113 0.997319 -3.59316 0
M  V30 4822 N 452.299 1.55045 -0.282633 0
M  V30 4823 C 453.576 1.9179 0.384166 0
M  V30 4824 C 453.956 1.20778 1.73136 0
M  V30 4825 O 453.304 0.33719 2.25998 0
M  V30 4826 C 453.514 3.45149 0.517014 0
M  V30 4827 C 454.862 4.17064 0.796427 0
M  V30 4828 O 455.886 3.51084 0.601535 0
M  V30 4829 O 454.745 5.33837 1.16962 0
M  V30 4830 H 451.839 0.799483 0.211558 0
M  V30 4831 H 454.385 1.66474 -0.32934 0
M  V30 4832 H 453.157 3.88922 -0.430772 0
M  V30 4833 H 452.78 3.76443 1.2797 0
M  V30 4834 N 453.777 0.010035 1.57597 0
M  V30 4835 C 454.74 -0.963029 2.07986 0
M  V30 4836 C 455.74 -1.26619 0.991173 0
M  V30 4837 O 456.93 -1.2097 1.25347 0
M  V30 4838 C 454.062 -2.2851 2.52974 0
M  V30 4839 H 455.255 -0.526971 2.95234 0
M  V30 4840 H 452.808 -0.237639 1.54483 0
M  V30 4841 H 453.543 -2.76784 1.69 0
M  V30 4842 H 453.328 -2.07824 3.32493 0
M  V30 4843 H 454.818 -2.98294 2.9225 0
M  V30 4844 N 455.255 -1.55392 -0.262866 0
M  V30 4845 C 456.485 -1.80251 -1.00961 0
M  V30 4846 C 456.893 -0.58117 -1.80053 0
M  V30 4847 O 456.236 0.459427 -1.77862 0
M  V30 4848 C 456.298 -2.98207 -2.00781 0
M  V30 4849 C 455.962 -4.34856 -1.40533 0
M  V30 4850 C 456.959 -5.13459 -0.815853 0
M  V30 4851 C 454.644 -4.8153 -1.42948 0
M  V30 4852 C 456.638 -6.36875 -0.258562 0
M  V30 4853 C 454.325 -6.04899 -0.868334 0
M  V30 4854 C 455.323 -6.8241 -0.283884 0
M  V30 4855 O 455.011 -8.03451 0.268644 0
M  V30 4856 H 454.743 -0.604049 -0.303482 0
M  V30 4857 H 457.297 -2.03257 -0.295926 0
M  V30 4858 H 455.527 -2.70917 -2.75936 0
M  V30 4859 H 457.216 -3.10299 -2.61667 0
M  V30 4860 H 457.982 -4.78526 -0.789812 0
M  V30 4861 H 453.861 -4.21201 -1.87378 0
M  V30 4862 H 457.405 -6.97318 0.198257 0
M  V30 4863 H 453.302 -6.39312 -0.891649 0
M  V30 4864 H 454.07 -8.18346 0.158974 0
M  V30 4865 N 456.733 0.527833 -1.48498 0
M  V30 4866 C 457.963 1.30633 -1.60058 0
M  V30 4867 C 458.371 1.87394 -0.260786 0
M  V30 4868 O 457.714 1.67227 0.760317 0
M  V30 4869 C 457.776 2.49361 -2.58958 0
M  V30 4870 C 457.44 2.13671 -4.03972 0
M  V30 4871 C 458.437 1.69217 -4.91591 0
M  V30 4872 C 456.122 2.24129 -4.49524 0
M  V30 4873 C 458.116 1.35689 -6.2279 0
M  V30 4874 C 455.803 1.90212 -5.80743 0
M  V30 4875 C 456.801 1.46063 -6.67199 0
M  V30 4876 O 456.489 1.12593 -7.95976 0
M  V30 4877 H 456.221 0.403444 -0.54241 0
M  V30 4878 H 458.775 0.643233 -1.95068 0
M  V30 4879 H 457.005 3.18659 -2.19073 0
M  V30 4880 H 458.694 3.11421 -2.6033 0
M  V30 4881 H 459.46 1.60607 -4.57636 0
M  V30 4882 H 455.339 2.57447 -3.82416 0
M  V30 4883 H 458.883 1.01157 -6.90227 0
M  V30 4884 H 454.78 1.98464 -6.14233 0
M  V30 4885 H 455.548 1.25972 -8.08748 0
M  V30 4886 N 458.211 1.37122 0.776871 0
M  V30 4887 C 459.451 1.33441 1.54831 0
M  V30 4888 C 459.815 -0.0818963 1.91825 0
M  V30 4889 O 461.016 -0.24338 2.67696 0
M  V30 4890 C 459.287 2.24267 2.78279 0
M  V30 4891 S 460.846 2.38389 3.68397 0
M  V30 4892 H 457.664 0.473791 0.530135 0
M  V30 4893 H 460.266 1.7282 0.913968 0
M  V30 4894 H 458.97 3.261 2.49173 0
M  V30 4895 H 458.501 1.85953 3.46677 0
M  V30 4896 H 460.516 1.59068 4.70013 0
M  V30 4897 N 459.689 -1.00246 1.21608 0
M  V30 4898 C 460.917 -1.77631 1.06089 0
M  V30 4899 C 461.332 -1.84746 -0.38916 0
M  V30 4900 O 460.689 -1.31068 -1.26994 0
M  V30 4901 C 460.74 -3.21415 1.65453 0
M  V30 4902 O 460.461 -3.14703 3.04785 0
M  V30 4903 C 461.962 -4.15289 1.55079 0
M  V30 4904 H 459.182 -0.558162 0.37242 0
M  V30 4905 H 461.726 -1.26093 1.60999 0
M  V30 4906 H 459.881 -3.70053 1.14629 0
M  V30 4907 H 460.295 -4.05056 3.33212 0
M  V30 4908 H 461.769 -5.13965 2.01355 0
M  V30 4909 H 462.246 -4.36279 0.505665 0
M  V30 4910 H 462.852 -3.72543 2.05163 0
M  V30 4911 N 461.167 -1.02423 -1.1978 0
M  V30 4912 C 462.415 -0.716569 -1.8897 0
M  V30 4913 C 462.736 0.756769 -1.79716 0
M  V30 4914 O 462.006 1.5449 -1.20456 0
M  V30 4915 H 460.586 -0.262062 -0.699523 0
M  V30 4916 H 463.248 -1.29747 -1.45436 0
M  V30 4917 H 462.344 -1.00675 -2.95417 0
M  V30 4918 N 462.645 1.35699 -0.801477 0
M  V30 4919 C 463.922 1.9324 -0.302937 0
M  V30 4920 C 464.302 1.73209 1.20672 0
M  V30 4921 O 463.65 1.09809 2.00385 0
M  V30 4922 C 463.86 3.41728 -0.708747 0
M  V30 4923 C 465.208 4.18868 -0.695328 0
M  V30 4924 O 466.232 3.5022 -0.649971 0
M  V30 4925 O 465.091 5.41342 -0.749081 0
M  V30 4926 H 462.185 0.82331 -0.0780367 0
M  V30 4927 H 464.731 1.44806 -0.884832 0
M  V30 4928 H 463.503 3.50015 -1.74944 0
M  V30 4929 H 463.126 3.97471 -0.101384 0
M  V30 4930 N 464.123 0.554532 1.47522 0
M  V30 4931 C 465.369 0.0295227 2.02779 0
M  V30 4932 C 465.702 -1.31582 1.42828 0
M  V30 4933 O 464.977 -1.85561 0.582872 0
M  V30 4934 C 465.26 -0.0664057 3.60039 0
M  V30 4935 C 465.113 1.30585 4.30427 0
M  V30 4936 C 466.432 -0.781162 4.33112 0
M  V30 4937 H 463.551 0.0122027 0.736899 0
M  V30 4938 H 466.193 0.716305 1.7598 0
M  V30 4939 H 464.343 -0.651307 3.83002 0
M  V30 4940 H 466.015 1.93374 4.18813 0
M  V30 4941 H 464.258 1.88125 3.90886 0
M  V30 4942 H 464.929 1.19147 5.38988 0
M  V30 4943 H 467.405 -0.284565 4.15126 0
M  V30 4944 H 466.281 -0.817237 5.42782 0
M  V30 4945 H 466.542 -1.83672 4.0214 0
M  V30 4946 N 465.601 -1.54893 0.290851 0
M  V30 4947 C 466.829 -2.04343 -0.324288 0
M  V30 4948 C 467.244 -1.16859 -1.48289 0
M  V30 4949 O 466.601 -0.192018 -1.81487 0
M  V30 4950 C 466.652 -3.52756 -0.79026 0
M  V30 4951 O 466.373 -4.36913 0.322213 0
M  V30 4952 C 467.874 -4.18161 -1.4716 0
M  V30 4953 H 465.094 -0.667135 -0.0719173 0
M  V30 4954 H 467.638 -1.99981 0.427529 0
M  V30 4955 H 465.793 -3.57511 -1.49213 0
M  V30 4956 H 466.207 -5.24486 -0.0387372 0
M  V30 4957 H 467.681 -5.23562 -1.7489 0
M  V30 4958 H 468.158 -3.67282 -2.40834 0
M  V30 4959 H 468.764 -4.17454 -0.813178 0
M  V30 4960 N 467.08 -0.0183926 -1.57589 0
M  V30 4961 C 468.043 0.951986 -2.08494 0
M  V30 4962 C 469.043 1.26092 -0.997874 0
M  V30 4963 O 470.233 1.20304 -1.25987 0
M  V30 4964 C 467.365 2.27165 -2.54182 0
M  V30 4965 H 468.558 0.511307 -2.95509 0
M  V30 4966 H 466.111 0.229444 -1.54607 0
M  V30 4967 H 466.846 2.75884 -1.70465 0
M  V30 4968 H 466.631 2.06057 -3.33591 0
M  V30 4969 H 468.121 2.9674 -2.93828 0
M  V30 4970 N 468.558 1.5553 0.254621 0
M  V30 4971 C 469.804 1.7818 0.980989 0
M  V30 4972 C 470.159 0.586059 1.83257 0
M  V30 4973 O 469.452 -0.420889 1.8692 0
M  V30 4974 C 469.646 3.03891 1.88109 0
M  V30 4975 C 469.475 4.35578 1.11812 0
M  V30 4976 C 468.245 4.98497 0.826343 0
M  V30 4977 C 470.443 5.11869 0.499486 0
M  V30 4978 N 468.425 6.13888 0.0385095 0
M  V30 4979 C 469.796 6.1981 -0.153292 0
M  V30 4980 C 471.851 4.96216 0.409175 0
M  V30 4981 C 470.554 7.13801 -0.8877 0
M  V30 4982 C 472.58 5.90578 -0.311683 0
M  V30 4983 C 471.942 6.97922 -0.953129 0
M  V30 4984 H 468.041 0.704057 0.340335 0
M  V30 4985 H 470.625 1.93025 0.254855 0
M  V30 4986 H 468.796 2.90389 2.57932 0
M  V30 4987 H 470.528 3.14869 2.54244 0
M  V30 4988 H 467.283 4.59769 1.13621 0
M  V30 4989 H 467.707 6.76129 -0.343275 0
M  V30 4990 H 472.349 4.1331 0.890765 0
M  V30 4991 H 470.067 7.96214 -1.38092 0
M  V30 4992 H 473.653 5.80544 -0.382125 0
M  V30 4993 H 472.533 7.69681 -1.50203 0
M  V30 4994 N 470.036 -0.519951 1.48776 0
M  V30 4995 C 471.264 -1.29971 1.60982 0
M  V30 4996 C 471.679 -1.86803 0.273885 0
M  V30 4997 O 471.036 -1.66904 -0.738193 0
M  V30 4998 C 471.087 -2.44346 2.66415 0
M  V30 4999 O 470.808 -1.89855 3.94825 0
M  V30 5000 C 472.309 -3.36014 2.89153 0
M  V30 5001 H 469.529 -0.394891 0.542496 0
M  V30 5002 H 472.073 -0.626214 1.94676 0
M  V30 5003 H 470.228 -3.07562 2.35552 0
M  V30 5004 H 470.642 -2.64798 4.5275 0
M  V30 5005 H 472.116 -4.12593 3.66703 0
M  V30 5006 H 472.593 -3.91859 1.98351 0
M  V30 5007 H 473.199 -2.78582 3.21359 0
M  V30 5008 N 471.514 -1.37532 -0.769588 0
M  V30 5009 C 472.461 -1.3347 -1.88293 0
M  V30 5010 C 473.431 -0.199891 -1.64893 0
M  V30 5011 O 474.616 -0.389594 -1.8678 0
M  V30 5012 C 471.756 -1.14968 -3.25387 0
M  V30 5013 C 470.869 -2.37698 -3.60727 0
M  V30 5014 C 470.004 -2.12051 -4.8704 0
M  V30 5015 C 469.043 -3.30636 -5.15117 0
M  V30 5016 N 468.18 -3.04527 -6.3262 0
M  V30 5017 H 473.02 -2.28658 -1.911 0
M  V30 5018 H 470.557 -1.13622 -0.934257 0
M  V30 5019 H 472.515 -1.02261 -4.04473 0
M  V30 5020 H 471.145 -0.234263 -3.21949 0
M  V30 5021 H 470.197 -2.61137 -2.76608 0
M  V30 5022 H 471.509 -3.26131 -3.77413 0
M  V30 5023 H 470.663 -1.96388 -5.74035 0
M  V30 5024 H 469.402 -1.20959 -4.72462 0
M  V30 5025 H 468.407 -3.46836 -4.26597 0
M  V30 5026 H 469.632 -4.22582 -5.31603 0
M  V30 5027 H 467.578 -2.16067 -6.19396 0
M  V30 5028 H 467.495 -3.86503 -6.49732 0
M  V30 5029 H 468.763 -2.92485 -7.22546 0
M  V30 5030 N 472.992 0.995999 -1.22138 0
M  V30 5031 C 474.232 1.75032 -1.05561 0
M  V30 5032 C 474.596 1.87729 0.402698 0
M  V30 5033 O 475.797 2.59813 0.689234 0
M  V30 5034 C 474.068 3.11973 -1.74379 0
M  V30 5035 S 475.627 4.03182 -1.73175 0
M  V30 5036 H 472.445 0.602137 -0.37809 0
M  V30 5037 H 475.047 1.19107 -1.55028 0
M  V30 5038 H 473.751 3.00371 -2.79652 0
M  V30 5039 H 473.282 3.7297 -1.25128 0
M  V30 5040 H 475.297 4.90043 -0.77923 0
M  V30 5041 N 474.47 1.03057 1.19235 0
M  V30 5042 C 475.403 0.557384 2.21288 0
M  V30 5043 C 476.381 -0.402675 1.57535 0
M  V30 5044 O 477.565 -0.319376 1.85775 0
M  V30 5045 C 474.692 -0.187041 3.38183 0
M  V30 5046 C 473.738 0.72471 4.20298 0
M  V30 5047 S 474.571 2.20187 4.88137 0
M  V30 5048 C 475.727 1.46801 6.08441 0
M  V30 5049 H 475.96 1.42207 2.61083 0
M  V30 5050 H 473.493 0.840651 1.29508 0
M  V30 5051 H 475.451 -0.610405 4.05936 0
M  V30 5052 H 474.112 -1.02748 2.96819 0
M  V30 5053 H 473.305 0.149911 5.03777 0
M  V30 5054 H 472.907 1.08647 3.57871 0
M  V30 5055 H 475.199 0.755522 6.73274 0
M  V30 5056 H 476.142 2.27946 6.70407 0
M  V30 5057 H 476.55 0.964762 5.56195 0
M  V30 5058 N 475.948 -1.35272 0.808662 0
M  V30 5059 C 477.194 -1.99003 0.390581 0
M  V30 5060 C 477.527 -1.63999 -1.0401 0
M  V30 5061 O 476.802 -0.904368 -1.72196 0
M  V30 5062 C 477.085 -3.55454 0.576566 0
M  V30 5063 C 476.938 -4.00249 2.05233 0
M  V30 5064 C 478.257 -4.401 0.00354277 0
M  V30 5065 H 475.376 -0.722917 0.143388 0
M  V30 5066 H 478.018 -1.6039 1.01858 0
M  V30 5067 H 476.168 -3.88477 0.0419766 0
M  V30 5068 H 477.84 -3.77626 2.64946 0
M  V30 5069 H 476.083 -3.51082 2.54801 0
M  V30 5070 H 476.754 -5.0911 2.13333 0
M  V30 5071 H 479.23 -4.13548 0.460117 0
M  V30 5072 H 478.106 -5.48656 0.163575 0
M  V30 5073 H 478.367 -4.28444 -1.09032 0
M  V30 5074 N 477.426 -0.562348 -1.47226 0
M  V30 5075 C 478.373 0.182461 -2.30078 0
M  V30 5076 C 479.343 0.903503 -1.39377 0
M  V30 5077 O 480.528 0.898188 -1.68337 0
M  V30 5078 C 477.668 1.20322 -3.23445 0
M  V30 5079 C 476.781 0.487717 -4.29238 0
M  V30 5080 C 475.916 1.49422 -5.09752 0
M  V30 5081 C 474.955 0.763976 -6.07314 0
M  V30 5082 N 474.092 1.71755 -6.80768 0
M  V30 5083 H 478.932 -0.530169 -2.93246 0
M  V30 5084 H 476.469 -0.273276 -1.44539 0
M  V30 5085 H 478.427 1.80768 -3.76004 0
M  V30 5086 H 477.057 1.88382 -2.6213 0
M  V30 5087 H 476.109 -0.231374 -3.79696 0
M  V30 5088 H 477.421 -0.0841003 -4.98729 0
M  V30 5089 H 476.575 2.17206 -5.66486 0
M  V30 5090 H 475.314 2.09995 -4.40174 0
M  V30 5091 H 474.319 0.0722344 -5.49753 0
M  V30 5092 H 475.544 0.16391 -6.78902 0
M  V30 5093 H 473.49 2.31177 -6.13916 0
M  V30 5094 H 473.407 1.19802 -7.46447 0
M  V30 5095 H 474.675 2.38638 -7.42073 0
M  V30 5096 N 478.904 1.54736 -0.299062 0
M  V30 5097 C 480.132 2.04512 0.313447 0
M  V30 5098 C 480.547 1.17643 1.47667 0
M  V30 5099 O 479.904 0.20164 1.81383 0
M  V30 5100 C 479.955 3.53171 0.771542 0
M  V30 5101 O 479.676 4.36736 -0.345379 0
M  V30 5102 C 481.177 4.18936 1.4494 0
M  V30 5103 H 478.397 0.667507 0.0683784 0
M  V30 5104 H 480.941 1.99752 -0.438129 0
M  V30 5105 H 479.096 3.58298 1.47314 0
M  V30 5106 H 479.51 5.24499 0.0109219 0
M  V30 5107 H 480.984 5.24482 1.72111 0
M  V30 5108 H 481.461 3.68554 2.38883 0
M  V30 5109 H 482.067 4.17879 0.791028 0
M  V30 5110 N 480.382 0.0267497 1.57577 0
M  V30 5111 C 481.314 -0.984594 2.06974 0
M  V30 5112 C 482.327 -1.29032 0.992705 0
M  V30 5113 O 483.516 -1.25539 1.26895 0
M  V30 5114 C 480.616 -2.31262 2.47732 0
M  V30 5115 C 479.789 -2.1924 3.78487 0
M  V30 5116 C 478.848 -3.34956 4.05821 0
M  V30 5117 O 477.874 -3.11948 4.76106 0
M  V30 5118 N 479.076 -4.58672 3.55809 0
M  V30 5119 H 481.841 -0.563143 2.94362 0
M  V30 5120 H 479.402 -0.160061 1.61107 0
M  V30 5121 H 481.394 -3.07496 2.63112 0
M  V30 5122 H 479.964 -2.65056 1.65723 0
M  V30 5123 H 479.184 -1.27747 3.72927 0
M  V30 5124 H 480.472 -2.08409 4.64158 0
M  V30 5125 H 479.87 -4.8026 2.98942 0
M  V30 5126 H 478.427 -5.32083 3.76472 0
M  V30 5127 N 481.861 -1.55662 -0.24637 0
M  V30 5128 C 483.089 -1.81575 -0.991876 0
M  V30 5129 C 483.504 -0.602545 -1.78927 0
M  V30 5130 O 482.861 0.428795 -1.77391 0
M  V30 5131 C 482.912 -3.05711 -1.92933 0
M  V30 5132 O 482.633 -4.22348 -1.1642 0
M  V30 5133 C 484.134 -3.44428 -2.79078 0
M  V30 5134 H 481.354 -0.604209 -0.291844 0
M  V30 5135 H 483.898 -2.02722 -0.269095 0
M  V30 5136 H 482.053 -2.86612 -2.60638 0
M  V30 5137 H 482.467 -4.92706 -1.79835 0
M  V30 5138 H 483.941 -4.34388 -3.40603 0
M  V30 5139 H 484.418 -2.65037 -3.50217 0
M  V30 5140 H 485.024 -3.65879 -2.16824 0
M  V30 5141 N 483.339 0.512053 -1.4905 0
M  V30 5142 C 484.75 1.09376 -1.51307 0
M  V30 5143 C 485.101 1.94 -0.292971 0
M  V30 5144 O 484.226 2.07965 0.598277 0
M  V30 5145 C 484.821 1.99031 -2.74176 0
M  V30 5146 C 483.38 2.52385 -2.79247 0
M  V30 5147 C 482.527 1.29749 -2.45073 0
M  V30 5148 H 485.478 0.296467 -1.55906 0
M  V30 5149 H 485.499 2.83569 -2.53711 0
M  V30 5150 H 485.011 1.37412 -3.62959 0
M  V30 5151 H 483.112 3.17673 -1.94716 0
M  V30 5152 H 483.225 2.90293 -3.81139 0
M  V30 5153 H 481.589 1.61912 -1.96612 0
M  V30 5154 H 482.372 0.698555 -3.36118 0
M  V30 5155 N 484.817 1.37938 0.762283 0
M  V30 5156 C 485.765 1.34569 1.89721 0
M  V30 5157 C 486.759 0.232929 1.67791 0
M  V30 5158 O 487.965 0.401485 1.75465 0
M  V30 5159 H 484.34 0.419594 0.624055 0
M  V30 5160 H 486.311 2.30357 1.8968 0
M  V30 5161 C 485.06 1.17898 3.27101 0
M  V30 5162 H 484.383 2.02781 3.44558 0
M  V30 5163 H 485.823 1.19593 4.06784 0
M  V30 5164 C 484.282 -0.114728 3.36705 0
M  V30 5165 O 484.812 -1.0949 3.8649 0
M  V30 5166 N 483.018 -0.16863 2.9011 0
M  V30 5167 H 482.565 0.62967 2.49786 0
M  V30 5168 H 482.523 -1.03383 2.96916 0
M  V30 5169 N 486.295 -0.989507 1.22664 0
M  V30 5170 C 487.711 -1.25395 0.987331 0
M  V30 5171 C 487.911 -1.9899 -0.317056 0
M  V30 5172 O 486.967 -2.30141 -1.03882 0
M  V30 5173 C 488.28 -2.06242 2.18826 0
M  V30 5174 C 489.828 -2.19413 2.23219 0
M  V30 5175 C 490.303 -3.03648 3.42873 0
M  V30 5176 N 491.794 -3.11234 3.43056 0
M  V30 5177 C 492.529 -3.7671 4.32293 0
M  V30 5178 N 492.025 -4.44085 5.31752 0
M  V30 5179 N 493.818 -3.73505 4.2006 0
M  V30 5180 H 485.969 -0.496212 2.06522 0
M  V30 5181 H 488.232 -0.281784 0.905153 0
M  V30 5182 H 487.938 -1.59531 3.13437 0
M  V30 5183 H 487.812 -3.06996 2.19165 0
M  V30 5184 H 490.199 -2.65336 1.29154 0
M  V30 5185 H 490.28 -1.18078 2.26917 0
M  V30 5186 H 489.924 -2.58424 4.37241 0
M  V30 5187 H 489.854 -4.05132 3.36416 0
M  V30 5188 H 492.345 -2.63287 2.71088 0
M  V30 5189 H 492.658 -4.91797 5.96117 0
M  V30 5190 H 491.003 -4.42822 5.35662 0
M  V30 5191 H 494.194 -3.20033 3.41609 0
M  V30 5192 H 494.367 -4.24253 4.8981 0
M  V30 5193 N 487.773 -1.03688 -1.18687 0
M  V30 5194 C 488.72 -0.624624 -2.22187 0
M  V30 5195 C 489.69 0.365636 -1.62026 0
M  V30 5196 O 490.875 0.260481 -1.89014 0
M  V30 5197 C 488.015 0.0101738 -3.45099 0
M  V30 5198 C 487.128 -1.02709 -4.19613 0
M  V30 5199 C 486.263 -0.361213 -5.2997 0
M  V30 5200 C 485.302 -1.38384 -5.96252 0
M  V30 5201 N 484.439 -0.743196 -6.98155 0
M  V30 5202 H 489.279 -1.51176 -2.56807 0
M  V30 5203 H 486.816 -0.75636 -1.26165 0
M  V30 5204 H 488.774 0.395528 -4.15321 0
M  V30 5205 H 487.404 0.860848 -3.1111 0
M  V30 5206 H 486.456 -1.53043 -3.48256 0
M  V30 5207 H 487.768 -1.80398 -4.65036 0
M  V30 5208 H 486.922 0.0785537 -6.06649 0
M  V30 5209 H 485.661 0.447799 -4.8564 0
M  V30 5210 H 484.666 -1.83378 -5.18317 0
M  V30 5211 H 485.891 -2.19448 -6.42666 0
M  V30 5212 H 483.837 0.0455789 -6.55984 0
M  V30 5213 H 483.754 -1.45784 -7.41811 0
M  V30 5214 H 485.022 -0.327698 -7.78811 0
M  V30 5215 N 489.251 1.34841 -0.815825 0
M  V30 5216 C 490.161 2.33425 -0.234462 0
M  V30 5217 C 491.177 1.62295 0.627413 0
M  V30 5218 O 492.353 1.94109 0.536987 0
M  V30 5219 C 489.418 3.41471 0.599849 0
M  V30 5220 C 488.479 4.28362 -0.283596 0
M  V30 5221 C 487.712 5.31248 0.51099 0
M  V30 5222 O 487.935 5.43056 1.7449 0
M  V30 5223 O 486.869 6.01812 -0.10297 0
M  V30 5224 H 490.695 2.84962 -1.05024 0
M  V30 5225 H 488.28 1.37774 -0.577809 0
M  V30 5226 H 490.162 4.07464 1.07475 0
M  V30 5227 H 488.837 2.9219 1.39308 0
M  V30 5228 H 487.744 3.65318 -0.805836 0
M  V30 5229 H 489.077 4.81066 -1.041 0
M  V30 5230 N 490.729 0.570148 1.46925 0
M  V30 5231 C 491.975 0.0593124 2.03314 0
M  V30 5232 C 492.33 -1.28139 1.43521 0
M  V30 5233 O 491.623 -1.82411 0.586245 0
M  V30 5234 C 491.817 -0.0780336 3.57315 0
M  V30 5235 C 491.646 1.2478 4.32042 0
M  V30 5236 C 490.416 1.81859 4.7144 0
M  V30 5237 C 492.614 2.16808 4.66368 0
M  V30 5238 N 490.596 3.08313 5.30864 0
M  V30 5239 C 491.967 3.27845 5.2623 0
M  V30 5240 C 494.022 2.16643 4.48297 0
M  V30 5241 C 492.725 4.38832 5.69929 0
M  V30 5242 C 494.751 3.26652 4.93004 0
M  V30 5243 C 494.113 4.36408 5.52926 0
M  V30 5244 H 490.212 0.0641804 0.779362 0
M  V30 5245 H 492.796 0.760285 1.79242 0
M  V30 5246 H 490.967 -0.748151 3.81126 0
M  V30 5247 H 492.699 -0.59211 4.00345 0
M  V30 5248 H 489.454 1.35502 4.53802 0
M  V30 5249 H 489.878 3.72802 5.65108 0
M  V30 5250 H 494.52 1.33065 4.01315 0
M  V30 5251 H 492.238 5.23162 6.15896 0
M  V30 5252 H 495.824 3.27627 4.80782 0
M  V30 5253 H 494.704 5.20127 5.86888 0
M  V30 5254 N 492.207 -1.54576 0.307264 0
M  V30 5255 C 493.453 -2.0056 -0.300612 0
M  V30 5256 C 493.786 -1.1953 -1.53057 0
M  V30 5257 O 493.061 -0.27337 -1.92569 0
M  V30 5258 C 493.344 -3.54167 -0.650987 0
M  V30 5259 C 493.197 -4.45933 0.588539 0
M  V30 5260 C 494.516 -4.14645 -1.47506 0
M  V30 5261 H 491.635 -0.729075 -0.107788 0
M  V30 5262 H 494.277 -1.85286 0.420606 0
M  V30 5263 H 492.427 -3.67313 -1.26544 0
M  V30 5264 H 494.099 -4.44683 1.22697 0
M  V30 5265 H 492.342 -4.16274 1.22058 0
M  V30 5266 H 493.013 -5.51189 0.299153 0
M  V30 5267 H 495.489 -4.04973 -0.955821 0
M  V30 5268 H 494.365 -5.22269 -1.68899 0
M  V30 5269 H 494.626 -3.66921 -2.4662 0
M  V30 5270 N 493.685 -0.035106 -1.57561 0
M  V30 5271 C 494.913 0.652258 -1.9635 0
M  V30 5272 C 495.328 1.65317 -0.911897 0
M  V30 5273 O 494.685 1.82194 0.105657 0
M  V30 5274 C 494.736 1.35337 -3.35211 0
M  V30 5275 O 494.457 0.392548 -4.36338 0
M  V30 5276 C 495.958 2.13199 -3.88666 0
M  V30 5277 H 493.178 0.179444 -0.646561 0
M  V30 5278 H 495.722 -0.0966459 -2.04271 0
M  V30 5279 H 493.877 2.05362 -3.28489 0
M  V30 5280 H 494.291 0.891097 -5.16875 0
M  V30 5281 H 495.765 2.577 -4.88154 0
M  V30 5282 H 496.242 2.97353 -3.23231 0
M  V30 5283 H 496.848 1.48118 -3.98674 0
M  V30 5284 N 495.163 1.55791 0.238111 0
M  V30 5285 C 496.574 1.68383 0.806472 0
M  V30 5286 C 496.925 0.634157 1.85669 0
M  V30 5287 O 496.05 -0.217913 2.153 0
M  V30 5288 C 496.645 3.05268 1.46959 0
M  V30 5289 C 495.204 3.1977 1.98555 0
M  V30 5290 C 494.351 2.64279 0.839763 0
M  V30 5291 H 497.302 1.58694 0.0137535 0
M  V30 5292 H 497.323 3.00203 2.33792 0
M  V30 5293 H 496.835 3.81643 0.704993 0
M  V30 5294 H 494.936 2.48234 2.77868 0
M  V30 5295 H 495.049 4.26788 2.17689 0
M  V30 5296 H 493.413 2.22329 1.24265 0
M  V30 5297 H 494.196 3.43187 0.0881032 0
M  V30 5298 N 496.642 -0.504142 1.49319 0
M  V30 5299 C 497.589 -1.60603 1.65756 0
M  V30 5300 C 498.559 -1.58425 0.499082 0
M  V30 5301 O 499.744 -1.76459 0.725728 0
M  V30 5302 C 496.884 -2.98764 1.72726 0
M  V30 5303 C 495.997 -3.10982 2.99857 0
M  V30 5304 C 495.132 -4.39857 2.97824 0
M  V30 5305 C 494.171 -4.45697 4.19548 0
M  V30 5306 N 493.308 -5.65995 4.15444 0
M  V30 5307 H 498.148 -1.45895 2.59843 0
M  V30 5308 H 495.685 -0.709891 1.28837 0
M  V30 5309 H 497.643 -3.78839 1.74747 0
M  V30 5310 H 496.273 -3.12183 0.821075 0
M  V30 5311 H 495.325 -2.23991 3.07461 0
M  V30 5312 H 496.637 -3.11157 3.89849 0
M  V30 5313 H 495.791 -5.2825 2.98391 0
M  V30 5314 H 494.53 -4.42242 2.05604 0
M  V30 5315 H 493.535 -3.55707 4.19229 0
M  V30 5316 H 494.76 -4.4503 5.12957 0
M  V30 5317 H 492.706 -5.69229 3.26059 0
M  V30 5318 H 492.623 -5.67773 4.99169 0
M  V30 5319 H 493.891 -6.56604 4.20109 0
M  V30 5320 N 498.12 -1.38341 -0.754957 0
M  V30 5321 C 499.03 -1.3769 -1.89944 0
M  V30 5322 C 500.046 -0.274194 -1.71826 0
M  V30 5323 O 501.222 -0.512391 -1.94773 0
M  V30 5324 C 498.287 -1.19938 -3.25293 0
M  V30 5325 C 497.348 -2.40001 -3.55946 0
M  V30 5326 C 496.581 -2.23087 -4.84838 0
M  V30 5327 O 496.804 -1.22386 -5.57116 0
M  V30 5328 O 495.738 -3.11646 -5.14937 0
M  V30 5329 H 499.564 -2.3412 -1.93446 0
M  V30 5330 H 497.149 -1.19246 -0.900044 0
M  V30 5331 H 499.031 -1.12093 -4.06218 0
M  V30 5332 H 497.706 -0.265919 -3.22606 0
M  V30 5333 H 496.613 -2.53421 -2.75188 0
M  V30 5334 H 497.946 -3.31973 -3.63394 0
M  V30 5335 N 499.598 0.982988 -1.23187 0
M  V30 5336 C 500.845 1.72392 -1.06241 0
M  V30 5337 C 501.173 1.9032 0.40108 0
M  V30 5338 O 500.428 1.45084 1.31336 0
M  V30 5339 C 500.727 3.12736 -1.73006 0
M  V30 5340 C 500.393 3.14695 -3.22921 0
M  V30 5341 C 499.055 3.14937 -3.63824 0
M  V30 5342 C 501.407 3.10211 -4.1883 0
M  V30 5343 C 498.735 3.08408 -4.99101 0
M  V30 5344 C 501.087 3.05224 -5.54095 0
M  V30 5345 C 499.751 3.03787 -5.94365 0
M  V30 5346 H 499.021 0.630829 -0.388762 0
M  V30 5347 H 501.668 1.15053 -1.53085 0
M  V30 5348 H 499.973 3.73446 -1.18514 0
M  V30 5349 H 501.67 3.68828 -1.57374 0
M  V30 5350 H 498.26 3.15262 -2.90358 0
M  V30 5351 H 502.444 3.09166 -3.8824 0
M  V30 5352 H 497.7 3.05646 -5.29519 0
M  V30 5353 H 501.874 3.00712 -6.28128 0
M  V30 5354 H 499.501 2.98483 -6.99151 0
M  V30 5355 N 501.076 1.04316 1.18135 0
M  V30 5356 C 502.492 0.762858 1.40188 0
M  V30 5357 C 502.692 -0.646547 1.90846 0
M  V30 5358 O 501.748 -1.41036 2.0944 0
M  V30 5359 C 503.061 1.81106 2.40044 0
M  V30 5360 C 504.609 1.83226 2.53766 0
M  V30 5361 C 505.084 2.87044 3.56889 0
M  V30 5362 N 506.575 2.85951 3.64398 0
M  V30 5363 C 507.31 3.62932 4.43923 0
M  V30 5364 N 506.806 4.49672 5.27036 0
M  V30 5365 N 508.599 3.51411 4.38711 0
M  V30 5366 H 500.75 1.95264 0.835805 0
M  V30 5367 H 503.013 0.845017 0.429709 0
M  V30 5368 H 502.719 2.82214 2.09876 0
M  V30 5369 H 502.593 1.64529 3.39426 0
M  V30 5370 H 504.98 0.827869 2.8325 0
M  V30 5371 H 505.061 2.03879 1.54489 0
M  V30 5372 H 504.705 3.87663 3.28145 0
M  V30 5373 H 504.635 2.63645 4.5585 0
M  V30 5374 H 507.126 2.23051 3.05052 0
M  V30 5375 H 507.439 5.05116 5.84874 0
M  V30 5376 H 505.784 4.53738 5.26447 0
M  V30 5377 H 508.975 2.83047 3.72829 0
M  V30 5378 H 509.148 4.11654 5.00445 0
M  V30 5379 N 502.554 -1.34406 0.822964 0
M  V30 5380 C 503.464 -2.33298 0.246838 0
M  V30 5381 C 504.48 -1.62625 -0.618797 0
M  V30 5382 O 505.656 -1.94391 -0.526685 0
M  V30 5383 C 502.721 -3.41785 -0.581731 0
M  V30 5384 C 501.782 -4.28206 0.306309 0
M  V30 5385 C 501.015 -5.31512 -0.48281 0
M  V30 5386 O 501.238 -5.43973 -1.71607 0
M  V30 5387 O 500.172 -6.01749 0.134884 0
M  V30 5388 H 503.998 -2.84401 1.06534 0
M  V30 5389 H 501.583 -1.37466 0.585108 0
M  V30 5390 H 503.465 -4.08028 -1.05313 0
M  V30 5391 H 502.14 -2.92925 -1.37756 0
M  V30 5392 H 501.047 -3.64885 0.825199 0
M  V30 5393 H 502.38 -4.80507 1.06649 0
M  V30 5394 N 504.032 -0.577932 -1.46621 0
M  V30 5395 C 505.281 -0.0594281 -2.01612 0
M  V30 5396 C 505.594 1.30663 -1.45556 0
M  V30 5397 O 506.8 1.91621 -1.92337 0
M  V30 5398 C 505.256 -0.0556666 -3.59857 0
M  V30 5399 C 504.864 -1.41975 -4.24908 0
M  V30 5400 C 506.608 0.409143 -4.22524 0
M  V30 5401 C 504.515 -1.37397 -5.75218 0
M  V30 5402 H 503.445 -0.0184469 -0.753774 0
M  V30 5403 H 506.096 -0.728869 -1.68404 0
M  V30 5404 H 504.478 0.679843 -3.90121 0
M  V30 5405 H 505.652 -2.17461 -4.0626 0
M  V30 5406 H 503.967 -1.82419 -3.74316 0
M  V30 5407 H 506.564 0.46211 -5.32699 0
M  V30 5408 H 506.907 1.42565 -3.91128 0
M  V30 5409 H 507.44 -0.272152 -3.96868 0
M  V30 5410 H 504.179 -2.36714 -6.11267 0
M  V30 5411 H 503.699 -0.661239 -5.96144 0
M  V30 5412 H 505.378 -1.08484 -6.3784 0
M  V30 5413 N 505.51 1.54411 -0.315457 0
M  V30 5414 C 506.735 2.05299 0.294496 0
M  V30 5415 C 507.16 1.19052 1.4563 0
M  V30 5416 O 506.518 0.197804 1.80218 0
M  V30 5417 C 506.566 3.5345 0.714549 0
M  V30 5418 O 505.67 3.70175 1.81781 0
M  V30 5419 H 505.011 0.661743 0.0547019 0
M  V30 5420 H 507.541 1.99327 -0.461508 0
M  V30 5421 H 507.551 3.9557 0.999426 0
M  V30 5422 H 506.226 4.1568 -0.135244 0
M  V30 5423 H 504.803 3.3996 1.53236 0
M  V30 5424 N 506.988 0.0434614 1.5754 0
M  V30 5425 C 508.218 -0.640905 1.96408 0
M  V30 5426 C 508.626 -1.65365 0.919297 0
M  V30 5427 O 507.969 -1.83395 -0.105795 0
M  V30 5428 C 508.031 -1.39141 3.31482 0
M  V30 5429 C 507.695 -0.535375 4.53853 0
M  V30 5430 C 508.692 0.195335 5.19533 0
M  V30 5431 C 506.377 -0.468564 5.0011 0
M  V30 5432 C 508.371 0.981377 6.298 0
M  V30 5433 C 506.058 0.321171 6.10255 0
M  V30 5434 C 507.056 1.04484 6.74961 0
M  V30 5435 O 506.744 1.8216 7.8299 0
M  V30 5436 H 506.476 -0.180584 0.651433 0
M  V30 5437 H 509.03 0.103848 2.05137 0
M  V30 5438 H 507.26 -2.18162 3.19284 0
M  V30 5439 H 508.949 -1.96526 3.55151 0
M  V30 5440 H 509.715 0.15314 4.84758 0
M  V30 5441 H 505.594 -1.02142 4.49542 0
M  V30 5442 H 509.138 1.54674 6.80237 0
M  V30 5443 H 505.035 0.365032 6.44467 0
M  V30 5444 H 505.803 1.74289 7.99728 0
M  V30 5445 N 508.466 -1.55915 -0.229846 0
M  V30 5446 C 509.396 -1.94754 -1.28815 0
M  V30 5447 C 510.377 -0.814657 -1.49323 0
M  V30 5448 O 511.562 -1.07631 -1.61645 0
M  V30 5449 C 508.692 -2.25705 -2.63959 0
M  V30 5450 C 507.646 -3.41406 -2.5812 0
M  V30 5451 C 506.972 -3.57941 -3.97218 0
M  V30 5452 C 508.272 -4.76616 -2.13623 0
M  V30 5453 H 509.966 -2.83404 -0.965547 0
M  V30 5454 H 507.512 -1.36353 -0.463028 0
M  V30 5455 H 509.465 -2.51467 -3.38146 0
M  V30 5456 H 508.189 -1.339 -2.9789 0
M  V30 5457 H 506.848 -3.1568 -1.86391 0
M  V30 5458 H 506.496 -2.63526 -4.28443 0
M  V30 5459 H 506.196 -4.35757 -3.94195 0
M  V30 5460 H 507.72 -3.86042 -4.73079 0
M  V30 5461 H 509.134 -5.01637 -2.77549 0
M  V30 5462 H 507.531 -5.57655 -2.21677 0
M  V30 5463 H 508.601 -4.7253 -1.08829 0
M  V30 5464 N 509.944 0.496216 -1.49584 0
M  V30 5465 C 510.891 1.59722 -1.66606 0
M  V30 5466 C 511.861 1.58158 -0.507477 0
M  V30 5467 O 513.046 1.76072 -0.735076 0
M  V30 5468 C 510.186 2.97844 -1.74308 0
M  V30 5469 C 509.299 3.09388 -3.01502 0
M  V30 5470 C 508.434 4.38271 -3.00153 0
M  V30 5471 C 507.473 4.43466 -4.21906 0
M  V30 5472 N 506.61 5.63784 -4.1844 0
M  V30 5473 H 511.45 1.44515 -2.60613 0
M  V30 5474 H 508.987 0.703048 -1.29212 0
M  V30 5475 H 510.945 3.77907 -1.76754 0
M  V30 5476 H 509.575 3.11743 -0.837619 0
M  V30 5477 H 508.627 2.22357 -3.08645 0
M  V30 5478 H 509.939 3.09085 -3.91494 0
M  V30 5479 H 509.093 5.2666 -3.01188 0
M  V30 5480 H 507.832 4.41146 -2.07947 0
M  V30 5481 H 506.837 3.53478 -4.21109 0
M  V30 5482 H 508.062 4.42303 -5.1531 0
M  V30 5483 H 506.008 5.67491 -3.29074 0
M  V30 5484 H 505.925 5.65118 -5.02173 0
M  V30 5485 H 507.193 6.54367 -4.23585 0
M  V30 5486 N 511.423 1.38739 0.74761 0
M  V30 5487 C 512.37 1.36449 1.86146 0
M  V30 5488 C 513.34 0.226098 1.64554 0
M  V30 5489 O 514.525 0.41926 1.86137 0
M  V30 5490 C 511.665 1.2013 3.23516 0
M  V30 5491 C 510.778 2.43407 3.56899 0
M  V30 5492 C 509.913 2.19773 4.83605 0
M  V30 5493 C 508.952 3.3879 5.09792 0
M  V30 5494 N 508.089 3.14553 6.27695 0
M  V30 5495 H 512.929 2.3167 1.87438 0
M  V30 5496 H 510.466 1.15094 0.916063 0
M  V30 5497 H 512.424 1.08683 4.02795 0
M  V30 5498 H 511.054 0.285453 3.21535 0
M  V30 5499 H 510.106 2.65504 2.72418 0
M  V30 5500 H 511.418 3.32094 3.72176 0
M  V30 5501 H 510.572 2.05496 5.70838 0
M  V30 5502 H 509.311 1.28461 4.70478 0
M  V30 5503 H 508.316 3.53579 4.21025 0
M  V30 5504 H 509.541 4.30986 5.24812 0
M  V30 5505 H 507.487 2.25893 6.1588 0
M  V30 5506 H 507.404 3.96791 6.435 0
M  V30 5507 H 508.672 3.03943 7.17801 0
M  V30 5508 N 512.901 -0.976442 1.23707 0
M  V30 5509 C 513.831 -2.08749 1.04624 0
M  V30 5510 C 514.812 -1.70057 -0.0380956 0
M  V30 5511 O 515.997 -1.93782 0.127308 0
M  V30 5512 C 513.127 -3.41335 0.640902 0
M  V30 5513 C 512.081 -3.93947 1.67302 0
M  V30 5514 C 511.407 -5.22774 1.12301 0
M  V30 5515 C 512.707 -4.22769 3.06697 0
M  V30 5516 H 514.401 -2.24972 1.97555 0
M  V30 5517 H 511.947 -1.08108 0.951247 0
M  V30 5518 H 513.9 -4.18489 0.494434 0
M  V30 5519 H 512.624 -3.24988 -0.324099 0
M  V30 5520 H 511.283 -3.18941 1.80755 0
M  V30 5521 H 510.931 -5.0278 0.148877 0
M  V30 5522 H 510.631 -5.58942 1.81267 0
M  V30 5523 H 512.155 -6.02546 0.988479 0
M  V30 5524 H 513.569 -4.90659 2.96524 0
M  V30 5525 H 511.966 -4.70147 3.72937 0
M  V30 5526 H 513.036 -3.29885 3.55392 0
M  V30 5527 N 514.379 -1.04941 -1.1758 0
M  V30 5528 C 515.326 -0.648155 -2.21512 0
M  V30 5529 C 516.296 0.348431 -1.62404 0
M  V30 5530 O 517.481 0.240419 -1.89279 0
M  V30 5531 C 514.621 -0.0264291 -3.4509 0
M  V30 5532 C 513.734 -1.07154 -4.185 0
M  V30 5533 C 512.869 -0.417403 -5.29558 0
M  V30 5534 C 511.908 -1.447 -5.94751 0
M  V30 5535 N 511.045 -0.817203 -6.97328 0
M  V30 5536 H 515.885 -1.53891 -2.55189 0
M  V30 5537 H 513.422 -0.769699 -1.25356 0
M  V30 5538 H 515.38 0.351456 -4.15717 0
M  V30 5539 H 514.01 0.827802 -3.12005 0
M  V30 5540 H 513.062 -1.56728 -3.46613 0
M  V30 5541 H 514.374 -1.8532 -4.63096 0
M  V30 5542 H 513.528 0.0142061 -6.06698 0
M  V30 5543 H 512.267 0.396265 -4.86087 0
M  V30 5544 H 511.272 -1.88865 -5.16343 0
M  V30 5545 H 512.497 -2.26252 -6.40302 0
M  V30 5546 H 510.443 -0.0239995 -6.55996 0
M  V30 5547 H 510.36 -1.53644 -7.40223 0
M  V30 5548 H 511.628 -0.410283 -7.7842 0
M  V30 5549 N 515.857 1.33968 -0.830081 0
M  V30 5550 C 517.103 1.98357 -0.422191 0
M  V30 5551 C 517.436 1.65633 1.01387 0
M  V30 5552 O 516.711 0.931648 1.70735 0
M  V30 5553 C 516.994 3.54492 -0.633043 0
M  V30 5554 C 516.847 3.96934 -2.11574 0
M  V30 5555 C 518.166 4.40039 -0.0735584 0
M  V30 5556 H 515.285 0.720544 -0.154871 0
M  V30 5557 H 517.927 1.58749 -1.04397 0
M  V30 5558 H 516.077 3.88361 -0.103775 0
M  V30 5559 H 517.749 3.73363 -2.7092 0
M  V30 5560 H 515.992 3.46984 -2.60354 0
M  V30 5561 H 516.663 5.05651 -2.21406 0
M  V30 5562 H 519.139 4.12764 -0.52585 0
M  V30 5563 H 518.015 5.48327 -0.250841 0
M  V30 5564 H 518.276 4.30124 1.02202 0
M  V30 5565 N 517.335 0.585699 1.46312 0
M  V30 5566 C 518.282 -0.145835 2.30339 0
M  V30 5567 C 519.252 -0.881215 1.40797 0
M  V30 5568 O 520.437 -0.871293 1.69744 0
M  V30 5569 C 517.577 -1.15161 3.25318 0
M  V30 5570 C 516.69 -0.419367 4.2996 0
M  V30 5571 C 515.825 -1.41293 5.12064 0
M  V30 5572 C 514.864 -0.667261 6.08452 0
M  V30 5573 N 514.001 -1.60903 6.83414 0
M  V30 5574 H 518.841 0.576755 2.92365 0
M  V30 5575 H 516.378 0.296237 1.44086 0
M  V30 5576 H 518.336 -1.74763 3.78832 0
M  V30 5577 H 516.966 -1.84188 2.65094 0
M  V30 5578 H 516.018 0.291751 3.7928 0
M  V30 5579 H 517.33 0.163433 4.98532 0
M  V30 5580 H 516.484 -2.08167 5.6987 0
M  V30 5581 H 515.223 -2.02966 4.43459 0
M  V30 5582 H 514.228 0.0152356 5.49798 0
M  V30 5583 H 515.453 -0.0558817 6.79077 0
M  V30 5584 H 513.399 -2.21381 6.17516 0
M  V30 5585 H 513.316 -1.07911 7.48259 0
M  V30 5586 H 514.584 -2.26802 7.45775 0
M  V30 5587 N 518.813 -1.54241 0.323641 0
M  V30 5588 C 519.76 -2.24339 -0.542277 0
M  V30 5589 C 520.73 -1.23421 -1.11159 0
M  V30 5590 O 521.915 -1.52104 -1.15192 0
M  V30 5591 C 519.055 -3.00479 -1.69725 0
M  V30 5592 C 518.168 -4.16214 -1.15716 0
M  V30 5593 C 517.303 -4.79884 -2.27783 0
M  V30 5594 C 516.342 -5.87722 -1.71023 0
M  V30 5595 N 515.479 -6.45254 -2.76752 0
M  V30 5596 H 520.319 -2.97935 0.0620613 0
M  V30 5597 H 517.856 -1.47039 0.0423993 0
M  V30 5598 H 519.814 -3.42869 -2.3769 0
M  V30 5599 H 518.444 -2.29217 -2.27288 0
M  V30 5600 H 517.496 -3.78605 -0.369063 0
M  V30 5601 H 518.808 -4.93838 -0.701832 0
M  V30 5602 H 517.962 -5.25243 -3.03651 0
M  V30 5603 H 516.701 -4.01641 -2.76652 0
M  V30 5604 H 515.706 -5.41765 -0.936518 0
M  V30 5605 H 516.931 -6.67863 -1.2303 0
M  V30 5606 H 514.877 -5.69884 -3.24912 0
M  V30 5607 H 514.794 -7.18292 -2.35782 0
M  V30 5608 H 516.062 -6.95269 -3.5245 0
M  V30 5609 N 520.291 -0.0518155 -1.57515 0
M  V30 5610 C 521.223 0.951542 -2.08515 0
M  V30 5611 C 522.236 1.27436 -1.01311 0
M  V30 5612 O 523.425 1.23504 -1.28876 0
M  V30 5613 C 520.525 2.27291 -2.5138 0
M  V30 5614 C 519.698 2.13191 -3.81927 0
M  V30 5615 C 518.757 3.28458 -4.11098 0
M  V30 5616 O 517.783 3.04334 -4.81009 0
M  V30 5617 N 518.985 4.52954 -3.63061 0
M  V30 5618 H 521.75 0.516242 -2.9522 0
M  V30 5619 H 519.311 0.13441 -1.61341 0
M  V30 5620 H 521.303 3.03272 -2.67971 0
M  V30 5621 H 519.873 2.62386 -1.69919 0
M  V30 5622 H 519.093 1.21798 -3.74912 0
M  V30 5623 H 520.381 2.00999 -4.67415 0
M  V30 5624 H 519.779 4.75444 -3.06545 0
M  V30 5625 H 518.336 5.26026 -3.84889 0
M  V30 5626 N 521.769 1.56035 0.221574 0
M  V30 5627 C 523.046 1.69837 0.970301 0
M  V30 5628 C 523.426 0.599065 2.02421 0
M  V30 5629 O 522.774 -0.393929 2.25079 0
M  V30 5630 C 522.984 3.11148 1.58076 0
M  V30 5631 C 524.332 3.70555 2.07302 0
M  V30 5632 O 525.356 3.14109 1.6797 0
M  V30 5633 O 524.215 4.69562 2.79596 0
M  V30 5634 H 521.309 0.691727 0.453257 0
M  V30 5635 H 523.855 1.68353 0.213358 0
M  V30 5636 H 522.627 3.82617 0.819759 0
M  V30 5637 H 522.25 3.16749 2.40324 0
M  V30 5638 N 523.247 -0.488276 1.49845 0
M  V30 5639 C 524.663 -0.820566 1.3689 0
M  V30 5640 C 524.863 -1.97248 0.411752 0
M  V30 5641 O 523.919 -2.52042 -0.151931 0
M  V30 5642 C 525.232 -1.1488 2.77891 0
M  V30 5643 C 526.78 -1.25626 2.86683 0
M  V30 5644 C 527.255 -1.61772 4.28479 0
M  V30 5645 N 528.746 -1.68797 4.31349 0
M  V30 5646 C 529.481 -1.98235 5.38043 0
M  V30 5647 N 528.977 -2.2581 6.54967 0
M  V30 5648 N 530.77 -1.99593 5.2547 0
M  V30 5649 H 522.921 0.271123 2.10662 0
M  V30 5650 H 525.184 0.058735 0.946179 0
M  V30 5651 H 524.89 -0.375614 3.49688 0
M  V30 5652 H 524.764 -2.08919 3.14058 0
M  V30 5653 H 527.151 -2.02014 2.15114 0
M  V30 5654 H 527.232 -0.296072 2.54081 0
M  V30 5655 H 526.876 -0.859295 5.00578 0
M  V30 5656 H 526.806 -2.58912 4.58554 0
M  V30 5657 H 529.297 -1.49595 3.4703 0
M  V30 5658 H 529.61 -2.47497 7.32096 0
M  V30 5659 H 527.955 -2.23239 6.58171 0
M  V30 5660 H 531.146 -1.77535 4.33127 0
M  V30 5661 H 531.319 -2.222 6.08713 0
M  V30 5662 N 524.725 -1.39134 -0.740242 0
M  V30 5663 C 525.974 -1.35384 -1.49512 0
M  V30 5664 C 526.287 0.04919 -1.95538 0
M  V30 5665 O 527.493 0.209257 -2.70692 0
M  V30 5666 C 525.949 -2.37812 -2.70136 0
M  V30 5667 C 525.557 -3.83804 -2.31081 0
M  V30 5668 C 527.301 -2.4313 -3.47977 0
M  V30 5669 C 525.208 -4.77886 -3.48395 0
M  V30 5670 H 524.138 -0.503297 -0.561434 0
M  V30 5671 H 526.789 -1.64754 -0.807974 0
M  V30 5672 H 525.171 -2.01505 -3.40899 0
M  V30 5673 H 526.345 -4.29123 -1.67898 0
M  V30 5674 H 524.66 -3.81732 -1.66343 0
M  V30 5675 H 527.257 -3.10614 -4.35228 0
M  V30 5676 H 527.6 -1.45423 -3.90074 0
M  V30 5677 H 528.133 -2.78304 -2.84239 0
M  V30 5678 H 524.872 -5.76836 -3.11353 0
M  V30 5679 H 524.392 -4.3725 -4.10576 0
M  V30 5680 H 526.071 -4.96538 -4.148 0
M  V30 5681 N 526.204 0.969867 -1.24223 0
M  V30 5682 C 527.451 1.71256 -1.08063 0
M  V30 5683 C 527.779 1.90734 0.380872 0
M  V30 5684 O 527.034 1.46469 1.29789 0
M  V30 5685 C 527.333 3.10883 -1.76314 0
M  V30 5686 C 526.999 3.11252 -3.26241 0
M  V30 5687 C 525.661 3.1106 -3.67144 0
M  V30 5688 C 528.013 3.05751 -4.22097 0
M  V30 5689 C 525.341 3.03097 -5.02344 0
M  V30 5690 C 527.693 2.9933 -5.57301 0
M  V30 5691 C 526.357 2.97466 -5.97554 0
M  V30 5692 H 525.627 0.62667 -0.395431 0
M  V30 5693 H 528.274 1.13422 -1.54297 0
M  V30 5694 H 526.579 3.72168 -1.22468 0
M  V30 5695 H 528.276 3.67138 -1.61277 0
M  V30 5696 H 524.866 3.12165 -2.93685 0
M  V30 5697 H 529.05 3.05031 -3.91497 0
M  V30 5698 H 524.306 3.00013 -5.32731 0
M  V30 5699 H 528.48 2.94033 -6.31283 0
M  V30 5700 H 526.107 2.91051 -7.02277 0
M  V30 5701 N 527.682 1.05563 1.17022 0
M  V30 5702 C 529.093 0.793475 1.69 0
M  V30 5703 C 529.444 -0.683882 1.83895 0
M  V30 5704 O 528.569 -1.53116 1.5292 0
M  V30 5705 C 529.164 1.43376 3.06967 0
M  V30 5706 C 527.723 1.21956 3.56095 0
M  V30 5707 C 526.87 1.51494 2.3226 0
M  V30 5708 H 529.821 1.22008 1.01487 0
M  V30 5709 H 529.842 0.845068 3.70997 0
M  V30 5710 H 529.354 2.50899 2.96093 0
M  V30 5711 H 527.455 0.163749 3.7224 0
M  V30 5712 H 527.568 1.92713 4.38633 0
M  V30 5713 H 525.932 0.935175 2.3691 0
M  V30 5714 H 526.715 2.60159 2.23992 0
M  V30 5715 N 529.16 -1.33526 0.837174 0
M  V30 5716 C 530.571 -1.80182 0.489017 0
M  V30 5717 C 530.922 -1.69285 -0.991826 0
M  V30 5718 O 530.047 -1.24113 -1.77271 0
M  V30 5719 C 530.642 -3.27149 0.880866 0
M  V30 5720 C 529.201 -3.71828 0.584872 0
M  V30 5721 C 528.348 -2.54974 1.09011 0
M  V30 5722 H 531.299 -1.21071 1.02603 0
M  V30 5723 H 531.32 -3.80024 0.190239 0
M  V30 5724 H 530.832 -3.35048 1.95869 0
M  V30 5725 H 528.933 -3.69457 -0.48295 0
M  V30 5726 H 529.046 -4.65366 1.13892 0
M  V30 5727 H 527.41 -2.4952 0.511047 0
M  V30 5728 H 528.193 -2.65637 2.17467 0
M  V30 5729 N 530.638 -0.59345 -1.46 0
M  V30 5730 C 531.548 0.135817 -2.34207 0
M  V30 5731 C 532.564 0.875008 -1.50398 0
M  V30 5732 O 533.74 0.835778 -1.83239 0
M  V30 5733 C 530.805 1.12977 -3.27776 0
M  V30 5734 C 529.866 0.394081 -4.27487 0
M  V30 5735 C 529.099 1.34068 -5.16586 0
M  V30 5736 O 529.322 2.5778 -5.08828 0
M  V30 5737 O 528.256 0.845426 -5.95933 0
M  V30 5738 H 532.082 -0.588691 -2.9794 0
M  V30 5739 H 529.667 -0.353784 -1.45151 0
M  V30 5740 H 531.549 1.70261 -3.85473 0
M  V30 5741 H 530.224 1.83556 -2.66625 0
M  V30 5742 H 529.131 -0.220869 -3.73447 0
M  V30 5743 H 530.464 -0.270939 -4.91454 0
M  V30 5744 N 532.116 1.54067 -0.331816 0
M  V30 5745 C 533.344 2.05131 0.269996 0
M  V30 5746 C 533.759 1.20749 1.45138 0
M  V30 5747 O 533.116 0.240069 1.80914 0
M  V30 5748 C 533.167 3.54728 0.696456 0
M  V30 5749 O 532.888 4.35906 -0.43794 0
M  V30 5750 C 534.389 4.21916 1.36021 0
M  V30 5751 H 531.609 0.668807 0.0542042 0
M  V30 5752 H 534.153 1.98777 -0.4804 0
M  V30 5753 H 532.308 3.61342 1.39681 0
M  V30 5754 H 532.722 5.24404 -0.100334 0
M  V30 5755 H 534.196 5.28015 1.60947 0
M  V30 5756 H 534.673 3.73538 2.31011 0
M  V30 5757 H 535.279 4.19463 0.702212 0
M  V30 5758 N 533.594 0.0601682 1.57485 0
M  V30 5759 C 534.819 -0.624416 1.97777 0
M  V30 5760 C 535.244 -1.63051 0.937867 0
M  V30 5761 O 534.602 -1.81036 -0.0978845 0
M  V30 5762 C 534.65 -1.27979 3.37126 0
M  V30 5763 O 533.754 -2.39556 3.35688 0
M  V30 5764 H 533.095 -0.161581 0.64404 0
M  V30 5765 H 535.625 0.131237 2.04179 0
M  V30 5766 H 535.635 -1.62937 3.74053 0
M  V30 5767 H 534.31 -0.542501 4.12347 0
M  V30 5768 H 532.887 -2.06478 3.10517 0
M  V30 5769 N 535.072 -1.5615 -0.213296 0
M  V30 5770 C 536.035 -1.92249 -1.24792 0
M  V30 5771 C 537.035 -0.801828 -1.39382 0
M  V30 5772 O 538.225 -1.06948 -1.37506 0
M  V30 5773 C 535.357 -2.18056 -2.62039 0
M  V30 5774 H 536.55 -2.84793 -0.939845 0
M  V30 5775 H 534.103 -1.49559 -0.454062 0
M  V30 5776 H 534.838 -1.2809 -2.97932 0
M  V30 5777 H 534.623 -2.99703 -2.52825 0
M  V30 5778 H 536.113 -2.47051 -3.36683 0
M  V30 5779 N 536.55 0.480323 -1.50102 0
M  V30 5780 C 537.775 1.26126 -1.64642 0
M  V30 5781 C 538.2 1.85257 -0.325823 0
M  V30 5782 O 537.558 1.66854 0.709194 0
M  V30 5783 C 537.606 2.35243 -2.73301 0
M  V30 5784 O 536.71 3.39646 -2.33911 0
M  V30 5785 H 536.051 0.371463 -0.550374 0
M  V30 5786 H 538.581 0.572696 -1.96421 0
M  V30 5787 H 538.591 2.80695 -2.96098 0
M  V30 5788 H 537.266 1.91574 -3.6915 0
M  V30 5789 H 535.843 2.99969 -2.21525 0
M  V30 5790 N 538.028 1.39524 0.732853 0
M  V30 5791 C 539.274 1.37068 1.49467 0
M  V30 5792 C 539.607 -0.0327166 1.94172 0
M  V30 5793 O 538.882 -0.998071 1.66939 0
M  V30 5794 C 539.165 2.34494 2.73285 0
M  V30 5795 C 539.018 3.83784 2.34585 0
M  V30 5796 C 540.337 2.29717 3.75391 0
M  V30 5797 H 537.456 0.499206 0.542183 0
M  V30 5798 H 540.098 1.70532 0.837783 0
M  V30 5799 H 538.248 2.06087 3.29333 0
M  V30 5800 H 539.92 4.22949 1.84151 0
M  V30 5801 H 538.163 4.00455 1.66787 0
M  V30 5802 H 538.834 4.47444 3.23262 0
M  V30 5803 H 541.31 2.54839 3.28932 0
M  V30 5804 H 540.186 2.99962 4.59689 0
M  V30 5805 H 540.447 1.30291 4.22465 0
M  V30 5806 N 539.506 -0.963266 1.24736 0
M  V30 5807 C 540.469 -2.04013 1.04457 0
M  V30 5808 C 541.469 -1.608 0.000335555 0
M  V30 5809 O 542.659 -1.72515 0.241719 0
M  V30 5810 C 539.791 -3.35858 0.584162 0
M  V30 5811 H 540.984 -2.23436 2.00041 0
M  V30 5812 H 538.537 -1.13914 1.07021 0
M  V30 5813 H 539.272 -3.22128 -0.374673 0
M  V30 5814 H 539.057 -3.68568 1.3379 0
M  V30 5815 H 540.547 -4.1502 0.463451 0
M  V30 5816 N 540.985 -1.06182 -1.16461 0
M  V30 5817 C 541.948 -0.675723 -2.19013 0
M  V30 5818 C 542.948 0.277963 -1.58379 0
M  V30 5819 O 544.138 0.0604962 -1.74095 0
M  V30 5820 C 541.27 0.00591459 -3.40899 0
M  V30 5821 H 542.463 -1.58353 -2.54685 0
M  V30 5822 H 540.016 -0.856908 -1.30716 0
M  V30 5823 H 540.751 0.92652 -3.10783 0
M  V30 5824 H 540.536 -0.67984 -3.86161 0
M  V30 5825 H 542.026 0.26181 -4.16778 0
M  V30 5826 N 542.463 1.3308 -0.844243 0
M  V30 5827 C 543.691 2.01808 -0.456203 0
M  V30 5828 C 544.106 1.63498 0.944131 0
M  V30 5829 O 543.463 0.85102 1.61443 0
M  V30 5830 C 543.514 3.56922 -0.573513 0
M  V30 5831 O 543.235 3.93851 -1.91868 0
M  V30 5832 C 544.736 4.42922 -0.183125 0
M  V30 5833 H 541.956 0.646273 -0.180477 0
M  V30 5834 H 544.5 1.69891 -1.1383 0
M  V30 5835 H 542.655 3.87352 0.0607367 0
M  V30 5836 H 543.069 4.88564 -1.90802 0
M  V30 5837 H 544.543 5.51093 -0.316241 0
M  V30 5838 H 545.02 4.30386 0.875477 0
M  V30 5839 H 545.626 4.1786 -0.792027 0
M  V30 5840 N 543.941 0.601185 1.45683 0
M  V30 5841 C 545.352 0.179659 1.85834 0
M  V30 5842 C 545.703 -1.26189 1.50236 0
M  V30 5843 O 544.828 -1.95587 0.925987 0
M  V30 5844 C 545.423 0.319277 3.37292 0
M  V30 5845 C 543.982 -0.0475092 3.7637 0
M  V30 5846 C 543.129 0.646692 2.69654 0
M  V30 5847 H 546.08 0.808268 1.36575 0
M  V30 5848 H 546.101 -0.4503 3.77826 0
M  V30 5849 H 545.613 1.36855 3.6317 0
M  V30 5850 H 543.714 -1.0962 3.5611 0
M  V30 5851 H 543.827 0.34168 4.7788 0
M  V30 5852 H 542.191 0.0849971 2.54558 0
M  V30 5853 H 542.974 1.69797 2.98369 0
M  V30 5854 N 545.419 -1.53889 0.339982 0
M  V30 5855 C 546.83 -1.86139 -0.144671 0
M  V30 5856 C 547.181 -1.2613 -1.50285 0
M  V30 5857 O 546.306 -0.573515 -2.08662 0
M  V30 5858 C 546.901 -3.37728 -0.269285 0
M  V30 5859 C 545.46 -3.69868 -0.698168 0
M  V30 5860 C 544.607 -2.76777 0.170249 0
M  V30 5861 H 547.558 -1.48503 0.559704 0
M  V30 5862 H 547.579 -3.64331 -1.0974 0
M  V30 5863 H 547.091 -3.81375 0.719366 0
M  V30 5864 H 545.192 -3.31764 -1.69597 0
M  V30 5865 H 545.305 -4.76582 -0.490533 0
M  V30 5866 H 543.669 -2.52188 -0.356844 0
M  V30 5867 H 544.452 -3.23253 1.15597 0
M  V30 5868 N 546.897 -0.0685191 -1.57451 0
M  V30 5869 C 548.308 0.464634 -1.80826 0
M  V30 5870 C 548.659 1.69847 -0.982169 0
M  V30 5871 O 547.784 2.15439 -0.203734 0
M  V30 5872 C 548.379 0.849721 -3.27971 0
M  V30 5873 C 546.938 1.32776 -3.52204 0
M  V30 5874 C 546.085 0.311332 -2.75547 0
M  V30 5875 H 549.036 -0.294248 -1.55948 0
M  V30 5876 H 549.057 1.71138 -3.39841 0
M  V30 5877 H 548.569 -0.0484736 -3.8807 0
M  V30 5878 H 546.67 2.24456 -2.97406 0
M  V30 5879 H 546.783 1.30794 -4.60901 0
M  V30 5880 H 545.147 0.787915 -2.42206 0
M  V30 5881 H 545.93 -0.579078 -3.38381 0
M  V30 5882 N 548.375 1.56261 0.205012 0
M  V30 5883 C 549.6 1.84491 0.947512 0
M  V30 5884 C 550.025 0.650894 1.76479 0
M  V30 5885 O 549.383 -0.40035 1.76824 0
M  V30 5886 C 549.431 3.10863 1.82747 0
M  V30 5887 O 548.535 2.90719 2.925 0
M  V30 5888 H 547.876 0.607783 0.267386 0
M  V30 5889 H 550.406 2.03485 0.213323 0
M  V30 5890 H 550.416 3.41399 2.23407 0
M  V30 5891 H 549.091 3.97392 1.2269 0
M  V30 5892 H 547.668 2.71457 2.55667 0
M  V30 5893 N 549.853 -0.472356 1.50355 0
M  V30 5894 C 551.081 -1.24784 1.65035 0
M  V30 5895 C 551.496 -1.85837 0.333176 0
M  V30 5896 O 550.853 -1.69168 -0.68472 0
M  V30 5897 C 550.904 -2.35747 2.74054 0
M  V30 5898 O 550.625 -1.77197 4.00665 0
M  V30 5899 C 552.126 -3.26645 2.99696 0
M  V30 5900 H 549.346 -0.377432 0.554785 0
M  V30 5901 H 551.89 -0.563962 1.9657 0
M  V30 5902 H 550.045 -2.99912 2.45217 0
M  V30 5903 H 550.459 -2.5026 4.60945 0
M  V30 5904 H 551.933 -4.00718 3.79644 0
M  V30 5905 H 552.41 -3.8535 2.10718 0
M  V30 5906 H 553.016 -2.68218 3.3006 0
M  V30 5907 N 551.331 -1.39911 -0.725443 0
M  V30 5908 C 552.294 -1.39156 -1.82121 0
M  V30 5909 C 553.294 -0.287018 -1.58218 0
M  V30 5910 O 554.484 -0.545421 -1.65441 0
M  V30 5911 C 551.616 -1.1736 -3.20062 0
M  V30 5912 H 552.809 -2.36672 -1.84191 0
M  V30 5913 H 550.362 -1.25615 -0.930079 0
M  V30 5914 H 551.097 -0.205648 -3.23647 0
M  V30 5915 H 550.882 -1.97358 -3.3881 0
M  V30 5916 H 552.372 -1.19596 -4.00108 0
M  V30 5917 N 552.809 0.956637 -1.25245 0
M  V30 5918 C 554.034 1.74104 -1.12706 0
M  V30 5919 C 554.459 1.85436 0.315429 0
M  V30 5920 O 553.817 1.33334 1.22848 0
M  V30 5921 C 553.865 3.1338 -1.78396 0
M  V30 5922 O 552.969 3.98485 -1.06224 0
M  V30 5923 H 552.31 0.53476 -0.393609 0
M  V30 5924 H 554.84 1.19924 -1.65769 0
M  V30 5925 H 554.85 3.6385 -1.846 0
M  V30 5926 H 553.525 3.04448 -2.83345 0
M  V30 5927 H 552.102 3.56952 -1.07886 0
M  V30 5928 N 554.287 1.06798 1.15896 0
M  V30 5929 C 555.25 0.687328 2.18651 0
M  V30 5930 C 556.25 -0.269559 1.58524 0
M  V30 5931 O 557.44 -0.0512627 1.74125 0
M  V30 5932 C 554.572 0.0121642 3.40898 0
M  V30 5933 H 555.765 1.59701 2.53842 0
M  V30 5934 H 553.318 0.863828 1.3026 0
M  V30 5935 H 554.053 -0.910025 3.1127 0
M  V30 5936 H 553.838 0.700309 3.85795 0
M  V30 5937 H 555.328 -0.239703 4.16911 0
M  V30 5938 N 555.766 -1.3263 0.851289 0
M  V30 5939 C 557.177 -1.79653 0.5081 0
M  V30 5940 C 557.528 -1.70327 -0.973815 0
M  V30 5941 O 556.653 -1.25986 -1.75944 0
M  V30 5942 C 557.248 -3.26196 0.915515 0
M  V30 5943 C 555.807 -3.71187 0.624277 0
M  V30 5944 C 554.954 -2.53804 1.11709 0
M  V30 5945 H 557.905 -1.19976 1.03882 0
M  V30 5946 H 557.926 -3.79801 0.230535 0
M  V30 5947 H 557.438 -3.32952 1.99411 0
M  V30 5948 H 555.539 -3.69948 -0.443737 0
M  V30 5949 H 555.652 -4.64132 1.18821 0
M  V30 5950 H 554.016 -2.48964 0.537484 0
M  V30 5951 H 554.799 -2.63315 2.20272 0
M  V30 5952 N 557.244 -0.608902 -1.45362 0
M  V30 5953 C 558.207 0.0992563 -2.28985 0
M  V30 5954 C 559.207 0.793841 -1.39838 0
M  V30 5955 O 560.397 0.641804 -1.61946 0
M  V30 5956 C 557.529 1.15073 -3.20891 0
M  V30 5957 H 558.722 -0.635964 -2.93079 0
M  V30 5958 H 556.275 -0.368007 -1.51906 0
M  V30 5959 H 557.01 1.91667 -2.616 0
M  V30 5960 H 556.795 0.656867 -3.86559 0
M  V30 5961 H 558.285 1.64665 -3.83765 0
M  V30 5962 N 558.722 1.53707 -0.348139 0
M  V30 5963 C 559.685 2.23812 0.494058 0
M  V30 5964 C 560.685 1.23989 1.02388 0
M  V30 5965 O 561.875 1.48395 0.912396 0
M  V30 5966 C 559.007 2.96133 1.68872 0
M  V30 5967 H 560.2 2.99663 -0.119141 0
M  V30 5968 H 557.753 1.55983 -0.0995539 0
M  V30 5969 H 558.488 2.24481 2.34049 0
M  V30 5970 H 558.273 3.69357 1.31596 0
M  V30 5971 H 559.763 3.49475 2.28597 0
M  V30 5972 N 560.2 0.0768682 1.57412 0
M  V30 5973 C 561.446 -0.591961 1.93968 0
M  V30 5974 C 561.779 -1.68954 0.9575 0
M  V30 5975 O 561.054 -1.94496 -0.0124675 0
M  V30 5976 C 561.337 -1.16418 3.40762 0
M  V30 5977 C 561.19 -0.0728933 4.49741 0
M  V30 5978 C 562.509 -2.06814 3.88479 0
M  V30 5979 H 559.628 -0.213716 0.705333 0
M  V30 5980 H 562.27 0.14387 1.89455 0
M  V30 5981 H 560.42 -1.79128 3.4474 0
M  V30 5982 H 562.092 0.560446 4.57883 0
M  V30 5983 H 560.335 0.595859 4.29688 0
M  V30 5984 H 561.006 -0.513755 5.49604 0
M  V30 5985 H 563.482 -1.54033 3.8654 0
M  V30 5986 H 562.358 -2.43785 4.91793 0
M  V30 5987 H 562.619 -2.97844 3.26713 0
M  V30 5988 N 561.678 -1.56367 -0.196722 0
M  V30 5989 C 562.626 -1.95304 -1.2633 0
M  V30 5990 C 563.62 -0.838252 -1.47206 0
M  V30 5991 O 564.826 -1.02325 -1.48087 0
M  V30 5992 H 561.201 -0.621013 -0.424083 0
M  V30 5993 H 563.172 -2.84254 -0.907879 0
M  V30 5994 C 561.921 -2.3074 -2.60104 0
M  V30 5995 H 561.244 -3.16047 -2.44856 0
M  V30 5996 H 562.684 -2.61849 -3.33484 0
M  V30 5997 C 561.143 -1.14143 -3.16975 0
M  V30 5998 O 561.673 -0.415602 -3.99544 0
M  V30 5999 N 559.879 -0.91867 -2.75697 0
M  V30 6000 H 559.426 -1.51065 -2.08656 0
M  V30 6001 H 559.384 -0.140321 -3.14087 0
M  V30 6002 N 563.156 0.464375 -1.50603 0
M  V30 6003 C 564.381 1.24372 -1.65971 0
M  V30 6004 C 564.806 1.84901 -0.345453 0
M  V30 6005 O 564.164 1.67596 0.691457 0
M  V30 6006 C 564.212 2.32331 -2.7578 0
M  V30 6007 O 563.316 3.37146 -2.375 0
M  V30 6008 H 562.657 0.365604 -0.554283 0
M  V30 6009 H 565.187 0.55183 -1.97018 0
M  V30 6010 H 565.197 2.77539 -2.99059 0
M  V30 6011 H 563.872 1.87648 -3.71162 0
M  V30 6012 H 562.449 2.97602 -2.24694 0
M  V30 6013 N 564.634 1.40294 0.718013 0
M  V30 6014 C 565.859 1.41941 1.5122 0
M  V30 6015 C 566.284 0.0202371 1.88089 0
M  V30 6016 O 565.642 -0.971078 1.53101 0
M  V30 6017 C 565.69 2.3141 2.76554 0
M  V30 6018 O 564.794 1.75567 3.73162 0
M  V30 6019 H 564.135 0.482644 0.456016 0
M  V30 6020 H 566.665 1.84494 0.884478 0
M  V30 6021 H 566.675 2.46513 3.25108 0
M  V30 6022 H 565.35 3.33085 2.49053 0
M  V30 6023 H 563.927 1.69798 3.31999 0
M  V30 6024 N 566.112 -0.949982 1.2575 0
M  V30 6025 C 567.075 -2.02894 1.06615 0
M  V30 6026 C 568.075 -1.60791 0.0173905 0
M  V30 6027 O 569.265 -1.72249 0.260003 0
M  V30 6028 C 566.397 -3.35219 0.619751 0
M  V30 6029 H 567.59 -2.21302 2.02399 0
M  V30 6030 H 565.143 -1.12772 1.08223 0
M  V30 6031 H 565.878 -3.22508 -0.340486 0
M  V30 6032 H 565.663 -3.67129 1.37692 0
M  V30 6033 H 567.153 -4.14505 0.507443 0
M  V30 6034 N 567.59 -1.07411 -1.15328 0
M  V30 6035 C 568.815 -0.818856 -1.90551 0
M  V30 6036 C 569.24 0.622194 -1.77512 0
M  V30 6037 O 568.598 1.43484 -1.10824 0
M  V30 6038 C 568.646 -1.23267 -3.38877 0
M  V30 6039 O 567.75 -0.378345 -4.10661 0
M  V30 6040 H 567.091 -0.29827 -0.593238 0
M  V30 6041 H 569.621 -1.43289 -1.46046 0
M  V30 6042 H 569.631 -1.20912 -3.89672 0
M  V30 6043 H 568.306 -2.28226 -3.47686 0
M  V30 6044 H 566.883 -0.464437 -3.69996 0
M  V30 6045 N 569.068 1.32177 -0.85831 0
M  V30 6046 C 570.031 2.27086 -0.310588 0
M  V30 6047 C 571.031 1.51751 0.531806 0
M  V30 6048 O 572.221 1.70794 0.34279 0
M  V30 6049 C 569.353 3.36266 0.560179 0
M  V30 6050 H 570.546 2.77045 -1.1483 0
M  V30 6051 H 568.099 1.42911 -0.632942 0
M  V30 6052 H 568.834 2.9158 1.41956 0
M  V30 6053 H 568.619 3.92077 -0.0428473 0
M  V30 6054 H 570.109 4.06974 0.936056 0
M  V30 6055 N 570.547 0.616602 1.45037 0
M  V30 6056 C 571.824 0.0469086 1.95544 0
M  V30 6057 C 572.204 -1.42345 1.55888 0
M  V30 6058 O 571.552 -2.13055 0.825824 0
M  V30 6059 C 571.762 0.254489 3.48071 0
M  V30 6060 C 573.11 0.140025 4.24369 0
M  V30 6061 O 574.134 0.185084 3.55719 0
M  V30 6062 O 572.993 0.0327034 5.4649 0
M  V30 6063 H 570.087 -0.0306051 0.826433 0
M  V30 6064 H 572.633 0.687293 1.55159 0
M  V30 6065 H 571.405 1.27532 3.69934 0
M  V30 6066 H 571.028 -0.42073 3.95368 0
M  V30 6067 N 572.025 -1.5352 0.356285 0
M  V30 6068 C 572.972 -2.25439 -0.494569 0
M  V30 6069 C 573.942 -1.25752 -1.08516 0
M  V30 6070 O 575.127 -1.54513 -1.1194 0
M  V30 6071 C 572.267 -3.04011 -1.63313 0
M  V30 6072 C 571.38 -4.18574 -1.06862 0
M  V30 6073 C 570.515 -4.84607 -2.17552 0
M  V30 6074 C 569.554 -5.91218 -1.58518 0
M  V30 6075 N 568.691 -6.50979 -2.63003 0
M  V30 6076 H 573.531 -2.97737 0.125244 0
M  V30 6077 H 571.068 -1.46916 0.0735789 0
M  V30 6078 H 573.026 -3.47834 -2.30363 0
M  V30 6079 H 571.656 -2.33986 -2.22374 0
M  V30 6080 H 570.708 -3.79303 -0.288672 0
M  V30 6081 H 572.02 -4.95215 -0.596924 0
M  V30 6082 H 571.174 -5.31566 -2.92442 0
M  V30 6083 H 569.913 -4.07418 -2.6807 0
M  V30 6084 H 568.918 -5.4363 -0.821391 0
M  V30 6085 H 570.143 -6.70322 -1.08836 0
M  V30 6086 H 568.089 -5.76648 -3.12751 0
M  V30 6087 H 568.006 -7.23131 -2.20493 0
M  V30 6088 H 569.274 -7.02589 -3.37623 0
M  V30 6089 N 573.503 -0.0852151 -1.57369 0
M  V30 6090 C 574.914 0.445428 -1.81309 0
M  V30 6091 C 575.265 1.68795 -1.00013 0
M  V30 6092 O 574.39 2.15211 -0.226573 0
M  V30 6093 C 574.985 0.814887 -3.28854 0
M  V30 6094 C 573.544 1.29032 -3.53592 0
M  V30 6095 C 572.691 0.282089 -2.75861 0
M  V30 6096 H 575.642 -0.310771 -1.55627 0
M  V30 6097 H 575.663 1.67524 -3.41637 0
M  V30 6098 H 575.175 -0.0896309 -3.87996 0
M  V30 6099 H 573.276 2.21289 -2.9977 0
M  V30 6100 H 573.389 1.25898 -4.62262 0
M  V30 6101 H 571.753 0.762182 -2.43029 0
M  V30 6102 H 572.536 -0.614936 -3.37748 0
M  V30 6103 N 574.981 1.5647 0.188427 0
M  V30 6104 C 575.911 1.98101 1.23606 0
M  V30 6105 C 576.892 0.853961 1.47111 0
M  V30 6106 O 578.077 1.11879 1.58735 0
M  V30 6107 C 575.207 2.32624 2.57882 0
M  V30 6108 C 574.161 3.48129 2.48978 0
M  V30 6109 C 573.487 3.68347 3.87588 0
M  V30 6110 C 574.787 4.82112 2.00911 0
M  V30 6111 H 576.481 2.85864 0.890068 0
M  V30 6112 H 574.027 1.37532 0.426714 0
M  V30 6113 H 575.98 2.60343 3.3136 0
M  V30 6114 H 574.704 1.41751 2.94235 0
M  V30 6115 H 573.363 3.20511 1.77956 0
M  V30 6116 H 573.011 2.74793 4.21305 0
M  V30 6117 H 572.711 4.46055 3.82503 0
M  V30 6118 H 574.235 3.98449 4.62678 0
M  V30 6119 H 575.649 5.08819 2.64151 0
M  V30 6120 H 574.046 5.63337 2.06814 0
M  V30 6121 H 575.116 4.75249 0.96262 0
M  V30 6122 N 576.459 -0.456382 1.50847 0
M  V30 6123 C 577.684 -1.2349 1.66628 0
M  V30 6124 C 578.109 -1.84715 0.355254 0
M  V30 6125 O 577.467 -1.67961 -0.682559 0
M  V30 6126 C 577.515 -2.30865 2.77009 0
M  V30 6127 O 576.619 -3.35882 2.39285 0
M  V30 6128 H 575.96 -0.36266 0.556214 0
M  V30 6129 H 578.49 -0.541374 1.97308 0
M  V30 6130 H 578.5 -2.75949 3.00526 0
M  V30 6131 H 577.175 -1.85677 3.72152 0
M  V30 6132 H 575.752 -2.96406 2.26269 0
M  V30 6133 N 577.937 -1.40673 -0.710563 0
M  V30 6134 C 578.885 -1.41517 -1.84596 0
M  V30 6135 C 579.879 -0.295043 -1.66811 0
M  V30 6136 O 581.085 -0.466331 -1.73854 0
M  V30 6137 H 577.46 -0.442467 -0.608052 0
M  V30 6138 H 579.431 -2.37238 -1.80999 0
M  V30 6139 C 578.18 -1.29957 -3.225 0
M  V30 6140 H 577.503 -2.15429 -3.36794 0
M  V30 6141 H 578.943 -1.34608 -4.02066 0
M  V30 6142 C 577.402 -0.0103164 -3.36898 0
M  V30 6143 O 577.932 0.950707 -3.90288 0
M  V30 6144 N 576.138 0.0608409 -2.90536 0
M  V30 6145 H 575.685 -0.721943 -2.47277 0
M  V30 6146 H 575.643 0.92292 -3.00549 0
M  V30 6147 N 579.415 0.9433 -1.26252 0
M  V30 6148 C 580.348 2.04162 -1.01946 0
M  V30 6149 C 581.326 1.62507 0.0550808 0
M  V30 6150 O 582.51 1.883 -0.0869025 0
M  V30 6151 C 579.637 3.34313 -0.54335 0
M  V30 6152 C 578.683 3.94939 -1.61013 0
M  V30 6153 S 579.516 4.29484 -3.19849 0
M  V30 6154 C 580.672 5.62738 -2.74001 0
M  V30 6155 H 580.905 2.24466 -1.94942 0
M  V30 6156 H 578.438 1.08441 -1.09909 0
M  V30 6157 H 580.396 4.09576 -0.275315 0
M  V30 6158 H 579.057 3.11957 0.36629 0
M  V30 6159 H 578.25 4.88812 -1.22795 0
M  V30 6160 H 577.852 3.26202 -1.82943 0
M  V30 6161 H 580.144 6.41356 -2.18333 0
M  V30 6162 H 581.087 6.05839 -3.66558 0
M  V30 6163 H 581.495 5.22514 -2.13634 0
M  V30 6164 N 580.893 1.08022 1.14757 0
M  V30 6165 C 581.84 0.706657 2.19716 0
M  V30 6166 C 582.81 -0.30525 1.63271 0
M  V30 6167 O 583.995 -0.19015 1.8985 0
M  V30 6168 C 581.135 0.117914 3.44898 0
M  V30 6169 C 580.248 1.18212 4.15512 0
M  V30 6170 C 579.383 0.557659 5.28265 0
M  V30 6171 C 578.422 1.60418 5.90705 0
M  V30 6172 N 577.559 1.0018 6.94916 0
M  V30 6173 H 582.399 1.60603 2.51019 0
M  V30 6174 H 579.936 0.802664 1.23271 0
M  V30 6175 H 581.894 -0.241112 4.16503 0
M  V30 6176 H 580.524 -0.744788 3.1409 0
M  V30 6177 H 579.576 1.65863 3.42335 0
M  V30 6178 H 580.888 1.97533 4.5802 0
M  V30 6179 H 580.042 0.146654 6.06523 0
M  V30 6180 H 578.781 -0.267249 4.86967 0
M  V30 6181 H 577.786 2.02489 5.11154 0
M  V30 6182 H 579.011 2.43149 6.34078 0
M  V30 6183 H 576.957 0.197917 6.55701 0
M  V30 6184 H 576.874 1.73216 7.35889 0
M  V30 6185 H 578.142 0.616523 7.77058 0
M  V30 6186 N 582.371 -1.3172 0.865308 0
M  V30 6187 C 583.62 -1.96145 0.470098 0
M  V30 6188 C 583.933 -1.69182 -0.981674 0
M  V30 6189 O 585.139 -2.27431 -1.48281 0
M  V30 6190 C 583.595 -3.51129 0.789732 0
M  V30 6191 C 583.203 -3.86938 2.25795 0
M  V30 6192 C 584.947 -4.2197 0.462765 0
M  V30 6193 C 582.854 -5.35012 2.52024 0
M  V30 6194 H 581.784 -0.734105 0.172065 0
M  V30 6195 H 584.435 -1.49959 1.05757 0
M  V30 6196 H 582.817 -3.95781 0.131571 0
M  V30 6197 H 583.991 -3.5326 2.95879 0
M  V30 6198 H 582.306 -3.29149 2.55049 0
M  V30 6199 H 584.903 -5.30904 0.636019 0
M  V30 6200 H 585.246 -4.12005 -0.59645 0
M  V30 6201 H 585.779 -3.82936 1.07727 0
M  V30 6202 H 582.518 -5.50008 3.56611 0
M  V30 6203 H 582.038 -5.70058 1.8653 0
M  V30 6204 H 583.717 -6.0222 2.36515 0
M  V30 6205 N 583.85 -0.624285 -1.44708 0
M  V30 6206 C 584.779 0.0717025 -2.3339 0
M  V30 6207 C 585.76 0.841814 -1.47809 0
M  V30 6208 O 586.946 0.809056 -1.76544 0
M  V30 6209 C 584.076 1.05852 -3.30776 0
M  V30 6210 C 583.029 0.400503 -4.26122 0
M  V30 6211 C 582.356 1.49674 -5.13324 0
M  V30 6212 C 583.656 -0.688924 -5.17737 0
M  V30 6213 H 585.35 -0.668819 -2.91834 0
M  V30 6214 H 582.896 -0.32308 -1.40329 0
M  V30 6215 H 584.849 1.5541 -3.91696 0
M  V30 6216 H 583.572 1.82984 -2.70526 0
M  V30 6217 H 582.231 -0.0743687 -3.66525 0
M  V30 6218 H 581.88 2.25877 -4.49431 0
M  V30 6219 H 581.58 1.06188 -5.77926 0
M  V30 6220 H 583.104 1.99427 -5.77115 0
M  V30 6221 H 584.518 -0.276724 -5.72632 0
M  V30 6222 H 582.915 -1.04652 -5.90904 0
M  V30 6223 H 583.985 -1.55884 -4.5916 0
M  V30 6224 N 585.328 1.53329 -0.364422 0
M  V30 6225 C 586.556 2.05657 0.226424 0
M  V30 6226 C 586.971 1.23801 1.42544 0
M  V30 6227 O 586.328 0.27839 1.80364 0
M  V30 6228 C 586.379 3.56125 0.621056 0
M  V30 6229 O 586.1 4.34879 -0.530304 0
M  V30 6230 C 587.601 4.24706 1.27041 0
M  V30 6231 H 584.821 0.669806 0.0400056 0
M  V30 6232 H 587.365 1.97714 -0.522456 0
M  V30 6233 H 585.52 3.64223 1.31985 0
M  V30 6234 H 585.934 5.24073 -0.211546 0
M  V30 6235 H 587.408 5.3131 1.49711 0
M  V30 6236 H 587.885 3.78354 2.23036 0
M  V30 6237 H 588.491 4.20858 0.613079 0
M  V30 6238 N 586.806 0.0935595 1.57322 0
M  V30 6239 C 587.736 -0.863062 2.16964 0
M  V30 6240 C 588.717 -1.29528 1.10256 0
M  V30 6241 O 589.902 -1.36245 1.38387 0
M  V30 6242 C 587.032 -2.12276 2.74875 0
M  V30 6243 C 585.986 -1.82921 3.86942 0
M  V30 6244 C 585.312 -3.15707 4.31548 0
M  V30 6245 C 586.612 -1.11737 5.10208 0
M  V30 6246 H 588.306 -0.366145 2.97153 0
M  V30 6247 H 585.852 -0.174673 1.42937 0
M  V30 6248 H 587.805 -2.79634 3.1525 0
M  V30 6249 H 586.529 -2.64248 1.91938 0
M  V30 6250 H 585.188 -1.17961 3.47103 0
M  V30 6251 H 584.836 -3.65563 3.45504 0
M  V30 6252 H 584.536 -2.96849 5.07104 0
M  V30 6253 H 586.06 -3.84226 4.74555 0
M  V30 6254 H 587.474 -1.69203 5.47762 0
M  V30 6255 H 585.871 -1.03064 5.91183 0
M  V30 6256 H 586.941 -0.0998818 4.84797 0
M  V30 6257 N 588.284 -1.56567 -0.180126 0
M  V30 6258 C 589.532 -1.81133 -0.896392 0
M  V30 6259 C 589.853 -0.669114 -1.83161 0
M  V30 6260 O 589.123 0.311616 -1.93406 0
M  V30 6261 H 587.703 -0.668172 -0.333999 0
M  V30 6262 H 590.365 -1.94048 -0.182051 0
M  V30 6263 H 589.461 -2.74854 -1.47857 0
M  V30 6264 N 589.762 0.448376 -1.51087 0
M  V30 6265 C 590.709 1.54341 -1.71603 0
M  V30 6266 C 591.679 1.56463 -0.557536 0
M  V30 6267 O 592.864 1.73644 -0.79072 0
M  V30 6268 C 590.004 2.92148 -1.83695 0
M  V30 6269 C 589.117 2.99639 -3.11192 0
M  V30 6270 C 588.252 4.285 -3.13944 0
M  V30 6271 C 587.291 4.29819 -4.35801 0
M  V30 6272 N 586.428 5.50186 -4.36164 0
M  V30 6273 H 591.268 1.36151 -2.65079 0
M  V30 6274 H 588.805 0.661585 -1.31383 0
M  V30 6275 H 590.763 3.72093 -1.88687 0
M  V30 6276 H 589.393 3.0892 -0.936374 0
M  V30 6277 H 588.445 2.12425 -3.15562 0
M  V30 6278 H 589.757 2.96474 -4.01129 0
M  V30 6279 H 588.911 5.16811 -3.17791 0
M  V30 6280 H 587.65 4.34307 -2.21876 0
M  V30 6281 H 586.655 3.39902 -4.32142 0
M  V30 6282 H 587.88 4.25685 -5.29121 0
M  V30 6283 H 585.826 5.56735 -3.46961 0
M  V30 6284 H 585.743 5.48856 -5.19897 0
M  V30 6285 H 587.011 6.40559 -4.44189 0
M  V30 6286 N 591.24 1.41047 0.703093 0
M  V30 6287 C 592.17 1.45067 1.82969 0
M  V30 6288 C 593.151 0.31016 1.67248 0
M  V30 6289 O 594.336 0.520548 1.87093 0
M  V30 6290 C 591.466 1.32478 3.2104 0
M  V30 6291 C 590.42 2.44262 3.51454 0
M  V30 6292 C 589.746 2.16742 4.88801 0
M  V30 6293 C 591.046 3.86606 3.51189 0
M  V30 6294 H 592.74 2.39353 1.79863 0
M  V30 6295 H 590.286 1.15206 0.863919 0
M  V30 6296 H 592.239 1.33904 3.99559 0
M  V30 6297 H 590.963 0.346735 3.24754 0
M  V30 6298 H 589.622 2.42107 2.75282 0
M  V30 6299 H 589.27 1.17299 4.89132 0
M  V30 6300 H 588.97 2.91643 5.10116 0
M  V30 6301 H 590.494 2.19872 5.69639 0
M  V30 6302 H 591.908 3.90517 4.19725 0
M  V30 6303 H 590.305 4.61128 3.84033 0
M  V30 6304 H 591.375 4.15296 2.50315 0
M  V30 6305 N 592.718 -0.936591 1.26751 0
M  V30 6306 C 593.943 -1.72288 1.15462 0
M  V30 6307 C 594.368 -1.85915 -0.285887 0
M  V30 6308 O 593.726 -1.35272 -1.20711 0
M  V30 6309 C 593.774 -3.10503 1.83359 0
M  V30 6310 O 592.878 -3.96745 1.1255 0
M  V30 6311 H 592.219 -0.52843 0.402067 0
M  V30 6312 H 594.749 -1.17271 1.67656 0
M  V30 6313 H 594.759 -3.60867 1.90365 0
M  V30 6314 H 593.434 -2.99901 2.88153 0
M  V30 6315 H 592.011 -3.55191 1.13551 0
M  V30 6316 N 594.196 -1.08629 -1.14182 0
M  V30 6317 C 595.612 -0.814363 -1.3726 0
M  V30 6318 C 595.812 0.575271 -1.93114 0
M  V30 6319 O 594.868 1.33165 -2.1453 0
M  V30 6320 C 596.181 -1.8989 -2.33157 0
M  V30 6321 C 597.729 -1.92518 -2.46791 0
M  V30 6322 C 598.204 -3.00092 -3.45989 0
M  V30 6323 N 599.695 -2.99279 -3.53534 0
M  V30 6324 C 600.43 -3.79158 -4.30147 0
M  V30 6325 N 599.926 -4.68923 -5.09983 0
M  V30 6326 N 601.719 -3.67451 -4.25366 0
M  V30 6327 H 593.87 -1.98232 -0.762758 0
M  V30 6328 H 596.133 -0.860383 -0.398051 0
M  V30 6329 H 595.839 -2.89809 -1.99257 0
M  V30 6330 H 595.713 -1.77013 -3.33086 0
M  V30 6331 H 598.1 -0.932425 -2.79982 0
M  V30 6332 H 598.181 -2.09473 -1.46816 0
M  V30 6333 H 597.825 -3.99575 -3.13532 0
M  V30 6334 H 597.755 -2.80382 -4.45751 0
M  V30 6335 H 600.246 -2.3422 -2.96563 0
M  V30 6336 H 600.559 -5.26475 -5.65724 0
M  V30 6337 H 598.904 -4.72964 -5.09244 0
M  V30 6338 H 602.095 -2.9669 -3.62067 0
M  V30 6339 H 602.268 -4.29944 -4.84822 0
M  V30 6340 N 595.674 1.31259 -0.872281 0
M  V30 6341 C 596.622 2.30404 -0.318897 0
M  V30 6342 C 597.616 1.5962 0.567267 0
M  V30 6343 O 598.822 1.74204 0.453111 0
M  V30 6344 H 595.197 0.747243 -0.0844474 0
M  V30 6345 H 597.168 2.74549 -1.16899 0
M  V30 6346 C 595.917 3.44608 0.462683 0
M  V30 6347 H 595.24 3.99248 -0.209936 0
M  V30 6348 H 596.68 4.1609 0.815187 0
M  V30 6349 C 595.139 2.93456 1.65485 0
M  V30 6350 O 595.669 2.92418 2.75417 0
M  V30 6351 N 593.875 2.49628 1.48776 0
M  V30 6352 H 593.422 2.50671 0.593452 0
M  V30 6353 H 593.38 2.15759 2.28682 0
M  V30 6354 N 597.152 0.631951 1.44375 0
M  V30 6355 C 598.099 -0.0724807 2.30686 0
M  V30 6356 C 599.069 -0.835975 1.43529 0
M  V30 6357 O 600.254 -0.816849 1.7243 0
M  V30 6358 C 597.394 -1.04753 3.28817 0
M  V30 6359 C 596.507 -0.282367 4.31076 0
M  V30 6360 C 595.642 -1.2493 5.163 0
M  V30 6361 C 594.681 -0.473349 6.10267 0
M  V30 6362 N 593.818 -1.39079 6.88187 0
M  V30 6363 H 598.658 0.669477 2.90383 0
M  V30 6364 H 596.195 0.341927 1.43071 0
M  V30 6365 H 598.153 -1.62623 3.842 0
M  V30 6366 H 596.783 -1.75661 2.70819 0
M  V30 6367 H 595.835 0.412268 3.78159 0
M  V30 6368 H 597.147 0.321955 4.9776 0
M  V30 6369 H 596.301 -1.89931 5.76204 0
M  V30 6370 H 595.04 -1.88755 4.49692 0
M  V30 6371 H 594.045 0.190142 5.49471 0
M  V30 6372 H 595.27 0.16019 6.78911 0
M  V30 6373 H 593.216 -2.01623 6.24247 0
M  V30 6374 H 593.133 -0.840513 7.51313 0
M  V30 6375 H 594.401 -2.02961 7.52613 0
M  V30 6376 N 598.631 -1.53133 0.372548 0
M  V30 6377 C 599.908 -1.93704 -0.271693 0
M  V30 6378 C 600.288 -1.30667 -1.65799 0
M  V30 6379 O 599.636 -0.46838 -2.23648 0
M  V30 6380 C 599.846 -3.47576 -0.314903 0
M  V30 6381 C 601.194 -4.20998 -0.551912 0
M  V30 6382 O 602.218 -3.53994 -0.39582 0
M  V30 6383 O 601.077 -5.39748 -0.85639 0
M  V30 6384 H 598.171 -0.810457 -0.164586 0
M  V30 6385 H 600.717 -1.6427 0.425838 0
M  V30 6386 H 599.489 -3.85749 0.656792 0
M  V30 6387 H 599.112 -3.83264 -1.05804 0
M  V30 6388 N 600.109 -0.101901 -1.5727 0
M  V30 6389 C 601.019 0.868647 -2.17926 0
M  V30 6390 C 602.035 1.30527 -1.1506 0
M  V30 6391 O 603.211 1.37178 -1.47459 0
M  V30 6392 C 600.276 2.10727 -2.75309 0
M  V30 6393 C 599.337 1.7242 -3.93154 0
M  V30 6394 C 598.57 2.90377 -4.47791 0
M  V30 6395 O 598.793 4.05305 -4.01353 0
M  V30 6396 O 597.727 2.6845 -5.38719 0
M  V30 6397 H 601.553 0.382544 -3.01281 0
M  V30 6398 H 599.138 0.122812 -1.48894 0
M  V30 6399 H 601.02 2.83303 -3.11958 0
M  V30 6400 H 599.695 2.58376 -1.94996 0
M  V30 6401 H 598.602 0.970039 -3.61305 0
M  V30 6402 H 599.935 1.29528 -4.74851 0
M  V30 6403 N 601.587 1.56661 0.17182 0
M  V30 6404 C 602.833 1.82235 0.889845 0
M  V30 6405 C 603.166 0.679673 1.81918 0
M  V30 6406 O 602.441 -0.318404 1.91876 0
M  V30 6407 C 602.724 3.18195 1.68595 0
M  V30 6408 C 602.577 4.42989 0.779773 0
M  V30 6409 C 603.896 3.5109 2.65375 0
M  V30 6410 H 601.015 0.66291 0.322056 0
M  V30 6411 H 603.657 1.89358 0.15608 0
M  V30 6412 H 601.807 3.12253 2.3115 0
M  V30 6413 H 603.479 4.60997 0.16714 0
M  V30 6414 H 601.722 4.33711 0.0877964 0
M  V30 6415 H 602.393 5.3467 1.3723 0
M  V30 6416 H 604.869 3.57482 2.12946 0
M  V30 6417 H 603.745 4.47298 3.18144 0
M  V30 6418 H 604.006 2.75768 3.45549 0
M  V30 6419 N 603.065 -0.440357 1.51323 0
M  V30 6420 C 604.012 -1.53429 1.72419 0
M  V30 6421 C 604.982 -1.56165 0.565826 0
M  V30 6422 O 606.167 -1.73222 0.799917 0
M  V30 6423 C 603.307 -2.91169 1.85242 0
M  V30 6424 C 602.42 -2.97985 3.12777 0
M  V30 6425 C 601.555 -4.26829 3.16212 0
M  V30 6426 C 600.594 -4.27501 4.38074 0
M  V30 6427 N 599.731 -5.47866 4.39076 0
M  V30 6428 H 604.571 -1.34743 2.65797 0
M  V30 6429 H 602.108 -0.654608 1.31732 0
M  V30 6430 H 604.066 -3.71087 1.90658 0
M  V30 6431 H 602.696 -3.0842 0.952744 0
M  V30 6432 H 601.748 -2.10749 3.16685 0
M  V30 6433 H 603.06 -2.94342 4.02696 0
M  V30 6434 H 602.214 -5.15118 3.20527 0
M  V30 6435 H 600.953 -4.33124 2.24176 0
M  V30 6436 H 599.958 -3.37606 4.33938 0
M  V30 6437 H 601.183 -4.22873 5.31371 0
M  V30 6438 H 599.129 -5.54887 3.49909 0
M  V30 6439 H 599.046 -5.46091 5.22801 0
M  V30 6440 H 600.314 -6.38195 4.4758 0
M  V30 6441 N 604.543 -1.41418 -0.695603 0
M  V30 6442 C 605.506 -1.42988 -1.79129 0
M  V30 6443 C 606.506 -0.320514 -1.57573 0
M  V30 6444 O 607.696 -0.58039 -1.64247 0
M  V30 6445 C 604.828 -1.24122 -3.175 0
M  V30 6446 H 606.021 -2.40526 -1.7913 0
M  V30 6447 H 603.574 -1.2756 -0.903225 0
M  V30 6448 H 604.309 -0.274253 -3.23138 0
M  V30 6449 H 604.094 -2.045 -3.34547 0
M  V30 6450 H 605.584 -1.28056 -3.97481 0
M  V30 6451 N 606.021 0.929856 -1.27246 0
M  V30 6452 C 606.954 2.03069 -1.04106 0
M  V30 6453 C 607.932 1.62556 0.0378417 0
M  V30 6454 O 609.116 1.88197 -0.106869 0
M  V30 6455 C 606.243 3.33718 -0.578778 0
M  V30 6456 C 605.289 3.93209 -1.65193 0
M  V30 6457 S 606.122 4.26068 -3.24386 0
M  V30 6458 C 607.278 5.598 -2.79954 0
M  V30 6459 H 607.511 2.22386 -1.97311 0
M  V30 6460 H 605.044 1.07269 -1.11053 0
M  V30 6461 H 607.002 4.09261 -0.31874 0
M  V30 6462 H 605.663 3.12328 0.333182 0
M  V30 6463 H 604.856 4.87482 -1.27973 0
M  V30 6464 H 604.458 3.24243 -1.86393 0
M  V30 6465 H 606.75 6.39004 -2.25123 0
M  V30 6466 H 607.693 6.01917 -3.72963 0
M  V30 6467 H 608.101 5.20219 -2.19164 0
M  V30 6468 N 607.499 1.09233 1.13605 0
M  V30 6469 C 608.748 0.82205 1.84188 0
M  V30 6470 C 609.061 -0.654548 1.84323 0
M  V30 6471 O 610.267 -1.04029 2.50779 0
M  V30 6472 C 608.723 1.42066 3.30674 0
M  V30 6473 C 608.331 2.92965 3.38933 0
M  V30 6474 C 610.075 1.22924 4.06313 0
M  V30 6475 C 607.982 3.45922 4.79679 0
M  V30 6476 H 606.912 0.303854 0.690064 0
M  V30 6477 H 609.563 1.31479 1.28006 0
M  V30 6478 H 607.945 0.855613 3.86646 0
M  V30 6479 H 609.119 3.55679 2.92966 0
M  V30 6480 H 607.434 3.11118 2.76757 0
M  V30 6481 H 610.031 1.59945 5.10217 0
M  V30 6482 H 610.374 0.169726 4.15954 0
M  V30 6483 H 610.907 1.76168 3.56665 0
M  V30 6484 H 607.646 4.51484 4.75229 0
M  V30 6485 H 607.166 2.87971 5.26149 0
M  V30 6486 H 608.845 3.43009 5.48592 0
M  V30 6487 N 608.977 -1.30795 0.87923 0
M  V30 6488 C 609.887 -2.32041 0.345565 0
M  V30 6489 C 610.903 -1.65103 -0.549265 0
M  V30 6490 O 612.079 -1.9645 -0.443763 0
M  V30 6491 C 609.144 -3.43944 -0.436245 0
M  V30 6492 C 608.205 -4.26521 0.48765 0
M  V30 6493 C 607.438 -5.33081 -0.256943 0
M  V30 6494 O 607.661 -5.50762 -1.48381 0
M  V30 6495 O 606.595 -6.00635 0.389985 0
M  V30 6496 H 610.421 -2.79627 1.18501 0
M  V30 6497 H 608.006 -1.3486 0.642885 0
M  V30 6498 H 609.888 -4.12128 -0.879119 0
M  V30 6499 H 608.563 -2.98504 -1.25208 0
M  V30 6500 H 607.47 -3.61057 0.979216 0
M  V30 6501 H 608.803 -4.75551 1.26933 0
M  V30 6502 N 610.455 -0.639598 -1.44038 0
M  V30 6503 C 611.402 0.0602458 -2.30721 0
M  V30 6504 C 612.372 0.828352 -1.43971 0
M  V30 6505 O 613.557 0.807693 -1.72861 0
M  V30 6506 C 610.697 1.03008 -3.29368 0
M  V30 6507 C 609.81 0.259502 -4.3122 0
M  V30 6508 C 608.945 1.22191 -5.16955 0
M  V30 6509 C 607.984 0.440978 -6.10509 0
M  V30 6510 N 607.121 1.35428 -6.88915 0
M  V30 6511 H 611.961 -0.684867 -2.90023 0
M  V30 6512 H 609.498 -0.349509 -1.42888 0
M  V30 6513 H 611.456 1.60583 -3.85057 0
M  V30 6514 H 610.086 1.74222 -2.71747 0
M  V30 6515 H 609.138 -0.432317 -3.77935 0
M  V30 6516 H 610.45 -0.348347 -4.97582 0
M  V30 6517 H 609.604 1.86873 -5.77203 0
M  V30 6518 H 608.343 1.86367 -4.50687 0
M  V30 6519 H 607.348 -0.219279 -5.49363 0
M  V30 6520 H 608.573 -0.196192 -6.78817 0
M  V30 6521 H 606.519 1.9831 -6.25307 0
M  V30 6522 H 606.436 0.800657 -7.51748 0
M  V30 6523 H 607.704 1.98967 -7.53679 0
M  V30 6524 N 611.933 1.52934 -0.380664 0
M  V30 6525 C 612.863 2.29118 0.450268 0
M  V30 6526 C 613.844 1.32153 1.07096 0
M  V30 6527 O 615.029 1.61038 1.08537 0
M  V30 6528 C 612.159 3.09161 1.58231 0
M  V30 6529 C 611.113 4.13938 1.0881 0
M  V30 6530 C 610.439 4.82153 2.31155 0
M  V30 6531 C 611.739 5.22048 0.162146 0
M  V30 6532 H 613.433 2.98826 -0.185361 0
M  V30 6533 H 610.979 1.43715 -0.0905886 0
M  V30 6534 H 612.932 3.61211 2.17036 0
M  V30 6535 H 611.656 2.3717 2.2454 0
M  V30 6536 H 610.315 3.62855 0.522633 0
M  V30 6537 H 609.963 4.06719 2.95953 0
M  V30 6538 H 609.663 5.52966 1.98752 0
M  V30 6539 H 611.187 5.37004 2.90618 0
M  V30 6540 H 612.601 5.6951 0.658126 0
M  V30 6541 H 610.998 6.00057 -0.0717122 0
M  V30 6542 H 612.068 4.78398 -0.791438 0
M  V30 6543 N 613.412 0.11024 1.57214 0
M  V30 6544 C 614.66 -0.548783 1.94506 0
M  V30 6545 C 614.981 -1.67772 0.99386 0
M  V30 6546 O 614.251 -1.9584 0.0485841 0
M  V30 6547 H 612.831 -0.205715 0.718116 0
M  V30 6548 H 615.493 0.177127 1.94093 0
M  V30 6549 H 614.589 -0.949096 2.97319 0
M  V30 6550 N 614.89 -1.56749 -0.16351 0
M  V30 6551 C 616.138 -1.82074 -0.87713 0
M  V30 6552 C 616.459 -0.688503 -1.82441 0
M  V30 6553 O 615.729 0.291085 -1.93725 0
M  V30 6554 H 614.309 -0.671677 -0.326893 0
M  V30 6555 H 616.971 -1.9423 -0.161459 0
M  V30 6556 H 616.067 -2.76407 -1.44934 0
M  V30 6557 N 616.368 0.432326 -1.51554 0
M  V30 6558 C 617.315 1.52512 -1.7323 0
M  V30 6559 C 618.285 1.55863 -0.5741 0
M  V30 6560 O 619.47 1.72796 -0.809093 0
M  V30 6561 C 616.61 2.90183 -1.86783 0
M  V30 6562 C 615.723 2.96322 -3.14352 0
M  V30 6563 C 614.858 4.25147 -3.18471 0
M  V30 6564 C 613.897 4.25172 -4.40335 0
M  V30 6565 N 613.034 5.45529 -4.41975 0
M  V30 6566 H 617.874 1.33332 -2.66508 0
M  V30 6567 H 615.411 0.647613 -1.32077 0
M  V30 6568 H 617.369 3.70071 -1.92623 0
M  V30 6569 H 615.999 3.0791 -0.969087 0
M  V30 6570 H 615.051 2.09066 -3.17798 0
M  V30 6571 H 616.363 2.92203 -4.04251 0
M  V30 6572 H 615.517 5.13411 -3.23255 0
M  V30 6573 H 614.256 4.31929 -2.2647 0
M  V30 6574 H 613.261 3.353 -4.35723 0
M  V30 6575 H 614.486 4.20049 -5.33606 0
M  V30 6576 H 612.432 5.53024 -3.52847 0
M  V30 6577 H 612.349 5.43311 -5.25689 0
M  V30 6578 H 613.617 6.35812 -4.50958 0
M  V30 6579 N 617.846 1.41785 0.688094 0
M  V30 6580 C 618.776 1.47 1.8142 0
M  V30 6581 C 619.757 0.327881 1.6691 0
M  V30 6582 O 620.942 0.540362 1.86531 0
M  V30 6583 C 618.072 1.35876 3.19617 0
M  V30 6584 C 617.026 2.47976 3.48844 0
M  V30 6585 C 616.352 2.21915 4.86475 0
M  V30 6586 C 617.652 3.90309 3.47068 0
M  V30 6587 H 619.346 2.41247 1.77314 0
M  V30 6588 H 616.892 1.16116 0.851651 0
M  V30 6589 H 618.845 1.38134 3.98117 0
M  V30 6590 H 617.569 0.38116 3.24368 0
M  V30 6591 H 616.228 2.45013 2.72698 0
M  V30 6592 H 615.876 1.2248 4.8786 0
M  V30 6593 H 615.576 2.97037 5.06994 0
M  V30 6594 H 617.1 2.25901 5.67275 0
M  V30 6595 H 618.514 3.94947 4.1556 0
M  V30 6596 H 616.911 4.65175 3.7912 0
M  V30 6597 H 617.981 4.17927 2.45896 0
M  V30 6598 N 619.324 -0.923095 1.27737 0
M  V30 6599 C 620.552 -1.70525 1.17171 0
M  V30 6600 C 620.967 -1.86847 -0.270881 0
M  V30 6601 O 620.324 -1.38879 -1.18401 0
M  V30 6602 C 620.375 -3.10242 1.85559 0
M  V30 6603 O 620.096 -2.94683 3.24182 0
M  V30 6604 C 621.597 -4.04586 1.81176 0
M  V30 6605 H 618.817 -0.533347 0.407163 0
M  V30 6606 H 621.361 -1.15599 1.68692 0
M  V30 6607 H 619.516 -3.62014 1.3793 0
M  V30 6608 H 619.93 -3.83045 3.58297 0
M  V30 6609 H 621.404 -5.00119 2.33633 0
M  V30 6610 H 621.881 -4.3218 0.782099 0
M  V30 6611 H 622.487 -3.58741 2.2844 0
M  V30 6612 N 620.802 -1.09834 -1.13024 0
M  V30 6613 C 622.05 -0.835297 -1.8403 0
M  V30 6614 C 622.371 0.640944 -1.84165 0
M  V30 6615 O 621.641 1.46517 -1.30037 0
M  V30 6616 H 620.221 -0.306018 -0.681441 0
M  V30 6617 H 622.883 -1.38734 -1.36891 0
M  V30 6618 H 621.979 -1.19258 -2.88416 0
M  V30 6619 N 622.28 1.30327 -0.886154 0
M  V30 6620 C 623.508 2.00254 -0.520176 0
M  V30 6621 C 623.923 1.66419 0.891637 0
M  V30 6622 O 623.28 0.901951 1.58654 0
M  V30 6623 C 623.331 3.54916 -0.686775 0
M  V30 6624 O 623.052 3.87547 -2.04301 0
M  V30 6625 C 624.553 4.42115 -0.323945 0
M  V30 6626 H 621.773 0.640204 -0.200947 0
M  V30 6627 H 624.317 1.66183 -1.19178 0
M  V30 6628 H 622.472 3.8735 -0.0625273 0
M  V30 6629 H 622.886 4.82247 -2.06249 0
M  V30 6630 H 624.36 5.49808 -0.491407 0
M  V30 6631 H 624.837 4.32953 0.73811 0
M  V30 6632 H 625.443 4.15129 -0.924565 0
M  V30 6633 N 623.758 0.647228 1.43697 0
M  V30 6634 C 624.721 -0.0385101 2.29168 0
M  V30 6635 C 625.721 -0.756487 1.41894 0
M  V30 6636 O 626.911 -0.598641 1.63591 0
M  V30 6637 C 624.043 -1.06524 3.23829 0
M  V30 6638 H 625.236 0.713445 2.9129 0
M  V30 6639 H 622.789 0.408153 1.50877 0
M  V30 6640 H 623.524 -1.84664 2.66589 0
M  V30 6641 H 623.309 -0.554147 3.88164 0
M  V30 6642 H 624.799 -1.54432 3.87996 0
M  V30 6643 N 625.236 -1.5273 0.388769 0
M  V30 6644 C 626.184 -2.27975 -0.461527 0
M  V30 6645 C 627.178 -1.31854 -1.06352 0
M  V30 6646 O 628.384 -1.49394 -1.00406 0
M  V30 6647 H 624.759 -0.733088 -0.16759 0
M  V30 6648 H 626.73 -2.97765 0.194579 0
M  V30 6649 C 625.479 -3.09881 -1.577 0
M  V30 6650 H 624.802 -3.83701 -1.12309 0
M  V30 6651 H 626.242 -3.6567 -2.14619 0
M  V30 6652 C 624.701 -2.22159 -2.53272 0
M  V30 6653 O 625.231 -1.84802 -3.56667 0
M  V30 6654 N 623.437 -1.8633 -2.23001 0
M  V30 6655 H 622.984 -2.16909 -1.38954 0
M  V30 6656 H 622.942 -1.27927 -2.87197 0
M  V30 6657 N 626.714 -0.118576 -1.57153 0
M  V30 6658 C 627.661 0.831789 -2.1529 0
M  V30 6659 C 628.631 1.26385 -1.07778 0
M  V30 6660 O 629.816 1.34144 -1.35684 0
M  V30 6661 C 626.956 2.07664 -2.75626 0
M  V30 6662 C 626.069 1.69298 -3.97444 0
M  V30 6663 C 625.204 2.88747 -4.45868 0
M  V30 6664 C 624.243 2.46619 -5.60219 0
M  V30 6665 N 623.38 3.5898 -6.03389 0
M  V30 6666 H 628.22 0.329183 -2.96176 0
M  V30 6667 H 625.757 0.150792 -1.46325 0
M  V30 6668 H 627.715 2.80601 -3.08738 0
M  V30 6669 H 626.345 2.55384 -1.97431 0
M  V30 6670 H 625.397 0.862374 -3.70496 0
M  V30 6671 H 626.709 1.34338 -4.80369 0
M  V30 6672 H 625.863 3.69909 -4.80887 0
M  V30 6673 H 624.602 3.26933 -3.61892 0
M  V30 6674 H 623.607 1.63889 -5.24805 0
M  V30 6675 H 624.832 2.0955 -6.45961 0
M  V30 6676 H 622.778 3.9684 -5.22354 0
M  V30 6677 H 622.695 3.27942 -6.81168 0
M  V30 6678 H 623.963 4.40583 -6.43045 0
M  V30 6679 N 628.193 1.56834 0.155195 0
M  V30 6680 C 629.156 1.96748 1.17571 0
M  V30 6681 C 630.156 0.853006 1.3631 0
M  V30 6682 O 631.346 1.11978 1.33441 0
M  V30 6683 C 628.478 2.27631 2.53765 0
M  V30 6684 H 629.671 2.88085 0.833498 0
M  V30 6685 H 627.224 1.51141 0.398242 0
M  V30 6686 H 627.959 1.39059 2.92973 0
M  V30 6687 H 627.744 3.0888 2.41527 0
M  V30 6688 H 629.234 2.59377 3.27282 0
M  V30 6689 N 629.671 -0.424282 1.51781 0
M  V30 6690 C 630.896 -1.19928 1.6921 0
M  V30 6691 C 631.321 -1.8392 0.394355 0
M  V30 6692 O 630.679 -1.69371 -0.646778 0
M  V30 6693 C 630.727 -2.24937 2.81843 0
M  V30 6694 O 629.831 -3.3073 2.46356 0
M  V30 6695 H 629.172 -0.35078 0.563781 0
M  V30 6696 H 631.702 -0.499401 1.98412 0
M  V30 6697 H 631.712 -2.69512 3.06312 0
M  V30 6698 H 630.387 -1.77742 3.76006 0
M  V30 6699 H 628.964 -2.9154 2.32505 0
M  V30 6700 N 631.149 -1.42148 -0.680565 0
M  V30 6701 C 632.079 -1.4796 -1.80638 0
M  V30 6702 C 633.06 -0.336728 -1.66734 0
M  V30 6703 O 634.245 -0.550247 -1.86242 0
M  V30 6704 C 631.375 -1.37569 -3.18892 0
M  V30 6705 C 630.329 -2.49823 -3.47524 0
M  V30 6706 C 629.655 -2.24491 -4.85291 0
M  V30 6707 C 630.955 -3.92144 -3.44994 0
M  V30 6708 H 632.649 -2.42184 -1.76032 0
M  V30 6709 H 630.195 -1.16566 -0.845481 0
M  V30 6710 H 632.148 -1.40243 -3.97379 0
M  V30 6711 H 630.872 -0.398357 -3.24162 0
M  V30 6712 H 629.531 -2.46455 -2.71395 0
M  V30 6713 H 629.179 -1.25066 -4.87204 0
M  V30 6714 H 628.879 -2.99722 -5.05411 0
M  V30 6715 H 630.403 -2.28906 -5.66069 0
M  V30 6716 H 631.817 -3.97145 -4.13459 0
M  V30 6717 H 630.214 -4.67179 -3.76648 0
M  V30 6718 H 631.284 -4.19225 -2.43676 0
M  V30 6719 N 632.627 0.916307 -1.28225 0
M  V30 6720 C 633.867 1.67964 -1.16479 0
M  V30 6721 C 634.231 1.8991 0.282494 0
M  V30 6722 O 635.432 2.63671 0.522607 0
M  V30 6723 C 633.703 3.00251 -1.93866 0
M  V30 6724 S 635.262 3.91353 -1.98465 0
M  V30 6725 H 632.08 0.576873 -0.415619 0
M  V30 6726 H 634.682 1.09006 -1.62289 0
M  V30 6727 H 633.386 2.81978 -2.98189 0
M  V30 6728 H 632.917 3.64257 -1.48595 0
M  V30 6729 H 634.932 4.84096 -1.0893 0
M  V30 6730 N 634.105 1.10431 1.1244 0
M  V30 6731 C 635.354 0.841539 1.83306 0
M  V30 6732 C 635.667 -0.634961 1.85007 0
M  V30 6733 O 636.873 -1.01363 2.51869 0
M  V30 6734 C 635.329 1.45565 3.29149 0
M  V30 6735 C 634.937 2.96544 3.35806 0
M  V30 6736 C 636.681 1.27227 4.04986 0
M  V30 6737 C 634.588 3.5099 4.75983 0
M  V30 6738 H 633.518 0.311156 0.686803 0
M  V30 6739 H 636.169 1.32829 1.26604 0
M  V30 6740 H 634.551 0.896574 3.85717 0
M  V30 6741 H 635.725 3.58766 2.89177 0
M  V30 6742 H 634.04 3.14036 2.73442 0
M  V30 6743 H 636.637 1.65348 5.08492 0
M  V30 6744 H 636.98 0.213834 4.1575 0
M  V30 6745 H 637.513 1.79941 3.54776 0
M  V30 6746 H 634.252 4.56499 4.70413 0
M  V30 6747 H 633.772 2.93535 5.23065 0
M  V30 6748 H 635.451 3.48808 5.44924 0
M  V30 6749 N 635.583 -1.29855 0.893053 0
M  V30 6750 C 636.808 -2.00512 0.530066 0
M  V30 6751 C 637.233 -1.66446 -0.876199 0
M  V30 6752 O 636.591 -0.885446 -1.58207 0
M  V30 6753 C 636.639 -3.53308 0.721505 0
M  V30 6754 O 635.743 -4.11764 -0.228994 0
M  V30 6755 H 635.084 -0.630617 0.207891 0
M  V30 6756 H 637.614 -1.6551 1.20282 0
M  V30 6757 H 637.624 -4.03206 0.623599 0
M  V30 6758 H 636.299 -3.77439 1.74678 0
M  V30 6759 H 634.876 -3.72805 -0.0841034 0
M  V30 6760 N 637.061 -0.65484 -1.43351 0
M  V30 6761 C 638.289 -0.176685 -2.06144 0
M  V30 6762 C 638.704 1.15831 -1.49093 0
M  V30 6763 O 638.061 1.71542 -0.622868 0
M  V30 6764 C 638.112 -0.0813326 -3.61408 0
M  V30 6765 O 637.833 -1.36355 -4.1634 0
M  V30 6766 C 639.334 0.422706 -4.4128 0
M  V30 6767 H 636.554 -0.0906429 -0.66485 0
M  V30 6768 H 639.098 -0.895945 -1.83829 0
M  V30 6769 H 637.253 0.588496 -3.82904 0
M  V30 6770 H 637.667 -1.22381 -5.10023 0
M  V30 6771 H 639.141 0.438375 -5.50257 0
M  V30 6772 H 639.618 1.45432 -4.14423 0
M  V30 6773 H 640.224 -0.214687 -4.24758 0
M  V30 6774 N 638.539 1.52521 -0.396863 0
M  V30 6775 C 639.486 2.26671 0.434624 0
M  V30 6776 C 640.456 1.28584 1.05144 0
M  V30 6777 O 641.641 1.57426 1.07804 0
M  V30 6778 C 638.781 3.08234 1.55196 0
M  V30 6779 C 637.894 4.21261 0.957262 0
M  V30 6780 C 637.029 4.90205 2.04627 0
M  V30 6781 C 636.068 5.95213 1.42787 0
M  V30 6782 N 635.205 6.57723 2.45651 0
M  V30 6783 H 640.045 2.973 -0.204139 0
M  V30 6784 H 637.582 1.46669 -0.112505 0
M  V30 6785 H 639.54 3.53819 2.2106 0
M  V30 6786 H 638.17 2.398 2.16092 0
M  V30 6787 H 637.222 3.79935 0.188005 0
M  V30 6788 H 638.534 4.96624 0.465416 0
M  V30 6789 H 637.688 5.39133 2.78246 0
M  V30 6790 H 636.427 4.14383 2.57174 0
M  V30 6791 H 635.432 5.45616 0.676968 0
M  V30 6792 H 636.657 6.72972 0.910255 0
M  V30 6793 H 634.603 5.84737 2.97353 0
M  V30 6794 H 634.52 7.28723 2.01243 0
M  V30 6795 H 635.788 7.11293 3.18876 0
M  V30 6796 N 640.017 0.126909 1.57088 0
M  V30 6797 C 640.964 -0.82036 2.15728 0
M  V30 6798 C 641.934 -1.25811 1.08447 0
M  V30 6799 O 643.119 -1.33422 1.36393 0
M  V30 6800 C 640.259 -2.06199 2.76724 0
M  V30 6801 C 639.372 -1.67188 3.98337 0
M  V30 6802 C 638.507 -2.86378 4.47393 0
M  V30 6803 C 637.546 -2.43644 5.61519 0
M  V30 6804 N 636.683 -3.55775 6.05284 0
M  V30 6805 H 641.523 -0.313472 2.96347 0
M  V30 6806 H 639.06 -0.14303 1.46403 0
M  V30 6807 H 641.018 -2.78959 3.10222 0
M  V30 6808 H 639.648 -2.54333 1.98782 0
M  V30 6809 H 638.7 -0.842714 3.70948 0
M  V30 6810 H 640.012 -1.31789 4.81075 0
M  V30 6811 H 639.166 -3.67353 4.82842 0
M  V30 6812 H 637.905 -3.25009 3.63621 0
M  V30 6813 H 636.91 -1.61104 5.25667 0
M  V30 6814 H 638.135 -2.06122 6.47063 0
M  V30 6815 H 636.081 -3.94065 5.24451 0
M  V30 6816 H 635.998 -3.24325 6.82898 0
M  V30 6817 H 637.266 -4.37166 6.45373 0
M  V30 6818 N 641.495 -1.56914 -0.146875 0
M  V30 6819 C 642.405 -2.0154 -1.20079 0
M  V30 6820 C 643.421 -0.930838 -1.47008 0
M  V30 6821 O 644.597 -1.24032 -1.58676 0
M  V30 6822 C 641.662 -2.38715 -2.51428 0
M  V30 6823 C 640.723 -3.6112 -2.32145 0
M  V30 6824 C 639.956 -3.96512 -3.57231 0
M  V30 6825 O 640.179 -3.32566 -4.63418 0
M  V30 6826 O 639.113 -4.89758 -3.49887 0
M  V30 6827 H 642.939 -2.91506 -0.851924 0
M  V30 6828 H 640.524 -1.45106 -0.355607 0
M  V30 6829 H 642.406 -2.63485 -3.28867 0
M  V30 6830 H 641.081 -1.51903 -2.85845 0
M  V30 6831 H 639.988 -3.41536 -1.52656 0
M  V30 6832 H 641.321 -4.48549 -2.02644 0
M  V30 6833 N 642.974 0.416227 -1.52004 0
M  V30 6834 C 644.22 1.16555 -1.6596 0
M  V30 6835 C 644.553 1.90347 -0.384906 0
M  V30 6836 O 643.828 1.84474 0.616405 0
M  V30 6837 C 644.111 2.1657 -2.87696 0
M  V30 6838 C 643.964 1.46722 -4.25197 0
M  V30 6839 C 645.283 3.17321 -3.04951 0
M  V30 6840 H 642.402 0.422369 -0.603965 0
M  V30 6841 H 645.044 0.452141 -1.84542 0
M  V30 6842 H 643.194 2.77411 -2.71985 0
M  V30 6843 H 644.866 0.89056 -4.52622 0
M  V30 6844 H 643.109 0.769263 -4.26925 0
M  V30 6845 H 643.78 2.19665 -5.0641 0
M  V30 6846 H 646.256 2.66552 -3.19514 0
M  V30 6847 H 645.132 3.84573 -3.91656 0
M  V30 6848 H 645.393 3.84643 -2.17951 0
M  V30 6849 N 644.452 1.42507 0.673017 0
M  V30 6850 C 645.362 1.4853 1.81593 0
M  V30 6851 C 646.378 0.373907 1.69935 0
M  V30 6852 O 647.554 0.625078 1.91454 0
M  V30 6853 C 644.619 1.387 3.17747 0
M  V30 6854 C 643.68 2.60346 3.41348 0
M  V30 6855 C 642.913 2.50975 4.71007 0
M  V30 6856 O 643.136 1.54659 5.49033 0
M  V30 6857 O 642.07 3.41138 4.95892 0
M  V30 6858 H 645.896 2.45001 1.79467 0
M  V30 6859 H 643.481 1.2429 0.82899 0
M  V30 6860 H 645.363 1.35586 3.98992 0
M  V30 6861 H 644.038 0.453555 3.20507 0
M  V30 6862 H 642.945 2.69034 2.59945 0
M  V30 6863 H 644.278 3.52595 3.43421 0
M  V30 6864 N 645.93 -0.909495 1.28709 0
M  V30 6865 C 646.877 -2.01245 1.13 0
M  V30 6866 C 647.847 -1.6608 0.0259684 0
M  V30 6867 O 649.032 -1.89835 0.191687 0
M  V30 6868 C 646.172 -3.35644 0.802315 0
M  V30 6869 C 645.285 -3.83653 1.98582 0
M  V30 6870 C 644.42 -5.06582 1.59837 0
M  V30 6871 C 643.459 -5.46934 2.74827 0
M  V30 6872 N 642.596 -6.61053 2.36546 0
M  V30 6873 H 647.436 -2.14013 2.0737 0
M  V30 6874 H 644.973 -1.0482 1.03205 0
M  V30 6875 H 646.931 -4.12963 0.593057 0
M  V30 6876 H 645.561 -3.22631 -0.104457 0
M  V30 6877 H 644.613 -3.02454 2.30708 0
M  V30 6878 H 645.925 -4.09515 2.84779 0
M  V30 6879 H 645.079 -5.91457 1.35143 0
M  V30 6880 H 643.818 -4.82537 0.707753 0
M  V30 6881 H 642.823 -4.60599 3.00215 0
M  V30 6882 H 644.048 -5.72965 3.64538 0
M  V30 6883 H 641.994 -6.3863 1.49959 0
M  V30 6884 H 641.911 -6.86662 3.16277 0
M  V30 6885 H 643.179 -7.49221 2.15146 0
M  V30 6886 N 647.408 -1.11026 -1.11852 0
M  V30 6887 C 648.341 -0.708501 -2.16923 0
M  V30 6888 C 649.319 0.293196 -1.59935 0
M  V30 6889 O 650.503 0.190641 -1.87533 0
M  V30 6890 C 647.63 -0.0463705 -3.38668 0
M  V30 6891 C 646.676 -1.01252 -4.14307 0
M  V30 6892 S 647.509 -2.53291 -4.71809 0
M  V30 6893 C 648.665 -1.88366 -5.96883 0
M  V30 6894 H 648.898 -1.59854 -2.50667 0
M  V30 6895 H 646.431 -0.927869 -1.2341 0
M  V30 6896 H 648.389 0.329314 -4.09177 0
M  V30 6897 H 647.05 0.820562 -3.03192 0
M  V30 6898 H 646.243 -0.496596 -5.01548 0
M  V30 6899 H 645.845 -1.33042 -3.49537 0
M  V30 6900 H 648.137 -1.21753 -6.6647 0
M  V30 6901 H 649.08 -2.73588 -6.53112 0
M  V30 6902 H 649.488 -1.34562 -5.48227 0
M  V30 6903 N 648.886 1.2938 -0.899927 0
M  V30 6904 C 649.834 2.29675 -0.367698 0
M  V30 6905 C 650.828 1.60787 0.533282 0
M  V30 6906 O 652.034 1.75126 0.416058 0
M  V30 6907 H 648.409 0.745284 -0.100279 0
M  V30 6908 H 650.38 2.72008 -1.22696 0
M  V30 6909 C 649.129 3.45512 0.389483 0
M  V30 6910 H 648.452 3.98713 -0.294575 0
M  V30 6911 H 649.892 4.17725 0.726744 0
M  V30 6912 C 648.351 2.969 1.59223 0
M  V30 6913 O 648.881 2.98195 2.69152 0
M  V30 6914 N 647.087 2.52728 1.43447 0
M  V30 6915 H 646.634 2.51873 0.540148 0
M  V30 6916 H 646.592 2.20561 2.24054 0
M  V30 6917 N 650.364 0.662433 1.43002 0
M  V30 6918 C 651.311 -0.0235324 2.30788 0
M  V30 6919 C 652.281 -0.805342 1.4527 0
M  V30 6920 O 653.466 -0.78009 1.74124 0
M  V30 6921 C 650.606 -0.977545 3.30965 0
M  V30 6922 C 649.719 -0.190865 4.31578 0
M  V30 6923 C 648.854 -1.13951 5.18834 0
M  V30 6924 C 647.893 -0.343796 6.11134 0
M  V30 6925 N 647.03 -1.2445 6.90982 0
M  V30 6926 H 651.87 0.730921 2.88897 0
M  V30 6927 H 649.407 0.372197 1.42313 0
M  V30 6928 H 651.365 -1.54437 3.87563 0
M  V30 6929 H 649.995 -1.69877 2.74484 0
M  V30 6930 H 649.047 0.492388 3.772 0
M  V30 6931 H 650.359 0.427464 4.96965 0
M  V30 6932 H 649.513 -1.77666 5.80103 0
M  V30 6933 H 648.252 -1.79174 4.53595 0
M  V30 6934 H 647.257 0.30665 5.48944 0
M  V30 6935 H 648.482 0.304161 6.78419 0
M  V30 6936 H 646.428 -1.88336 6.28383 0
M  V30 6937 H 646.345 -0.680959 7.52927 0
M  V30 6938 H 647.613 -1.86952 7.56749 0
M  V30 6939 N 651.842 -1.52309 0.404946 0
M  V30 6940 C 652.789 -2.26898 -0.422597 0
M  V30 6941 C 653.759 -1.2914 -1.04461 0
M  V30 6942 O 654.944 -1.57996 -1.06967 0
M  V30 6943 C 652.084 -3.09053 -1.53559 0
M  V30 6944 C 651.197 -4.21762 -0.934908 0
M  V30 6945 C 650.332 -4.91283 -2.02025 0
M  V30 6946 C 649.371 -5.95962 -1.39628 0
M  V30 6947 N 648.508 -6.59017 -2.42159 0
M  V30 6948 H 653.348 -2.97188 0.219903 0
M  V30 6949 H 650.885 -1.46607 0.120282 0
M  V30 6950 H 652.843 -3.54987 -2.19181 0
M  V30 6951 H 651.473 -2.40942 -2.14818 0
M  V30 6952 H 650.525 -3.80029 -0.167854 0
M  V30 6953 H 651.837 -4.96864 -0.439073 0
M  V30 6954 H 650.991 -5.40601 -2.75383 0
M  V30 6955 H 649.73 -4.15741 -2.54973 0
M  V30 6956 H 648.735 -5.45968 -0.648023 0
M  V30 6957 H 649.96 -6.73445 -0.874553 0
M  V30 6958 H 647.906 -5.86306 -2.94247 0
M  V30 6959 H 647.823 -7.2978 -1.97376 0
M  V30 6960 H 649.091 -7.12974 -3.15099 0
M  V30 6961 N 653.32 -0.135238 -1.57019 0
M  V30 6962 C 654.253 0.846618 -2.11914 0
M  V30 6963 C 655.231 1.25019 -1.03966 0
M  V30 6964 O 656.415 1.34838 -1.31723 0
M  V30 6965 C 653.542 2.1352 -2.6292 0
M  V30 6966 C 652.588 1.87846 -3.82905 0
M  V30 6967 S 653.421 1.08005 -5.24495 0
M  V30 6968 C 654.577 2.38008 -5.78881 0
M  V30 6969 H 654.81 0.379752 -2.94865 0
M  V30 6970 H 652.343 0.0788387 -1.54199 0
M  V30 6971 H 654.301 2.87551 -2.92958 0
M  V30 6972 H 652.962 2.57323 -1.80121 0
M  V30 6973 H 652.155 2.83365 -4.16797 0
M  V30 6974 H 651.757 1.21929 -3.53567 0
M  V30 6975 H 654.049 3.33742 -5.89595 0
M  V30 6976 H 654.992 2.08638 -6.76665 0
M  V30 6977 H 655.4 2.48119 -5.07048 0
M  V30 6978 N 654.798 1.5699 0.138552 0
M  V30 6979 C 655.708 2.02174 1.19008 0
M  V30 6980 C 656.724 0.938622 1.46512 0
M  V30 6981 O 657.9 1.24872 1.58016 0
M  V30 6982 C 654.965 2.40045 2.50159 0
M  V30 6983 C 654.026 3.62346 2.30226 0
M  V30 6984 C 653.259 3.98401 3.55123 0
M  V30 6985 O 653.482 3.35019 4.61647 0
M  V30 6986 O 652.416 4.91606 3.47285 0
M  V30 6987 H 656.242 2.91954 0.836452 0
M  V30 6988 H 653.827 1.45293 0.347907 0
M  V30 6989 H 655.709 2.65225 3.27465 0
M  V30 6990 H 654.384 1.53417 2.85035 0
M  V30 6991 H 653.291 3.42341 1.50843 0
M  V30 6992 H 654.624 4.49617 2.00262 0
M  V30 6993 N 656.276 -0.40816 1.52223 0
M  V30 6994 C 657.186 -1.52202 1.78526 0
M  V30 6995 C 658.202 -1.60546 0.670892 0
M  V30 6996 O 659.378 -1.77242 0.956404 0
M  V30 6997 C 656.443 -2.87928 1.93128 0
M  V30 6998 C 655.504 -2.89463 3.17033 0
M  V30 6999 C 654.737 -4.18715 3.30929 0
M  V30 7000 O 654.96 -5.12662 2.50067 0
M  V30 7001 O 653.894 -4.27125 4.24084 0
M  V30 7002 H 657.72 -1.32911 2.73072 0
M  V30 7003 H 655.305 -0.594112 1.37079 0
M  V30 7004 H 657.187 -3.68426 2.04549 0
M  V30 7005 H 655.862 -3.07285 1.01772 0
M  V30 7006 H 654.769 -2.07815 3.11069 0
M  V30 7007 H 656.102 -2.75055 4.08174 0
M  V30 7008 N 657.755 -1.42862 -0.66545 0
M  V30 7009 C 659.001 -1.44043 -1.42757 0
M  V30 7010 C 659.334 -0.0599629 -1.94107 0
M  V30 7011 O 658.609 0.917286 -1.71511 0
M  V30 7012 C 658.892 -2.47266 -2.61786 0
M  V30 7013 C 658.745 -3.94539 -2.16007 0
M  V30 7014 C 660.064 -2.47365 -3.64003 0
M  V30 7015 H 657.183 -0.524506 -0.517748 0
M  V30 7016 H 659.825 -1.74335 -0.755466 0
M  V30 7017 H 657.975 -2.21565 -3.19126 0
M  V30 7018 H 659.647 -4.31254 -1.63762 0
M  V30 7019 H 657.89 -4.07957 -1.47491 0
M  V30 7020 H 658.561 -4.62357 -3.01546 0
M  V30 7021 H 661.037 -2.70243 -3.16399 0
M  V30 7022 H 659.913 -3.21552 -4.44854 0
M  V30 7023 H 660.174 -1.50299 -4.15767 0
M  V30 7024 N 659.233 0.902656 -1.29189 0
M  V30 7025 C 660.18 2.00643 -1.14066 0
M  V30 7026 C 661.15 1.66064 -0.0347756 0
M  V30 7027 O 662.335 1.8973 -0.201752 0
M  V30 7028 C 659.475 3.35214 -0.820104 0
M  V30 7029 C 658.588 3.82594 -2.00614 0
M  V30 7030 C 657.723 5.05727 -1.62522 0
M  V30 7031 C 656.762 5.45469 -2.77724 0
M  V30 7032 N 655.899 6.59789 -2.40048 0
M  V30 7033 H 660.739 2.1291 -2.08502 0
M  V30 7034 H 658.276 1.04271 -1.03759 0
M  V30 7035 H 660.234 4.12643 -0.614949 0
M  V30 7036 H 658.864 3.22682 0.0873452 0
M  V30 7037 H 657.916 3.01226 -2.32308 0
M  V30 7038 H 659.228 4.07999 -2.86946 0
M  V30 7039 H 658.382 5.90732 -1.38277 0
M  V30 7040 H 657.121 4.82155 -0.733333 0
M  V30 7041 H 656.126 4.59 -3.02653 0
M  V30 7042 H 657.351 5.71024 -3.67572 0
M  V30 7043 H 655.297 6.37826 -1.53343 0
M  V30 7044 H 655.214 6.84975 -3.19914 0
M  V30 7045 H 656.482 7.4807 -2.19116 0
M  V30 7046 N 660.711 1.11618 1.11262 0
M  V30 7047 C 661.621 0.78898 2.20935 0
M  V30 7048 C 662.637 -0.21867 1.7262 0
M  V30 7049 O 663.813 -0.0543826 2.01327 0
M  V30 7050 C 660.878 0.239014 3.45875 0
M  V30 7051 C 659.939 1.3055 4.08968 0
M  V30 7052 C 659.172 0.781687 5.27944 0
M  V30 7053 O 659.395 -0.387605 5.69082 0
M  V30 7054 O 658.329 1.54734 5.81671 0
M  V30 7055 H 662.155 1.70477 2.51339 0
M  V30 7056 H 659.74 0.892203 1.19834 0
M  V30 7057 H 661.622 -0.0632312 4.21353 0
M  V30 7058 H 660.297 -0.649454 3.17118 0
M  V30 7059 H 659.204 1.66079 3.35214 0
M  V30 7060 H 660.537 2.16743 4.41909 0
M  V30 7061 N 662.189 -1.289 0.906776 0
M  V30 7062 C 663.152 -2.25777 0.394656 0
M  V30 7063 C 664.152 -1.53621 -0.475119 0
M  V30 7064 O 665.342 -1.71949 -0.279165 0
M  V30 7065 C 662.474 -3.38113 -0.43499 0
M  V30 7066 H 663.667 -2.72592 1.25033 0
M  V30 7067 H 661.22 -1.40463 0.685547 0
M  V30 7068 H 661.955 -2.96648 -1.31036 0
M  V30 7069 H 661.74 -3.91647 0.188334 0
M  V30 7070 H 663.23 -4.10168 -0.784365 0
M  V30 7071 N 663.667 -0.670007 -1.42649 0
M  V30 7072 C 664.615 0.0230106 -2.32589 0
M  V30 7073 C 665.609 0.795585 -1.49555 0
M  V30 7074 O 666.815 0.70409 -1.65658 0
M  V30 7075 H 663.19 0.0262342 -0.751542 0
M  V30 7076 H 665.161 -0.753009 -2.88743 0
M  V30 7077 C 663.91 0.963872 -3.34073 0
M  V30 7078 H 663.233 0.378813 -3.98001 0
M  V30 7079 H 664.673 1.41755 -3.99602 0
M  V30 7080 C 663.132 2.06797 -2.65964 0
M  V30 7081 O 663.662 3.15383 -2.48789 0
M  V30 7082 N 661.868 1.83831 -2.25066 0
M  V30 7083 H 661.415 0.955235 -2.39234 0
M  V30 7084 H 661.373 2.57895 -1.79827 0
M  V30 7085 N 665.145 1.52092 -0.413018 0
M  V30 7086 C 666.394 2.01041 0.16287 0
M  V30 7087 C 666.707 1.30288 1.45892 0
M  V30 7088 O 667.913 1.70075 2.11629 0
M  V30 7089 C 666.369 3.58283 0.340806 0
M  V30 7090 C 665.977 4.37955 -0.943377 0
M  V30 7091 C 667.721 4.15452 0.871774 0
M  V30 7092 C 665.628 5.86847 -0.732417 0
M  V30 7093 H 664.558 0.751224 0.0646414 0
M  V30 7094 H 667.209 1.75404 -0.539059 0
M  V30 7095 H 665.591 3.80266 1.10516 0
M  V30 7096 H 666.765 4.2773 -1.71418 0
M  V30 7097 H 665.08 3.92122 -1.40105 0
M  V30 7098 H 667.677 5.24375 1.0457 0
M  V30 7099 H 668.02 3.73057 1.84755 0
M  V30 7100 H 668.553 3.97452 0.166377 0
M  V30 7101 H 665.292 6.33609 -1.67986 0
M  V30 7102 H 664.812 5.998 -0.000980058 0
M  V30 7103 H 666.491 6.45906 -0.376105 0
M  V30 7104 N 666.623 0.143563 1.56945 0
M  V30 7105 C 668.039 -0.212877 1.58174 0
M  V30 7106 C 668.239 -1.64926 1.15766 0
M  V30 7107 O 667.295 -2.37535 0.856361 0
M  V30 7108 C 668.608 0.0427573 3.0067 0
M  V30 7109 C 670.156 -0.0212221 3.12993 0
M  V30 7110 C 670.631 0.207036 4.57532 0
M  V30 7111 N 672.122 0.153845 4.62944 0
M  V30 7112 C 672.857 0.305018 5.72588 0
M  V30 7113 N 672.353 0.513722 6.90893 0
M  V30 7114 N 674.146 0.242862 5.61575 0
M  V30 7115 H 666.297 1.08148 1.82805 0
M  V30 7116 H 668.56 0.427831 0.84597 0
M  V30 7117 H 668.266 1.03672 3.36073 0
M  V30 7118 H 668.14 -0.678195 3.71053 0
M  V30 7119 H 670.527 -1.00574 2.77433 0
M  V30 7120 H 670.608 0.732004 2.45103 0
M  V30 7121 H 670.252 1.18863 4.93795 0
M  V30 7122 H 670.182 -0.566473 5.23544 0
M  V30 7123 H 672.673 -0.00294866 3.779 0
M  V30 7124 H 672.986 0.619273 7.70315 0
M  V30 7125 H 671.331 0.550001 6.9282 0
M  V30 7126 H 674.522 0.0806015 4.68031 0
M  V30 7127 H 674.695 0.364112 6.46976 0
M  V30 7128 N 668.101 -1.57061 -0.130224 0
M  V30 7129 C 669.347 -1.8453 -0.841216 0
M  V30 7130 C 669.68 -0.727666 -1.80052 0
M  V30 7131 O 668.955 0.267419 -1.92653 0
M  V30 7132 C 669.238 -3.22553 -1.60099 0
M  V30 7133 C 669.091 -4.44901 -0.662048 0
M  V30 7134 C 670.41 -3.58003 -2.55973 0
M  V30 7135 H 667.529 -0.671215 -0.304366 0
M  V30 7136 H 670.171 -1.89705 -0.105821 0
M  V30 7137 H 668.321 -3.18272 -2.22789 0
M  V30 7138 H 669.993 -4.61278 -0.0448559 0
M  V30 7139 H 668.236 -4.33791 0.0272253 0
M  V30 7140 H 668.907 -5.3812 -1.23006 0
M  V30 7141 H 671.383 -3.63002 -2.03393 0
M  V30 7142 H 670.259 -4.55576 -3.06172 0
M  V30 7143 H 670.52 -2.84833 -3.38116 0
M  V30 7144 N 669.579 0.400081 -1.52437 0
M  V30 7145 C 670.825 1.14788 -1.67187 0
M  V30 7146 C 671.158 1.89928 -0.405074 0
M  V30 7147 O 670.433 1.85118 0.596804 0
M  V30 7148 C 670.716 2.13507 -2.89977 0
M  V30 7149 C 670.569 1.42204 -4.2673 0
M  V30 7150 C 671.888 3.14069 -3.083 0
M  V30 7151 H 669.007 0.415939 -0.608411 0
M  V30 7152 H 671.649 0.432542 -1.85011 0
M  V30 7153 H 669.799 2.7451 -2.74912 0
M  V30 7154 H 671.471 0.842503 -4.53541 0
M  V30 7155 H 669.714 0.723939 -4.27717 0
M  V30 7156 H 670.385 2.14281 -5.08712 0
M  V30 7157 H 672.861 2.63148 -3.22323 0
M  V30 7158 H 671.737 3.80398 -3.95713 0
M  V30 7159 H 671.998 3.82309 -2.22018 0
M  V30 7160 N 671.057 1.43213 0.657864 0
M  V30 7161 C 672.282 1.48227 1.45064 0
M  V30 7162 C 672.707 0.0999939 1.87834 0
M  V30 7163 O 672.065 -0.905269 1.57081 0
M  V30 7164 C 672.113 2.42931 2.6649 0
M  V30 7165 O 671.217 1.91237 3.6538 0
M  V30 7166 H 670.558 0.501551 0.435135 0
M  V30 7167 H 673.088 1.8808 0.805431 0
M  V30 7168 H 673.098 2.6008 3.1436 0
M  V30 7169 H 671.773 3.43348 2.34701 0
M  V30 7170 H 670.35 1.83726 3.24498 0
M  V30 7171 N 672.536 -0.895792 1.29666 0
M  V30 7172 C 673.446 -2.03329 1.17024 0
M  V30 7173 C 674.462 -1.73753 0.0925962 0
M  V30 7174 O 675.638 -1.99071 0.305431 0
M  V30 7175 C 672.703 -3.36072 0.851841 0
M  V30 7176 C 671.764 -3.7914 2.01373 0
M  V30 7177 C 670.997 -5.05549 1.71043 0
M  V30 7178 O 671.22 -5.66874 0.633213 0
M  V30 7179 O 670.154 -5.44764 2.5596 0
M  V30 7180 H 673.98 -2.16918 2.12556 0
M  V30 7181 H 671.565 -1.02007 1.09156 0
M  V30 7182 H 673.447 -4.15729 0.689006 0
M  V30 7183 H 672.122 -3.23616 -0.0736634 0
M  V30 7184 H 671.029 -3.00233 2.23183 0
M  V30 7185 H 672.362 -3.96186 2.92058 0
M  V30 7186 N 674.014 -1.12206 -1.10668 0
M  V30 7187 C 675.291 -0.787382 -1.79052 0
M  V30 7188 C 675.671 0.723267 -1.98323 0
M  V30 7189 O 675.019 1.6561 -1.57434 0
M  V30 7190 C 675.229 -1.55968 -3.1221 0
M  V30 7191 C 676.577 -1.74413 -3.87125 0
M  V30 7192 O 677.601 -1.5246 -3.21923 0
M  V30 7193 O 676.46 -2.10952 -5.04144 0
M  V30 7194 H 673.554 -0.286137 -0.775922 0
M  V30 7195 H 676.1 -1.22595 -1.1734 0
M  V30 7196 H 674.872 -2.58692 -2.93588 0
M  V30 7197 H 674.495 -1.1152 -3.8164 0
M  V30 7198 N 675.492 1.28418 -0.913599 0
M  V30 7199 C 676.739 1.94981 -0.546674 0
M  V30 7200 C 677.067 1.7192 0.909606 0
M  V30 7201 O 676.322 1.03314 1.66207 0
M  V30 7202 C 676.621 3.48283 -0.802099 0
M  V30 7203 C 676.287 3.91444 -2.2379 0
M  V30 7204 C 674.949 4.02939 -2.63046 0
M  V30 7205 C 677.301 4.13542 -3.17227 0
M  V30 7206 C 674.629 4.3391 -3.94891 0
M  V30 7207 C 676.981 4.45992 -4.48636 0
M  V30 7208 C 675.645 4.55698 -4.87746 0
M  V30 7209 H 674.915 0.713487 -0.200042 0
M  V30 7210 H 677.562 1.52756 -1.15489 0
M  V30 7211 H 675.867 3.91643 -0.111076 0
M  V30 7212 H 677.564 3.97903 -0.497375 0
M  V30 7213 H 674.154 3.83024 -1.9233 0
M  V30 7214 H 678.338 4.04114 -2.88107 0
M  V30 7215 H 673.594 4.39631 -4.24894 0
M  V30 7216 H 677.768 4.62038 -5.21051 0
M  V30 7217 H 675.395 4.79451 -5.89942 0
M  V30 7218 N 676.97 0.677563 1.42291 0
M  V30 7219 C 677.9 0.014968 2.33495 0
M  V30 7220 C 678.881 -0.786376 1.50831 0
M  V30 7221 O 680.066 -0.742975 1.79426 0
M  V30 7222 C 677.196 -0.935023 3.34477 0
M  V30 7223 C 676.15 -0.242074 4.27315 0
M  V30 7224 C 675.476 -1.30519 5.18526 0
M  V30 7225 C 676.776 0.880604 5.14823 0
M  V30 7226 H 678.47 0.776671 2.89151 0
M  V30 7227 H 676.016 0.37494 1.39033 0
M  V30 7228 H 677.969 -1.40766 3.97194 0
M  V30 7229 H 676.693 -1.72818 2.77131 0
M  V30 7230 H 675.352 0.210351 3.65996 0
M  V30 7231 H 675 -2.09041 4.57505 0
M  V30 7232 H 674.7 -0.846652 5.81468 0
M  V30 7233 H 676.224 -1.7787 5.84119 0
M  V30 7234 H 677.638 0.489062 5.7121 0
M  V30 7235 H 676.035 1.26511 5.86613 0
M  V30 7236 H 677.105 1.72818 4.53059 0
M  V30 7237 N 678.448 -1.51871 0.421078 0
M  V30 7238 C 679.38 -2.25052 -0.434065 0
M  V30 7239 C 680.393 -1.28458 -1.00013 0
M  V30 7240 O 681.582 -1.54323 -0.897033 0
M  V30 7241 C 678.682 -2.97813 -1.61743 0
M  V30 7242 C 677.855 -4.21374 -1.17315 0
M  V30 7243 C 676.914 -4.76854 -2.22478 0
M  V30 7244 O 675.94 -5.39123 -1.82577 0
M  V30 7245 N 677.142 -4.59467 -3.54782 0
M  V30 7246 H 679.907 -2.99077 0.193073 0
M  V30 7247 H 677.468 -1.59972 0.249088 0
M  V30 7248 H 679.46 -3.3182 -2.31685 0
M  V30 7249 H 678.03 -2.26899 -2.15024 0
M  V30 7250 H 677.25 -3.93046 -0.3014 0
M  V30 7251 H 678.538 -5.01591 -0.853444 0
M  V30 7252 H 677.936 -4.09832 -3.89941 0
M  V30 7253 H 676.493 -4.9788 -4.20665 0
M  V30 7254 N 679.926 -0.151884 -1.56866 0
M  V30 7255 C 681.203 0.543328 -1.87902 0
M  V30 7256 C 681.583 1.82636 -1.05864 0
M  V30 7257 O 680.931 2.28028 -0.146868 0
M  V30 7258 C 681.141 0.804056 -3.39611 0
M  V30 7259 C 682.489 1.14267 -4.08935 0
M  V30 7260 O 683.513 0.893248 -3.44818 0
M  V30 7261 O 682.372 1.61229 -5.22176 0
M  V30 7262 H 679.466 0.277724 -0.778973 0
M  V30 7263 H 682.012 -0.188862 -1.68646 0
M  V30 7264 H 680.784 -0.103772 -3.91162 0
M  V30 7265 H 680.407 1.59025 -3.64413 0
M  V30 7266 N 681.404 1.57128 0.121893 0
M  V30 7267 C 682.65 1.84974 0.831418 0
M  V30 7268 C 682.983 0.737204 1.79663 0
M  V30 7269 O 682.258 -0.257199 1.92792 0
M  V30 7270 C 682.541 3.23397 1.58386 0
M  V30 7271 C 682.394 4.45246 0.638445 0
M  V30 7272 C 683.713 3.59355 2.54071 0
M  V30 7273 H 680.832 0.67282 0.300803 0
M  V30 7274 H 683.474 1.89759 0.0957587 0
M  V30 7275 H 681.624 3.19449 2.21098 0
M  V30 7276 H 683.296 4.61295 0.0203925 0
M  V30 7277 H 681.539 4.33771 -0.05023 0
M  V30 7278 H 682.21 5.38765 1.20151 0
M  V30 7279 H 684.686 3.64075 2.01465 0
M  V30 7280 H 683.562 4.57193 3.03752 0
M  V30 7281 H 683.823 2.86622 3.36601 0
M  V30 7282 N 682.882 -0.391992 1.52647 0
M  V30 7283 C 684.107 -1.16312 1.71716 0
M  V30 7284 C 684.532 -1.83042 0.433279 0
M  V30 7285 O 683.89 -1.70705 -0.610707 0
M  V30 7286 C 683.938 -2.18908 2.86551 0
M  V30 7287 O 683.042 -3.2543 2.53316 0
M  V30 7288 H 682.383 -0.338743 0.571095 0
M  V30 7289 H 684.913 -0.457202 1.99426 0
M  V30 7290 H 684.923 -2.62954 3.1196 0
M  V30 7291 H 683.598 -1.69726 3.79692 0
M  V30 7292 H 682.175 -2.86543 2.38637 0
M  V30 7293 N 684.36 -1.4356 -0.65026 0
M  V30 7294 C 685.323 -1.48615 -1.74489 0
M  V30 7295 C 686.323 -0.370483 -1.56474 0
M  V30 7296 O 687.513 -0.632351 -1.62317 0
M  V30 7297 C 684.645 -1.34161 -3.13391 0
M  V30 7298 H 685.838 -2.46103 -1.71387 0
M  V30 7299 H 683.391 -1.30369 -0.862186 0
M  V30 7300 H 684.126 -0.376918 -3.22102 0
M  V30 7301 H 683.911 -2.1504 -3.27872 0
M  V30 7302 H 685.401 -1.40637 -3.93206 0
M  V30 7303 N 685.838 0.888903 -1.30139 0
M  V30 7304 C 687.063 1.67884 -1.21777 0
M  V30 7305 C 687.488 1.86848 0.216689 0
M  V30 7306 O 686.846 1.39659 1.15608 0
M  V30 7307 C 686.894 3.03483 -1.94757 0
M  V30 7308 O 685.998 3.92294 -1.27198 0
M  V30 7309 H 685.339 0.513144 -0.421402 0
M  V30 7310 H 687.869 1.10968 -1.71893 0
M  V30 7311 H 687.879 3.53553 -2.03627 0
M  V30 7312 H 686.554 2.89 -2.99085 0
M  V30 7313 H 685.131 3.50732 -1.26655 0
M  V30 7314 N 687.317 1.12792 1.10072 0
M  V30 7315 C 688.545 0.908506 1.85886 0
M  V30 7316 C 688.96 -0.542408 1.80841 0
M  V30 7317 O 688.317 -1.37517 1.1998 0
M  V30 7318 C 688.368 1.37973 3.34134 0
M  V30 7319 O 688.089 2.77378 3.39106 0
M  V30 7320 C 689.59 1.1978 4.26811 0
M  V30 7321 H 686.81 0.3244 0.587372 0
M  V30 7322 H 689.354 1.49882 1.39125 0
M  V30 7323 H 687.509 0.832566 3.78348 0
M  V30 7324 H 687.923 2.98144 4.31521 0
M  V30 7325 H 689.397 1.57635 5.29014 0
M  V30 7326 H 689.874 0.138768 4.38981 0
M  V30 7327 H 690.48 1.73266 3.88406 0
M  V30 7328 N 688.795 -1.27931 0.920396 0
M  V30 7329 C 689.742 -2.27085 0.412422 0
M  V30 7330 C 690.712 -1.57858 -0.516725 0
M  V30 7331 O 691.897 -1.85717 -0.437475 0
M  V30 7332 C 689.037 -3.43466 -0.335399 0
M  V30 7333 C 688.15 -4.27425 0.627017 0
M  V30 7334 C 687.285 -5.31016 -0.139916 0
M  V30 7335 C 686.324 -6.06641 0.815683 0
M  V30 7336 N 685.461 -7.02052 0.0818439 0
M  V30 7337 H 690.301 -2.69913 1.26298 0
M  V30 7338 H 687.838 -1.32732 0.634076 0
M  V30 7339 H 689.796 -4.09744 -0.785226 0
M  V30 7340 H 688.426 -3.01611 -1.15025 0
M  V30 7341 H 687.478 -3.6113 1.19537 0
M  V30 7342 H 688.79 -4.79969 1.35763 0
M  V30 7343 H 687.944 -6.03208 -0.649998 0
M  V30 7344 H 686.683 -4.79257 -0.903543 0
M  V30 7345 H 685.688 -5.33294 1.33708 0
M  V30 7346 H 686.913 -6.60489 1.57897 0
M  V30 7347 H 684.859 -6.52634 -0.663671 0
M  V30 7348 H 684.776 -7.52249 0.752163 0
M  V30 7349 H 686.044 -7.78432 -0.407825 0
M  V30 7350 N 690.273 -0.685099 -1.4193 0
M  V30 7351 C 691.498 -0.218842 -2.06242 0
M  V30 7352 C 691.923 1.11923 -1.51178 0
M  V30 7353 O 691.281 1.69837 -0.634446 0
M  V30 7354 C 691.329 -0.175592 -3.60172 0
M  V30 7355 O 690.433 0.852776 -4.03487 0
M  V30 7356 H 689.774 -0.109531 -0.654904 0
M  V30 7357 H 692.304 -0.937013 -1.81882 0
M  V30 7358 H 692.314 -0.00291151 -4.08 0
M  V30 7359 H 690.989 -1.15222 -3.99621 0
M  V30 7360 H 689.566 0.650301 -3.67186 0
M  V30 7361 N 691.751 1.51645 -0.429126 0
M  V30 7362 C 692.681 2.30434 0.377148 0
M  V30 7363 C 693.662 1.35493 1.02838 0
M  V30 7364 O 694.847 1.6441 1.03359 0
M  V30 7365 C 691.977 3.14038 1.48315 0
M  V30 7366 C 690.931 4.1719 0.955855 0
M  V30 7367 C 690.257 4.89263 2.15698 0
M  V30 7368 C 691.557 5.223 -0.00402136 0
M  V30 7369 H 693.251 2.98085 -0.280336 0
M  V30 7370 H 690.797 1.43354 -0.136265 0
M  V30 7371 H 692.75 3.67933 2.05435 0
M  V30 7372 H 691.474 2.44193 2.16881 0
M  V30 7373 H 690.133 3.64335 0.406929 0
M  V30 7374 H 689.781 4.15929 2.82864 0
M  V30 7375 H 689.481 5.59009 1.81059 0
M  V30 7376 H 691.005 5.45978 2.73387 0
M  V30 7377 H 692.419 5.71315 0.476607 0
M  V30 7378 H 690.816 5.99525 -0.26258 0
M  V30 7379 H 691.886 4.75638 -0.943236 0
M  V30 7380 N 693.229 0.160201 1.56784 0
M  V30 7381 C 694.161 -0.80564 2.14574 0
M  V30 7382 C 695.174 -1.20154 1.09849 0
M  V30 7383 O 696.363 -1.14333 1.37078 0
M  V30 7384 C 693.463 -2.09434 2.6644 0
M  V30 7385 C 692.636 -1.86375 3.95706 0
M  V30 7386 C 691.695 -2.99358 4.32749 0
M  V30 7387 O 690.721 -2.70475 5.00831 0
M  V30 7388 N 691.923 -4.26867 3.93402 0
M  V30 7389 H 694.688 -0.311644 2.98075 0
M  V30 7390 H 692.249 -0.0229465 1.61884 0
M  V30 7391 H 694.241 -2.84091 2.88226 0
M  V30 7392 H 692.811 -2.50057 1.8759 0
M  V30 7393 H 692.031 -0.956821 3.82412 0
M  V30 7394 H 693.319 -1.68322 4.80151 0
M  V30 7395 H 692.717 -4.53197 3.38569 0
M  V30 7396 H 691.274 -4.98263 4.20211 0
M  V30 7397 N 694.707 -1.5719 -0.113559 0
M  V30 7398 C 695.617 -2.04041 -1.15777 0
M  V30 7399 C 696.633 -0.961812 -1.45001 0
M  V30 7400 O 697.809 -1.2737 -1.56009 0
M  V30 7401 C 694.874 -2.43994 -2.46308 0
M  V30 7402 C 693.935 -3.65962 -2.24433 0
M  V30 7403 C 693.168 -4.04 -3.4874 0
M  V30 7404 O 693.391 -3.42321 -4.56259 0
M  V30 7405 O 692.325 -4.97069 -3.3942 0
M  V30 7406 H 696.151 -2.93248 -0.789899 0
M  V30 7407 H 693.736 -1.45828 -0.324748 0
M  V30 7408 H 695.618 -2.70401 -3.23204 0
M  V30 7409 H 694.293 -1.57932 -2.82558 0
M  V30 7410 H 693.2 -3.44697 -1.45377 0
M  V30 7411 H 694.533 -4.52746 -1.93084 0
M  V30 7412 N 696.185 0.383891 -1.52853 0
M  V30 7413 C 697.115 1.47559 -1.80965 0
M  V30 7414 C 698.096 1.5669 -0.661986 0
M  V30 7415 O 699.281 1.71556 -0.910072 0
M  V30 7416 C 696.411 2.85114 -1.98312 0
M  V30 7417 C 695.365 2.9082 -3.14019 0
M  V30 7418 C 694.691 4.30873 -3.16627 0
M  V30 7419 C 695.991 2.60001 -4.52986 0
M  V30 7420 H 697.685 1.24283 -2.72386 0
M  V30 7421 H 695.231 0.596445 -1.31067 0
M  V30 7422 H 697.184 3.61496 -2.16561 0
M  V30 7423 H 695.908 3.09738 -1.03585 0
M  V30 7424 H 694.567 2.16886 -2.9556 0
M  V30 7425 H 694.215 4.52545 -2.19573 0
M  V30 7426 H 693.915 4.3561 -3.94357 0
M  V30 7427 H 695.439 5.09154 -3.37038 0
M  V30 7428 H 696.853 3.261 -4.71521 0
M  V30 7429 H 695.25 2.76081 -5.32822 0
M  V30 7430 H 696.32 1.5532 -4.59351 0
M  V30 7431 N 697.663 1.43903 0.642637 0
M  V30 7432 C 698.91 1.46079 1.40239 0
M  V30 7433 C 699.238 0.0890335 1.94296 0
M  V30 7434 O 698.493 -0.907533 1.73385 0
M  V30 7435 C 698.792 2.45907 2.59354 0
M  V30 7436 C 698.458 3.91522 2.23654 0
M  V30 7437 C 697.12 4.31179 2.1363 0
M  V30 7438 C 699.472 4.83242 1.95261 0
M  V30 7439 C 696.8 5.60495 1.73384 0
M  V30 7440 C 699.152 6.12933 1.56511 0
M  V30 7441 C 697.816 6.51556 1.4502 0
M  V30 7442 H 697.086 0.534542 0.513172 0
M  V30 7443 H 699.733 1.77047 0.72984 0
M  V30 7444 H 698.038 2.08381 3.3179 0
M  V30 7445 H 699.735 2.44842 3.17574 0
M  V30 7446 H 696.325 3.60142 2.32369 0
M  V30 7447 H 700.509 4.53367 2.0192 0
M  V30 7448 H 695.765 5.89249 1.63082 0
M  V30 7449 H 699.939 6.83469 1.33576 0
M  V30 7450 H 697.566 7.51663 1.13606 0
M  V30 7451 N 699.141 -0.881989 1.30609 0
M  V30 7452 C 700.071 -2.00413 1.1982 0
M  V30 7453 C 701.052 -1.69871 0.0881538 0
M  V30 7454 O 702.237 -1.92304 0.2707 0
M  V30 7455 C 699.367 -3.35641 0.89233 0
M  V30 7456 C 698.321 -3.80451 1.96064 0
M  V30 7457 C 697.647 -5.13003 1.5077 0
M  V30 7458 C 698.947 -3.98855 3.37213 0
M  V30 7459 H 700.641 -2.09698 2.13699 0
M  V30 7460 H 698.187 -1.00754 1.02882 0
M  V30 7461 H 700.14 -4.13669 0.803497 0
M  V30 7462 H 698.864 -3.26497 -0.0821381 0
M  V30 7463 H 697.523 -3.04654 2.03916 0
M  V30 7464 H 697.171 -5.0029 0.521417 0
M  V30 7465 H 696.871 -5.43956 2.22229 0
M  V30 7466 H 698.395 -5.93554 1.43271 0
M  V30 7467 H 699.809 -4.67312 3.32103 0
M  V30 7468 H 698.206 -4.41188 4.06784 0
M  V30 7469 H 699.276 -3.02614 3.78883 0
M  V30 7470 N 700.619 -1.13374 -1.09472 0
M  V30 7471 C 701.582 -0.813639 -2.14272 0
M  V30 7472 C 702.582 0.176677 -1.59826 0
M  V30 7473 O 703.772 -0.0503441 -1.74127 0
M  V30 7474 C 700.904 -0.210897 -3.40247 0
M  V30 7475 H 702.097 -1.74229 -2.44099 0
M  V30 7476 H 699.65 -0.938304 -1.25002 0
M  V30 7477 H 700.385 0.726998 -3.16046 0
M  V30 7478 H 700.17 -0.924048 -3.81056 0
M  V30 7479 H 701.66 -0.00377603 -4.176 0
M  V30 7480 N 702.098 1.27442 -0.927168 0
M  V30 7481 C 703.048 2.24519 -0.396878 0
M  V30 7482 C 704.032 1.52981 0.498555 0
M  V30 7483 O 705.224 1.7378 0.336087 0
M  V30 7484 C 702.353 3.41514 0.349694 0
M  V30 7485 C 701.439 4.20357 -0.562226 0
M  V30 7486 N 701.83 4.7702 -1.68182 0
M  V30 7487 C 700.128 4.44503 -0.365135 0
M  V30 7488 C 700.829 5.36467 -2.24895 0
M  V30 7489 N 699.805 5.21371 -1.5386 0
M  V30 7490 H 703.607 2.65911 -1.25173 0
M  V30 7491 H 701.121 1.42366 -0.78138 0
M  V30 7492 H 703.118 4.10161 0.746536 0
M  V30 7493 H 701.778 3.01653 1.20148 0
M  V30 7494 H 702.789 4.74985 -2.06421 0
M  V30 7495 H 699.466 4.15111 0.446037 0
M  V30 7496 H 700.856 5.91264 -3.1915 0
M  V30 7497 N 703.576 0.692616 1.41565 0
M  V30 7498 C 704.825 0.219452 2.00503 0
M  V30 7499 C 705.138 -1.18683 1.55479 0
M  V30 7500 O 706.344 -1.75731 2.06956 0
M  V30 7501 C 704.8 0.341451 3.58277 0
M  V30 7502 C 704.408 1.75291 4.12283 0
M  V30 7503 C 706.152 -0.0720899 4.24439 0
M  V30 7504 C 704.059 1.82673 5.62481 0
M  V30 7505 H 702.989 0.0782874 0.749925 0
M  V30 7506 H 705.64 0.860386 1.62079 0
M  V30 7507 H 704.022 -0.367683 3.94289 0
M  V30 7508 H 705.196 2.49057 3.87695 0
M  V30 7509 H 703.511 2.11587 3.58636 0
M  V30 7510 H 706.108 -0.0373385 5.34687 0
M  V30 7511 H 706.451 -1.11034 4.0122 0
M  V30 7512 H 706.984 0.586663 3.9345 0
M  V30 7513 H 703.723 2.84539 5.90523 0
M  V30 7514 H 703.243 1.13288 5.89004 0
M  V30 7515 H 704.922 1.58827 6.27203 0
M  V30 7516 N 705.054 -1.51416 0.437162 0
M  V30 7517 C 705.984 -2.30631 -0.364922 0
M  V30 7518 C 706.965 -1.36037 -1.02118 0
M  V30 7519 O 708.15 -1.64956 -1.02485 0
M  V30 7520 C 705.28 -3.1482 -1.46648 0
M  V30 7521 C 704.234 -4.17691 -0.933717 0
M  V30 7522 C 703.56 -4.904 -2.13101 0
M  V30 7523 C 704.86 -5.2229 0.0317201 0
M  V30 7524 H 706.554 -2.97932 0.29614 0
M  V30 7525 H 704.1 -1.4328 0.143865 0
M  V30 7526 H 706.053 -3.69017 -2.03481 0
M  V30 7527 H 704.777 -2.4534 -2.15583 0
M  V30 7528 H 703.436 -3.64545 -0.387602 0
M  V30 7529 H 703.084 -4.17423 -2.80654 0
M  V30 7530 H 702.784 -5.59962 -1.78092 0
M  V30 7531 H 704.308 -5.4742 -2.70487 0
M  V30 7532 H 705.722 -5.7156 -0.446302 0
M  V30 7533 H 704.119 -5.99378 0.29437 0
M  V30 7534 H 705.189 -4.75131 0.968447 0
M  V30 7535 N 706.532 -0.168513 -1.56696 0
M  V30 7536 C 707.757 0.486688 -2.01609 0
M  V30 7537 C 708.182 1.56203 -1.04796 0
M  V30 7538 O 707.54 1.8128 -0.0270596 0
M  V30 7539 C 707.588 1.04451 -3.45141 0
M  V30 7540 O 706.692 2.15862 -3.51393 0
M  V30 7541 H 706.033 0.116831 -0.653641 0
M  V30 7542 H 708.563 -0.271579 -2.0279 0
M  V30 7543 H 708.573 1.36782 -3.84389 0
M  V30 7544 H 707.248 0.257155 -4.15104 0
M  V30 7545 H 705.825 1.84597 -3.24004 0
M  V30 7546 N 708.01 1.57248 0.105221 0
M  V30 7547 C 709.421 1.74612 0.660865 0
M  V30 7548 C 709.772 0.789231 1.79626 0
M  V30 7549 O 708.897 -0.0346611 2.16372 0
M  V30 7550 C 709.492 3.16624 1.20559 0
M  V30 7551 C 708.051 3.35447 1.7074 0
M  V30 7552 C 707.198 2.70445 0.612764 0
M  V30 7553 H 710.149 1.5824 -0.12079 0
M  V30 7554 H 710.17 3.18937 2.07508 0
M  V30 7555 H 709.682 3.86245 0.379012 0
M  V30 7556 H 707.783 2.7089 2.5583 0
M  V30 7557 H 707.896 4.43702 1.80736 0
M  V30 7558 H 706.26 2.32061 1.04975 0
M  V30 7559 H 707.043 3.42699 -0.203066 0
M  V30 7560 N 709.488 -0.375779 1.53054 0
M  V30 7561 C 710.734 -1.11767 1.6994 0
M  V30 7562 C 711.089 -1.87288 0.440574 0
M  V30 7563 O 710.382 -1.83045 -0.566146 0
M  V30 7564 C 710.576 -2.11356 2.88207 0
M  V30 7565 C 710.405 -1.45619 4.25471 0
M  V30 7566 C 709.175 -1.21464 4.90484 0
M  V30 7567 C 711.373 -0.899276 5.06377 0
M  V30 7568 N 709.355 -0.519705 6.11696 0
M  V30 7569 C 710.726 -0.333138 6.19104 0
M  V30 7570 C 712.781 -0.79697 4.9148 0
M  V30 7571 C 711.484 0.325316 7.18564 0
M  V30 7572 C 713.51 -0.152315 5.91204 0
M  V30 7573 C 712.872 0.402994 7.03246 0
M  V30 7574 H 708.971 -0.394489 0.675206 0
M  V30 7575 H 711.555 -0.40541 1.90432 0
M  V30 7576 H 709.726 -2.79905 2.69272 0
M  V30 7577 H 711.458 -2.78148 2.93966 0
M  V30 7578 H 708.213 -1.49319 4.49445 0
M  V30 7579 H 708.637 -0.187896 6.76739 0
M  V30 7580 H 713.279 -1.21208 4.05054 0
M  V30 7581 H 710.997 0.752399 8.0459 0
M  V30 7582 H 714.583 -0.074223 5.81753 0
M  V30 7583 H 713.463 0.89394 7.79088 0
M  V30 7584 N 710.966 -1.44241 -0.634997 0
M  V30 7585 C 712.214 -1.46531 -1.39187 0
M  V30 7586 C 712.535 -0.0976441 -1.94755 0
M  V30 7587 O 711.805 0.869528 -1.75545 0
M  V30 7588 H 710.385 -0.539544 -0.516625 0
M  V30 7589 H 713.047 -1.79989 -0.747655 0
M  V30 7590 H 712.143 -2.18848 -2.22513 0
M  V30 7591 N 712.444 0.87505 -1.31075 0
M  V30 7592 C 713.407 1.96333 -1.18263 0
M  V30 7593 C 714.407 1.60416 -0.111106 0
M  V30 7594 O 715.597 1.7044 -0.359987 0
M  V30 7595 C 712.729 3.31036 -0.81414 0
M  V30 7596 H 713.922 2.09125 -2.14958 0
M  V30 7597 H 711.475 1.06271 -1.14614 0
M  V30 7598 H 712.21 3.23944 0.151875 0
M  V30 7599 H 711.995 3.58476 -1.58862 0
M  V30 7600 H 713.485 4.10842 -0.748249 0
M  V30 7601 N 713.922 1.13953 1.08869 0
M  V30 7602 C 714.832 0.835666 2.19212 0
M  V30 7603 C 715.848 -0.182005 1.73045 0
M  V30 7604 O 717.024 -0.0116661 2.01397 0
M  V30 7605 C 714.089 0.312325 3.4529 0
M  V30 7606 C 713.15 1.39196 4.06107 0
M  V30 7607 C 712.383 0.893496 5.26168 0
M  V30 7608 O 712.606 -0.266807 5.69776 0
M  V30 7609 O 711.54 1.67037 5.78258 0
M  V30 7610 H 715.366 1.75769 2.47667 0
M  V30 7611 H 712.951 0.917421 1.17914 0
M  V30 7612 H 714.833 0.0261582 4.21392 0
M  V30 7613 H 713.508 -0.582042 3.18424 0
M  V30 7614 H 712.415 1.73152 3.31616 0
M  V30 7615 H 713.748 2.26068 4.37212 0
M  V30 7616 N 715.4 -1.26948 0.933913 0
M  V30 7617 C 716.646 -1.94374 0.57848 0
M  V30 7618 C 716.979 -1.73166 -0.879048 0
M  V30 7619 O 716.254 -1.06438 -1.62792 0
M  V30 7620 C 716.537 -3.4834 0.912739 0
M  V30 7621 C 716.39 -3.78866 2.42448 0
M  V30 7622 C 717.709 -4.38062 0.423003 0
M  V30 7623 H 714.828 -0.705959 0.211639 0
M  V30 7624 H 717.47 -1.49951 1.16682 0
M  V30 7625 H 715.62 -3.86309 0.412058 0
M  V30 7626 H 717.292 -3.50654 2.99733 0
M  V30 7627 H 715.535 -3.25198 2.87104 0
M  V30 7628 H 716.206 -4.86458 2.60887 0
M  V30 7629 H 718.682 -4.0728 0.852191 0
M  V30 7630 H 717.558 -5.44599 0.685776 0
M  V30 7631 H 717.819 -4.36886 -0.676994 0
M  V30 7632 N 716.879 -0.700114 -1.41195 0
M  V30 7633 C 717.826 -0.0376652 -2.30769 0
M  V30 7634 C 718.796 0.766544 -1.47354 0
M  V30 7635 O 719.981 0.73365 -1.76131 0
M  V30 7636 C 717.121 0.889452 -3.33441 0
M  V30 7637 C 716.234 0.076373 -4.31932 0
M  V30 7638 C 715.369 1.00155 -5.21673 0
M  V30 7639 C 714.408 0.181644 -6.1183 0
M  V30 7640 N 713.545 1.06087 -6.94039 0
M  V30 7641 H 718.385 -0.80726 -2.86858 0
M  V30 7642 H 715.922 -0.409798 -1.41277 0
M  V30 7643 H 717.88 1.44107 -3.91522 0
M  V30 7644 H 716.51 1.6254 -2.78892 0
M  V30 7645 H 715.562 -0.592223 -3.75762 0
M  V30 7646 H 716.874 -0.559076 -4.95657 0
M  V30 7647 H 716.028 1.62223 -5.8461 0
M  V30 7648 H 714.767 1.67085 -4.58186 0
M  V30 7649 H 713.772 -0.452085 -5.47938 0
M  V30 7650 H 714.997 -0.483925 -6.77374 0
M  V30 7651 H 712.943 1.7161 -6.33156 0
M  V30 7652 H 712.86 0.481094 -7.54468 0
M  V30 7653 H 714.128 1.66822 -7.6144 0
M  V30 7654 N 718.357 1.51182 -0.445186 0
M  V30 7655 C 719.32 2.26501 0.350722 0
M  V30 7656 C 720.32 1.3025 0.942952 0
M  V30 7657 O 721.51 1.53897 0.816175 0
M  V30 7658 C 718.642 3.06274 1.49697 0
M  V30 7659 H 719.835 2.98299 -0.309474 0
M  V30 7660 H 717.388 1.55034 -0.198551 0
M  V30 7661 H 718.123 2.38911 2.19299 0
M  V30 7662 H 717.908 3.76979 1.0784 0
M  V30 7663 H 719.398 3.63306 2.05909 0
M  V30 7664 N 719.835 0.176821 1.56605 0
M  V30 7665 C 720.745 -0.763682 2.21822 0
M  V30 7666 C 721.761 -1.24889 1.21156 0
M  V30 7667 O 722.937 -1.29987 1.53836 0
M  V30 7668 C 720.002 -1.97352 2.8505 0
M  V30 7669 C 719.063 -1.53466 4.00932 0
M  V30 7670 C 718.296 -2.68682 4.61135 0
M  V30 7671 O 718.519 -3.85694 4.20234 0
M  V30 7672 O 717.453 -2.42442 5.50913 0
M  V30 7673 H 721.279 -0.238363 3.02763 0
M  V30 7674 H 718.864 -0.0516331 1.49311 0
M  V30 7675 H 720.746 -2.68096 3.25119 0
M  V30 7676 H 719.421 -2.48779 2.07101 0
M  V30 7677 H 718.328 -0.796551 3.65521 0
M  V30 7678 H 719.661 -1.06724 4.8049 0
M  V30 7679 N 721.313 -1.57302 -0.09688 0
M  V30 7680 C 722.724 -1.7496 -0.651595 0
M  V30 7681 C 723.075 -0.798746 -1.79205 0
M  V30 7682 O 722.2 0.0231858 -2.16388 0
M  V30 7683 C 722.795 -3.17259 -1.18878 0
M  V30 7684 C 721.354 -3.36348 -1.68958 0
M  V30 7685 C 720.501 -2.70766 -0.598413 0
M  V30 7686 H 723.452 -1.58173 0.12918 0
M  V30 7687 H 723.473 -3.20033 -2.05814 0
M  V30 7688 H 722.985 -3.8644 -0.358523 0
M  V30 7689 H 721.086 -2.72243 -2.5439 0
M  V30 7690 H 721.199 -4.44654 -1.7838 0
M  V30 7691 H 719.563 -2.32615 -1.03743 0
M  V30 7692 H 720.346 -3.42586 0.221238 0
M  V30 7693 N 722.791 0.367657 -1.53252 0
M  V30 7694 C 724.037 1.11216 -1.69584 0
M  V30 7695 C 724.37 1.89026 -0.445269 0
M  V30 7696 O 723.645 1.86342 0.557404 0
M  V30 7697 C 723.928 2.07308 -2.94441 0
M  V30 7698 C 723.781 1.3312 -4.2965 0
M  V30 7699 C 725.1 3.07459 -3.14892 0
M  V30 7700 H 722.219 0.40294 -0.617096 0
M  V30 7701 H 724.861 0.393201 -1.85887 0
M  V30 7702 H 723.011 2.68617 -2.80673 0
M  V30 7703 H 724.683 0.746111 -4.55226 0
M  V30 7704 H 722.926 0.633051 -4.29156 0
M  V30 7705 H 723.597 2.03443 -5.13142 0
M  V30 7706 H 726.073 2.56252 -3.27832 0
M  V30 7707 H 724.949 3.71919 -4.03693 0
M  V30 7708 H 725.21 3.77514 -2.30077 0
M  V30 7709 N 724.269 1.44576 0.627338 0
M  V30 7710 C 725.179 1.54232 1.76776 0
M  V30 7711 C 726.195 0.427782 1.6866 0
M  V30 7712 O 727.371 0.685671 1.89369 0
M  V30 7713 C 724.436 1.48738 3.13174 0
M  V30 7714 C 723.497 2.71074 3.32893 0
M  V30 7715 C 722.73 2.65832 4.62784 0
M  V30 7716 O 722.953 1.72048 5.43834 0
M  V30 7717 O 721.887 3.56742 4.84787 0
M  V30 7718 H 725.713 2.50586 1.71582 0
M  V30 7719 H 723.298 1.26865 0.789028 0
M  V30 7720 H 725.18 1.48211 3.94476 0
M  V30 7721 H 723.855 0.555292 3.18902 0
M  V30 7722 H 722.762 2.77168 2.51254 0
M  V30 7723 H 724.095 3.63342 3.32029 0
M  V30 7724 N 725.747 -0.868086 1.31537 0
M  V30 7725 C 726.993 -1.62367 1.2151 0
M  V30 7726 C 727.326 -1.92883 -0.225819 0
M  V30 7727 O 726.601 -1.56176 -1.15927 0
M  V30 7728 C 726.884 -2.95268 2.06129 0
M  V30 7729 C 726.737 -2.71619 3.58529 0
M  V30 7730 C 728.056 -3.96391 1.91212 0
M  V30 7731 H 725.175 -0.589178 0.442762 0
M  V30 7732 H 727.817 -1.00336 1.61347 0
M  V30 7733 H 725.967 -3.4821 1.72284 0
M  V30 7734 H 727.639 -2.25334 4.0252 0
M  V30 7735 H 725.882 -2.05817 3.81866 0
M  V30 7736 H 726.553 -3.66192 4.13047 0
M  V30 7737 H 729.029 -3.52663 2.20834 0
M  V30 7738 H 727.905 -4.87263 2.52718 0
M  V30 7739 H 728.166 -4.33335 0.875953 0
M  V30 7740 N 727.225 -1.14528 -1.08264 0
M  V30 7741 C 728.471 -0.91576 -1.80947 0
M  V30 7742 C 728.804 0.55623 -1.86064 0
M  V30 7743 O 728.079 1.41207 -1.33756 0
M  V30 7744 C 728.362 -1.51917 -3.26486 0
M  V30 7745 C 728.215 -3.06111 -3.2957 0
M  V30 7746 C 729.534 -1.19724 -4.23502 0
M  V30 7747 H 726.653 -0.334113 -0.656915 0
M  V30 7748 H 729.295 -1.41547 -1.26746 0
M  V30 7749 H 727.445 -1.0942 -3.72773 0
M  V30 7750 H 729.117 -3.57448 -2.91597 0
M  V30 7751 H 727.36 -3.40483 -2.688 0
M  V30 7752 H 728.031 -3.43438 -4.32151 0
M  V30 7753 H 730.507 -1.56467 -3.85561 0
M  V30 7754 H 729.383 -1.64575 -5.23647 0
M  V30 7755 H 729.644 -0.112771 -4.41956 0
M  V30 7756 N 728.703 1.26451 -0.940633 0
M  V30 7757 C 729.666 2.24651 -0.454378 0
M  V30 7758 C 730.666 1.54826 0.434222 0
M  V30 7759 O 731.856 1.72628 0.233477 0
M  V30 7760 C 728.988 3.39148 0.345192 0
M  V30 7761 H 730.181 2.69182 -1.32217 0
M  V30 7762 H 727.734 1.38596 -0.722547 0
M  V30 7763 H 728.469 3.00018 1.23125 0
M  V30 7764 H 728.254 3.9101 -0.292107 0
M  V30 7765 H 729.744 4.12103 0.675341 0
M  V30 7766 N 730.181 0.707592 1.40822 0
M  V30 7767 C 731.592 0.317011 1.83989 0
M  V30 7768 C 731.943 -1.14697 1.59182 0
M  V30 7769 O 731.068 -1.8818 1.06852 0
M  V30 7770 C 731.663 0.568593 3.33995 0
M  V30 7771 C 730.222 0.231804 3.75686 0
M  V30 7772 C 729.369 0.844933 2.64114 0
M  V30 7773 H 732.32 0.907349 1.30203 0
M  V30 7774 H 732.341 -0.168798 3.80125 0
M  V30 7775 H 731.853 1.63417 3.52018 0
M  V30 7776 H 729.954 -0.82903 3.6326 0
M  V30 7777 H 730.067 0.695219 4.74029 0
M  V30 7778 H 728.431 0.273588 2.53226 0
M  V30 7779 H 729.214 1.91462 2.84951 0
M  V30 7780 N 731.66 -1.50943 0.453197 0
M  V30 7781 C 733.076 -1.59245 0.106342 0
M  V30 7782 C 733.276 -1.46287 -1.38572 0
M  V30 7783 O 732.332 -1.31219 -2.15726 0
M  V30 7784 C 733.645 -2.93797 0.640595 0
M  V30 7785 C 735.193 -3.07148 0.602435 0
M  V30 7786 C 735.668 -4.44247 1.11393 0
M  V30 7787 N 737.159 -4.50611 1.07258 0
M  V30 7788 C 737.894 -5.55049 1.43905 0
M  V30 7789 N 737.39 -6.66828 1.87914 0
M  V30 7790 N 739.183 -5.45494 1.35621 0
M  V30 7791 H 731.334 -1.5761 1.42382 0
M  V30 7792 H 733.597 -0.74384 0.587713 0
M  V30 7793 H 733.303 -3.087 1.68515 0
M  V30 7794 H 733.177 -3.77127 0.0742272 0
M  V30 7795 H 735.564 -2.91903 -0.433171 0
M  V30 7796 H 735.645 -2.25619 1.20539 0
M  V30 7797 H 735.289 -4.60239 2.14808 0
M  V30 7798 H 735.219 -5.2434 0.487353 0
M  V30 7799 H 737.71 -3.70391 0.749585 0
M  V30 7800 H 738.023 -7.42558 2.14072 0
M  V30 7801 H 736.368 -6.67995 1.91853 0
M  V30 7802 H 739.559 -4.57053 1.01093 0
M  V30 7803 H 739.732 -6.2677 1.64508 0
M  V30 7804 N 733.138 -0.185124 -1.56509 0
M  V30 7805 C 734.386 0.455357 -1.96903 0
M  V30 7806 C 734.707 1.62839 -1.07277 0
M  V30 7807 O 733.977 1.95385 -0.141966 0
M  V30 7808 H 732.557 0.171218 -0.727113 0
M  V30 7809 H 735.219 -0.26953 -1.93027 0
M  V30 7810 H 734.315 0.80616 -3.01509 0
M  V30 7811 N 734.616 1.57351 0.0885366 0
M  V30 7812 C 735.563 2.02523 1.10693 0
M  V30 7813 C 736.533 0.902736 1.39427 0
M  V30 7814 O 737.718 1.16921 1.50779 0
M  V30 7815 C 734.858 2.46013 2.42016 0
M  V30 7816 C 733.971 3.7181 2.19957 0
M  V30 7817 C 733.106 4.04152 3.44724 0
M  V30 7818 C 732.145 5.2304 3.17956 0
M  V30 7819 N 731.282 5.51102 4.35007 0
M  V30 7820 H 736.122 2.89302 0.714742 0
M  V30 7821 H 733.659 1.43084 0.341378 0
M  V30 7822 H 735.617 2.69274 3.18665 0
M  V30 7823 H 734.247 1.62235 2.79069 0
M  V30 7824 H 733.299 3.55987 1.34079 0
M  V30 7825 H 734.611 4.58604 1.96173 0
M  V30 7826 H 733.765 4.28225 4.29777 0
M  V30 7827 H 732.504 3.15893 3.71568 0
M  V30 7828 H 731.509 4.98781 2.31296 0
M  V30 7829 H 732.734 6.12902 2.92451 0
M  V30 7830 H 730.68 4.65802 4.61914 0
M  V30 7831 H 730.597 6.3228 4.14437 0
M  V30 7832 H 731.865 5.79714 5.21106 0
M  V30 7833 N 736.094 -0.359525 1.53444 0
M  V30 7834 C 737.319 -1.12644 1.74144 0
M  V30 7835 C 737.744 -1.82082 0.472007 0
M  V30 7836 O 737.102 -1.71962 -0.57436 0
M  V30 7837 C 737.15 -2.12781 2.9113 0
M  V30 7838 O 736.254 -3.19984 2.60162 0
M  V30 7839 H 735.595 -0.326553 0.578152 0
M  V30 7840 H 738.125 -0.414798 2.00351 0
M  V30 7841 H 738.135 -2.56278 3.17467 0
M  V30 7842 H 736.81 -1.61634 3.83207 0
M  V30 7843 H 735.387 -2.81417 2.44661 0
M  V30 7844 N 737.572 -1.44907 -0.619662 0
M  V30 7845 C 738.82 -1.47999 -1.37625 0
M  V30 7846 C 739.141 -0.118295 -1.94641 0
M  V30 7847 O 738.411 0.85086 -1.76457 0
M  V30 7848 H 736.991 -0.544993 -0.510873 0
M  V30 7849 H 739.653 -1.80772 -0.728522 0
M  V30 7850 H 738.749 -2.21196 -2.20179 0
M  V30 7851 N 739.05 0.861098 -1.31996 0
M  V30 7852 C 740.013 1.95068 -1.20338 0
M  V30 7853 C 741.013 1.60289 -0.128114 0
M  V30 7854 O 742.203 1.70048 -0.378044 0
M  V30 7855 C 739.335 3.30153 -0.849205 0
M  V30 7856 H 740.528 2.06833 -2.17164 0
M  V30 7857 H 738.081 1.05049 -1.15734 0
M  V30 7858 H 738.816 3.24087 0.117508 0
M  V30 7859 H 738.601 3.56771 -1.62655 0
M  V30 7860 H 740.091 4.10025 -0.791782 0
M  V30 7861 N 740.528 1.15101 1.07655 0
M  V30 7862 C 741.491 0.847625 2.12951 0
M  V30 7863 C 742.491 -0.151227 1.60087 0
M  V30 7864 O 743.681 0.0780399 1.74025 0
M  V30 7865 C 740.813 0.265 3.39868 0
M  V30 7866 H 742.006 1.7809 2.41296 0
M  V30 7867 H 739.559 0.958072 1.23494 0
M  V30 7868 H 740.294 -0.676625 3.17163 0
M  V30 7869 H 740.079 0.984554 3.79538 0
M  V30 7870 H 741.569 0.0702121 4.17541 0
M  V30 7871 N 742.006 -1.2595 0.947325 0
M  V30 7872 C 742.936 -2.28521 0.479604 0
M  V30 7873 C 743.917 -1.63469 -0.470293 0
M  V30 7874 O 745.102 -1.90627 -0.370824 0
M  V30 7875 C 742.232 -3.46397 -0.250289 0
M  V30 7876 C 741.186 -4.23578 0.613643 0
M  V30 7877 C 740.512 -5.34131 -0.246568 0
M  V30 7878 C 741.812 -4.86979 1.88809 0
M  V30 7879 H 743.506 -2.67895 1.33688 0
M  V30 7880 H 741.052 -1.28783 0.644274 0
M  V30 7881 H 743.005 -4.17269 -0.588576 0
M  V30 7882 H 741.729 -3.05993 -1.14175 0
M  V30 7883 H 740.388 -3.54478 0.93491 0
M  V30 7884 H 740.036 -4.89968 -1.13756 0
M  V30 7885 H 739.736 -5.86683 0.328123 0
M  V30 7886 H 741.26 -6.07839 -0.579986 0
M  V30 7887 H 742.674 -5.50034 1.61666 0
M  V30 7888 H 741.071 -5.49675 2.40784 0
M  V30 7889 H 742.141 -4.09575 2.5957 0
M  V30 7890 N 743.484 -0.715051 -1.40445 0
M  V30 7891 C 744.709 -0.26254 -2.05732 0
M  V30 7892 C 745.134 1.08691 -1.53519 0
M  V30 7893 O 744.492 1.68453 -0.670328 0
M  V30 7894 C 744.54 -0.25195 -3.59719 0
M  V30 7895 O 743.644 0.766998 -4.05205 0
M  V30 7896 H 742.985 -0.123398 -0.652433 0
M  V30 7897 H 745.515 -0.975382 -1.79854 0
M  V30 7898 H 745.525 -0.0894537 -4.07902 0
M  V30 7899 H 744.2 -1.23672 -3.97087 0
M  V30 7900 H 742.777 0.572269 -3.68483 0
M  V30 7901 N 744.962 1.50701 -0.461195 0
M  V30 7902 C 745.909 2.2831 0.338094 0
M  V30 7903 C 746.879 1.32928 0.995957 0
M  V30 7904 O 748.064 1.61857 1.0103 0
M  V30 7905 C 745.204 3.14539 1.41983 0
M  V30 7906 C 744.317 4.24942 0.77773 0
M  V30 7907 C 743.452 4.98443 1.83652 0
M  V30 7908 C 742.491 6.00733 1.17413 0
M  V30 7909 N 741.628 6.6755 2.17533 0
M  V30 7910 H 746.468 2.96167 -0.330051 0
M  V30 7911 H 744.005 1.4606 -0.174611 0
M  V30 7912 H 745.963 3.62877 2.05855 0
M  V30 7913 H 744.593 2.48749 2.05727 0
M  V30 7914 H 743.645 3.80391 0.0266924 0
M  V30 7915 H 744.957 4.98151 0.254362 0
M  V30 7916 H 744.111 5.50449 2.55129 0
M  V30 7917 H 742.85 4.24917 2.39367 0
M  V30 7918 H 741.855 5.47997 0.444944 0
M  V30 7919 H 743.08 6.76227 0.624006 0
M  V30 7920 H 741.026 5.96823 2.72284 0
M  V30 7921 H 740.943 7.36603 1.70154 0
M  V30 7922 H 742.211 7.24178 2.88421 0
M  V30 7923 N 746.441 0.193421 1.56409 0
M  V30 7924 C 747.388 -0.728124 2.19014 0
M  V30 7925 C 748.358 -1.21098 1.13686 0
M  V30 7926 O 749.543 -1.27517 1.4193 0
M  V30 7927 C 746.683 -1.94277 2.8522 0
M  V30 7928 C 745.796 -1.50143 4.05069 0
M  V30 7929 C 744.931 -2.67145 4.59137 0
M  V30 7930 C 743.97 -2.19609 5.71348 0
M  V30 7931 N 743.107 -3.29782 6.19829 0
M  V30 7932 H 747.947 -0.187499 2.9741 0
M  V30 7933 H 745.484 -0.0808064 1.46878 0
M  V30 7934 H 747.442 -2.65551 3.21774 0
M  V30 7935 H 746.072 -2.45673 2.09391 0
M  V30 7936 H 745.124 -0.684624 3.74189 0
M  V30 7937 H 746.436 -1.11266 4.86232 0
M  V30 7938 H 745.59 -3.46544 4.97988 0
M  V30 7939 H 744.329 -3.09295 3.77078 0
M  V30 7940 H 743.334 -1.38664 5.32027 0
M  V30 7941 H 744.559 -1.78492 6.55223 0
M  V30 7942 H 742.505 -3.71466 5.40693 0
M  V30 7943 H 742.422 -2.95069 6.96039 0
M  V30 7944 H 743.69 -4.094 6.63334 0
M  V30 7945 N 747.919 -1.57396 -0.0801906 0
M  V30 7946 C 749.144 -1.91437 -0.797909 0
M  V30 7947 C 749.569 -0.789075 -1.70749 0
M  V30 7948 O 748.927 0.25857 -1.79447 0
M  V30 7949 C 748.975 -3.24402 -1.57467 0
M  V30 7950 O 748.079 -3.13043 -2.68473 0
M  V30 7951 H 747.42 -0.627109 -0.218243 0
M  V30 7952 H 749.95 -2.04537 -0.050949 0
M  V30 7953 H 749.96 -3.58072 -1.95571 0
M  V30 7954 H 748.635 -4.05884 -0.907229 0
M  V30 7955 H 747.212 -2.90915 -2.33287 0
M  V30 7956 N 749.397 0.351382 -1.53633 0
M  V30 7957 C 750.344 1.43115 -1.81071 0
M  V30 7958 C 751.314 1.52601 -0.655913 0
M  V30 7959 O 752.499 1.68264 -0.89955 0
M  V30 7960 C 749.639 2.79874 -2.01903 0
M  V30 7961 C 748.752 2.79242 -3.29618 0
M  V30 7962 C 747.887 4.07667 -3.40559 0
M  V30 7963 C 746.926 4.01233 -4.62254 0
M  V30 7964 N 746.063 5.21334 -4.70271 0
M  V30 7965 H 750.903 1.19017 -2.73201 0
M  V30 7966 H 748.44 0.576691 -1.35324 0
M  V30 7967 H 750.398 3.5934 -2.11969 0
M  V30 7968 H 749.028 3.0234 -1.13094 0
M  V30 7969 H 748.08 1.91927 -3.28433 0
M  V30 7970 H 749.392 2.70363 -4.19172 0
M  V30 7971 H 748.546 4.95555 -3.50015 0
M  V30 7972 H 747.285 4.19317 -2.49047 0
M  V30 7973 H 746.29 3.11732 -4.52884 0
M  V30 7974 H 747.515 3.91173 -5.55122 0
M  V30 7975 H 745.461 5.33543 -3.81665 0
M  V30 7976 H 745.378 5.14681 -5.5375 0
M  V30 7977 H 746.646 6.11014 -4.84027 0
M  V30 7978 N 750.875 1.45233 0.611969 0
M  V30 7979 C 752.123 1.48727 1.36838 0
M  V30 7980 C 752.444 0.128616 1.94575 0
M  V30 7981 O 751.714 -0.84149 1.76906 0
M  V30 7982 H 750.294 0.547695 0.507976 0
M  V30 7983 H 752.956 1.81156 0.718925 0
M  V30 7984 H 752.052 2.2236 2.19003 0
M  V30 7985 N 752.353 -0.854086 1.3245 0
M  V30 7986 C 753.285 -1.96932 1.17262 0
M  V30 7987 C 754.298 -1.62445 0.107469 0
M  V30 7988 O 755.487 -1.74904 0.356481 0
M  V30 7989 C 752.587 -3.29971 0.772817 0
M  V30 7990 C 751.76 -3.92695 1.92638 0
M  V30 7991 C 750.819 -5.04068 1.51003 0
M  V30 7992 O 749.845 -5.24032 2.22213 0
M  V30 7993 N 751.047 -5.79076 0.406371 0
M  V30 7994 H 753.812 -2.10503 2.13327 0
M  V30 7995 H 751.373 -1.02897 1.24995 0
M  V30 7996 H 753.365 -4.01883 0.476684 0
M  V30 7997 H 751.935 -3.1245 -0.0967 0
M  V30 7998 H 751.155 -3.13563 2.38897 0
M  V30 7999 H 752.443 -4.31337 2.69863 0
M  V30 8000 H 751.841 -5.65393 -0.186302 0
M  V30 8001 H 750.398 -6.51579 0.169846 0
M  V30 8002 N 753.831 -1.1567 -1.07043 0
M  V30 8003 C 755.077 -0.9349 -1.79965 0
M  V30 8004 C 755.41 0.536464 -1.86643 0
M  V30 8005 O 754.685 1.39781 -1.35247 0
M  V30 8006 C 754.968 -1.55371 -3.24857 0
M  V30 8007 C 754.821 -3.09589 -3.26305 0
M  V30 8008 C 756.14 -1.24209 -4.22209 0
M  V30 8009 H 753.259 -0.341061 -0.653335 0
M  V30 8010 H 755.901 -1.42883 -1.25237 0
M  V30 8011 H 754.051 -1.13368 -3.71591 0
M  V30 8012 H 755.723 -3.60521 -2.87789 0
M  V30 8013 H 753.966 -3.43315 -2.65174 0
M  V30 8014 H 754.637 -3.48002 -4.28484 0
M  V30 8015 H 757.113 -1.60548 -3.8388 0
M  V30 8016 H 755.989 -1.70119 -5.21872 0
M  V30 8017 H 756.25 -0.15964 -4.41812 0
M  V30 8018 N 755.309 1.25446 -0.953992 0
M  V30 8019 C 756.256 2.25912 -0.472485 0
M  V30 8020 C 757.226 1.59173 0.47469 0
M  V30 8021 O 758.411 1.86812 0.388082 0
M  V30 8022 C 755.551 3.44235 0.244218 0
M  V30 8023 C 754.664 4.25613 -0.740121 0
M  V30 8024 C 753.799 5.312 -0.000922267 0
M  V30 8025 C 752.838 6.04265 -0.976236 0
M  V30 8026 N 751.975 7.01589 -0.267952 0
M  V30 8027 H 756.815 2.66469 -1.3341 0
M  V30 8028 H 754.352 1.31005 -0.669045 0
M  V30 8029 H 756.31 4.11682 0.676314 0
M  V30 8030 H 754.94 3.04554 1.06988 0
M  V30 8031 H 753.992 3.57834 -1.2907 0
M  V30 8032 H 755.304 4.762 -1.48441 0
M  V30 8033 H 754.458 6.04719 0.48984 0
M  V30 8034 H 753.197 4.81484 0.776159 0
M  V30 8035 H 752.202 5.29561 -1.478 0
M  V30 8036 H 753.427 6.5607 -1.75354 0
M  V30 8037 H 751.373 6.54164 0.490403 0
M  V30 8038 H 751.29 7.4999 -0.951344 0
M  V30 8039 H 752.558 7.7924 0.201294 0
M  V30 8040 N 756.787 0.722489 1.40064 0
M  V30 8041 C 757.697 0.0755984 2.34478 0
M  V30 8042 C 758.713 -0.736046 1.57665 0
M  V30 8043 O 759.889 -0.667407 1.9002 0
M  V30 8044 C 756.954 -0.830075 3.36616 0
M  V30 8045 C 756.015 -0.00759884 4.29299 0
M  V30 8046 C 755.248 -0.870139 5.26559 0
M  V30 8047 O 755.471 -2.10921 5.2997 0
M  V30 8048 O 754.405 -0.305454 6.01124 0
M  V30 8049 H 758.231 0.854545 2.9143 0
M  V30 8050 H 755.816 0.483032 1.41376 0
M  V30 8051 H 757.698 -1.34864 3.99236 0
M  V30 8052 H 756.373 -1.58805 2.82069 0
M  V30 8053 H 755.28 0.556199 3.69942 0
M  V30 8054 H 756.613 0.712312 4.87018 0
M  V30 8055 N 758.265 -1.50454 0.469181 0
M  V30 8056 C 759.175 -2.32248 -0.331349 0
M  V30 8057 C 760.191 -1.42548 -0.997807 0
M  V30 8058 O 761.367 -1.75602 -0.9862 0
M  V30 8059 C 758.432 -3.17171 -1.40012 0
M  V30 8060 C 757.493 -4.2269 -0.750463 0
M  V30 8061 C 756.726 -5.03554 -1.76831 0
M  V30 8062 O 756.949 -4.85469 -2.99459 0
M  V30 8063 O 755.883 -5.86767 -1.3412 0
M  V30 8064 H 759.709 -3.01821 0.337279 0
M  V30 8065 H 757.294 -1.47602 0.231066 0
M  V30 8066 H 759.176 -3.69871 -2.01924 0
M  V30 8067 H 757.851 -2.50328 -2.05226 0
M  V30 8068 H 756.758 -3.73986 -0.0924446 0
M  V30 8069 H 758.091 -4.91997 -0.14131 0
M  V30 8070 N 759.743 -0.201713 -1.56304 0
M  V30 8071 C 760.991 0.434447 -1.97375 0
M  V30 8072 C 761.312 1.61692 -1.08998 0
M  V30 8073 O 760.582 1.95223 -0.162682 0
M  V30 8074 H 759.162 0.163497 -0.728888 0
M  V30 8075 H 761.824 -0.289988 -1.92731 0
M  V30 8076 H 760.92 0.774136 -3.02347 0
M  V30 8077 N 761.222 1.57436 0.0718424 0
M  V30 8078 C 762.471 1.86431 0.769826 0
M  V30 8079 C 762.784 0.794355 1.78744 0
M  V30 8080 O 763.99 0.972148 2.53499 0
M  V30 8081 C 762.446 3.307 1.42006 0
M  V30 8082 C 762.054 4.45824 0.441017 0
M  V30 8083 C 763.798 3.68894 2.10041 0
M  V30 8084 C 761.705 5.81134 1.09717 0
M  V30 8085 H 760.635 0.695474 0.291259 0
M  V30 8086 H 763.286 1.83485 0.0231224 0
M  V30 8087 H 761.668 3.28257 2.21502 0
M  V30 8088 H 762.842 4.59659 -0.32413 0
M  V30 8089 H 761.157 4.16181 -0.134886 0
M  V30 8090 H 763.754 4.67281 2.59908 0
M  V30 8091 H 764.097 2.98692 2.89981 0
M  V30 8092 H 764.63 3.73326 1.37376 0
M  V30 8093 H 761.369 6.54628 0.338095 0
M  V30 8094 H 760.889 5.711 1.83317 0
M  V30 8095 H 762.568 6.26468 1.617 0
M  V30 8096 N 762.7 -0.34323 1.53817 0
M  V30 8097 C 763.648 -1.44176 1.82527 0
M  V30 8098 C 764.642 -1.54452 0.695772 0
M  V30 8099 O 765.848 -1.57072 0.879114 0
M  V30 8100 H 762.223 -0.480729 0.578277 0
M  V30 8101 H 764.194 -1.17176 2.74431 0
M  V30 8102 C 762.943 -2.80695 2.05197 0
M  V30 8103 H 762.266 -2.73554 2.91561 0
M  V30 8104 H 763.706 -3.56679 2.29251 0
M  V30 8105 C 762.165 -3.26322 0.837589 0
M  V30 8106 O 762.695 -4.01683 0.0371631 0
M  V30 8107 N 760.901 -2.83128 0.654724 0
M  V30 8108 H 760.448 -2.21965 1.30725 0
M  V30 8109 H 760.406 -3.14011 -0.156345 0
M  V30 8110 N 764.178 -1.45556 -0.604258 0
M  V30 8111 C 765.125 -1.54482 -1.71476 0
M  V30 8112 C 766.095 -0.390479 -1.61445 0
M  V30 8113 O 767.28 -0.604371 -1.80975 0
M  V30 8114 C 764.42 -1.52064 -3.09791 0
M  V30 8115 C 763.533 -2.78073 -3.30604 0
M  V30 8116 C 762.668 -2.67304 -4.59044 0
M  V30 8117 C 761.707 -3.88352 -4.73127 0
M  V30 8118 N 760.844 -3.76098 -5.9287 0
M  V30 8119 H 765.684 -2.49349 -1.63184 0
M  V30 8120 H 763.221 -1.23725 -0.795641 0
M  V30 8121 H 765.179 -1.48649 -3.89819 0
M  V30 8122 H 763.809 -0.607442 -3.17033 0
M  V30 8123 H 762.861 -2.91561 -2.44329 0
M  V30 8124 H 764.173 -3.67847 -3.36883 0
M  V30 8125 H 763.327 -2.61875 -5.47272 0
M  V30 8126 H 762.066 -1.75135 -4.55169 0
M  V30 8127 H 761.071 -3.94137 -3.83322 0
M  V30 8128 H 762.296 -4.81591 -4.78797 0
M  V30 8129 H 760.242 -2.867 -5.90033 0
M  V30 8130 H 760.159 -4.59509 -6.00323 0
M  V30 8131 H 761.427 -3.74607 -6.83586 0
M  V30 8132 N 765.656 0.84705 -1.32902 0
M  V30 8133 C 766.881 1.63925 -1.27056 0
M  V30 8134 C 767.306 1.87443 0.157136 0
M  V30 8135 O 766.664 1.43266 1.11106 0
M  V30 8136 C 766.712 2.97134 -2.04313 0
M  V30 8137 O 765.816 3.88049 -1.39614 0
M  V30 8138 H 765.157 0.499477 -0.437514 0
M  V30 8139 H 767.687 1.05443 -1.75336 0
M  V30 8140 H 767.697 3.46896 -2.14772 0
M  V30 8141 H 766.372 2.79339 -3.08128 0
M  V30 8142 H 764.949 3.46525 -1.3775 0
M  V30 8143 N 767.134 1.16236 1.06428 0
M  V30 8144 C 768.044 0.881976 2.1739 0
M  V30 8145 C 769.06 -0.145259 1.73393 0
M  V30 8146 O 770.236 0.0310558 2.01376 0
M  V30 8147 C 767.301 0.385496 3.4455 0
M  V30 8148 C 766.362 1.47779 4.03063 0
M  V30 8149 C 765.595 1.0049 5.24154 0
M  V30 8150 O 765.818 -0.145889 5.70213 0
M  V30 8151 O 764.752 1.79265 5.74585 0
M  V30 8152 H 768.578 1.80983 2.43883 0
M  V30 8153 H 766.163 0.942226 1.15942 0
M  V30 8154 H 768.045 0.115536 4.21242 0
M  V30 8155 H 766.72 -0.514369 3.19587 0
M  V30 8156 H 765.627 1.80147 3.27869 0
M  V30 8157 H 766.96 2.35291 4.32318 0
M  V30 8158 N 768.612 -1.24939 0.960631 0
M  V30 8159 C 769.559 -2.25658 0.484459 0
M  V30 8160 C 770.529 -1.59422 -0.466242 0
M  V30 8161 O 771.714 -1.87015 -0.378169 0
M  V30 8162 C 768.854 -3.44359 -0.225958 0
M  V30 8163 C 767.967 -4.25214 0.762682 0
M  V30 8164 C 767.102 -5.31192 0.0290931 0
M  V30 8165 C 766.141 -6.03739 1.00827 0
M  V30 8166 N 765.278 -7.01437 0.305155 0
M  V30 8167 H 770.118 -2.65758 1.34821 0
M  V30 8168 H 767.655 -1.30648 0.675983 0
M  V30 8169 H 769.613 -4.12035 -0.654472 0
M  V30 8170 H 768.243 -3.05118 -1.05371 0
M  V30 8171 H 767.295 -3.57144 1.30966 0
M  V30 8172 H 768.607 -4.75406 1.50964 0
M  V30 8173 H 767.761 -6.04971 -0.457763 0
M  V30 8174 H 766.5 -4.81889 -0.750614 0
M  V30 8175 H 765.505 -5.2877 1.50607 0
M  V30 8176 H 766.73 -6.55131 1.7883 0
M  V30 8177 H 764.676 -6.54415 -0.455704 0
M  V30 8178 H 764.593 -7.49475 0.991104 0
M  V30 8179 H 765.861 -7.79336 -0.159966 0
M  V30 8180 N 770.09 -0.729906 -1.39679 0
M  V30 8181 C 771.506 -0.404951 -1.54377 0
M  V30 8182 C 771.706 1.08476 -1.6981 0
M  V30 8183 O 770.762 1.87087 -1.69572 0
M  V30 8184 C 772.075 -1.18352 -2.76429 0
M  V30 8185 C 773.623 -1.17124 -2.9026 0
M  V30 8186 C 774.098 -1.93227 -4.15244 0
M  V30 8187 N 775.589 -1.90368 -4.22273 0
M  V30 8188 C 776.324 -2.46065 -5.17918 0
M  V30 8189 N 775.82 -3.10378 -6.19385 0
M  V30 8190 N 777.613 -2.36127 -5.10099 0
M  V30 8191 H 769.764 -1.69567 -1.27909 0
M  V30 8192 H 772.027 -0.717527 -0.619564 0
M  V30 8193 H 771.733 -2.23743 -2.71352 0
M  V30 8194 H 771.607 -0.784589 -3.6895 0
M  V30 8195 H 773.994 -0.125478 -2.94833 0
M  V30 8196 H 774.075 -1.60951 -1.98817 0
M  V30 8197 H 773.719 -2.97802 -4.11432 0
M  V30 8198 H 773.649 -1.4681 -5.05722 0
M  V30 8199 H 776.14 -1.4351 -3.4959 0
M  V30 8200 H 776.453 -3.50358 -6.88817 0
M  V30 8201 H 774.798 -3.14467 -6.19787 0
M  V30 8202 H 777.989 -1.85529 -4.29763 0
M  V30 8203 H 778.162 -2.79833 -5.84463 0
M  V30 8204 N 771.568 1.50203 -0.477153 0
M  V30 8205 C 772.501 2.25343 0.359983 0
M  V30 8206 C 773.479 1.28909 0.991022 0
M  V30 8207 O 774.663 1.58146 1.02578 0
M  V30 8208 C 771.79 3.03431 1.5049 0
M  V30 8209 C 770.836 4.14836 0.99063 0
M  V30 8210 S 771.669 5.35407 -0.0995413 0
M  V30 8211 C 772.825 6.17045 1.04911 0
M  V30 8212 H 773.058 2.95999 -0.277836 0
M  V30 8213 H 770.591 1.52159 -0.262115 0
M  V30 8214 H 772.549 3.49012 2.16105 0
M  V30 8215 H 771.21 2.32289 2.11425 0
M  V30 8216 H 770.403 4.689 1.84794 0
M  V30 8217 H 770.005 3.71723 0.412097 0
M  V30 8218 H 772.297 6.48546 1.95946 0
M  V30 8219 H 773.24 7.05979 0.547596 0
M  V30 8220 H 773.648 5.49193 1.30567 0
M  V30 8221 N 773.046 0.209999 1.56195 0
M  V30 8222 C 773.993 -0.704854 2.19774 0
M  V30 8223 C 774.963 -1.19886 1.14964 0
M  V30 8224 O 776.148 -1.26005 1.43274 0
M  V30 8225 C 773.288 -1.91241 2.87265 0
M  V30 8226 C 772.401 -1.45838 4.06639 0
M  V30 8227 C 771.536 -2.6226 4.61945 0
M  V30 8228 C 770.575 -2.13537 5.73645 0
M  V30 8229 N 769.712 -3.2319 6.23292 0
M  V30 8230 H 774.552 -0.155944 2.97592 0
M  V30 8231 H 772.089 -0.0652235 1.46955 0
M  V30 8232 H 774.047 -2.62123 3.24573 0
M  V30 8233 H 772.677 -2.43439 2.11985 0
M  V30 8234 H 771.729 -0.644897 3.74894 0
M  V30 8235 H 773.041 -1.06103 4.87384 0
M  V30 8236 H 772.195 -3.41243 5.01636 0
M  V30 8237 H 770.934 -3.05278 3.80338 0
M  V30 8238 H 769.939 -1.33013 5.33468 0
M  V30 8239 H 771.164 -1.71533 6.57079 0
M  V30 8240 H 769.11 -3.65711 5.44602 0
M  V30 8241 H 769.027 -2.8767 6.99129 0
M  V30 8242 H 770.295 -4.02342 6.67639 0
M  V30 8243 N 774.524 -1.57472 -0.0634922 0
M  V30 8244 C 775.454 -2.07297 -1.07473 0
M  V30 8245 C 776.435 -0.968162 -1.39859 0
M  V30 8246 O 777.62 -1.24139 -1.49343 0
M  V30 8247 C 774.75 -2.52381 -2.38581 0
M  V30 8248 C 773.704 -3.66813 -2.20526 0
M  V30 8249 C 773.03 -3.97982 -3.57092 0
M  V30 8250 C 774.33 -4.96553 -1.61965 0
M  V30 8251 H 776.024 -2.92033 -0.660092 0
M  V30 8252 H 773.57 -1.40488 -0.316074 0
M  V30 8253 H 775.523 -2.85852 -3.09624 0
M  V30 8254 H 774.247 -1.64684 -2.8204 0
M  V30 8255 H 772.906 -3.33639 -1.51924 0
M  V30 8256 H 772.554 -3.07403 -3.98136 0
M  V30 8257 H 772.254 -4.7504 -3.45848 0
M  V30 8258 H 773.778 -4.33956 -4.29552 0
M  V30 8259 H 775.192 -5.28201 -2.22883 0
M  V30 8260 H 773.589 -5.7799 -1.61394 0
M  V30 8261 H 774.659 -4.81396 -0.581918 0
M  V30 8262 N 776.003 0.335068 -1.53997 0
M  V30 8263 C 777.231 1.09418 -1.756 0
M  V30 8264 C 777.646 1.82083 -0.499138 0
M  V30 8265 O 777.003 1.74646 0.529631 0
M  V30 8266 C 777.054 2.10115 -2.94166 0
M  V30 8267 O 776.775 1.40404 -4.14992 0
M  V30 8268 C 778.276 2.98336 -3.27888 0
M  V30 8269 H 775.496 0.32595 -0.586513 0
M  V30 8270 H 778.04 0.384693 -2.00849 0
M  V30 8271 H 776.195 2.76616 -2.71224 0
M  V30 8272 H 776.609 2.07743 -4.81605 0
M  V30 8273 H 778.083 3.6491 -4.1418 0
M  V30 8274 H 778.56 3.64814 -2.44556 0
M  V30 8275 H 779.166 2.37412 -3.52868 0
M  V30 8276 N 777.481 1.45874 0.596531 0
M  V30 8277 C 778.411 1.5824 1.71705 0
M  V30 8278 C 779.392 0.433366 1.64487 0
M  V30 8279 O 780.577 0.657895 1.82717 0
M  V30 8280 C 777.707 1.55927 3.10329 0
M  V30 8281 C 776.661 2.69659 3.32367 0
M  V30 8282 C 775.987 2.52403 4.71377 0
M  V30 8283 C 777.287 4.11591 3.21544 0
M  V30 8284 H 778.981 2.52035 1.61613 0
M  V30 8285 H 776.527 1.21297 0.776082 0
M  V30 8286 H 778.48 1.63173 3.88526 0
M  V30 8287 H 777.204 0.586674 3.21288 0
M  V30 8288 H 775.863 2.61859 2.56564 0
M  V30 8289 H 775.511 1.53258 4.79083 0
M  V30 8290 H 775.211 3.28679 4.87077 0
M  V30 8291 H 776.735 2.6152 5.5176 0
M  V30 8292 H 778.149 4.20576 3.89601 0
M  V30 8293 H 776.546 4.88344 3.4877 0
M  V30 8294 H 777.616 4.32719 2.1882 0
M  V30 8295 N 778.959 -0.83999 1.33349 0
M  V30 8296 C 779.906 -1.94972 1.23509 0
M  V30 8297 C 780.876 -1.65709 0.113967 0
M  V30 8298 O 782.061 -1.88552 0.292045 0
M  V30 8299 C 779.201 -3.30919 0.979105 0
M  V30 8300 C 778.314 -3.72587 2.18639 0
M  V30 8301 C 777.449 -4.97397 1.86465 0
M  V30 8302 C 776.488 -5.31597 3.03432 0
M  V30 8303 N 775.625 -6.47584 2.71254 0
M  V30 8304 H 780.465 -2.0272 2.18423 0
M  V30 8305 H 778.002 -0.992017 1.08616 0
M  V30 8306 H 779.96 -4.09239 0.811126 0
M  V30 8307 H 778.59 -3.22731 0.0667099 0
M  V30 8308 H 777.642 -2.89799 2.46416 0
M  V30 8309 H 778.954 -3.93844 3.06086 0
M  V30 8310 H 778.108 -5.83462 1.66305 0
M  V30 8311 H 776.847 -4.78107 0.96254 0
M  V30 8312 H 775.852 -4.44037 3.24208 0
M  V30 8313 H 777.077 -5.52836 3.94397 0
M  V30 8314 H 775.023 -6.29783 1.836 0
M  V30 8315 H 774.94 -6.68931 3.52231 0
M  V30 8316 H 776.208 -7.36764 2.54558 0
M  V30 8317 N 780.437 -1.16799 -1.0581 0
M  V30 8318 C 781.685 -0.950642 -1.78346 0
M  V30 8319 C 782.006 0.522524 -1.87869 0
M  V30 8320 O 781.276 1.3795 -1.39092 0
M  V30 8321 H 779.856 -0.348736 -0.6606 0
M  V30 8322 H 782.518 -1.47158 -1.27791 0
M  V30 8323 H 781.614 -1.37359 -2.80248 0
M  V30 8324 N 781.915 1.24427 -0.967243 0
M  V30 8325 C 783.163 1.92107 -0.627638 0
M  V30 8326 C 783.484 1.75991 0.83978 0
M  V30 8327 O 782.754 1.13118 1.59941 0
M  V30 8328 H 781.334 0.710986 -0.229145 0
M  V30 8329 H 783.996 1.51331 -1.22821 0
M  V30 8330 H 783.092 2.99791 -0.867844 0
M  V30 8331 N 783.393 0.737304 1.3929 0
M  V30 8332 C 784.356 0.10731 2.28949 0
M  V30 8333 C 785.356 -0.664716 1.46418 0
M  V30 8334 O 786.546 -0.493392 1.67067 0
M  V30 8335 C 783.678 -0.857145 3.29948 0
M  V30 8336 H 784.871 0.89725 2.86163 0
M  V30 8337 H 782.424 0.503279 1.47976 0
M  V30 8338 H 783.159 -1.67336 2.77794 0
M  V30 8339 H 782.944 -0.306167 3.90903 0
M  V30 8340 H 784.434 -1.29444 3.97031 0
M  V30 8341 N 784.871 -1.49948 0.485112 0
M  V30 8342 C 785.834 -2.27351 -0.290546 0
M  V30 8343 C 786.834 -1.32704 -0.908087 0
M  V30 8344 O 788.024 -1.56007 -0.775085 0
M  V30 8345 C 785.156 -3.10135 -1.41524 0
M  V30 8346 H 786.349 -2.97374 0.388454 0
M  V30 8347 H 783.902 -1.54453 0.239586 0
M  V30 8348 H 784.637 -2.44641 -2.12888 0
M  V30 8349 H 784.422 -3.79705 -0.978074 0
M  V30 8350 H 785.912 -3.68638 -1.96204 0
M  V30 8351 N 786.349 -0.21828 -1.56081 0
M  V30 8352 C 787.595 0.414921 -1.9851 0
M  V30 8353 C 787.928 1.59648 -1.10573 0
M  V30 8354 O 787.203 1.93818 -0.162695 0
M  V30 8355 C 787.486 0.852647 -3.4986 0
M  V30 8356 C 787.339 -0.33232 -4.48571 0
M  V30 8357 C 788.658 1.70998 -4.05521 0
M  V30 8358 H 785.777 0.149344 -0.72171 0
M  V30 8359 H 788.419 -0.313858 -1.8739 0
M  V30 8360 H 786.569 1.47362 -3.59467 0
M  V30 8361 H 788.241 -0.970418 -4.50977 0
M  V30 8362 H 786.484 -0.980302 -4.22578 0
M  V30 8363 H 787.155 0.0168407 -5.51997 0
M  V30 8364 H 789.631 1.18606 -3.98838 0
M  V30 8365 H 788.507 1.98517 -5.11744 0
M  V30 8366 H 788.768 2.67219 -3.52202 0
M  V30 8367 N 787.827 1.57504 0.0551401 0
M  V30 8368 C 789.104 1.79155 0.785048 0
M  V30 8369 C 789.484 0.809995 1.94942 0
M  V30 8370 O 788.832 -0.153432 2.27984 0
M  V30 8371 C 789.042 3.26134 1.24247 0
M  V30 8372 C 790.39 3.90419 1.66908 0
M  V30 8373 O 791.414 3.30126 1.33772 0
M  V30 8374 O 790.273 4.96523 2.28314 0
M  V30 8375 H 787.367 0.735825 0.377479 0
M  V30 8376 H 789.913 1.69666 0.0339285 0
M  V30 8377 H 788.685 3.89145 0.410089 0
M  V30 8378 H 788.308 3.40411 2.05441 0
M  V30 8379 N 789.305 -0.326896 1.54172 0
M  V30 8380 C 790.716 -0.901533 1.63491 0
M  V30 8381 C 791.067 -1.88994 0.52684 0
M  V30 8382 O 790.192 -2.137 -0.340794 0
M  V30 8383 C 790.787 -1.64192 2.96355 0
M  V30 8384 C 789.346 -2.16533 3.07881 0
M  V30 8385 C 788.493 -0.98966 2.59039 0
M  V30 8386 H 791.444 -0.104568 1.58355 0
M  V30 8387 H 791.465 -2.50592 2.86328 0
M  V30 8388 H 790.977 -0.922291 3.76982 0
M  V30 8389 H 789.078 -2.91622 2.31922 0
M  V30 8390 H 789.191 -2.41762 4.13628 0
M  V30 8391 H 787.555 -1.36787 2.14852 0
M  V30 8392 H 788.338 -0.284401 3.4212 0
M  V30 8393 N 790.784 -1.46188 -0.588786 0
M  V30 8394 C 792.061 -1.41659 -1.34878 0
M  V30 8395 C 792.441 -0.0968913 -2.10878 0
M  V30 8396 O 791.789 0.921468 -2.09096 0
M  V30 8397 C 791.999 -2.6424 -2.27988 0
M  V30 8398 C 793.347 -3.1013 -2.90008 0
M  V30 8399 O 794.371 -2.64745 -2.38303 0
M  V30 8400 O 793.23 -3.88944 -3.83908 0
M  V30 8401 H 790.324 -0.563058 -0.605718 0
M  V30 8402 H 792.87 -1.58346 -0.610309 0
M  V30 8403 H 791.642 -3.51853 -1.71217 0
M  V30 8404 H 791.265 -2.49982 -3.09184 0
M  V30 8405 N 792.262 0.832906 -1.33792 0
M  V30 8406 C 793.487 1.62568 -1.28788 0
M  V30 8407 C 793.912 1.87599 0.137246 0
M  V30 8408 O 793.27 1.44436 1.0958 0
M  V30 8409 C 793.318 2.9495 -2.07453 0
M  V30 8410 O 792.422 3.86546 -1.43722 0
M  V30 8411 H 791.763 0.494809 -0.442787 0
M  V30 8412 H 794.293 1.03578 -1.76445 0
M  V30 8413 H 794.303 3.44599 -2.1844 0
M  V30 8414 H 792.978 2.76055 -3.11073 0
M  V30 8415 H 791.555 3.45044 -1.41417 0
M  V30 8416 N 793.74 1.17359 1.05189 0
M  V30 8417 C 794.988 0.960087 1.77839 0
M  V30 8418 C 795.309 -0.512554 1.88143 0
M  V30 8419 O 794.579 -1.3721 1.39822 0
M  V30 8420 H 793.159 0.352234 0.658741 0
M  V30 8421 H 795.821 1.47834 1.27008 0
M  V30 8422 H 794.917 1.38843 2.79516 0
M  V30 8423 N 795.218 -1.23913 0.973828 0
M  V30 8424 C 796.148 -2.27453 0.527969 0
M  V30 8425 C 797.129 -1.6443 -0.435513 0
M  V30 8426 O 798.314 -1.9137 -0.330306 0
M  V30 8427 C 795.444 -3.4685 -0.176757 0
M  V30 8428 C 794.398 -4.22181 0.703352 0
M  V30 8429 C 793.724 -5.34534 -0.133215 0
M  V30 8430 C 795.024 -4.82865 1.99096 0
M  V30 8431 H 796.718 -2.65 1.3934 0
M  V30 8432 H 794.264 -1.27388 0.671446 0
M  V30 8433 H 796.217 -4.18424 -0.499934 0
M  V30 8434 H 794.941 -3.08346 -1.07659 0
M  V30 8435 H 793.6 -3.52416 1.00989 0
M  V30 8436 H 793.248 -4.92271 -1.03338 0
M  V30 8437 H 792.948 -5.85855 0.452494 0
M  V30 8438 H 794.472 -6.08933 -0.450924 0
M  V30 8439 H 795.886 -5.46481 1.73297 0
M  V30 8440 H 794.283 -5.44444 2.52389 0
M  V30 8441 H 795.353 -4.03977 2.68199 0
M  V30 8442 N 796.696 -0.74468 -1.38897 0
M  V30 8443 C 797.606 -0.112892 -2.34328 0
M  V30 8444 C 798.622 0.71087 -1.58816 0
M  V30 8445 O 799.798 0.637092 -1.91058 0
M  V30 8446 C 796.863 0.776417 -3.37894 0
M  V30 8447 C 795.924 -0.0606999 -4.29257 0
M  V30 8448 C 795.157 0.786258 -5.27877 0
M  V30 8449 O 795.38 2.02463 -5.33259 0
M  V30 8450 O 794.314 0.209781 -6.01534 0
M  V30 8451 H 798.14 -0.900801 -2.90033 0
M  V30 8452 H 795.725 -0.505462 -1.4059 0
M  V30 8453 H 797.607 1.28496 -4.01331 0
M  V30 8454 H 796.282 1.54297 -2.84559 0
M  V30 8455 H 795.189 -0.614984 -3.69011 0
M  V30 8456 H 796.522 -0.789702 -4.85824 0
M  V30 8457 N 798.174 1.49689 -0.493057 0
M  V30 8458 C 799.124 2.25901 0.308682 0
M  V30 8459 C 800.108 1.30408 0.94247 0
M  V30 8460 O 801.3 1.55179 0.851384 0
M  V30 8461 C 798.429 3.14463 1.37725 0
M  V30 8462 C 797.515 4.17414 0.7501 0
M  V30 8463 N 797.906 5.05599 -0.142597 0
M  V30 8464 C 796.204 4.34377 1.01159 0
M  V30 8465 C 796.905 5.7954 -0.500782 0
M  V30 8466 N 795.881 5.43446 0.129386 0
M  V30 8467 H 799.683 2.91451 -0.378652 0
M  V30 8468 H 797.197 1.59441 -0.308614 0
M  V30 8469 H 799.194 3.67687 1.965 0
M  V30 8470 H 797.854 2.50464 2.06635 0
M  V30 8471 H 798.865 5.15354 -0.512894 0
M  V30 8472 H 795.542 3.81588 1.69402 0
M  V30 8473 H 796.932 6.60534 -1.23063 0
M  V30 8474 N 799.652 0.226554 1.55963 0
M  V30 8475 C 800.877 -0.411527 2.03276 0
M  V30 8476 C 801.302 -1.52206 1.10521 0
M  V30 8477 O 800.66 -1.81054 0.0943217 0
M  V30 8478 C 800.708 -0.915694 3.4878 0
M  V30 8479 O 799.812 -2.02672 3.59163 0
M  V30 8480 H 799.153 -0.0924907 0.657527 0
M  V30 8481 H 801.683 0.346656 2.01642 0
M  V30 8482 H 801.693 -1.22421 3.892 0
M  V30 8483 H 800.368 -0.102915 4.15773 0
M  V30 8484 H 798.945 -1.72445 3.30632 0
M  V30 8485 N 801.13 -1.57531 -0.0467866 0
M  V30 8486 C 802.093 -2.04379 -1.03738 0
M  V30 8487 C 803.093 -0.944881 -1.3011 0
M  V30 8488 O 804.283 -1.20904 -1.25411 0
M  V30 8489 C 801.415 -2.44572 -2.37482 0
M  V30 8490 H 802.608 -2.93142 -0.633063 0
M  V30 8491 H 800.161 -1.53526 -0.293177 0
M  V30 8492 H 800.896 -1.58911 -2.82697 0
M  V30 8493 H 800.681 -3.24785 -2.19675 0
M  V30 8494 H 802.171 -2.81307 -3.08636 0
M  V30 8495 N 802.608 0.318715 -1.54344 0
M  V30 8496 C 803.558 1.39364 -1.80448 0
M  V30 8497 C 804.542 1.46708 -0.660728 0
M  V30 8498 O 805.734 1.51159 -0.920869 0
M  V30 8499 C 802.863 2.76144 -2.03959 0
M  V30 8500 C 801.949 2.73094 -3.24469 0
M  V30 8501 N 802.34 2.39663 -4.45416 0
M  V30 8502 C 800.638 3.04218 -3.2614 0
M  V30 8503 C 801.339 2.45469 -5.27371 0
M  V30 8504 N 800.315 2.82107 -4.64668 0
M  V30 8505 H 804.117 1.12453 -2.71535 0
M  V30 8506 H 801.631 0.527221 -1.53604 0
M  V30 8507 H 803.628 3.53627 -2.20802 0
M  V30 8508 H 802.288 3.03982 -1.14129 0
M  V30 8509 H 803.299 2.12424 -4.72331 0
M  V30 8510 H 799.976 3.37066 -2.4636 0
M  V30 8511 H 801.366 2.22571 -6.33965 0
M  V30 8512 N 804.086 1.46499 0.581025 0
M  V30 8513 C 805.332 1.52121 1.34116 0
M  V30 8514 C 805.665 0.173031 1.93428 0
M  V30 8515 O 804.94 -0.815729 1.76568 0
M  V30 8516 C 805.223 2.62108 2.46924 0
M  V30 8517 C 805.076 4.06462 1.92636 0
M  V30 8518 C 806.395 2.68167 3.48962 0
M  V30 8519 H 803.514 0.5538 0.486287 0
M  V30 8520 H 806.156 1.78443 0.652538 0
M  V30 8521 H 804.306 2.39794 3.05665 0
M  V30 8522 H 805.978 4.40068 1.3834 0
M  V30 8523 H 804.221 4.15862 1.23455 0
M  V30 8524 H 804.892 4.79152 2.74076 0
M  V30 8525 H 807.368 2.8823 3.00104 0
M  V30 8526 H 806.244 3.46942 4.2535 0
M  V30 8527 H 806.505 1.74284 4.06297 0
M  V30 8528 N 805.565 -0.825799 1.34232 0
M  V30 8529 C 806.495 -1.95151 1.28212 0
M  V30 8530 C 807.476 -1.69345 0.160123 0
M  V30 8531 O 808.661 -1.90983 0.352019 0
M  V30 8532 C 805.791 -3.31554 1.03388 0
M  V30 8533 C 804.745 -3.71793 2.12023 0
M  V30 8534 C 804.071 -5.06147 1.72392 0
M  V30 8535 C 805.371 -3.84193 3.53826 0
M  V30 8536 H 807.065 -2.00445 2.22401 0
M  V30 8537 H 804.611 -0.962996 1.07063 0
M  V30 8538 H 806.564 -4.09889 0.978225 0
M  V30 8539 H 805.288 -3.26551 0.0564142 0
M  V30 8540 H 803.947 -2.95731 2.16654 0
M  V30 8541 H 803.595 -4.97628 0.733137 0
M  V30 8542 H 803.295 -5.34041 2.451 0
M  V30 8543 H 804.819 -5.86943 1.68317 0
M  V30 8544 H 806.233 -4.52806 3.51624 0
M  V30 8545 H 804.63 -4.23538 4.2513 0
M  V30 8546 H 805.7 -2.86272 3.91377 0
M  V30 8547 N 807.043 -1.17915 -1.04565 0
M  V30 8548 C 807.953 -0.916449 -2.15959 0
M  V30 8549 C 808.969 0.117655 -1.73602 0
M  V30 8550 O 810.145 -0.063089 -2.01301 0
M  V30 8551 C 807.21 -0.440262 -3.43893 0
M  V30 8552 C 806.271 -1.54172 -4.00661 0
M  V30 8553 C 805.504 -1.08816 -5.22489 0
M  V30 8554 O 805.727 0.0551547 -5.70373 0
M  V30 8555 O 804.661 -1.88383 -5.7166 0
M  V30 8556 H 808.487 -1.8484 -2.40972 0
M  V30 8557 H 806.072 -0.960552 -1.14428 0
M  V30 8558 H 807.954 -0.182537 -4.21004 0
M  V30 8559 H 806.629 0.46346 -3.20365 0
M  V30 8560 H 805.536 -1.85341 -3.24961 0
M  V30 8561 H 806.869 -2.42139 -4.2852 0
M  V30 8562 N 808.521 1.23394 -0.980386 0
M  V30 8563 C 809.468 2.24859 -0.520298 0
M  V30 8564 C 810.438 1.60144 0.440821 0
M  V30 8565 O 811.623 1.87593 0.348369 0
M  V30 8566 C 808.763 3.44675 0.171145 0
M  V30 8567 C 807.876 4.23947 -0.830233 0
M  V30 8568 C 807.011 5.31079 -0.113597 0
M  V30 8569 C 806.05 6.02058 -1.10419 0
M  V30 8570 N 805.187 7.00862 -0.416709 0
M  V30 8571 H 810.027 2.63579 -1.39032 0
M  V30 8572 H 807.564 1.29556 -0.696682 0
M  V30 8573 H 809.522 4.13024 0.588838 0
M  V30 8574 H 808.152 3.06755 1.00504 0
M  V30 8575 H 807.204 3.55016 -1.36631 0
M  V30 8576 H 808.516 4.72945 -1.58508 0
M  V30 8577 H 807.67 6.05622 0.36146 0
M  V30 8578 H 806.409 4.83022 0.673854 0
M  V30 8579 H 805.414 5.26307 -1.59 0
M  V30 8580 H 806.639 6.52203 -1.8923 0
M  V30 8581 H 804.585 6.55057 0.351535 0
M  V30 8582 H 804.502 7.47804 -1.11021 0
M  V30 8583 H 805.77 7.79492 0.0359606 0
M  V30 8584 N 809.999 0.752036 1.385 0
M  V30 8585 C 811.247 0.306895 1.99756 0
M  V30 8586 C 811.568 -1.11478 1.59992 0
M  V30 8587 O 810.838 -1.76206 0.856045 0
M  V30 8588 H 809.418 0.11048 0.738785 0
M  V30 8589 H 812.08 0.965785 1.69289 0
M  V30 8590 H 811.176 0.368797 3.09913 0
M  V30 8591 N 811.477 -1.49425 0.500989 0
M  V30 8592 C 812.725 -2.02053 -0.0434495 0
M  V30 8593 C 813.046 -1.38285 -1.37486 0
M  V30 8594 O 812.316 -0.538171 -1.88363 0
M  V30 8595 H 810.896 -0.746757 -0.0190469 0
M  V30 8596 H 813.558 -1.83449 0.658227 0
M  V30 8597 H 812.654 -3.11619 -0.173129 0
M  V30 8598 N 812.955 -0.234822 -1.55841 0
M  V30 8599 C 813.902 0.6698 -2.20867 0
M  V30 8600 C 814.872 1.18042 -1.16856 0
M  V30 8601 O 816.057 1.23709 -1.45261 0
M  V30 8602 C 813.197 1.86646 -2.90271 0
M  V30 8603 C 812.31 1.39351 -4.08908 0
M  V30 8604 C 811.445 2.54878 -4.66059 0
M  V30 8605 C 810.484 2.04384 -5.76969 0
M  V30 8606 N 809.621 3.13233 -6.28355 0
M  V30 8607 H 814.461 0.10858 -2.97802 0
M  V30 8608 H 811.998 0.041836 -1.4704 0
M  V30 8609 H 813.956 2.56926 -3.28702 0
M  V30 8610 H 812.586 2.40035 -2.15831 0
M  V30 8611 H 811.638 0.585173 -3.75872 0
M  V30 8612 H 812.95 0.983356 -4.89011 0
M  V30 8613 H 812.104 3.33219 -5.07001 0
M  V30 8614 H 810.843 2.99188 -3.85146 0
M  V30 8615 H 809.848 1.24509 -5.35516 0
M  V30 8616 H 811.073 1.61057 -6.59725 0
M  V30 8617 H 809.019 3.57 -5.50352 0
M  V30 8618 H 808.936 2.76511 -7.03618 0
M  V30 8619 H 810.204 3.91669 -6.73955 0
M  V30 8620 N 814.433 1.57553 0.0384317 0
M  V30 8621 C 815.679 1.89121 0.732199 0
M  V30 8622 C 816.012 0.831404 1.75503 0
M  V30 8623 O 815.287 -0.154642 1.93884 0
M  V30 8624 C 815.57 3.31338 1.41021 0
M  V30 8625 C 815.423 4.48004 0.401532 0
M  V30 8626 C 816.742 3.72318 2.34665 0
M  V30 8627 H 813.861 0.687819 0.264715 0
M  V30 8628 H 816.503 1.89999 -0.00496279 0
M  V30 8629 H 814.653 3.3072 2.03854 0
M  V30 8630 H 816.325 4.60755 -0.224159 0
M  V30 8631 H 814.568 4.32895 -0.280092 0
M  V30 8632 H 815.239 5.44377 0.91423 0
M  V30 8633 H 817.715 3.74243 1.81883 0
M  V30 8634 H 816.591 4.72652 2.7909 0
M  V30 8635 H 816.852 3.04062 3.20934 0
M  V30 8636 N 815.911 -0.310526 1.54511 0
M  V30 8637 C 817.158 -1.04691 1.73338 0
M  V30 8638 C 817.486 -1.87584 0.514038 0
M  V30 8639 O 816.741 -1.89096 -0.504119 0
M  V30 8640 C 817.04 -1.98942 2.96912 0
M  V30 8641 C 816.706 -1.321 4.31115 0
M  V30 8642 C 815.368 -1.13603 4.67598 0
M  V30 8643 C 817.72 -0.842362 5.14348 0
M  V30 8644 C 815.048 -0.459102 5.84901 0
M  V30 8645 C 817.4 -0.179202 6.32346 0
M  V30 8646 C 816.064 0.0178111 6.67498 0
M  V30 8647 H 815.334 -0.38309 0.634289 0
M  V30 8648 H 817.981 -0.322723 1.88761 0
M  V30 8649 H 816.286 -2.77856 2.76231 0
M  V30 8650 H 817.983 -2.55972 3.08674 0
M  V30 8651 H 814.573 -1.47502 4.02419 0
M  V30 8652 H 818.757 -0.973013 4.86668 0
M  V30 8653 H 814.013 -0.295385 6.10686 0
M  V30 8654 H 818.187 0.199619 6.96114 0
M  V30 8655 H 815.814 0.544356 7.58249 0
M  V30 8656 N 817.389 -1.46805 -0.573248 0
M  V30 8657 C 818.614 -1.56433 -1.36175 0
M  V30 8658 C 819.039 -0.209336 -1.86932 0
M  V30 8659 O 818.397 0.812146 -1.62092 0
M  V30 8660 C 818.445 -2.58055 -2.51873 0
M  V30 8661 O 817.549 -2.12214 -3.53609 0
M  V30 8662 H 816.89 -0.526068 -0.405153 0
M  V30 8663 H 819.42 -1.92456 -0.694405 0
M  V30 8664 H 819.43 -2.77966 -2.98662 0
M  V30 8665 H 818.105 -3.56448 -2.14284 0
M  V30 8666 H 816.682 -2.02333 -3.13234 0
M  V30 8667 N 818.867 0.818669 -1.34668 0
M  V30 8668 C 819.83 1.9114 -1.26483 0
M  V30 8669 C 820.83 1.598 -0.179044 0
M  V30 8670 O 822.02 1.6876 -0.431952 0
M  V30 8671 C 819.152 3.27285 -0.95381 0
M  V30 8672 H 820.345 1.9982 -2.23634 0
M  V30 8673 H 817.898 1.01314 -1.19018 0
M  V30 8674 H 818.633 3.24297 0.0143428 0
M  V30 8675 H 818.418 3.51416 -1.73924 0
M  V30 8676 H 819.908 4.07299 -0.921827 0
M  V30 8677 N 820.346 1.18468 1.03938 0
M  V30 8678 C 821.574 1.00576 1.80809 0
M  V30 8679 C 821.989 -0.445786 1.83462 0
M  V30 8680 O 821.346 -1.30964 1.27101 0
M  V30 8681 C 821.397 1.55491 3.26351 0
M  V30 8682 O 821.118 2.94963 3.23926 0
M  V30 8683 C 822.619 1.42236 4.19862 0
M  V30 8684 H 819.839 0.35508 0.56935 0
M  V30 8685 H 822.383 1.57046 1.30984 0
M  V30 8686 H 820.538 1.03195 3.73403 0
M  V30 8687 H 820.952 3.20598 4.15111 0
M  V30 8688 H 822.426 1.85455 5.19914 0
M  V30 8689 H 822.903 0.371267 4.37628 0
M  V30 8690 H 823.509 1.9361 3.78675 0
M  V30 8691 N 821.824 -1.22873 0.986916 0
M  V30 8692 C 822.754 -2.2688 0.552064 0
M  V30 8693 C 823.735 -1.64883 -0.418048 0
M  V30 8694 O 824.92 -1.9171 -0.30999 0
M  V30 8695 C 822.05 -3.47018 -0.139959 0
M  V30 8696 C 821.004 -4.21411 0.748091 0
M  V30 8697 C 820.33 -5.34645 -0.0765132 0
M  V30 8698 C 821.63 -4.80726 2.04206 0
M  V30 8699 H 823.324 -2.63507 1.42143 0
M  V30 8700 H 820.87 -1.26668 0.68492 0
M  V30 8701 H 822.823 -4.18931 -0.455527 0
M  V30 8702 H 821.547 -3.0947 -1.04382 0
M  V30 8703 H 820.206 -3.51325 1.04721 0
M  V30 8704 H 819.854 -4.93339 -0.981109 0
M  V30 8705 H 819.554 -5.85342 0.514606 0
M  V30 8706 H 821.078 -6.09377 -0.386313 0
M  V30 8707 H 822.492 -5.44612 1.79083 0
M  V30 8708 H 820.889 -5.41737 2.5815 0
M  V30 8709 H 821.959 -4.01109 2.72469 0
M  V30 8710 N 823.302 -0.75937 -1.38099 0
M  V30 8711 C 824.55 -0.317485 -1.99591 0
M  V30 8712 C 824.871 1.10628 -1.60581 0
M  V30 8713 O 824.141 1.7575 -0.865378 0
M  V30 8714 H 822.721 -0.114397 -0.738189 0
M  V30 8715 H 825.383 -0.974749 -1.68774 0
M  V30 8716 H 824.479 -0.385227 -3.09713 0
M  V30 8717 N 824.78 1.49157 -0.508906 0
M  V30 8718 C 825.71 2.32109 0.254469 0
M  V30 8719 C 826.691 1.40754 0.955111 0
M  V30 8720 O 827.876 1.69658 0.944983 0
M  V30 8721 C 825.006 3.21458 1.3146 0
M  V30 8722 C 823.96 4.2167 0.733368 0
M  V30 8723 C 823.286 5.00009 1.8946 0
M  V30 8724 C 824.586 5.21544 -0.280875 0
M  V30 8725 H 826.28 2.9618 -0.43795 0
M  V30 8726 H 823.826 1.4243 -0.212062 0
M  V30 8727 H 825.779 3.78305 1.85643 0
M  V30 8728 H 824.503 2.55346 2.03632 0
M  V30 8729 H 823.162 3.65979 0.213231 0
M  V30 8730 H 822.81 4.30338 2.60419 0
M  V30 8731 H 822.51 5.67821 1.51173 0
M  V30 8732 H 824.034 5.59702 2.44061 0
M  V30 8733 H 825.448 5.73039 0.173095 0
M  V30 8734 H 823.845 5.97291 -0.580006 0
M  V30 8735 H 824.915 4.69969 -1.19404 0
M  V30 8736 N 826.258 0.243083 1.55714 0
M  V30 8737 C 827.504 -0.383287 1.99145 0
M  V30 8738 C 827.837 -1.57868 1.13098 0
M  V30 8739 O 827.112 -1.93535 0.193509 0
M  V30 8740 C 827.395 -0.796879 3.51172 0
M  V30 8741 C 827.248 0.403642 4.47985 0
M  V30 8742 C 828.567 -1.64525 4.08191 0
M  V30 8743 H 825.686 -0.137843 0.723995 0
M  V30 8744 H 828.328 0.343631 1.86867 0
M  V30 8745 H 826.478 -1.41625 3.61766 0
M  V30 8746 H 828.15 1.04204 4.49376 0
M  V30 8747 H 826.393 1.04741 4.20965 0
M  V30 8748 H 827.064 0.0709794 5.51954 0
M  V30 8749 H 829.54 -1.12246 4.00674 0
M  V30 8750 H 828.416 -1.9035 5.14838 0
M  V30 8751 H 828.677 -2.61582 3.56409 0
M  V30 8752 N 827.736 -1.57571 -0.0300757 0
M  V30 8753 C 829.013 -1.80381 -0.756447 0
M  V30 8754 C 829.393 -0.840906 -1.93628 0
M  V30 8755 O 828.741 0.117143 -2.282 0
M  V30 8756 C 828.951 -3.2807 -1.19043 0
M  V30 8757 C 830.299 -3.93025 -1.60676 0
M  V30 8758 O 831.323 -3.32213 -1.28503 0
M  V30 8759 O 830.182 -5.00092 -2.20386 0
M  V30 8760 H 827.276 -0.741737 -0.365725 0
M  V30 8761 H 829.822 -1.69699 -0.00693177 0
M  V30 8762 H 828.594 -3.89748 -0.348128 0
M  V30 8763 H 828.217 -3.43637 -1.99999 0
M  V30 8764 N 829.214 0.302327 -1.54673 0
M  V30 8765 C 830.463 1.03533 -1.73101 0
M  V30 8766 C 830.776 1.88473 -0.523174 0
M  V30 8767 O 831.982 2.65029 -0.589229 0
M  V30 8768 C 830.438 1.89043 -3.06252 0
M  V30 8769 C 830.046 1.09112 -4.3451 0
M  V30 8770 C 831.79 2.61951 -3.34039 0
M  V30 8771 C 829.697 1.93891 -5.58713 0
M  V30 8772 H 828.627 0.390261 -0.645145 0
M  V30 8773 H 831.278 0.2924 -1.81155 0
M  V30 8774 H 829.66 2.67319 -2.92159 0
M  V30 8775 H 830.834 0.354596 -4.59434 0
M  V30 8776 H 829.149 0.477923 -4.13648 0
M  V30 8777 H 831.746 3.25729 -4.24033 0
M  V30 8778 H 832.089 3.30711 -2.52855 0
M  V30 8779 H 832.622 1.90725 -3.49097 0
M  V30 8780 H 829.361 1.29604 -6.4256 0
M  V30 8781 H 828.881 2.6522 -5.37976 0
M  V30 8782 H 830.56 2.51971 -5.95919 0
M  V30 8783 N 830.692 1.47107 0.565454 0
M  V30 8784 C 831.938 1.53535 1.32495 0
M  V30 8785 C 832.271 0.193537 1.93233 0
M  V30 8786 O 831.546 -0.796956 1.77423 0
M  V30 8787 C 831.829 2.64712 2.4413 0
M  V30 8788 C 831.682 4.08482 1.88314 0
M  V30 8789 C 833.001 2.71853 3.46098 0
M  V30 8790 H 830.12 0.558926 0.480386 0
M  V30 8791 H 832.762 1.79125 0.633575 0
M  V30 8792 H 830.912 2.43023 3.03104 0
M  V30 8793 H 832.584 4.4151 1.33665 0
M  V30 8794 H 830.827 4.17148 1.19037 0
M  V30 8795 H 831.498 4.82032 2.68978 0
M  V30 8796 H 833.974 2.91397 2.97031 0
M  V30 8797 H 832.85 3.51433 4.21646 0
M  V30 8798 H 833.111 1.78584 4.04426 0
M  V30 8799 N 832.17 -0.811516 1.35101 0
M  V30 8800 C 833.117 -1.92308 1.27617 0
M  V30 8801 C 834.087 -1.6543 0.149091 0
M  V30 8802 O 835.272 -1.8789 0.331974 0
M  V30 8803 C 832.412 -3.28768 1.04908 0
M  V30 8804 C 831.525 -3.67865 2.26493 0
M  V30 8805 C 830.66 -4.9333 1.96974 0
M  V30 8806 C 829.699 -5.25041 3.1464 0
M  V30 8807 N 828.836 -6.41685 2.84929 0
M  V30 8808 H 833.676 -1.98041 2.22674 0
M  V30 8809 H 831.213 -0.968755 1.10696 0
M  V30 8810 H 833.171 -4.07426 0.897749 0
M  V30 8811 H 831.801 -3.22517 0.135151 0
M  V30 8812 H 830.853 -2.84507 2.52507 0
M  V30 8813 H 832.165 -3.87263 3.14371 0
M  V30 8814 H 831.319 -5.79803 1.78643 0
M  V30 8815 H 830.058 -4.75958 1.06374 0
M  V30 8816 H 829.063 -4.3706 3.33554 0
M  V30 8817 H 830.288 -5.44346 4.06035 0
M  V30 8818 H 828.234 -6.25747 1.96918 0
M  V30 8819 H 828.151 -6.6131 3.66341 0
M  V30 8820 H 829.419 -7.31198 2.70128 0
M  V30 8821 N 833.648 -1.19017 -1.03309 0
M  V30 8822 C 834.896 -0.988258 -1.76289 0
M  V30 8823 C 835.217 0.482557 -1.88935 0
M  V30 8824 O 834.487 1.34969 -1.41987 0
M  V30 8825 H 833.067 -0.36267 -0.653054 0
M  V30 8826 H 835.729 -1.49836 -1.2464 0
M  V30 8827 H 834.825 -1.43273 -2.77271 0
M  V30 8828 N 835.127 1.22348 -0.993418 0
M  V30 8829 C 836.355 1.95125 -0.688021 0
M  V30 8830 C 836.77 1.73377 0.747388 0
M  V30 8831 O 836.127 1.03317 1.50439 0
M  V30 8832 C 836.178 3.47819 -0.985097 0
M  V30 8833 O 835.899 3.68838 -2.3641 0
M  V30 8834 C 837.4 4.37779 -0.697474 0
M  V30 8835 H 834.62 0.62087 -0.254481 0
M  V30 8836 H 837.164 1.55485 -1.32833 0
M  V30 8837 H 835.319 3.85426 -0.390583 0
M  V30 8838 H 835.733 4.63032 -2.46377 0
M  V30 8839 H 837.207 5.43666 -0.955604 0
M  V30 8840 H 837.684 4.37651 0.368524 0
M  V30 8841 H 838.29 4.05799 -1.27306 0
M  V30 8842 N 836.605 0.766683 1.37694 0
M  V30 8843 C 837.553 0.137269 2.32195 0
M  V30 8844 C 838.547 -0.69067 1.54681 0
M  V30 8845 O 839.753 -0.588299 1.70115 0
M  V30 8846 H 836.128 0.0256003 0.751564 0
M  V30 8847 H 838.099 0.950129 2.82869 0
M  V30 8848 C 836.848 -0.731446 3.39919 0
M  V30 8849 H 836.171 -0.103738 3.99665 0
M  V30 8850 H 837.611 -1.13891 4.08417 0
M  V30 8851 C 836.07 -1.87984 2.79578 0
M  V30 8852 O 836.6 -2.97496 2.69924 0
M  V30 8853 N 834.806 -1.6789 2.37195 0
M  V30 8854 H 834.353 -0.788162 2.45246 0
M  V30 8855 H 834.311 -2.44894 1.97165 0
M  V30 8856 N 838.083 -1.48885 0.516809 0
M  V30 8857 C 839.308 -2.0739 -0.0205201 0
M  V30 8858 C 839.733 -1.37259 -1.28614 0
M  V30 8859 O 839.091 -0.434304 -1.76021 0
M  V30 8860 C 839.139 -3.59793 -0.24104 0
M  V30 8861 O 838.243 -3.90957 -1.31251 0
M  V30 8862 H 837.584 -0.663167 0.0332564 0
M  V30 8863 H 840.114 -1.91477 0.720956 0
M  V30 8864 H 840.124 -4.0531 -0.467737 0
M  V30 8865 H 838.799 -4.10244 0.68356 0
M  V30 8866 H 837.376 -3.57234 -1.06951 0
M  V30 8867 N 839.561 -0.251338 -1.55583 0
M  V30 8868 C 840.791 0.375642 -2.03156 0
M  V30 8869 C 841.199 1.51761 -1.12983 0
M  V30 8870 O 840.542 1.83184 -0.13757 0
M  V30 8871 C 840.604 0.941001 -3.46966 0
M  V30 8872 C 840.268 -0.0692886 -4.56947 0
M  V30 8873 C 841.265 -0.88041 -5.12391 0
M  V30 8874 C 838.95 -0.196661 -5.01915 0
M  V30 8875 C 840.944 -1.80532 -6.11299 0
M  V30 8876 C 838.631 -1.12507 -6.00654 0
M  V30 8877 C 839.629 -1.92792 -6.55225 0
M  V30 8878 O 839.317 -2.84067 -7.52038 0
M  V30 8879 H 839.049 0.0928836 -0.669588 0
M  V30 8880 H 841.603 -0.374115 -2.01964 0
M  V30 8881 H 839.833 1.7404 -3.45322 0
M  V30 8882 H 841.522 1.47853 -3.78014 0
M  V30 8883 H 842.288 -0.792615 -4.78479 0
M  V30 8884 H 838.167 0.418187 -4.59099 0
M  V30 8885 H 841.711 -2.43239 -6.5382 0
M  V30 8886 H 837.608 -1.21377 -6.33986 0
M  V30 8887 H 838.376 -2.78479 -7.6967 0
M  V30 8888 N 841.039 1.57585 0.0217189 0
M  V30 8889 C 842.269 1.9359 0.721572 0
M  V30 8890 C 842.677 0.850132 1.69025 0
M  V30 8891 O 842.02 -0.181539 1.82801 0
M  V30 8892 C 842.082 3.25445 1.52729 0
M  V30 8893 C 841.746 4.51251 0.722586 0
M  V30 8894 C 842.743 5.19896 0.0196598 0
M  V30 8895 C 840.428 4.97745 0.674959 0
M  V30 8896 C 842.422 6.33319 -0.720114 0
M  V30 8897 C 840.109 6.11062 -0.068555 0
M  V30 8898 C 841.107 6.78704 -0.764845 0
M  V30 8899 O 840.795 7.89852 -1.49627 0
M  V30 8900 H 840.527 0.643409 0.207366 0
M  V30 8901 H 843.081 2.05391 -0.0189346 0
M  V30 8902 H 841.311 3.0999 2.31178 0
M  V30 8903 H 843 3.46721 2.11044 0
M  V30 8904 H 843.766 4.84977 0.0474394 0
M  V30 8905 H 839.645 4.44934 1.20643 0
M  V30 8906 H 843.189 6.86051 -1.26413 0
M  V30 8907 H 839.086 6.45425 -0.0982318 0
M  V30 8908 H 839.854 8.06251 -1.41071 0
M  V30 8909 N 842.517 -0.29412 1.54831 0
M  V30 8910 C 843.464 -1.36296 1.86258 0
M  V30 8911 C 844.434 -1.50061 0.712097 0
M  V30 8912 O 845.619 -1.64809 0.961381 0
M  V30 8913 C 842.759 -2.72187 2.12151 0
M  V30 8914 C 841.872 -2.66816 3.39755 0
M  V30 8915 C 841.007 -3.94747 3.55455 0
M  V30 8916 C 840.046 -3.838 4.76827 0
M  V30 8917 N 839.183 -5.03521 4.89296 0
M  V30 8918 H 844.023 -1.08796 2.7743 0
M  V30 8919 H 841.56 -0.526069 1.37371 0
M  V30 8920 H 843.518 -3.51225 2.25159 0
M  V30 8921 H 842.148 -2.97934 1.24237 0
M  V30 8922 H 841.2 -1.79605 3.3533 0
M  V30 8923 H 842.512 -2.5462 4.28917 0
M  V30 8924 H 841.666 -4.82223 3.68166 0
M  V30 8925 H 840.405 -4.09785 2.64438 0
M  V30 8926 H 839.41 -2.94708 4.64141 0
M  V30 8927 H 840.635 -3.70301 5.69258 0
M  V30 8928 H 838.581 -5.1901 4.01204 0
M  V30 8929 H 838.498 -4.93775 5.72471 0
M  V30 8930 H 839.766 -5.92629 5.06371 0
M  V30 8931 N 843.995 -1.47404 -0.557645 0
M  V30 8932 C 844.925 -1.62736 -1.67449 0
M  V30 8933 C 845.906 -0.476824 -1.6328 0
M  V30 8934 O 847.091 -0.706108 -1.80908 0
M  V30 8935 C 844.221 -1.641 -3.06086 0
M  V30 8936 C 843.175 -2.78377 -3.25101 0
M  V30 8937 C 842.501 -2.64812 -4.6452 0
M  V30 8938 C 843.801 -4.19971 -3.10518 0
M  V30 8939 H 845.495 -2.56232 -1.54873 0
M  V30 8940 H 843.041 -1.23312 -0.743649 0
M  V30 8941 H 844.994 -1.73417 -3.84063 0
M  V30 8942 H 843.718 -0.671652 -3.19619 0
M  V30 8943 H 842.377 -2.6857 -2.49531 0
M  V30 8944 H 842.025 -1.65906 -4.74852 0
M  V30 8945 H 841.725 -3.41477 -4.78191 0
M  V30 8946 H 843.249 -2.76057 -5.44633 0
M  V30 8947 H 844.663 -4.30757 -3.78313 0
M  V30 8948 H 843.06 -4.97419 -3.35699 0
M  V30 8949 H 844.13 -4.38369 -2.0727 0
M  V30 8950 N 845.473 0.80434 -1.35529 0
M  V30 8951 C 846.405 1.92445 -1.2449 0
M  V30 8952 C 847.418 1.61934 -0.167685 0
M  V30 8953 O 848.607 1.73461 -0.42115 0
M  V30 8954 C 845.707 3.26875 -0.894751 0
M  V30 8955 C 844.88 3.85275 -2.07079 0
M  V30 8956 C 843.939 4.98116 -1.69607 0
M  V30 8957 O 842.965 5.15424 -2.41509 0
M  V30 8958 N 844.167 5.77169 -0.621012 0
M  V30 8959 H 846.932 2.02441 -2.20993 0
M  V30 8960 H 844.493 0.981874 -1.28728 0
M  V30 8961 H 846.485 3.99837 -0.625511 0
M  V30 8962 H 845.055 3.12594 -0.0193306 0
M  V30 8963 H 844.275 3.0448 -2.5037 0
M  V30 8964 H 845.563 4.21024 -2.85685 0
M  V30 8965 H 844.961 5.65695 -0.0236679 0
M  V30 8966 H 843.518 6.50499 -0.411558 0
M  V30 8967 N 846.951 1.19563 1.02676 0
M  V30 8968 C 847.881 0.959024 2.12897 0
M  V30 8969 C 848.862 -0.108382 1.69754 0
M  V30 8970 O 850.047 0.0470698 1.94143 0
M  V30 8971 C 847.177 0.499211 3.43693 0
M  V30 8972 C 846.131 1.5087 4.00528 0
M  V30 8973 C 845.457 0.905884 5.2697 0
M  V30 8974 C 846.757 2.88954 4.3509 0
M  V30 8975 H 848.451 1.88084 2.32948 0
M  V30 8976 H 845.997 0.905731 1.11949 0
M  V30 8977 H 847.95 0.320965 4.20176 0
M  V30 8978 H 846.674 -0.458205 3.2337 0
M  V30 8979 H 845.333 1.67413 3.26142 0
M  V30 8980 H 844.981 -0.0591506 5.02965 0
M  V30 8981 H 844.681 1.58 5.65959 0
M  V30 8982 H 846.205 0.73848 6.06118 0
M  V30 8983 H 847.619 2.75981 5.02501 0
M  V30 8984 H 846.016 3.53177 4.85166 0
M  V30 8985 H 847.086 3.41447 3.44299 0
M  V30 8986 N 848.429 -1.21819 0.999893 0
M  V30 8987 C 849.359 -2.26282 0.576096 0
M  V30 8988 C 850.34 -1.65317 -0.400537 0
M  V30 8989 O 851.525 -1.92028 -0.28964 0
M  V30 8990 C 848.655 -3.47147 -0.103145 0
M  V30 8991 C 847.609 -4.20594 0.792745 0
M  V30 8992 C 846.935 -5.34696 -0.0198026 0
M  V30 8993 C 848.235 -4.78533 2.09293 0
M  V30 8994 H 849.929 -2.61984 1.4493 0
M  V30 8995 H 847.475 -1.25935 0.698316 0
M  V30 8996 H 849.428 -4.1939 -0.411068 0
M  V30 8997 H 848.152 -3.1056 -1.01094 0
M  V30 8998 H 846.811 -3.50194 1.08442 0
M  V30 8999 H 846.459 -4.94352 -0.928729 0
M  V30 9000 H 846.159 -5.84764 0.576661 0
M  V30 9001 H 847.683 -6.09752 -0.321659 0
M  V30 9002 H 849.097 -5.42682 1.8485 0
M  V30 9003 H 847.494 -5.38968 2.63881 0
M  V30 9004 H 848.564 -3.98197 2.76708 0
M  V30 9005 N 849.908 -0.773975 -1.37286 0
M  V30 9006 C 850.818 -0.162571 -2.34036 0
M  V30 9007 C 851.834 0.677022 -1.60289 0
M  V30 9008 O 853.01 0.596423 -1.92366 0
M  V30 9009 C 850.075 0.70457 -3.39465 0
M  V30 9010 C 849.136 -0.151738 -4.29032 0
M  V30 9011 C 848.369 0.674111 -5.29426 0
M  V30 9012 O 848.592 1.91107 -5.37433 0
M  V30 9013 O 847.526 0.0821398 -6.01844 0
M  V30 9014 H 851.352 -0.962119 -2.88057 0
M  V30 9015 H 848.937 -0.53517 -1.39486 0
M  V30 9016 H 850.819 1.19954 -4.03967 0
M  V30 9017 H 849.494 1.48227 -2.87768 0
M  V30 9018 H 848.401 -0.693118 -3.67623 0
M  V30 9019 H 849.734 -0.892575 -4.84039 0
M  V30 9020 N 851.386 1.48609 -0.524698 0
M  V30 9021 C 852.663 1.95454 0.075465 0
M  V30 9022 C 853.043 1.46682 1.51814 0
M  V30 9023 O 852.391 0.690975 2.17802 0
M  V30 9024 C 852.601 3.48981 -0.0363273 0
M  V30 9025 C 853.949 4.24414 0.125624 0
M  V30 9026 O 854.973 3.5618 0.0377239 0
M  V30 9027 O 853.832 5.45625 0.309104 0
M  V30 9028 H 850.926 0.822902 0.0822256 0
M  V30 9029 H 853.472 1.59153 -0.588921 0
M  V30 9030 H 852.244 3.77185 -1.04149 0
M  V30 9031 H 851.867 3.91963 0.667146 0
M  V30 9032 N 852.864 0.259585 1.55447 0
M  V30 9033 C 854.141 -0.412595 1.91199 0
M  V30 9034 C 854.521 -1.74909 1.18194 0
M  V30 9035 O 853.869 -2.26474 0.303603 0
M  V30 9036 C 854.079 -0.568195 3.44344 0
M  V30 9037 C 855.427 -0.858253 4.15836 0
M  V30 9038 O 856.451 -0.653588 3.50152 0
M  V30 9039 O 855.31 -1.24874 5.32042 0
M  V30 9040 H 852.404 -0.223403 0.796254 0
M  V30 9041 H 854.95 0.30459 1.66944 0
M  V30 9042 H 853.722 0.372989 3.89518 0
M  V30 9043 H 853.345 -1.33544 3.74502 0
M  V30 9044 N 854.342 -1.57594 -0.0133615 0
M  V30 9045 C 855.289 -2.07574 -1.00905 0
M  V30 9046 C 856.259 -0.968231 -1.34961 0
M  V30 9047 O 857.444 -1.23981 -1.45028 0
M  V30 9048 C 854.584 -2.5728 -2.30002 0
M  V30 9049 C 853.697 -3.81881 -2.01967 0
M  V30 9050 C 852.832 -4.20139 -3.25049 0
M  V30 9051 C 851.871 -5.37614 -2.92639 0
M  V30 9052 N 851.008 -5.71229 -4.08218 0
M  V30 9053 H 855.848 -2.92382 -0.575899 0
M  V30 9054 H 853.385 -1.4455 -0.272722 0
M  V30 9055 H 855.343 -2.84171 -3.05454 0
M  V30 9056 H 853.973 -1.75365 -2.71011 0
M  V30 9057 H 853.025 -3.61979 -1.16942 0
M  V30 9058 H 854.337 -4.67441 -1.74069 0
M  V30 9059 H 853.491 -4.48242 -4.08857 0
M  V30 9060 H 852.23 -3.33262 -3.56073 0
M  V30 9061 H 851.235 -5.09248 -2.07235 0
M  V30 9062 H 852.46 -6.26157 -2.62876 0
M  V30 9063 H 850.406 -4.8731 -4.39164 0
M  V30 9064 H 850.323 -6.51333 -3.83799 0
M  V30 9065 H 851.591 -6.03917 -4.92854 0
M  V30 9066 N 855.82 0.285905 -1.54985 0
M  V30 9067 C 856.73 1.37534 -1.90057 0
M  V30 9068 C 857.746 1.54707 -0.796348 0
M  V30 9069 O 858.922 1.69082 -1.09423 0
M  V30 9070 C 855.987 2.7167 -2.15398 0
M  V30 9071 C 855.048 2.63354 -3.39033 0
M  V30 9072 C 854.281 3.91093 -3.63155 0
M  V30 9073 O 854.504 4.91169 -2.90015 0
M  V30 9074 O 853.438 3.92075 -4.56685 0
M  V30 9075 H 857.264 1.10791 -2.8277 0
M  V30 9076 H 854.849 0.483303 -1.41367 0
M  V30 9077 H 856.731 3.51006 -2.33179 0
M  V30 9078 H 855.406 2.98226 -1.25868 0
M  V30 9079 H 854.313 1.82438 -3.26599 0
M  V30 9080 H 855.646 2.41749 -4.2874 0
M  V30 9081 N 857.298 1.47698 0.54982 0
M  V30 9082 C 858.246 1.61156 1.67724 0
M  V30 9083 C 859.24 0.478606 1.62498 0
M  V30 9084 O 860.446 0.656661 1.67595 0
M  V30 9085 H 856.821 0.507304 0.55511 0
M  V30 9086 H 858.792 2.55884 1.53512 0
M  V30 9087 C 857.541 1.64994 3.06059 0
M  V30 9088 H 856.864 2.51525 3.10765 0
M  V30 9089 H 858.304 1.78459 3.84615 0
M  V30 9090 C 856.763 0.384677 3.34697 0
M  V30 9091 O 857.293 -0.511057 3.98436 0
M  V30 9092 N 855.499 0.262434 2.89413 0
M  V30 9093 H 855.046 0.99229 2.37721 0
M  V30 9094 H 855.004 -0.583177 3.08944 0
M  V30 9095 N 858.776 -0.797141 1.35954 0
M  V30 9096 C 860.192 -1.09408 1.16198 0
M  V30 9097 C 860.392 -2.01491 -0.0191682 0
M  V30 9098 O 859.448 -2.42977 -0.686902 0
M  V30 9099 C 860.761 -1.71597 2.46931 0
M  V30 9100 C 862.309 -1.83974 2.53224 0
M  V30 9101 C 862.784 -2.49579 3.84024 0
M  V30 9102 N 864.275 -2.57055 3.85327 0
M  V30 9103 C 865.01 -3.08608 4.83268 0
M  V30 9104 N 864.506 -3.60527 5.91601 0
M  V30 9105 N 866.299 -3.07249 4.70696 0
M  V30 9106 H 858.45 -0.185209 2.11591 0
M  V30 9107 H 860.713 -0.144768 0.936881 0
M  V30 9108 H 860.419 -1.11404 3.3359 0
M  V30 9109 H 860.293 -2.71193 2.62172 0
M  V30 9110 H 862.68 -2.43308 1.66988 0
M  V30 9111 H 862.761 -0.83207 2.41889 0
M  V30 9112 H 862.405 -1.90892 4.70662 0
M  V30 9113 H 862.335 -3.50902 3.92651 0
M  V30 9114 H 864.826 -2.20283 3.07057 0
M  V30 9115 H 865.139 -3.98192 6.62317 0
M  V30 9116 H 863.484 -3.587 5.95281 0
M  V30 9117 H 866.675 -2.65972 3.85197 0
M  V30 9118 H 866.848 -3.47119 5.47186 0
M  V30 9119 N 860.254 -1.20106 -1.0204 0
M  V30 9120 C 861.484 -1.0329 -1.78927 0
M  V30 9121 C 861.892 0.421115 -1.84454 0
M  V30 9122 O 861.235 1.30422 -1.29367 0
M  V30 9123 C 861.297 -1.53627 -3.25021 0
M  V30 9124 C 860.961 -3.01869 -3.4311 0
M  V30 9125 C 861.958 -3.9956 -3.32638 0
M  V30 9126 C 859.643 -3.40746 -3.6905 0
M  V30 9127 C 861.637 -5.34119 -3.47844 0
M  V30 9128 C 859.324 -4.75462 -3.839 0
M  V30 9129 C 860.322 -5.71957 -3.73302 0
M  V30 9130 O 860.01 -7.04231 -3.87703 0
M  V30 9131 H 859.742 -0.363962 -0.569656 0
M  V30 9132 H 862.296 -1.59551 -1.29354 0
M  V30 9133 H 860.526 -0.917481 -3.75658 0
M  V30 9134 H 862.215 -1.32889 -3.8353 0
M  V30 9135 H 862.981 -3.70869 -3.12539 0
M  V30 9136 H 858.86 -2.66182 -3.76388 0
M  V30 9137 H 862.404 -6.09421 -3.39488 0
M  V30 9138 H 858.301 -5.03844 -4.03499 0
M  V30 9139 H 859.069 -7.11425 -4.04744 0
M  V30 9140 N 861.732 1.21287 -1.00634 0
M  V30 9141 C 862.978 1.90957 -0.70051 0
M  V30 9142 C 863.333 1.76729 0.760567 0
M  V30 9143 O 862.626 1.13405 1.54434 0
M  V30 9144 C 862.82 3.41374 -1.05824 0
M  V30 9145 C 862.649 3.70237 -2.55254 0
M  V30 9146 C 861.419 3.89518 -3.21876 0
M  V30 9147 C 863.617 3.73633 -3.53417 0
M  V30 9148 N 861.599 4.05809 -4.60643 0
M  V30 9149 C 862.97 3.95225 -4.777 0
M  V30 9150 C 865.025 3.56545 -3.47534 0
M  V30 9151 C 863.728 4.01502 -5.96815 0
M  V30 9152 C 865.754 3.64089 -4.6604 0
M  V30 9153 C 865.116 3.86144 -5.89128 0
M  V30 9154 H 861.215 0.718861 -0.307835 0
M  V30 9155 H 863.799 1.45913 -1.28908 0
M  V30 9156 H 861.97 3.85193 -0.498106 0
M  V30 9157 H 863.702 3.98476 -0.707006 0
M  V30 9158 H 860.457 3.87479 -2.72318 0
M  V30 9159 H 860.881 4.17854 -5.32661 0
M  V30 9160 H 865.523 3.38469 -2.53375 0
M  V30 9161 H 863.241 4.18378 -6.91365 0
M  V30 9162 H 866.827 3.52188 -4.63092 0
M  V30 9163 H 865.707 3.91827 -6.79295 0
M  V30 9164 N 863.21 0.781244 1.36873 0
M  V30 9165 C 864.459 0.34652 1.98701 0
M  V30 9166 C 864.772 -1.08555 1.62712 0
M  V30 9167 O 865.978 -1.62213 2.17713 0
M  V30 9168 C 864.434 0.568611 3.5538 0
M  V30 9169 C 864.042 2.01156 4.003 0
M  V30 9170 C 865.786 0.197983 4.24038 0
M  V30 9171 C 863.693 2.18074 5.49725 0
M  V30 9172 H 862.623 0.125821 0.743428 0
M  V30 9173 H 865.274 0.961721 1.56279 0
M  V30 9174 H 863.656 -0.116185 3.9583 0
M  V30 9175 H 864.83 2.73209 3.71071 0
M  V30 9176 H 863.145 2.33967 3.44454 0
M  V30 9177 H 865.742 0.302778 5.33842 0
M  V30 9178 H 866.085 -0.852927 4.07469 0
M  V30 9179 H 866.618 0.835696 3.88923 0
M  V30 9180 H 863.357 3.21519 5.71232 0
M  V30 9181 H 862.877 1.50517 5.80607 0
M  V30 9182 H 864.556 1.98393 6.15832 0
M  V30 9183 N 864.689 -1.48329 0.532571 0
M  V30 9184 C 865.936 -2.025 -0.000582356 0
M  V30 9185 C 866.264 -1.40942 -1.34036 0
M  V30 9186 O 865.519 -0.545545 -1.87942 0
M  V30 9187 C 865.818 -3.57 -0.168943 0
M  V30 9188 C 865.484 -4.37357 1.0968 0
M  V30 9189 C 864.146 -4.59033 1.44369 0
M  V30 9190 C 866.498 -4.83882 1.93669 0
M  V30 9191 C 863.826 -5.24481 2.62939 0
M  V30 9192 C 866.178 -5.50637 3.11419 0
M  V30 9193 C 864.842 -5.70551 3.46451 0
M  V30 9194 H 864.112 -0.741 -0.000213099 0
M  V30 9195 H 866.759 -1.78282 0.699117 0
M  V30 9196 H 865.064 -3.80072 -0.951429 0
M  V30 9197 H 866.761 -3.9654 -0.596422 0
M  V30 9198 H 863.351 -4.20748 0.816655 0
M  V30 9199 H 867.535 -4.66936 1.6818 0
M  V30 9200 H 862.791 -5.38096 2.9028 0
M  V30 9201 H 866.965 -5.85655 3.76803 0
M  V30 9202 H 864.592 -6.21037 4.38425 0
M  V30 9203 N 866.167 -0.267825 -1.55308 0
M  V30 9204 C 867.583 0.0865107 -1.59365 0
M  V30 9205 C 867.783 1.55205 -1.28505 0
M  V30 9206 O 866.839 2.29978 -1.04241 0
M  V30 9207 C 868.152 -0.28155 -2.99379 0
M  V30 9208 C 869.7 -0.227565 -3.12172 0
M  V30 9209 C 870.175 -0.569959 -4.5444 0
M  V30 9210 N 871.666 -0.521238 -4.60258 0
M  V30 9211 C 872.401 -0.759061 -5.68354 0
M  V30 9212 N 871.897 -1.06112 -6.84626 0
M  V30 9213 N 873.69 -0.688351 -5.57869 0
M  V30 9214 H 865.841 -1.22332 -1.73633 0
M  V30 9215 H 868.104 -0.493703 -0.809297 0
M  V30 9216 H 867.81 -1.3005 -3.26772 0
M  V30 9217 H 867.684 0.381192 -3.75269 0
M  V30 9218 H 870.071 0.782093 -2.84548 0
M  V30 9219 H 870.152 -0.924461 -2.38511 0
M  V30 9220 H 869.796 -1.57727 -4.82788 0
M  V30 9221 H 869.726 0.148646 -5.2639 0
M  V30 9222 H 872.217 -0.297359 -3.76728 0
M  V30 9223 H 872.53 -1.22945 -7.62958 0
M  V30 9224 H 870.875 -1.09881 -6.86259 0
M  V30 9225 H 874.066 -0.452268 -4.6591 0
M  V30 9226 H 874.239 -0.877081 -6.42037 0
M  V30 9227 N 867.645 1.57599 0.00500368 0
M  V30 9228 C 868.87 1.95026 0.705663 0
M  V30 9229 C 869.295 0.869643 1.6679 0
M  V30 9230 O 868.653 -0.172659 1.80476 0
M  V30 9231 C 868.701 3.31545 1.4181 0
M  V30 9232 O 867.805 3.25495 2.53232 0
M  V30 9233 H 867.146 0.636808 0.188074 0
M  V30 9234 H 869.676 2.04547 -0.046696 0
M  V30 9235 H 869.686 3.66996 1.78265 0
M  V30 9236 H 868.361 4.09751 0.712543 0
M  V30 9237 H 866.938 3.01714 2.19142 0
M  V30 9238 N 869.123 -0.277682 1.55134 0
M  V30 9239 C 870.369 -1.00733 1.76704 0
M  V30 9240 C 870.724 -1.84107 0.55879 0
M  V30 9241 O 870.017 -1.86275 -0.448591 0
M  V30 9242 C 870.211 -1.92599 3.01065 0
M  V30 9243 C 870.04 -1.18266 4.3387 0
M  V30 9244 C 868.81 -0.900254 4.97216 0
M  V30 9245 C 871.008 -0.575419 5.11071 0
M  V30 9246 N 868.99 -0.129637 6.13763 0
M  V30 9247 C 870.361 0.0612637 6.1997 0
M  V30 9248 C 872.416 -0.482794 4.95554 0
M  V30 9249 C 871.119 0.781637 7.15041 0
M  V30 9250 C 873.145 0.223977 5.90976 0
M  V30 9251 C 872.507 0.849416 6.9926 0
M  V30 9252 H 868.606 -0.35075 0.698927 0
M  V30 9253 H 871.19 -0.283482 1.92625 0
M  V30 9254 H 869.361 -2.62214 2.86528 0
M  V30 9255 H 871.093 -2.5889 3.1106 0
M  V30 9256 H 867.848 -1.20434 4.58031 0
M  V30 9257 H 868.272 0.242865 6.76564 0
M  V30 9258 H 872.914 -0.952023 4.11942 0
M  V30 9259 H 870.632 1.26256 7.98176 0
M  V30 9260 H 874.218 0.2959 5.81047 0
M  V30 9261 H 873.098 1.3876 7.71826 0
M  V30 9262 N 870.601 -1.47988 -0.541979 0
M  V30 9263 C 871.849 -1.55086 -1.29587 0
M  V30 9264 C 872.17 -0.221304 -1.9374 0
M  V30 9265 O 871.44 0.756128 -1.80719 0
M  V30 9266 H 870.02 -0.571307 -0.481266 0
M  V30 9267 H 872.682 -1.8438 -0.631675 0
M  V30 9268 H 871.778 -2.32556 -2.08144 0
M  V30 9269 N 872.079 0.78992 -1.36375 0
M  V30 9270 C 873.495 1.0879 -1.16777 0
M  V30 9271 C 873.695 2.01498 0.00848236 0
M  V30 9272 O 872.751 2.43338 0.674007 0
M  V30 9273 C 874.064 1.70285 -2.47837 0
M  V30 9274 C 875.612 1.82629 -2.54196 0
M  V30 9275 C 876.087 2.47539 -3.85342 0
M  V30 9276 N 877.578 2.55008 -3.86685 0
M  V30 9277 C 878.313 3.06041 -4.84898 0
M  V30 9278 N 877.809 3.57385 -5.93505 0
M  V30 9279 N 879.602 3.04748 -4.72319 0
M  V30 9280 H 871.753 0.173985 -2.11686 0
M  V30 9281 H 874.016 0.139798 -0.937636 0
M  V30 9282 H 873.722 1.09633 -3.34176 0
M  V30 9283 H 873.596 2.69799 -2.63607 0
M  V30 9284 H 875.983 2.42419 -1.68276 0
M  V30 9285 H 876.064 0.81923 -2.42327 0
M  V30 9286 H 875.708 1.88393 -4.71668 0
M  V30 9287 H 875.638 3.48815 -3.94507 0
M  V30 9288 H 878.129 2.18651 -3.08221 0
M  V30 9289 H 878.442 3.94674 -6.64419 0
M  V30 9290 H 876.787 3.55538 -5.97175 0
M  V30 9291 H 879.978 2.63925 -3.86602 0
M  V30 9292 H 880.151 3.44212 -5.49019 0
M  V30 9293 N 873.557 1.20646 1.01402 0
M  V30 9294 C 874.803 1.0197 1.753 0
M  V30 9295 C 875.136 -0.446803 1.8899 0
M  V30 9296 O 874.411 -1.33169 1.41762 0
M  V30 9297 C 874.694 1.70693 3.17074 0
M  V30 9298 C 874.547 3.24805 3.11162 0
M  V30 9299 C 875.866 1.44212 4.15802 0
M  V30 9300 H 872.985 0.371844 0.636318 0
M  V30 9301 H 875.627 1.48696 1.18277 0
M  V30 9302 H 873.777 1.30968 3.65759 0
M  V30 9303 H 875.449 3.73841 2.70261 0
M  V30 9304 H 873.692 3.55576 2.48492 0
M  V30 9305 H 874.363 3.68049 4.11393 0
M  V30 9306 H 876.839 1.7868 3.75783 0
M  V30 9307 H 875.715 1.94825 5.13161 0
M  V30 9308 H 875.976 0.370252 4.40547 0
M  V30 9309 N 875.035 -1.20752 1.01276 0
M  V30 9310 C 876.283 -1.89645 0.698505 0
M  V30 9311 C 876.604 -1.78986 -0.773883 0
M  V30 9312 O 875.874 -1.18977 -1.55632 0
M  V30 9313 H 874.454 -0.701992 0.255375 0
M  V30 9314 H 877.116 -1.46668 1.28353 0
M  V30 9315 H 876.212 -2.96364 0.978512 0
M  V30 9316 N 876.513 -0.788492 -1.36457 0
M  V30 9317 C 877.741 -0.372365 -2.03522 0
M  V30 9318 C 878.156 1.01093 -1.59454 0
M  V30 9319 O 877.513 1.64824 -0.783535 0
M  V30 9320 C 877.564 -0.425435 -3.58988 0
M  V30 9321 O 877.285 -1.75418 -4.01448 0
M  V30 9322 C 878.786 0.000180167 -4.433 0
M  V30 9323 H 876.006 -0.1536 -0.653183 0
M  V30 9324 H 878.55 -1.06708 -1.74452 0
M  V30 9325 H 876.705 0.220856 -3.8677 0
M  V30 9326 H 877.119 -1.70437 -4.96036 0
M  V30 9327 H 878.593 -0.0880919 -5.5193 0
M  V30 9328 H 879.07 1.05269 -4.26398 0
M  V30 9329 H 879.676 -0.618563 -4.20778 0
M  V30 9330 N 877.991 1.48044 -0.54043 0
M  V30 9331 C 879.237 2.02797 -0.0101718 0
M  V30 9332 C 879.57 1.41565 1.32939 0
M  V30 9333 O 878.845 0.565139 1.86109 0
M  V30 9334 C 879.128 3.59959 0.100758 0
M  V30 9335 C 878.981 4.31654 -1.26471 0
M  V30 9336 C 880.3 4.32347 0.822455 0
M  V30 9337 H 877.419 0.736982 -0.00517052 0
M  V30 9338 H 880.061 1.76656 -0.69948 0
M  V30 9339 H 878.211 3.82363 0.687824 0
M  V30 9340 H 879.883 4.20639 -1.89369 0
M  V30 9341 H 878.126 3.92663 -1.84386 0
M  V30 9342 H 878.797 5.401 -1.13998 0
M  V30 9343 H 881.273 4.14835 0.324164 0
M  V30 9344 H 880.149 5.41978 0.868993 0
M  V30 9345 H 880.41 4.00369 1.87501 0
M  V30 9346 N 879.47 0.276058 1.55163 0
M  V30 9347 C 880.719 -0.341098 1.98795 0
M  V30 9348 C 881.032 -1.56905 1.16791 0
M  V30 9349 O 882.238 -2.25922 1.50571 0
M  V30 9350 C 880.694 -0.658231 3.5383 0
M  V30 9351 C 880.302 0.549972 4.44611 0
M  V30 9352 C 882.046 -1.23796 4.06048 0
M  V30 9353 C 879.953 0.207373 5.91036 0
M  V30 9354 H 878.883 -0.131224 0.742493 0
M  V30 9355 H 881.534 0.380858 1.79504 0
M  V30 9356 H 879.916 -1.43911 3.68925 0
M  V30 9357 H 881.09 1.32681 4.41285 0
M  V30 9358 H 879.405 1.04661 4.03032 0
M  V30 9359 H 882.002 -1.50811 5.12991 0
M  V30 9360 H 882.345 -2.17214 3.55139 0
M  V30 9361 H 882.878 -0.519345 3.94395 0
M  V30 9362 H 879.617 1.10946 6.46043 0
M  V30 9363 H 879.137 -0.532687 5.9743 0
M  V30 9364 H 880.816 -0.200072 6.46691 0
M  V30 9365 N 880.948 -1.576 0.00335426 0
M  V30 9366 C 882.196 -1.90336 -0.679446 0
M  V30 9367 C 882.517 -0.877777 -1.74127 0
M  V30 9368 O 881.787 0.0843585 -1.95718 0
M  V30 9369 H 880.367 -0.702509 -0.253948 0
M  V30 9370 H 883.029 -1.94848 0.0450731 0
M  V30 9371 H 882.125 -2.90197 -1.14857 0
M  V30 9372 N 882.426 0.269451 -1.5528 0
M  V30 9373 C 883.651 1.02299 -1.80415 0
M  V30 9374 C 884.076 1.7902 -0.577363 0
M  V30 9375 O 883.434 1.75018 0.473125 0
M  V30 9376 C 883.482 1.95445 -3.0304 0
M  V30 9377 O 882.586 3.04271 -2.78375 0
M  V30 9378 H 881.927 0.292289 -0.596207 0
M  V30 9379 H 884.457 0.297282 -2.02429 0
M  V30 9380 H 884.467 2.37333 -3.31869 0
M  V30 9381 H 883.142 1.39017 -3.91978 0
M  V30 9382 H 881.719 2.66673 -2.60653 0
M  V30 9383 N 883.904 1.48273 0.534124 0
M  V30 9384 C 884.852 1.62926 1.66005 0
M  V30 9385 C 885.846 0.495814 1.61982 0
M  V30 9386 O 887.052 0.6744 1.66889 0
M  V30 9387 H 883.427 0.513163 0.549698 0
M  V30 9388 H 885.398 2.57498 1.50789 0
M  V30 9389 C 884.147 1.68231 3.04292 0
M  V30 9390 H 883.47 2.54807 3.0808 0
M  V30 9391 H 884.91 1.82528 3.827 0
M  V30 9392 C 883.369 0.420154 3.3427 0
M  V30 9393 O 883.899 -0.468769 3.98955 0
M  V30 9394 N 882.105 0.293115 2.89118 0
M  V30 9395 H 881.652 1.01745 2.36655 0
M  V30 9396 H 881.61 -0.550376 3.09545 0
M  V30 9397 N 885.382 -0.782676 1.36792 0
M  V30 9398 C 886.329 -1.89558 1.31667 0
M  V30 9399 C 887.299 -1.65076 0.184147 0
M  V30 9400 O 888.484 -1.87143 0.371753 0
M  V30 9401 C 885.624 -3.26469 1.11858 0
M  V30 9402 C 884.737 -3.62978 2.34245 0
M  V30 9403 C 883.872 -4.89041 2.07394 0
M  V30 9404 C 882.911 -5.18249 3.25706 0
M  V30 9405 N 882.048 -6.35497 2.98476 0
M  V30 9406 H 886.888 -1.93274 2.26824 0
M  V30 9407 H 884.425 -0.945057 1.12726 0
M  V30 9408 H 886.383 -4.05431 0.983968 0
M  V30 9409 H 885.013 -3.22158 0.203531 0
M  V30 9410 H 884.065 -2.79087 2.58485 0
M  V30 9411 H 885.377 -3.80507 3.22514 0
M  V30 9412 H 884.531 -5.75883 1.90901 0
M  V30 9413 H 883.27 -4.73594 1.16446 0
M  V30 9414 H 882.275 -4.29887 3.4275 0
M  V30 9415 H 883.5 -5.35611 4.1749 0
M  V30 9416 H 881.446 -6.21429 2.10146 0
M  V30 9417 H 881.363 -6.5339 3.80286 0
M  V30 9418 H 882.631 -7.25304 2.85577 0
M  V30 9419 N 886.86 -1.21182 -1.00761 0
M  V30 9420 C 887.79 -0.992773 -2.11344 0
M  V30 9421 C 888.771 0.0813618 -1.69905 0
M  V30 9422 O 889.956 -0.0779503 -1.94043 0
M  V30 9423 C 887.086 -0.553826 -3.42856 0
M  V30 9424 C 886.04 -1.57223 -3.98077 0
M  V30 9425 C 885.366 -0.989605 -5.25463 0
M  V30 9426 C 886.666 -2.95839 -4.30438 0
M  V30 9427 H 888.36 -1.91766 -2.29927 0
M  V30 9428 H 885.906 -0.923426 -1.10494 0
M  V30 9429 H 887.859 -0.387771 -4.19612 0
M  V30 9430 H 886.583 0.406702 -3.24058 0
M  V30 9431 H 885.242 -1.7258 -3.23437 0
M  V30 9432 H 884.89 -0.0208743 -5.02996 0
M  V30 9433 H 884.59 -1.66984 -5.63374 0
M  V30 9434 H 886.114 -0.834815 -6.04866 0
M  V30 9435 H 887.528 -2.8394 -4.98047 0
M  V30 9436 H 885.925 -3.60851 -4.79486 0
M  V30 9437 H 886.995 -3.46882 -3.38823 0
M  V30 9438 N 888.338 1.20213 -1.01915 0
M  V30 9439 C 889.248 2.26763 -0.601311 0
M  V30 9440 C 890.264 1.70185 0.362369 0
M  V30 9441 O 891.44 2.00165 0.222682 0
M  V30 9442 C 888.505 3.46662 0.0512879 0
M  V30 9443 C 887.566 4.18459 -0.958659 0
M  V30 9444 C 886.799 5.32634 -0.337107 0
M  V30 9445 O 887.022 5.63841 0.86251 0
M  V30 9446 O 885.956 5.9258 -1.05511 0
M  V30 9447 H 889.782 2.64725 -1.48844 0
M  V30 9448 H 887.367 1.2688 -0.788784 0
M  V30 9449 H 889.249 4.19345 0.41564 0
M  V30 9450 H 887.924 3.1057 0.912572 0
M  V30 9451 H 886.831 3.47937 -1.37442 0
M  V30 9452 H 888.164 4.58498 -1.78999 0
M  V30 9453 N 889.816 0.795718 1.36037 0
M  V30 9454 C 890.748 0.156336 2.28666 0
M  V30 9455 C 891.761 -0.638075 1.49775 0
M  V30 9456 O 892.95 -0.472222 1.7214 0
M  V30 9457 C 890.05 -0.801417 3.29288 0
M  V30 9458 C 889.223 -0.0557118 4.37365 0
M  V30 9459 C 888.282 -0.930338 5.1791 0
M  V30 9460 O 887.308 -0.385266 5.67895 0
M  V30 9461 N 888.51 -2.25382 5.34961 0
M  V30 9462 H 891.275 0.952033 2.84177 0
M  V30 9463 H 888.836 0.650189 1.48271 0
M  V30 9464 H 890.828 -1.39051 3.80062 0
M  V30 9465 H 889.398 -1.49796 2.74372 0
M  V30 9466 H 888.618 0.714508 3.87671 0
M  V30 9467 H 889.906 0.458633 5.06729 0
M  V30 9468 H 889.304 -2.72073 4.95977 0
M  V30 9469 H 887.861 -2.79241 5.88955 0
M  V30 9470 N 891.294 -1.47756 0.548274 0
M  V30 9471 C 892.227 -2.26804 -0.252059 0
M  V30 9472 C 893.205 -1.3349 -0.928389 0
M  V30 9473 O 894.389 -1.6286 -0.949156 0
M  V30 9474 C 891.516 -3.10266 -1.35841 0
M  V30 9475 C 890.562 -4.1909 -0.791578 0
M  V30 9476 S 891.395 -5.34323 0.354878 0
M  V30 9477 C 892.551 -6.21348 -0.753511 0
M  V30 9478 H 892.784 -2.94336 0.418744 0
M  V30 9479 H 890.317 -1.50735 0.334413 0
M  V30 9480 H 892.275 -3.58925 -1.99207 0
M  V30 9481 H 890.936 -2.42112 -2.00101 0
M  V30 9482 H 890.129 -4.77183 -1.62212 0
M  V30 9483 H 889.731 -3.73266 -0.234274 0
M  V30 9484 H 892.023 -6.57156 -1.6478 0
M  V30 9485 H 892.966 -7.07788 -0.210141 0
M  V30 9486 H 893.374 -5.54797 -1.04216 0
M  V30 9487 N 892.772 -0.284283 -1.55015 0
M  V30 9488 C 894.183 0.211681 -1.85496 0
M  V30 9489 C 894.534 1.54735 -1.2063 0
M  V30 9490 O 893.659 2.10594 -0.497918 0
M  V30 9491 C 894.254 0.390864 -3.36538 0
M  V30 9492 C 892.813 0.831055 -3.67111 0
M  V30 9493 C 891.96 -0.0703581 -2.77211 0
M  V30 9494 H 894.911 -0.505803 -1.50424 0
M  V30 9495 H 894.932 1.22803 -3.60138 0
M  V30 9496 H 894.444 -0.581409 -3.8372 0
M  V30 9497 H 892.545 1.81447 -3.25434 0
M  V30 9498 H 892.658 0.662026 -4.74504 0
M  V30 9499 H 891.022 0.447528 -2.50737 0
M  V30 9500 H 891.805 -1.03868 -3.2721 0
M  V30 9501 N 894.251 1.57596 -0.0117121 0
M  V30 9502 C 895.476 1.95764 0.684938 0
M  V30 9503 C 895.901 0.887285 1.65858 0
M  V30 9504 O 895.259 -0.153508 1.80649 0
M  V30 9505 C 895.307 3.33031 1.38285 0
M  V30 9506 O 894.411 3.28163 2.49765 0
M  V30 9507 H 893.752 0.638767 0.181309 0
M  V30 9508 H 896.282 2.04486 -0.0683883 0
M  V30 9509 H 896.292 3.68866 1.74362 0
M  V30 9510 H 894.967 4.10483 0.669043 0
M  V30 9511 H 893.544 3.04021 2.15929 0
M  V30 9512 N 895.729 -0.261212 1.5542 0
M  V30 9513 C 896.676 -1.32315 1.89107 0
M  V30 9514 C 897.646 -1.48517 0.743767 0
M  V30 9515 O 898.831 -1.62733 0.996123 0
M  V30 9516 C 895.971 -2.67626 2.17877 0
M  V30 9517 C 895.084 -2.59549 3.45338 0
M  V30 9518 C 894.219 -3.87118 3.63748 0
M  V30 9519 C 893.258 -3.736 4.8486 0
M  V30 9520 N 892.395 -4.93029 4.99867 0
M  V30 9521 H 897.235 -1.02886 2.79675 0
M  V30 9522 H 894.772 -0.496812 1.38456 0
M  V30 9523 H 896.73 -3.4637 2.32559 0
M  V30 9524 H 895.36 -2.95232 1.30529 0
M  V30 9525 H 894.412 -1.72452 3.39064 0
M  V30 9526 H 895.724 -2.45465 4.34222 0
M  V30 9527 H 894.878 -4.74305 3.78312 0
M  V30 9528 H 893.617 -4.04084 2.73071 0
M  V30 9529 H 892.622 -2.84797 4.70288 0
M  V30 9530 H 893.847 -3.58143 5.76984 0
M  V30 9531 H 891.793 -5.10383 4.12123 0
M  V30 9532 H 891.71 -4.81521 5.82815 0
M  V30 9533 H 892.978 -5.81754 5.18828 0
M  V30 9534 N 897.207 -1.48554 -0.526253 0
M  V30 9535 C 898.117 -1.66044 -1.65731 0
M  V30 9536 C 899.133 -0.542951 -1.65312 0
M  V30 9537 O 900.309 -0.814495 -1.84195 0
M  V30 9538 C 897.374 -1.69959 -3.02184 0
M  V30 9539 C 896.435 -2.93362 -3.13428 0
M  V30 9540 C 895.668 -2.97081 -4.43372 0
M  V30 9541 O 895.891 -2.09103 -5.3069 0
M  V30 9542 O 894.825 -3.8929 -4.59061 0
M  V30 9543 H 898.651 -2.61811 -1.53912 0
M  V30 9544 H 896.236 -1.31999 -0.699759 0
M  V30 9545 H 898.118 -1.75033 -3.83329 0
M  V30 9546 H 896.793 -0.773658 -3.14319 0
M  V30 9547 H 895.7 -2.93818 -2.31564 0
M  V30 9548 H 897.033 -3.85352 -3.06211 0
M  V30 9549 N 898.685 0.775411 -1.37205 0
M  V30 9550 C 899.962 1.5229 -1.22748 0
M  V30 9551 C 900.342 2.10327 0.180487 0
M  V30 9552 O 899.69 1.95206 1.18772 0
M  V30 9553 C 899.9 2.60671 -2.3206 0
M  V30 9554 C 901.248 3.28173 -2.6942 0
M  V30 9555 O 902.272 2.70963 -2.31208 0
M  V30 9556 O 901.131 4.31598 -3.3524 0
M  V30 9557 H 898.225 0.674326 -0.478762 0
M  V30 9558 H 900.771 0.812691 -1.48975 0
M  V30 9559 H 899.543 2.1588 -3.26361 0
M  V30 9560 H 899.166 3.39296 -2.07277 0
M  V30 9561 N 900.163 1.21714 1.00117 0
M  V30 9562 C 901.126 0.981338 2.07129 0
M  V30 9563 C 902.126 -0.0491116 1.60725 0
M  V30 9564 O 903.316 0.188555 1.73177 0
M  V30 9565 C 900.448 0.480608 3.37495 0
M  V30 9566 H 901.641 1.93075 2.29482 0
M  V30 9567 H 899.194 1.03467 1.17151 0
M  V30 9568 H 899.929 -0.473552 3.20824 0
M  V30 9569 H 899.714 1.22393 3.72508 0
M  V30 9570 H 901.204 0.33561 4.16249 0
M  V30 9571 N 901.641 -1.19671 1.02551 0
M  V30 9572 C 902.89 -1.88591 0.715272 0
M  V30 9573 C 903.203 -1.80274 -0.758982 0
M  V30 9574 O 904.409 -2.44413 -1.18213 0
M  V30 9575 C 902.865 -3.38264 1.22905 0
M  V30 9576 C 902.473 -3.55146 2.73084 0
M  V30 9577 C 904.217 -4.12683 0.994649 0
M  V30 9578 C 902.124 -4.98693 3.17897 0
M  V30 9579 H 901.054 -0.706326 0.263857 0
M  V30 9580 H 903.705 -1.35322 1.23936 0
M  V30 9581 H 902.087 -3.9091 0.632892 0
M  V30 9582 H 903.261 -3.12845 3.38326 0
M  V30 9583 H 901.576 -2.94112 2.94766 0
M  V30 9584 H 904.173 -5.18536 1.30478 0
M  V30 9585 H 904.516 -4.16243 -0.0686466 0
M  V30 9586 H 905.049 -3.66164 1.55464 0
M  V30 9587 H 901.788 -5.00293 4.23542 0
M  V30 9588 H 901.308 -5.4177 2.57381 0
M  V30 9589 H 902.987 -5.67327 3.11045 0
M  V30 9590 N 903.119 -0.802921 -1.35613 0
M  V30 9591 C 904.029 -0.212177 -2.33639 0
M  V30 9592 C 905.045 0.642871 -1.61689 0
M  V30 9593 O 906.221 0.555485 -1.93588 0
M  V30 9594 C 903.286 0.632406 -3.40883 0
M  V30 9595 C 902.347 -0.242708 -4.28613 0
M  V30 9596 C 901.58 0.56166 -5.30736 0
M  V30 9597 O 901.803 1.79664 -5.41366 0
M  V30 9598 O 900.737 -0.0455387 -6.01883 0
M  V30 9599 H 904.563 -1.023 -2.85952 0
M  V30 9600 H 902.148 -0.564636 -1.38319 0
M  V30 9601 H 904.03 1.11358 -4.0642 0
M  V30 9602 H 902.705 1.42089 -2.90848 0
M  V30 9603 H 901.612 -0.77094 -3.6607 0
M  V30 9604 H 902.945 -0.995046 -4.82037 0
M  V30 9605 N 904.597 1.47463 -0.556102 0
M  V30 9606 C 905.547 2.27007 0.212592 0
M  V30 9607 C 906.531 1.34288 0.886312 0
M  V30 9608 O 907.723 1.5865 0.784801 0
M  V30 9609 C 904.852 3.20021 1.24263 0
M  V30 9610 C 903.938 4.2022 0.572385 0
M  V30 9611 N 904.329 5.04539 -0.35691 0
M  V30 9612 C 902.627 4.38276 0.826441 0
M  V30 9613 C 903.328 5.76895 -0.746134 0
M  V30 9614 N 902.304 5.43506 -0.101225 0
M  V30 9615 H 906.106 2.89582 -0.501925 0
M  V30 9616 H 903.62 1.57988 -0.375961 0
M  V30 9617 H 905.617 3.7569 1.80728 0
M  V30 9618 H 904.277 2.59003 1.95826 0
M  V30 9619 H 905.288 5.12715 -0.731012 0
M  V30 9620 H 901.965 3.88429 1.53066 0
M  V30 9621 H 903.355 6.5472 -1.50967 0
M  V30 9622 N 906.075 0.2925 1.54862 0
M  V30 9623 C 907.322 -0.319263 1.99967 0
M  V30 9624 C 907.65 -1.54547 1.18092 0
M  V30 9625 O 906.905 -1.94186 0.242969 0
M  V30 9626 C 907.204 -0.728674 3.49893 0
M  V30 9627 C 906.87 0.394836 4.49168 0
M  V30 9628 C 905.532 0.703289 4.76033 0
M  V30 9629 C 907.884 1.15103 5.08331 0
M  V30 9630 C 905.212 1.77121 5.59325 0
M  V30 9631 C 907.564 2.20881 5.92785 0
M  V30 9632 C 906.228 2.52342 6.17964 0
M  V30 9633 H 905.498 -0.116827 0.731733 0
M  V30 9634 H 908.145 0.40983 1.87063 0
M  V30 9635 H 906.45 -1.53772 3.60363 0
M  V30 9636 H 908.147 -1.21305 3.82212 0
M  V30 9637 H 904.737 0.144319 4.28357 0
M  V30 9638 H 908.921 0.92599 4.87585 0
M  V30 9639 H 904.177 2.01978 5.77074 0
M  V30 9640 H 908.351 2.79939 6.37657 0
M  V30 9641 H 905.978 3.35225 6.82296 0
M  V30 9642 N 907.553 -1.57587 0.0200696 0
M  V30 9643 C 908.486 -2.05157 -0.999295 0
M  V30 9644 C 909.464 -0.945466 -1.32286 0
M  V30 9645 O 910.648 -1.21512 -1.44108 0
M  V30 9646 C 907.775 -2.46604 -2.32173 0
M  V30 9647 C 906.821 -3.68146 -2.15339 0
M  V30 9648 S 907.654 -5.15194 -1.46065 0
M  V30 9649 C 908.81 -5.59929 -2.79697 0
M  V30 9650 H 909.043 -2.91299 -0.59433 0
M  V30 9651 H 906.576 -1.53209 -0.191372 0
M  V30 9652 H 908.534 -2.7115 -3.08201 0
M  V30 9653 H 907.195 -1.60825 -2.69804 0
M  V30 9654 H 906.388 -3.94963 -3.13082 0
M  V30 9655 H 905.99 -3.43705 -1.47454 0
M  V30 9656 H 908.282 -5.63615 -3.75957 0
M  V30 9657 H 909.225 -6.59599 -2.57555 0
M  V30 9658 H 909.633 -4.87549 -2.84528 0
M  V30 9659 N 909.032 0.252966 -1.55557 0
M  V30 9660 C 909.979 1.3131 -1.89806 0
M  V30 9661 C 910.949 1.48121 -0.751633 0
M  V30 9662 O 912.134 1.62202 -1.00474 0
M  V30 9663 C 909.274 2.66467 -2.19293 0
M  V30 9664 C 908.387 2.57714 -3.46709 0
M  V30 9665 C 907.522 3.85184 -3.65796 0
M  V30 9666 C 906.561 3.71023 -4.86835 0
M  V30 9667 N 905.698 4.90371 -5.02474 0
M  V30 9668 H 910.538 1.01402 -2.80217 0
M  V30 9669 H 908.075 0.489462 -1.38718 0
M  V30 9670 H 910.033 3.45132 -2.34392 0
M  V30 9671 H 908.663 2.94536 -1.32093 0
M  V30 9672 H 907.715 1.70651 -3.39974 0
M  V30 9673 H 909.027 2.43158 -4.35517 0
M  V30 9674 H 908.181 4.72292 -3.80822 0
M  V30 9675 H 906.92 4.0263 -2.7521 0
M  V30 9676 H 905.925 2.82299 -4.71792 0
M  V30 9677 H 907.15 3.55078 -5.78875 0
M  V30 9678 H 905.096 5.0819 -4.14824 0
M  V30 9679 H 905.013 4.78423 -5.85361 0
M  V30 9680 H 906.281 5.78995 -5.21905 0
M  V30 9681 N 910.51 1.48831 0.518367 0
M  V30 9682 C 911.44 1.67119 1.63075 0
M  V30 9683 C 912.421 0.519948 1.61958 0
M  V30 9684 O 913.606 0.753824 1.78972 0
M  V30 9685 C 910.736 1.72158 3.01627 0
M  V30 9686 C 909.69 2.86898 3.17606 0
M  V30 9687 C 909.016 2.77035 4.57335 0
M  V30 9688 C 910.316 4.28057 2.99274 0
M  V30 9689 H 912.01 2.60248 1.48025 0
M  V30 9690 H 909.556 1.2524 0.710694 0
M  V30 9691 H 911.509 1.83539 3.7933 0
M  V30 9692 H 910.233 0.756157 3.17726 0
M  V30 9693 H 908.892 2.75091 2.42323 0
M  V30 9694 H 908.54 1.78438 4.70286 0
M  V30 9695 H 908.24 3.54036 4.6897 0
M  V30 9696 H 909.764 2.904 5.37122 0
M  V30 9697 H 911.178 4.40636 3.6676 0
M  V30 9698 H 909.575 5.06145 3.22393 0
M  V30 9699 H 910.645 4.4371 1.95574 0
M  V30 9700 N 911.988 -0.768124 1.37614 0
M  V30 9701 C 913.218 -1.555 1.36027 0
M  V30 9702 C 913.626 -1.89119 -0.0554273 0
M  V30 9703 O 912.969 -1.52203 -1.02859 0
M  V30 9704 C 913.031 -2.8906 2.13739 0
M  V30 9705 C 912.695 -2.78058 3.62674 0
M  V30 9706 C 913.692 -2.48841 4.5648 0
M  V30 9707 C 911.377 -2.95966 4.05844 0
M  V30 9708 C 913.371 -2.37665 5.91434 0
M  V30 9709 C 911.058 -2.84411 5.40882 0
M  V30 9710 C 912.056 -2.55301 6.33491 0
M  V30 9711 O 911.744 -2.43779 7.66046 0
M  V30 9712 H 911.476 -0.488263 0.467521 0
M  V30 9713 H 914.03 -0.959583 1.81607 0
M  V30 9714 H 912.26 -3.50735 1.62854 0
M  V30 9715 H 913.949 -3.5048 2.04741 0
M  V30 9716 H 914.715 -2.34687 4.24437 0
M  V30 9717 H 910.594 -3.17625 3.34119 0
M  V30 9718 H 914.138 -2.14865 6.63686 0
M  V30 9719 H 910.035 -2.98134 5.72527 0
M  V30 9720 H 910.803 -2.59101 7.76408 0
M  V30 9721 N 913.466 -1.22244 -0.994698 0
M  V30 9722 C 914.376 -1.00722 -2.11878 0
M  V30 9723 C 915.392 0.043919 -1.73945 0
M  V30 9724 O 916.568 -0.148411 -2.00852 0
M  V30 9725 C 913.633 -0.585723 -3.41717 0
M  V30 9726 C 912.694 -1.71027 -3.93762 0
M  V30 9727 C 911.927 -1.30879 -5.17403 0
M  V30 9728 O 912.15 -0.18681 -5.70094 0
M  V30 9729 O 911.084 -2.1246 -5.63156 0
M  V30 9730 H 914.91 -1.94894 -2.32916 0
M  V30 9731 H 912.495 -1.00822 -1.10251 0
M  V30 9732 H 914.377 -0.360935 -4.19851 0
M  V30 9733 H 913.052 0.327166 -3.22042 0
M  V30 9734 H 911.959 -1.98956 -3.16808 0
M  V30 9735 H 913.292 -2.60096 -4.17865 0
M  V30 9736 N 914.944 1.19125 -1.03184 0
M  V30 9737 C 915.854 2.26112 -0.625329 0
M  V30 9738 C 916.87 1.7056 0.344298 0
M  V30 9739 O 918.046 2.0039 0.20144 0
M  V30 9740 C 915.111 3.46697 0.0145169 0
M  V30 9741 C 914.172 4.17419 -1.00299 0
M  V30 9742 C 913.405 5.32247 -0.393581 0
M  V30 9743 O 913.628 5.64724 0.802659 0
M  V30 9744 O 912.562 5.91428 -1.1179 0
M  V30 9745 H 916.388 2.63131 -1.51643 0
M  V30 9746 H 913.973 1.26036 -0.802197 0
M  V30 9747 H 915.855 4.19762 0.371139 0
M  V30 9748 H 914.53 3.11521 0.879581 0
M  V30 9749 H 913.437 3.4646 -1.41125 0
M  V30 9750 H 914.77 4.56573 -1.83852 0
M  V30 9751 N 916.422 0.810101 1.35185 0
M  V30 9752 C 917.369 0.220927 2.2974 0
M  V30 9753 C 918.339 -0.647024 1.5298 0
M  V30 9754 O 919.524 -0.591367 1.81404 0
M  V30 9755 C 916.664 -0.62167 3.39454 0
M  V30 9756 C 915.777 0.267104 4.31173 0
M  V30 9757 C 914.912 -0.583833 5.27982 0
M  V30 9758 C 913.951 0.305123 6.11339 0
M  V30 9759 N 913.088 -0.505992 7.00274 0
M  V30 9760 H 917.928 1.03266 2.79536 0
M  V30 9761 H 915.465 0.520768 1.37573 0
M  V30 9762 H 917.423 -1.12539 4.01735 0
M  V30 9763 H 916.053 -1.39863 2.90926 0
M  V30 9764 H 915.105 0.88895 3.69867 0
M  V30 9765 H 916.417 0.951182 4.89647 0
M  V30 9766 H 915.571 -1.15254 5.95652 0
M  V30 9767 H 914.31 -1.30146 4.70014 0
M  V30 9768 H 913.315 0.886075 5.42613 0
M  V30 9769 H 914.54 1.02067 6.71386 0
M  V30 9770 H 912.486 -1.20753 6.4479 0
M  V30 9771 H 912.403 0.119966 7.55905 0
M  V30 9772 H 913.671 -1.05787 7.72288 0
M  V30 9773 N 917.9 -1.47166 0.563914 0
M  V30 9774 C 919.128 -2.06846 0.0474287 0
M  V30 9775 C 919.543 -1.41557 -1.24928 0
M  V30 9776 O 918.9 -0.514376 -1.75101 0
M  V30 9777 C 918.951 -3.6121 -0.144831 0
M  V30 9778 O 918.672 -4.24052 1.10053 0
M  V30 9779 C 920.173 -4.37773 -0.69783 0
M  V30 9780 H 917.393 -0.669217 0.0488896 0
M  V30 9781 H 919.937 -1.89072 0.779235 0
M  V30 9782 H 918.092 -3.78474 -0.82679 0
M  V30 9783 H 918.506 -5.16677 0.902481 0
M  V30 9784 H 919.98 -5.46438 -0.781616 0
M  V30 9785 H 920.457 -4.04517 -1.71063 0
M  V30 9786 H 921.063 -4.25269 -0.0513516 0
M  V30 9787 N 919.378 -0.300708 -1.54705 0
M  V30 9788 C 920.626 0.308044 -1.99739 0
M  V30 9789 C 920.947 1.54433 -1.19061 0
M  V30 9790 O 920.217 1.93794 -0.286507 0
M  V30 9791 H 918.797 0.116811 -0.73781 0
M  V30 9792 H 921.459 -0.41197 -1.90496 0
M  V30 9793 H 920.555 0.580287 -3.06658 0
M  V30 9794 N 920.856 1.57574 -0.0284266 0
M  V30 9795 C 921.804 2.11332 0.971675 0
M  V30 9796 C 922.798 1.03974 1.33738 0
M  V30 9797 O 924.004 1.22409 1.31969 0
M  V30 9798 H 920.379 0.675174 0.331125 0
M  V30 9799 H 922.35 2.943 0.49296 0
M  V30 9800 C 921.099 2.65496 2.24516 0
M  V30 9801 H 920.422 3.47753 1.9725 0
M  V30 9802 H 921.862 3.06757 2.92705 0
M  V30 9803 C 920.321 1.58207 2.97443 0
M  V30 9804 O 920.851 0.981496 3.89525 0
M  V30 9805 N 919.057 1.30269 2.59766 0
M  V30 9806 H 918.604 1.79294 1.84963 0
M  V30 9807 H 918.562 0.587085 3.0887 0
M  V30 9808 N 922.334 -0.244713 1.55689 0
M  V30 9809 C 923.297 -1.2864 1.89695 0
M  V30 9810 C 924.297 -1.40969 0.773583 0
M  V30 9811 O 925.487 -1.39632 1.04156 0
M  V30 9812 C 922.619 -2.66379 2.12732 0
M  V30 9813 H 923.812 -0.997033 2.82841 0
M  V30 9814 H 921.365 -0.484103 1.48614 0
M  V30 9815 H 922.1 -3.00452 1.22062 0
M  V30 9816 H 921.885 -2.58812 2.94549 0
M  V30 9817 H 923.375 -3.41592 2.40218 0
M  V30 9818 N 923.813 -1.49104 -0.510467 0
M  V30 9819 C 925.059 -1.59322 -1.26444 0
M  V30 9820 C 925.414 -0.27219 -1.90465 0
M  V30 9821 O 924.707 0.726762 -1.77281 0
M  V30 9822 C 924.901 -2.68259 -2.36161 0
M  V30 9823 C 924.73 -4.10827 -1.82897 0
M  V30 9824 C 923.5 -4.77732 -1.64623 0
M  V30 9825 C 925.698 -4.96367 -1.34625 0
M  V30 9826 N 923.68 -6.04646 -1.06189 0
M  V30 9827 C 925.051 -6.13685 -0.882656 0
M  V30 9828 C 927.106 -4.8244 -1.2311 0
M  V30 9829 C 925.809 -7.18609 -0.315306 0
M  V30 9830 C 927.835 -5.87504 -0.677726 0
M  V30 9831 C 927.197 -7.04043 -0.224308 0
M  V30 9832 H 923.296 -0.637429 -0.453 0
M  V30 9833 H 925.88 -1.8607 -0.573237 0
M  V30 9834 H 924.051 -2.433 -3.02753 0
M  V30 9835 H 925.783 -2.68052 -3.032 0
M  V30 9836 H 922.538 -4.34377 -1.88716 0
M  V30 9837 H 922.962 -6.72383 -0.78927 0
M  V30 9838 H 927.604 -3.92663 -1.56766 0
M  V30 9839 H 925.322 -8.08093 0.0335425 0
M  V30 9840 H 928.908 -5.78785 -0.591535 0
M  V30 9841 H 927.788 -7.83952 0.197212 0
M  V30 9842 N 925.291 0.760815 -1.38019 0
M  V30 9843 C 926.241 1.86487 -1.31174 0
M  V30 9844 C 927.225 1.59684 -0.197414 0
M  V30 9845 O 928.417 1.71628 -0.432764 0
M  V30 9846 C 925.546 3.24103 -1.13192 0
M  V30 9847 C 924.632 3.5682 -2.29216 0
M  V30 9848 N 925.023 3.60644 -3.5464 0
M  V30 9849 C 923.321 3.87047 -2.2161 0
M  V30 9850 C 924.022 3.90423 -4.31214 0
M  V30 9851 N 922.998 4.06883 -3.60482 0
M  V30 9852 H 926.8 1.87711 -2.26146 0
M  V30 9853 H 924.314 0.957811 -1.31148 0
M  V30 9854 H 926.311 4.03101 -1.06372 0
M  V30 9855 H 924.971 3.24135 -0.191473 0
M  V30 9856 H 925.982 3.42581 -3.88405 0
M  V30 9857 H 922.659 3.94837 -1.35684 0
M  V30 9858 H 924.049 4.00065 -5.39812 0
M  V30 9859 N 926.769 1.22769 0.988202 0
M  V30 9860 C 927.994 1.08239 1.76915 0
M  V30 9861 C 928.419 -0.362519 1.84574 0
M  V30 9862 O 927.777 -1.26202 1.30165 0
M  V30 9863 C 927.825 1.70363 3.17819 0
M  V30 9864 O 926.929 0.960484 4.01059 0
M  V30 9865 H 926.27 0.379872 0.544604 0
M  V30 9866 H 928.8 1.62663 1.24104 0
M  V30 9867 H 928.81 1.7528 3.6843 0
M  V30 9868 H 927.485 2.75505 3.1156 0
M  V30 9869 H 926.062 0.987667 3.59582 0
M  V30 9870 N 928.247 -1.18576 1.03814 0
M  V30 9871 C 929.194 -2.2212 0.626988 0
M  V30 9872 C 930.164 -1.62064 -0.363912 0
M  V30 9873 O 931.349 -1.89041 -0.258469 0
M  V30 9874 C 928.489 -3.45099 -0.00650133 0
M  V30 9875 C 927.602 -4.19503 1.03156 0
M  V30 9876 C 926.737 -5.29932 0.366852 0
M  V30 9877 C 925.776 -5.96104 1.39018 0
M  V30 9878 N 924.913 -6.98076 0.750625 0
M  V30 9879 H 929.753 -2.56646 1.51449 0
M  V30 9880 H 927.29 -1.26084 0.757702 0
M  V30 9881 H 929.248 -4.15363 -0.391108 0
M  V30 9882 H 927.878 -3.11201 -0.857536 0
M  V30 9883 H 926.93 -3.48092 1.53414 0
M  V30 9884 H 928.242 -4.64843 1.80893 0
M  V30 9885 H 927.396 -6.06657 -0.0720979 0
M  V30 9886 H 926.135 -4.85687 -0.442631 0
M  V30 9887 H 925.14 -5.18122 1.8393 0
M  V30 9888 H 926.365 -6.42432 2.20132 0
M  V30 9889 H 924.311 -6.55989 -0.0385981 0
M  V30 9890 H 924.228 -7.41655 1.46574 0
M  V30 9891 H 925.496 -7.78776 0.335986 0
M  V30 9892 N 929.725 -0.817259 -1.34754 0
M  V30 9893 C 930.673 -0.223352 -2.31525 0
M  V30 9894 C 931.667 0.632785 -1.57137 0
M  V30 9895 O 932.873 0.524757 -1.72181 0
M  V30 9896 H 929.248 -0.0534765 -0.750096 0
M  V30 9897 H 931.219 -1.05446 -2.79148 0
M  V30 9898 C 929.968 0.604784 -3.424 0
M  V30 9899 H 929.291 -0.0446664 -3.99775 0
M  V30 9900 H 930.731 0.986543 -4.12363 0
M  V30 9901 C 929.19 1.77478 -2.86362 0
M  V30 9902 O 929.72 2.87273 -2.8078 0
M  V30 9903 N 927.926 1.58971 -2.43263 0
M  V30 9904 H 927.473 0.696598 -2.48003 0
M  V30 9905 H 927.431 2.37408 -2.06119 0
M  V30 9906 N 931.203 1.46865 -0.571711 0
M  V30 9907 C 932.45 2.0243 -0.0531071 0
M  V30 9908 C 932.778 1.44446 1.30252 0
M  V30 9909 O 932.033 0.595182 1.8643 0
M  V30 9910 C 932.332 3.57323 0.0742311 0
M  V30 9911 C 931.998 4.34295 -1.21237 0
M  V30 9912 C 930.66 4.55044 -1.56489 0
M  V30 9913 C 933.012 4.78577 -2.0643 0
M  V30 9914 C 930.34 5.17325 -2.76752 0
M  V30 9915 C 932.692 5.42186 -3.25909 0
M  V30 9916 C 931.356 5.61165 -3.61456 0
M  V30 9917 H 930.626 0.740745 -0.0194333 0
M  V30 9918 H 933.273 1.76366 -0.74614 0
M  V30 9919 H 931.578 3.82461 0.850325 0
M  V30 9920 H 933.275 3.97982 0.491077 0
M  V30 9921 H 929.865 4.18435 -0.927922 0
M  V30 9922 H 934.049 4.62313 -1.80501 0
M  V30 9923 H 929.305 5.30211 -3.04444 0
M  V30 9924 H 933.479 5.75459 -3.92198 0
M  V30 9925 H 931.106 6.09195 -4.54737 0
M  V30 9926 N 932.681 0.308908 1.54543 0
M  V30 9927 C 933.909 -0.300418 2.04707 0
M  V30 9928 C 934.324 -1.46915 1.18581 0
M  V30 9929 O 933.681 -1.81251 0.213186 0
M  V30 9930 C 933.732 -0.749038 3.53655 0
M  V30 9931 O 933.453 0.373181 4.36508 0
M  V30 9932 C 934.954 -1.4227 4.1985 0
M  V30 9933 H 932.174 -0.0641267 0.667929 0
M  V30 9934 H 934.718 0.450839 1.99469 0
M  V30 9935 H 932.873 -1.4503 3.59228 0
M  V30 9936 H 933.287 0.0224752 5.24495 0
M  V30 9937 H 934.761 -1.68768 5.25568 0
M  V30 9938 H 935.238 -2.36531 3.70067 0
M  V30 9939 H 935.844 -0.764404 4.18374 0
M  V30 9940 N 934.159 -1.57557 0.0367827 0
M  V30 9941 C 935.106 -2.10679 -0.942499 0
M  V30 9942 C 936.076 -1.01068 -1.31812 0
M  V30 9943 O 937.261 -1.28533 -1.41011 0
M  V30 9944 C 934.401 -2.64467 -2.21701 0
M  V30 9945 C 933.514 -3.88114 -1.89715 0
M  V30 9946 C 932.649 -4.30268 -3.11518 0
M  V30 9947 C 931.688 -5.46652 -2.75387 0
M  V30 9948 N 930.825 -5.83927 -3.89838 0
M  V30 9949 H 935.665 -2.94066 -0.482588 0
M  V30 9950 H 933.202 -1.45344 -0.226597 0
M  V30 9951 H 935.16 -2.93745 -2.96259 0
M  V30 9952 H 933.79 -1.83898 -2.65295 0
M  V30 9953 H 932.842 -3.65516 -1.05366 0
M  V30 9954 H 934.154 -4.72743 -1.5911 0
M  V30 9955 H 933.308 -4.61023 -3.94389 0
M  V30 9956 H 932.047 -3.44421 -3.4529 0
M  V30 9957 H 931.052 -5.15583 -1.90929 0
M  V30 9958 H 932.277 -6.34204 -2.42822 0
M  V30 9959 H 930.223 -5.01035 -4.23438 0
M  V30 9960 H 930.14 -6.63214 -3.62883 0
M  V30 9961 H 931.408 -6.19291 -4.73391 0
M  V30 9962 N 935.637 0.236453 -1.55816 0
M  V30 9963 C 936.867 0.978873 -1.81939 0
M  V30 9964 C 937.275 1.79041 -0.611647 0
M  V30 9965 O 936.618 1.78616 0.429172 0
M  V30 9966 C 936.68 1.9569 -3.01572 0
M  V30 9967 C 936.344 1.33131 -4.37178 0
M  V30 9968 C 937.341 0.728585 -5.1477 0
M  V30 9969 C 935.026 1.34755 -4.83887 0
M  V30 9970 C 937.02 0.150427 -6.37222 0
M  V30 9971 C 934.707 0.765539 -6.06286 0
M  V30 9972 C 935.705 0.168017 -6.82793 0
M  V30 9973 O 935.393 -0.404976 -8.02879 0
M  V30 9974 H 935.125 0.293186 -0.609113 0
M  V30 9975 H 937.679 0.261384 -2.0373 0
M  V30 9976 H 935.909 2.71298 -2.75562 0
M  V30 9977 H 937.598 2.56362 -3.14695 0
M  V30 9978 H 938.364 0.708477 -4.79797 0
M  V30 9979 H 934.243 1.80202 -4.24321 0
M  V30 9980 H 937.787 -0.316586 -6.96881 0
M  V30 9981 H 933.684 0.78301 -6.40733 0
M  V30 9982 H 934.452 -0.29785 -8.17958 0
M  V30 9983 N 937.115 1.49373 0.502552 0
M  V30 9984 C 938.526 1.52 1.0841 0
M  V30 9985 C 938.877 0.305317 1.9381 0
M  V30 9986 O 938.002 -0.585023 2.08342 0
M  V30 9987 C 938.597 2.75437 1.97281 0
M  V30 9988 C 937.156 2.80848 2.50602 0
M  V30 9989 C 936.303 2.45894 1.28186 0
M  V30 9990 H 939.254 1.56092 0.286533 0
M  V30 9991 H 939.275 2.55511 2.81947 0
M  V30 9992 H 938.787 3.63827 1.35098 0
M  V30 9993 H 936.888 1.96735 3.16427 0
M  V30 9994 H 937.001 3.82979 2.8786 0
M  V30 9995 H 935.365 1.97639 1.60657 0
M  V30 9996 H 936.148 3.36556 0.677139 0
M  V30 9997 N 938.594 -0.753485 1.38421 0
M  V30 9998 C 939.541 -1.86723 1.35659 0
M  V30 9999 C 940.511 -1.64648 0.219121 0
M  V30 10000 O 941.696 -1.86313 0.411366 0
M  V30 10001 C 938.836 -3.24023 1.18758 0
M  V30 10002 C 937.949 -3.57928 2.41892 0
M  V30 10003 C 937.084 -4.84532 2.17721 0
M  V30 10004 C 936.123 -5.11224 3.36626 0
M  V30 10005 N 935.26 -6.29023 3.11889 0
M  V30 10006 H 940.1 -1.88419 2.30873 0
M  V30 10007 H 937.637 -0.920934 1.14705 0
M  V30 10008 H 939.595 -4.03252 1.06974 0
M  V30 10009 H 938.225 -3.21654 0.27182 0
M  V30 10010 H 937.277 -2.73541 2.64347 0
M  V30 10011 H 938.589 -3.73581 3.30513 0
M  V30 10012 H 937.743 -5.71704 2.03074 0
M  V30 10013 H 936.482 -4.71018 1.26465 0
M  V30 10014 H 935.487 -4.2252 3.51791 0
M  V30 10015 H 936.712 -5.26635 4.28757 0
M  V30 10016 H 934.658 -6.16832 2.2328 0
M  V30 10017 H 934.575 -6.45177 3.9406 0
M  V30 10018 H 935.843 -7.19083 3.00898 0
M  V30 10019 N 940.072 -1.23292 -0.981677 0
M  V30 10020 C 941.019 -1.01296 -2.07383 0
M  V30 10021 C 941.989 0.069139 -1.65956 0
M  V30 10022 O 943.174 -0.0827108 -1.90621 0
M  V30 10023 C 940.314 -0.608876 -3.39686 0
M  V30 10024 C 939.427 -1.76296 -3.9439 0
M  V30 10025 C 938.562 -1.30578 -5.14901 0
M  V30 10026 C 937.601 -2.4307 -5.61768 0
M  V30 10027 N 936.738 -1.98319 -6.73509 0
M  V30 10028 H 941.578 -1.9478 -2.25532 0
M  V30 10029 H 939.115 -0.970356 -1.10555 0
M  V30 10030 H 941.073 -0.355702 -4.15681 0
M  V30 10031 H 939.703 0.288961 -3.21504 0
M  V30 10032 H 938.755 -2.13017 -3.15163 0
M  V30 10033 H 940.067 -2.60871 -4.25145 0
M  V30 10034 H 939.221 -1.01066 -5.98223 0
M  V30 10035 H 937.96 -0.430386 -4.85797 0
M  V30 10036 H 936.965 -2.73358 -4.77028 0
M  V30 10037 H 938.19 -3.31144 -5.92892 0
M  V30 10038 H 936.136 -1.13157 -6.46167 0
M  V30 10039 H 936.053 -2.76454 -7.0364 0
M  V30 10040 H 937.321 -1.71907 -7.60308 0
M  V30 10041 N 941.55 1.18024 -1.04442 0
M  V30 10042 C 942.797 1.88098 -0.750022 0
M  V30 10043 C 943.125 1.80583 0.722489 0
M  V30 10044 O 942.38 1.20329 1.54335 0
M  V30 10045 C 942.679 3.37834 -1.16631 0
M  V30 10046 C 942.345 3.65553 -2.63974 0
M  V30 10047 C 941.007 3.72827 -3.04226 0
M  V30 10048 C 943.359 3.77634 -3.59224 0
M  V30 10049 C 940.687 3.89666 -4.38608 0
M  V30 10050 C 943.039 3.9599 -4.9333 0
M  V30 10051 C 941.703 4.01501 -5.33248 0
M  V30 10052 H 940.973 0.6883 -0.274452 0
M  V30 10053 H 943.62 1.39671 -1.31012 0
M  V30 10054 H 941.925 3.88266 -0.525071 0
M  V30 10055 H 943.622 3.90402 -0.915827 0
M  V30 10056 H 940.212 3.6051 -2.31798 0
M  V30 10057 H 944.396 3.71342 -3.2927 0
M  V30 10058 H 939.652 3.92178 -4.69048 0
M  V30 10059 H 943.826 4.0428 -5.67037 0
M  V30 10060 H 941.453 4.14301 -6.37384 0
M  V30 10061 N 943.028 0.824394 1.34319 0
M  V30 10062 C 944.258 0.425576 2.02169 0
M  V30 10063 C 944.666 -0.973596 1.62227 0
M  V30 10064 O 944.009 -1.64173 0.824199 0
M  V30 10065 C 944.071 0.449902 3.56674 0
M  V30 10066 C 943.735 1.80266 4.19944 0
M  V30 10067 C 944.732 2.76373 4.40357 0
M  V30 10068 C 942.417 2.09155 4.56683 0
M  V30 10069 C 944.411 3.9954 4.96635 0
M  V30 10070 C 942.098 3.32581 5.12672 0
M  V30 10071 C 943.096 4.27591 5.32592 0
M  V30 10072 O 942.784 5.48837 5.87395 0
M  V30 10073 H 942.516 0.168866 0.654569 0
M  V30 10074 H 945.07 1.11441 1.7254 0
M  V30 10075 H 943.3 -0.295631 3.85568 0
M  V30 10076 H 944.989 0.0709302 4.05838 0
M  V30 10077 H 945.755 2.55351 4.12336 0
M  V30 10078 H 941.634 1.36004 4.40481 0
M  V30 10079 H 945.178 4.73709 5.12099 0
M  V30 10080 H 941.075 3.53466 5.40122 0
M  V30 10081 H 941.843 5.50377 6.05828 0
M  V30 10082 N 944.506 -1.46559 0.579492 0
M  V30 10083 C 945.917 -1.8608 0.152052 0
M  V30 10084 C 946.268 -1.48346 -1.28405 0
M  V30 10085 O 945.393 -0.89685 -1.9694 0
M  V30 10086 C 945.988 -3.37729 0.269171 0
M  V30 10087 C 944.547 -3.76258 -0.103376 0
M  V30 10088 C 943.694 -2.70584 0.60659 0
M  V30 10089 H 946.645 -1.3776 0.787904 0
M  V30 10090 H 946.666 -3.77116 -0.506339 0
M  V30 10091 H 946.178 -3.65162 1.31448 0
M  V30 10092 H 944.279 -3.54443 -1.14895 0
M  V30 10093 H 944.392 -4.78335 0.270701 0
M  V30 10094 H 942.756 -2.54656 0.0471984 0
M  V30 10095 H 943.539 -3.00856 1.65349 0
M  V30 10096 N 945.984 -0.3171 -1.54377 0
M  V30 10097 C 946.914 0.544623 -2.2706 0
M  V30 10098 C 947.895 1.12469 -1.27611 0
M  V30 10099 O 949.08 1.15103 -1.56413 0
M  V30 10100 C 946.21 1.70879 -3.02353 0
M  V30 10101 C 945.164 1.25833 -4.09084 0
M  V30 10102 C 944.49 2.50894 -4.72182 0
M  V30 10103 C 945.79 0.377876 -5.20931 0
M  V30 10104 H 947.484 -0.0616372 -2.99337 0
M  V30 10105 H 945.03 -0.0310848 -1.43966 0
M  V30 10106 H 946.983 2.31787 -3.51927 0
M  V30 10107 H 945.707 2.34155 -2.27682 0
M  V30 10108 H 944.366 0.672228 -3.60384 0
M  V30 10109 H 944.014 3.12518 -3.94134 0
M  V30 10110 H 943.714 2.21447 -5.44275 0
M  V30 10111 H 945.238 3.12575 -5.24528 0
M  V30 10112 H 946.652 0.893056 -5.66302 0
M  V30 10113 H 945.049 0.176474 -5.9984 0
M  V30 10114 H 946.119 -0.592943 -4.81261 0
M  V30 10115 N 947.462 1.57535 -0.0451378 0
M  V30 10116 C 948.372 2.14653 0.946646 0
M  V30 10117 C 949.388 1.10279 1.3459 0
M  V30 10118 O 950.564 1.42417 1.42405 0
M  V30 10119 C 947.629 2.67533 2.20515 0
M  V30 10120 C 946.69 3.86682 1.86481 0
M  V30 10121 C 945.923 4.37031 3.06332 0
M  V30 10122 O 946.146 3.86481 4.1951 0
M  V30 10123 O 945.08 5.28691 2.87697 0
M  V30 10124 H 948.906 2.99706 0.49091 0
M  V30 10125 H 946.491 1.48355 0.17641 0
M  V30 10126 H 948.373 3.01542 2.94365 0
M  V30 10127 H 947.048 1.85554 2.65238 0
M  V30 10128 H 945.955 3.57573 1.09966 0
M  V30 10129 H 947.288 4.69873 1.46562 0
M  V30 10130 N 948.94 -0.228186 1.55939 0
M  V30 10131 C 950.189 -0.951563 1.77843 0
M  V30 10132 C 950.502 -1.85763 0.612501 0
M  V30 10133 O 951.708 -2.61916 0.715006 0
M  V30 10134 C 950.164 -1.74216 3.14923 0
M  V30 10135 C 949.772 -0.882569 4.39221 0
M  V30 10136 C 951.516 -2.45715 3.46156 0
M  V30 10137 C 949.423 -1.67014 5.67327 0
M  V30 10138 H 948.353 -0.359035 0.663031 0
M  V30 10139 H 951.004 -0.205636 1.82344 0
M  V30 10140 H 949.386 -2.53075 3.0458 0
M  V30 10141 H 950.56 -0.13499 4.60602 0
M  V30 10142 H 948.875 -0.280022 4.15457 0
M  V30 10143 H 951.472 -3.05127 4.39092 0
M  V30 10144 H 951.815 -3.1827 2.68346 0
M  V30 10145 H 952.348 -1.73852 3.57799 0
M  V30 10146 H 949.087 -0.987985 6.48012 0
M  V30 10147 H 948.607 -2.3925 5.50018 0
M  V30 10148 H 950.286 -2.23252 6.07262 0
M  V30 10149 N 950.418 -1.49637 -0.494624 0
M  V30 10150 C 951.695 -1.4995 -1.25596 0
M  V30 10151 C 952.075 -0.230805 -2.09834 0
M  V30 10152 O 951.423 0.786625 -2.14533 0
M  V30 10153 C 951.633 -2.78204 -2.10721 0
M  V30 10154 C 952.981 -3.27946 -2.69698 0
M  V30 10155 O 954.005 -2.79365 -2.20984 0
M  V30 10156 O 952.864 -4.12571 -3.58395 0
M  V30 10157 H 949.958 -0.60044 -0.568684 0
M  V30 10158 H 952.504 -1.61906 -0.508371 0
M  V30 10159 H 951.276 -3.62029 -1.48494 0
M  V30 10160 H 950.899 -2.69139 -2.92661 0
M  V30 10161 N 951.896 0.746133 -1.38819 0
M  V30 10162 C 953.126 1.53316 -1.38484 0
M  V30 10163 C 953.534 1.89183 0.0253332 0
M  V30 10164 O 952.877 1.5382 1.00424 0
M  V30 10165 C 952.939 2.85623 -2.18311 0
M  V30 10166 C 952.603 2.72253 -3.67052 0
M  V30 10167 C 953.6 2.41547 -4.60381 0
M  V30 10168 C 951.285 2.89472 -4.10501 0
M  V30 10169 C 953.279 2.28226 -5.9514 0
M  V30 10170 C 950.966 2.7577 -5.45338 0
M  V30 10171 C 951.964 2.45191 -6.37472 0
M  V30 10172 O 951.652 2.31561 -7.69828 0
M  V30 10173 H 951.384 0.480763 -0.475229 0
M  V30 10174 H 953.938 0.93057 -1.83111 0
M  V30 10175 H 952.168 3.481 -1.68414 0
M  V30 10176 H 953.857 3.47178 -2.10291 0
M  V30 10177 H 954.623 2.27905 -4.28117 0
M  V30 10178 H 950.502 3.12269 -3.3913 0
M  V30 10179 H 954.046 2.04279 -6.6702 0
M  V30 10180 H 949.943 2.88987 -5.77197 0
M  V30 10181 H 950.711 2.46716 -7.80432 0
M  V30 10182 N 953.375 1.23811 0.975125 0
M  V30 10183 C 954.623 1.07124 1.71373 0
M  V30 10184 C 954.944 -0.391864 1.91022 0
M  V30 10185 O 954.214 -1.28041 1.48265 0
M  V30 10186 H 952.794 0.393415 0.635007 0
M  V30 10187 H 955.456 1.55612 1.17349 0
M  V30 10188 H 954.552 1.56338 2.7012 0
M  V30 10189 N 954.853 -1.17469 1.05066 0
M  V30 10190 C 955.785 -2.20974 0.608526 0
M  V30 10191 C 956.798 -1.59481 -0.327066 0
M  V30 10192 O 957.987 -1.78096 -0.12 0
M  V30 10193 C 955.087 -3.38652 -0.12969 0
M  V30 10194 C 954.26 -4.29716 0.816285 0
M  V30 10195 C 953.319 -5.26064 0.119556 0
M  V30 10196 O 952.345 -5.64194 0.753241 0
M  V30 10197 N 953.547 -5.69126 -1.14347 0
M  V30 10198 H 956.312 -2.59529 1.49882 0
M  V30 10199 H 953.873 -1.32355 0.932406 0
M  V30 10200 H 955.865 -4.00139 -0.605886 0
M  V30 10201 H 954.435 -2.98705 -0.921638 0
M  V30 10202 H 953.655 -3.6568 1.47213 0
M  V30 10203 H 954.943 -4.87449 1.45845 0
M  V30 10204 H 954.341 -5.4022 -1.67866 0
M  V30 10205 H 952.898 -6.32764 -1.56376 0
M  V30 10206 N 956.331 -0.831506 -1.3388 0
M  V30 10207 C 957.608 -0.345907 -1.92517 0
M  V30 10208 C 957.988 1.16784 -1.75854 0
M  V30 10209 O 957.336 1.97889 -1.14245 0
M  V30 10210 C 957.546 -0.784692 -3.40064 0
M  V30 10211 C 958.894 -0.78846 -4.17215 0
M  V30 10212 O 959.918 -0.727823 -3.48685 0
M  V30 10213 O 958.777 -0.869481 -5.39539 0
M  V30 10214 H 955.871 -0.0963568 -0.821367 0
M  V30 10215 H 958.417 -0.916868 -1.42799 0
M  V30 10216 H 957.189 -1.82697 -3.46031 0
M  V30 10217 H 956.812 -0.189897 -3.97146 0
M  V30 10218 N 957.809 1.4625 -0.587256 0
M  V30 10219 C 958.719 2.34147 0.145744 0
M  V30 10220 C 959.735 1.50026 0.881376 0
M  V30 10221 O 960.911 1.82884 0.843539 0
M  V30 10222 C 957.976 3.27294 1.14366 0
M  V30 10223 C 957.037 4.27317 0.412199 0
M  V30 10224 C 956.27 5.16013 1.36257 0
M  V30 10225 O 956.493 5.0773 2.59934 0
M  V30 10226 O 955.427 5.95569 0.870681 0
M  V30 10227 H 959.253 2.98187 -0.576055 0
M  V30 10228 H 956.838 1.45299 -0.347628 0
M  V30 10229 H 958.72 3.84747 1.71894 0
M  V30 10230 H 957.395 2.65845 1.84684 0
M  V30 10231 H 956.302 3.73538 -0.205036 0
M  V30 10232 H 957.635 4.91564 -0.250104 0
M  V30 10233 N 959.287 0.325282 1.54207 0
M  V30 10234 C 960.197 -0.548778 2.28091 0
M  V30 10235 C 961.213 -1.12772 1.32508 0
M  V30 10236 O 962.389 -1.14732 1.65525 0
M  V30 10237 C 959.454 -1.69284 3.02562 0
M  V30 10238 C 958.515 -1.14553 4.13734 0
M  V30 10239 C 957.748 -2.23506 4.84645 0
M  V30 10240 O 957.971 -3.43884 4.55082 0
M  V30 10241 O 956.905 -1.88828 5.71513 0
M  V30 10242 H 960.731 0.0512974 3.03657 0
M  V30 10243 H 958.316 0.0909159 1.49123 0
M  V30 10244 H 960.198 -2.35887 3.49192 0
M  V30 10245 H 958.873 -2.27906 2.2987 0
M  V30 10246 H 957.78 -0.444532 3.71449 0
M  V30 10247 H 959.113 -0.60441 4.88475 0
M  V30 10248 N 960.765 -1.57509 0.0534917 0
M  V30 10249 C 961.728 -2.10563 -0.905307 0
M  V30 10250 C 962.728 -1.02571 -1.23838 0
M  V30 10251 O 963.918 -1.28635 -1.17468 0
M  V30 10252 C 961.05 -2.5918 -2.21447 0
M  V30 10253 H 962.243 -2.96575 -0.445354 0
M  V30 10254 H 959.796 -1.55079 -0.194947 0
M  V30 10255 H 960.531 -1.76568 -2.72019 0
M  V30 10256 H 960.316 -3.38098 -1.98575 0
M  V30 10257 H 961.806 -3.00365 -2.90122 0
M  V30 10258 N 962.243 0.219913 -1.56058 0
M  V30 10259 C 963.489 0.945463 -1.79412 0
M  V30 10260 C 963.822 1.83922 -0.62341 0
M  V30 10261 O 963.097 1.90806 0.377256 0
M  V30 10262 C 963.38 1.783 -3.1286 0
M  V30 10263 C 963.233 0.915626 -4.40382 0
M  V30 10264 C 964.552 2.76045 -3.42764 0
M  V30 10265 H 961.671 0.342288 -0.652693 0
M  V30 10266 H 964.313 0.214235 -1.88788 0
M  V30 10267 H 962.463 2.40642 -3.04998 0
M  V30 10268 H 964.135 0.30882 -4.60265 0
M  V30 10269 H 962.378 0.221124 -4.33236 0
M  V30 10270 H 963.049 1.53607 -5.30197 0
M  V30 10271 H 965.525 2.23838 -3.50764 0
M  V30 10272 H 964.401 3.31748 -4.37304 0
M  V30 10273 H 964.662 3.53866 -2.65012 0
M  V30 10274 N 963.721 1.49897 0.486681 0
M  V30 10275 C 964.668 1.67619 1.58658 0
M  V30 10276 C 965.638 0.517537 1.57831 0
M  V30 10277 O 966.823 0.746272 1.756 0
M  V30 10278 C 963.963 1.762 2.96728 0
M  V30 10279 C 963.076 3.03465 3.07462 0
M  V30 10280 C 962.211 3.02937 4.36351 0
M  V30 10281 C 961.25 4.24721 4.4077 0
M  V30 10282 N 960.387 4.22021 5.61108 0
M  V30 10283 H 965.227 2.61528 1.42853 0
M  V30 10284 H 962.764 1.29657 0.694807 0
M  V30 10285 H 964.722 1.79156 3.76774 0
M  V30 10286 H 963.352 0.857452 3.11203 0
M  V30 10287 H 962.404 3.10054 2.20387 0
M  V30 10288 H 963.716 3.93454 3.06586 0
M  V30 10289 H 962.87 3.04536 5.24731 0
M  V30 10290 H 961.609 2.10751 4.39813 0
M  V30 10291 H 960.614 4.23352 3.5079 0
M  V30 10292 H 961.839 5.18116 4.39013 0
M  V30 10293 H 959.785 3.3268 5.65385 0
M  V30 10294 H 959.702 5.05761 5.61909 0
M  V30 10295 H 960.97 4.27743 6.51656 0
M  V30 10296 N 965.199 -0.738761 1.39212 0
M  V30 10297 C 966.146 -1.85273 1.37631 0
M  V30 10298 C 967.116 -1.64407 0.236572 0
M  V30 10299 O 968.301 -1.85866 0.431104 0
M  V30 10300 C 965.441 -3.22745 1.22188 0
M  V30 10301 C 964.554 -3.55342 2.45674 0
M  V30 10302 C 963.689 -4.82195 2.22847 0
M  V30 10303 C 962.728 -5.07625 3.42029 0
M  V30 10304 N 961.865 -6.25679 3.18543 0
M  V30 10305 H 966.705 -1.85959 2.32859 0
M  V30 10306 H 964.242 -0.908716 1.15675 0
M  V30 10307 H 966.2 -4.02095 1.11245 0
M  V30 10308 H 964.83 -3.21347 0.30592 0
M  V30 10309 H 963.882 -2.70722 2.67233 0
M  V30 10310 H 965.194 -3.70054 3.34457 0
M  V30 10311 H 964.348 -5.69518 2.09126 0
M  V30 10312 H 963.087 -4.6965 1.31454 0
M  V30 10313 H 962.092 -4.18765 3.56253 0
M  V30 10314 H 963.317 -5.22058 4.34319 0
M  V30 10315 H 961.263 -6.14429 2.2981 0
M  V30 10316 H 961.18 -6.40961 4.0088 0
M  V30 10317 H 962.448 -7.15851 3.08508 0
M  V30 10318 N 966.677 -1.24326 -0.968545 0
M  V30 10319 C 967.607 -1.05951 -2.08079 0
M  V30 10320 C 968.588 0.0272666 -1.70078 0
M  V30 10321 O 969.773 -0.139644 -1.93697 0
M  V30 10322 C 966.903 -0.662623 -3.4092 0
M  V30 10323 C 965.857 -1.69807 -3.92873 0
M  V30 10324 C 965.183 -1.15628 -5.22048 0
M  V30 10325 C 966.483 -3.09383 -4.20808 0
M  V30 10326 H 968.177 -1.98984 -2.23709 0
M  V30 10327 H 965.723 -0.958112 -1.075 0
M  V30 10328 H 967.676 -0.521071 -4.18166 0
M  V30 10329 H 966.4 0.303399 -3.25188 0
M  V30 10330 H 965.059 -1.82783 -3.17783 0
M  V30 10331 H 964.707 -0.180888 -5.02675 0
M  V30 10332 H 964.407 -1.84822 -5.57776 0
M  V30 10333 H 965.931 -1.02683 -6.01904 0
M  V30 10334 H 967.345 -2.99642 -4.88761 0
M  V30 10335 H 965.742 -3.75923 -4.67763 0
M  V30 10336 H 966.812 -3.57486 -3.27616 0
M  V30 10337 N 968.156 1.1691 -1.05688 0
M  V30 10338 C 969.384 1.91204 -0.790485 0
M  V30 10339 C 969.799 1.77095 0.654434 0
M  V30 10340 O 969.156 1.11146 1.44751 0
M  V30 10341 C 969.207 3.42108 -1.16808 0
M  V30 10342 O 968.928 3.55788 -2.55629 0
M  V30 10343 C 970.429 4.33466 -0.92855 0
M  V30 10344 H 967.649 0.606508 -0.287035 0
M  V30 10345 H 970.193 1.48225 -1.40888 0
M  V30 10346 H 968.348 3.82814 -0.59434 0
M  V30 10347 H 968.762 4.49321 -2.70575 0
M  V30 10348 H 970.236 5.37836 -1.24245 0
M  V30 10349 H 970.713 4.38989 0.136016 0
M  V30 10350 H 971.319 3.98481 -1.48638 0
M  V30 10351 N 969.634 0.838594 1.33437 0
M  V30 10352 C 970.88 0.434813 1.98084 0
M  V30 10353 C 971.213 -1.00331 1.66275 0
M  V30 10354 O 970.488 -1.70139 0.942501 0
M  V30 10355 C 970.771 0.655602 3.54082 0
M  V30 10356 C 970.624 2.14097 3.95578 0
M  V30 10357 C 971.943 0.101576 4.39983 0
M  V30 10358 H 969.062 0.159456 0.719544 0
M  V30 10359 H 971.704 1.05406 1.58081 0
M  V30 10360 H 969.854 0.128501 3.88287 0
M  V30 10361 H 971.526 2.73292 3.71631 0
M  V30 10362 H 969.769 2.62558 3.4532 0
M  V30 10363 H 970.44 2.24621 5.04231 0
M  V30 10364 H 972.916 0.552122 4.12421 0
M  V30 10365 H 971.792 0.28575 5.48156 0
M  V30 10366 H 972.053 -0.994616 4.30767 0
M  V30 10367 N 971.112 -1.45937 0.595003 0
M  V30 10368 C 972.06 -2.32155 -0.143798 0
M  V30 10369 C 973.054 -1.45221 -0.872198 0
M  V30 10370 O 974.26 -1.61777 -0.789191 0
M  V30 10371 H 970.635 -0.749165 -0.0652377 0
M  V30 10372 H 972.606 -2.92264 0.602005 0
M  V30 10373 C 971.355 -3.28615 -1.13611 0
M  V30 10374 H 970.678 -3.95496 -0.585044 0
M  V30 10375 H 972.118 -3.91699 -1.62321 0
M  V30 10376 C 970.577 -2.54863 -2.20333 0
M  V30 10377 O 971.107 -2.32071 -3.27881 0
M  V30 10378 N 969.313 -2.15213 -1.95274 0
M  V30 10379 H 968.86 -2.33949 -1.07822 0
M  V30 10380 H 968.818 -1.66188 -2.66888 0
M  V30 10381 N 972.59 -0.333456 -1.54032 0
M  V30 10382 C 974.001 0.15256 -1.86076 0
M  V30 10383 C 974.352 1.50819 -1.25492 0
M  V30 10384 O 973.477 2.08903 -0.564665 0
M  V30 10385 C 974.072 0.283599 -3.37611 0
M  V30 10386 C 972.631 0.713841 -3.69569 0
M  V30 10387 C 971.778 -0.158515 -2.76847 0
M  V30 10388 H 974.729 -0.553404 -1.48738 0
M  V30 10389 H 974.75 1.11284 -3.63863 0
M  V30 10390 H 974.262 -0.703193 -3.81676 0
M  V30 10391 H 972.363 1.71002 -3.31042 0
M  V30 10392 H 972.476 0.510731 -4.7637 0
M  V30 10393 H 970.84 0.367531 -2.52034 0
M  V30 10394 H 971.623 -1.14226 -3.2374 0
M  V30 10395 N 974.068 1.57479 -0.061844 0
M  V30 10396 C 975.316 1.92727 0.608336 0
M  V30 10397 C 975.637 0.941799 1.70749 0
M  V30 10398 O 974.907 -0.0116608 1.95897 0
M  V30 10399 H 973.487 0.71145 0.2277 0
M  V30 10400 H 976.149 1.94546 -0.117359 0
M  V30 10401 H 975.245 2.9426 1.04007 0
M  V30 10402 N 975.546 -0.211634 1.56173 0
M  V30 10403 C 976.774 -0.951184 1.83739 0
M  V30 10404 C 977.189 -1.7754 0.642252 0
M  V30 10405 O 976.546 -1.78302 -0.389174 0
M  V30 10406 C 976.597 -1.86075 3.09933 0
M  V30 10407 O 976.318 -1.06983 4.24837 0
M  V30 10408 C 977.819 -2.71337 3.50559 0
M  V30 10409 H 975.039 -0.278312 0.61056 0
M  V30 10410 H 977.583 -0.223871 2.03271 0
M  V30 10411 H 975.738 -2.54189 2.92347 0
M  V30 10412 H 976.152 -1.68815 4.9659 0
M  V30 10413 H 977.626 -3.30843 4.41868 0
M  V30 10414 H 978.103 -3.44226 2.72773 0
M  V30 10415 H 978.709 -2.0862 3.70618 0
M  V30 10416 N 977.024 -1.50153 -0.478725 0
M  V30 10417 C 977.971 -1.68458 -1.57767 0
M  V30 10418 C 978.941 -0.5259 -1.57555 0
M  V30 10419 O 980.126 -0.755574 -1.75202 0
M  V30 10420 C 977.266 -1.77772 -2.95789 0
M  V30 10421 C 976.379 -3.05092 -3.05848 0
M  V30 10422 C 975.514 -3.05247 -4.34739 0
M  V30 10423 C 974.553 -4.27053 -4.38512 0
M  V30 10424 N 973.69 -4.24991 -5.58862 0
M  V30 10425 H 978.53 -2.62282 -1.41464 0
M  V30 10426 H 976.067 -1.30023 -0.687921 0
M  V30 10427 H 978.025 -1.81152 -3.75819 0
M  V30 10428 H 976.655 -0.873944 -3.10744 0
M  V30 10429 H 975.707 -3.11219 -2.1874 0
M  V30 10430 H 977.019 -3.95075 -3.04495 0
M  V30 10431 H 976.173 -3.07314 -5.23109 0
M  V30 10432 H 974.912 -2.13081 -4.38689 0
M  V30 10433 H 973.917 -4.25206 -3.4854 0
M  V30 10434 H 975.142 -5.20437 -4.36259 0
M  V30 10435 H 973.088 -3.35674 -5.63612 0
M  V30 10436 H 973.005 -5.08734 -5.59219 0
M  V30 10437 H 974.273 -4.31193 -6.49379 0
M  V30 10438 N 978.502 0.731368 -1.39602 0
M  V30 10439 C 979.727 1.52567 -1.40492 0
M  V30 10440 C 980.152 1.881 -0.00228828 0
M  V30 10441 O 979.51 1.52167 0.985643 0
M  V30 10442 C 979.558 2.78749 -2.2876 0
M  V30 10443 O 978.662 3.7482 -1.71999 0
M  V30 10444 H 978.003 0.460601 -0.478271 0
M  V30 10445 H 980.533 0.902042 -1.83642 0
M  V30 10446 H 980.543 3.27446 -2.43399 0
M  V30 10447 H 979.218 2.5222 -3.30693 0
M  V30 10448 H 977.795 3.33604 -1.66622 0
M  V30 10449 N 979.98 1.24838 0.961938 0
M  V30 10450 C 980.927 1.04582 2.05745 0
M  V30 10451 C 981.897 -0.0427281 1.66045 0
M  V30 10452 O 983.082 0.113026 1.90465 0
M  V30 10453 C 980.222 0.66284 3.38675 0
M  V30 10454 C 979.335 1.82548 3.91536 0
M  V30 10455 C 978.47 1.38753 5.12758 0
M  V30 10456 C 977.509 2.51976 5.5783 0
M  V30 10457 N 976.646 2.09009 6.70268 0
M  V30 10458 H 981.486 1.98343 2.22405 0
M  V30 10459 H 979.023 0.987822 1.08998 0
M  V30 10460 H 980.981 0.421788 4.15062 0
M  V30 10461 H 979.611 -0.237776 3.21923 0
M  V30 10462 H 978.663 2.18004 3.11735 0
M  V30 10463 H 979.975 2.67601 4.20941 0
M  V30 10464 H 979.129 1.1057 5.96539 0
M  V30 10465 H 977.868 0.507618 4.85051 0
M  V30 10466 H 976.873 2.80912 4.72619 0
M  V30 10467 H 978.098 3.40534 5.87549 0
M  V30 10468 H 976.044 1.23423 6.44285 0
M  V30 10469 H 975.961 2.87613 6.99153 0
M  V30 10470 H 977.229 1.83981 7.57477 0
M  V30 10471 N 981.458 -1.16348 1.06306 0
M  V30 10472 C 982.388 -2.2291 0.695234 0
M  V30 10473 C 983.369 -1.67208 -0.312343 0
M  V30 10474 O 984.554 -1.93293 -0.187442 0
M  V30 10475 C 981.684 -3.47205 0.0810149 0
M  V30 10476 C 980.638 -4.15801 1.01458 0
M  V30 10477 C 979.964 -5.3405 0.263656 0
M  V30 10478 C 981.264 -4.66766 2.34365 0
M  V30 10479 H 982.958 -2.53934 1.58613 0
M  V30 10480 H 980.504 -1.22056 0.76409 0
M  V30 10481 H 982.457 -4.2098 -0.18818 0
M  V30 10482 H 981.181 -3.15482 -0.844897 0
M  V30 10483 H 979.84 -3.43954 1.26852 0
M  V30 10484 H 979.488 -4.9858 -0.665378 0
M  V30 10485 H 979.188 -5.80885 0.88582 0
M  V30 10486 H 980.712 -6.106 0.00200994 0
M  V30 10487 H 982.126 -5.3212 2.13356 0
M  V30 10488 H 980.523 -5.24223 2.9208 0
M  V30 10489 H 981.593 -3.82969 2.97426 0
M  V30 10490 N 982.937 -0.845659 -1.3299 0
M  V30 10491 C 984.348 -0.50048 -1.79867 0
M  V30 10492 C 984.699 0.981027 -1.69913 0
M  V30 10493 O 983.824 1.76477 -1.25239 0
M  V30 10494 C 984.419 -0.901679 -3.26581 0
M  V30 10495 C 982.978 -0.608536 -3.71448 0
M  V30 10496 C 982.125 -1.10632 -2.54275 0
M  V30 10497 H 985.076 -1.03372 -1.20416 0
M  V30 10498 H 985.097 -0.214433 -3.79895 0
M  V30 10499 H 984.609 -1.97998 -3.33794 0
M  V30 10500 H 982.71 0.459416 -3.69757 0
M  V30 10501 H 982.823 -1.16853 -4.64631 0
M  V30 10502 H 981.187 -0.526925 -2.4919 0
M  V30 10503 H 981.97 -2.19154 -2.64247 0
M  V30 10504 N 984.415 1.45619 -0.602734 0
M  V30 10505 C 985.362 2.30493 0.118944 0
M  V30 10506 C 986.332 1.41816 0.864723 0
M  V30 10507 O 987.517 1.7075 0.851424 0
M  V30 10508 C 984.657 3.2664 1.11356 0
M  V30 10509 C 983.77 4.3042 0.369161 0
M  V30 10510 C 982.905 5.13678 1.35307 0
M  V30 10511 C 981.944 6.09189 0.596207 0
M  V30 10512 N 981.081 6.85245 1.52916 0
M  V30 10513 H 985.921 2.91672 -0.610836 0
M  V30 10514 H 983.458 1.43731 -0.313032 0
M  V30 10515 H 985.416 3.80846 1.7033 0
M  V30 10516 H 984.046 2.67225 1.81081 0
M  V30 10517 H 983.098 3.78913 -0.335994 0
M  V30 10518 H 984.41 4.98307 -0.221603 0
M  V30 10519 H 983.564 5.7226 2.01502 0
M  V30 10520 H 982.303 4.45798 1.97777 0
M  V30 10521 H 981.308 5.49743 -0.0793984 0
M  V30 10522 H 982.533 6.79096 -0.0233734 0
M  V30 10523 H 980.479 6.20058 2.14159 0
M  V30 10524 H 980.396 7.49467 0.991713 0
M  V30 10525 H 981.664 7.48371 2.18083 0
M  V30 10526 N 985.893 0.34162 1.53853 0
M  V30 10527 C 987.304 -0.14269 1.86154 0
M  V30 10528 C 987.655 -1.50151 1.2629 0
M  V30 10529 O 986.78 -2.08601 0.575735 0
M  V30 10530 C 987.375 -0.265691 3.37757 0
M  V30 10531 C 985.934 -0.694231 3.69942 0
M  V30 10532 C 985.081 0.173195 2.76759 0
M  V30 10533 H 988.032 0.561284 1.48443 0
M  V30 10534 H 988.053 -1.09352 3.64448 0
M  V30 10535 H 987.565 0.723424 3.81298 0
M  V30 10536 H 985.666 -1.69244 3.31945 0
M  V30 10537 H 985.779 -0.485461 4.76634 0
M  V30 10538 H 984.143 -0.35416 2.52226 0
M  V30 10539 H 984.926 1.15941 3.23129 0
M  V30 10540 N 987.371 -1.57444 0.0701946 0
M  V30 10541 C 988.617 -1.93716 -0.600178 0
M  V30 10542 C 988.95 -0.950329 -1.69359 0
M  V30 10543 O 988.225 0.0207123 -1.94489 0
M  V30 10544 C 988.508 -3.40266 -1.17861 0
M  V30 10545 C 988.361 -4.49706 -0.0919575 0
M  V30 10546 C 989.68 -3.87599 -2.08459 0
M  V30 10547 H 986.799 -0.704421 -0.216704 0
M  V30 10548 H 989.441 -1.89514 0.135838 0
M  V30 10549 H 987.591 -3.43977 -1.80587 0
M  V30 10550 H 989.263 -4.58116 0.541031 0
M  V30 10551 H 987.506 -4.29937 0.577639 0
M  V30 10552 H 988.177 -5.49381 -0.537048 0
M  V30 10553 H 990.653 -3.85883 -1.5567 0
M  V30 10554 H 989.529 -4.90755 -2.45867 0
M  V30 10555 H 989.79 -3.25448 -2.99226 0
M  V30 10556 N 988.849 0.203349 -1.56283 0
M  V30 10557 C 989.781 1.27592 -1.90402 0
M  V30 10558 C 990.794 1.4213 -0.79391 0
M  V30 10559 O 991.983 1.42703 -1.07229 0
M  V30 10560 C 989.083 2.64919 -2.11356 0
M  V30 10561 C 988.256 2.72095 -3.42466 0
M  V30 10562 C 987.315 3.9056 -3.52631 0
M  V30 10563 O 986.341 3.78048 -4.25521 0
M  V30 10564 N 987.543 5.0566 -2.85111 0
M  V30 10565 H 990.308 0.986423 -2.83001 0
M  V30 10566 H 987.869 0.39331 -1.5705 0
M  V30 10567 H 989.861 3.42581 -2.15453 0
M  V30 10568 H 988.431 2.86391 -1.25295 0
M  V30 10569 H 987.651 1.8077 -3.50308 0
M  V30 10570 H 988.939 2.73874 -4.28801 0
M  V30 10571 H 988.337 5.18723 -2.25705 0
M  V30 10572 H 986.894 5.81299 -2.94847 0
M  V30 10573 N 990.327 1.50405 0.470755 0
M  V30 10574 C 991.604 1.51929 1.23195 0
M  V30 10575 C 991.984 0.264159 2.09441 0
M  V30 10576 O 991.332 -0.752395 2.15757 0
M  V30 10577 C 991.542 2.81521 2.06269 0
M  V30 10578 C 992.89 3.32195 2.64446 0
M  V30 10579 O 993.914 2.82845 2.16511 0
M  V30 10580 O 992.773 4.18221 3.51786 0
M  V30 10581 H 989.867 0.609411 0.559059 0
M  V30 10582 H 992.413 1.62695 0.482549 0
M  V30 10583 H 991.185 3.64346 1.42715 0
M  V30 10584 H 990.808 2.7376 2.88342 0
M  V30 10585 N 991.805 -0.723954 1.39988 0
M  V30 10586 C 992.735 -1.85103 1.42335 0
M  V30 10587 C 993.716 -1.6769 0.285297 0
M  V30 10588 O 994.901 -1.87846 0.492716 0
M  V30 10589 C 992.031 -3.22972 1.27697 0
M  V30 10590 C 990.985 -3.55041 2.39018 0
M  V30 10591 C 990.311 -4.91965 2.09462 0
M  V30 10592 C 991.611 -3.56889 3.8135 0
M  V30 10593 H 993.305 -1.83396 2.36656 0
M  V30 10594 H 990.851 -0.880926 1.13911 0
M  V30 10595 H 992.804 -4.01503 1.27958 0
M  V30 10596 H 991.528 -3.25233 0.298487 0
M  V30 10597 H 990.187 -2.78845 2.37993 0
M  V30 10598 H 989.835 -4.90819 1.10025 0
M  V30 10599 H 989.535 -5.14389 2.84038 0
M  V30 10600 H 991.059 -5.7284 2.11391 0
M  V30 10601 H 992.473 -4.25476 3.84243 0
M  V30 10602 H 990.87 -3.90836 4.55376 0
M  V30 10603 H 991.94 -2.56452 4.11534 0
M  V30 10604 N 993.283 -1.25346 -0.955304 0
M  V30 10605 C 994.532 -1.0945 -1.69421 0
M  V30 10606 C 994.845 0.364459 -1.92175 0
M  V30 10607 O 996.051 0.643843 -2.63755 0
M  V30 10608 C 994.507 -1.91045 -3.05008 0
M  V30 10609 C 994.115 -3.41428 -2.90053 0
M  V30 10610 C 995.859 -1.83716 -3.82686 0
M  V30 10611 C 993.766 -4.1532 -4.21026 0
M  V30 10612 H 992.696 -0.405978 -0.635372 0
M  V30 10613 H 995.347 -1.49536 -1.06354 0
M  V30 10614 H 993.729 -1.43781 -3.68975 0
M  V30 10615 H 994.903 -3.9636 -2.35022 0
M  V30 10616 H 993.218 -3.49842 -2.25831 0
M  V30 10617 H 995.815 -2.36217 -4.79693 0
M  V30 10618 H 996.158 -0.804919 -4.08444 0
M  V30 10619 H 996.691 -2.28726 -3.25468 0
M  V30 10620 H 993.43 -5.18955 -4.00457 0
M  V30 10621 H 992.95 -3.65172 -4.75825 0
M  V30 10622 H 994.629 -4.22999 -4.89572 0
M  V30 10623 N 994.761 1.15782 -1.06922 0
M  V30 10624 C 995.708 2.2038 -0.685659 0
M  V30 10625 C 996.678 1.62972 0.320816 0
M  V30 10626 O 997.863 1.8966 0.208258 0
M  V30 10627 C 995.003 3.44995 -0.084998 0
M  V30 10628 C 994.116 4.16621 -1.14242 0
M  V30 10629 C 993.251 5.28773 -0.507226 0
M  V30 10630 C 992.29 5.92209 -1.54774 0
M  V30 10631 N 991.427 6.9584 -0.935443 0
M  V30 10632 H 996.267 2.5254 -1.58201 0
M  V30 10633 H 993.804 1.24031 -0.790864 0
M  V30 10634 H 995.762 4.16254 0.280845 0
M  V30 10635 H 994.392 3.13365 0.774725 0
M  V30 10636 H 993.444 3.43903 -1.62589 0
M  V30 10637 H 994.756 4.59884 -1.93154 0
M  V30 10638 H 993.91 6.06635 -0.0887719 0
M  V30 10639 H 992.649 4.8669 0.313704 0
M  V30 10640 H 991.654 5.13063 -1.97602 0
M  V30 10641 H 992.879 6.3637 -2.37088 0
M  V30 10642 H 990.825 6.5586 -0.135339 0
M  V30 10643 H 990.742 7.37508 -1.66186 0
M  V30 10644 H 992.01 7.77611 -0.542346 0
M  V30 10645 N 996.239 0.8527 1.3254 0
M  V30 10646 C 997.172 0.240733 2.26927 0
M  V30 10647 C 998.15 -0.620158 1.50309 0
M  V30 10648 O 999.334 -0.577389 1.79439 0
M  V30 10649 C 996.461 -0.660644 3.32195 0
M  V30 10650 C 995.507 0.126604 4.26312 0
M  V30 10651 S 996.34 1.49372 5.14245 0
M  V30 10652 C 997.496 0.598002 6.23037 0
M  V30 10653 H 997.729 1.04088 2.78483 0
M  V30 10654 H 995.262 0.650222 1.40041 0
M  V30 10655 H 997.22 -1.17506 3.93323 0
M  V30 10656 H 995.881 -1.43458 2.79426 0
M  V30 10657 H 995.074 -0.559851 5.00881 0
M  V30 10658 H 994.676 0.572536 3.69592 0
M  V30 10659 H 996.968 -0.198555 6.77209 0
M  V30 10660 H 997.911 1.31428 6.95796 0
M  V30 10661 H 998.319 0.173211 5.64234 0
M  V30 10662 N 997.718 -1.45297 0.610449 0
M  V30 10663 C 998.967 -2.0143 0.104323 0
M  V30 10664 C 999.28 -1.48431 -1.27388 0
M  V30 10665 O 1000.49 -1.96558 -1.87289 0
M  V30 10666 C 998.942 -3.59644 0.135812 0
M  V30 10667 C 998.55 -4.2164 1.51405 0
M  V30 10668 C 1000.29 -4.2333 -0.314922 0
M  V30 10669 C 998.201 -5.72015 1.50176 0
M  V30 10670 H 997.131 -0.753176 0.035233 0
M  V30 10671 H 999.782 -1.66738 0.7662 0
M  V30 10672 H 998.164 -3.91538 -0.592773 0
M  V30 10673 H 999.338 -4.01315 2.26457 0
M  V30 10674 H 997.653 -3.70159 1.90712 0
M  V30 10675 H 1000.25 -5.33597 -0.343335 0
M  V30 10676 H 1000.59 -3.94206 -1.33817 0
M  V30 10677 H 1001.13 -3.96163 0.360489 0
M  V30 10678 H 997.865 -6.05842 2.50271 0
M  V30 10679 H 997.385 -5.94523 0.793869 0
M  V30 10680 H 999.064 -6.35266 1.22665 0
M  V30 10681 N 999.196 -0.349774 -1.5367 0
M  V30 10682 C 1000.44 0.244827 -2.01015 0
M  V30 10683 C 1000.77 1.50057 -1.23746 0
M  V30 10684 O 1000.03 1.9315 -0.314872 0
M  V30 10685 C 1000.32 0.598311 -3.52356 0
M  V30 10686 C 999.991 -0.56127 -4.47393 0
M  V30 10687 C 998.653 -0.879481 -4.73095 0
M  V30 10688 C 1001 -1.3389 -5.03709 0
M  V30 10689 C 998.333 -1.97758 -5.52366 0
M  V30 10690 C 1000.68 -2.4273 -5.84179 0
M  V30 10691 C 999.349 -2.75103 -6.08173 0
M  V30 10692 H 998.619 0.0895884 -0.735564 0
M  V30 10693 H 1001.27 -0.478975 -1.85413 0
M  V30 10694 H 999.571 1.40291 -3.65822 0
M  V30 10695 H 1001.27 1.07036 -3.86451 0
M  V30 10696 H 997.858 -0.303201 -4.27526 0
M  V30 10697 H 1002.04 -1.10632 -4.83812 0
M  V30 10698 H 997.298 -2.23257 -5.6918 0
M  V30 10699 H 1001.47 -3.03412 -6.26828 0
M  V30 10700 H 999.099 -3.60317 -6.69385 0
M  V30 10701 N 1000.67 1.57404 -0.0785433 0
M  V30 10702 C 1001.95 1.85163 0.630389 0
M  V30 10703 C 1002.33 0.972295 1.87376 0
M  V30 10704 O 1001.68 0.0403375 2.28464 0
M  V30 10705 C 1001.89 3.35491 0.961604 0
M  V30 10706 C 1003.24 4.0316 1.33219 0
M  V30 10707 O 1004.26 3.40276 1.05313 0
M  V30 10708 O 1003.12 5.14086 1.85412 0
M  V30 10709 H 1000.21 0.765169 0.31376 0
M  V30 10710 H 1002.76 1.69343 -0.109986 0
M  V30 10711 H 1001.53 3.91221 0.0788113 0
M  V30 10712 H 1001.15 3.56598 1.75852 0
M  V30 10713 N 1002.15 -0.195058 1.56388 0
M  V30 10714 C 1003.4 -0.9168 1.80894 0
M  V30 10715 C 1003.73 -1.82907 0.652592 0
M  V30 10716 O 1003.01 -1.91382 -0.346853 0
M  V30 10717 C 1003.29 -1.733 3.15657 0
M  V30 10718 C 1003.14 -0.845449 4.41783 0
M  V30 10719 C 1004.46 -2.70557 3.47112 0
M  V30 10720 H 1001.58 -0.331861 0.658056 0
M  V30 10721 H 1004.22 -0.184174 1.89105 0
M  V30 10722 H 1002.37 -2.3576 3.08787 0
M  V30 10723 H 1004.04 -0.235557 4.60698 0
M  V30 10724 H 1002.29 -0.152172 4.33533 0
M  V30 10725 H 1002.96 -1.45152 5.32574 0
M  V30 10726 H 1005.43 -2.1823 3.54281 0
M  V30 10727 H 1004.31 -3.24749 4.42526 0
M  V30 10728 H 1004.57 -3.49605 2.70608 0
M  V30 10729 N 1003.63 -1.50653 -0.462772 0
M  V30 10730 C 1004.54 -1.72923 -1.58539 0
M  V30 10731 C 1005.56 -0.612577 -1.6286 0
M  V30 10732 O 1006.73 -0.891885 -1.80575 0
M  V30 10733 C 1003.8 -1.82623 -2.94703 0
M  V30 10734 C 1002.86 -3.06392 -3.00704 0
M  V30 10735 C 1002.09 -3.15618 -4.30373 0
M  V30 10736 O 1002.31 -2.31423 -5.21344 0
M  V30 10737 O 1001.25 -4.0841 -4.42136 0
M  V30 10738 H 1005.07 -2.68103 -1.42669 0
M  V30 10739 H 1002.66 -1.34848 -0.643144 0
M  V30 10740 H 1004.54 -1.91134 -3.7556 0
M  V30 10741 H 1003.22 -0.906275 -3.10754 0
M  V30 10742 H 1002.12 -3.03375 -2.18894 0
M  V30 10743 H 1003.46 -3.97992 -2.89591 0
M  V30 10744 N 1005.11 0.71652 -1.4037 0
M  V30 10745 C 1006.33 1.51069 -1.42102 0
M  V30 10746 C 1006.76 1.88087 -0.0222387 0
M  V30 10747 O 1006.12 1.53204 0.969448 0
M  V30 10748 C 1006.16 2.76307 -2.31704 0
M  V30 10749 O 1005.27 3.72975 -1.75964 0
M  V30 10750 H 1004.61 0.455502 -0.483129 0
M  V30 10751 H 1007.14 0.882514 -1.84588 0
M  V30 10752 H 1007.15 3.24846 -2.46859 0
M  V30 10753 H 1005.82 2.48698 -3.3335 0
M  V30 10754 H 1004.4 3.31818 -1.70151 0
M  V30 10755 N 1006.59 1.25851 0.948643 0
M  V30 10756 C 1007.52 1.0108 2.04593 0
M  V30 10757 C 1008.5 -0.0619691 1.62482 0
M  V30 10758 O 1009.68 0.0789196 1.88335 0
M  V30 10759 C 1006.81 0.529174 3.34541 0
M  V30 10760 C 1005.85 1.59337 3.95618 0
M  V30 10761 S 1006.69 3.18026 4.30836 0
M  V30 10762 C 1007.84 2.71613 5.63895 0
M  V30 10763 H 1008.08 1.93988 2.2529 0
M  V30 10764 H 1005.61 1.09448 1.08906 0
M  V30 10765 H 1007.57 0.25795 4.09689 0
M  V30 10766 H 1006.23 -0.37951 3.11799 0
M  V30 10767 H 1005.42 1.20722 4.89328 0
M  V30 10768 H 1005.02 1.81559 3.26975 0
M  V30 10769 H 1007.32 2.15612 6.42275 0
M  V30 10770 H 1008.26 3.63986 6.07387 0
M  V30 10771 H 1008.67 2.11417 5.23415 0
M  V30 10772 N 1008.06 -1.15214 1.07534 0
M  V30 10773 C 1009.01 -2.20013 0.697337 0
M  V30 10774 C 1009.98 -1.6314 -0.312168 0
M  V30 10775 O 1011.17 -1.89768 -0.198196 0
M  V30 10776 C 1008.31 -3.44945 0.103293 0
M  V30 10777 C 1007.42 -4.16009 1.1645 0
M  V30 10778 C 1006.55 -5.28496 0.535261 0
M  V30 10779 C 1005.59 -5.9138 1.57912 0
M  V30 10780 N 1004.73 -6.95335 0.972332 0
M  V30 10781 H 1009.57 -2.51698 1.59538 0
M  V30 10782 H 1007.11 -1.2361 0.797431 0
M  V30 10783 H 1009.07 -4.16397 -0.258766 0
M  V30 10784 H 1007.7 -3.13772 -0.758096 0
M  V30 10785 H 1006.75 -3.43035 1.64411 0
M  V30 10786 H 1008.06 -4.58853 1.9559 0
M  V30 10787 H 1007.21 -6.06579 0.120942 0
M  V30 10788 H 1005.95 -4.8685 -0.287889 0
M  V30 10789 H 1004.96 -5.12008 2.0032 0
M  V30 10790 H 1006.18 -6.35103 2.40459 0
M  V30 10791 H 1004.13 -6.55779 0.170119 0
M  V30 10792 H 1004.05 -7.36616 1.70095 0
M  V30 10793 H 1005.31 -7.77312 0.583577 0
M  V30 10794 N 1009.54 -0.859717 -1.32086 0
M  V30 10795 C 1010.49 -0.306042 -2.28762 0
M  V30 10796 C 1011.46 0.589801 -1.55276 0
M  V30 10797 O 1012.64 0.523633 -1.83474 0
M  V30 10798 C 1009.78 0.495256 -3.41528 0
M  V30 10799 C 1008.9 -0.426947 -4.29885 0
M  V30 10800 C 1008.03 0.387474 -5.29785 0
M  V30 10801 C 1007.07 -0.531807 -6.09785 0
M  V30 10802 N 1006.21 0.245741 -7.0167 0
M  V30 10803 H 1011.05 -1.1357 -2.7551 0
M  V30 10804 H 1008.59 -0.571468 -1.35546 0
M  V30 10805 H 1010.54 0.97551 -4.05635 0
M  V30 10806 H 1009.17 1.28969 -2.95917 0
M  V30 10807 H 1008.23 -1.02561 -3.66313 0
M  V30 10808 H 1009.54 -1.13226 -4.85779 0
M  V30 10809 H 1008.69 0.930677 -5.99519 0
M  V30 10810 H 1007.43 1.12612 -4.74521 0
M  V30 10811 H 1006.44 -1.08685 -5.3895 0
M  V30 10812 H 1007.66 -1.26915 -6.67135 0
M  V30 10813 H 1005.61 0.967391 -6.48828 0
M  V30 10814 H 1005.52 -0.400432 -7.54939 0
M  V30 10815 H 1006.79 0.770507 -7.75683 0
M  V30 10816 N 1011.02 1.44971 -0.618145 0
M  V30 10817 C 1011.98 2.29044 0.0846739 0
M  V30 10818 C 1012.98 1.40341 0.784921 0
M  V30 10819 O 1014.17 1.62351 0.631479 0
M  V30 10820 C 1011.31 3.21617 1.13027 0
M  V30 10821 H 1012.5 2.92668 -0.654612 0
M  V30 10822 H 1010.05 1.51668 -0.377672 0
M  V30 10823 H 1010.79 2.62815 1.89997 0
M  V30 10824 H 1010.57 3.86969 0.63224 0
M  V30 10825 H 1012.06 3.84805 1.62218 0
M  V30 10826 N 1012.5 0.357919 1.53482 0
M  V30 10827 C 1013.43 -0.535553 2.21827 0
M  V30 10828 C 1014.41 -1.08904 1.20742 0
M  V30 10829 O 1015.59 -1.14661 1.49616 0
M  V30 10830 C 1012.72 -1.73817 2.90698 0
M  V30 10831 C 1011.77 -1.31283 4.05792 0
M  V30 10832 S 1012.6 -0.320548 5.3454 0
M  V30 10833 C 1013.76 -1.52967 6.0692 0
M  V30 10834 H 1013.99 0.0449045 2.97266 0
M  V30 10835 H 1011.52 0.142009 1.53746 0
M  V30 10836 H 1013.48 -2.42803 3.30994 0
M  V30 10837 H 1012.14 -2.28987 2.14998 0
M  V30 10838 H 1011.33 -2.20989 4.52968 0
M  V30 10839 H 1010.94 -0.702275 3.67347 0
M  V30 10840 H 1013.23 -2.46191 6.31186 0
M  V30 10841 H 1014.17 -1.09943 6.99513 0
M  V30 10842 H 1014.58 -1.73224 5.37265 0
M  V30 10843 N 1013.98 -1.5736 0.0868897 0
M  V30 10844 C 1015.22 -1.94341 -0.579598 0
M  V30 10845 C 1015.56 -0.968238 -1.68341 0
M  V30 10846 O 1014.83 8.29649e-05 -1.945 0
M  V30 10847 C 1015.11 -3.41497 -1.14245 0
M  V30 10848 C 1014.97 -4.49778 -0.044255 0
M  V30 10849 C 1016.29 -3.89788 -2.04336 0
M  V30 10850 H 1013.4 -0.70668 -0.20922 0
M  V30 10851 H 1016.05 -1.89359 0.15593 0
M  V30 10852 H 1014.2 -3.45873 -1.76929 0
M  V30 10853 H 1015.87 -4.57517 0.58959 0
M  V30 10854 H 1014.11 -4.293 0.623207 0
M  V30 10855 H 1014.78 -5.4992 -0.478749 0
M  V30 10856 H 1017.26 -3.87513 -1.51569 0
M  V30 10857 H 1016.13 -4.93335 -2.40648 0
M  V30 10858 H 1016.4 -3.28603 -2.95757 0
M  V30 10859 N 1015.45 0.186762 -1.56489 0
M  V30 10860 C 1016.36 1.25169 -1.98419 0
M  V30 10861 C 1017.38 1.49329 -0.893124 0
M  V30 10862 O 1018.56 1.61781 -1.19954 0
M  V30 10863 C 1015.62 2.57422 -2.32239 0
M  V30 10864 C 1014.68 2.4126 -3.55095 0
M  V30 10865 C 1013.92 3.67206 -3.87292 0
M  V30 10866 O 1014.14 4.71731 -3.20665 0
M  V30 10867 O 1013.07 3.62238 -4.80695 0
M  V30 10868 H 1016.9 0.925834 -2.89244 0
M  V30 10869 H 1014.48 0.392421 -1.44154 0
M  V30 10870 H 1016.37 3.35466 -2.5503 0
M  V30 10871 H 1015.04 2.89618 -1.44579 0
M  V30 10872 H 1013.95 1.61299 -3.37541 0
M  V30 10873 H 1015.28 2.13994 -4.43247 0
M  V30 10874 N 1016.93 1.50896 0.454776 0
M  V30 10875 C 1018.16 1.66239 1.22671 0
M  V30 10876 C 1018.57 0.351876 1.85899 0
M  V30 10877 O 1017.91 -0.677848 1.70736 0
M  V30 10878 C 1017.98 2.70812 2.36434 0
M  V30 10879 C 1017.64 4.13913 1.93714 0
M  V30 10880 C 1018.64 4.99259 1.45039 0
M  V30 10881 C 1016.32 4.59921 2.01937 0
M  V30 10882 C 1018.32 6.28667 1.05151 0
M  V30 10883 C 1016 5.89329 1.6166 0
M  V30 10884 C 1017 6.73529 1.13347 0
M  V30 10885 O 1016.69 8.0052 0.736354 0
M  V30 10886 H 1016.42 0.561443 0.376508 0
M  V30 10887 H 1018.97 1.97974 0.547325 0
M  V30 10888 H 1017.2 2.34355 3.07595 0
M  V30 10889 H 1018.89 2.7521 2.98353 0
M  V30 10890 H 1019.66 4.64925 1.38095 0
M  V30 10891 H 1015.54 3.94518 2.38488 0
M  V30 10892 H 1019.08 6.94339 0.673711 0
M  V30 10893 H 1014.98 6.23182 1.68269 0
M  V30 10894 H 1015.75 8.1393 0.863759 0
M  V30 10895 N 1018.41 -0.709066 1.40748 0
M  V30 10896 C 1019.32 -1.85314 1.43861 0
M  V30 10897 C 1020.34 -1.70832 0.330539 0
M  V30 10898 O 1021.51 -1.92983 0.576152 0
M  V30 10899 C 1018.58 -3.21174 1.30568 0
M  V30 10900 C 1017.64 -3.47863 2.51574 0
M  V30 10901 C 1016.87 -4.77241 2.38906 0
M  V30 10902 O 1017.09 -5.52791 1.40636 0
M  V30 10903 O 1016.03 -5.04413 3.28407 0
M  V30 10904 H 1019.85 -1.85644 2.40354 0
M  V30 10905 H 1017.44 -0.860352 1.2214 0
M  V30 10906 H 1019.32 -4.02313 1.25388 0
M  V30 10907 H 1018 -3.21557 0.371841 0
M  V30 10908 H 1016.9 -2.66708 2.62331 0
M  V30 10909 H 1018.24 -3.52283 3.43741 0
M  V30 10910 N 1019.89 -1.26353 -0.941956 0
M  V30 10911 C 1021.14 -1.11241 -1.68251 0
M  V30 10912 C 1021.45 0.344055 -1.9255 0
M  V30 10913 O 1022.66 0.615832 -2.64423 0
M  V30 10914 C 1021.11 -1.94269 -3.02965 0
M  V30 10915 C 1020.72 -3.44485 -2.86415 0
M  V30 10916 C 1022.47 -1.87764 -3.80716 0
M  V30 10917 C 1020.37 -4.19763 -4.16597 0
M  V30 10918 H 1019.3 -0.412694 -0.63103 0
M  V30 10919 H 1021.95 -1.50656 -1.04762 0
M  V30 10920 H 1020.34 -1.47687 -3.6743 0
M  V30 10921 H 1021.51 -3.9883 -2.30805 0
M  V30 10922 H 1019.82 -3.52218 -2.22107 0
M  V30 10923 H 1022.42 -2.41292 -4.77161 0
M  V30 10924 H 1022.76 -0.848195 -4.07568 0
M  V30 10925 H 1023.3 -2.32165 -3.23024 0
M  V30 10926 H 1020.04 -5.23173 -3.9493 0
M  V30 10927 H 1019.56 -3.70198 -4.71925 0
M  V30 10928 H 1021.24 -4.28168 -4.85058 0
M  V30 10929 N 1021.37 1.14642 -1.08144 0
M  V30 10930 C 1022.64 1.81774 -0.72232 0
M  V30 10931 C 1023.02 1.95587 0.794294 0
M  V30 10932 O 1022.37 1.51361 1.71178 0
M  V30 10933 C 1022.58 3.1763 -1.44611 0
M  V30 10934 C 1023.93 3.93161 -1.60343 0
M  V30 10935 O 1024.95 3.2721 -1.40755 0
M  V30 10936 O 1023.81 5.11422 -1.9264 0
M  V30 10937 H 1020.91 0.785733 -0.257978 0
M  V30 10938 H 1023.45 1.21683 -1.18285 0
M  V30 10939 H 1022.23 3.02723 -2.4794 0
M  V30 10940 H 1021.85 3.85412 -0.976892 0
M  V30 10941 N 1022.85 0.866709 1.31628 0
M  V30 10942 C 1023.78 0.335762 2.31073 0
M  V30 10943 C 1024.76 -0.571597 1.60209 0
M  V30 10944 O 1025.94 -0.489306 1.87935 0
M  V30 10945 C 1023.07 -0.466416 3.44154 0
M  V30 10946 C 1022.03 0.347561 4.26586 0
M  V30 10947 C 1021.35 -0.5801 5.31544 0
M  V30 10948 C 1022.65 1.57986 4.97833 0
M  V30 10949 H 1024.35 1.16673 2.75731 0
M  V30 10950 H 1021.89 0.56248 1.3256 0
M  V30 10951 H 1023.84 -0.84836 4.12772 0
M  V30 10952 H 1022.57 -1.33086 2.98254 0
M  V30 10953 H 1021.23 0.71141 3.59631 0
M  V30 10954 H 1020.88 -1.44174 4.81895 0
M  V30 10955 H 1020.58 -0.0393965 5.87587 0
M  V30 10956 H 1022.1 -0.958958 6.03023 0
M  V30 10957 H 1023.51 1.26954 5.59067 0
M  V30 10958 H 1021.91 2.05939 5.63657 0
M  V30 10959 H 1022.98 2.3345 4.25005 0
M  V30 10960 N 1024.32 -1.44642 0.625825 0
M  V30 10961 C 1025.26 -2.28882 -0.120614 0
M  V30 10962 C 1026.27 -1.40985 -0.81407 0
M  V30 10963 O 1027.46 -1.65188 -0.676404 0
M  V30 10964 C 1024.56 -3.17217 -1.19274 0
M  V30 10965 C 1023.73 -4.33499 -0.582839 0
M  V30 10966 C 1022.79 -5.02908 -1.54823 0
M  V30 10967 O 1021.82 -5.59102 -1.06743 0
M  V30 10968 N 1023.02 -5.0387 -2.88262 0
M  V30 10969 H 1025.78 -2.93585 0.602318 0
M  V30 10970 H 1023.34 -1.5503 0.466604 0
M  V30 10971 H 1025.34 -3.60515 -1.83878 0
M  V30 10972 H 1023.91 -2.54301 -1.81797 0
M  V30 10973 H 1023.13 -3.93458 0.241696 0
M  V30 10974 H 1024.41 -5.08561 -0.155914 0
M  V30 10975 H 1023.81 -4.59539 -3.2991 0
M  V30 10976 H 1022.37 -5.50974 -3.4824 0
M  V30 10977 N 1025.8 -0.366053 -1.5329 0
M  V30 10978 C 1026.75 0.480205 -2.25749 0
M  V30 10979 C 1027.72 1.07713 -1.2644 0
M  V30 10980 O 1028.9 1.10953 -1.55222 0
M  V30 10981 C 1026.04 1.61374 -3.05045 0
M  V30 10982 C 1025.16 1.04194 -4.19246 0
M  V30 10983 C 1024.29 2.14462 -4.85983 0
M  V30 10984 C 1023.33 1.5475 -5.92215 0
M  V30 10985 N 1022.47 2.58852 -6.52641 0
M  V30 10986 H 1027.31 -0.144199 -2.97651 0
M  V30 10987 H 1024.84 -0.0829321 -1.46866 0
M  V30 10988 H 1026.8 2.28144 -3.49294 0
M  V30 10989 H 1025.43 2.2088 -2.35397 0
M  V30 10990 H 1024.48 0.264514 -3.79479 0
M  V30 10991 H 1025.8 0.565379 -4.95585 0
M  V30 10992 H 1024.95 2.89051 -5.33418 0
M  V30 10993 H 1023.69 2.6547 -4.09117 0
M  V30 10994 H 1022.69 0.786759 -5.44142 0
M  V30 10995 H 1023.92 1.04566 -6.71001 0
M  V30 10996 H 1021.87 3.09073 -5.78627 0
M  V30 10997 H 1021.78 2.15884 -7.24521 0
M  V30 10998 H 1023.05 3.33142 -7.04724 0
M  V30 10999 N 1027.28 1.57312 -0.0952337 0
M  V30 11000 C 1028.21 2.09691 0.900274 0
M  V30 11001 C 1029.19 1.0075 1.27625 0
M  V30 11002 O 1030.37 1.28249 1.38147 0
M  V30 11003 C 1027.5 2.574 2.20142 0
M  V30 11004 C 1026.55 3.78 1.9753 0
M  V30 11005 S 1027.38 5.21577 1.21318 0
M  V30 11006 C 1028.54 5.72636 2.52663 0
M  V30 11007 H 1028.77 2.93803 0.45467 0
M  V30 11008 H 1026.3 1.53948 0.118056 0
M  V30 11009 H 1028.26 2.85546 2.94914 0
M  V30 11010 H 1026.92 1.73514 2.61824 0
M  V30 11011 H 1026.11 4.09451 2.93881 0
M  V30 11012 H 1025.72 3.50349 1.30888 0
M  V30 11013 H 1028.01 5.80911 3.48638 0
M  V30 11014 H 1028.95 6.71136 2.25791 0
M  V30 11015 H 1029.36 5.00569 2.60943 0
M  V30 11016 N 1028.76 -0.17846 1.56586 0
M  V30 11017 C 1030.17 -0.741599 1.71339 0
M  V30 11018 C 1030.52 -1.83112 0.704579 0
M  V30 11019 O 1029.64 -2.15975 -0.135557 0
M  V30 11020 C 1030.24 -1.35198 3.10656 0
M  V30 11021 C 1028.8 -1.86202 3.27118 0
M  V30 11022 C 1027.95 -0.738255 2.67292 0
M  V30 11023 H 1030.9 0.0468424 1.58631 0
M  V30 11024 H 1030.92 -2.2216 3.0891 0
M  V30 11025 H 1030.43 -0.558776 3.84056 0
M  V30 11026 H 1028.53 -2.68188 2.58661 0
M  V30 11027 H 1028.64 -2.01237 4.34788 0
M  V30 11028 H 1027.01 -1.15686 2.26912 0
M  V30 11029 H 1027.79 0.0429821 3.43273 0
M  V30 11030 N 1030.24 -1.51135 -0.446768 0
M  V30 11031 C 1031.17 -1.74709 -1.54916 0
M  V30 11032 C 1032.15 -0.596628 -1.59293 0
M  V30 11033 O 1033.33 -0.838356 -1.75172 0
M  V30 11034 C 1030.46 -1.86353 -2.9307 0
M  V30 11035 C 1029.42 -3.01725 -3.03556 0
M  V30 11036 C 1028.74 -2.9854 -4.43597 0
M  V30 11037 C 1030.04 -4.41848 -2.7851 0
M  V30 11038 H 1031.74 -2.67014 -1.3544 0
M  V30 11039 H 1029.28 -1.28489 -0.650131 0
M  V30 11040 H 1031.23 -2.01428 -3.70141 0
M  V30 11041 H 1029.96 -0.906887 -3.13756 0
M  V30 11042 H 1028.62 -2.86339 -2.28922 0
M  V30 11043 H 1028.27 -2.00673 -4.61237 0
M  V30 11044 H 1027.97 -3.76008 -4.51544 0
M  V30 11045 H 1029.49 -3.15696 -5.22655 0
M  V30 11046 H 1030.9 -4.57633 -3.45319 0
M  V30 11047 H 1029.3 -5.2095 -2.97877 0
M  V30 11048 H 1030.37 -4.52536 -1.74182 0
M  V30 11049 N 1031.71 0.701592 -1.41122 0
M  V30 11050 C 1032.96 1.45871 -1.39879 0
M  V30 11051 C 1033.28 1.94999 -0.00668769 0
M  V30 11052 O 1032.55 1.71298 0.95047 0
M  V30 11053 H 1031.13 0.541231 -0.514857 0
M  V30 11054 H 1033.79 0.830803 -1.76306 0
M  V30 11055 H 1032.89 2.32479 -2.0823 0
M  V30 11056 N 1033.19 1.2685 0.935242 0
M  V30 11057 C 1034.14 1.08923 2.03481 0
M  V30 11058 C 1035.11 -0.00749786 1.66098 0
M  V30 11059 O 1036.29 0.153401 1.90182 0
M  V30 11060 C 1033.43 0.734529 3.37192 0
M  V30 11061 C 1032.55 1.90812 3.87576 0
M  V30 11062 C 1031.68 1.49599 5.097 0
M  V30 11063 C 1030.72 2.63752 5.5236 0
M  V30 11064 N 1029.86 2.23179 6.65684 0
M  V30 11065 H 1034.7 2.03016 2.18148 0
M  V30 11066 H 1032.23 1.01072 1.06878 0
M  V30 11067 H 1034.19 0.509734 4.14074 0
M  V30 11068 H 1032.82 -0.169438 3.22355 0
M  V30 11069 H 1031.87 2.24567 3.0704 0
M  V30 11070 H 1033.19 2.7647 4.1517 0
M  V30 11071 H 1032.34 1.23199 5.9406 0
M  V30 11072 H 1031.08 0.61039 4.83865 0
M  V30 11073 H 1030.08 2.90874 4.66554 0
M  V30 11074 H 1031.31 3.5292 5.80193 0
M  V30 11075 H 1029.26 1.37061 6.41522 0
M  V30 11076 H 1029.17 3.02379 6.92895 0
M  V30 11077 H 1030.44 2.00007 7.53404 0
M  V30 11078 N 1034.67 -1.14067 1.0875 0
M  V30 11079 C 1035.6 -2.21385 0.74236 0
M  V30 11080 C 1036.58 -1.67833 -0.276805 0
M  V30 11081 O 1037.77 -1.93647 -0.1464 0
M  V30 11082 C 1034.9 -3.46956 0.154644 0
M  V30 11083 C 1033.85 -4.13555 1.10255 0
M  V30 11084 C 1033.18 -5.3337 0.376877 0
M  V30 11085 C 1034.48 -4.6169 2.44213 0
M  V30 11086 H 1036.17 -2.50512 1.63964 0
M  V30 11087 H 1033.72 -1.20408 0.789807 0
M  V30 11088 H 1035.67 -4.21284 -0.0988419 0
M  V30 11089 H 1034.39 -3.17203 -0.777789 0
M  V30 11090 H 1033.05 -3.41186 1.34119 0
M  V30 11091 H 1032.7 -4.99879 -0.559472 0
M  V30 11092 H 1032.4 -5.78875 1.00884 0
M  V30 11093 H 1033.92 -6.10458 0.131527 0
M  V30 11094 H 1035.34 -5.27475 2.24595 0
M  V30 11095 H 1033.74 -5.17909 3.03134 0
M  V30 11096 H 1034.81 -3.76574 3.05483 0
M  V30 11097 N 1036.15 -0.873678 -1.31166 0
M  V30 11098 C 1037.37 -0.500242 -2.01277 0
M  V30 11099 C 1037.8 0.900811 -1.65127 0
M  V30 11100 O 1037.16 1.59504 -0.861862 0
M  V30 11101 C 1037.2 -0.668976 -3.5434 0
M  V30 11102 O 1036.31 0.290096 -4.11378 0
M  V30 11103 H 1035.65 -0.198507 -0.633633 0
M  V30 11104 H 1038.18 -1.17811 -1.67277 0
M  V30 11105 H 1038.19 -0.563673 -4.04088 0
M  V30 11106 H 1036.86 -1.69055 -3.79991 0
M  V30 11107 H 1035.44 0.139437 -3.72639 0
M  V30 11108 N 1037.63 1.44308 -0.633487 0
M  V30 11109 C 1038.57 2.30694 0.0700257 0
M  V30 11110 C 1039.54 1.43618 0.834447 0
M  V30 11111 O 1040.73 1.72517 0.815014 0
M  V30 11112 C 1037.87 3.28929 1.04403 0
M  V30 11113 C 1036.98 4.31106 0.277779 0
M  V30 11114 C 1036.12 5.16433 1.24381 0
M  V30 11115 C 1035.16 6.10317 0.466855 0
M  V30 11116 N 1034.29 6.88335 1.38347 0
M  V30 11117 H 1039.13 2.90311 -0.672567 0
M  V30 11118 H 1036.67 1.43034 -0.343449 0
M  V30 11119 H 1038.63 3.84373 1.62214 0
M  V30 11120 H 1037.26 2.71006 1.75372 0
M  V30 11121 H 1036.31 3.78115 -0.416292 0
M  V30 11122 H 1037.62 4.97725 -0.327251 0
M  V30 11123 H 1036.78 5.76406 1.89318 0
M  V30 11124 H 1035.51 4.49893 1.88276 0
M  V30 11125 H 1034.52 5.49451 -0.195989 0
M  V30 11126 H 1035.74 6.78894 -0.167414 0
M  V30 11127 H 1033.69 6.24461 2.00959 0
M  V30 11128 H 1033.61 7.51402 0.832517 0
M  V30 11129 H 1034.88 7.52829 2.0216 0
M  V30 11130 N 1039.1 0.374177 1.53094 0
M  V30 11131 C 1040.52 0.0234783 1.59583 0
M  V30 11132 C 1040.72 -1.45984 1.38892 0
M  V30 11133 O 1039.78 -2.22251 1.19836 0
M  V30 11134 C 1041.09 0.487117 2.96728 0
M  V30 11135 C 1042.64 0.442073 3.09862 0
M  V30 11136 C 1043.11 0.881659 4.49434 0
M  V30 11137 N 1044.6 0.837062 4.55574 0
M  V30 11138 C 1045.34 1.14878 5.61774 0
M  V30 11139 N 1044.83 1.53022 6.75689 0
M  V30 11140 N 1046.63 1.07102 5.51802 0
M  V30 11141 H 1038.78 1.34003 1.64794 0
M  V30 11142 H 1041.04 0.548281 0.773364 0
M  V30 11143 H 1040.75 1.52252 3.17037 0
M  V30 11144 H 1040.62 -0.121772 3.77003 0
M  V30 11145 H 1043.01 -0.584216 2.89259 0
M  V30 11146 H 1043.09 1.08657 2.31576 0
M  V30 11147 H 1042.73 1.90611 4.70776 0
M  V30 11148 H 1042.66 0.214326 5.26164 0
M  V30 11149 H 1045.15 0.556173 3.73785 0
M  V30 11150 H 1045.47 1.75211 7.52676 0
M  V30 11151 H 1043.81 1.56895 6.77059 0
M  V30 11152 H 1047 0.772149 4.61688 0
M  V30 11153 H 1047.18 1.31728 6.3447 0
M  V30 11154 N 1040.58 -1.57259 0.103575 0
M  V30 11155 C 1041.51 -2.1153 -0.882472 0
M  V30 11156 C 1042.53 -1.05446 -1.24036 0
M  V30 11157 O 1043.72 -1.32867 -1.192 0
M  V30 11158 C 1040.82 -2.58717 -2.18903 0
M  V30 11159 C 1039.99 -3.8873 -2.00519 0
M  V30 11160 C 1039.05 -4.21675 -3.14764 0
M  V30 11161 O 1038.07 -4.90755 -2.88355 0
M  V30 11162 N 1039.28 -3.77757 -4.40772 0
M  V30 11163 H 1042.04 -2.96758 -0.418901 0
M  V30 11164 H 1039.6 -1.61696 -0.0812921 0
M  V30 11165 H 1041.59 -2.77797 -2.94297 0
M  V30 11166 H 1040.16 -1.78454 -2.56657 0
M  V30 11167 H 1039.38 -3.78714 -1.09406 0
M  V30 11168 H 1040.67 -4.73771 -1.85522 0
M  V30 11169 H 1040.07 -3.22011 -4.65108 0
M  V30 11170 H 1038.63 -4.01975 -5.13088 0
M  V30 11171 N 1042.06 0.170153 -1.56679 0
M  V30 11172 C 1043.31 0.884902 -1.81252 0
M  V30 11173 C 1043.62 1.83361 -0.681024 0
M  V30 11174 O 1044.83 2.59082 -0.811722 0
M  V30 11175 C 1043.28 1.62408 -3.21172 0
M  V30 11176 C 1042.89 0.718947 -4.42194 0
M  V30 11177 C 1044.64 2.32699 -3.55037 0
M  V30 11178 C 1042.54 1.45843 -5.73135 0
M  V30 11179 H 1041.47 0.33418 -0.675899 0
M  V30 11180 H 1044.12 0.137818 -1.82982 0
M  V30 11181 H 1042.51 2.41596 -3.13763 0
M  V30 11182 H 1043.68 -0.0360521 -4.60786 0
M  V30 11183 H 1042 0.125634 -4.1621 0
M  V30 11184 H 1044.59 2.88621 -4.50114 0
M  V30 11185 H 1044.94 3.08092 -2.79974 0
M  V30 11186 H 1045.47 1.60453 -3.64005 0
M  V30 11187 H 1042.21 0.746799 -6.51232 0
M  V30 11188 H 1041.73 2.18672 -5.58518 0
M  V30 11189 H 1043.41 2.0056 -6.1513 0
M  V30 11190 N 1043.54 1.5137 0.438746 0
M  V30 11191 C 1044.47 1.68774 1.55074 0
M  V30 11192 C 1045.48 0.568436 1.52554 0
M  V30 11193 O 1046.67 0.842707 1.57355 0
M  V30 11194 C 1043.77 1.68592 2.9399 0
M  V30 11195 C 1042.95 2.97084 3.2103 0
M  V30 11196 C 1042 2.89108 4.39663 0
M  V30 11197 O 1041.03 3.63052 4.38385 0
M  V30 11198 N 1042.23 2.04863 5.4315 0
M  V30 11199 H 1045 2.647 1.40549 0
M  V30 11200 H 1042.56 1.49238 0.627663 0
M  V30 11201 H 1044.55 1.60826 3.71372 0
M  V30 11202 H 1043.12 0.802657 3.02119 0
M  V30 11203 H 1042.34 3.18729 2.3196 0
M  V30 11204 H 1043.63 3.82143 3.35923 0
M  V30 11205 H 1043.03 1.4416 5.47023 0
M  V30 11206 H 1041.58 2.02977 6.1939 0
M  V30 11207 N 1045.02 -0.694098 1.41492 0
M  V30 11208 C 1045.98 -1.78976 1.43179 0
M  V30 11209 C 1046.98 -1.57539 0.322191 0
M  V30 11210 O 1048.17 -1.64185 0.582138 0
M  V30 11211 C 1045.3 -3.17368 1.2446 0
M  V30 11212 H 1046.49 -1.78874 2.40716 0
M  V30 11213 H 1044.05 -0.901867 1.27656 0
M  V30 11214 H 1044.78 -3.23109 0.277691 0
M  V30 11215 H 1044.57 -3.3433 2.04856 0
M  V30 11216 H 1046.06 -3.97345 1.28479 0
M  V30 11217 N 1046.49 -1.27344 -0.928501 0
M  V30 11218 C 1047.46 -1.10043 -2.01055 0
M  V30 11219 C 1048.46 -0.0446793 -1.60738 0
M  V30 11220 O 1049.65 -0.289202 -1.71783 0
M  V30 11221 C 1046.78 -0.676559 -3.34119 0
M  V30 11222 H 1047.97 -2.06126 -2.17835 0
M  V30 11223 H 1045.53 -1.10121 -1.10919 0
M  V30 11224 H 1046.26 0.285697 -3.23039 0
M  V30 11225 H 1046.05 -1.43903 -3.64739 0
M  V30 11226 H 1047.54 -0.577725 -4.13584 0
M  V30 11227 N 1047.97 1.13488 -1.09353 0
M  V30 11228 C 1049.2 1.88319 -0.849681 0
M  V30 11229 C 1049.61 1.79347 0.602616 0
M  V30 11230 O 1048.95 1.15744 1.4265 0
M  V30 11231 C 1049.02 3.38698 -1.20514 0
M  V30 11232 C 1048.68 3.71452 -2.66219 0
M  V30 11233 C 1049.68 3.70755 -3.64467 0
M  V30 11234 C 1047.36 4.01132 -3.02321 0
M  V30 11235 C 1049.36 3.9928 -4.96845 0
M  V30 11236 C 1047.04 4.29318 -4.3489 0
M  V30 11237 C 1048.04 4.28376 -5.31961 0
M  V30 11238 O 1047.73 4.55872 -6.62145 0
M  V30 11239 H 1047.46 0.603053 -0.305455 0
M  V30 11240 H 1050.01 1.44592 -1.45884 0
M  V30 11241 H 1048.24 3.82925 -0.539022 0
M  V30 11242 H 1049.93 3.94852 -0.940552 0
M  V30 11243 H 1050.7 3.47901 -3.3792 0
M  V30 11244 H 1046.58 4.01013 -2.27398 0
M  V30 11245 H 1050.12 3.9846 -5.72604 0
M  V30 11246 H 1046.02 4.51644 -4.61181 0
M  V30 11247 H 1046.79 4.73544 -6.67607 0
M  V30 11248 N 1049.45 0.880621 1.30701 0
M  V30 11249 C 1050.68 0.510909 2.01009 0
M  V30 11250 C 1051.1 -0.892041 1.65603 0
M  V30 11251 O 1050.46 -1.59045 0.870309 0
M  V30 11252 C 1050.51 0.687759 3.53981 0
M  V30 11253 O 1049.61 -0.268275 4.11526 0
M  V30 11254 H 1048.95 0.201864 0.632572 0
M  V30 11255 H 1051.48 1.18697 1.6665 0
M  V30 11256 H 1051.49 0.585095 4.03783 0
M  V30 11257 H 1050.17 1.71068 3.79089 0
M  V30 11258 H 1048.74 -0.119673 3.72708 0
M  V30 11259 N 1050.93 -1.4397 0.641131 0
M  V30 11260 C 1052.18 -2.01163 0.147026 0
M  V30 11261 C 1052.49 -1.51099 -1.24211 0
M  V30 11262 O 1053.7 -2.00487 -1.83078 0
M  V30 11263 C 1052.15 -3.59275 0.212068 0
M  V30 11264 C 1051.76 -4.18334 1.60314 0
M  V30 11265 C 1053.51 -4.23903 -0.225057 0
M  V30 11266 C 1051.41 -5.68701 1.62276 0
M  V30 11267 H 1050.34 -0.75226 0.051201 0
M  V30 11268 H 1052.99 -1.65075 0.801396 0
M  V30 11269 H 1051.38 -3.92708 -0.509589 0
M  V30 11270 H 1052.55 -3.96422 2.34918 0
M  V30 11271 H 1050.86 -3.66031 1.9852 0
M  V30 11272 H 1053.46 -5.34205 -0.230074 0
M  V30 11273 H 1053.8 -3.96956 -1.25426 0
M  V30 11274 H 1054.34 -3.95309 0.44444 0
M  V30 11275 H 1051.08 -6.00397 2.63066 0
M  V30 11276 H 1050.6 -5.92705 0.919797 0
M  V30 11277 H 1052.28 -6.32521 1.36112 0
M  V30 11278 N 1052.41 -0.382291 -1.52893 0
M  V30 11279 C 1053.34 0.447829 -2.29165 0
M  V30 11280 C 1054.32 1.06956 -1.32267 0
M  V30 11281 O 1055.5 1.08365 -1.61154 0
M  V30 11282 C 1052.63 1.57902 -3.09329 0
M  V30 11283 C 1051.59 1.08369 -4.14053 0
M  V30 11284 C 1050.91 2.30641 -4.82399 0
M  V30 11285 C 1052.21 0.156591 -5.22065 0
M  V30 11286 H 1053.91 -0.188541 -2.98806 0
M  V30 11287 H 1051.45 -0.0921179 -1.43705 0
M  V30 11288 H 1053.41 2.16652 -3.61442 0
M  V30 11289 H 1052.13 2.24287 -2.37409 0
M  V30 11290 H 1050.79 0.518772 -3.62911 0
M  V30 11291 H 1050.44 2.9552 -4.07034 0
M  V30 11292 H 1050.14 1.98163 -5.53177 0
M  V30 11293 H 1051.66 2.90047 -5.37313 0
M  V30 11294 H 1053.08 0.652065 -5.6958 0
M  V30 11295 H 1051.47 -0.0780978 -6.00049 0
M  V30 11296 H 1052.54 -0.796529 -4.78313 0
M  V30 11297 N 1053.89 1.57202 -0.111913 0
M  V30 11298 C 1055.11 1.99723 0.559054 0
M  V30 11299 C 1055.54 0.990968 1.59879 0
M  V30 11300 O 1054.89 -0.038311 1.8126 0
M  V30 11301 C 1054.94 3.41151 1.16826 0
M  V30 11302 O 1054.05 3.43383 2.2839 0
M  V30 11303 H 1053.39 0.649004 0.140319 0
M  V30 11304 H 1055.92 2.03637 -0.198295 0
M  V30 11305 H 1055.93 3.79208 1.50551 0
M  V30 11306 H 1054.6 4.13907 0.406637 0
M  V30 11307 H 1053.18 3.17138 1.96158 0
M  V30 11308 N 1055.36 -0.161842 1.56767 0
M  V30 11309 C 1056.27 -1.21996 2.00385 0
M  V30 11310 C 1057.29 -1.4789 0.916768 0
M  V30 11311 O 1058.47 -1.59852 1.22513 0
M  V30 11312 C 1055.53 -2.53695 2.36305 0
M  V30 11313 C 1054.59 -2.3558 3.58888 0
M  V30 11314 C 1053.82 -3.60998 3.93085 0
M  V30 11315 O 1054.05 -4.6657 3.28129 0
M  V30 11316 O 1052.98 -3.54544 4.86397 0
M  V30 11317 H 1056.81 -0.879701 2.9068 0
M  V30 11318 H 1054.39 -0.369437 1.4476 0
M  V30 11319 H 1056.27 -3.31366 2.60335 0
M  V30 11320 H 1054.95 -2.87281 1.49169 0
M  V30 11321 H 1053.86 -1.55908 3.40064 0
M  V30 11322 H 1055.19 -2.06915 4.46595 0
M  V30 11323 N 1056.84 -1.516 -0.430713 0
M  V30 11324 C 1058.09 -1.6484 -1.18134 0
M  V30 11325 C 1058.42 -0.366725 -1.90706 0
M  V30 11326 O 1057.7 0.63398 -1.83878 0
M  V30 11327 C 1057.98 -2.85617 -2.19306 0
M  V30 11328 C 1057.83 -4.23778 -1.50773 0
M  V30 11329 C 1059.15 -3.01909 -3.20217 0
M  V30 11330 H 1056.27 -0.599907 -0.428113 0
M  V30 11331 H 1058.91 -1.84102 -0.46973 0
M  V30 11332 H 1057.06 -2.69325 -2.79993 0
M  V30 11333 H 1058.73 -4.51752 -0.93371 0
M  V30 11334 H 1056.98 -4.26171 -0.809966 0
M  V30 11335 H 1057.65 -5.04291 -2.24487 0
M  V30 11336 H 1060.12 -3.16956 -2.69589 0
M  V30 11337 H 1059 -3.87968 -3.88293 0
M  V30 11338 H 1059.26 -2.1427 -3.86705 0
M  V30 11339 N 1058.32 0.686584 -1.41858 0
M  V30 11340 C 1059.25 1.81202 -1.40352 0
M  V30 11341 C 1060.26 1.5993 -0.304322 0
M  V30 11342 O 1061.45 1.69267 -0.566643 0
M  V30 11343 C 1058.55 3.18116 -1.16856 0
M  V30 11344 C 1057.73 3.66339 -2.38987 0
M  V30 11345 C 1056.79 4.8195 -2.11212 0
M  V30 11346 O 1055.81 4.93102 -2.84323 0
M  V30 11347 N 1057.01 5.69829 -1.10793 0
M  V30 11348 H 1059.78 1.82983 -2.37355 0
M  V30 11349 H 1057.34 0.869244 -1.36586 0
M  V30 11350 H 1059.33 3.93097 -0.962125 0
M  V30 11351 H 1057.9 3.11306 -0.284186 0
M  V30 11352 H 1057.12 2.82166 -2.75274 0
M  V30 11353 H 1058.41 3.95297 -3.2034 0
M  V30 11354 H 1057.81 5.63459 -0.503012 0
M  V30 11355 H 1056.36 6.44671 -0.961379 0
M  V30 11356 N 1059.8 1.27835 0.921735 0
M  V30 11357 C 1060.73 1.06874 2.02758 0
M  V30 11358 C 1061.74 0.0229418 1.62784 0
M  V30 11359 O 1062.93 0.265145 1.7652 0
M  V30 11360 C 1060.03 0.60037 3.3354 0
M  V30 11361 C 1059.2 1.71979 4.02172 0
M  V30 11362 C 1058.26 1.24615 5.11231 0
M  V30 11363 O 1057.29 1.94692 5.34868 0
M  V30 11364 N 1058.49 0.105021 5.80405 0
M  V30 11365 H 1061.26 2.02105 2.213 0
M  V30 11366 H 1058.82 1.19481 1.09251 0
M  V30 11367 H 1060.81 0.267281 4.03816 0
M  V30 11368 H 1059.38 -0.258872 3.11526 0
M  V30 11369 H 1058.6 2.22287 3.25549 0
M  V30 11370 H 1059.89 2.47092 4.44773 0
M  V30 11371 H 1059.29 -0.479745 5.63662 0
M  V30 11372 H 1057.84 -0.168846 6.51581 0
M  V30 11373 N 1061.28 -1.12907 1.09954 0
M  V30 11374 C 1062.24 -2.16673 0.747364 0
M  V30 11375 C 1063.24 -1.59208 -0.225741 0
M  V30 11376 O 1064.43 -1.742 -0.00322482 0
M  V30 11377 C 1061.56 -3.40735 0.106169 0
M  V30 11378 H 1062.75 -2.49341 1.6664 0
M  V30 11379 H 1060.31 -1.27828 0.899421 0
M  V30 11380 H 1061.04 -3.13661 -0.82384 0
M  V30 11381 H 1060.83 -3.83717 0.806434 0
M  V30 11382 H 1062.32 -4.17414 -0.12464 0
M  V30 11383 N 1062.75 -0.88754 -1.30232 0
M  V30 11384 C 1064 -0.508031 -1.96334 0
M  V30 11385 C 1064.33 0.940905 -1.69884 0
M  V30 11386 O 1063.61 1.66523 -1.005 0
M  V30 11387 C 1063.89 -0.786566 -3.51405 0
M  V30 11388 C 1063.74 -2.28632 -3.8736 0
M  V30 11389 C 1065.06 -0.264803 -4.39303 0
M  V30 11390 H 1062.18 -0.186051 -0.71313 0
M  V30 11391 H 1064.82 -1.112 -1.5406 0
M  V30 11392 H 1062.97 -0.272523 -3.87543 0
M  V30 11393 H 1064.65 -2.86896 -3.61231 0
M  V30 11394 H 1062.89 -2.75194 -3.35337 0
M  V30 11395 H 1063.56 -2.43181 -4.95547 0
M  V30 11396 H 1066.04 -0.704809 -4.10087 0
M  V30 11397 H 1064.91 -0.488998 -5.46717 0
M  V30 11398 H 1065.17 0.834055 -4.34161 0
M  V30 11399 N 1064.23 1.43628 -0.648757 0
M  V30 11400 C 1065.46 2.06732 -0.166284 0
M  V30 11401 C 1065.88 1.48281 1.15734 0
M  V30 11402 O 1065.24 0.591018 1.71396 0
M  V30 11403 C 1065.29 3.60502 -0.0838732 0
M  V30 11404 O 1064.39 4.01186 0.955185 0
M  V30 11405 H 1063.73 0.657479 -0.0928285 0
M  V30 11406 H 1066.26 1.84208 -0.890421 0
M  V30 11407 H 1066.27 4.07875 0.100923 0
M  V30 11408 H 1064.95 4.02424 -1.05014 0
M  V30 11409 H 1063.53 3.65412 0.743537 0
M  V30 11410 N 1065.71 0.390394 1.52688 0
M  V30 11411 C 1066.64 -0.479319 2.24132 0
M  V30 11412 C 1067.66 -1.0258 1.26416 0
M  V30 11413 O 1068.84 -0.927943 1.52484 0
M  V30 11414 C 1065.94 -1.67711 2.94493 0
M  V30 11415 C 1065.12 -1.2578 4.18925 0
M  V30 11416 C 1064.18 -2.3204 4.72275 0
M  V30 11417 O 1063.2 -1.93402 5.35336 0
M  V30 11418 N 1064.4 -3.63967 4.52226 0
M  V30 11419 H 1067.17 0.132777 2.99406 0
M  V30 11420 H 1064.73 0.216807 1.60442 0
M  V30 11421 H 1066.72 -2.38323 3.27084 0
M  V30 11422 H 1065.29 -2.19552 2.22521 0
M  V30 11423 H 1064.51 -0.380528 3.92359 0
M  V30 11424 H 1065.8 -0.954329 4.9977 0
M  V30 11425 H 1065.2 -3.98119 4.01892 0
M  V30 11426 H 1063.76 -4.30611 4.89303 0
M  V30 11427 N 1067.19 -1.57141 0.120249 0
M  V30 11428 C 1068.44 -1.94852 -0.536387 0
M  V30 11429 C 1068.76 -1.00452 -1.67136 0
M  V30 11430 O 1068.03 -0.061053 -1.95805 0
M  V30 11431 H 1066.61 -0.719411 -0.201138 0
M  V30 11432 H 1069.27 -1.93977 0.189482 0
M  V30 11433 H 1068.37 -2.97917 -0.930145 0
M  V30 11434 N 1068.67 0.153526 -1.5685 0
M  V30 11435 C 1069.89 0.886343 -1.87507 0
M  V30 11436 C 1070.32 1.74244 -0.708565 0
M  V30 11437 O 1069.67 1.78045 0.341997 0
M  V30 11438 C 1069.72 1.72428 -3.16703 0
M  V30 11439 O 1068.83 2.82784 -3.00178 0
M  V30 11440 H 1068.17 0.247259 -0.616246 0
M  V30 11441 H 1070.7 0.146306 -2.04076 0
M  V30 11442 H 1070.71 2.12062 -3.4856 0
M  V30 11443 H 1069.38 1.09558 -4.01211 0
M  V30 11444 H 1067.96 2.46604 -2.79716 0
M  V30 11445 N 1070.14 1.51827 0.422667 0
M  V30 11446 C 1071.37 1.69337 1.19748 0
M  V30 11447 C 1071.79 0.396312 1.83878 0
M  V30 11448 O 1071.15 -0.644976 1.6944 0
M  V30 11449 C 1071.2 2.82082 2.24637 0
M  V30 11450 O 1070.3 2.46708 3.30468 0
M  V30 11451 H 1069.65 0.564154 0.35018 0
M  V30 11452 H 1072.18 1.98465 0.497289 0
M  V30 11453 H 1072.19 3.06599 2.69186 0
M  V30 11454 H 1070.86 3.76195 1.77341 0
M  V30 11455 H 1069.44 2.32815 2.91293 0
M  V30 11456 N 1071.62 -0.679052 1.4222 0
M  V30 11457 C 1072.9 -1.43473 1.32947 0
M  V30 11458 C 1073.28 -2.11071 -0.0351689 0
M  V30 11459 O 1072.63 -2.02925 -1.05042 0
M  V30 11460 C 1072.84 -2.44065 2.49466 0
M  V30 11461 C 1074.19 -3.08834 2.91387 0
M  V30 11462 O 1075.21 -2.54392 2.49325 0
M  V30 11463 O 1074.07 -4.07478 3.64175 0
M  V30 11464 H 1071.16 -0.639743 0.524078 0
M  V30 11465 H 1073.71 -0.708134 1.54219 0
M  V30 11466 H 1072.48 -1.92884 3.40457 0
M  V30 11467 H 1072.1 -3.24212 2.30158 0
M  V30 11468 N 1073.1 -1.28322 -0.914942 0
M  V30 11469 C 1074.33 -1.1837 -1.70304 0
M  V30 11470 C 1074.75 0.254291 -1.86373 0
M  V30 11471 O 1074.11 1.18398 -1.37301 0
M  V30 11472 C 1074.16 -1.88603 -3.07346 0
M  V30 11473 O 1073.26 -1.19268 -3.94777 0
M  V30 11474 H 1072.6 -0.410978 -0.52153 0
M  V30 11475 H 1075.13 -1.69622 -1.14409 0
M  V30 11476 H 1075.14 -1.96463 -3.57584 0
M  V30 11477 H 1073.82 -2.93201 -2.94967 0
M  V30 11478 H 1072.39 -1.19563 -3.53212 0
M  V30 11479 N 1074.58 1.12322 -1.10551 0
M  V30 11480 C 1075.51 2.17819 -0.713263 0
M  V30 11481 C 1076.52 1.6086 0.250604 0
M  V30 11482 O 1077.71 1.78466 0.0348909 0
M  V30 11483 C 1074.81 3.38885 -0.0320325 0
M  V30 11484 C 1073.99 4.25332 -1.02038 0
M  V30 11485 C 1073.04 5.24895 -0.370412 0
M  V30 11486 O 1072.07 5.59958 -1.02157 0
M  V30 11487 N 1073.27 5.73934 0.870633 0
M  V30 11488 H 1076.04 2.52083 -1.62094 0
M  V30 11489 H 1073.6 1.27755 -0.994492 0
M  V30 11490 H 1075.59 4.02574 0.414285 0
M  V30 11491 H 1074.16 3.02762 0.778072 0
M  V30 11492 H 1073.38 3.5824 -1.64492 0
M  V30 11493 H 1074.67 4.79936 -1.68936 0
M  V30 11494 H 1074.07 5.47614 1.419 0
M  V30 11495 H 1072.62 6.39504 1.26008 0
M  V30 11496 N 1076.06 0.894434 1.2976 0
M  V30 11497 C 1077.31 0.513673 1.95049 0
M  V30 11498 C 1077.62 -0.943744 1.71327 0
M  V30 11499 O 1078.82 -1.43179 2.30678 0
M  V30 11500 C 1077.28 0.867751 3.49282 0
M  V30 11501 C 1076.89 2.34358 3.81812 0
M  V30 11502 C 1078.63 0.556645 4.20835 0
M  V30 11503 C 1076.54 2.63879 5.29265 0
M  V30 11504 H 1075.47 0.188375 0.73009 0
M  V30 11505 H 1078.12 1.09071 1.47566 0
M  V30 11506 H 1076.5 0.2197 3.9539 0
M  V30 11507 H 1077.68 3.03674 3.46581 0
M  V30 11508 H 1075.99 2.62318 3.23386 0
M  V30 11509 H 1078.59 0.754123 5.29355 0
M  V30 11510 H 1078.93 -0.504526 4.13231 0
M  V30 11511 H 1079.46 1.1623 3.80441 0
M  V30 11512 H 1076.2 3.68774 5.41928 0
M  V30 11513 H 1075.72 1.99182 5.65762 0
M  V30 11514 H 1077.4 2.49871 5.96803 0
M  V30 11515 N 1077.53 -1.43282 0.656365 0
M  V30 11516 C 1078.46 -2.33492 -0.0196962 0
M  V30 11517 C 1079.45 -1.49647 -0.80868 0
M  V30 11518 O 1080.63 -1.78303 -0.769529 0
M  V30 11519 C 1077.76 -3.33052 -0.984574 0
M  V30 11520 C 1076.71 -4.26908 -0.305483 0
M  V30 11521 C 1076.04 -5.16531 -1.38202 0
M  V30 11522 C 1077.34 -5.16073 0.804081 0
M  V30 11523 H 1079.03 -2.90272 0.733661 0
M  V30 11524 H 1076.58 -1.39574 0.354259 0
M  V30 11525 H 1078.53 -3.9506 -1.46647 0
M  V30 11526 H 1077.26 -2.74535 -1.76913 0
M  V30 11527 H 1075.92 -3.66268 0.155995 0
M  V30 11528 H 1075.56 -4.54351 -2.1581 0
M  V30 11529 H 1075.26 -5.80148 -0.932878 0
M  V30 11530 H 1076.79 -5.81414 -1.86522 0
M  V30 11531 H 1078.2 -5.71873 0.404212 0
M  V30 11532 H 1076.6 -5.88427 1.17789 0
M  V30 11533 H 1077.67 -4.55574 1.66073 0
M  V30 11534 N 1079.01 -0.398486 -1.52479 0
M  V30 11535 C 1080.29 0.238776 -1.94137 0
M  V30 11536 C 1080.67 1.63558 -1.33462 0
M  V30 11537 O 1080.02 2.22821 -0.506272 0
M  V30 11538 C 1080.23 0.255863 -3.48061 0
M  V30 11539 C 1081.58 0.480376 -4.21874 0
M  V30 11540 O 1082.6 0.335679 -3.54615 0
M  V30 11541 O 1081.46 0.764654 -5.41124 0
M  V30 11542 H 1078.55 0.150806 -0.813134 0
M  V30 11543 H 1081.1 -0.453659 -1.63524 0
M  V30 11544 H 1079.87 -0.722171 -3.84578 0
M  V30 11545 H 1079.49 0.99284 -3.85004 0
M  V30 11546 N 1080.49 1.57075 -0.12858 0
M  V30 11547 C 1081.42 2.18833 0.814519 0
M  V30 11548 C 1082.4 1.13114 1.2704 0
M  V30 11549 O 1083.59 1.41387 1.33129 0
M  V30 11550 C 1080.72 2.79535 2.06101 0
M  V30 11551 C 1079.67 3.9092 1.74257 0
M  V30 11552 C 1079 4.38473 3.06015 0
M  V30 11553 C 1080.3 5.1257 1.00345 0
M  V30 11554 H 1081.99 2.97895 0.299862 0
M  V30 11555 H 1079.54 1.4329 0.14279 0
M  V30 11556 H 1081.49 3.21401 2.72543 0
M  V30 11557 H 1080.21 1.97777 2.59907 0
M  V30 11558 H 1078.87 3.49645 1.102 0
M  V30 11559 H 1078.52 3.53561 3.57776 0
M  V30 11560 H 1078.22 5.13591 2.85479 0
M  V30 11561 H 1079.75 4.82997 3.7356 0
M  V30 11562 H 1081.16 5.51395 1.56959 0
M  V30 11563 H 1079.56 5.93333 0.898693 0
M  V30 11564 H 1080.63 4.84899 -0.0081335 0
M  V30 11565 N 1081.97 -0.145205 1.5693 0
M  V30 11566 C 1083.19 -0.876386 1.87974 0
M  V30 11567 C 1083.62 -1.73866 0.717795 0
M  V30 11568 O 1082.98 -1.78224 -0.332551 0
M  V30 11569 C 1083.03 -1.70746 3.17613 0
M  V30 11570 O 1082.13 -2.81188 3.01674 0
M  V30 11571 H 1081.47 -0.243987 0.617549 0
M  V30 11572 H 1084 -0.135482 2.04151 0
M  V30 11573 H 1084.01 -2.1021 3.49679 0
M  V30 11574 H 1082.69 -1.07429 4.01786 0
M  V30 11575 H 1081.26 -2.45117 2.81019 0
M  V30 11576 N 1083.45 -1.52049 -0.414609 0
M  V30 11577 C 1084.4 -1.75603 -1.52533 0
M  V30 11578 C 1085.39 -0.622965 -1.57529 0
M  V30 11579 O 1086.6 -0.804886 -1.61002 0
M  V30 11580 H 1082.97 -0.555222 -0.507181 0
M  V30 11581 H 1084.94 -2.68666 -1.2985 0
M  V30 11582 C 1083.69 -1.9188 -2.89961 0
M  V30 11583 H 1083.01 -2.78483 -2.86857 0
M  V30 11584 H 1084.45 -2.12363 -3.66985 0
M  V30 11585 C 1082.91 -0.684453 -3.29874 0
M  V30 11586 O 1083.44 0.150256 -4.01419 0
M  V30 11587 N 1081.65 -0.521936 -2.85874 0
M  V30 11588 H 1081.2 -1.20229 -2.27822 0
M  V30 11589 H 1081.15 0.302655 -3.1294 0
M  V30 11590 N 1084.93 0.6715 -1.42579 0
M  V30 11591 C 1086.34 0.985019 -1.25577 0
M  V30 11592 C 1086.54 2.00845 -0.162319 0
M  V30 11593 O 1085.6 2.48175 0.465352 0
M  V30 11594 C 1086.91 1.48668 -2.61377 0
M  V30 11595 C 1088.46 1.60429 -2.68759 0
M  V30 11596 C 1088.93 2.13991 -4.04935 0
M  V30 11597 N 1090.42 2.21319 -4.06906 0
M  V30 11598 C 1091.16 2.63845 -5.09091 0
M  V30 11599 N 1090.66 3.05799 -6.21658 0
M  V30 11600 N 1092.45 2.63623 -4.96447 0
M  V30 11601 H 1084.6 -0.00604561 -2.12399 0
M  V30 11602 H 1086.86 0.0598299 -0.94611 0
M  V30 11603 H 1086.57 0.80917 -3.42265 0
M  V30 11604 H 1086.44 2.46487 -2.85524 0
M  V30 11605 H 1088.83 2.27286 -1.88216 0
M  V30 11606 H 1088.91 0.610909 -2.48398 0
M  V30 11607 H 1088.55 1.47741 -4.85937 0
M  V30 11608 H 1088.48 3.14126 -4.2265 0
M  V30 11609 H 1090.98 1.91743 -3.25643 0
M  V30 11610 H 1091.29 3.36944 -6.95477 0
M  V30 11611 H 1089.63 3.03648 -6.25158 0
M  V30 11612 H 1092.82 2.30211 -4.07579 0
M  V30 11613 H 1093 2.96444 -5.76216 0
M  V30 11614 N 1086.4 1.28806 0.908124 0
M  V30 11615 C 1087.65 1.16287 1.65781 0
M  V30 11616 C 1087.98 -0.287389 1.92365 0
M  V30 11617 O 1087.23 -1.22491 1.52625 0
M  V30 11618 C 1087.53 1.91267 3.01914 0
M  V30 11619 C 1087.2 3.41033 2.9497 0
M  V30 11620 C 1085.86 3.81879 2.92783 0
M  V30 11621 C 1088.21 4.36507 2.848 0
M  V30 11622 C 1085.54 5.16529 2.78235 0
M  V30 11623 C 1087.89 5.71237 2.71792 0
M  V30 11624 C 1086.56 6.11351 2.67967 0
M  V30 11625 H 1085.83 0.425526 0.606637 0
M  V30 11626 H 1088.47 1.59646 1.05762 0
M  V30 11627 H 1086.78 1.40474 3.65752 0
M  V30 11628 H 1088.48 1.78992 3.58835 0
M  V30 11629 H 1085.07 3.08561 2.97469 0
M  V30 11630 H 1089.25 4.05909 2.85573 0
M  V30 11631 H 1084.51 5.4673 2.73672 0
M  V30 11632 H 1088.68 6.44872 2.62892 0
M  V30 11633 H 1086.31 7.15637 2.56451 0
M  V30 11634 N 1087.88 -1.11734 1.11145 0
M  V30 11635 C 1089.11 -1.86943 0.879534 0
M  V30 11636 C 1089.52 -1.80283 -0.574007 0
M  V30 11637 O 1088.86 -1.17998 -1.40791 0
M  V30 11638 C 1088.92 -3.36738 1.25887 0
M  V30 11639 C 1088.59 -3.67169 2.72095 0
M  V30 11640 C 1089.59 -3.6491 3.7032 0
M  V30 11641 C 1087.27 -3.96272 3.08665 0
M  V30 11642 C 1089.26 -3.91325 5.03134 0
M  V30 11643 C 1086.95 -4.22345 4.41665 0
M  V30 11644 C 1087.95 -4.19859 5.38709 0
M  V30 11645 O 1087.64 -4.4528 6.69314 0
M  V30 11646 H 1087.37 -0.598117 0.315011 0
M  V30 11647 H 1089.92 -1.42253 1.48166 0
M  V30 11648 H 1088.15 -3.82019 0.599873 0
M  V30 11649 H 1089.84 -3.93306 1.00325 0
M  V30 11650 H 1090.61 -3.42481 3.43412 0
M  V30 11651 H 1086.49 -3.97344 2.33749 0
M  V30 11652 H 1090.03 -3.893 5.78871 0
M  V30 11653 H 1085.93 -4.4425 4.68308 0
M  V30 11654 H 1086.7 -4.62863 6.75056 0
M  V30 11655 N 1089.36 -0.901303 -1.29284 0
M  V30 11656 C 1090.59 -0.543511 -1.99634 0
M  V30 11657 C 1091 0.872154 -1.67448 0
M  V30 11658 O 1090.36 1.57591 -0.920406 0
M  V30 11659 C 1090.41 -0.728148 -3.54091 0
M  V30 11660 O 1090.13 -2.08809 -3.85137 0
M  V30 11661 C 1091.63 -0.375519 -4.41707 0
M  V30 11662 H 1088.85 -0.208405 -0.637815 0
M  V30 11663 H 1091.4 -1.21109 -1.64781 0
M  V30 11664 H 1089.55 -0.107728 -3.8725 0
M  V30 11665 H 1089.97 -2.11863 -4.79807 0
M  V30 11666 H 1091.44 -0.555538 -5.49197 0
M  V30 11667 H 1091.92 0.687532 -4.33785 0
M  V30 11668 H 1092.52 -0.972949 -4.14021 0
M  V30 11669 N 1090.84 1.42931 -0.663954 0
M  V30 11670 C 1091.77 2.33499 0.00731327 0
M  V30 11671 C 1092.75 1.50074 0.800733 0
M  V30 11672 O 1093.93 1.78708 0.760062 0
M  V30 11673 C 1091.06 3.33569 0.966897 0
M  V30 11674 C 1090.02 4.27064 0.282839 0
M  V30 11675 C 1089.34 5.17257 1.35461 0
M  V30 11676 C 1090.64 5.1564 -0.831438 0
M  V30 11677 H 1092.34 2.89879 -0.749044 0
M  V30 11678 H 1089.88 1.39385 -0.361656 0
M  V30 11679 H 1091.84 3.95833 1.44549 0
M  V30 11680 H 1090.56 2.75469 1.75455 0
M  V30 11681 H 1089.22 3.6618 -0.175417 0
M  V30 11682 H 1088.87 4.5549 2.13397 0
M  V30 11683 H 1088.57 5.80634 0.902098 0
M  V30 11684 H 1090.09 5.82395 1.83436 0
M  V30 11685 H 1091.51 5.71651 -0.434534 0
M  V30 11686 H 1089.9 5.87794 -1.20908 0
M  V30 11687 H 1090.97 4.54687 -1.68487 0
M  V30 11688 N 1092.32 0.406567 1.52266 0
M  V30 11689 C 1093.56 -0.171391 2.00971 0
M  V30 11690 C 1093.88 -1.46443 1.29668 0
M  V30 11691 O 1095.08 -2.12348 1.69176 0
M  V30 11692 C 1093.54 -0.35599 3.58135 0
M  V30 11693 C 1093.15 0.924803 4.38351 0
M  V30 11694 C 1094.89 -0.889378 4.15079 0
M  V30 11695 C 1092.8 0.707534 5.87152 0
M  V30 11696 H 1091.73 -0.0678253 0.750943 0
M  V30 11697 H 1094.38 0.531619 1.7563 0
M  V30 11698 H 1092.76 -1.12127 3.79794 0
M  V30 11699 H 1093.94 1.69603 4.28452 0
M  V30 11700 H 1092.25 1.38442 3.92712 0
M  V30 11701 H 1094.85 -1.06792 5.23927 0
M  V30 11702 H 1095.19 -1.86334 3.7227 0
M  V30 11703 H 1095.72 -0.183224 3.97378 0
M  V30 11704 H 1092.46 1.65299 6.34316 0
M  V30 11705 H 1091.98 -0.024446 5.99795 0
M  V30 11706 H 1093.66 0.348721 6.4606 0
M  V30 11707 N 1093.79 -1.57004 0.136909 0
M  V30 11708 C 1095.21 -1.82675 -0.385577 0
M  V30 11709 C 1095.56 -1.05508 -1.65416 0
M  V30 11710 O 1094.68 -0.297207 -2.14349 0
M  V30 11711 C 1095.28 -3.31356 -0.706326 0
M  V30 11712 C 1093.84 -3.57644 -1.17337 0
M  V30 11713 C 1092.98 -2.7664 -0.191239 0
M  V30 11714 H 1095.93 -1.54522 0.36177 0
M  V30 11715 H 1095.95 -3.4696 -1.56201 0
M  V30 11716 H 1095.47 -3.87492 0.217147 0
M  V30 11717 H 1093.57 -3.06883 -2.11313 0
M  V30 11718 H 1093.68 -4.66152 -1.10632 0
M  V30 11719 H 1092.04 -2.45403 -0.681867 0
M  V30 11720 H 1092.83 -3.35543 0.725647 0
M  V30 11721 N 1095.27 0.136881 -1.57004 0
M  V30 11722 C 1096.22 1.17411 -1.95445 0
M  V30 11723 C 1097.21 1.38019 -0.827015 0
M  V30 11724 O 1098.4 1.39412 -1.09057 0
M  V30 11725 C 1095.53 2.50525 -2.34717 0
M  V30 11726 C 1094.61 2.33467 -3.54054 0
M  V30 11727 N 1095 1.86184 -4.70286 0
M  V30 11728 C 1093.3 2.64185 -3.59336 0
M  V30 11729 C 1094 1.82411 -5.5236 0
M  V30 11730 N 1092.98 2.26098 -4.94349 0
M  V30 11731 H 1096.78 0.8008 -2.8278 0
M  V30 11732 H 1094.3 0.344831 -1.58697 0
M  V30 11733 H 1096.29 3.2552 -2.60465 0
M  V30 11734 H 1094.95 2.8863 -1.48738 0
M  V30 11735 H 1095.96 1.55998 -4.93847 0
M  V30 11736 H 1092.64 3.06096 -2.83922 0
M  V30 11737 H 1094.03 1.4726 -6.55564 0
M  V30 11738 N 1096.75 1.52266 0.40654 0
M  V30 11739 C 1098.03 1.57018 1.1664 0
M  V30 11740 C 1098.41 0.352752 2.08132 0
M  V30 11741 O 1097.76 -0.660208 2.18754 0
M  V30 11742 C 1097.97 2.90016 1.94143 0
M  V30 11743 C 1099.31 3.43112 2.50119 0
M  V30 11744 O 1100.34 2.91773 2.0432 0
M  V30 11745 O 1099.2 4.32765 3.33731 0
M  V30 11746 H 1096.29 0.632574 0.532709 0
M  V30 11747 H 1098.84 1.64595 0.413111 0
M  V30 11748 H 1097.61 3.70071 1.27134 0
M  V30 11749 H 1097.23 2.85744 2.76471 0
M  V30 11750 N 1098.23 -0.663929 1.42933 0
M  V30 11751 C 1099.48 -1.42393 1.43981 0
M  V30 11752 C 1099.8 -1.94407 0.0601802 0
M  V30 11753 O 1099.06 -1.72019 -0.933172 0
M  V30 11754 C 1099.36 -2.62976 2.4203 0
M  V30 11755 C 1099.02 -2.29441 3.88159 0
M  V30 11756 C 1097.69 -2.20007 4.27961 0
M  V30 11757 C 1100.04 -2.02413 4.8029 0
M  V30 11758 C 1097.37 -1.81686 5.57859 0
M  V30 11759 C 1099.72 -1.65592 6.10542 0
M  V30 11760 C 1098.38 -1.54676 6.49332 0
M  V30 11761 H 1097.65 -0.521051 0.526865 0
M  V30 11762 H 1100.3 -0.756042 1.75944 0
M  V30 11763 H 1098.6 -3.34847 2.03433 0
M  V30 11764 H 1100.3 -3.21174 2.40101 0
M  V30 11765 H 1096.89 -2.3769 3.56653 0
M  V30 11766 H 1101.07 -2.08628 4.5032 0
M  V30 11767 H 1096.33 -1.71812 5.86763 0
M  V30 11768 H 1100.5 -1.43707 6.81411 0
M  V30 11769 H 1098.13 -1.24752 7.49894 0
M  V30 11770 N 1099.71 -1.29285 -0.901281 0
M  V30 11771 C 1100.95 -1.16934 -1.64836 0
M  V30 11772 C 1101.28 0.279826 -1.92982 0
M  V30 11773 O 1100.55 1.19179 -1.55478 0
M  V30 11774 H 1099.13 -0.429768 -0.61099 0
M  V30 11775 H 1101.79 -1.62189 -1.08077 0
M  V30 11776 H 1100.88 -1.71821 -2.60545 0
M  V30 11777 N 1101.18 1.11143 -1.11736 0
M  V30 11778 C 1102.12 2.16467 -0.722299 0
M  V30 11779 C 1103.1 1.60118 0.283006 0
M  V30 11780 O 1104.28 1.87651 0.178696 0
M  V30 11781 C 1101.41 3.38632 -0.0679339 0
M  V30 11782 C 1100.45 4.13654 -1.03888 0
M  V30 11783 S 1101.29 4.70187 -2.5629 0
M  V30 11784 C 1102.44 5.95671 -1.92163 0
M  V30 11785 H 1102.67 2.49644 -1.61447 0
M  V30 11786 H 1100.21 1.22816 -0.935708 0
M  V30 11787 H 1102.17 4.09378 0.303253 0
M  V30 11788 H 1100.83 3.03709 0.80124 0
M  V30 11789 H 1100.02 5.01221 -0.528522 0
M  V30 11790 H 1099.62 3.48683 -1.35265 0
M  V30 11791 H 1101.91 6.65681 -1.25994 0
M  V30 11792 H 1102.86 6.51357 -2.77741 0
M  V30 11793 H 1103.26 5.47359 -1.3805 0
M  V30 11794 N 1102.66 0.908147 1.28804 0
M  V30 11795 C 1103.61 0.390734 2.27468 0
M  V30 11796 C 1104.58 -0.531765 1.57358 0
M  V30 11797 O 1105.76 -0.455177 1.85291 0
M  V30 11798 C 1102.9 -0.368159 3.43131 0
M  V30 11799 C 1102.02 0.586202 4.28004 0
M  V30 11800 C 1101.15 -0.190581 5.30858 0
M  V30 11801 C 1100.19 0.757758 6.07391 0
M  V30 11802 N 1099.33 0.0148488 7.02098 0
M  V30 11803 H 1104.17 1.23717 2.71105 0
M  V30 11804 H 1101.71 0.621382 1.33331 0
M  V30 11805 H 1103.66 -0.824289 4.08976 0
M  V30 11806 H 1102.29 -1.17898 3.00499 0
M  V30 11807 H 1101.35 1.16086 3.62254 0
M  V30 11808 H 1102.66 1.31177 4.81242 0
M  V30 11809 H 1101.81 -0.707528 6.0256 0
M  V30 11810 H 1100.55 -0.949234 4.78373 0
M  V30 11811 H 1099.56 1.28613 5.34545 0
M  V30 11812 H 1100.78 1.51588 6.61965 0
M  V30 11813 H 1098.73 -0.725916 6.51971 0
M  V30 11814 H 1098.64 0.680347 7.52932 0
M  V30 11815 H 1099.91 -0.482086 7.78008 0
M  V30 11816 N 1104.14 -1.42577 0.671525 0
M  V30 11817 C 1105.09 -2.30798 -0.00883676 0
M  V30 11818 C 1106.06 -1.4578 -0.796076 0
M  V30 11819 O 1107.24 -1.74617 -0.768987 0
M  V30 11820 C 1104.38 -3.31581 -0.956452 0
M  V30 11821 C 1103.5 -4.31691 -0.163381 0
M  V30 11822 C 1102.63 -5.19549 -1.10645 0
M  V30 11823 C 1101.67 -6.1134 -0.304876 0
M  V30 11824 N 1100.81 -6.91761 -1.20048 0
M  V30 11825 H 1105.65 -2.88426 0.749301 0
M  V30 11826 H 1103.18 -1.42074 0.381251 0
M  V30 11827 H 1105.14 -3.88539 -1.51966 0
M  V30 11828 H 1103.77 -2.75561 -1.68126 0
M  V30 11829 H 1102.82 -3.76879 0.516396 0
M  V30 11830 H 1104.14 -4.96683 0.459099 0
M  V30 11831 H 1103.29 -5.81223 -1.73969 0
M  V30 11832 H 1102.03 -4.54726 -1.76282 0
M  V30 11833 H 1101.03 -5.48738 0.341597 0
M  V30 11834 H 1102.26 -6.78211 0.347352 0
M  V30 11835 H 1100.2 -6.2957 -1.84331 0
M  V30 11836 H 1100.12 -7.53345 -0.633003 0
M  V30 11837 H 1101.39 -7.57924 -1.82129 0
M  V30 11838 N 1105.62 -0.414636 -1.52048 0
M  V30 11839 C 1107.03 0.0537107 -1.86623 0
M  V30 11840 C 1107.38 1.43955 -1.3331 0
M  V30 11841 O 1106.51 2.05616 -0.674606 0
M  V30 11842 C 1107.1 0.104241 -3.3864 0
M  V30 11843 C 1105.66 0.516936 -3.72833 0
M  V30 11844 C 1104.81 -0.305042 -2.75617 0
M  V30 11845 H 1107.76 -0.631469 -1.45596 0
M  V30 11846 H 1107.78 0.918395 -3.6925 0
M  V30 11847 H 1107.29 -0.904523 -3.77412 0
M  V30 11848 H 1105.39 1.53214 -3.39641 0
M  V30 11849 H 1105.5 0.2575 -4.78408 0
M  V30 11850 H 1103.87 0.233416 -2.53628 0
M  V30 11851 H 1104.65 -1.31226 -3.1723 0
M  V30 11852 N 1107.1 1.56929 -0.145233 0
M  V30 11853 C 1108.51 1.82877 0.375884 0
M  V30 11854 C 1108.86 1.06384 1.64854 0
M  V30 11855 O 1107.98 0.30857 2.14189 0
M  V30 11856 C 1108.58 3.31725 0.688744 0
M  V30 11857 C 1107.14 3.58261 1.15439 0
M  V30 11858 C 1106.28 2.76737 0.176565 0
M  V30 11859 H 1109.24 1.54328 -0.36996 0
M  V30 11860 H 1109.26 3.47784 1.54359 0
M  V30 11861 H 1108.77 3.87371 -0.237694 0
M  V30 11862 H 1106.87 3.08 2.09683 0
M  V30 11863 H 1106.98 4.66732 1.08158 0
M  V30 11864 H 1105.35 2.45761 0.668843 0
M  V30 11865 H 1106.13 3.35154 -0.743432 0
M  V30 11866 N 1108.58 -0.128553 1.57075 0
M  V30 11867 C 1109.51 -1.15953 2.02675 0
M  V30 11868 C 1110.49 -1.43743 0.909501 0
M  V30 11869 O 1111.67 -1.54348 1.17857 0
M  V30 11870 C 1108.8 -2.48813 2.423 0
M  V30 11871 C 1107.76 -2.35506 3.57381 0
M  V30 11872 C 1107.08 -3.73243 3.82875 0
M  V30 11873 C 1108.38 -1.82359 4.89431 0
M  V30 11874 H 1110.08 -0.780283 2.89054 0
M  V30 11875 H 1107.62 -0.373896 1.39061 0
M  V30 11876 H 1109.57 -3.21179 2.72804 0
M  V30 11877 H 1108.3 -2.88609 1.52881 0
M  V30 11878 H 1106.96 -1.6559 3.27071 0
M  V30 11879 H 1106.61 -4.10507 2.90677 0
M  V30 11880 H 1106.31 -3.65195 4.60333 0
M  V30 11881 H 1107.83 -4.47128 4.15823 0
M  V30 11882 H 1109.24 -2.44533 5.18533 0
M  V30 11883 H 1107.64 -1.85156 5.70822 0
M  V30 11884 H 1108.71 -0.780478 4.78578 0
M  V30 11885 N 1110.05 -1.5248 -0.398459 0
M  V30 11886 C 1110.98 -1.79549 -1.49279 0
M  V30 11887 C 1111.96 -0.647004 -1.57315 0
M  V30 11888 O 1113.15 -0.893661 -1.72416 0
M  V30 11889 C 1110.28 -1.95582 -2.86993 0
M  V30 11890 C 1109.23 -3.1123 -2.93803 0
M  V30 11891 C 1108.56 -3.12501 -4.33874 0
M  V30 11892 C 1109.86 -4.50485 -2.64312 0
M  V30 11893 H 1111.55 -2.71187 -1.26877 0
M  V30 11894 H 1109.1 -1.30492 -0.608924 0
M  V30 11895 H 1111.05 -2.13102 -3.63546 0
M  V30 11896 H 1109.78 -1.00625 -3.10712 0
M  V30 11897 H 1108.44 -2.93477 -2.19697 0
M  V30 11898 H 1108.08 -2.15245 -4.54619 0
M  V30 11899 H 1107.78 -3.90183 -4.39353 0
M  V30 11900 H 1109.31 -3.32164 -5.12347 0
M  V30 11901 H 1110.72 -4.68387 -3.30585 0
M  V30 11902 H 1109.12 -5.30163 -2.81153 0
M  V30 11903 H 1110.19 -4.57848 -1.59696 0
M  V30 11904 N 1111.53 0.65634 -1.43283 0
M  V30 11905 C 1112.48 1.79058 -1.48462 0
M  V30 11906 C 1113.47 1.65563 -0.358512 0
M  V30 11907 O 1114.68 1.71947 -0.532365 0
M  V30 11908 H 1111.05 0.590716 -0.465358 0
M  V30 11909 H 1113.03 1.7181 -2.43975 0
M  V30 11910 C 1111.77 3.17304 -1.42175 0
M  V30 11911 H 1111.1 3.28324 -2.2813 0
M  V30 11912 H 1112.54 3.96633 -1.4986 0
M  V30 11913 C 1111 3.36613 -0.138929 0
M  V30 11914 O 1111.53 3.93633 0.80101 0
M  V30 11915 N 1109.73 2.90557 -0.0501237 0
M  V30 11916 H 1109.28 2.4434 -0.815821 0
M  V30 11917 H 1109.24 3.03853 0.807504 0
M  V30 11918 N 1113.01 1.29761 0.894412 0
M  V30 11919 C 1113.96 1.15232 2.0205 0
M  V30 11920 C 1114.95 0.0665664 1.69269 0
M  V30 11921 O 1116.16 0.226746 1.78566 0
M  V30 11922 H 1112.53 0.356102 0.662341 0
M  V30 11923 H 1114.5 2.10559 2.11442 0
M  V30 11924 C 1113.25 0.851143 3.37121 0
M  V30 11925 H 1112.58 1.67865 3.62852 0
M  V30 11926 H 1114.02 0.78954 4.16584 0
M  V30 11927 C 1112.47 -0.445737 3.33938 0
M  V30 11928 O 1113 -1.47017 3.7383 0
M  V30 11929 N 1111.21 -0.453493 2.8704 0
M  V30 11930 H 1110.76 0.380636 2.54772 0
M  V30 11931 H 1110.72 -1.32119 2.85293 0
M  V30 11932 N 1114.49 -1.10549 1.12324 0
M  V30 11933 C 1115.45 -2.15039 0.793156 0
M  V30 11934 C 1116.45 -1.59651 -0.19192 0
M  V30 11935 O 1117.64 -1.74167 0.0337262 0
M  V30 11936 C 1114.77 -3.40433 0.17842 0
M  V30 11937 H 1115.97 -2.4575 1.71892 0
M  V30 11938 H 1113.52 -1.25892 0.926333 0
M  V30 11939 H 1114.25 -3.15338 -0.757122 0
M  V30 11940 H 1114.04 -3.81921 0.887645 0
M  V30 11941 H 1115.53 -4.17584 -0.0360724 0
M  V30 11942 N 1115.97 -0.914965 -1.28321 0
M  V30 11943 C 1117.24 -0.46764 -1.89928 0
M  V30 11944 C 1117.62 1.05364 -1.82925 0
M  V30 11945 O 1116.97 1.90223 -1.26599 0
M  V30 11946 C 1117.18 -0.999372 -3.34385 0
M  V30 11947 C 1118.53 -1.0522 -4.11356 0
M  V30 11948 O 1119.55 -0.9481 -3.4335 0
M  V30 11949 O 1118.41 -1.21085 -5.32917 0
M  V30 11950 H 1115.51 -0.148398 -0.813577 0
M  V30 11951 H 1118.05 -1.00583 -1.36679 0
M  V30 11952 H 1116.82 -2.04333 -3.33712 0
M  V30 11953 H 1116.45 -0.442083 -3.95135 0
M  V30 11954 N 1117.44 1.42219 -0.679077 0
M  V30 11955 C 1118.67 2.06333 -0.210097 0
M  V30 11956 C 1119.09 1.50703 1.12562 0
M  V30 11957 O 1118.45 0.627241 1.70104 0
M  V30 11958 C 1118.5 3.60243 -0.160322 0
M  V30 11959 O 1117.6 4.03122 0.869872 0
M  V30 11960 H 1116.94 0.655362 -0.106754 0
M  V30 11961 H 1119.47 1.82278 -0.929294 0
M  V30 11962 H 1119.48 4.07997 0.014384 0
M  V30 11963 H 1118.16 4.00106 -1.13526 0
M  V30 11964 H 1116.74 3.66907 0.66586 0
M  V30 11965 N 1118.92 0.422693 1.51826 0
M  V30 11966 C 1120.17 -0.148861 2.02253 0
M  V30 11967 C 1120.5 -1.43629 1.30707 0
M  V30 11968 O 1119.78 -1.89967 0.417482 0
M  V30 11969 C 1120.06 -0.382672 3.58061 0
M  V30 11970 C 1119.91 0.922386 4.40241 0
M  V30 11971 C 1121.23 -1.1589 4.24567 0
M  V30 11972 H 1118.35 -0.0526279 0.735119 0
M  V30 11973 H 1120.99 0.558821 1.81596 0
M  V30 11974 H 1119.14 -0.985495 3.75793 0
M  V30 11975 H 1120.81 1.55806 4.34191 0
M  V30 11976 H 1119.06 1.53032 4.05911 0
M  V30 11977 H 1119.73 0.713012 5.47376 0
M  V30 11978 H 1122.2 -0.648415 4.11017 0
M  V30 11979 H 1121.08 -1.29125 5.33496 0
M  V30 11980 H 1121.34 -2.18315 3.84436 0
M  V30 11981 N 1120.4 -1.5685 0.153553 0
M  V30 11982 C 1121.33 -2.14231 -0.814729 0
M  V30 11983 C 1122.34 -1.09339 -1.20619 0
M  V30 11984 O 1123.53 -1.36592 -1.14913 0
M  V30 11985 C 1120.63 -2.6555 -2.10562 0
M  V30 11986 C 1119.81 -3.94912 -1.8805 0
M  V30 11987 C 1118.87 -4.31476 -3.0119 0
M  V30 11988 O 1117.89 -4.9968 -2.72596 0
M  V30 11989 N 1119.09 -3.91588 -4.28531 0
M  V30 11990 H 1121.86 -2.9794 -0.324277 0
M  V30 11991 H 1119.42 -1.61873 -0.0298087 0
M  V30 11992 H 1121.41 -2.87019 -2.85311 0
M  V30 11993 H 1119.98 -1.86529 -2.5085 0
M  V30 11994 H 1119.2 -3.82002 -0.973024 0
M  V30 11995 H 1120.49 -4.79433 -1.70356 0
M  V30 11996 H 1119.89 -3.36645 -4.54628 0
M  V30 11997 H 1118.44 -4.18095 -5.00039 0
M  V30 11998 N 1121.88 0.120221 -1.57141 0
M  V30 11999 C 1122.84 1.13159 -1.99318 0
M  V30 12000 C 1123.84 1.34376 -0.883158 0
M  V30 12001 O 1125.03 1.30914 -1.14922 0
M  V30 12002 C 1122.16 2.48632 -2.33227 0
M  V30 12003 H 1123.36 0.769119 -2.8987 0
M  V30 12004 H 1120.91 0.364475 -1.51991 0
M  V30 12005 H 1121.64 2.89802 -1.45551 0
M  V30 12006 H 1121.43 2.34587 -3.14184 0
M  V30 12007 H 1122.92 3.21423 -2.66603 0
M  V30 12008 N 1123.36 1.52689 0.390367 0
M  V30 12009 C 1124.3 1.7737 1.47677 0
M  V30 12010 C 1125.27 0.616864 1.54221 0
M  V30 12011 O 1126.46 0.856437 1.70499 0
M  V30 12012 C 1123.6 1.94715 2.84921 0
M  V30 12013 C 1122.71 3.22405 2.8754 0
M  V30 12014 C 1121.85 3.30074 4.16202 0
M  V30 12015 C 1120.89 4.51893 4.12867 0
M  V30 12016 N 1120.02 4.56851 5.33134 0
M  V30 12017 H 1124.86 2.70084 1.25932 0
M  V30 12018 H 1122.4 1.33813 0.610943 0
M  V30 12019 H 1124.36 2.02755 3.64618 0
M  V30 12020 H 1122.99 1.05363 3.0512 0
M  V30 12021 H 1122.04 3.23442 2.00223 0
M  V30 12022 H 1123.35 4.12156 2.80943 0
M  V30 12023 H 1122.51 3.3729 5.04302 0
M  V30 12024 H 1121.24 2.38295 4.25519 0
M  V30 12025 H 1120.25 4.44803 3.23156 0
M  V30 12026 H 1121.47 5.44987 4.05174 0
M  V30 12027 H 1119.42 3.67963 5.43083 0
M  V30 12028 H 1119.34 5.40472 5.28607 0
M  V30 12029 H 1120.61 4.6832 6.23134 0
M  V30 12030 N 1124.83 -0.648732 1.43629 0
M  V30 12031 C 1126.08 -1.41066 1.45699 0
M  V30 12032 C 1126.41 -1.94024 0.082612 0
M  V30 12033 O 1125.69 -1.7257 -0.897207 0
M  V30 12034 C 1125.97 -2.58882 2.50304 0
M  V30 12035 C 1125.82 -2.11387 3.97033 0
M  V30 12036 C 1127.14 -3.61092 2.51597 0
M  V30 12037 H 1124.26 -0.511591 0.530512 0
M  V30 12038 H 1126.9 -0.735069 1.75205 0
M  V30 12039 H 1125.05 -3.16518 2.25274 0
M  V30 12040 H 1126.73 -1.58718 4.33136 0
M  V30 12041 H 1124.97 -1.4272 4.0965 0
M  V30 12042 H 1125.64 -2.96129 4.65845 0
M  V30 12043 H 1128.12 -3.13223 2.73917 0
M  V30 12044 H 1126.99 -4.41071 3.26722 0
M  V30 12045 H 1127.25 -4.13985 1.55141 0
M  V30 12046 N 1126.31 -1.30234 -0.887518 0
M  V30 12047 C 1127.22 -1.18316 -2.02579 0
M  V30 12048 C 1128.24 -0.103658 -1.73691 0
M  V30 12049 O 1129.41 -0.3181 -1.98872 0
M  V30 12050 C 1126.48 -0.873222 -3.35523 0
M  V30 12051 C 1125.54 -2.03783 -3.7785 0
M  V30 12052 C 1124.77 -1.74258 -5.0445 0
M  V30 12053 O 1125 -0.669295 -5.6646 0
M  V30 12054 O 1123.93 -2.59423 -5.43124 0
M  V30 12055 H 1127.76 -2.13933 -2.15561 0
M  V30 12056 H 1125.34 -1.09803 -1.0131 0
M  V30 12057 H 1127.22 -0.715463 -4.15282 0
M  V30 12058 H 1125.9 0.053056 -3.23657 0
M  V30 12059 H 1124.81 -2.2509 -2.98806 0
M  V30 12060 H 1126.14 -2.94574 -3.94318 0
M  V30 12061 N 1127.79 1.09952 -1.12909 0
M  V30 12062 C 1128.72 2.15689 -0.745217 0
M  V30 12063 C 1129.7 1.60409 0.266007 0
M  V30 12064 O 1130.89 1.8783 0.158783 0
M  V30 12065 C 1128.01 3.38541 -0.103846 0
M  V30 12066 C 1127.06 4.12529 -1.0827 0
M  V30 12067 S 1127.89 4.67442 -2.61262 0
M  V30 12068 C 1129.05 5.936 -1.9847 0
M  V30 12069 H 1129.28 2.47918 -1.64086 0
M  V30 12070 H 1126.81 1.21817 -0.948682 0
M  V30 12071 H 1128.77 4.09677 0.259816 0
M  V30 12072 H 1127.43 3.04541 0.768982 0
M  V30 12073 H 1126.63 5.00632 -0.581653 0
M  V30 12074 H 1126.23 3.47228 -1.38955 0
M  V30 12075 H 1128.52 6.64308 -1.33048 0
M  V30 12076 H 1129.46 6.48374 -2.84634 0
M  V30 12077 H 1129.87 5.45864 -1.43848 0
M  V30 12078 N 1129.27 0.921757 1.27833 0
M  V30 12079 C 1130.2 0.433466 2.29441 0
M  V30 12080 C 1131.18 -0.503133 1.62489 0
M  V30 12081 O 1132.36 -0.409156 1.89841 0
M  V30 12082 C 1129.49 -0.320029 3.45822 0
M  V30 12083 C 1128.45 0.528178 4.24728 0
M  V30 12084 C 1127.77 -0.354132 5.33526 0
M  V30 12085 C 1129.07 1.78959 4.90684 0
M  V30 12086 H 1130.77 1.28263 2.70535 0
M  V30 12087 H 1128.31 0.618197 1.30055 0
M  V30 12088 H 1130.27 -0.672526 4.15999 0
M  V30 12089 H 1128.99 -1.20317 3.0363 0
M  V30 12090 H 1127.65 0.863302 3.5629 0
M  V30 12091 H 1127.3 -1.23605 4.87576 0
M  V30 12092 H 1127 0.209855 5.87225 0
M  V30 12093 H 1128.52 -0.702333 6.06547 0
M  V30 12094 H 1129.94 1.50552 5.53179 0
M  V30 12095 H 1128.33 2.29661 5.54415 0
M  V30 12096 H 1129.4 2.51265 4.14721 0
M  V30 12097 N 1130.75 -1.41857 0.686609 0
M  V30 12098 C 1132.02 -1.95082 0.142228 0
M  V30 12099 C 1132.4 -1.62646 -1.34572 0
M  V30 12100 O 1131.75 -0.928757 -2.08773 0
M  V30 12101 C 1131.96 -3.46415 0.423955 0
M  V30 12102 C 1133.31 -4.23181 0.346842 0
M  V30 12103 O 1134.33 -3.54393 0.358363 0
M  V30 12104 O 1133.19 -5.4568 0.299211 0
M  V30 12105 H 1130.29 -0.826943 0.00974 0
M  V30 12106 H 1132.83 -1.51622 0.762153 0
M  V30 12107 H 1131.6 -3.63273 1.45424 0
M  V30 12108 H 1131.23 -3.96949 -0.227391 0
M  V30 12109 N 1132.22 -0.430739 -1.51599 0
M  V30 12110 C 1133.17 0.398482 -2.29161 0
M  V30 12111 C 1134.17 1.02676 -1.34737 0
M  V30 12112 O 1135.37 0.96248 -1.52106 0
M  V30 12113 H 1131.75 0.14731 -0.737431 0
M  V30 12114 H 1133.72 -0.276619 -2.97115 0
M  V30 12115 C 1132.47 1.49094 -3.14112 0
M  V30 12116 H 1131.79 1.01685 -3.86652 0
M  V30 12117 H 1133.23 2.04453 -3.7145 0
M  V30 12118 C 1131.69 2.47049 -2.29059 0
M  V30 12119 O 1132.22 3.51435 -1.94567 0
M  V30 12120 N 1130.43 2.17778 -1.92409 0
M  V30 12121 H 1129.97 1.3292 -2.20658 0
M  V30 12122 H 1129.93 2.8356 -1.35798 0
M  V30 12123 N 1133.7 1.56767 -0.161869 0
M  V30 12124 C 1134.63 2.20511 0.767918 0
M  V30 12125 C 1135.61 1.15783 1.24612 0
M  V30 12126 O 1136.8 1.44179 1.301 0
M  V30 12127 C 1133.93 2.83844 2.00125 0
M  V30 12128 C 1132.88 3.94528 1.65926 0
M  V30 12129 C 1132.21 4.44866 2.96646 0
M  V30 12130 C 1133.51 5.14583 0.894497 0
M  V30 12131 H 1135.2 2.98464 0.236607 0
M  V30 12132 H 1132.75 1.43561 0.112363 0
M  V30 12133 H 1134.7 3.27109 2.65664 0
M  V30 12134 H 1133.43 2.03246 2.55654 0
M  V30 12135 H 1132.08 3.51904 1.02759 0
M  V30 12136 H 1131.73 3.61071 3.50196 0
M  V30 12137 H 1131.43 5.19531 2.74521 0
M  V30 12138 H 1132.96 4.90812 3.6323 0
M  V30 12139 H 1134.37 5.54601 1.45228 0
M  V30 12140 H 1132.77 5.95105 0.772636 0
M  V30 12141 H 1133.84 4.84773 -0.110986 0
M  V30 12142 N 1135.18 -0.111886 1.57202 0
M  V30 12143 C 1136.11 -1.13796 2.03894 0
M  V30 12144 C 1137.09 -1.4277 0.924696 0
M  V30 12145 O 1138.28 -1.53089 1.19488 0
M  V30 12146 C 1135.41 -2.46229 2.44925 0
M  V30 12147 C 1134.36 -2.31702 3.59859 0
M  V30 12148 C 1133.69 -3.69161 3.86813 0
M  V30 12149 C 1134.99 -1.77158 4.91337 0
M  V30 12150 H 1136.68 -0.749581 2.89865 0
M  V30 12151 H 1134.23 -0.359126 1.3945 0
M  V30 12152 H 1136.18 -3.18267 2.76195 0
M  V30 12153 H 1134.9 -2.86971 1.55933 0
M  V30 12154 H 1133.56 -1.62112 3.28809 0
M  V30 12155 H 1133.21 -4.07401 2.95015 0
M  V30 12156 H 1132.91 -3.60292 4.6418 0
M  V30 12157 H 1134.43 -4.42693 4.20542 0
M  V30 12158 H 1135.85 -2.3902 5.21097 0
M  V30 12159 H 1134.25 -1.79091 5.72753 0
M  V30 12160 H 1135.32 -0.729675 4.79379 0
M  V30 12161 N 1136.66 -1.52894 -0.382264 0
M  V30 12162 C 1137.94 -1.58853 -1.14127 0
M  V30 12163 C 1138.32 -0.38582 -2.07544 0
M  V30 12164 O 1137.66 0.625323 -2.19777 0
M  V30 12165 C 1137.87 -2.93068 -1.89504 0
M  V30 12166 C 1139.22 -3.47048 -2.44629 0
M  V30 12167 O 1140.25 -2.94987 -1.99652 0
M  V30 12168 O 1139.1 -4.3802 -3.26804 0
M  V30 12169 H 1136.2 -0.640969 -0.522578 0
M  V30 12170 H 1138.74 -1.65231 -0.386873 0
M  V30 12171 H 1137.52 -3.72047 -1.2123 0
M  V30 12172 H 1137.14 -2.90106 -2.7189 0
M  V30 12173 N 1138.14 0.641106 -1.43971 0
M  V30 12174 C 1139.39 1.39676 -1.45511 0
M  V30 12175 C 1139.7 1.95403 -0.0877084 0
M  V30 12176 O 1140.91 2.71493 0.0193965 0
M  V30 12177 C 1139.36 2.52839 -2.56126 0
M  V30 12178 C 1138.97 2.03668 -3.99028 0
M  V30 12179 C 1140.71 3.30118 -2.66875 0
M  V30 12180 C 1138.62 3.14114 -5.01085 0
M  V30 12181 H 1137.55 0.524854 -0.541336 0
M  V30 12182 H 1140.2 0.69075 -1.70003 0
M  V30 12183 H 1138.58 3.25968 -2.24857 0
M  V30 12184 H 1139.76 1.3747 -4.39817 0
M  V30 12185 H 1138.07 1.39233 -3.92432 0
M  V30 12186 H 1140.67 4.12434 -3.40297 0
M  V30 12187 H 1141.01 3.78946 -1.72353 0
M  V30 12188 H 1141.55 2.64075 -2.97505 0
M  V30 12189 H 1138.28 2.70241 -5.97202 0
M  V30 12190 H 1137.8 3.78985 -4.64898 0
M  V30 12191 H 1139.48 3.79051 -5.24337 0
M  V30 12192 N 1139.62 1.30703 0.880598 0
M  V30 12193 C 1140.53 1.19389 2.01949 0
M  V30 12194 C 1141.54 0.112868 1.73634 0
M  V30 12195 O 1142.72 0.328643 1.98701 0
M  V30 12196 C 1139.78 0.891004 3.35055 0
M  V30 12197 C 1138.84 2.05784 3.76764 0
M  V30 12198 C 1138.08 1.76931 5.03519 0
M  V30 12199 O 1138.3 0.699326 5.66097 0
M  V30 12200 O 1137.23 2.623 5.4174 0
M  V30 12201 H 1141.06 2.15073 2.14423 0
M  V30 12202 H 1138.64 1.10339 1.00726 0
M  V30 12203 H 1140.53 0.737476 4.14897 0
M  V30 12204 H 1139.2 -0.0358909 3.2368 0
M  V30 12205 H 1138.11 2.26672 2.97608 0
M  V30 12206 H 1139.44 2.96661 3.9275 0
M  V30 12207 N 1141.09 -1.09351 1.1349 0
M  V30 12208 C 1142.34 -1.81812 0.898452 0
M  V30 12209 C 1142.67 -1.85525 -0.573959 0
M  V30 12210 O 1141.95 -1.32403 -1.42477 0
M  V30 12211 C 1142.23 -3.27921 1.48794 0
M  V30 12212 C 1142.08 -3.32476 3.02952 0
M  V30 12213 C 1143.4 -4.24625 1.15678 0
M  V30 12214 H 1140.52 -0.660074 0.327829 0
M  V30 12215 H 1143.16 -1.28091 1.40331 0
M  V30 12216 H 1141.31 -3.738 1.05858 0
M  V30 12217 H 1142.99 -2.94994 3.54649 0
M  V30 12218 H 1141.23 -2.72037 3.37903 0
M  V30 12219 H 1141.9 -4.35409 3.39298 0
M  V30 12220 H 1144.38 -3.87036 1.52781 0
M  V30 12221 H 1143.25 -5.25194 1.59571 0
M  V30 12222 H 1143.51 -4.42044 0.0705933 0
M  V30 12223 N 1142.57 -0.928524 -1.27343 0
M  V30 12224 C 1143.53 -0.43292 -2.25074 0
M  V30 12225 C 1144.53 0.448976 -1.54405 0
M  V30 12226 O 1145.72 0.249939 -1.72398 0
M  V30 12227 C 1142.86 0.377539 -3.38803 0
M  V30 12228 H 1144.05 -1.29642 -2.70431 0
M  V30 12229 H 1141.6 -0.709289 -1.3928 0
M  V30 12230 H 1142.34 1.25982 -2.98829 0
M  V30 12231 H 1142.12 -0.254782 -3.91271 0
M  V30 12232 H 1143.61 0.714634 -4.1144 0
M  V30 12233 N 1144.05 1.41491 -0.694123 0
M  V30 12234 C 1145.28 2.0528 -0.233128 0
M  V30 12235 C 1145.69 1.52329 1.12217 0
M  V30 12236 O 1145.03 0.66579 1.7121 0
M  V30 12237 C 1145.09 3.59326 -0.111718 0
M  V30 12238 C 1144.76 4.35065 -1.39882 0
M  V30 12239 C 1145.75 4.64446 -2.33637 0
M  V30 12240 C 1143.44 4.74364 -1.65179 0
M  V30 12241 C 1145.43 5.32083 -3.50951 0
M  V30 12242 C 1143.12 5.41737 -2.82779 0
M  V30 12243 C 1144.12 5.70524 -3.75488 0
M  V30 12244 O 1143.81 6.36511 -4.91029 0
M  V30 12245 H 1143.54 0.667571 -0.106418 0
M  V30 12246 H 1146.09 1.82276 -0.94682 0
M  V30 12247 H 1144.32 3.81065 0.65773 0
M  V30 12248 H 1146.01 4.047 0.311906 0
M  V30 12249 H 1146.78 4.34568 -2.1535 0
M  V30 12250 H 1142.66 4.5134 -0.93881 0
M  V30 12251 H 1146.2 5.54468 -4.23333 0
M  V30 12252 H 1142.1 5.71033 -3.00984 0
M  V30 12253 H 1142.86 6.55006 -4.90825 0
M  V30 12254 N 1145.53 0.438773 1.51369 0
M  V30 12255 C 1146.75 -0.128221 2.07003 0
M  V30 12256 C 1147.18 -1.3557 1.30393 0
M  V30 12257 O 1146.54 -1.7804 0.342283 0
M  V30 12258 C 1146.58 -0.42761 3.58056 0
M  V30 12259 O 1145.69 -1.51382 3.83611 0
M  V30 12260 H 1145.03 -0.00123679 0.663999 0
M  V30 12261 H 1147.56 0.62052 1.94963 0
M  V30 12262 H 1147.57 -0.677645 4.02333 0
M  V30 12263 H 1146.24 0.469535 4.13241 0
M  V30 12264 H 1144.82 -1.25363 3.51196 0
M  V30 12265 N 1147.01 -1.56678 0.170181 0
M  V30 12266 C 1147.94 -2.20916 -0.756213 0
M  V30 12267 C 1148.92 -1.16442 -1.23997 0
M  V30 12268 O 1150.1 -1.44867 -1.29333 0
M  V30 12269 C 1147.23 -2.84901 -1.98617 0
M  V30 12270 C 1146.19 -3.95403 -1.63831 0
M  V30 12271 C 1145.51 -4.46432 -2.94282 0
M  V30 12272 C 1146.81 -5.15051 -0.867195 0
M  V30 12273 H 1148.51 -2.98585 -0.220776 0
M  V30 12274 H 1146.05 -1.43619 -0.104748 0
M  V30 12275 H 1148 -3.28514 -2.63926 0
M  V30 12276 H 1146.73 -2.04598 -2.54572 0
M  V30 12277 H 1145.39 -3.52444 -1.00891 0
M  V30 12278 H 1145.04 -3.62923 -3.48276 0
M  V30 12279 H 1144.74 -5.20979 -2.71762 0
M  V30 12280 H 1146.26 -4.92731 -3.60622 0
M  V30 12281 H 1147.67 -5.55363 -1.42285 0
M  V30 12282 H 1146.07 -5.95507 -0.741065 0
M  V30 12283 H 1147.14 -4.84707 0.136693 0
M  V30 12284 N 1148.48 0.103547 -1.57259 0
M  V30 12285 C 1149.41 1.12714 -2.04494 0
M  V30 12286 C 1150.39 1.42278 -0.932255 0
M  V30 12287 O 1151.58 1.52453 -1.20298 0
M  V30 12288 C 1148.71 2.44927 -2.46228 0
M  V30 12289 C 1147.66 2.2979 -3.61082 0
M  V30 12290 C 1146.99 3.67105 -3.88765 0
M  V30 12291 C 1148.29 1.7455 -4.9227 0
M  V30 12292 H 1149.98 0.734198 -2.90258 0
M  V30 12293 H 1147.53 0.351725 -1.39638 0
M  V30 12294 H 1149.48 3.16798 -2.77879 0
M  V30 12295 H 1148.21 2.8614 -1.57453 0
M  V30 12296 H 1146.87 1.60366 -3.29664 0
M  V30 12297 H 1146.51 4.05831 -2.97171 0
M  V30 12298 H 1146.21 3.57825 -4.66084 0
M  V30 12299 H 1147.74 4.40456 -4.22884 0
M  V30 12300 H 1149.15 2.36253 -5.22358 0
M  V30 12301 H 1147.55 1.76051 -5.73695 0
M  V30 12302 H 1148.62 0.704242 -4.79759 0
M  V30 12303 N 1149.96 1.53094 0.37415 0
M  V30 12304 C 1151.38 1.42676 0.715246 0
M  V30 12305 C 1151.58 0.558992 1.93591 0
M  V30 12306 O 1150.63 0.0381328 2.52471 0
M  V30 12307 C 1151.95 2.85746 0.936459 0
M  V30 12308 C 1153.49 2.95322 1.03701 0
M  V30 12309 C 1153.97 4.39436 1.29075 0
M  V30 12310 N 1155.46 4.42826 1.35864 0
M  V30 12311 C 1156.2 5.51433 1.57191 0
M  V30 12312 N 1155.69 6.701 1.75891 0
M  V30 12313 N 1157.48 5.38998 1.59491 0
M  V30 12314 H 1149.64 2.08025 -0.428854 0
M  V30 12315 H 1151.9 0.939078 -0.129758 0
M  V30 12316 H 1151.6 3.51523 0.111448 0
M  V30 12317 H 1151.48 3.28887 1.84698 0
M  V30 12318 H 1153.87 2.29704 1.85257 0
M  V30 12319 H 1153.95 2.55588 0.104066 0
M  V30 12320 H 1153.59 5.05625 0.480231 0
M  V30 12321 H 1153.52 4.76735 2.23677 0
M  V30 12322 H 1156.01 3.57301 1.23061 0
M  V30 12323 H 1156.32 7.48643 1.91713 0
M  V30 12324 H 1154.67 6.73102 1.73086 0
M  V30 12325 H 1157.86 4.45257 1.44444 0
M  V30 12326 H 1158.03 6.23705 1.75771 0
M  V30 12327 N 1151.44 -0.633461 1.44309 0
M  V30 12328 C 1152.69 -1.39031 1.46679 0
M  V30 12329 C 1153.01 -1.94745 0.0997165 0
M  V30 12330 O 1152.28 -1.75637 -0.867659 0
M  V30 12331 H 1150.86 -0.516051 0.540093 0
M  V30 12332 H 1153.52 -0.745739 1.80069 0
M  V30 12333 H 1152.62 -2.2228 2.19085 0
M  V30 12334 N 1152.92 -1.31168 -0.873655 0
M  V30 12335 C 1154.17 -1.20404 -1.62319 0
M  V30 12336 C 1154.49 0.238829 -1.93532 0
M  V30 12337 O 1153.76 1.15854 -1.57971 0
M  V30 12338 H 1152.34 -0.442632 -0.601736 0
M  V30 12339 H 1155 -1.64445 -1.04613 0
M  V30 12340 H 1154.1 -1.77309 -2.56842 0
M  V30 12341 N 1154.4 1.08748 -1.14068 0
M  V30 12342 C 1155.62 1.85353 -0.930532 0
M  V30 12343 C 1156.05 1.80892 0.515717 0
M  V30 12344 O 1155.4 1.19146 1.36652 0
M  V30 12345 C 1155.45 3.30962 -1.43167 0
M  V30 12346 O 1154.56 4.0769 -0.621468 0
M  V30 12347 H 1153.9 0.574485 -0.332962 0
M  V30 12348 H 1156.43 1.37282 -1.51707 0
M  V30 12349 H 1156.44 3.81807 -1.43832 0
M  V30 12350 H 1155.11 3.33524 -2.48464 0
M  V30 12351 H 1153.69 3.66587 -0.683267 0
M  V30 12352 N 1155.87 0.935264 1.26849 0
M  V30 12353 C 1157.15 0.497797 1.8916 0
M  V30 12354 C 1157.53 -1.02441 1.84578 0
M  V30 12355 O 1156.88 -1.88185 1.29609 0
M  V30 12356 C 1157.09 1.05244 3.32753 0
M  V30 12357 C 1158.44 1.11751 4.0963 0
M  V30 12358 O 1159.46 1.0026 3.41799 0
M  V30 12359 O 1158.32 1.29548 5.30923 0
M  V30 12360 H 1155.41 0.161322 0.811113 0
M  V30 12361 H 1157.96 1.02744 1.35062 0
M  V30 12362 H 1156.73 2.09617 3.30419 0
M  V30 12363 H 1156.36 0.504889 3.94381 0
M  V30 12364 N 1157.35 -1.41121 0.701616 0
M  V30 12365 C 1158.63 -1.9492 0.162911 0
M  V30 12366 C 1159.01 -1.64064 -1.32839 0
M  V30 12367 O 1158.36 -0.950848 -2.07777 0
M  V30 12368 C 1158.57 -3.45946 0.460673 0
M  V30 12369 C 1159.92 -4.22789 0.391706 0
M  V30 12370 O 1160.94 -3.53993 0.395931 0
M  V30 12371 O 1159.8 -5.45332 0.357071 0
M  V30 12372 H 1156.89 -0.826793 0.0185103 0
M  V30 12373 H 1159.44 -1.50805 0.778192 0
M  V30 12374 H 1158.21 -3.61711 1.49269 0
M  V30 12375 H 1157.83 -3.97168 -0.185277 0
M  V30 12376 N 1158.83 -0.446794 -1.51134 0
M  V30 12377 C 1160.06 0.117242 -2.07068 0
M  V30 12378 C 1160.48 1.34877 -1.3111 0
M  V30 12379 O 1159.84 1.77856 -0.35172 0
M  V30 12380 C 1159.89 0.408616 -3.58277 0
M  V30 12381 O 1158.99 1.49345 -3.84408 0
M  V30 12382 H 1158.33 -0.00228458 -0.663996 0
M  V30 12383 H 1160.86 -0.63085 -1.94632 0
M  V30 12384 H 1160.87 0.656298 -4.02687 0
M  V30 12385 H 1159.55 -0.491444 -4.12986 0
M  V30 12386 H 1158.12 1.23499 -3.51856 0
M  V30 12387 N 1160.31 1.56586 -0.178487 0
M  V30 12388 C 1161.53 2.01915 0.473841 0
M  V30 12389 C 1161.96 1.05789 1.55533 0
M  V30 12390 O 1161.32 0.0386018 1.81259 0
M  V30 12391 C 1161.36 3.45799 1.02251 0
M  V30 12392 O 1160.47 3.52761 2.1362 0
M  V30 12393 H 1159.81 0.654372 0.112666 0
M  V30 12394 H 1162.34 2.02613 -0.284486 0
M  V30 12395 H 1162.35 3.85252 1.34332 0
M  V30 12396 H 1161.02 4.1526 0.230719 0
M  V30 12397 H 1159.6 3.25172 1.8253 0
M  V30 12398 N 1161.79 -0.095206 1.57312 0
M  V30 12399 C 1162.73 -1.11551 2.02052 0
M  V30 12400 C 1163.7 -1.39808 0.896818 0
M  V30 12401 O 1164.89 -1.51273 1.1628 0
M  V30 12402 C 1162.03 -2.43056 2.44985 0
M  V30 12403 C 1161.14 -2.21531 3.70875 0
M  V30 12404 C 1160.28 -3.46434 4.02687 0
M  V30 12405 C 1159.32 -3.2017 5.21687 0
M  V30 12406 N 1158.45 -4.37339 5.49253 0
M  V30 12407 H 1163.29 -0.727 2.88996 0
M  V30 12408 H 1160.83 -0.347441 1.42938 0
M  V30 12409 H 1162.79 -3.19803 2.67921 0
M  V30 12410 H 1161.42 -2.79754 1.61051 0
M  V30 12411 H 1160.47 -1.35587 3.55416 0
M  V30 12412 H 1161.78 -1.98116 4.57768 0
M  V30 12413 H 1160.94 -4.31589 4.26399 0
M  V30 12414 H 1159.67 -3.72904 3.14315 0
M  V30 12415 H 1158.68 -2.33409 4.97796 0
M  V30 12416 H 1159.9 -2.95047 6.11657 0
M  V30 12417 H 1157.85 -4.63885 4.6384 0
M  V30 12418 H 1157.77 -4.17114 6.30517 0
M  V30 12419 H 1159.04 -5.23559 5.775 0
M  V30 12420 N 1163.26 -1.53291 -0.366026 0
M  V30 12421 C 1164.54 -1.60055 -1.12436 0
M  V30 12422 C 1164.92 -0.407811 -2.07123 0
M  V30 12423 O 1164.27 0.601977 -2.20428 0
M  V30 12424 C 1164.48 -2.95062 -1.86385 0
M  V30 12425 C 1165.83 -3.49623 -2.40934 0
M  V30 12426 O 1166.85 -2.97088 -1.96512 0
M  V30 12427 O 1165.71 -4.41461 -3.2214 0
M  V30 12428 H 1162.8 -0.646476 -0.51575 0
M  V30 12429 H 1165.35 -1.65632 -0.369326 0
M  V30 12430 H 1164.12 -3.73312 -1.17277 0
M  V30 12431 H 1163.75 -2.92973 -2.68798 0
M  V30 12432 N 1164.74 0.6258 -1.44643 0
M  V30 12433 C 1166.15 1.20751 -1.42394 0
M  V30 12434 C 1166.5 1.95685 -0.142047 0
M  V30 12435 O 1165.63 2.02715 0.757332 0
M  V30 12436 C 1166.22 2.1964 -2.57961 0
M  V30 12437 C 1164.78 2.73227 -2.5889 0
M  V30 12438 C 1163.93 1.48315 -2.34303 0
M  V30 12439 H 1166.88 0.416162 -1.53146 0
M  V30 12440 H 1166.9 3.02342 -2.31019 0
M  V30 12441 H 1166.41 1.65073 -3.51244 0
M  V30 12442 H 1164.52 3.31782 -1.69563 0
M  V30 12443 H 1164.63 3.18902 -3.57545 0
M  V30 12444 H 1162.99 1.76634 -1.83501 0
M  V30 12445 H 1163.78 0.956427 -3.29708 0
M  V30 12446 N 1166.22 1.31629 0.866686 0
M  V30 12447 C 1167.47 1.20861 1.61479 0
M  V30 12448 C 1167.78 -0.231208 1.94229 0
M  V30 12449 O 1168.99 -0.460618 2.67564 0
M  V30 12450 C 1167.44 2.11602 2.91123 0
M  V30 12451 C 1167.05 3.60598 2.65844 0
M  V30 12452 C 1168.8 2.09642 3.69121 0
M  V30 12453 C 1166.7 4.43337 3.91415 0
M  V30 12454 H 1165.63 0.448783 0.605896 0
M  V30 12455 H 1168.28 1.56507 0.958001 0
M  V30 12456 H 1166.67 1.68858 3.58194 0
M  V30 12457 H 1167.84 4.11609 2.07159 0
M  V30 12458 H 1166.16 3.64568 2.01194 0
M  V30 12459 H 1168.75 2.68701 4.62281 0
M  V30 12460 H 1169.1 1.08438 4.01929 0
M  V30 12461 H 1169.63 2.50603 3.08938 0
M  V30 12462 H 1166.37 5.45309 3.63756 0
M  V30 12463 H 1165.89 3.97083 4.49539 0
M  V30 12464 H 1167.57 4.5572 4.5927 0
M  V30 12465 N 1167.7 -1.08142 1.14644 0
M  V30 12466 C 1168.98 -1.77254 0.827071 0
M  V30 12467 C 1169.36 -1.99885 -0.67891 0
M  V30 12468 O 1168.7 -1.61084 -1.62062 0
M  V30 12469 C 1168.91 -3.08658 1.62884 0
M  V30 12470 C 1170.26 -3.83143 1.82993 0
M  V30 12471 O 1171.29 -3.18447 1.59593 0
M  V30 12472 O 1170.15 -4.9932 2.2213 0
M  V30 12473 H 1167.24 -0.769356 0.30335 0
M  V30 12474 H 1169.79 -1.1458 1.25178 0
M  V30 12475 H 1168.56 -2.87753 2.65168 0
M  V30 12476 H 1168.18 -3.79061 1.19994 0
M  V30 12477 N 1169.18 -0.941978 -1.26351 0
M  V30 12478 C 1170.42 -0.590845 -1.94002 0
M  V30 12479 C 1170.76 0.868004 -1.73722 0
M  V30 12480 O 1170.03 1.62111 -1.07472 0
M  V30 12481 C 1170.31 -0.934901 -3.47752 0
M  V30 12482 C 1170.17 -2.44855 -3.77314 0
M  V30 12483 C 1171.49 -0.450888 -4.37784 0
M  V30 12484 H 1168.61 -0.21613 -0.704597 0
M  V30 12485 H 1171.25 -1.17634 -1.49205 0
M  V30 12486 H 1169.4 -0.436648 -3.86038 0
M  V30 12487 H 1171.07 -3.01959 -3.48738 0
M  V30 12488 H 1169.31 -2.89169 -3.23363 0
M  V30 12489 H 1169.98 -2.6398 -4.84787 0
M  V30 12490 H 1172.46 -0.878107 -4.06729 0
M  V30 12491 H 1171.34 -0.720439 -5.44152 0
M  V30 12492 H 1171.6 0.649162 -4.37308 0
M  V30 12493 N 1170.66 1.40747 -0.709091 0
M  V30 12494 C 1171.6 2.32564 -0.0411392 0
M  V30 12495 C 1172.6 1.51692 0.75404 0
M  V30 12496 O 1173.8 1.67537 0.658139 0
M  V30 12497 H 1170.18 0.75198 0.00549889 0
M  V30 12498 H 1172.15 2.86556 -0.83235 0
M  V30 12499 C 1170.9 3.36604 0.871378 0
M  V30 12500 H 1170.22 3.98895 0.268912 0
M  V30 12501 H 1171.66 4.03359 1.30682 0
M  V30 12502 C 1170.12 2.71566 1.99384 0
M  V30 12503 O 1170.65 2.57392 3.08403 0
M  V30 12504 N 1168.86 2.3005 1.77554 0
M  V30 12505 H 1168.4 2.41778 0.888898 0
M  V30 12506 H 1168.36 1.8687 2.52838 0
M  V30 12507 N 1172.13 0.454803 1.50895 0
M  V30 12508 C 1173.36 -0.103785 2.06339 0
M  V30 12509 C 1173.77 -1.35494 1.32053 0
M  V30 12510 O 1173.11 -1.79758 0.37852 0
M  V30 12511 C 1173.18 -0.474076 3.5636 0
M  V30 12512 C 1172.84 0.672736 4.52021 0
M  V30 12513 C 1173.84 1.55003 4.96256 0
M  V30 12514 C 1171.52 0.858435 4.9491 0
M  V30 12515 C 1173.52 2.59757 5.82069 0
M  V30 12516 C 1171.2 1.90922 5.8051 0
M  V30 12517 C 1172.2 2.77717 6.23989 0
M  V30 12518 O 1171.89 3.80989 7.07886 0
M  V30 12519 H 1171.62 -0.0035531 0.675991 0
M  V30 12520 H 1174.18 0.637816 1.95246 0
M  V30 12521 H 1172.41 -1.26863 3.65298 0
M  V30 12522 H 1174.09 -0.965845 3.94241 0
M  V30 12523 H 1174.86 1.41818 4.63802 0
M  V30 12524 H 1170.74 0.192384 4.60598 0
M  V30 12525 H 1174.28 3.27535 6.15927 0
M  V30 12526 H 1170.18 2.04121 6.12376 0
M  V30 12527 H 1170.95 3.7778 7.26102 0
M  V30 12528 N 1173.61 -1.56489 0.186789 0
M  V30 12529 C 1174.52 -2.22304 -0.749543 0
M  V30 12530 C 1175.54 -1.21949 -1.24115 0
M  V30 12531 O 1176.71 -1.5466 -1.29005 0
M  V30 12532 C 1173.78 -2.863 -1.95533 0
M  V30 12533 C 1172.84 -4.01901 -1.5091 0
M  V30 12534 C 1172.07 -4.62837 -2.6574 0
M  V30 12535 O 1172.3 -4.22681 -3.8301 0
M  V30 12536 O 1171.23 -5.52446 -2.38929 0
M  V30 12537 H 1175.06 -3.02909 -0.21908 0
M  V30 12538 H 1172.64 -1.49341 -0.0421249 0
M  V30 12539 H 1174.52 -3.2682 -2.6602 0
M  V30 12540 H 1173.2 -2.08681 -2.47455 0
M  V30 12541 H 1172.1 -3.66021 -0.773261 0
M  V30 12542 H 1173.44 -4.8116 -1.03663 0
M  V30 12543 N 1175.09 0.086862 -1.5736 0
M  V30 12544 C 1176.04 1.10478 -2.02641 0
M  V30 12545 C 1177.01 1.39331 -0.904219 0
M  V30 12546 O 1178.19 1.50654 -1.17081 0
M  V30 12547 C 1175.33 2.41754 -2.4627 0
M  V30 12548 C 1174.44 2.19561 -3.72044 0
M  V30 12549 C 1173.58 3.44294 -4.04519 0
M  V30 12550 C 1172.62 3.17399 -5.23378 0
M  V30 12551 N 1171.76 4.3442 -5.51564 0
M  V30 12552 H 1176.6 0.711663 -2.89378 0
M  V30 12553 H 1174.13 0.339856 -1.4312 0
M  V30 12554 H 1176.09 3.18378 -2.69613 0
M  V30 12555 H 1174.72 2.78896 -1.62532 0
M  V30 12556 H 1173.77 1.337 -3.5613 0
M  V30 12557 H 1175.08 1.95685 -4.58812 0
M  V30 12558 H 1174.24 4.29321 -4.28682 0
M  V30 12559 H 1172.98 3.71232 -3.16289 0
M  V30 12560 H 1171.98 2.30765 -4.99026 0
M  V30 12561 H 1173.21 2.91799 -6.13213 0
M  V30 12562 H 1171.15 4.61418 -4.66293 0
M  V30 12563 H 1171.07 4.13764 -6.3272 0
M  V30 12564 H 1172.34 5.20489 -5.80269 0
M  V30 12565 N 1176.57 1.53483 0.357892 0
M  V30 12566 C 1177.5 1.83444 1.44466 0
M  V30 12567 C 1178.48 0.688486 1.55544 0
M  V30 12568 O 1179.66 0.93906 1.69986 0
M  V30 12569 C 1176.79 2.03122 2.81707 0
M  V30 12570 C 1175.75 3.1891 2.85448 0
M  V30 12571 C 1175.07 3.23895 4.25436 0
M  V30 12572 C 1176.37 4.57334 2.52275 0
M  V30 12573 H 1178.07 2.74456 1.19642 0
M  V30 12574 H 1175.61 1.3206 0.574112 0
M  V30 12575 H 1177.57 2.22666 3.57768 0
M  V30 12576 H 1176.29 1.08827 3.07935 0
M  V30 12577 H 1174.95 2.99199 2.11838 0
M  V30 12578 H 1174.6 2.27223 4.48753 0
M  V30 12579 H 1174.3 4.01694 4.28854 0
M  V30 12580 H 1175.82 3.45632 5.0336 0
M  V30 12581 H 1177.24 4.76988 3.1805 0
M  V30 12582 H 1175.63 5.37431 2.66998 0
M  V30 12583 H 1176.7 4.61921 1.47501 0
M  V30 12584 N 1178.05 -0.61812 1.44973 0
M  V30 12585 C 1178.99 -1.72942 1.52838 0
M  V30 12586 C 1179.96 -1.6181 0.375056 0
M  V30 12587 O 1181.15 -1.81544 0.587075 0
M  V30 12588 C 1178.29 -3.11228 1.49101 0
M  V30 12589 C 1177.4 -3.33243 2.74906 0
M  V30 12590 C 1176.54 -4.61574 2.62912 0
M  V30 12591 C 1175.57 -4.76811 3.8382 0
M  V30 12592 N 1174.71 -5.96432 3.70424 0
M  V30 12593 H 1179.55 -1.65556 2.47781 0
M  V30 12594 H 1177.09 -0.807411 1.2296 0
M  V30 12595 H 1179.05 -3.9122 1.44923 0
M  V30 12596 H 1177.68 -3.17598 0.577163 0
M  V30 12597 H 1176.73 -2.471 2.89216 0
M  V30 12598 H 1178.04 -3.40377 3.64616 0
M  V30 12599 H 1177.19 -5.49746 2.56641 0
M  V30 12600 H 1175.93 -4.5682 1.70784 0
M  V30 12601 H 1174.94 -3.87066 3.90461 0
M  V30 12602 H 1176.16 -4.83371 4.77001 0
M  V30 12603 H 1174.11 -5.92742 2.81057 0
M  V30 12604 H 1174.03 -6.0468 4.5376 0
M  V30 12605 H 1175.29 -6.8713 3.68067 0
M  V30 12606 N 1179.52 -1.32087 -0.859693 0
M  V30 12607 C 1180.75 -1.25348 -1.64607 0
M  V30 12608 C 1181.17 0.179425 -1.87945 0
M  V30 12609 O 1180.52 1.11487 -1.44489 0
M  V30 12610 C 1180.57 -2.0047 -3.00822 0
M  V30 12611 O 1180.3 -3.38169 -2.7852 0
M  V30 12612 C 1181.8 -2.00694 -3.95268 0
M  V30 12613 H 1179.02 -0.432692 -0.512854 0
M  V30 12614 H 1181.56 -1.7413 -1.07234 0
M  V30 12615 H 1179.72 -1.55423 -3.54855 0
M  V30 12616 H 1180.13 -3.76553 -3.65113 0
M  V30 12617 H 1181.6 -2.57748 -4.88129 0
M  V30 12618 H 1182.08 -0.99196 -4.27851 0
M  V30 12619 H 1182.69 -2.45666 -3.47172 0
M  V30 12620 N 1181 1.07532 -1.15215 0
M  V30 12621 C 1182.28 1.76813 -0.83646 0
M  V30 12622 C 1182.66 2.00242 0.6683 0
M  V30 12623 O 1182.01 1.61941 1.61206 0
M  V30 12624 C 1182.22 3.0779 -1.64519 0
M  V30 12625 C 1183.56 3.82168 -1.85022 0
M  V30 12626 O 1184.59 3.17596 -1.61279 0
M  V30 12627 O 1183.45 4.98135 -2.24775 0
M  V30 12628 H 1180.54 0.767736 -0.307426 0
M  V30 12629 H 1183.09 1.13914 -1.25784 0
M  V30 12630 H 1181.86 2.86342 -2.6669 0
M  V30 12631 H 1181.48 3.78419 -1.22002 0
M  V30 12632 N 1182.48 0.948665 1.2585 0
M  V30 12633 C 1183.73 0.595938 1.92695 0
M  V30 12634 C 1184.04 -0.870229 1.75175 0
M  V30 12635 O 1185.25 -1.33266 2.36543 0
M  V30 12636 C 1183.7 1.01511 3.45288 0
M  V30 12637 C 1183.31 2.50341 3.71528 0
M  V30 12638 C 1185.06 0.734635 4.18095 0
M  V30 12639 C 1182.96 2.8609 5.17597 0
M  V30 12640 H 1181.89 0.219171 0.721443 0
M  V30 12641 H 1184.54 1.15231 1.42807 0
M  V30 12642 H 1182.93 0.387201 3.94102 0
M  V30 12643 H 1184.1 3.18101 3.3339 0
M  V30 12644 H 1182.42 2.75797 3.11969 0
M  V30 12645 H 1185.01 0.977962 5.25681 0
M  V30 12646 H 1185.36 -0.328807 4.14999 0
M  V30 12647 H 1185.89 1.32262 3.75169 0
M  V30 12648 H 1182.63 3.91427 5.25799 0
M  V30 12649 H 1182.15 2.22999 5.56805 0
M  V30 12650 H 1183.83 2.74959 5.85668 0
M  V30 12651 N 1183.96 -1.40369 0.716545 0
M  V30 12652 C 1184.91 -2.3071 0.0645944 0
M  V30 12653 C 1185.88 -1.48239 -0.749294 0
M  V30 12654 O 1187.06 -1.76975 -0.713045 0
M  V30 12655 C 1184.2 -3.34456 -0.850478 0
M  V30 12656 C 1183.31 -4.31992 -0.0259594 0
M  V30 12657 C 1182.45 -5.22806 -0.940599 0
M  V30 12658 C 1181.49 -6.12001 -0.110228 0
M  V30 12659 N 1180.62 -6.9523 -0.979796 0
M  V30 12660 H 1185.46 -2.85896 0.840682 0
M  V30 12661 H 1183 -1.40789 0.426258 0
M  V30 12662 H 1184.96 -3.93177 -1.39528 0
M  V30 12663 H 1183.59 -2.8077 -1.59274 0
M  V30 12664 H 1182.64 -3.75045 0.636036 0
M  V30 12665 H 1183.95 -4.94971 0.616883 0
M  V30 12666 H 1183.11 -5.86463 -1.5539 0
M  V30 12667 H 1181.85 -4.60104 -1.61726 0
M  V30 12668 H 1180.85 -5.47373 0.516001 0
M  V30 12669 H 1182.08 -6.76763 0.562944 0
M  V30 12670 H 1180.02 -6.35115 -1.64209 0
M  V30 12671 H 1179.94 -7.54978 -0.393012 0
M  V30 12672 H 1181.21 -7.63335 -1.57924 0
M  V30 12673 N 1185.44 -0.462799 -1.50652 0
M  V30 12674 C 1186.68 0.0951853 -2.02576 0
M  V30 12675 C 1187.02 1.40113 -1.34469 0
M  V30 12676 O 1186.29 1.88793 -0.467702 0
M  V30 12677 C 1186.57 0.287603 -3.5895 0
M  V30 12678 C 1186.43 -1.03878 -4.37641 0
M  V30 12679 C 1187.75 1.04593 -4.27491 0
M  V30 12680 H 1184.86 0.0331191 -0.736255 0
M  V30 12681 H 1187.51 -0.606772 -1.80051 0
M  V30 12682 H 1185.66 0.885514 -3.78274 0
M  V30 12683 H 1187.33 -1.67263 -4.29908 0
M  V30 12684 H 1185.57 -1.6374 -4.01711 0
M  V30 12685 H 1186.24 -0.857889 -5.45293 0
M  V30 12686 H 1188.72 0.539213 -4.12591 0
M  V30 12687 H 1187.59 1.14935 -5.36732 0
M  V30 12688 H 1187.86 2.08045 -3.90089 0
M  V30 12689 N 1186.91 1.56388 -0.195085 0
M  V30 12690 C 1188.16 1.97872 0.444344 0
M  V30 12691 C 1188.49 1.0819 1.61271 0
M  V30 12692 O 1187.77 0.133904 1.94039 0
M  V30 12693 C 1188.05 3.48556 0.90449 0
M  V30 12694 C 1187.9 4.49015 -0.265693 0
M  V30 12695 C 1189.22 4.02938 1.76999 0
M  V30 12696 H 1186.34 0.719413 0.160041 0
M  V30 12697 H 1188.98 1.87835 -0.286005 0
M  V30 12698 H 1187.13 3.5724 1.52682 0
M  V30 12699 H 1188.81 4.52368 -0.903363 0
M  V30 12700 H 1187.05 4.23987 -0.917462 0
M  V30 12701 H 1187.72 5.51912 0.0987834 0
M  V30 12702 H 1190.2 3.97033 1.24514 0
M  V30 12703 H 1189.07 5.08741 2.06092 0
M  V30 12704 H 1189.33 3.48197 2.72418 0
M  V30 12705 N 1188.39 -0.0785156 1.57404 0
M  V30 12706 C 1189.67 -0.811557 1.77969 0
M  V30 12707 C 1190.05 -1.96123 0.780966 0
M  V30 12708 O 1189.4 -2.27731 -0.18726 0
M  V30 12709 C 1189.61 -1.29075 3.24254 0
M  V30 12710 C 1190.96 -1.72685 3.87898 0
M  V30 12711 O 1191.98 -1.38658 3.28104 0
M  V30 12712 O 1190.84 -2.3566 4.93079 0
M  V30 12713 H 1187.93 -0.388361 0.73014 0
M  V30 12714 H 1190.48 -0.0591118 1.69597 0
M  V30 12715 H 1189.25 -0.467813 3.88494 0
M  V30 12716 H 1188.87 -2.10472 3.37324 0
M  V30 12717 N 1189.87 -1.5367 -0.349747 0
M  V30 12718 C 1191.29 -1.43796 -0.692457 0
M  V30 12719 C 1191.49 -0.58972 -1.92677 0
M  V30 12720 O 1190.54 -0.078294 -2.52379 0
M  V30 12721 C 1191.86 -2.872 -0.890881 0
M  V30 12722 C 1193.4 -2.96935 -0.989892 0
M  V30 12723 C 1193.88 -4.41433 -1.22068 0
M  V30 12724 N 1195.37 -4.44932 -1.28802 0
M  V30 12725 C 1196.1 -5.53864 -1.48398 0
M  V30 12726 N 1195.6 -6.72814 -1.65208 0
M  V30 12727 N 1197.39 -5.41467 -1.50896 0
M  V30 12728 H 1189.54 -2.07317 0.461895 0
M  V30 12729 H 1191.81 -0.936895 0.144681 0
M  V30 12730 H 1191.51 -3.51656 -0.0555095 0
M  V30 12731 H 1191.39 -3.31784 -1.79442 0
M  V30 12732 H 1193.77 -2.32622 -1.81579 0
M  V30 12733 H 1193.86 -2.55721 -0.0633906 0
M  V30 12734 H 1193.5 -5.06325 -0.399729 0
M  V30 12735 H 1193.43 -4.80233 -2.16064 0
M  V30 12736 H 1195.92 -3.59214 -1.17361 0
M  V30 12737 H 1196.23 -7.51598 -1.79779 0
M  V30 12738 H 1194.58 -6.7577 -1.62356 0
M  V30 12739 H 1197.77 -4.47498 -1.37342 0
M  V30 12740 H 1197.94 -6.26423 -1.65826 0
M  V30 12741 N 1191.35 0.610423 -1.45298 0
M  V30 12742 C 1192.63 1.36966 -1.39641 0
M  V30 12743 C 1193.01 2.10998 -0.0655757 0
M  V30 12744 O 1192.35 2.07705 0.952407 0
M  V30 12745 C 1192.56 2.31885 -2.60826 0
M  V30 12746 C 1193.91 2.9458 -3.05791 0
M  V30 12747 O 1194.94 2.42207 -2.61179 0
M  V30 12748 O 1193.79 3.89639 -3.83202 0
M  V30 12749 H 1190.89 0.61401 -0.554004 0
M  V30 12750 H 1193.43 0.633748 -1.57422 0
M  V30 12751 H 1192.21 1.76421 -3.49272 0
M  V30 12752 H 1191.83 3.12861 -2.45364 0
M  V30 12753 N 1192.83 1.32541 0.852676 0
M  V30 12754 C 1194.05 1.2636 1.64462 0
M  V30 12755 C 1194.48 -0.16508 1.87374 0
M  V30 12756 O 1193.83 -1.11712 1.42794 0
M  V30 12757 C 1193.88 2.03052 2.97997 0
M  V30 12758 O 1192.99 1.37967 3.88637 0
M  V30 12759 H 1192.33 0.435393 0.501327 0
M  V30 12760 H 1194.86 1.74888 1.06186 0
M  V30 12761 H 1194.87 2.133 3.47803 0
M  V30 12762 H 1193.54 3.06941 2.80642 0
M  V30 12763 H 1192.12 1.36279 3.47106 0
M  V30 12764 N 1194.3 -1.0692 1.15784 0
M  V30 12765 C 1195.21 -2.17762 0.872753 0
M  V30 12766 C 1196.23 -1.73329 -0.152608 0
M  V30 12767 O 1197.41 -2.01387 0.022519 0
M  V30 12768 C 1194.47 -3.4471 0.370887 0
M  V30 12769 C 1193.53 -4.03686 1.46069 0
M  V30 12770 C 1192.77 -5.24575 0.982675 0
M  V30 12771 O 1192.99 -5.70146 -0.17006 0
M  V30 12772 O 1191.92 -5.7534 1.76828 0
M  V30 12773 H 1195.75 -2.44648 1.79948 0
M  V30 12774 H 1193.33 -1.1634 0.937303 0
M  V30 12775 H 1195.22 -4.21287 0.0976779 0
M  V30 12776 H 1193.89 -3.19366 -0.527912 0
M  V30 12777 H 1192.8 -3.28629 1.78756 0
M  V30 12778 H 1194.13 -4.33312 2.33456 0
M  V30 12779 N 1195.78 -0.955326 -1.25345 0
M  V30 12780 C 1196.69 -0.482707 -2.2958 0
M  V30 12781 C 1197.71 0.450283 -1.68073 0
M  V30 12782 O 1198.88 0.326358 -1.98738 0
M  V30 12783 C 1195.95 0.231293 -3.45928 0
M  V30 12784 C 1195.01 -0.739995 -4.22874 0
M  V30 12785 C 1194.24 -0.0599748 -5.33666 0
M  V30 12786 O 1194.47 1.15423 -5.586 0
M  V30 12787 O 1193.4 -0.745865 -5.97261 0
M  V30 12788 H 1197.23 -1.34892 -2.72099 0
M  V30 12789 H 1194.81 -0.721812 -1.30806 0
M  V30 12790 H 1196.69 0.632908 -4.1662 0
M  V30 12791 H 1195.37 1.07267 -3.0541 0
M  V30 12792 H 1194.28 -1.19183 -3.54607 0
M  V30 12793 H 1195.61 -1.54941 -4.67177 0
M  V30 12794 N 1197.26 1.39987 -0.723979 0
M  V30 12795 C 1198.22 2.29041 -0.0854583 0
M  V30 12796 C 1199.22 1.45777 0.678657 0
M  V30 12797 O 1200.41 1.66588 0.509311 0
M  V30 12798 C 1197.55 3.29115 0.88859 0
M  V30 12799 H 1198.74 2.87006 -0.869903 0
M  V30 12800 H 1196.29 1.48449 -0.489136 0
M  V30 12801 H 1197.03 2.76184 1.69979 0
M  V30 12802 H 1196.81 3.90593 0.343454 0
M  V30 12803 H 1198.3 3.95778 1.33227 0
M  V30 12804 N 1198.74 0.470782 1.50404 0
M  V30 12805 C 1199.65 -0.328877 2.32283 0
M  V30 12806 C 1200.67 -0.99629 1.42654 0
M  V30 12807 O 1201.84 -0.984331 1.75707 0
M  V30 12808 C 1198.91 -1.39675 3.1732 0
M  V30 12809 C 1197.97 -0.745965 4.22769 0
M  V30 12810 C 1197.2 -1.76295 5.03742 0
M  V30 12811 O 1197.42 -2.98943 4.85788 0
M  V30 12812 O 1196.36 -1.33495 5.86909 0
M  V30 12813 H 1200.18 0.340491 3.01785 0
M  V30 12814 H 1197.77 0.232637 1.47578 0
M  V30 12815 H 1199.65 -2.0153 3.70086 0
M  V30 12816 H 1198.33 -2.04959 2.50546 0
M  V30 12817 H 1197.23 -0.0884647 3.73995 0
M  V30 12818 H 1198.57 -0.136074 4.92012 0
M  V30 12819 N 1200.22 -1.56282 0.203376 0
M  V30 12820 C 1201.47 -1.96987 -0.433461 0
M  V30 12821 C 1201.78 -1.09344 -1.62183 0
M  V30 12822 O 1202.99 -1.39868 -2.327 0
M  V30 12823 C 1201.44 -3.50374 -0.82257 0
M  V30 12824 C 1201.05 -4.46693 0.341969 0
M  V30 12825 C 1202.79 -3.99831 -1.42603 0
M  V30 12826 C 1200.7 -5.9136 -0.0685608 0
M  V30 12827 H 1199.63 -0.735564 -0.165717 0
M  V30 12828 H 1202.28 -1.81085 0.296708 0
M  V30 12829 H 1200.66 -3.6181 -1.60964 0
M  V30 12830 H 1201.84 -4.46994 1.11952 0
M  V30 12831 H 1200.15 -4.07476 0.857463 0
M  V30 12832 H 1202.75 -5.05398 -1.74577 0
M  V30 12833 H 1203.09 -3.4462 -2.33544 0
M  V30 12834 H 1203.63 -3.91543 -0.702758 0
M  V30 12835 H 1200.36 -6.50515 0.80688 0
M  V30 12836 H 1199.88 -5.94295 -0.810798 0
M  V30 12837 H 1201.56 -6.45053 -0.501525 0
M  V30 12838 N 1201.7 0.070167 -1.57444 0
M  V30 12839 C 1202.94 0.767842 -1.86513 0
M  V30 12840 C 1203.26 1.78659 -0.796257 0
M  V30 12841 O 1204.46 2.53395 -0.974845 0
M  V30 12842 C 1202.92 1.41654 -3.30851 0
M  V30 12843 C 1202.53 0.436273 -4.45871 0
M  V30 12844 C 1204.27 2.09649 -3.69117 0
M  V30 12845 C 1202.18 1.09098 -5.8125 0
M  V30 12846 H 1201.11 0.290519 -0.695784 0
M  V30 12847 H 1203.76 0.0211697 -1.83488 0
M  V30 12848 H 1202.14 2.21153 -3.28493 0
M  V30 12849 H 1203.32 -0.329022 -4.59624 0
M  V30 12850 H 1201.63 -0.139314 -4.16167 0
M  V30 12851 H 1204.23 2.59411 -4.67558 0
M  V30 12852 H 1204.57 2.89663 -2.99 0
M  V30 12853 H 1205.1 1.36979 -3.73472 0
M  V30 12854 H 1201.84 0.331128 -6.54663 0
M  V30 12855 H 1201.36 1.8271 -5.71294 0
M  V30 12856 H 1203.04 1.61034 -6.2664 0
M  V30 12857 N 1203.17 1.53854 0.341593 0
M  V30 12858 C 1204.59 1.44161 0.684821 0
M  V30 12859 C 1204.79 0.599929 1.92362 0
M  V30 12860 O 1203.85 0.0916771 2.52334 0
M  V30 12861 C 1205.16 2.87668 0.875637 0
M  V30 12862 C 1206.71 2.97455 0.974131 0
M  V30 12863 C 1207.18 4.42075 1.19725 0
M  V30 12864 N 1208.67 4.45609 1.2644 0
M  V30 12865 C 1209.41 5.54643 1.45459 0
M  V30 12866 N 1208.9 6.7368 1.61637 0
M  V30 12867 N 1210.7 5.4226 1.48022 0
M  V30 12868 H 1202.85 2.07069 -0.472883 0
M  V30 12869 H 1205.11 0.936114 -0.149648 0
M  V30 12870 H 1204.82 3.51681 0.0368595 0
M  V30 12871 H 1204.69 3.32731 1.7768 0
M  V30 12872 H 1207.08 2.33582 1.80343 0
M  V30 12873 H 1207.16 2.55751 0.0498282 0
M  V30 12874 H 1206.8 5.06529 0.372872 0
M  V30 12875 H 1206.73 4.81372 2.13515 0
M  V30 12876 H 1209.22 3.59831 1.15455 0
M  V30 12877 H 1209.54 7.52541 1.7579 0
M  V30 12878 H 1207.88 6.76622 1.5877 0
M  V30 12879 H 1211.07 4.48221 1.34966 0
M  V30 12880 H 1211.25 6.27293 1.62502 0
M  V30 12881 N 1204.65 -0.602709 1.4562 0
M  V30 12882 C 1205.6 -1.71312 1.54664 0
M  V30 12883 C 1206.57 -1.61403 0.392197 0
M  V30 12884 O 1207.75 -1.80911 0.606297 0
M  V30 12885 C 1204.89 -3.09629 1.52393 0
M  V30 12886 C 1204.01 -3.30308 2.78425 0
M  V30 12887 C 1203.14 -4.5876 2.67793 0
M  V30 12888 C 1202.18 -4.72713 3.88855 0
M  V30 12889 N 1201.32 -5.92469 3.76729 0
M  V30 12890 H 1206.16 -1.62918 2.49523 0
M  V30 12891 H 1203.69 -0.794324 1.2381 0
M  V30 12892 H 1205.65 -3.89661 1.49064 0
M  V30 12893 H 1204.28 -3.16968 0.610816 0
M  V30 12894 H 1203.33 -2.44018 2.9182 0
M  V30 12895 H 1204.65 -3.36491 3.68205 0
M  V30 12896 H 1203.8 -5.46993 2.62457 0
M  V30 12897 H 1202.54 -4.54983 1.75619 0
M  V30 12898 H 1201.54 -3.82903 3.94545 0
M  V30 12899 H 1202.77 -4.78284 4.82101 0
M  V30 12900 H 1200.72 -5.89728 2.87328 0
M  V30 12901 H 1200.63 -5.99833 4.60148 0
M  V30 12902 H 1201.9 -6.83187 3.75334 0
M  V30 12903 N 1206.13 -1.32992 -0.845635 0
M  V30 12904 C 1207.36 -1.26903 -1.63031 0
M  V30 12905 C 1207.77 0.163589 -1.88491 0
M  V30 12906 O 1207.11 1.11402 -1.46066 0
M  V30 12907 C 1207.17 -1.96843 -3.00821 0
M  V30 12908 C 1206.84 -3.46164 -2.98362 0
M  V30 12909 C 1207.83 -4.41488 -2.74562 0
M  V30 12910 C 1205.52 -3.88237 -3.18712 0
M  V30 12911 C 1207.51 -5.7686 -2.71129 0
M  V30 12912 C 1205.2 -5.23715 -3.14905 0
M  V30 12913 C 1206.2 -6.17838 -2.91144 0
M  V30 12914 O 1205.89 -7.50836 -2.87228 0
M  V30 12915 H 1205.62 -0.438806 -0.514223 0
M  V30 12916 H 1208.17 -1.75817 -1.06196 0
M  V30 12917 H 1206.4 -1.42511 -3.59482 0
M  V30 12918 H 1208.09 -1.84343 -3.61625 0
M  V30 12919 H 1208.86 -4.10308 -2.58598 0
M  V30 12920 H 1204.74 -3.1539 -3.36229 0
M  V30 12921 H 1208.28 -6.50299 -2.52502 0
M  V30 12922 H 1204.18 -5.54523 -3.30416 0
M  V30 12923 H 1204.94 -7.60304 -3.03118 0
M  V30 12924 N 1207.61 1.06304 -1.1635 0
M  V30 12925 C 1208.85 1.79366 -0.94634 0
M  V30 12926 C 1209.19 1.86981 0.524569 0
M  V30 12927 O 1208.46 1.36134 1.38917 0
M  V30 12928 C 1208.74 3.23861 -1.57436 0
M  V30 12929 C 1208.6 3.24327 -3.1166 0
M  V30 12930 C 1209.92 4.21409 -1.26895 0
M  V30 12931 H 1207.04 0.65115 -0.345215 0
M  V30 12932 H 1209.68 1.24325 -1.43678 0
M  V30 12933 H 1207.83 3.70862 -1.15731 0
M  V30 12934 H 1209.5 2.85488 -3.62346 0
M  V30 12935 H 1207.74 2.62983 -3.44997 0
M  V30 12936 H 1208.41 4.2626 -3.50723 0
M  V30 12937 H 1210.89 3.8285 -1.62989 0
M  V30 12938 H 1209.77 5.20778 -1.73439 0
M  V30 12939 H 1210.03 4.41701 -0.187768 0
M  V30 12940 N 1209.09 0.96196 1.24836 0
M  V30 12941 C 1210.03 0.48686 2.25607 0
M  V30 12942 C 1211 -0.464546 1.59472 0
M  V30 12943 O 1212.19 -0.376179 1.87055 0
M  V30 12944 C 1209.33 -0.222294 3.44383 0
M  V30 12945 C 1208.44 0.767206 4.25133 0
M  V30 12946 C 1207.58 0.0347458 5.31189 0
M  V30 12947 C 1206.61 1.01469 6.03631 0
M  V30 12948 N 1205.75 0.312619 7.01404 0
M  V30 12949 H 1210.59 1.35104 2.65614 0
M  V30 12950 H 1208.13 0.677373 1.30576 0
M  V30 12951 H 1210.09 -0.650087 4.12104 0
M  V30 12952 H 1208.72 -1.05047 3.0523 0
M  V30 12953 H 1207.77 1.31346 3.57005 0
M  V30 12954 H 1209.08 1.5147 4.75245 0
M  V30 12955 H 1208.23 -0.451325 6.05019 0
M  V30 12956 H 1206.97 -0.745485 4.81969 0
M  V30 12957 H 1205.98 1.51169 5.28609 0
M  V30 12958 H 1207.2 1.79527 6.5494 0
M  V30 12959 H 1205.15 -0.44874 6.54463 0
M  V30 12960 H 1205.07 0.999079 7.49369 0
M  V30 12961 H 1206.33 -0.151673 7.79352 0
M  V30 12962 N 1210.56 -1.39601 0.731392 0
M  V30 12963 C 1211.51 -2.32469 0.0781328 0
M  V30 12964 C 1212.51 -1.52873 -0.729811 0
M  V30 12965 O 1213.71 -1.68563 -0.631402 0
M  V30 12966 H 1210.09 -0.751972 0.00646515 0
M  V30 12967 H 1212.06 -2.85196 0.877833 0
M  V30 12968 C 1210.81 -3.37948 -0.817717 0
M  V30 12969 H 1210.13 -3.99272 -0.205417 0
M  V30 12970 H 1211.57 -4.05387 -1.24248 0
M  V30 12971 C 1210.03 -2.74703 -1.95038 0
M  V30 12972 O 1210.56 -2.62266 -3.04269 0
M  V30 12973 N 1208.76 -2.32845 -1.73872 0
M  V30 12974 H 1208.31 -2.43161 -0.850321 0
M  V30 12975 H 1208.27 -1.90869 -2.49833 0
M  V30 12976 N 1212.04 -0.478751 -1.50152 0
M  V30 12977 C 1213.27 0.0710485 -2.06778 0
M  V30 12978 C 1213.69 1.32826 -1.34174 0
M  V30 12979 O 1213.04 1.77758 -0.413304 0
M  V30 12980 C 1213.09 0.351351 -3.59789 0
M  V30 12981 O 1212.81 -0.855998 -4.29656 0
M  V30 12982 C 1214.32 0.947269 -4.33061 0
M  V30 12983 H 1211.54 -0.0105032 -0.670918 0
M  V30 12984 H 1214.08 -0.669732 -1.93222 0
M  V30 12985 H 1212.23 1.04207 -3.73121 0
M  V30 12986 H 1212.65 -0.605252 -5.20996 0
M  V30 12987 H 1214.12 1.09312 -5.41068 0
M  V30 12988 H 1214.6 1.93937 -3.94062 0
M  V30 12989 H 1215.21 0.294693 -4.24278 0
M  V30 12990 N 1213.52 1.56172 -0.211661 0
M  V30 12991 C 1214.47 2.16477 0.715675 0
M  V30 12992 C 1215.45 1.11023 1.16459 0
M  V30 12993 O 1216.65 1.3704 1.12023 0
M  V30 12994 C 1213.78 2.84055 1.92789 0
M  V30 12995 C 1212.86 3.96721 1.49911 0
M  V30 12996 N 1213.25 4.99714 0.782304 0
M  V30 12997 C 1211.55 4.08628 1.78716 0
M  V30 12998 C 1212.25 5.78949 0.565043 0
M  V30 12999 N 1211.23 5.31963 1.11878 0
M  V30 13000 H 1215.03 2.93467 0.15948 0
M  V30 13001 H 1212.54 1.62395 -0.012521 0
M  V30 13002 H 1214.54 3.25662 2.60289 0
M  V30 13003 H 1213.2 2.08558 2.48865 0
M  V30 13004 H 1214.21 5.16061 0.436021 0
M  V30 13005 H 1210.89 3.44273 2.36183 0
M  V30 13006 H 1212.28 6.719 -0.00477074 0
M  V30 13007 N 1215 -0.0618163 1.57479 0
M  V30 13008 C 1215.96 -1.05684 2.0338 0
M  V30 13009 C 1216.96 -1.31006 0.932423 0
M  V30 13010 O 1218.15 -1.26559 1.19702 0
M  V30 13011 C 1215.28 -2.39805 2.42294 0
M  V30 13012 H 1216.48 -0.661006 2.92525 0
M  V30 13013 H 1214.03 -0.307814 1.53239 0
M  V30 13014 H 1214.76 -2.84201 1.56207 0
M  V30 13015 H 1214.55 -2.22764 3.22674 0
M  V30 13016 H 1216.04 -3.11307 2.78349 0
M  V30 13017 N 1216.48 -1.54033 -0.333429 0
M  V30 13018 C 1217.7 -1.75716 -1.09232 0
M  V30 13019 C 1218.12 -0.501076 -1.82029 0
M  V30 13020 O 1217.48 0.527772 -1.74702 0
M  V30 13021 C 1217.53 -2.9439 -2.09802 0
M  V30 13022 O 1217.25 -4.15141 -1.39963 0
M  V30 13023 C 1218.75 -3.28206 -2.97987 0
M  V30 13024 H 1215.97 -0.586859 -0.325326 0
M  V30 13025 H 1218.51 -2.0089 -0.382555 0
M  V30 13026 H 1216.67 -2.71518 -2.76327 0
M  V30 13027 H 1217.08 -4.81826 -2.0723 0
M  V30 13028 H 1218.56 -4.14568 -3.64469 0
M  V30 13029 H 1219.03 -2.44944 -3.64553 0
M  V30 13030 H 1219.64 -3.5312 -2.37036 0
M  V30 13031 N 1217.95 0.594978 -1.45938 0
M  V30 13032 C 1219.18 1.37994 -1.5416 0
M  V30 13033 C 1219.6 1.87954 -0.17848 0
M  V30 13034 O 1218.95 1.62932 0.822161 0
M  V30 13035 C 1219.01 2.57586 -2.53637 0
M  V30 13036 O 1218.73 2.09698 -3.84653 0
M  V30 13037 C 1220.23 3.50292 -2.71681 0
M  V30 13038 H 1217.45 0.421983 -0.5217 0
M  V30 13039 H 1219.99 0.724459 -1.91238 0
M  V30 13040 H 1218.15 3.19149 -2.19597 0
M  V30 13041 H 1218.56 2.87492 -4.3869 0
M  V30 13042 H 1220.03 4.30717 -3.45234 0
M  V30 13043 H 1220.51 4.01444 -1.78156 0
M  V30 13044 H 1221.12 2.94573 -3.06768 0
M  V30 13045 N 1219.43 1.33438 0.838571 0
M  V30 13046 C 1220.38 1.20285 1.93689 0
M  V30 13047 C 1221.37 0.105686 1.60553 0
M  V30 13048 O 1222.56 0.333814 1.73824 0
M  V30 13049 C 1219.69 0.944544 3.3005 0
M  V30 13050 C 1218.77 2.08416 3.69356 0
M  V30 13051 N 1219.16 3.33415 3.80353 0
M  V30 13052 C 1217.46 1.99092 3.99097 0
M  V30 13053 C 1218.16 4.08159 4.14465 0
M  V30 13054 N 1217.14 3.36601 4.2685 0
M  V30 13055 H 1220.94 2.1503 2.00348 0
M  V30 13056 H 1218.46 1.2545 1.03131 0
M  V30 13057 H 1220.45 0.831242 4.08529 0
M  V30 13058 H 1219.11 0.00562273 3.247 0
M  V30 13059 H 1220.12 3.68159 3.64252 0
M  V30 13060 H 1216.8 1.12861 4.01956 0
M  V30 13061 H 1218.19 5.16027 4.30308 0
M  V30 13062 N 1220.91 -1.05686 1.16912 0
M  V30 13063 C 1221.86 -2.15417 0.877404 0
M  V30 13064 C 1222.85 -1.6868 -0.155986 0
M  V30 13065 O 1224.06 -1.79998 -0.00938156 0
M  V30 13066 H 1220.43 -0.70332 0.266168 0
M  V30 13067 H 1222.4 -2.37228 1.81012 0
M  V30 13068 C 1221.15 -3.45372 0.401696 0
M  V30 13069 H 1220.48 -3.81732 1.18832 0
M  V30 13070 H 1221.92 -4.2334 0.236418 0
M  V30 13071 C 1220.38 -3.25209 -0.87981 0
M  V30 13072 O 1220.91 -3.51322 -1.94771 0
M  V30 13073 N 1219.11 -2.78614 -0.825997 0
M  V30 13074 H 1218.66 -2.57564 0.0432439 0
M  V30 13075 H 1218.62 -2.65503 -1.68391 0
M  V30 13076 N 1222.39 -0.968567 -1.24324 0
M  V30 13077 C 1223.35 -0.504307 -2.23583 0
M  V30 13078 C 1224.35 0.399626 -1.55755 0
M  V30 13079 O 1225.54 0.194966 -1.73106 0
M  V30 13080 C 1222.67 0.26956 -3.39833 0
M  V30 13081 H 1223.87 -1.3818 -2.6617 0
M  V30 13082 H 1221.42 -0.753241 -1.36952 0
M  V30 13083 H 1222.15 1.16411 -3.02686 0
M  V30 13084 H 1221.94 -0.379133 -3.90263 0
M  V30 13085 H 1223.43 0.583376 -4.13505 0
M  V30 13086 N 1223.87 1.39211 -0.738786 0
M  V30 13087 C 1225.1 2.04435 -0.298318 0
M  V30 13088 C 1225.5 1.55822 1.07314 0
M  V30 13089 O 1224.85 0.719922 1.69005 0
M  V30 13090 C 1224.91 3.58789 -0.225979 0
M  V30 13091 C 1224.57 4.30395 -1.53653 0
M  V30 13092 C 1225.57 4.56777 -2.48295 0
M  V30 13093 C 1223.26 4.68869 -1.80187 0
M  V30 13094 C 1225.25 5.20648 -3.67702 0
M  V30 13095 C 1222.94 5.32467 -2.99871 0
M  V30 13096 C 1223.93 5.58289 -3.93449 0
M  V30 13097 O 1223.62 6.20567 -5.1103 0
M  V30 13098 H 1223.35 0.663848 -0.127603 0
M  V30 13099 H 1225.91 1.79171 -1.00433 0
M  V30 13100 H 1224.14 3.82965 0.536164 0
M  V30 13101 H 1225.83 4.05487 0.182996 0
M  V30 13102 H 1226.59 4.27497 -2.29066 0
M  V30 13103 H 1222.47 4.48124 -1.08193 0
M  V30 13104 H 1226.02 5.4072 -4.40759 0
M  V30 13105 H 1221.91 5.61169 -3.18998 0
M  V30 13106 H 1222.68 6.39059 -5.11415 0
M  V30 13107 N 1225.34 0.486708 1.49896 0
M  V30 13108 C 1226.62 -0.125183 1.95199 0
M  V30 13109 C 1227 -1.55498 1.42771 0
M  V30 13110 O 1226.35 -2.1949 0.635322 0
M  V30 13111 C 1226.56 -0.0524982 3.48961 0
M  V30 13112 C 1227.91 -0.233595 4.23957 0
M  V30 13113 O 1228.93 -0.128357 3.55969 0
M  V30 13114 O 1227.79 -0.447862 5.44662 0
M  V30 13115 H 1224.88 -0.103141 0.820543 0
M  V30 13116 H 1227.43 0.548226 1.60601 0
M  V30 13117 H 1226.2 0.945163 3.79714 0
M  V30 13118 H 1225.83 -0.766683 3.90138 0
M  V30 13119 N 1226.82 -1.56058 0.219941 0
M  V30 13120 C 1227.75 -2.2321 -0.685547 0
M  V30 13121 C 1228.73 -1.20328 -1.20229 0
M  V30 13122 O 1229.92 -1.48909 -1.24659 0
M  V30 13123 C 1227.05 -2.91076 -1.89452 0
M  V30 13124 C 1226 -4.00415 -1.51169 0
M  V30 13125 C 1225.33 -4.55569 -2.79931 0
M  V30 13126 C 1226.63 -5.17549 -0.702896 0
M  V30 13127 H 1228.32 -2.99136 -0.125671 0
M  V30 13128 H 1225.87 -1.43879 -0.0590043 0
M  V30 13129 H 1227.82 -3.36744 -2.53341 0
M  V30 13130 H 1226.55 -2.12594 -2.47934 0
M  V30 13131 H 1225.21 -3.55475 -0.896275 0
M  V30 13132 H 1224.85 -3.73819 -3.36553 0
M  V30 13133 H 1224.55 -5.29361 -2.55049 0
M  V30 13134 H 1226.08 -5.03955 -3.44764 0
M  V30 13135 H 1227.49 -5.59608 -1.24544 0
M  V30 13136 H 1225.89 -5.97563 -0.551234 0
M  V30 13137 H 1226.96 -4.84027 0.29083 0
M  V30 13138 N 1228.3 0.053464 -1.57509 0
M  V30 13139 C 1229.21 1.07902 -2.08313 0
M  V30 13140 C 1230.23 1.41223 -1.01647 0
M  V30 13141 O 1231.4 1.51032 -1.33233 0
M  V30 13142 C 1228.47 2.36813 -2.5322 0
M  V30 13143 C 1227.53 2.10297 -3.74264 0
M  V30 13144 C 1226.76 3.33062 -4.1702 0
M  V30 13145 O 1226.99 4.42857 -3.59491 0
M  V30 13146 O 1225.92 3.20195 -5.09665 0
M  V30 13147 H 1229.75 0.677368 -2.9605 0
M  V30 13148 H 1227.33 0.268838 -1.46961 0
M  V30 13149 H 1229.21 3.12645 -2.82544 0
M  V30 13150 H 1227.89 2.76323 -1.68605 0
M  V30 13151 H 1226.79 1.32111 -3.49996 0
M  V30 13152 H 1228.13 1.75658 -4.59788 0
M  V30 13153 N 1229.78 1.54207 0.325255 0
M  V30 13154 C 1231.03 1.72587 1.06497 0
M  V30 13155 C 1231.36 0.497228 1.87727 0
M  V30 13156 O 1230.63 -0.505804 1.87808 0
M  V30 13157 C 1230.92 3.00046 1.99109 0
M  V30 13158 C 1230.77 4.33158 1.21221 0
M  V30 13159 C 1232.09 3.23251 2.98658 0
M  V30 13160 H 1229.21 0.627974 0.38577 0
M  V30 13161 H 1231.85 1.869 0.34179 0
M  V30 13162 H 1230 2.87973 2.60775 0
M  V30 13163 H 1231.67 4.57111 0.620289 0
M  V30 13164 H 1229.91 4.30739 0.514462 0
M  V30 13165 H 1230.59 5.18558 1.89214 0
M  V30 13166 H 1233.06 3.34774 2.47114 0
M  V30 13167 H 1231.94 4.13796 3.60645 0
M  V30 13168 H 1232.2 2.40401 3.71026 0
M  V30 13169 N 1231.26 -0.58723 1.46251 0
M  V30 13170 C 1232.51 -1.34179 1.50595 0
M  V30 13171 C 1232.82 -1.94943 0.160171 0
M  V30 13172 O 1234.03 -2.71378 0.0813797 0
M  V30 13173 C 1232.48 -2.43159 2.65333 0
M  V30 13174 C 1232.09 -1.88718 4.06312 0
M  V30 13175 C 1233.83 -3.19986 2.78943 0
M  V30 13176 C 1231.74 -2.953 5.12398 0
M  V30 13177 H 1230.67 -0.504401 0.560442 0
M  V30 13178 H 1233.32 -0.627179 1.72449 0
M  V30 13179 H 1231.7 -3.17398 2.368 0
M  V30 13180 H 1232.88 -1.21051 4.44616 0
M  V30 13181 H 1231.19 -1.24572 3.97329 0
M  V30 13182 H 1233.79 -3.9952 3.5537 0
M  V30 13183 H 1234.13 -3.72288 1.86298 0
M  V30 13184 H 1234.67 -2.52852 3.07101 0
M  V30 13185 H 1231.4 -2.4789 6.0682 0
M  V30 13186 H 1230.92 -3.61469 4.78644 0
M  V30 13187 H 1232.6 -3.5933 5.38044 0
M  V30 13188 N 1232.74 -1.33881 -0.831482 0
M  V30 13189 C 1234.01 -1.16346 -1.57236 0
M  V30 13190 C 1234.39 0.267304 -2.09401 0
M  V30 13191 O 1233.74 1.26742 -1.90128 0
M  V30 13192 C 1233.95 -2.21082 -2.70044 0
M  V30 13193 C 1235.3 -2.5562 -3.39033 0
M  V30 13194 O 1236.32 -2.19806 -2.80292 0
M  V30 13195 O 1235.18 -3.17106 -4.45091 0
M  V30 13196 H 1232.28 -0.450469 -0.693546 0
M  V30 13197 H 1234.82 -1.45487 -0.873597 0
M  V30 13198 H 1233.59 -3.17155 -2.2919 0
M  V30 13199 H 1233.22 -1.9307 -3.47577 0
M  V30 13200 N 1234.21 1.05064 -1.1747 0
M  V30 13201 C 1235.46 1.77481 -0.958301 0
M  V30 13202 C 1235.78 1.88725 0.51401 0
M  V30 13203 O 1236.98 2.57895 0.848657 0
M  V30 13204 C 1235.44 3.19048 -1.66543 0
M  V30 13205 C 1235.05 3.1593 -3.17636 0
M  V30 13206 C 1236.79 3.95912 -1.53146 0
M  V30 13207 C 1234.7 4.52293 -3.81032 0
M  V30 13208 H 1233.63 0.665247 -0.354913 0
M  V30 13209 H 1236.28 1.17751 -1.40737 0
M  V30 13210 H 1234.66 3.79113 -1.1441 0
M  V30 13211 H 1235.83 2.65375 -3.76713 0
M  V30 13212 H 1234.15 2.52564 -3.31059 0
M  V30 13213 H 1236.75 4.96737 -1.9788 0
M  V30 13214 H 1237.09 4.13498 -0.482203 0
M  V30 13215 H 1237.62 3.42399 -2.02504 0
M  V30 13216 H 1234.36 4.39913 -4.8596 0
M  V30 13217 H 1233.88 5.02991 -3.26741 0
M  V30 13218 H 1235.56 5.2123 -3.83312 0
M  V30 13219 N 1235.69 0.975146 1.23809 0
M  V30 13220 C 1236.94 0.641124 1.92083 0
M  V30 13221 C 1237.27 -0.824671 1.76152 0
M  V30 13222 O 1236.52 -1.6097 1.11298 0
M  V30 13223 C 1236.82 0.971016 3.43956 0
M  V30 13224 C 1236.49 2.42616 3.80063 0
M  V30 13225 C 1235.15 2.82386 3.8963 0
M  V30 13226 C 1237.5 3.37019 3.97577 0
M  V30 13227 C 1234.83 4.15585 4.14133 0
M  V30 13228 C 1237.18 4.69855 4.23579 0
M  V30 13229 C 1235.84 5.09391 4.31366 0
M  V30 13230 H 1235.11 0.234604 0.702881 0
M  V30 13231 H 1237.76 1.22803 1.46941 0
M  V30 13232 H 1236.07 0.301965 3.90635 0
M  V30 13233 H 1237.76 0.690858 3.95004 0
M  V30 13234 H 1234.35 2.10782 3.73187 0
M  V30 13235 H 1238.54 3.07474 3.89581 0
M  V30 13236 H 1233.79 4.45831 4.18383 0
M  V30 13237 H 1237.97 5.42966 4.36074 0
M  V30 13238 H 1235.59 6.12624 4.50106 0
M  V30 13239 N 1237.17 -1.38817 0.746158 0
M  V30 13240 C 1238.12 -2.30521 0.113517 0
M  V30 13241 C 1239.09 -1.49795 -0.717682 0
M  V30 13242 O 1240.27 -1.78448 -0.675345 0
M  V30 13243 C 1237.41 -3.36185 -0.779343 0
M  V30 13244 C 1236.52 -4.3195 0.0656784 0
M  V30 13245 C 1235.66 -5.24684 -0.829492 0
M  V30 13246 C 1234.7 -6.12097 0.0196112 0
M  V30 13247 N 1233.84 -6.97152 -0.832107 0
M  V30 13248 H 1238.68 -2.84048 0.901136 0
M  V30 13249 H 1236.21 -1.39853 0.456025 0
M  V30 13250 H 1238.17 -3.96048 -1.31156 0
M  V30 13251 H 1236.8 -2.84085 -1.53282 0
M  V30 13252 H 1235.85 -3.73611 0.715445 0
M  V30 13253 H 1237.16 -4.93551 0.721735 0
M  V30 13254 H 1236.32 -5.89627 -1.42915 0
M  V30 13255 H 1235.06 -4.63431 -1.5193 0
M  V30 13256 H 1234.06 -5.46156 0.631991 0
M  V30 13257 H 1235.29 -6.75416 0.706369 0
M  V30 13258 H 1233.23 -6.38456 -1.507 0
M  V30 13259 H 1233.15 -7.55642 -0.232782 0
M  V30 13260 H 1234.42 -7.66513 -1.41697 0
M  V30 13261 N 1238.65 -0.49465 -1.49636 0
M  V30 13262 C 1239.9 0.0539277 -2.01628 0
M  V30 13263 C 1240.21 1.38634 -1.37986 0
M  V30 13264 O 1241.42 2.02123 -1.81269 0
M  V30 13265 C 1239.87 0.146582 -3.59601 0
M  V30 13266 C 1239.48 -1.1788 -4.32213 0
M  V30 13267 C 1241.22 0.645862 -4.19558 0
M  V30 13268 C 1239.13 -1.04866 -5.82028 0
M  V30 13269 H 1238.06 0.0239278 -0.75362 0
M  V30 13270 H 1240.71 -0.633112 -1.72232 0
M  V30 13271 H 1239.09 0.897931 -3.85685 0
M  V30 13272 H 1240.27 -1.94295 -4.17835 0
M  V30 13273 H 1238.58 -1.61102 -3.83973 0
M  V30 13274 H 1241.18 0.76064 -5.29262 0
M  V30 13275 H 1241.52 1.64313 -3.82501 0
M  V30 13276 H 1242.06 -0.04877 -3.9777 0
M  V30 13277 H 1238.79 -2.02 -6.23599 0
M  V30 13278 H 1238.31 -0.325293 -5.98917 0
M  V30 13279 H 1239.99 -0.724799 -6.42927 0
M  V30 13280 N 1240.13 1.55939 -0.228214 0
M  V30 13281 C 1241.04 2.24213 0.690339 0
M  V30 13282 C 1242.05 1.25197 1.20838 0
M  V30 13283 O 1243.23 1.58026 1.24859 0
M  V30 13284 C 1240.29 2.91384 1.87873 0
M  V30 13285 C 1239.35 4.05761 1.40201 0
M  V30 13286 C 1238.59 4.6972 2.53376 0
M  V30 13287 O 1238.81 4.32687 3.71669 0
M  V30 13288 O 1237.74 5.58587 2.24198 0
M  V30 13289 H 1241.57 3.03383 0.138692 0
M  V30 13290 H 1239.15 1.494 0.00251504 0
M  V30 13291 H 1241.04 3.33758 2.57262 0
M  V30 13292 H 1239.71 2.15168 2.41835 0
M  V30 13293 H 1238.62 3.67943 0.675945 0
M  V30 13294 H 1239.95 4.83739 0.908691 0
M  V30 13295 N 1241.6 -0.0451101 1.57535 0
M  V30 13296 C 1243.02 -0.400463 1.54494 0
M  V30 13297 C 1243.22 -1.77584 0.952166 0
M  V30 13298 O 1242.28 -2.46069 0.566221 0
M  V30 13299 C 1243.59 -0.31703 2.99024 0
M  V30 13300 C 1245.14 -0.395284 3.10494 0
M  V30 13301 C 1245.61 -0.341475 4.56725 0
M  V30 13302 N 1247.1 -0.400755 4.61463 0
M  V30 13303 C 1247.84 -0.381757 5.72128 0
M  V30 13304 N 1247.33 -0.315995 6.92079 0
M  V30 13305 N 1249.13 -0.4303 5.60451 0
M  V30 13306 H 1241.28 0.855156 1.94424 0
M  V30 13307 H 1243.54 0.323618 0.891053 0
M  V30 13308 H 1243.25 0.627477 3.46057 0
M  V30 13309 H 1243.12 -1.11696 3.60283 0
M  V30 13310 H 1245.51 -1.33022 2.63418 0
M  V30 13311 H 1245.59 0.433709 2.52096 0
M  V30 13312 H 1245.23 0.589725 5.04465 0
M  V30 13313 H 1245.16 -1.18836 5.13016 0
M  V30 13314 H 1247.65 -0.454745 3.75154 0
M  V30 13315 H 1247.97 -0.306158 7.72193 0
M  V30 13316 H 1246.31 -0.282281 6.94427 0
M  V30 13317 H 1249.5 -0.479555 4.65637 0
M  V30 13318 H 1249.68 -0.412025 6.46689 0
M  V30 13319 N 1243.08 -1.54377 -0.317073 0
M  V30 13320 C 1243.99 -1.87247 -1.41335 0
M  V30 13321 C 1245.01 -0.765017 -1.5628 0
M  V30 13322 O 1246.18 -1.05994 -1.71252 0
M  V30 13323 C 1243.25 -2.0988 -2.75955 0
M  V30 13324 C 1242.31 -3.33658 -2.70131 0
M  V30 13325 C 1241.54 -3.55202 -3.9833 0
M  V30 13326 O 1241.77 -2.80061 -4.96913 0
M  V30 13327 O 1240.7 -4.48693 -4.01196 0
M  V30 13328 H 1244.53 -2.80481 -1.16465 0
M  V30 13329 H 1242.11 -1.40364 -0.511687 0
M  V30 13330 H 1243.99 -2.2606 -3.55633 0
M  V30 13331 H 1242.67 -1.19834 -3.00702 0
M  V30 13332 H 1241.58 -3.22857 -1.88981 0
M  V30 13333 H 1242.91 -4.23782 -2.50338 0
M  V30 13334 N 1244.56 0.579466 -1.4656 0
M  V30 13335 C 1245.81 1.33492 -1.51738 0
M  V30 13336 C 1246.13 1.94241 -0.171926 0
M  V30 13337 O 1245.4 1.78737 0.801875 0
M  V30 13338 H 1243.98 0.49565 -0.558874 0
M  V30 13339 H 1246.64 0.678394 -1.82712 0
M  V30 13340 H 1245.74 2.13995 -2.27183 0
M  V30 13341 N 1246.04 1.3432 0.824371 0
M  V30 13342 C 1246.95 1.27847 1.96704 0
M  V30 13343 C 1247.96 0.18641 1.72999 0
M  V30 13344 O 1249.14 0.412623 1.97128 0
M  V30 13345 C 1246.21 1.03231 3.30975 0
M  V30 13346 C 1245.27 2.21579 3.67697 0
M  V30 13347 C 1244.5 1.98128 4.95561 0
M  V30 13348 O 1244.72 0.938798 5.62621 0
M  V30 13349 O 1243.66 2.85041 5.30128 0
M  V30 13350 H 1247.48 2.23974 2.05108 0
M  V30 13351 H 1245.07 1.14512 0.959554 0
M  V30 13352 H 1246.95 0.912784 4.11395 0
M  V30 13353 H 1245.62 0.101425 3.23541 0
M  V30 13354 H 1244.53 2.3909 2.87727 0
M  V30 13355 H 1245.86 3.13052 3.79815 0
M  V30 13356 N 1247.52 -1.0444 1.18026 0
M  V30 13357 C 1248.76 -1.79143 0.984238 0
M  V30 13358 C 1249.12 -1.85955 -0.478002 0
M  V30 13359 O 1250.32 -2.56826 -0.793345 0
M  V30 13360 C 1248.59 -3.18744 1.61669 0
M  V30 13361 S 1250.15 -4.09832 1.56791 0
M  V30 13362 H 1246.97 -0.61688 0.353525 0
M  V30 13363 H 1249.57 -1.25256 1.50104 0
M  V30 13364 H 1248.28 -3.11394 2.67324 0
M  V30 13365 H 1247.81 -3.77708 1.10001 0
M  V30 13366 H 1249.82 -4.92785 0.581175 0
M  V30 13367 N 1248.99 -0.981699 -1.2329 0
M  V30 13368 C 1249.93 -0.481042 -2.24095 0
M  V30 13369 C 1250.94 0.417818 -1.57347 0
M  V30 13370 O 1252.13 0.221746 -1.77117 0
M  V30 13371 C 1249.23 0.323324 -3.37354 0
M  V30 13372 C 1248.4 -0.568975 -4.33684 0
M  V30 13373 C 1247.46 0.181761 -5.25886 0
M  V30 13374 O 1246.49 -0.429059 -5.67581 0
M  V30 13375 N 1247.69 1.46737 -5.61648 0
M  V30 13376 H 1250.45 -1.34781 -2.67683 0
M  V30 13377 H 1248.01 -0.855117 -1.37475 0
M  V30 13378 H 1250.01 0.833934 -3.96015 0
M  V30 13379 H 1248.58 1.09111 -2.9294 0
M  V30 13380 H 1247.8 -1.2604 -3.73507 0
M  V30 13381 H 1249.08 -1.17704 -4.94998 0
M  V30 13382 H 1248.48 1.98513 -5.29725 0
M  V30 13383 H 1247.04 1.92339 -6.22775 0
M  V30 13384 N 1250.47 1.3842 -0.753509 0
M  V30 13385 C 1251.89 1.53668 -0.431095 0
M  V30 13386 C 1252.09 1.71626 1.05578 0
M  V30 13387 O 1251.14 1.72723 1.84182 0
M  V30 13388 C 1252.46 2.74381 -1.23027 0
M  V30 13389 C 1254.01 2.8823 -1.22034 0
M  V30 13390 C 1254.48 4.11904 -2.00248 0
M  V30 13391 N 1255.97 4.18981 -1.97508 0
M  V30 13392 C 1256.71 5.13667 -2.5482 0
M  V30 13393 N 1256.2 6.14027 -3.20846 0
M  V30 13394 N 1258 5.06017 -2.44751 0
M  V30 13395 H 1250.15 1.25012 -1.71714 0
M  V30 13396 H 1252.41 0.607296 -0.727939 0
M  V30 13397 H 1252.12 2.67515 -2.28317 0
M  V30 13398 H 1251.99 3.67565 -0.847098 0
M  V30 13399 H 1254.38 2.94578 -0.175502 0
M  V30 13400 H 1254.46 1.96057 -1.64303 0
M  V30 13401 H 1254.1 4.06318 -3.04742 0
M  V30 13402 H 1254.03 5.03157 -1.55373 0
M  V30 13403 H 1256.52 3.47104 -1.49423 0
M  V30 13404 H 1256.84 6.82771 -3.61999 0
M  V30 13405 H 1255.18 6.1436 -3.24941 0
M  V30 13406 H 1258.37 4.26552 -1.92797 0
M  V30 13407 H 1258.54 5.7963 -2.89713 0
M  V30 13408 N 1251.95 0.502579 1.49372 0
M  V30 13409 C 1253.18 -0.0380876 2.06565 0
M  V30 13410 C 1253.59 -1.31224 1.36297 0
M  V30 13411 O 1252.93 -1.78463 0.435517 0
M  V30 13412 C 1252.99 -0.360462 3.57688 0
M  V30 13413 C 1252.66 0.816203 4.49652 0
M  V30 13414 C 1253.65 1.70713 4.91073 0
M  V30 13415 C 1251.34 1.01545 4.91929 0
M  V30 13416 C 1253.33 2.78144 5.73511 0
M  V30 13417 C 1251.02 2.09294 5.74142 0
M  V30 13418 C 1252.02 2.97428 6.14838 0
M  V30 13419 O 1251.71 4.03317 6.95407 0
M  V30 13420 H 1251.44 0.0179548 0.675762 0
M  V30 13421 H 1253.99 0.699609 1.93118 0
M  V30 13422 H 1252.22 -1.15177 3.69149 0
M  V30 13423 H 1253.91 -0.839931 3.97115 0
M  V30 13424 H 1254.68 1.56502 4.59056 0
M  V30 13425 H 1250.56 0.338822 4.59753 0
M  V30 13426 H 1254.1 3.46965 6.05195 0
M  V30 13427 H 1250 2.235 6.05572 0
M  V30 13428 H 1250.77 4.00689 7.13716 0
M  V30 13429 N 1253.43 -1.55816 0.23648 0
M  V30 13430 C 1254.38 -2.20938 -0.66745 0
M  V30 13431 C 1255.35 -1.16982 -1.17917 0
M  V30 13432 O 1256.53 -1.45392 -1.23555 0
M  V30 13433 C 1253.67 -2.90469 -1.86337 0
M  V30 13434 C 1252.78 -4.09056 -1.38915 0
M  V30 13435 C 1251.92 -4.6633 -2.54382 0
M  V30 13436 C 1250.96 -5.77187 -2.0377 0
M  V30 13437 N 1250.09 -6.28688 -3.12564 0
M  V30 13438 H 1254.93 -2.97814 -0.105411 0
M  V30 13439 H 1252.47 -1.47045 -0.0402712 0
M  V30 13440 H 1254.43 -3.28975 -2.56576 0
M  V30 13441 H 1253.06 -2.16086 -2.39806 0
M  V30 13442 H 1252.11 -3.75934 -0.581173 0
M  V30 13443 H 1253.42 -4.89115 -0.978152 0
M  V30 13444 H 1252.58 -5.07355 -3.32679 0
M  V30 13445 H 1251.32 -3.85464 -2.98778 0
M  V30 13446 H 1250.32 -5.35648 -1.23939 0
M  V30 13447 H 1251.55 -6.59896 -1.60355 0
M  V30 13448 H 1249.49 -5.50731 -3.56414 0
M  V30 13449 H 1249.41 -7.03911 -2.75762 0
M  V30 13450 H 1250.68 -6.74371 -3.90952 0
M  V30 13451 N 1254.91 0.036755 -1.57557 0
M  V30 13452 C 1256.32 0.584324 -1.7732 0
M  V30 13453 C 1256.67 1.76025 -0.86658 0
M  V30 13454 O 1255.79 2.16318 -0.059443 0
M  V30 13455 C 1256.39 1.06679 -3.21566 0
M  V30 13456 C 1254.95 1.55994 -3.42553 0
M  V30 13457 C 1254.09 0.494604 -2.72853 0
M  V30 13458 H 1257.05 -0.189473 -1.57565 0
M  V30 13459 H 1257.07 1.93446 -3.27657 0
M  V30 13460 H 1256.58 0.210727 -3.87527 0
M  V30 13461 H 1254.68 2.43811 -2.81757 0
M  V30 13462 H 1254.79 1.61274 -4.5114 0
M  V30 13463 H 1253.16 0.947865 -2.36406 0
M  V30 13464 H 1253.94 -0.351868 -3.41492 0
M  V30 13465 N 1256.39 1.54543 0.308881 0
M  V30 13466 C 1257.63 1.73449 1.04506 0
M  V30 13467 C 1257.96 0.516034 1.8753 0
M  V30 13468 O 1257.22 -0.502106 1.89149 0
M  V30 13469 C 1257.51 2.97124 1.98626 0
M  V30 13470 C 1257.18 4.31256 1.31641 0
M  V30 13471 C 1255.84 4.67719 1.13105 0
M  V30 13472 C 1258.19 5.14437 0.836888 0
M  V30 13473 C 1255.52 5.84949 0.452878 0
M  V30 13474 C 1257.87 6.32365 0.172473 0
M  V30 13475 C 1256.54 6.67495 -0.0249143 0
M  V30 13476 H 1255.81 0.634697 0.382415 0
M  V30 13477 H 1258.46 1.88795 0.320714 0
M  V30 13478 H 1256.76 2.76526 2.77562 0
M  V30 13479 H 1258.46 3.08946 2.55643 0
M  V30 13480 H 1255.05 4.02576 1.47074 0
M  V30 13481 H 1259.23 4.86772 0.967834 0
M  V30 13482 H 1254.49 6.10717 0.288886 0
M  V30 13483 H 1258.66 6.96092 -0.207027 0
M  V30 13484 H 1256.29 7.5819 -0.552425 0
M  V30 13485 N 1257.86 -0.571685 1.46866 0
M  V30 13486 C 1258.81 -1.67992 1.58263 0
M  V30 13487 C 1259.78 -1.60535 0.426345 0
M  V30 13488 O 1260.97 -1.79584 0.644534 0
M  V30 13489 C 1258.11 -3.06327 1.58927 0
M  V30 13490 C 1257.22 -3.24328 2.85369 0
M  V30 13491 C 1256.35 -4.52976 2.77464 0
M  V30 13492 C 1255.39 -4.64359 3.98795 0
M  V30 13493 N 1254.53 -5.84345 3.89211 0
M  V30 13494 H 1259.37 -1.57589 2.52922 0
M  V30 13495 H 1256.91 -0.767883 1.25467 0
M  V30 13496 H 1258.86 -3.86411 1.57296 0
M  V30 13497 H 1257.49 -3.15601 0.677912 0
M  V30 13498 H 1256.55 -2.37774 2.96931 0
M  V30 13499 H 1257.86 -3.28605 3.7526 0
M  V30 13500 H 1257.01 -5.41303 2.74001 0
M  V30 13501 H 1255.75 -4.51155 1.85231 0
M  V30 13502 H 1254.76 -3.74448 4.02578 0
M  V30 13503 H 1255.98 -4.6795 4.92137 0
M  V30 13504 H 1253.93 -5.835 2.99772 0
M  V30 13505 H 1253.84 -5.89938 4.72768 0
M  V30 13506 H 1255.11 -6.75072 3.89741 0
M  V30 13507 N 1259.34 -1.34755 -0.817236 0
M  V30 13508 C 1260.27 -1.22648 -1.93624 0
M  V30 13509 C 1261.29 -0.152226 -1.62087 0
M  V30 13510 O 1262.48 -0.404578 -1.73855 0
M  V30 13511 C 1259.58 -0.863519 -3.27714 0
M  V30 13512 C 1258.75 -2.03394 -3.87233 0
M  V30 13513 C 1257.81 -1.64846 -4.99712 0
M  V30 13514 O 1256.83 -2.3658 -5.17705 0
M  V30 13515 N 1258.04 -0.565909 -5.77735 0
M  V30 13516 H 1260.8 -2.19051 -2.0454 0
M  V30 13517 H 1258.36 -1.27785 -0.994113 0
M  V30 13518 H 1260.35 -0.58733 -4.00415 0
M  V30 13519 H 1258.92 0.0104987 -3.12598 0
M  V30 13520 H 1258.14 -2.47454 -3.06856 0
M  V30 13521 H 1259.43 -2.81655 -4.23731 0
M  V30 13522 H 1258.83 0.030313 -5.65692 0
M  V30 13523 H 1257.39 -0.349467 -6.50862 0
M  V30 13524 N 1260.82 1.03812 -1.18578 0
M  V30 13525 C 1261.75 2.13802 -0.938665 0
M  V30 13526 C 1262.73 1.69643 0.124575 0
M  V30 13527 O 1263.92 1.94179 -0.0285421 0
M  V30 13528 C 1261.05 3.44154 -0.466392 0
M  V30 13529 C 1260 4.01949 -1.47041 0
M  V30 13530 C 1259.33 5.27811 -0.855558 0
M  V30 13531 C 1260.63 4.37827 -2.84789 0
M  V30 13532 H 1262.32 2.34732 -1.85852 0
M  V30 13533 H 1259.87 1.12808 -0.895007 0
M  V30 13534 H 1261.82 4.20463 -0.280856 0
M  V30 13535 H 1260.54 3.22918 0.489041 0
M  V30 13536 H 1259.2 3.27725 -1.64293 0
M  V30 13537 H 1258.85 5.02886 0.107142 0
M  V30 13538 H 1258.55 5.67441 -1.52592 0
M  V30 13539 H 1260.07 6.06795 -0.680609 0
M  V30 13540 H 1261.49 5.05112 -2.71173 0
M  V30 13541 H 1259.88 4.88514 -3.48532 0
M  V30 13542 H 1260.95 3.47541 -3.38147 0
M  V30 13543 N 1262.3 0.988223 1.22768 0
M  V30 13544 C 1263.25 0.505913 2.22316 0
M  V30 13545 C 1264.23 -0.423346 1.55231 0
M  V30 13546 O 1265.42 -0.250927 1.75212 0
M  V30 13547 C 1262.55 -0.182707 3.42813 0
M  V30 13548 C 1261.64 0.766582 4.17114 0
M  V30 13549 N 1262.03 1.91248 4.6825 0
M  V30 13550 C 1260.33 0.581503 4.42193 0
M  V30 13551 C 1261.03 2.50793 5.2486 0
M  V30 13552 N 1260 1.79106 5.13247 0
M  V30 13553 H 1263.81 1.37994 2.5949 0
M  V30 13554 H 1261.32 0.849888 1.38386 0
M  V30 13555 H 1263.32 -0.545595 4.13315 0
M  V30 13556 H 1261.98 -1.05292 3.07154 0
M  V30 13557 H 1262.99 2.29342 4.64352 0
M  V30 13558 H 1259.67 -0.243039 4.16792 0
M  V30 13559 H 1261.06 3.47609 5.74994 0
M  V30 13560 N 1263.78 -1.38018 0.760839 0
M  V30 13561 C 1264.72 -2.32251 0.127425 0
M  V30 13562 C 1265.72 -1.54387 -0.69722 0
M  V30 13563 O 1266.92 -1.69864 -0.595505 0
M  V30 13564 H 1263.3 -0.751666 0.0224141 0
M  V30 13565 H 1265.27 -2.8327 0.93813 0
M  V30 13566 C 1264.02 -3.39606 -0.745849 0
M  V30 13567 H 1263.34 -3.99618 -0.120679 0
M  V30 13568 H 1264.78 -4.07931 -1.15621 0
M  V30 13569 C 1263.24 -2.78778 -1.89167 0
M  V30 13570 O 1263.77 -2.68661 -2.98637 0
M  V30 13571 N 1261.98 -2.36481 -1.68894 0
M  V30 13572 H 1261.52 -2.4491 -0.798551 0
M  V30 13573 H 1261.48 -1.96126 -2.45728 0
M  V30 13574 N 1265.25 -0.510493 -1.49103 0
M  V30 13575 C 1266.67 -0.167061 -1.58723 0
M  V30 13576 C 1266.87 1.32886 -1.51471 0
M  V30 13577 O 1265.93 2.10559 -1.39359 0
M  V30 13578 C 1267.24 -0.752293 -2.91137 0
M  V30 13579 C 1268.79 -0.719258 -3.04624 0
M  V30 13580 C 1269.26 -1.28272 -4.39671 0
M  V30 13581 N 1270.75 -1.24383 -4.46187 0
M  V30 13582 C 1271.49 -1.6499 -5.4915 0
M  V30 13583 N 1270.98 -2.13235 -6.59168 0
M  V30 13584 N 1272.78 -1.56348 -5.39918 0
M  V30 13585 H 1264.93 -1.48296 -1.5206 0
M  V30 13586 H 1267.19 -0.615683 -0.72086 0
M  V30 13587 H 1266.9 -1.80178 -3.02041 0
M  V30 13588 H 1266.77 -0.218152 -3.76569 0
M  V30 13589 H 1269.16 0.321413 -2.93344 0
M  V30 13590 H 1269.24 -1.29065 -2.20852 0
M  V30 13591 H 1268.88 -2.32222 -4.51703 0
M  V30 13592 H 1268.81 -0.687179 -5.22097 0
M  V30 13593 H 1271.3 -0.890446 -3.67259 0
M  V30 13594 H 1271.62 -2.42266 -7.33844 0
M  V30 13595 H 1269.96 -2.17216 -6.60183 0
M  V30 13596 H 1273.15 -1.18469 -4.52861 0
M  V30 13597 H 1273.33 -1.88317 -6.20033 0
M  V30 13598 N 1266.73 1.55688 -0.24474 0
M  V30 13599 C 1268.15 1.59219 0.110159 0
M  V30 13600 C 1268.35 1.26187 1.57096 0
M  V30 13601 O 1267.4 1.00815 2.31501 0
M  V30 13602 C 1268.72 2.99764 -0.237075 0
M  V30 13603 C 1270.26 3.12475 -0.181198 0
M  V30 13604 C 1270.74 4.55236 -0.502435 0
M  V30 13605 N 1272.23 4.60981 -0.452855 0
M  V30 13606 C 1272.97 5.69418 -0.674605 0
M  V30 13607 N 1272.46 6.86125 -0.959366 0
M  V30 13608 N 1274.25 5.5883 -0.605459 0
M  V30 13609 H 1266.41 1.7543 -1.19741 0
M  V30 13610 H 1268.67 0.816537 -0.481634 0
M  V30 13611 H 1268.37 3.28666 -1.25185 0
M  V30 13612 H 1268.25 3.74662 0.436859 0
M  V30 13613 H 1270.64 2.83355 0.824248 0
M  V30 13614 H 1270.72 2.39857 -0.888952 0
M  V30 13615 H 1270.36 4.85077 -1.50543 0
M  V30 13616 H 1270.29 5.26111 0.226773 0
M  V30 13617 H 1272.78 3.77128 -0.241401 0
M  V30 13618 H 1273.09 7.64699 -1.11605 0
M  V30 13619 H 1271.44 6.87814 -0.996816 0
M  V30 13620 H 1274.63 4.6653 -0.383053 0
M  V30 13621 H 1274.8 6.43268 -0.781673 0
M  V30 13622 N 1268.21 -0.0283989 1.57574 0
M  V30 13623 C 1269.14 -1.02828 2.09639 0
M  V30 13624 C 1270.12 -1.37668 0.999076 0
M  V30 13625 O 1271.31 -1.4654 1.27435 0
M  V30 13626 C 1268.44 -2.329 2.57633 0
M  V30 13627 C 1267.39 -2.12301 3.71635 0
M  V30 13628 C 1266.72 -3.48138 4.05837 0
M  V30 13629 C 1268.02 -1.50864 5.00037 0
M  V30 13630 H 1269.71 -0.594876 2.93431 0
M  V30 13631 H 1267.26 -0.284701 1.41158 0
M  V30 13632 H 1269.21 -3.03179 2.92678 0
M  V30 13633 H 1267.93 -2.78302 1.70926 0
M  V30 13634 H 1266.59 -1.44454 3.3694 0
M  V30 13635 H 1266.24 -3.9119 3.16195 0
M  V30 13636 H 1265.94 -3.3518 4.82626 0
M  V30 13637 H 1267.46 -4.19779 4.43417 0
M  V30 13638 H 1268.88 -2.11062 5.33035 0
M  V30 13639 H 1267.27 -1.48479 5.81441 0
M  V30 13640 H 1268.34 -0.474541 4.82572 0
M  V30 13641 N 1269.69 -1.54705 -0.300681 0
M  V30 13642 C 1270.62 -1.88679 -1.37559 0
M  V30 13643 C 1271.6 -0.74574 -1.52881 0
M  V30 13644 O 1272.78 -1.0015 -1.66384 0
M  V30 13645 C 1269.91 -2.13438 -2.73974 0
M  V30 13646 C 1268.87 -3.29284 -2.73415 0
M  V30 13647 C 1268.19 -3.39462 -4.13122 0
M  V30 13648 C 1269.49 -4.66382 -2.35128 0
M  V30 13649 H 1271.19 -2.78707 -1.09373 0
M  V30 13650 H 1268.73 -1.341 -0.524704 0
M  V30 13651 H 1270.69 -2.35791 -3.49257 0
M  V30 13652 H 1269.41 -1.20181 -3.03684 0
M  V30 13653 H 1268.07 -3.06855 -2.00588 0
M  V30 13654 H 1267.72 -2.43721 -4.4001 0
M  V30 13655 H 1267.42 -4.17334 -4.1365 0
M  V30 13656 H 1268.94 -3.64075 -4.90185 0
M  V30 13657 H 1270.36 -4.88463 -3.00128 0
M  V30 13658 H 1268.75 -5.4697 -2.46867 0
M  V30 13659 H 1269.82 -4.67078 -1.30256 0
M  V30 13660 N 1271.17 0.563888 -1.47167 0
M  V30 13661 C 1272.41 1.32105 -1.5466 0
M  V30 13662 C 1272.77 1.91322 -0.203349 0
M  V30 13663 O 1272.06 1.74546 0.790201 0
M  V30 13664 C 1272.25 2.45678 -2.59571 0
M  V30 13665 C 1272.08 1.97589 -4.03966 0
M  V30 13666 C 1270.85 1.81738 -4.71486 0
M  V30 13667 C 1273.05 1.52432 -4.91191 0
M  V30 13668 N 1271.03 1.27918 -6.00425 0
M  V30 13669 C 1272.4 1.10332 -6.10104 0
M  V30 13670 C 1274.46 1.40422 -4.77688 0
M  V30 13671 C 1273.16 0.574166 -7.17005 0
M  V30 13672 C 1275.19 0.889086 -5.84679 0
M  V30 13673 C 1274.55 0.477976 -7.02776 0
M  V30 13674 H 1270.65 0.475685 -0.620683 0
M  V30 13675 H 1273.23 0.639944 -1.83883 0
M  V30 13676 H 1271.4 3.11328 -2.32227 0
M  V30 13677 H 1273.14 3.12667 -2.56947 0
M  V30 13678 H 1269.89 2.04253 -4.27291 0
M  V30 13679 H 1270.32 1.03116 -6.69101 0
M  V30 13680 H 1274.96 1.7082 -3.86756 0
M  V30 13681 H 1272.68 0.257804 -8.07689 0
M  V30 13682 H 1276.26 0.799807 -5.76276 0
M  V30 13683 H 1275.14 0.0855381 -7.84153 0
M  V30 13684 N 1272.64 1.35187 0.810078 0
M  V30 13685 C 1273.59 1.24366 1.91094 0
M  V30 13686 C 1274.58 0.139718 1.60292 0
M  V30 13687 O 1275.77 0.370609 1.73077 0
M  V30 13688 C 1272.9 1.01434 3.27973 0
M  V30 13689 C 1271.99 2.16203 3.64852 0
M  V30 13690 N 1272.38 3.41408 3.73195 0
M  V30 13691 C 1270.67 2.07512 3.94784 0
M  V30 13692 C 1271.38 4.16858 4.05714 0
M  V30 13693 N 1270.35 3.45579 4.19614 0
M  V30 13694 H 1274.15 2.19232 1.95741 0
M  V30 13695 H 1271.67 1.2761 1.00447 0
M  V30 13696 H 1273.66 0.91771 4.06674 0
M  V30 13697 H 1272.32 0.074495 3.24615 0
M  V30 13698 H 1273.34 3.75802 3.56361 0
M  V30 13699 H 1270.01 1.21362 3.99472 0
M  V30 13700 H 1271.4 5.25039 4.19266 0
M  V30 13701 N 1274.12 -1.03182 1.19127 0
M  V30 13702 C 1275.37 -1.76184 0.990134 0
M  V30 13703 C 1275.69 -1.88986 -0.480546 0
M  V30 13704 O 1274.96 -1.4213 -1.34817 0
M  V30 13705 H 1273.54 -0.652668 0.363364 0
M  V30 13706 H 1276.2 -1.24481 1.49968 0
M  V30 13707 H 1275.3 -2.77119 1.43568 0
M  V30 13708 N 1275.6 -0.99472 -1.22242 0
M  V30 13709 C 1276.83 -0.689809 -1.95592 0
M  V30 13710 C 1277.25 0.739321 -1.72961 0
M  V30 13711 O 1276.61 1.50563 -1.00997 0
M  V30 13712 C 1276.66 -1.00367 -3.46351 0
M  V30 13713 O 1275.76 -0.103326 -4.12271 0
M  V30 13714 H 1275.1 -0.257997 -0.611828 0
M  V30 13715 H 1277.63 -1.33219 -1.55286 0
M  V30 13716 H 1277.64 -0.946259 -3.96875 0
M  V30 13717 H 1276.32 -2.04504 -3.62148 0
M  V30 13718 H 1274.89 -0.216374 -3.72272 0
M  V30 13719 N 1277.08 1.37613 -0.768148 0
M  V30 13720 C 1278.49 1.53202 -0.44737 0
M  V30 13721 C 1278.69 1.72736 1.03752 0
M  V30 13722 O 1277.75 1.74667 1.8234 0
M  V30 13723 C 1279.06 2.7306 -1.25931 0
M  V30 13724 C 1280.61 2.8692 -1.25084 0
M  V30 13725 C 1281.09 4.09757 -2.04605 0
M  V30 13726 N 1282.58 4.16862 -2.0194 0
M  V30 13727 C 1283.31 5.10936 -2.60254 0
M  V30 13728 N 1282.81 6.1059 -3.27341 0
M  V30 13729 N 1284.6 5.03393 -2.50104 0
M  V30 13730 H 1276.75 1.23184 -1.7303 0
M  V30 13731 H 1279.02 0.599541 -0.73434 0
M  V30 13732 H 1278.72 2.65078 -2.31141 0
M  V30 13733 H 1278.6 3.66646 -0.886036 0
M  V30 13734 H 1280.98 2.94375 -0.206736 0
M  V30 13735 H 1281.06 1.94303 -1.66373 0
M  V30 13736 H 1280.71 4.03063 -3.09035 0
M  V30 13737 H 1280.64 5.01481 -1.60701 0
M  V30 13738 H 1283.13 3.455 -1.53096 0
M  V30 13739 H 1283.44 6.78893 -3.6922 0
M  V30 13740 H 1281.79 6.10879 -3.31439 0
M  V30 13741 H 1284.98 4.24483 -1.9731 0
M  V30 13742 H 1285.15 5.76524 -2.95844 0
M  V30 13743 N 1278.56 0.518393 1.4883 0
M  V30 13744 C 1279.78 -0.0162 2.06894 0
M  V30 13745 C 1280.2 -1.29222 1.37649 0
M  V30 13746 O 1279.56 -1.766 0.460288 0
M  V30 13747 C 1279.61 -0.255836 3.60594 0
M  V30 13748 O 1279.33 0.969612 4.27235 0
M  V30 13749 C 1280.83 -0.832117 4.3542 0
M  V30 13750 H 1278.05 0.0282877 0.670403 0
M  V30 13751 H 1280.59 0.720726 1.91379 0
M  V30 13752 H 1278.75 -0.942782 3.75753 0
M  V30 13753 H 1279.16 0.743172 5.19208 0
M  V30 13754 H 1280.64 -0.949279 5.43776 0
M  V30 13755 H 1281.11 -1.83421 3.99066 0
M  V30 13756 H 1281.72 -0.1821 4.2491 0
M  V30 13757 N 1280.03 -1.55556 0.252993 0
M  V30 13758 C 1281.26 -2.03491 -0.374022 0
M  V30 13759 C 1281.68 -1.13208 -1.51094 0
M  V30 13760 O 1281.03 -0.147705 -1.81901 0
M  V30 13761 C 1281.09 -3.50724 -0.876047 0
M  V30 13762 O 1280.81 -4.37569 0.215574 0
M  V30 13763 C 1282.31 -4.14448 -1.57313 0
M  V30 13764 H 1279.53 -0.665183 -0.0881644 0
M  V30 13765 H 1282.07 -2.00964 0.378636 0
M  V30 13766 H 1280.23 -3.53766 -1.57886 0
M  V30 13767 H 1280.64 -5.24235 -0.166625 0
M  V30 13768 H 1282.11 -5.19142 -1.87606 0
M  V30 13769 H 1282.59 -3.61299 -2.49719 0
M  V30 13770 H 1283.2 -4.15346 -0.914735 0
M  V30 13771 N 1281.51 0.0200419 -1.57587 0
M  V30 13772 C 1282.46 1.0362 -2.08244 0
M  V30 13773 C 1283.45 1.36872 -0.998119 0
M  V30 13774 O 1284.66 1.35671 -1.18293 0
M  V30 13775 H 1281.04 0.351731 -0.664673 0
M  V30 13776 H 1283.01 0.583226 -2.92645 0
M  V30 13777 C 1281.76 2.32574 -2.58466 0
M  V30 13778 H 1281.08 2.0785 -3.41523 0
M  V30 13779 H 1282.52 3.02 -2.97611 0
M  V30 13780 C 1280.98 3.02167 -1.48986 0
M  V30 13781 O 1281.51 3.92359 -0.861251 0
M  V30 13782 N 1279.71 2.63649 -1.22219 0
M  V30 13783 H 1279.26 1.90389 -1.73521 0
M  V30 13784 H 1279.22 3.10529 -0.491828 0
M  V30 13785 N 1282.99 1.54862 0.292472 0
M  V30 13786 C 1284.24 1.74548 1.02661 0
M  V30 13787 C 1284.57 0.535895 1.86972 0
M  V30 13788 O 1283.82 -0.482016 1.89671 0
M  V30 13789 C 1284.12 2.99214 1.95463 0
M  V30 13790 C 1283.79 4.32628 1.2706 0
M  V30 13791 C 1282.45 4.68892 1.08138 0
M  V30 13792 C 1284.8 5.15296 0.782278 0
M  V30 13793 C 1282.13 5.85397 0.39081 0
M  V30 13794 C 1284.48 6.32512 0.105392 0
M  V30 13795 C 1283.14 6.67431 -0.0957097 0
M  V30 13796 H 1282.41 0.638717 0.375662 0
M  V30 13797 H 1285.06 1.89125 0.300672 0
M  V30 13798 H 1283.37 2.79454 2.74613 0
M  V30 13799 H 1285.06 3.1164 2.52352 0
M  V30 13800 H 1281.65 4.04113 1.42796 0
M  V30 13801 H 1285.84 4.87771 0.916151 0
M  V30 13802 H 1281.09 6.10989 0.224095 0
M  V30 13803 H 1285.27 6.95833 -0.280845 0
M  V30 13804 H 1282.89 7.57562 -0.63281 0
M  V30 13805 N 1284.47 -0.556076 1.47464 0
M  V30 13806 C 1285.43 -1.64515 1.59586 0
M  V30 13807 C 1286.43 -1.53751 0.470881 0
M  V30 13808 O 1287.62 -1.57889 0.735979 0
M  V30 13809 C 1284.75 -3.0406 1.54143 0
M  V30 13810 H 1285.95 -1.55116 2.56669 0
M  V30 13811 H 1283.5 -0.776087 1.35671 0
M  V30 13812 H 1284.23 -3.18991 0.584395 0
M  V30 13813 H 1284.02 -3.13282 2.3579 0
M  V30 13814 H 1285.51 -3.8329 1.65766 0
M  V30 13815 N 1285.95 -1.35615 -0.802897 0
M  V30 13816 C 1287.2 -1.28839 -1.55708 0
M  V30 13817 C 1287.52 0.135906 -1.94526 0
M  V30 13818 O 1286.79 1.07317 -1.6389 0
M  V30 13819 H 1285.37 -0.473906 -0.577427 0
M  V30 13820 H 1288.03 -1.69759 -0.957487 0
M  V30 13821 H 1287.12 -1.90675 -2.47082 0
M  V30 13822 N 1287.43 1.02549 -1.19673 0
M  V30 13823 C 1288.67 1.75408 -0.995732 0
M  V30 13824 C 1288.99 1.89773 0.473863 0
M  V30 13825 O 1290.19 2.59638 0.793762 0
M  V30 13826 C 1288.65 3.15444 -1.73273 0
M  V30 13827 C 1288.26 3.09121 -3.24266 0
M  V30 13828 C 1290 3.92575 -1.61509 0
M  V30 13829 C 1287.91 4.44109 -3.9054 0
M  V30 13830 H 1286.84 0.657569 -0.368944 0
M  V30 13831 H 1289.49 1.14739 -1.43203 0
M  V30 13832 H 1287.87 3.76601 -1.22425 0
M  V30 13833 H 1289.05 2.57325 -3.82257 0
M  V30 13834 H 1287.36 2.45485 -3.36342 0
M  V30 13835 H 1289.96 4.92428 -2.08372 0
M  V30 13836 H 1290.3 4.12382 -0.569804 0
M  V30 13837 H 1290.83 3.38027 -2.09721 0
M  V30 13838 H 1287.57 4.29506 -4.95182 0
M  V30 13839 H 1287.09 4.95947 -3.37337 0
M  V30 13840 H 1288.77 5.12982 -3.94282 0
M  V30 13841 N 1288.9 1.00119 1.21713 0
M  V30 13842 C 1289.83 0.578504 2.2622 0
M  V30 13843 C 1290.81 -0.398777 1.6536 0
M  V30 13844 O 1292 -0.287596 1.92059 0
M  V30 13845 C 1289.13 -0.0994508 3.47158 0
M  V30 13846 C 1288.08 0.79722 4.2051 0
M  V30 13847 C 1287.41 -0.0141125 5.34698 0
M  V30 13848 C 1288.71 2.09802 4.7831 0
M  V30 13849 H 1290.4 1.45208 2.6183 0
M  V30 13850 H 1287.95 0.699656 1.2586 0
M  V30 13851 H 1289.9 -0.406605 4.19434 0
M  V30 13852 H 1288.63 -1.00763 3.10667 0
M  V30 13853 H 1287.29 1.08814 3.50079 0
M  V30 13854 H 1286.93 -0.923468 4.9445 0
M  V30 13855 H 1286.63 0.582883 5.84702 0
M  V30 13856 H 1288.16 -0.31517 6.09786 0
M  V30 13857 H 1289.57 1.85427 5.42485 0
M  V30 13858 H 1287.97 2.64455 5.38687 0
M  V30 13859 H 1289.04 2.77132 3.97902 0
M  V30 13860 N 1290.38 -1.37203 0.775435 0
M  V30 13861 C 1291.61 -2.04396 0.351737 0
M  V30 13862 C 1292.03 -1.58099 -1.01913 0
M  V30 13863 O 1291.39 -0.742932 -1.65379 0
M  V30 13864 C 1291.44 -3.58283 0.408105 0
M  V30 13865 O 1290.54 -4.08156 -0.590104 0
M  V30 13866 H 1289.88 -0.646451 0.151647 0
M  V30 13867 H 1292.41 -1.75443 1.05265 0
M  V30 13868 H 1292.42 -4.07127 0.266711 0
M  V30 13869 H 1291.1 -3.91335 1.40819 0
M  V30 13870 H 1289.67 -3.70622 -0.411524 0
M  V30 13871 N 1291.86 -0.526279 -1.48553 0
M  V30 13872 C 1292.79 0.275579 -2.27537 0
M  V30 13873 C 1293.8 0.90782 -1.35139 0
M  V30 13874 O 1294.99 0.786887 -1.6022 0
M  V30 13875 C 1292.09 1.40515 -3.08397 0
M  V30 13876 C 1291.27 0.875523 -4.28548 0
M  V30 13877 C 1290.33 1.88577 -4.91249 0
M  V30 13878 O 1289.35 1.44419 -5.50574 0
M  V30 13879 N 1290.55 3.21774 -4.83158 0
M  V30 13880 H 1293.32 -0.401803 -2.96994 0
M  V30 13881 H 1290.88 -0.360378 -1.57838 0
M  V30 13882 H 1292.87 2.07907 -3.47213 0
M  V30 13883 H 1291.44 1.98626 -2.41384 0
M  V30 13884 H 1290.66 0.025728 -3.94192 0
M  V30 13885 H 1291.95 0.500493 -5.06332 0
M  V30 13886 H 1291.35 3.60319 -4.36104 0
M  V30 13887 H 1289.9 3.84808 -5.26085 0
M  V30 13888 N 1293.34 1.5542 -0.261239 0
M  V30 13889 C 1294.59 1.9889 0.358777 0
M  V30 13890 C 1294.91 1.15092 1.57413 0
M  V30 13891 O 1294.18 0.237095 1.9446 0
M  V30 13892 H 1292.76 0.734599 0.13555 0
M  V30 13893 H 1295.42 1.91483 -0.363357 0
M  V30 13894 H 1294.51 3.05082 0.658142 0
M  V30 13895 N 1294.82 -0.0116844 1.57596 0
M  V30 13896 C 1295.75 -1.00599 2.10718 0
M  V30 13897 C 1296.73 -1.36601 1.01362 0
M  V30 13898 O 1297.91 -1.4518 1.28982 0
M  V30 13899 C 1295.04 -2.30155 2.60089 0
M  V30 13900 C 1294 -2.08347 3.73866 0
M  V30 13901 C 1293.32 -3.43814 4.09507 0
M  V30 13902 C 1294.62 -1.45552 5.01609 0
M  V30 13903 H 1296.32 -0.563721 2.94045 0
M  V30 13904 H 1293.86 -0.269714 1.41452 0
M  V30 13905 H 1295.81 -3.00058 2.95877 0
M  V30 13906 H 1294.54 -2.76473 1.73868 0
M  V30 13907 H 1293.2 -1.40872 3.38453 0
M  V30 13908 H 1292.85 -3.87814 3.20326 0
M  V30 13909 H 1292.55 -3.30043 4.86154 0
M  V30 13910 H 1294.07 -4.15052 4.47844 0
M  V30 13911 H 1295.48 -2.05396 5.35243 0
M  V30 13912 H 1293.88 -1.42304 5.82983 0
M  V30 13913 H 1294.95 -0.423331 4.83049 0
M  V30 13914 N 1296.29 -1.55015 -0.284256 0
M  V30 13915 C 1297.71 -1.46603 -0.630845 0
M  V30 13916 C 1297.91 -0.67091 -1.90003 0
M  V30 13917 O 1296.97 -0.185266 -2.51819 0
M  V30 13918 C 1298.28 -2.9072 -0.768268 0
M  V30 13919 C 1299.83 -3.00866 -0.863061 0
M  V30 13920 C 1300.3 -4.46214 -1.03235 0
M  V30 13921 N 1301.79 -4.49994 -1.09815 0
M  V30 13922 C 1302.53 -5.5966 -1.24773 0
M  V30 13923 N 1302.02 -6.79215 -1.36523 0
M  V30 13924 N 1303.82 -5.4738 -1.27795 0
M  V30 13925 H 1295.97 -2.05171 0.549409 0
M  V30 13926 H 1298.23 -0.929915 0.184288 0
M  V30 13927 H 1297.94 -3.51575 0.0936899 0
M  V30 13928 H 1297.81 -3.39096 -1.65209 0
M  V30 13929 H 1300.2 -2.40114 -1.71549 0
M  V30 13930 H 1300.28 -2.5576 0.0451267 0
M  V30 13931 H 1299.92 -5.07564 -0.18462 0
M  V30 13932 H 1299.85 -4.88965 -1.95502 0
M  V30 13933 H 1302.34 -3.63869 -1.0202 0
M  V30 13934 H 1302.66 -7.58547 -1.47739 0
M  V30 13935 H 1301 -6.82048 -1.33548 0
M  V30 13936 H 1304.19 -4.52921 -1.18238 0
M  V30 13937 H 1304.37 -6.32892 -1.39109 0
M  V30 13938 N 1297.77 0.548248 -1.47757 0
M  V30 13939 C 1299.02 1.30139 -1.54099 0
M  V30 13940 C 1299.33 1.9445 -0.2118 0
M  V30 13941 O 1300.54 2.71067 -0.153302 0
M  V30 13942 C 1299 2.36039 -2.71687 0
M  V30 13943 C 1298.6 1.77879 -4.11173 0
M  V30 13944 C 1300.35 3.12478 -2.87329 0
M  V30 13945 C 1298.25 2.81611 -5.20047 0
M  V30 13946 H 1297.18 0.489364 -0.573619 0
M  V30 13947 H 1299.84 0.581237 -1.74051 0
M  V30 13948 H 1298.22 3.11008 -2.45132 0
M  V30 13949 H 1299.39 1.09221 -4.47669 0
M  V30 13950 H 1297.71 1.13994 -4.00493 0
M  V30 13951 H 1300.3 3.89958 -3.65837 0
M  V30 13952 H 1300.65 3.67218 -1.96103 0
M  V30 13953 H 1301.18 2.4462 -3.13697 0
M  V30 13954 H 1297.92 2.31714 -6.13179 0
M  V30 13955 H 1297.44 3.48652 -4.88059 0
M  V30 13956 H 1299.12 3.44938 -5.47382 0
M  V30 13957 N 1299.25 1.36039 0.795694 0
M  V30 13958 C 1300.21 1.29709 1.88966 0
M  V30 13959 C 1301.21 0.206142 1.59473 0
M  V30 13960 O 1302.4 0.460534 1.68002 0
M  V30 13961 C 1299.53 1.00922 3.25619 0
M  V30 13962 H 1300.73 2.26993 1.95995 0
M  V30 13963 H 1298.28 1.2072 0.992791 0
M  V30 13964 H 1299.02 0.0407027 3.24274 0
M  V30 13965 H 1298.8 1.79863 3.48413 0
M  V30 13966 H 1300.29 0.990826 4.05675 0
M  V30 13967 N 1300.73 -1.01913 1.20215 0
M  V30 13968 C 1302.14 -1.5692 1.01159 0
M  V30 13969 C 1302.49 -1.91368 -0.432746 0
M  V30 13970 O 1301.62 -1.71959 -1.31374 0
M  V30 13971 C 1302.21 -2.85125 1.83001 0
M  V30 13972 C 1300.77 -3.36669 1.68318 0
M  V30 13973 C 1299.92 -2.10003 1.81091 0
M  V30 13974 H 1302.87 -0.843246 1.34443 0
M  V30 13975 H 1302.89 -3.56428 1.33188 0
M  V30 13976 H 1302.4 -2.60021 2.88116 0
M  V30 13977 H 1300.5 -3.66739 0.658292 0
M  V30 13978 H 1300.61 -4.09042 2.49442 0
M  V30 13979 H 1298.98 -2.22337 1.24252 0
M  V30 13980 H 1299.76 -1.87329 2.87685 0
M  V30 13981 N 1302.21 -1.00763 -1.2118 0
M  V30 13982 C 1303.62 -0.724746 -1.72059 0
M  V30 13983 C 1303.97 0.757413 -1.80991 0
M  V30 13984 O 1303.09 1.59152 -1.46627 0
M  V30 13985 C 1303.69 -1.30893 -3.12494 0
M  V30 13986 C 1302.25 -1.07511 -3.60719 0
M  V30 13987 C 1301.39 -1.42014 -2.38175 0
M  V30 13988 H 1304.35 -1.17821 -1.0632 0
M  V30 13989 H 1304.37 -0.694919 -3.741 0
M  V30 13990 H 1303.88 -2.38767 -3.05961 0
M  V30 13991 H 1301.98 -0.0136518 -3.72597 0
M  V30 13992 H 1302.09 -1.74885 -4.4604 0
M  V30 13993 H 1300.46 -0.838972 -2.40486 0
M  V30 13994 H 1301.24 -2.50924 -2.34291 0
M  V30 13995 N 1303.68 1.3679 -0.7827 0
M  V30 13996 C 1304.59 2.33928 -0.17747 0
M  V30 13997 C 1305.61 1.60716 0.666802 0
M  V30 13998 O 1306.79 1.92742 0.584162 0
M  V30 13999 C 1303.85 3.39907 0.68294 0
M  V30 14000 C 1302.91 4.28926 -0.179053 0
M  V30 14001 C 1302.15 5.29844 0.640386 0
M  V30 14002 O 1302.37 5.38639 1.87681 0
M  V30 14003 O 1301.3 6.01884 0.0438164 0
M  V30 14004 H 1305.13 2.87439 -0.980441 0
M  V30 14005 H 1302.71 1.39142 -0.54404 0
M  V30 14006 H 1304.6 4.04722 1.17379 0
M  V30 14007 H 1303.27 2.88706 1.46391 0
M  V30 14008 H 1302.18 3.67174 -0.716512 0
M  V30 14009 H 1303.51 4.83461 -0.923377 0
M  V30 14010 N 1305.16 0.53415 1.48272 0
M  V30 14011 C 1306.13 -0.215641 2.28183 0
M  V30 14012 C 1307.13 -0.863966 1.35618 0
M  V30 14013 O 1308.32 -0.723375 1.58471 0
M  V30 14014 C 1305.45 -1.31251 3.1462 0
M  V30 14015 H 1306.64 0.486014 2.95936 0
M  V30 14016 H 1304.19 0.290237 1.53582 0
M  V30 14017 H 1304.93 -2.04729 2.51508 0
M  V30 14018 H 1304.71 -0.852706 3.82716 0
M  V30 14019 H 1306.2 -1.83978 3.74889 0
M  V30 14020 N 1306.64 -1.55279 0.269478 0
M  V30 14021 C 1308.05 -1.85286 -0.229372 0
M  V30 14022 C 1308.4 -1.19148 -1.55879 0
M  V30 14023 O 1307.53 -0.4778 -2.11059 0
M  V30 14024 C 1308.12 -3.3615 -0.42296 0
M  V30 14025 C 1306.68 -3.66301 -0.866047 0
M  V30 14026 C 1305.83 -2.77265 0.0439028 0
M  V30 14027 H 1308.78 -1.509 0.491427 0
M  V30 14028 H 1308.8 -3.5895 -1.26234 0
M  V30 14029 H 1308.31 -3.84258 0.544768 0
M  V30 14030 H 1306.41 -3.23688 -1.84545 0
M  V30 14031 H 1306.53 -4.73851 -0.707274 0
M  V30 14032 H 1304.89 -2.50299 -0.471433 0
M  V30 14033 H 1305.67 -3.28186 1.00741 0
M  V30 14034 N 1308.12 0.00332656 -1.576 0
M  V30 14035 C 1309.36 0.68989 -1.90705 0
M  V30 14036 C 1309.7 1.73608 -0.870291 0
M  V30 14037 O 1308.97 1.94181 0.111416 0
M  V30 14038 C 1309.26 1.33605 -3.34397 0
M  V30 14039 C 1309.11 0.301638 -4.48787 0
M  V30 14040 C 1310.43 2.26313 -3.77453 0
M  V30 14041 H 1307.55 0.249328 -0.693545 0
M  V30 14042 H 1310.19 -0.0472847 -1.89941 0
M  V30 14043 H 1308.34 1.96437 -3.35179 0
M  V30 14044 H 1310.01 -0.326738 -4.60141 0
M  V30 14045 H 1308.25 -0.376451 -4.32163 0
M  V30 14046 H 1308.92 0.792741 -5.46278 0
M  V30 14047 H 1311.4 1.73502 -3.78201 0
M  V30 14048 H 1310.28 2.68492 -4.78752 0
M  V30 14049 H 1310.54 3.14082 -3.11135 0
M  V30 14050 N 1309.6 1.55164 0.276031 0
M  V30 14051 C 1310.82 1.79649 1.02635 0
M  V30 14052 C 1311.24 0.568289 1.80044 0
M  V30 14053 O 1310.6 -0.462569 1.7654 0
M  V30 14054 C 1310.65 3.01974 1.98731 0
M  V30 14055 O 1310.37 4.2005 1.24459 0
M  V30 14056 C 1311.87 3.39039 2.856 0
M  V30 14057 H 1309.09 0.598529 0.303321 0
M  V30 14058 H 1311.63 2.02171 0.307733 0
M  V30 14059 H 1309.79 2.81586 2.6606 0
M  V30 14060 H 1310.2 4.89185 1.89205 0
M  V30 14061 H 1311.68 4.27809 3.48831 0
M  V30 14062 H 1312.15 2.58306 3.55211 0
M  V30 14063 H 1312.76 3.61674 2.23767 0
M  V30 14064 N 1311.07 -0.540404 1.48045 0
M  V30 14065 C 1312.32 -1.29422 1.55224 0
M  V30 14066 C 1312.64 -1.93716 0.223365 0
M  V30 14067 O 1311.91 -1.808 -0.754204 0
M  V30 14068 H 1310.49 -0.480658 0.571819 0
M  V30 14069 H 1313.16 -0.629712 1.84447 0
M  V30 14070 H 1312.25 -2.07897 2.32777 0
M  V30 14071 N 1312.55 -1.36459 -0.788468 0
M  V30 14072 C 1313.78 -1.33703 -1.57502 0
M  V30 14073 C 1314.19 0.0834961 -1.89016 0
M  V30 14074 O 1313.53 1.05107 -1.50659 0
M  V30 14075 C 1313.6 -2.09424 -2.92201 0
M  V30 14076 C 1313.26 -3.58507 -2.83411 0
M  V30 14077 C 1314.26 -4.52736 -2.5559 0
M  V30 14078 C 1311.94 -4.01405 -3.01959 0
M  V30 14079 C 1313.94 -5.87841 -2.46419 0
M  V30 14080 C 1311.62 -5.366 -2.92409 0
M  V30 14081 C 1312.62 -6.29631 -2.64677 0
M  V30 14082 O 1312.31 -7.62343 -2.55124 0
M  V30 14083 H 1312.04 -0.460221 -0.495149 0
M  V30 14084 H 1314.59 -1.80163 -0.986437 0
M  V30 14085 H 1312.82 -1.5763 -3.53114 0
M  V30 14086 H 1314.51 -1.99515 -3.53481 0
M  V30 14087 H 1315.28 -4.20906 -2.40962 0
M  V30 14088 H 1311.16 -3.29367 -3.2255 0
M  V30 14089 H 1314.7 -6.60423 -2.24694 0
M  V30 14090 H 1310.6 -5.68038 -3.066 0
M  V30 14091 H 1311.37 -7.72476 -2.70598 0
M  V30 14092 N 1314.03 1.01274 -1.20754 0
M  V30 14093 C 1314.96 2.09567 -0.903157 0
M  V30 14094 C 1315.94 1.61941 0.146287 0
M  V30 14095 O 1317.13 1.8849 0.0190177 0
M  V30 14096 C 1314.25 3.36838 -0.354682 0
M  V30 14097 C 1313.3 4.03361 -1.38572 0
M  V30 14098 S 1314.13 4.46775 -2.95216 0
M  V30 14099 C 1315.29 5.77242 -2.41955 0
M  V30 14100 H 1315.52 2.35063 -1.82024 0
M  V30 14101 H 1313.05 1.14444 -1.03643 0
M  V30 14102 H 1315.01 4.10476 -0.0447882 0
M  V30 14103 H 1313.67 3.09407 0.540962 0
M  V30 14104 H 1312.87 4.94939 -0.951408 0
M  V30 14105 H 1312.47 3.35964 -1.64329 0
M  V30 14106 H 1314.76 6.52608 -1.81958 0
M  V30 14107 H 1315.7 6.25475 -3.31944 0
M  V30 14108 H 1316.11 5.3369 -1.83942 0
M  V30 14109 N 1315.51 1.01404 1.20644 0
M  V30 14110 C 1316.76 0.701909 1.89946 0
M  V30 14111 C 1317.08 -0.768212 1.78686 0
M  V30 14112 O 1316.34 -1.57348 1.16363 0
M  V30 14113 C 1316.64 1.07995 3.40693 0
M  V30 14114 C 1316.3 2.54585 3.72152 0
M  V30 14115 C 1314.97 2.94639 3.80449 0
M  V30 14116 C 1317.32 3.49497 3.86654 0
M  V30 14117 C 1314.65 4.2855 4.00702 0
M  V30 14118 C 1317 4.83093 4.08416 0
M  V30 14119 C 1315.66 5.22857 4.14942 0
M  V30 14120 H 1314.93 0.256847 0.695062 0
M  V30 14121 H 1317.58 1.27415 1.4296 0
M  V30 14122 H 1315.88 0.426089 3.89476 0
M  V30 14123 H 1317.58 0.816176 3.92606 0
M  V30 14124 H 1314.17 2.22548 3.66292 0
M  V30 14125 H 1318.36 3.19713 3.79602 0
M  V30 14126 H 1313.61 4.58916 4.03988 0
M  V30 14127 H 1317.79 5.56565 4.18579 0
M  V30 14128 H 1315.41 6.26634 4.30388 0
M  V30 14129 N 1316.99 -1.36373 0.789944 0
M  V30 14130 C 1318.24 -1.98834 0.361866 0
M  V30 14131 C 1318.56 -1.63006 -1.07024 0
M  V30 14132 O 1317.83 -0.904312 -1.73779 0
M  V30 14133 H 1316.41 -0.735457 0.130812 0
M  V30 14134 H 1319.07 -1.66561 1.0121 0
M  V30 14135 H 1318.16 -3.08778 0.454122 0
M  V30 14136 N 1318.47 -0.542005 -1.47987 0
M  V30 14137 C 1319.41 0.214151 -2.29804 0
M  V30 14138 C 1320.38 0.922625 -1.38119 0
M  V30 14139 O 1321.57 0.921301 -1.67083 0
M  V30 14140 C 1318.71 1.24768 -3.21756 0
M  V30 14141 C 1317.82 0.546824 -4.28525 0
M  V30 14142 C 1316.96 1.56432 -5.07644 0
M  V30 14143 C 1315.99 0.847598 -6.06203 0
M  V30 14144 N 1315.13 1.81121 -6.78336 0
M  V30 14145 H 1319.97 -0.489707 -2.93949 0
M  V30 14146 H 1317.51 -0.253331 -1.44902 0
M  V30 14147 H 1319.47 1.85933 -3.73477 0
M  V30 14148 H 1318.1 1.91976 -2.59509 0
M  V30 14149 H 1317.15 -0.179026 -3.79978 0
M  V30 14150 H 1318.46 -0.0153623 -4.98798 0
M  V30 14151 H 1317.61 2.24992 -5.63439 0
M  V30 14152 H 1316.35 2.16041 -4.37238 0
M  V30 14153 H 1315.36 0.147989 -5.49601 0
M  V30 14154 H 1316.58 0.257454 -6.78612 0
M  V30 14155 H 1314.53 2.39615 -6.10672 0
M  V30 14156 H 1314.45 1.30077 -7.44725 0
M  V30 14157 H 1315.71 2.48842 -7.38714 0
M  V30 14158 N 1319.94 1.55134 -0.277709 0
M  V30 14159 C 1321.19 1.99259 0.337662 0
M  V30 14160 C 1321.51 1.16755 1.56183 0
M  V30 14161 O 1320.78 0.257707 1.94198 0
M  V30 14162 H 1319.36 0.735995 0.127751 0
M  V30 14163 H 1322.02 1.91087 -0.383646 0
M  V30 14164 H 1321.12 3.05763 0.625747 0
M  V30 14165 N 1321.42 0.00503138 1.57599 0
M  V30 14166 C 1322.67 -0.677979 1.89964 0
M  V30 14167 C 1322.98 -1.74657 0.88059 0
M  V30 14168 O 1324.19 -2.48455 1.09463 0
M  V30 14169 C 1322.65 -1.25708 3.37232 0
M  V30 14170 C 1322.25 -0.223045 4.47444 0
M  V30 14171 C 1324 -1.91799 3.787 0
M  V30 14172 C 1321.9 -0.812416 5.85793 0
M  V30 14173 H 1320.83 -0.256991 0.708852 0
M  V30 14174 H 1323.49 0.0663988 1.8338 0
M  V30 14175 H 1321.87 -2.05228 3.3867 0
M  V30 14176 H 1323.04 0.54794 4.57531 0
M  V30 14177 H 1321.36 0.337714 4.15028 0
M  V30 14178 H 1323.95 -2.36808 4.79402 0
M  V30 14179 H 1324.3 -2.75067 3.1248 0
M  V30 14180 H 1324.83 -1.19004 3.79583 0
M  V30 14181 H 1321.57 -0.0184031 6.55497 0
M  V30 14182 H 1321.09 -1.55244 5.79361 0
M  V30 14183 H 1322.77 -1.30952 6.33609 0
M  V30 14184 N 1322.9 -1.55308 -0.267798 0
M  V30 14185 C 1324.13 -1.79929 -1.01533 0
M  V30 14186 C 1324.54 -0.57545 -1.80237 0
M  V30 14187 O 1323.88 0.465072 -1.77715 0
M  V30 14188 C 1323.94 -2.97568 -2.01726 0
M  V30 14189 C 1323.61 -4.34407 -1.41912 0
M  V30 14190 C 1324.6 -5.13197 -0.832151 0
M  V30 14191 C 1322.29 -4.81074 -1.44476 0
M  V30 14192 C 1324.28 -6.3679 -0.278781 0
M  V30 14193 C 1321.97 -6.04621 -0.887535 0
M  V30 14194 C 1322.97 -6.82316 -0.305548 0
M  V30 14195 O 1322.66 -8.03532 0.243133 0
M  V30 14196 H 1322.39 -0.603082 -0.305398 0
M  V30 14197 H 1324.94 -2.03162 -0.302378 0
M  V30 14198 H 1323.17 -2.7004 -2.76795 0
M  V30 14199 H 1324.86 -3.09466 -2.62651 0
M  V30 14200 H 1325.63 -4.78273 -0.805 0
M  V30 14201 H 1321.51 -4.20604 -1.88714 0
M  V30 14202 H 1325.05 -6.97378 0.176117 0
M  V30 14203 H 1320.95 -6.39026 -0.911943 0
M  V30 14204 H 1321.71 -8.18392 0.132991 0
M  V30 14205 N 1324.38 0.532545 -1.4833 0
M  V30 14206 C 1325.62 1.28851 -1.56217 0
M  V30 14207 C 1325.95 1.93076 -0.234967 0
M  V30 14208 O 1325.21 1.79722 0.774508 0
M  V30 14209 C 1325.51 2.40117 -2.64724 0
M  V30 14210 C 1325.17 1.93562 -4.0724 0
M  V30 14211 C 1323.83 1.80583 -4.46031 0
M  V30 14212 C 1326.19 1.58349 -4.96563 0
M  V30 14213 C 1323.51 1.30722 -5.71952 0
M  V30 14214 C 1325.87 1.09951 -6.22972 0
M  V30 14215 C 1324.53 0.955866 -6.60621 0
M  V30 14216 H 1323.8 0.4715 -0.571637 0
M  V30 14217 H 1326.45 0.594564 -1.82036 0
M  V30 14218 H 1324.75 3.15171 -2.32754 0
M  V30 14219 H 1326.45 2.98252 -2.68042 0
M  V30 14220 H 1323.04 2.04614 -3.76605 0
M  V30 14221 H 1327.22 1.67237 -4.67274 0
M  V30 14222 H 1322.48 1.18286 -5.99849 0
M  V30 14223 H 1326.65 0.817736 -6.91582 0
M  V30 14224 H 1324.28 0.567302 -7.5808 0
M  V30 14225 N 1325.86 1.36875 0.78122 0
M  V30 14226 C 1326.82 1.31706 1.8758 0
M  V30 14227 C 1327.82 0.223044 1.59246 0
M  V30 14228 O 1329.01 0.478327 1.67504 0
M  V30 14229 C 1326.14 1.0437 3.2453 0
M  V30 14230 H 1327.33 2.29059 1.93576 0
M  V30 14231 H 1324.89 1.21766 0.979931 0
M  V30 14232 H 1325.62 0.0750941 3.24213 0
M  V30 14233 H 1325.41 1.83548 3.46486 0
M  V30 14234 H 1326.9 1.0338 4.04602 0
M  V30 14235 N 1327.33 -1.00632 1.21289 0
M  V30 14236 C 1328.61 -1.71635 0.938124 0
M  V30 14237 C 1328.99 -2.03798 -0.550416 0
M  V30 14238 O 1328.34 -1.71065 -1.5149 0
M  V30 14239 C 1328.55 -2.97674 1.82184 0
M  V30 14240 C 1329.9 -3.7073 2.06989 0
M  V30 14241 O 1330.92 -3.07653 1.79522 0
M  V30 14242 O 1329.78 -4.84183 2.53435 0
M  V30 14243 H 1326.87 -0.748506 0.351664 0
M  V30 14244 H 1329.42 -1.06387 1.32212 0
M  V30 14245 H 1328.19 -2.70306 2.82931 0
M  V30 14246 H 1327.81 -3.70663 1.43858 0
M  V30 14247 N 1328.81 -1.02043 -1.20104 0
M  V30 14248 C 1329.74 -0.538603 -2.21753 0
M  V30 14249 C 1330.72 0.416016 -1.57188 0
M  V30 14250 O 1331.91 0.335114 -1.85497 0
M  V30 14251 C 1329.03 0.215706 -3.38012 0
M  V30 14252 C 1328.08 -0.68905 -4.20897 0
M  V30 14253 S 1328.91 -2.16041 -4.89986 0
M  V30 14254 C 1330.07 -1.41637 -6.09664 0
M  V30 14255 H 1330.3 -1.39988 -2.6228 0
M  V30 14256 H 1327.83 -0.829641 -1.30216 0
M  V30 14257 H 1329.79 0.644798 -4.05404 0
M  V30 14258 H 1328.45 1.0526 -2.95938 0
M  V30 14259 H 1327.65 -0.107195 -5.03886 0
M  V30 14260 H 1327.25 -1.05609 -3.5878 0
M  V30 14261 H 1329.54 -0.698414 -6.73891 0
M  V30 14262 H 1330.48 -2.22254 -6.72316 0
M  V30 14263 H 1330.89 -0.917572 -5.56993 0
M  V30 14264 N 1330.29 1.35952 -0.797165 0
M  V30 14265 C 1331.54 1.99327 -0.373695 0
M  V30 14266 C 1331.87 1.63111 1.05396 0
M  V30 14267 O 1331.14 0.889736 1.72956 0
M  V30 14268 C 1331.43 3.5593 -0.54641 0
M  V30 14269 C 1331.28 4.01975 -2.01832 0
M  V30 14270 C 1332.6 4.40087 0.0337694 0
M  V30 14271 H 1329.72 0.724107 -0.137254 0
M  V30 14272 H 1332.36 1.61248 -1.00495 0
M  V30 14273 H 1330.51 3.88499 -0.00903959 0
M  V30 14274 H 1332.18 3.79859 -2.61735 0
M  V30 14275 H 1330.43 3.5323 -2.51815 0
M  V30 14276 H 1331.1 5.109 -2.09009 0
M  V30 14277 H 1333.57 4.13923 -0.425039 0
M  V30 14278 H 1332.45 5.48775 -0.117054 0
M  V30 14279 H 1332.71 4.27504 1.12661 0
M  V30 14280 N 1331.77 0.549846 1.47697 0
M  V30 14281 C 1332.99 0.0256819 2.07384 0
M  V30 14282 C 1333.42 -1.25525 1.4009 0
M  V30 14283 O 1332.78 -1.7501 0.473406 0
M  V30 14284 C 1332.82 -0.160835 3.60241 0
M  V30 14285 O 1331.93 -1.22509 3.93783 0
M  V30 14286 H 1331.27 0.0480204 0.662261 0
M  V30 14287 H 1333.8 0.763429 1.89823 0
M  V30 14288 H 1333.81 -0.377337 4.06251 0
M  V30 14289 H 1332.48 0.774774 4.0862 0
M  V30 14290 H 1331.06 -0.98967 3.59527 0
M  V30 14291 N 1333.25 -1.54984 0.285932 0
M  V30 14292 C 1334.19 -2.2295 -0.596822 0
M  V30 14293 C 1335.16 -1.20674 -1.14136 0
M  V30 14294 O 1336.35 -1.49249 -1.18867 0
M  V30 14295 C 1333.49 -2.9625 -1.77002 0
M  V30 14296 C 1332.6 -4.13268 -1.25831 0
M  V30 14297 C 1331.74 -4.74187 -2.39417 0
M  V30 14298 C 1330.78 -5.83377 -1.85304 0
M  V30 14299 N 1329.91 -6.38313 -2.92405 0
M  V30 14300 H 1334.75 -2.97998 -0.0106104 0
M  V30 14301 H 1332.29 -1.47099 0.00653041 0
M  V30 14302 H 1334.25 -3.36971 -2.4598 0
M  V30 14303 H 1332.88 -2.23606 -2.3281 0
M  V30 14304 H 1331.93 -3.77593 -0.461278 0
M  V30 14305 H 1333.24 -4.91979 -0.822049 0
M  V30 14306 H 1332.4 -5.17683 -3.16369 0
M  V30 14307 H 1331.13 -3.94775 -2.86364 0
M  V30 14308 H 1330.14 -5.3932 -1.06835 0
M  V30 14309 H 1331.36 -6.64664 -1.3928 0
M  V30 14310 H 1329.31 -5.61791 -3.38713 0
M  V30 14311 H 1329.23 -7.12328 -2.53228 0
M  V30 14312 H 1330.5 -6.86468 -3.69299 0
M  V30 14313 N 1334.72 -0.0133892 -1.57594 0
M  V30 14314 C 1335.95 0.682855 -1.95836 0
M  V30 14315 C 1336.37 1.65763 -0.889049 0
M  V30 14316 O 1335.73 1.80665 0.151585 0
M  V30 14317 C 1335.78 1.37931 -3.33178 0
M  V30 14318 O 1334.88 2.49416 -3.28429 0
M  V30 14319 H 1334.23 0.180629 -0.638959 0
M  V30 14320 H 1336.76 -0.0705644 -2.04478 0
M  V30 14321 H 1336.77 1.73969 -3.69051 0
M  V30 14322 H 1335.44 0.664675 -4.10554 0
M  V30 14323 H 1334.02 2.15606 -3.04251 0
M  V30 14324 N 1336.2 1.55448 0.259558 0
M  V30 14325 C 1337.17 1.88459 1.30445 0
M  V30 14326 C 1338.17 0.760096 1.41701 0
M  V30 14327 O 1339.36 1.02819 1.4062 0
M  V30 14328 C 1336.49 2.10181 2.68397 0
M  V30 14329 H 1337.68 2.81877 1.02398 0
M  V30 14330 H 1335.23 1.48145 0.498262 0
M  V30 14331 H 1335.97 1.19189 3.01603 0
M  V30 14332 H 1335.75 2.92066 2.6161 0
M  V30 14333 H 1337.24 2.36947 3.43869 0
M  V30 14334 N 1337.68 -0.524672 1.4861 0
M  V30 14335 C 1338.63 -1.64965 1.6398 0
M  V30 14336 C 1339.62 -1.61663 0.506118 0
M  V30 14337 O 1340.83 -1.66456 0.685013 0
M  V30 14338 H 1337.2 -0.546419 0.516653 0
M  V30 14339 H 1339.17 -1.49146 2.58453 0
M  V30 14340 C 1337.92 -3.03215 1.70165 0
M  V30 14341 H 1337.25 -3.06451 2.56764 0
M  V30 14342 H 1338.69 -3.8153 1.84962 0
M  V30 14343 C 1337.15 -3.33996 0.44143 0
M  V30 14344 O 1337.68 -3.99246 -0.443356 0
M  V30 14345 N 1335.88 -2.88925 0.311518 0
M  V30 14346 H 1335.43 -2.36003 1.0325 0
M  V30 14347 H 1335.39 -3.09889 -0.530655 0
M  V30 14348 N 1339.16 -1.37287 -0.77395 0
M  V30 14349 C 1340.39 -1.35366 -1.56075 0
M  V30 14350 C 1340.8 0.0634437 -1.89094 0
M  V30 14351 O 1340.14 1.03503 -1.51766 0
M  V30 14352 C 1340.2 -2.12512 -2.89964 0
M  V30 14353 C 1339.87 -3.61492 -2.79593 0
M  V30 14354 C 1340.86 -4.55421 -2.50774 0
M  V30 14355 C 1338.55 -4.04585 -2.97684 0
M  V30 14356 C 1340.54 -5.90421 -2.4017 0
M  V30 14357 C 1338.23 -5.39672 -2.86701 0
M  V30 14358 C 1339.23 -6.32403 -2.57984 0
M  V30 14359 O 1338.91 -7.65006 -2.47024 0
M  V30 14360 H 1338.65 -0.465447 -0.49024 0
M  V30 14361 H 1341.2 -1.81199 -0.967273 0
M  V30 14362 H 1339.43 -1.61366 -3.51423 0
M  V30 14363 H 1341.12 -2.03253 -3.51345 0
M  V30 14364 H 1341.89 -4.23438 -2.36485 0
M  V30 14365 H 1337.76 -3.32769 -3.19038 0
M  V30 14366 H 1341.31 -6.62769 -2.17676 0
M  V30 14367 H 1337.21 -5.71258 -3.00558 0
M  V30 14368 H 1337.97 -7.75302 -2.6239 0
M  V30 14369 N 1340.64 0.999871 -1.21821 0
M  V30 14370 C 1341.88 1.75366 -1.05005 0
M  V30 14371 C 1342.24 1.87601 0.408656 0
M  V30 14372 O 1343.44 2.59593 0.697479 0
M  V30 14373 C 1341.71 3.12525 -1.73387 0
M  V30 14374 S 1343.27 4.0373 -1.71894 0
M  V30 14375 H 1340.09 0.603334 -0.376177 0
M  V30 14376 H 1342.69 1.19598 -1.5465 0
M  V30 14377 H 1341.4 3.01258 -2.78697 0
M  V30 14378 H 1340.93 3.73365 -1.23944 0
M  V30 14379 H 1342.94 4.90288 -0.763668 0
M  V30 14380 N 1342.11 1.02678 1.19562 0
M  V30 14381 C 1343.06 0.576385 2.20594 0
M  V30 14382 C 1344.05 -0.373747 1.56499 0
M  V30 14383 O 1345.24 -0.195058 1.75922 0
M  V30 14384 C 1342.37 -0.0735507 3.43221 0
M  V30 14385 C 1341.46 0.898896 4.14464 0
M  V30 14386 N 1341.85 2.06048 4.61928 0
M  V30 14387 C 1340.14 0.721889 4.40119 0
M  V30 14388 C 1340.85 2.67364 5.16615 0
M  V30 14389 N 1339.82 1.95344 5.07289 0
M  V30 14390 H 1343.62 1.46179 2.54968 0
M  V30 14391 H 1341.14 0.893484 1.35612 0
M  V30 14392 H 1343.13 -0.413825 4.14841 0
M  V30 14393 H 1341.79 -0.954671 3.10348 0
M  V30 14394 H 1342.81 2.43999 4.5682 0
M  V30 14395 H 1339.48 -0.110317 4.17354 0
M  V30 14396 H 1340.87 3.65726 5.63644 0
M  V30 14397 N 1343.59 -1.35528 0.804364 0
M  V30 14398 C 1344.82 -2.03073 0.396091 0
M  V30 14399 C 1345.24 -1.60623 -0.992252 0
M  V30 14400 O 1344.59 -0.802718 -1.63898 0
M  V30 14401 C 1344.64 -3.58467 0.467301 0
M  V30 14402 O 1344.36 -3.99373 1.80091 0
M  V30 14403 C 1345.87 -4.4327 0.0515549 0
M  V30 14404 H 1343.09 -0.651346 0.161212 0
M  V30 14405 H 1345.63 -1.73195 1.08737 0
M  V30 14406 H 1343.78 -3.87001 -0.175703 0
M  V30 14407 H 1344.2 -4.94013 1.76214 0
M  V30 14408 H 1345.67 -5.51789 0.152499 0
M  V30 14409 H 1346.15 -4.27597 -1.00286 0
M  V30 14410 H 1346.76 -4.20027 0.667628 0
M  V30 14411 N 1345.07 -0.557671 -1.47404 0
M  V30 14412 C 1346.3 -0.0366797 -2.07368 0
M  V30 14413 C 1346.72 1.2478 -1.40754 0
M  V30 14414 O 1346.08 1.74757 -0.48268 0
M  V30 14415 C 1346.13 0.141728 -3.60321 0
M  V30 14416 O 1345.23 1.20419 -3.94427 0
M  V30 14417 H 1344.57 -0.0515319 -0.661997 0
M  V30 14418 H 1347.1 -0.773485 -1.89416 0
M  V30 14419 H 1347.11 0.355787 -4.06446 0
M  V30 14420 H 1345.79 -0.796433 -4.08203 0
M  V30 14421 H 1344.36 0.970589 -3.60047 0
M  V30 14422 N 1346.55 1.54831 -0.294147 0
M  V30 14423 C 1347.48 2.20696 0.61854 0
M  V30 14424 C 1348.49 1.19754 1.10285 0
M  V30 14425 O 1349.68 1.46383 1.02148 0
M  V30 14426 C 1346.78 2.83429 1.85798 0
M  V30 14427 C 1345.96 4.10239 1.51731 0
M  V30 14428 C 1345.02 4.56841 2.61119 0
M  V30 14429 O 1344.04 5.22194 2.26501 0
M  V30 14430 N 1345.24 4.2858 3.91534 0
M  V30 14431 H 1348.01 2.9965 0.054714 0
M  V30 14432 H 1345.57 1.61484 -0.116052 0
M  V30 14433 H 1347.56 3.11541 2.5831 0
M  V30 14434 H 1346.13 2.08356 2.33038 0
M  V30 14435 H 1345.35 3.89212 0.625142 0
M  V30 14436 H 1346.64 4.92824 1.26499 0
M  V30 14437 H 1346.04 3.7621 4.22472 0
M  V30 14438 H 1344.59 4.61418 4.60366 0
M  V30 14439 N 1348.03 0.0217466 1.57585 0
M  V30 14440 C 1349.28 -0.657187 1.91116 0
M  V30 14441 C 1349.6 -1.7309 0.898039 0
M  V30 14442 O 1348.87 -1.95803 -0.0615116 0
M  V30 14443 H 1347.45 -0.245732 0.705425 0
M  V30 14444 H 1350.11 0.0678096 1.94782 0
M  V30 14445 H 1349.2 -1.11462 2.91518 0
M  V30 14446 N 1349.51 -1.55583 -0.251311 0
M  V30 14447 C 1350.78 -1.67954 -1.00254 0
M  V30 14448 C 1351.16 -0.560326 -2.03528 0
M  V30 14449 O 1350.51 0.436811 -2.24286 0
M  V30 14450 C 1350.72 -3.08075 -1.63985 0
M  V30 14451 C 1352.07 -3.66531 -2.14336 0
M  V30 14452 O 1353.09 -3.10846 -1.73934 0
M  V30 14453 O 1351.95 -4.64141 -2.88506 0
M  V30 14454 H 1349.05 -0.682952 -0.466375 0
M  V30 14455 H 1351.59 -1.67916 -0.245447 0
M  V30 14456 H 1350.36 -3.80983 -0.892627 0
M  V30 14457 H 1349.99 -3.12105 -2.46325 0
M  V30 14458 N 1350.98 0.516783 -1.48886 0
M  V30 14459 C 1352.39 1.09856 -1.50959 0
M  V30 14460 C 1352.75 1.94092 -0.28681 0
M  V30 14461 O 1351.87 2.07774 0.604877 0
M  V30 14462 C 1352.47 1.999 -2.73542 0
M  V30 14463 C 1351.02 2.5327 -2.78444 0
M  V30 14464 C 1350.17 1.30526 -2.44659 0
M  V30 14465 H 1353.12 0.301415 -1.55811 0
M  V30 14466 H 1353.14 2.84373 -2.52809 0
M  V30 14467 H 1352.66 1.38564 -3.62521 0
M  V30 14468 H 1350.76 3.1829 -1.93707 0
M  V30 14469 H 1350.87 2.91502 -3.80215 0
M  V30 14470 H 1349.23 1.62536 -1.96097 0
M  V30 14471 H 1350.02 0.709223 -3.35894 0
M  V30 14472 N 1352.46 1.37696 0.766659 0
M  V30 14473 C 1353.71 1.32507 1.52069 0
M  V30 14474 C 1354.02 -0.0864967 1.95409 0
M  V30 14475 O 1355.23 -0.260877 2.70244 0
M  V30 14476 C 1353.69 2.32614 2.74625 0
M  V30 14477 C 1353.29 3.79325 2.38363 0
M  V30 14478 C 1355.04 2.36445 3.52554 0
M  V30 14479 C 1352.94 4.7115 3.57451 0
M  V30 14480 H 1351.87 0.492491 0.570937 0
M  V30 14481 H 1354.53 1.63183 0.839268 0
M  V30 14482 H 1352.91 1.94963 3.44682 0
M  V30 14483 H 1354.08 4.25841 1.76056 0
M  V30 14484 H 1352.4 3.78488 1.73597 0
M  V30 14485 H 1354.99 3.02252 4.41076 0
M  V30 14486 H 1355.34 1.37953 3.92778 0
M  V30 14487 H 1355.87 2.72829 2.89498 0
M  V30 14488 H 1352.61 5.70789 3.22304 0
M  V30 14489 H 1352.13 4.29335 4.18846 0
M  V30 14490 H 1353.81 4.88532 4.242 0
M  V30 14491 N 1353.94 -0.993397 1.22349 0
M  V30 14492 C 1355.19 -1.72945 1.04568 0
M  V30 14493 C 1355.51 -1.90419 -0.420178 0
M  V30 14494 O 1354.78 -1.46348 -1.30227 0
M  V30 14495 H 1353.36 -0.640777 0.383945 0
M  V30 14496 H 1356.02 -1.19647 1.53853 0
M  V30 14497 H 1355.12 -2.72411 1.52311 0
M  V30 14498 N 1355.42 -1.03311 -1.19015 0
M  V30 14499 C 1356.35 -0.638279 -2.24607 0
M  V30 14500 C 1357.33 0.354795 -1.66359 0
M  V30 14501 O 1358.51 0.236574 -1.92754 0
M  V30 14502 C 1355.64 0.00737316 -3.47299 0
M  V30 14503 C 1354.6 -0.908431 -4.18248 0
M  V30 14504 C 1353.92 -0.127658 -5.34548 0
M  V30 14505 C 1355.22 -2.2241 -4.72579 0
M  V30 14506 H 1356.92 -1.52099 -2.57888 0
M  V30 14507 H 1354.46 -0.732779 -1.23961 0
M  V30 14508 H 1356.42 0.295256 -4.20364 0
M  V30 14509 H 1355.14 0.924912 -3.1323 0
M  V30 14510 H 1353.8 -1.18058 -3.47071 0
M  V30 14511 H 1353.45 0.792048 -4.96725 0
M  V30 14512 H 1353.15 -0.737702 -5.82951 0
M  V30 14513 H 1354.67 0.153385 -6.10407 0
M  V30 14514 H 1356.09 -1.99745 -5.37378 0
M  V30 14515 H 1354.48 -2.78644 -5.31486 0
M  V30 14516 H 1355.55 -2.87584 -3.90415 0
M  V30 14517 N 1356.9 1.35099 -0.81154 0
M  V30 14518 C 1358.14 1.9788 -0.390695 0
M  V30 14519 C 1358.46 1.6509 1.04903 0
M  V30 14520 O 1359.66 2.21273 1.57324 0
M  V30 14521 C 1358.12 3.54025 -0.647632 0
M  V30 14522 C 1357.73 3.9572 -2.10023 0
M  V30 14523 C 1359.47 4.23492 -0.29239 0
M  V30 14524 C 1357.38 5.44731 -2.30266 0
M  V30 14525 H 1356.31 0.740441 -0.14235 0
M  V30 14526 H 1358.96 1.54098 -0.996294 0
M  V30 14527 H 1357.34 3.9599 0.0279838 0
M  V30 14528 H 1358.52 3.64893 -2.81407 0
M  V30 14529 H 1356.83 3.39157 -2.41581 0
M  V30 14530 H 1359.43 5.33035 -0.421618 0
M  V30 14531 H 1359.77 4.09268 0.76195 0
M  V30 14532 H 1360.3 3.86965 -0.922122 0
M  V30 14533 H 1357.04 5.63928 -3.34163 0
M  V30 14534 H 1356.56 5.7711 -1.63413 0
M  V30 14535 H 1358.24 6.1126 -2.12062 0
M  V30 14536 N 1358.37 0.56548 1.47106 0
M  V30 14537 C 1359.3 -0.16567 2.32912 0
M  V30 14538 C 1360.28 -0.900678 1.44298 0
M  V30 14539 O 1361.47 -0.879523 1.73142 0
M  V30 14540 C 1358.6 -1.19092 3.26243 0
M  V30 14541 C 1357.55 -0.571849 4.24163 0
M  V30 14542 C 1356.88 -1.70233 5.06878 0
M  V30 14543 C 1358.18 0.479785 5.20092 0
M  V30 14544 H 1359.87 0.550705 2.94292 0
M  V30 14545 H 1357.42 0.266284 1.41517 0
M  V30 14546 H 1359.37 -1.71064 3.85117 0
M  V30 14547 H 1358.1 -1.93734 2.62934 0
M  V30 14548 H 1356.76 -0.073353 3.66527 0
M  V30 14549 H 1356.4 -2.438 4.39967 0
M  V30 14550 H 1356.1 -1.29384 5.73178 0
M  V30 14551 H 1357.63 -2.22515 5.68612 0
M  V30 14552 H 1359.04 0.0458042 5.73282 0
M  V30 14553 H 1357.44 0.807615 5.94641 0
M  V30 14554 H 1358.51 1.37259 4.65068 0
M  V30 14555 N 1359.85 -1.54672 0.302354 0
M  V30 14556 C 1360.78 -2.2653 -0.566265 0
M  V30 14557 C 1361.76 -1.26532 -1.13682 0
M  V30 14558 O 1362.95 -1.55307 -1.1659 0
M  V30 14559 C 1360.08 -3.00709 -1.73757 0
M  V30 14560 C 1359.03 -4.07865 -1.29731 0
M  V30 14561 C 1358.36 -4.69767 -2.55388 0
M  V30 14562 C 1359.66 -5.20547 -0.427567 0
M  V30 14563 H 1361.35 -2.99382 0.033071 0
M  V30 14564 H 1358.9 -1.4399 0.0173458 0
M  V30 14565 H 1360.85 -3.497 -2.35134 0
M  V30 14566 H 1359.58 -2.25437 -2.36317 0
M  V30 14567 H 1358.23 -3.59726 -0.706586 0
M  V30 14568 H 1357.88 -3.91134 -3.16265 0
M  V30 14569 H 1357.58 -5.42137 -2.26631 0
M  V30 14570 H 1359.11 -5.21521 -3.17566 0
M  V30 14571 H 1360.52 -5.65424 -0.947053 0
M  V30 14572 H 1358.92 -5.99645 -0.233704 0
M  V30 14573 H 1359.99 -4.81805 0.546993 0
M  V30 14574 N 1361.33 -0.0301034 -1.57571 0
M  V30 14575 C 1362.58 0.647042 -1.91462 0
M  V30 14576 C 1362.9 1.72612 -0.907206 0
M  V30 14577 O 1362.17 1.95833 0.0511268 0
M  V30 14578 H 1360.75 0.241988 -0.706718 0
M  V30 14579 H 1363.41 -0.0781385 -1.94743 0
M  V30 14580 H 1362.51 1.09915 -2.92105 0
M  V30 14581 N 1362.81 1.55714 0.243056 0
M  V30 14582 C 1363.72 1.93777 1.32241 0
M  V30 14583 C 1364.73 0.838709 1.52452 0
M  V30 14584 O 1365.91 1.14044 1.66 0
M  V30 14585 C 1362.98 2.22808 2.65627 0
M  V30 14586 C 1362.04 3.46166 2.53904 0
M  V30 14587 C 1361.27 3.73802 3.8093 0
M  V30 14588 O 1361.49 3.0345 4.82985 0
M  V30 14589 O 1360.43 4.67323 3.79332 0
M  V30 14590 H 1364.25 2.85718 1.02951 0
M  V30 14591 H 1361.84 1.42646 0.444135 0
M  V30 14592 H 1363.72 2.4277 3.44442 0
M  V30 14593 H 1362.39 1.34045 2.94642 0
M  V30 14594 H 1361.3 3.31506 1.73362 0
M  V30 14595 H 1362.63 4.35244 2.29834 0
M  V30 14596 N 1364.29 -0.50888 1.49158 0
M  V30 14597 C 1365.53 -1.26537 1.58481 0
M  V30 14598 C 1365.87 -1.92353 0.267168 0
M  V30 14599 O 1365.14 -1.80336 -0.728639 0
M  V30 14600 C 1365.42 -2.33846 2.73839 0
M  V30 14601 C 1365.28 -1.72582 4.15374 0
M  V30 14602 C 1366.6 -3.35467 2.84868 0
M  V30 14603 H 1363.71 -0.458697 0.576859 0
M  V30 14604 H 1366.36 -0.564728 1.81413 0
M  V30 14605 H 1364.51 -2.93605 2.54417 0
M  V30 14606 H 1366.18 -1.16711 4.46292 0
M  V30 14607 H 1364.42 -1.03025 4.21389 0
M  V30 14608 H 1365.09 -2.5038 4.91949 0
M  V30 14609 H 1367.57 -2.85689 3.02524 0
M  V30 14610 H 1366.44 -4.07922 3.67275 0
M  V30 14611 H 1366.71 -3.97313 1.93894 0
M  V30 14612 N 1365.76 -1.381 -0.759346 0
M  V30 14613 C 1366.73 -1.34674 -1.8546 0
M  V30 14614 C 1367.73 -0.248351 -1.58871 0
M  V30 14615 O 1368.92 -0.504915 -1.66722 0
M  V30 14616 C 1366.05 -1.0952 -3.22828 0
M  V30 14617 H 1367.24 -2.3211 -1.89908 0
M  V30 14618 H 1364.8 -1.2331 -0.960435 0
M  V30 14619 H 1365.53 -0.126664 -3.24053 0
M  V30 14620 H 1365.32 -1.89037 -3.43522 0
M  V30 14621 H 1366.81 -1.09804 -4.02906 0
M  V30 14622 N 1367.24 0.986894 -1.22875 0
M  V30 14623 C 1368.17 2.09628 -1.0285 0
M  V30 14624 C 1369.15 1.70019 0.0525118 0
M  V30 14625 O 1370.34 1.93883 -0.110874 0
M  V30 14626 C 1367.47 3.41866 -0.61194 0
M  V30 14627 C 1366.42 3.95351 -1.63956 0
M  V30 14628 C 1365.75 5.23707 -1.07865 0
M  V30 14629 C 1367.05 4.25354 -3.03102 0
M  V30 14630 H 1368.74 2.26639 -1.95641 0
M  V30 14631 H 1366.29 1.0891 -0.942048 0
M  V30 14632 H 1368.24 4.18893 -0.458936 0
M  V30 14633 H 1366.97 3.24701 0.35164 0
M  V30 14634 H 1365.62 3.20462 -1.78045 0
M  V30 14635 H 1365.27 5.02888 -0.106246 0
M  V30 14636 H 1364.97 5.60459 -1.76522 0
M  V30 14637 H 1366.5 6.03362 -0.937359 0
M  V30 14638 H 1367.91 4.93156 -2.92353 0
M  V30 14639 H 1366.31 4.73292 -3.68938 0
M  V30 14640 H 1367.38 3.32887 -3.52583 0
M  V30 14641 N 1368.72 1.0394 1.18466 0
M  V30 14642 C 1369.97 0.740576 1.88042 0
M  V30 14643 C 1370.29 -0.733822 1.80666 0
M  V30 14644 O 1369.56 -1.52943 1.22414 0
M  V30 14645 H 1368.14 0.270949 0.696129 0
M  V30 14646 H 1370.8 1.31588 1.43772 0
M  V30 14647 H 1369.9 1.04429 2.94111 0
M  V30 14648 N 1370.2 -1.34667 0.818693 0
M  V30 14649 C 1371.15 -2.31501 0.225816 0
M  V30 14650 C 1372.14 -1.57205 -0.631112 0
M  V30 14651 O 1373.35 -1.72237 -0.522924 0
M  V30 14652 H 1369.72 -0.750039 0.0542747 0
M  V30 14653 H 1371.69 -2.79036 1.05743 0
M  V30 14654 C 1370.44 -3.42464 -0.60114 0
M  V30 14655 H 1369.76 -3.9977 0.0489207 0
M  V30 14656 H 1371.2 -4.12468 -0.982154 0
M  V30 14657 C 1369.66 -2.86551 -1.77173 0
M  V30 14658 O 1370.19 -2.81085 -2.86974 0
M  V30 14659 N 1368.4 -2.43432 -1.58712 0
M  V30 14660 H 1367.95 -2.48077 -0.693958 0
M  V30 14661 H 1367.9 -2.06371 -2.37188 0
M  V30 14662 N 1371.68 -0.573274 -1.46804 0
M  V30 14663 C 1372.61 0.213527 -2.27199 0
M  V30 14664 C 1373.59 0.905598 -1.35047 0
M  V30 14665 O 1374.77 0.921377 -1.64447 0
M  V30 14666 C 1371.9 1.30556 -3.12527 0
M  V30 14667 C 1370.94 0.720331 -4.20373 0
M  V30 14668 S 1371.78 -0.445518 -5.33644 0
M  V30 14669 C 1372.93 0.64794 -6.22537 0
M  V30 14670 H 1373.17 -0.468642 -2.93583 0
M  V30 14671 H 1370.7 -0.359949 -1.50146 0
M  V30 14672 H 1372.66 1.93086 -3.62254 0
M  V30 14673 H 1371.32 1.95963 -2.45474 0
M  V30 14674 H 1370.51 1.54089 -4.79867 0
M  V30 14675 H 1370.11 0.170885 -3.73609 0
M  V30 14676 H 1372.41 1.53602 -6.59858 0
M  V30 14677 H 1373.35 0.0899764 -7.08043 0
M  V30 14678 H 1373.76 0.94784 -5.56486 0
M  V30 14679 N 1373.15 1.5451 -0.310553 0
M  V30 14680 C 1374.38 2.04442 0.297807 0
M  V30 14681 C 1374.79 1.18695 1.47337 0
M  V30 14682 O 1374.14 0.207405 1.82525 0
M  V30 14683 C 1374.2 3.50306 0.807851 0
M  V30 14684 C 1373.86 4.5635 -0.24369 0
M  V30 14685 C 1374.86 5.08656 -1.07539 0
M  V30 14686 C 1372.54 5.00798 -0.388138 0
M  V30 14687 C 1374.54 6.03961 -2.03738 0
M  V30 14688 C 1372.22 5.95921 -1.35357 0
M  V30 14689 C 1373.22 6.47387 -2.17667 0
M  V30 14690 O 1372.91 7.40644 -3.12571 0
M  V30 14691 H 1372.64 0.672646 0.0672525 0
M  V30 14692 H 1375.2 2.00389 -0.450948 0
M  V30 14693 H 1373.43 3.51714 1.6073 0
M  V30 14694 H 1375.12 3.83383 1.33314 0
M  V30 14695 H 1375.88 4.75105 -0.97471 0
M  V30 14696 H 1371.76 4.60361 0.242608 0
M  V30 14697 H 1375.3 6.44057 -2.68023 0
M  V30 14698 H 1371.2 6.2889 -1.45493 0
M  V30 14699 H 1371.97 7.58477 -3.0766 0
M  V30 14700 N 1374.63 0.0384594 1.57553 0
M  V30 14701 C 1375.54 -0.955737 2.14249 0
M  V30 14702 C 1376.56 -1.35056 1.09708 0
M  V30 14703 O 1377.74 -1.43008 1.41812 0
M  V30 14704 C 1374.8 -2.21647 2.66596 0
M  V30 14705 C 1373.86 -1.88119 3.85888 0
M  V30 14706 C 1373.09 -3.08182 4.35729 0
M  V30 14707 O 1373.32 -4.21145 3.84699 0
M  V30 14708 O 1372.25 -2.89936 5.27467 0
M  V30 14709 H 1376.08 -0.50361 2.99495 0
M  V30 14710 H 1373.66 -0.182698 1.48279 0
M  V30 14711 H 1375.54 -2.9564 3.00291 0
M  V30 14712 H 1374.22 -2.66022 1.84428 0
M  V30 14713 H 1373.13 -1.11481 3.57103 0
M  V30 14714 H 1374.46 -1.48553 4.69247 0
M  V30 14715 N 1376.11 -1.55841 -0.234795 0
M  V30 14716 C 1377.04 -1.94344 -1.29432 0
M  V30 14717 C 1378.02 -0.809912 -1.49581 0
M  V30 14718 O 1379.21 -1.07117 -1.61986 0
M  V30 14719 C 1376.34 -2.24866 -2.64675 0
M  V30 14720 C 1375.29 -3.40584 -2.59203 0
M  V30 14721 C 1374.62 -3.56678 -3.98353 0
M  V30 14722 C 1375.92 -4.75935 -2.15135 0
M  V30 14723 H 1377.61 -2.83096 -0.97454 0
M  V30 14724 H 1375.16 -1.36205 -0.467355 0
M  V30 14725 H 1377.11 -2.50392 -3.38942 0
M  V30 14726 H 1375.83 -1.32953 -2.98314 0
M  V30 14727 H 1374.49 -3.15087 -1.87393 0
M  V30 14728 H 1374.14 -2.62164 -4.29277 0
M  V30 14729 H 1373.84 -4.34503 -3.95577 0
M  V30 14730 H 1375.37 -3.84538 -4.74302 0
M  V30 14731 H 1376.78 -5.00753 -2.7914 0
M  V30 14732 H 1375.18 -5.56949 -2.23446 0
M  V30 14733 H 1376.25 -4.72182 -1.10328 0
M  V30 14734 N 1377.59 0.500963 -1.49426 0
M  V30 14735 C 1378.54 1.6025 -1.66098 0
M  V30 14736 C 1379.51 1.58318 -0.502453 0
M  V30 14737 O 1380.69 1.76304 -0.729482 0
M  V30 14738 C 1377.83 2.98396 -1.73361 0
M  V30 14739 C 1376.94 3.10343 -3.00518 0
M  V30 14740 C 1376.08 4.39222 -2.9876 0
M  V30 14741 C 1375.12 4.44803 -4.20496 0
M  V30 14742 N 1374.26 5.6511 -4.16648 0
M  V30 14743 H 1379.1 1.45342 -2.60153 0
M  V30 14744 H 1376.63 0.707147 -1.28988 0
M  V30 14745 H 1378.59 3.78467 -1.75553 0
M  V30 14746 H 1377.22 3.12007 -0.827718 0
M  V30 14747 H 1376.27 2.23336 -3.07937 0
M  V30 14748 H 1377.58 3.10327 -3.90511 0
M  V30 14749 H 1376.74 5.27613 -2.99515 0
M  V30 14750 H 1375.48 4.41804 -2.06545 0
M  V30 14751 H 1374.48 3.54814 -4.19985 0
M  V30 14752 H 1375.71 4.43937 -5.13903 0
M  V30 14753 H 1373.65 5.68533 -3.2727 0
M  V30 14754 H 1373.57 5.6671 -5.00376 0
M  V30 14755 H 1374.84 6.55708 -4.21506 0
M  V30 14756 N 1379.07 1.38501 0.752011 0
M  V30 14757 C 1380.02 1.32359 1.85648 0
M  V30 14758 C 1381 0.207578 1.59555 0
M  V30 14759 O 1382.19 0.443683 1.71349 0
M  V30 14760 C 1379.32 1.15253 3.23375 0
M  V30 14761 C 1378.41 2.31483 3.55354 0
M  V30 14762 N 1378.8 3.56929 3.58379 0
M  V30 14763 C 1377.1 2.2407 3.85628 0
M  V30 14764 C 1377.8 4.33691 3.87669 0
M  V30 14765 N 1376.77 3.63065 4.04579 0
M  V30 14766 H 1380.58 2.27336 1.86267 0
M  V30 14767 H 1378.09 1.31755 0.949441 0
M  V30 14768 H 1380.09 1.08937 4.02416 0
M  V30 14769 H 1378.75 0.212108 3.24006 0
M  V30 14770 H 1379.76 3.90578 3.40101 0
M  V30 14771 H 1376.44 1.38196 3.93965 0
M  V30 14772 H 1377.83 5.42349 3.9662 0
M  V30 14773 N 1380.55 -0.980364 1.23396 0
M  V30 14774 C 1381.51 -2.05433 1.01635 0
M  V30 14775 C 1382.51 -1.60785 -0.0218244 0
M  V30 14776 O 1383.7 -1.72832 0.217922 0
M  V30 14777 C 1380.83 -3.36631 0.537822 0
M  V30 14778 H 1382.02 -2.26172 1.96943 0
M  V30 14779 H 1379.58 -1.15378 1.05441 0
M  V30 14780 H 1380.31 -3.21581 -0.41903 0
M  V30 14781 H 1380.1 -3.70377 1.28698 0
M  V30 14782 H 1381.59 -4.1562 0.406213 0
M  V30 14783 N 1382.02 -1.04567 -1.17913 0
M  V30 14784 C 1383.25 -0.772146 -1.92491 0
M  V30 14785 C 1383.67 0.665297 -1.75942 0
M  V30 14786 O 1383.03 1.46144 -1.07292 0
M  V30 14787 C 1383.08 -1.14966 -3.41782 0
M  V30 14788 O 1382.18 -0.278091 -4.11461 0
M  V30 14789 H 1381.52 -0.283715 -0.600335 0
M  V30 14790 H 1384.05 -1.39685 -1.49496 0
M  V30 14791 H 1384.06 -1.11374 -3.92505 0
M  V30 14792 H 1382.74 -2.1968 -3.53148 0
M  V30 14793 H 1381.32 -0.374073 -3.71019 0
M  V30 14794 N 1383.5 1.34231 -0.825823 0
M  V30 14795 C 1384.45 2.26916 -0.222038 0
M  V30 14796 C 1385.44 1.48667 0.615382 0
M  V30 14797 O 1386.63 1.7066 0.469487 0
M  V30 14798 C 1383.76 3.37787 0.612785 0
M  V30 14799 C 1382.84 4.23446 -0.235423 0
M  V30 14800 N 1383.23 4.88599 -1.30784 0
M  V30 14801 C 1381.53 4.45995 -0.0202477 0
M  V30 14802 C 1382.23 5.52254 -1.82729 0
M  V30 14803 N 1381.21 5.3171 -1.13074 0
M  V30 14804 H 1385.01 2.74796 -1.04232 0
M  V30 14805 H 1382.52 1.47983 -0.668928 0
M  V30 14806 H 1384.52 4.03159 1.06153 0
M  V30 14807 H 1383.18 2.91457 1.43119 0
M  V30 14808 H 1384.19 4.89528 -1.69066 0
M  V30 14809 H 1380.87 4.10417 0.765761 0
M  V30 14810 H 1382.26 6.14177 -2.72464 0
M  V30 14811 N 1384.98 0.581051 1.46498 0
M  V30 14812 C 1386.23 0.0637189 2.01599 0
M  V30 14813 C 1386.54 -1.30353 1.45834 0
M  V30 14814 O 1387.75 -1.91211 1.92745 0
M  V30 14815 C 1386.2 0.0633254 3.59844 0
M  V30 14816 C 1385.81 1.42879 4.24605 0
M  V30 14817 C 1387.56 -0.400149 4.2261 0
M  V30 14818 C 1385.46 1.38621 5.74924 0
M  V30 14819 H 1384.39 0.0200512 0.753733 0
M  V30 14820 H 1387.04 0.732451 1.68248 0
M  V30 14821 H 1385.43 -0.671538 3.90264 0
M  V30 14822 H 1386.6 2.18325 4.05796 0
M  V30 14823 H 1384.91 1.83215 3.73927 0
M  V30 14824 H 1387.51 -0.450771 5.32797 0
M  V30 14825 H 1387.85 -1.41733 3.9143 0
M  V30 14826 H 1388.39 0.280598 3.96809 0
M  V30 14827 H 1385.13 2.38014 6.10761 0
M  V30 14828 H 1384.65 0.673926 5.96002 0
M  V30 14829 H 1386.33 1.09841 6.37608 0
M  V30 14830 N 1386.46 -1.54343 0.318742 0
M  V30 14831 C 1387.68 -2.05361 -0.290126 0
M  V30 14832 C 1388.11 -1.19362 -1.45376 0
M  V30 14833 O 1387.47 -0.201639 -1.80175 0
M  V30 14834 C 1387.51 -3.53601 -0.707025 0
M  V30 14835 O 1386.62 -3.70561 -1.80992 0
M  V30 14836 H 1385.96 -0.661858 -0.0532933 0
M  V30 14837 H 1388.49 -1.99228 0.46575 0
M  V30 14838 H 1388.5 -3.95782 -0.991005 0
M  V30 14839 H 1387.17 -4.1565 0.144091 0
M  V30 14840 H 1385.75 -3.40286 -1.52513 0
M  V30 14841 N 1387.94 -0.0468143 -1.5753 0
M  V30 14842 C 1388.88 0.929065 -2.11275 0
M  V30 14843 C 1389.85 1.31166 -1.01905 0
M  V30 14844 O 1391.04 1.40189 -1.29428 0
M  V30 14845 C 1388.18 2.20012 -2.65873 0
M  V30 14846 C 1387.29 1.8724 -3.89314 0
M  V30 14847 C 1386.43 3.08772 -4.32242 0
M  V30 14848 C 1385.46 2.719 -5.48395 0
M  V30 14849 N 1384.6 3.86112 -5.86397 0
M  V30 14850 H 1389.44 0.463854 -2.94368 0
M  V30 14851 H 1386.98 0.217338 -1.45486 0
M  V30 14852 H 1388.94 2.94383 -2.95626 0
M  V30 14853 H 1387.57 2.64118 -1.85584 0
M  V30 14854 H 1386.62 1.03037 -3.6618 0
M  V30 14855 H 1387.93 1.56096 -4.73746 0
M  V30 14856 H 1387.08 3.91446 -4.63525 0
M  V30 14857 H 1385.82 3.4309 -3.46613 0
M  V30 14858 H 1384.83 1.87642 -5.16789 0
M  V30 14859 H 1386.05 2.38779 -6.35737 0
M  V30 14860 H 1384 4.2024 -5.03721 0
M  V30 14861 H 1383.92 3.58652 -6.65511 0
M  V30 14862 H 1385.18 4.69438 -6.22293 0
M  V30 14863 N 1389.41 1.55964 0.226527 0
M  V30 14864 C 1390.34 1.95028 1.284 0
M  V30 14865 C 1391.33 0.817833 1.49149 0
M  V30 14866 O 1392.51 1.07975 1.61416 0
M  V30 14867 C 1389.64 2.26266 2.63478 0
M  V30 14868 C 1388.59 3.41954 2.57393 0
M  V30 14869 C 1387.92 3.58786 3.96456 0
M  V30 14870 C 1389.22 4.77069 2.12608 0
M  V30 14871 H 1390.91 2.83608 0.959513 0
M  V30 14872 H 1388.46 1.36451 0.460125 0
M  V30 14873 H 1390.41 2.52186 3.3761 0
M  V30 14874 H 1389.14 1.34533 2.97604 0
M  V30 14875 H 1387.8 3.16076 1.85719 0
M  V30 14876 H 1387.44 2.64437 4.27881 0
M  V30 14877 H 1387.14 4.36595 3.93267 0
M  V30 14878 H 1388.67 3.87048 4.72256 0
M  V30 14879 H 1390.08 5.02226 2.76481 0
M  V30 14880 H 1388.48 5.58126 2.2049 0
M  V30 14881 H 1389.55 4.7276 1.07823 0
M  V30 14882 N 1390.89 -0.493031 1.4969 0
M  V30 14883 C 1392.3 -1.0744 1.52688 0
M  V30 14884 C 1392.65 -1.93612 0.317652 0
M  V30 14885 O 1391.78 -2.0871 -0.571745 0
M  V30 14886 C 1392.37 -1.95523 2.76688 0
M  V30 14887 C 1390.93 -2.48808 2.82438 0
M  V30 14888 C 1390.08 -1.26617 2.46705 0
M  V30 14889 H 1393.03 -0.276589 1.56271 0
M  V30 14890 H 1393.05 -2.80315 2.57301 0
M  V30 14891 H 1392.56 -1.32779 3.6468 0
M  V30 14892 H 1390.67 -3.15168 1.98746 0
M  V30 14893 H 1390.78 -2.85416 3.84805 0
M  V30 14894 H 1389.14 -1.59396 1.98658 0
M  V30 14895 H 1389.93 -0.655695 3.3698 0
M  V30 14896 N 1392.37 -1.38898 -0.744656 0
M  V30 14897 C 1393.32 -1.36845 -1.85855 0
M  V30 14898 C 1394.29 -0.2296 -1.64505 0
M  V30 14899 O 1395.47 -0.423221 -1.86047 0
M  V30 14900 C 1392.61 -1.20818 -3.2326 0
M  V30 14901 C 1391.73 -2.44166 -3.5638 0
M  V30 14902 C 1390.86 -2.20801 -4.83136 0
M  V30 14903 C 1389.9 -3.39874 -5.0907 0
M  V30 14904 N 1389.04 -3.15888 -6.27024 0
M  V30 14905 H 1393.88 -2.32068 -1.86945 0
M  V30 14906 H 1391.41 -1.15289 -0.913611 0
M  V30 14907 H 1393.37 -1.0954 -4.02563 0
M  V30 14908 H 1392 -0.292295 -3.21474 0
M  V30 14909 H 1391.05 -2.66083 -2.71852 0
M  V30 14910 H 1392.37 -3.32885 -3.71469 0
M  V30 14911 H 1391.52 -2.0671 -5.704 0
M  V30 14912 H 1390.26 -1.29462 -4.70203 0
M  V30 14913 H 1389.26 -3.54474 -4.20271 0
M  V30 14914 H 1390.49 -4.32102 -5.23894 0
M  V30 14915 H 1388.43 -2.27204 -6.15398 0
M  V30 14916 H 1388.35 -3.9816 -6.42655 0
M  V30 14917 H 1389.62 -3.0547 -7.17153 0
M  V30 14918 N 1393.85 0.973806 -1.23914 0
M  V30 14919 C 1395.1 1.71259 -1.07307 0
M  V30 14920 C 1395.42 1.91064 0.389831 0
M  V30 14921 O 1394.69 1.48401 1.27883 0
M  V30 14922 H 1393.27 0.634588 -0.39409 0
M  V30 14923 H 1395.93 1.17184 -1.55737 0
M  V30 14924 H 1395.03 2.69953 -1.56626 0
M  V30 14925 N 1395.33 1.05191 1.17357 0
M  V30 14926 C 1396.27 0.652868 2.21374 0
M  V30 14927 C 1397.24 -0.344974 1.62478 0
M  V30 14928 O 1398.43 -0.23639 1.8933 0
M  V30 14929 C 1395.57 0.0337737 3.45083 0
M  V30 14930 C 1394.68 1.08045 4.18271 0
M  V30 14931 C 1393.82 0.428673 5.29468 0
M  V30 14932 C 1392.86 1.45966 5.94441 0
M  V30 14933 N 1391.99 0.832042 6.97152 0
M  V30 14934 H 1396.83 1.54434 2.54861 0
M  V30 14935 H 1394.37 0.772365 1.25192 0
M  V30 14936 H 1396.33 -0.342607 4.15791 0
M  V30 14937 H 1394.96 -0.821159 3.12181 0
M  V30 14938 H 1394.01 1.57466 3.46278 0
M  V30 14939 H 1395.32 1.86305 4.62701 0
M  V30 14940 H 1394.48 -0.00129344 6.067 0
M  V30 14941 H 1393.21 -0.385919 4.86171 0
M  V30 14942 H 1392.22 1.89964 5.1594 0
M  V30 14943 H 1393.44 2.27615 6.39819 0
M  V30 14944 H 1391.39 0.0379612 6.55989 0
M  V30 14945 H 1391.31 1.55219 7.39894 0
M  V30 14946 H 1392.58 0.42685 7.7833 0
M  V30 14947 N 1396.8 -1.33791 0.83293 0
M  V30 14948 C 1397.75 -2.26795 0.234069 0
M  V30 14949 C 1398.74 -1.48991 -0.60749 0
M  V30 14950 O 1399.93 -1.70907 -0.46043 0
M  V30 14951 C 1397.06 -3.38107 -0.594863 0
M  V30 14952 C 1396.15 -4.23315 0.257877 0
M  V30 14953 N 1396.54 -4.87899 1.33373 0
M  V30 14954 C 1394.83 -4.45978 0.0438997 0
M  V30 14955 C 1395.54 -5.51278 1.85655 0
M  V30 14956 N 1394.51 -5.31103 1.15892 0
M  V30 14957 H 1398.31 -2.7424 1.05688 0
M  V30 14958 H 1395.83 -1.47627 0.676767 0
M  V30 14959 H 1397.82 -4.03716 -1.04014 0
M  V30 14960 H 1396.48 -2.92212 -1.41571 0
M  V30 14961 H 1397.5 -4.88624 1.71659 0
M  V30 14962 H 1394.17 -4.10818 -0.743985 0
M  V30 14963 H 1395.56 -6.12723 2.75717 0
M  V30 14964 N 1398.28 -0.588812 -1.46187 0
M  V30 14965 C 1399.51 -0.0806571 -2.07243 0
M  V30 14966 C 1399.93 1.21766 -1.43369 0
M  V30 14967 O 1399.29 1.73694 -0.51964 0
M  V30 14968 C 1399.34 0.065267 -3.60541 0
M  V30 14969 O 1398.44 1.12026 -3.96893 0
M  V30 14970 H 1397.78 -0.0655622 -0.660755 0
M  V30 14971 H 1400.31 -0.813489 -1.87733 0
M  V30 14972 H 1400.32 0.269494 -4.07109 0
M  V30 14973 H 1399 -0.88284 -4.06422 0
M  V30 14974 H 1397.58 0.894 -3.62025 0
M  V30 14975 N 1399.76 1.54172 -0.326923 0
M  V30 14976 C 1401.01 2.00926 0.275047 0
M  V30 14977 C 1401.34 1.21469 1.51522 0
M  V30 14978 O 1400.61 0.297871 1.92206 0
M  V30 14979 C 1400.9 3.54967 0.605833 0
M  V30 14980 C 1400.75 4.45147 -0.645279 0
M  V30 14981 C 1402.07 4.16489 1.42213 0
M  V30 14982 H 1399.19 0.730389 0.098495 0
M  V30 14983 H 1401.83 1.84735 -0.444168 0
M  V30 14984 H 1399.98 3.68895 1.21857 0
M  V30 14985 H 1401.65 4.43085 -1.2835 0
M  V30 14986 H 1399.9 4.14686 -1.27349 0
M  V30 14987 H 1400.57 5.50763 -0.36932 0
M  V30 14988 H 1403.04 4.06158 0.904172 0
M  V30 14989 H 1401.92 5.24377 1.62234 0
M  V30 14990 H 1402.18 3.70032 2.41928 0
M  V30 14991 N 1401.24 0.0551678 1.57503 0
M  V30 14992 C 1402.19 -0.917847 2.11764 0
M  V30 14993 C 1403.16 -1.30624 1.02599 0
M  V30 14994 O 1404.34 -1.39501 1.30169 0
M  V30 14995 C 1401.48 -2.18599 2.67036 0
M  V30 14996 C 1400.59 -1.85173 3.90301 0
M  V30 14997 C 1399.73 -3.06475 4.33874 0
M  V30 14998 C 1398.77 -2.68988 5.49829 0
M  V30 14999 N 1397.9 -3.82997 5.88437 0
M  V30 15000 H 1402.74 -0.448236 2.9461 0
M  V30 15001 H 1400.28 -0.209619 1.45599 0
M  V30 15002 H 1402.24 -2.92811 2.97183 0
M  V30 15003 H 1400.87 -2.6313 1.86982 0
M  V30 15004 H 1399.92 -1.01094 3.66721 0
M  V30 15005 H 1401.23 -1.53582 4.74567 0
M  V30 15006 H 1400.39 -3.88982 4.65594 0
M  V30 15007 H 1399.13 -3.41247 3.48427 0
M  V30 15008 H 1398.13 -1.84899 5.17776 0
M  V30 15009 H 1399.36 -2.35404 6.36994 0
M  V30 15010 H 1397.3 -4.17562 5.05942 0
M  V30 15011 H 1397.22 -3.55118 6.67403 0
M  V30 15012 H 1398.49 -4.66131 6.24773 0
M  V30 15013 N 1402.72 -1.56081 -0.218252 0
M  V30 15014 C 1403.96 -1.78893 -0.940296 0
M  V30 15015 C 1404.29 -0.62425 -1.84738 0
M  V30 15016 O 1403.56 0.358686 -1.92588 0
M  V30 15017 H 1402.14 -0.659828 -0.350193 0
M  V30 15018 H 1404.8 -1.93546 -0.229316 0
M  V30 15019 H 1403.89 -2.71167 -1.54516 0
M  V30 15020 N 1404.2 0.485086 -1.49949 0
M  V30 15021 C 1405.13 1.59312 -1.7071 0
M  V30 15022 C 1406.11 1.6076 -0.555896 0
M  V30 15023 O 1407.29 1.77249 -0.793504 0
M  V30 15024 C 1404.42 2.97718 -1.78834 0
M  V30 15025 C 1403.38 3.11136 -2.93902 0
M  V30 15026 C 1402.7 4.51051 -2.87154 0
M  V30 15027 C 1404 2.89665 -4.34617 0
M  V30 15028 H 1405.7 1.42192 -2.6348 0
M  V30 15029 H 1403.24 0.68262 -1.26792 0
M  V30 15030 H 1405.19 3.75148 -1.91943 0
M  V30 15031 H 1403.92 3.15963 -0.826744 0
M  V30 15032 H 1402.58 2.36135 -2.80421 0
M  V30 15033 H 1402.23 4.66195 -1.88869 0
M  V30 15034 H 1401.93 4.60967 -3.64394 0
M  V30 15035 H 1403.45 5.3052 -3.02293 0
M  V30 15036 H 1404.86 3.56853 -4.48697 0
M  V30 15037 H 1403.26 3.11039 -5.13201 0
M  V30 15038 H 1404.33 1.85642 -4.47956 0
M  V30 15039 N 1405.67 1.39291 0.737279 0
M  V30 15040 C 1406.92 1.36121 1.49384 0
M  V30 15041 C 1407.24 -0.0429406 1.94953 0
M  V30 15042 O 1406.51 -0.993756 1.68823 0
M  V30 15043 H 1405.09 0.500916 0.554159 0
M  V30 15044 H 1407.75 1.74134 0.875402 0
M  V30 15045 H 1406.85 2.02246 2.37704 0
M  V30 15046 N 1407.15 -0.967221 1.24429 0
M  V30 15047 C 1408.1 -2.06187 1.03709 0
M  V30 15048 C 1409.07 -1.66025 -0.0497665 0
M  V30 15049 O 1410.25 -1.90511 0.104951 0
M  V30 15050 C 1407.39 -3.38952 0.648477 0
M  V30 15051 C 1406.51 -3.92306 1.80886 0
M  V30 15052 C 1405.64 -5.13342 1.36579 0
M  V30 15053 C 1404.68 -5.58893 2.49609 0
M  V30 15054 N 1403.82 -6.71148 2.06165 0
M  V30 15055 H 1408.66 -2.23244 1.97399 0
M  V30 15056 H 1406.19 -1.09415 0.983192 0
M  V30 15057 H 1408.15 -4.15237 0.40419 0
M  V30 15058 H 1406.78 -3.21819 -0.25142 0
M  V30 15059 H 1405.83 -3.12656 2.1668 0
M  V30 15060 H 1407.15 -4.22071 2.65815 0
M  V30 15061 H 1406.3 -5.97003 1.0804 0
M  V30 15062 H 1405.04 -4.85262 0.487051 0
M  V30 15063 H 1404.04 -4.73805 2.78906 0
M  V30 15064 H 1405.27 -5.88987 3.3804 0
M  V30 15065 H 1403.22 -6.44802 1.20691 0
M  V30 15066 H 1403.13 -7.00366 2.84647 0
M  V30 15067 H 1404.4 -7.5825 1.80769 0
M  V30 15068 N 1408.63 -1.05812 -1.16797 0
M  V30 15069 C 1409.86 -0.792519 -1.9112 0
M  V30 15070 C 1410.27 0.652549 -1.77164 0
M  V30 15071 O 1409.63 1.44633 -1.113 0
M  V30 15072 C 1409.68 -1.17172 -3.41984 0
M  V30 15073 O 1409.4 -2.56008 -3.55516 0
M  V30 15074 C 1410.9 -0.933162 -4.33367 0
M  V30 15075 H 1408.12 -0.28768 -0.606202 0
M  V30 15076 H 1410.67 -1.41046 -1.48075 0
M  V30 15077 H 1408.82 -0.598413 -3.8275 0
M  V30 15078 H 1409.24 -2.71053 -4.49033 0
M  V30 15079 H 1410.71 -1.24817 -5.37703 0
M  V30 15080 H 1411.19 0.131345 -4.39004 0
M  V30 15081 H 1411.79 -1.49062 -3.98322 0
M  V30 15082 N 1410.11 1.33347 -0.840014 0
M  V30 15083 C 1411.34 2.01952 -0.449793 0
M  V30 15084 C 1411.75 1.63197 0.949317 0
M  V30 15085 O 1411.11 0.84589 1.61713 0
M  V30 15086 C 1411.16 3.57102 -0.562178 0
M  V30 15087 O 1410.88 3.94458 -1.90616 0
M  V30 15088 C 1412.38 4.42978 -0.169062 0
M  V30 15089 H 1409.6 0.646843 -0.178425 0
M  V30 15090 H 1412.14 1.70251 -1.1329 0
M  V30 15091 H 1410.3 3.87331 0.0730345 0
M  V30 15092 H 1410.71 4.89167 -1.8925 0
M  V30 15093 H 1412.19 5.51191 -0.298742 0
M  V30 15094 H 1412.66 4.30106 0.889137 0
M  V30 15095 H 1413.27 4.18109 -0.778756 0
M  V30 15096 N 1411.59 0.596556 1.45873 0
M  V30 15097 C 1413 0.173758 1.8589 0
M  V30 15098 C 1413.35 -1.26665 1.49835 0
M  V30 15099 O 1412.47 -1.9588 0.919773 0
M  V30 15100 C 1413.07 0.308567 3.37392 0
M  V30 15101 C 1411.63 -0.0594585 3.76353 0
M  V30 15102 C 1410.77 0.638127 2.69858 0
M  V30 15103 H 1413.72 0.803928 1.36831 0
M  V30 15104 H 1413.75 -0.462294 3.77681 0
M  V30 15105 H 1413.26 1.35701 3.63603 0
M  V30 15106 H 1411.36 -1.1075 3.5576 0
M  V30 15107 H 1411.47 0.326506 4.77986 0
M  V30 15108 H 1409.84 0.0769147 2.54584 0
M  V30 15109 H 1410.62 1.68849 2.98906 0
M  V30 15110 N 1413.06 -1.53996 0.335095 0
M  V30 15111 C 1414.34 -1.92984 -0.318848 0
M  V30 15112 C 1414.72 -1.26585 -1.68936 0
M  V30 15113 O 1414.07 -0.413702 -2.24724 0
M  V30 15114 C 1414.28 -3.46705 -0.399568 0
M  V30 15115 C 1415.63 -4.19527 -0.654411 0
M  V30 15116 O 1416.65 -3.52923 -0.482026 0
M  V30 15117 O 1415.51 -5.37499 -0.987756 0
M  V30 15118 H 1412.6 -0.806202 -0.1843 0
M  V30 15119 H 1415.15 -1.6526 0.385653 0
M  V30 15120 H 1413.92 -3.87235 0.56253 0
M  V30 15121 H 1413.54 -3.8057 -1.15119 0
M  V30 15122 N 1414.54 -0.0635198 -1.57472 0
M  V30 15123 C 1415.95 0.470372 -1.80678 0
M  V30 15124 C 1416.3 1.70158 -0.976771 0
M  V30 15125 O 1415.43 2.15502 -0.196893 0
M  V30 15126 C 1416.02 0.860129 -3.277 0
M  V30 15127 C 1414.58 1.33893 -3.51781 0
M  V30 15128 C 1413.73 0.320078 -2.75447 0
M  V30 15129 H 1416.68 -0.289295 -1.56041 0
M  V30 15130 H 1416.7 1.72216 -3.39296 0
M  V30 15131 H 1416.21 -0.0361525 -3.88083 0
M  V30 15132 H 1414.31 2.25399 -2.96692 0
M  V30 15133 H 1414.43 1.32257 -4.60483 0
M  V30 15134 H 1412.79 0.795601 -2.41955 0
M  V30 15135 H 1413.57 -0.568332 -3.38563 0
M  V30 15136 N 1416.02 1.56195 0.209972 0
M  V30 15137 C 1417.24 1.84189 0.953364 0
M  V30 15138 C 1417.67 0.645288 1.76685 0
M  V30 15139 O 1417.03 -0.405962 1.76696 0
M  V30 15140 C 1417.08 3.10281 1.83733 0
M  V30 15141 O 1416.18 2.89788 2.93422 0
M  V30 15142 H 1415.52 0.606931 0.269314 0
M  V30 15143 H 1418.05 2.03416 0.219783 0
M  V30 15144 H 1418.06 3.40688 2.2449 0
M  V30 15145 H 1416.74 3.97 1.23951 0
M  V30 15146 H 1415.31 2.70643 2.56528 0
M  V30 15147 N 1417.5 -0.477127 1.50204 0
M  V30 15148 C 1418.46 -1.55824 1.68082 0
M  V30 15149 C 1419.46 -1.51039 0.551719 0
M  V30 15150 O 1420.65 -1.53766 0.818638 0
M  V30 15151 C 1417.78 -2.95462 1.70044 0
M  V30 15152 H 1418.98 -1.41292 2.64531 0
M  V30 15153 H 1416.53 -0.70308 1.39594 0
M  V30 15154 H 1417.26 -3.15445 0.752663 0
M  V30 15155 H 1417.05 -3.00343 2.52065 0
M  V30 15156 H 1418.54 -3.73964 1.85851 0
M  V30 15157 N 1418.98 -1.3968 -0.729882 0
M  V30 15158 C 1419.92 -1.3896 -1.86528 0
M  V30 15159 C 1420.92 -0.272027 -1.67202 0
M  V30 15160 O 1422.12 -0.442328 -1.74481 0
M  V30 15161 H 1418.5 -0.434045 -0.614092 0
M  V30 15162 H 1420.47 -2.34721 -1.84252 0
M  V30 15163 C 1419.22 -1.255 -3.24261 0
M  V30 15164 H 1418.54 -2.10767 -3.39731 0
M  V30 15165 H 1419.98 -1.29054 -4.03882 0
M  V30 15166 C 1418.44 0.0361127 -3.36881 0
M  V30 15167 O 1418.97 1.0044 -3.8894 0
M  V30 15168 N 1417.18 0.100874 -2.90425 0
M  V30 15169 H 1416.72 -0.687797 -2.48248 0
M  V30 15170 H 1416.68 0.964251 -2.99248 0
M  V30 15171 N 1420.45 0.960609 -1.2494 0
M  V30 15172 C 1421.7 1.69884 -1.08731 0
M  V30 15173 C 1422.02 1.92018 0.372602 0
M  V30 15174 O 1423.22 2.6348 0.655018 0
M  V30 15175 C 1421.68 3.05815 -1.8975 0
M  V30 15176 C 1421.29 2.91498 -3.40196 0
M  V30 15177 C 1423.03 3.83462 -1.82092 0
M  V30 15178 C 1420.94 4.22783 -4.13532 0
M  V30 15179 H 1419.87 0.637087 -0.403281 0
M  V30 15180 H 1422.52 1.06987 -1.49084 0
M  V30 15181 H 1420.9 3.69582 -1.42216 0
M  V30 15182 H 1422.07 2.367 -3.9536 0
M  V30 15183 H 1420.39 2.27312 -3.48882 0
M  V30 15184 H 1422.99 4.8069 -2.34181 0
M  V30 15185 H 1423.33 4.08782 -0.787597 0
M  V30 15186 H 1423.86 3.26435 -2.27344 0
M  V30 15187 H 1420.6 4.02653 -5.17253 0
M  V30 15188 H 1420.12 4.77369 -3.63152 0
M  V30 15189 H 1421.8 4.91361 -4.2092 0
M  V30 15190 N 1421.93 1.0643 1.16234 0
M  V30 15191 C 1423.16 0.802671 1.91238 0
M  V30 15192 C 1423.58 -0.637222 1.76978 0
M  V30 15193 O 1422.94 -1.44419 1.09603 0
M  V30 15194 C 1422.99 1.20389 3.3991 0
M  V30 15195 O 1422.09 0.343516 4.10967 0
M  V30 15196 H 1421.43 0.29323 0.595745 0
M  V30 15197 H 1423.96 1.42046 1.47255 0
M  V30 15198 H 1423.97 1.17604 3.90683 0
M  V30 15199 H 1422.65 2.2527 3.49608 0
M  V30 15200 H 1421.23 0.433051 3.70377 0
M  V30 15201 N 1423.41 -1.329 0.847073 0
M  V30 15202 C 1424.34 -2.31546 0.301422 0
M  V30 15203 C 1425.32 -1.59342 -0.595317 0
M  V30 15204 O 1426.51 -1.87188 -0.517151 0
M  V30 15205 C 1423.64 -3.43423 -0.517454 0
M  V30 15206 C 1422.59 -4.27055 0.284195 0
M  V30 15207 C 1421.92 -5.30624 -0.658944 0
M  V30 15208 C 1423.22 -5.00123 1.50578 0
M  V30 15209 H 1424.91 -2.77433 1.12567 0
M  V30 15210 H 1422.46 -1.3338 0.542739 0
M  V30 15211 H 1424.41 -4.11467 -0.909543 0
M  V30 15212 H 1423.13 -2.96246 -1.37499 0
M  V30 15213 H 1421.79 -3.60648 0.657944 0
M  V30 15214 H 1421.44 -4.79702 -1.51311 0
M  V30 15215 H 1421.14 -5.87464 -0.12662 0
M  V30 15216 H 1422.66 -6.01533 -1.04837 0
M  V30 15217 H 1424.08 -5.6089 1.18641 0
M  V30 15218 H 1422.48 -5.66652 1.97549 0
M  V30 15219 H 1423.55 -4.28424 2.27115 0
M  V30 15220 N 1424.89 -0.604284 -1.45555 0
M  V30 15221 C 1426.17 -0.0303285 -1.95576 0
M  V30 15222 C 1426.55 1.43661 -1.54676 0
M  V30 15223 O 1425.89 2.13747 -0.807731 0
M  V30 15224 C 1426.1 -0.22497 -3.48274 0
M  V30 15225 C 1427.45 -0.104042 -4.24473 0
M  V30 15226 O 1428.48 -0.154919 -3.55863 0
M  V30 15227 O 1427.33 0.0136297 -5.46498 0
M  V30 15228 H 1424.43 0.0376106 -0.826144 0
M  V30 15229 H 1426.97 -0.674114 -1.55736 0
M  V30 15230 H 1425.75 -1.24391 -3.71002 0
M  V30 15231 H 1425.37 0.454234 -3.94997 0
M  V30 15232 N 1426.37 1.53816 -0.343257 0
M  V30 15233 C 1427.61 2.00512 0.252845 0
M  V30 15234 C 1427.94 1.23274 1.51091 0
M  V30 15235 O 1427.21 0.339841 1.9293 0
M  V30 15236 H 1425.79 0.740751 0.0964202 0
M  V30 15237 H 1428.45 1.89288 -0.464347 0
M  V30 15238 H 1427.54 3.08142 0.495499 0
M  V30 15239 N 1427.84 0.0718701 1.57436 0
M  V30 15240 C 1429.09 -0.598116 1.93779 0
M  V30 15241 C 1429.42 -1.69258 0.952131 0
M  V30 15242 O 1428.7 -1.94491 -0.0186426 0
M  V30 15243 C 1428.98 -1.17499 3.40391 0
M  V30 15244 C 1428.83 -0.0871719 4.49716 0
M  V30 15245 C 1430.15 -2.08047 3.8782 0
M  V30 15246 H 1427.27 -0.215954 0.704651 0
M  V30 15247 H 1429.91 0.137854 1.89499 0
M  V30 15248 H 1428.06 -1.80221 3.44169 0
M  V30 15249 H 1429.74 0.545906 4.58058 0
M  V30 15250 H 1427.98 0.582213 4.29875 0
M  V30 15251 H 1428.65 -0.531202 5.49438 0
M  V30 15252 H 1431.13 -1.5526 3.86049 0
M  V30 15253 H 1430 -2.45345 4.91016 0
M  V30 15254 H 1430.26 -2.98879 3.25766 0
M  V30 15255 N 1429.32 -1.56304 -0.201686 0
M  V30 15256 C 1430.6 -1.71059 -0.948595 0
M  V30 15257 C 1430.98 -0.624794 -2.01642 0
M  V30 15258 O 1430.33 0.365235 -2.25562 0
M  V30 15259 C 1430.54 -3.13136 -1.54101 0
M  V30 15260 C 1431.89 -3.73165 -2.02567 0
M  V30 15261 O 1432.91 -3.16223 -1.63956 0
M  V30 15262 O 1431.77 -4.73084 -2.73594 0
M  V30 15263 H 1428.86 -0.697443 -0.444412 0
M  V30 15264 H 1431.41 -1.68611 -0.191901 0
M  V30 15265 H 1430.18 -3.8363 -0.770968 0
M  V30 15266 H 1429.8 -3.19784 -2.36271 0
M  V30 15267 N 1430.8 0.469154 -1.50455 0
M  V30 15268 C 1432.05 1.2229 -1.6178 0
M  V30 15269 C 1432.38 1.91577 -0.318073 0
M  V30 15270 O 1431.65 1.82205 0.68057 0
M  V30 15271 C 1431.94 2.26504 -2.79943 0
M  V30 15272 C 1431.79 1.61509 -4.19804 0
M  V30 15273 C 1433.11 3.27796 -2.93662 0
M  V30 15274 H 1430.23 0.443241 -0.588817 0
M  V30 15275 H 1432.87 0.516431 -1.82847 0
M  V30 15276 H 1431.02 2.86757 -2.62112 0
M  V30 15277 H 1432.69 1.04838 -4.49229 0
M  V30 15278 H 1430.94 0.918162 -4.23972 0
M  V30 15279 H 1431.61 2.37248 -4.98415 0
M  V30 15280 H 1434.08 2.77568 -3.09992 0
M  V30 15281 H 1432.96 3.98041 -3.77961 0
M  V30 15282 H 1433.22 3.92033 -2.04359 0
M  V30 15283 N 1432.28 1.40065 0.722464 0
M  V30 15284 C 1433.69 1.33876 1.30131 0
M  V30 15285 C 1434.04 0.00899369 1.96198 0
M  V30 15286 O 1433.17 -0.893082 1.97112 0
M  V30 15287 C 1433.76 2.42469 2.36631 0
M  V30 15288 C 1432.32 2.39762 2.90157 0
M  V30 15289 C 1431.47 2.23704 1.63865 0
M  V30 15290 H 1434.42 1.49971 0.519077 0
M  V30 15291 H 1434.44 2.0998 3.17315 0
M  V30 15292 H 1433.95 3.39239 1.88517 0
M  V30 15293 H 1432.05 1.46669 3.42519 0
M  V30 15294 H 1432.16 3.35092 3.42419 0
M  V30 15295 H 1430.53 1.71098 1.88674 0
M  V30 15296 H 1431.31 3.22462 1.17785 0
M  V30 15297 N 1433.76 -0.95397 1.25448 0
M  V30 15298 C 1434.69 -2.06828 1.08372 0
M  V30 15299 C 1435.67 -1.70098 -0.00741585 0
M  V30 15300 O 1436.85 -1.93521 0.16224 0
M  V30 15301 C 1433.98 -3.40124 0.702365 0
M  V30 15302 C 1432.94 -3.90865 1.74381 0
M  V30 15303 C 1432.26 -5.20663 1.21712 0
M  V30 15304 C 1433.56 -4.17169 3.14273 0
M  V30 15305 H 1435.26 -2.21372 2.01581 0
M  V30 15306 H 1432.8 -1.06374 0.970592 0
M  V30 15307 H 1434.76 -4.17529 0.569837 0
M  V30 15308 H 1433.48 -3.2552 -0.265428 0
M  V30 15309 H 1432.14 -3.15628 1.86479 0
M  V30 15310 H 1431.79 -5.02429 0.23954 0
M  V30 15311 H 1431.49 -5.55581 1.91319 0
M  V30 15312 H 1433.01 -6.00665 1.097 0
M  V30 15313 H 1434.43 -4.85231 3.05325 0
M  V30 15314 H 1432.82 -4.63344 3.81356 0
M  V30 15315 H 1433.89 -3.23421 3.61285 0
M  V30 15316 N 1435.24 -1.07045 -1.15668 0
M  V30 15317 C 1436.48 -0.790172 -1.86013 0
M  V30 15318 C 1436.8 0.685663 -1.82548 0
M  V30 15319 O 1436.07 1.49644 -1.26426 0
M  V30 15320 H 1434.65 -0.28931 -0.688701 0
M  V30 15321 H 1437.32 -1.35354 -1.40233 0
M  V30 15322 H 1436.41 -1.1219 -2.91239 0
M  V30 15323 N 1436.71 1.32449 -0.85411 0
M  V30 15324 C 1437.94 2.01463 -0.471188 0
M  V30 15325 C 1438.36 1.64195 0.931954 0
M  V30 15326 O 1437.71 0.862994 1.60806 0
M  V30 15327 C 1437.76 3.56486 -0.600022 0
M  V30 15328 O 1437.49 3.92414 -1.94789 0
M  V30 15329 C 1438.99 4.42773 -0.216036 0
M  V30 15330 H 1436.21 0.644914 -0.185275 0
M  V30 15331 H 1438.75 1.6904 -1.1509 0
M  V30 15332 H 1436.91 3.87387 0.0319488 0
M  V30 15333 H 1437.32 4.87133 -1.94427 0
M  V30 15334 H 1438.79 5.50843 -0.357186 0
M  V30 15335 H 1439.27 4.31025 0.843468 0
M  V30 15336 H 1439.88 4.1726 -0.823058 0
M  V30 15337 N 1438.19 0.611994 1.45232 0
M  V30 15338 C 1439.44 0.108696 2.01807 0
M  V30 15339 C 1439.76 -1.26692 1.48237 0
M  V30 15340 O 1439.03 -1.8378 0.678368 0
M  V30 15341 H 1437.61 0.0371921 0.746074 0
M  V30 15342 H 1440.27 0.794386 1.77976 0
M  V30 15343 H 1439.37 0.0618207 3.12039 0
M  V30 15344 N 1439.67 -1.53632 0.351409 0
M  V30 15345 C 1440.92 -2.00222 -0.243731 0
M  V30 15346 C 1441.23 -1.24305 -1.51022 0
M  V30 15347 O 1442.44 -1.61411 -2.18309 0
M  V30 15348 C 1440.89 -3.56619 -0.48487 0
M  V30 15349 C 1440.5 -4.414 0.766173 0
M  V30 15350 C 1442.25 -4.11603 -1.03844 0
M  V30 15351 C 1440.15 -5.89321 0.4954 0
M  V30 15352 H 1439.08 -0.74801 -0.0948534 0
M  V30 15353 H 1441.73 -1.77433 0.467957 0
M  V30 15354 H 1440.12 -3.75505 -1.25746 0
M  V30 15355 H 1441.29 -4.34288 1.54047 0
M  V30 15356 H 1439.6 -3.97448 1.24194 0
M  V30 15357 H 1442.2 -5.19736 -1.25611 0
M  V30 15358 H 1442.54 -3.65311 -1.99634 0
M  V30 15359 H 1443.08 -3.96459 -0.326363 0
M  V30 15360 H 1439.82 -6.39863 1.42324 0
M  V30 15361 H 1439.34 -5.99317 -0.240662 0
M  V30 15362 H 1441.02 -6.46897 0.115584 0
M  V30 15363 N 1441.15 -0.0802183 -1.57396 0
M  V30 15364 C 1442.37 0.599179 -1.98556 0
M  V30 15365 C 1442.8 1.61844 -0.958555 0
M  V30 15366 O 1442.16 1.81146 0.0748226 0
M  V30 15367 C 1442.2 1.23675 -3.38728 0
M  V30 15368 O 1441.31 2.35262 -3.38712 0
M  V30 15369 H 1440.65 0.153366 -0.646045 0
M  V30 15370 H 1443.18 -0.157227 -2.03995 0
M  V30 15371 H 1443.19 1.5816 -3.76098 0
M  V30 15372 H 1441.86 0.489946 -4.13004 0
M  V30 15373 H 1440.44 2.02507 -3.13122 0
M  V30 15374 N 1442.63 1.56409 0.193394 0
M  V30 15375 C 1443.85 1.8519 0.933775 0
M  V30 15376 C 1444.28 0.663991 1.75991 0
M  V30 15377 O 1443.63 -0.387198 1.77117 0
M  V30 15378 C 1443.68 3.12212 1.80432 0
M  V30 15379 O 1442.79 2.92884 2.90332 0
M  V30 15380 H 1442.13 0.609754 0.262862 0
M  V30 15381 H 1444.66 2.03638 0.198195 0
M  V30 15382 H 1444.67 3.4305 2.20864 0
M  V30 15383 H 1443.34 3.98292 1.19733 0
M  V30 15384 H 1441.92 2.73349 2.53643 0
M  V30 15385 N 1444.1 -0.461169 1.50702 0
M  V30 15386 C 1445.35 -1.21012 1.61866 0
M  V30 15387 C 1445.67 -1.9226 0.325736 0
M  V30 15388 O 1444.94 -1.84543 -0.657306 0
M  V30 15389 H 1443.52 -0.449671 0.596494 0
M  V30 15390 H 1446.18 -0.531056 1.87525 0
M  V30 15391 H 1445.28 -1.95266 2.4347 0
M  V30 15392 N 1445.58 -1.40446 -0.715026 0
M  V30 15393 C 1446.83 -1.3896 -1.47709 0
M  V30 15394 C 1447.16 0.00798698 -1.94198 0
M  V30 15395 O 1446.44 0.976732 -1.68197 0
M  V30 15396 C 1446.72 -2.37955 -2.70277 0
M  V30 15397 C 1446.57 -3.8674 -2.29678 0
M  V30 15398 C 1447.89 -2.34478 -3.72435 0
M  V30 15399 H 1445.01 -0.50607 -0.535782 0
M  V30 15400 H 1447.65 -1.71585 -0.815999 0
M  V30 15401 H 1445.8 -2.10264 -3.26682 0
M  V30 15402 H 1447.47 -4.2526 -1.7875 0
M  V30 15403 H 1445.72 -4.02547 -1.61674 0
M  V30 15404 H 1446.39 -4.51524 -3.17538 0
M  V30 15405 H 1448.86 -2.59007 -3.2566 0
M  V30 15406 H 1447.74 -3.05791 -4.55832 0
M  V30 15407 H 1448 -1.35661 -4.20771 0
M  V30 15408 N 1447.06 0.947303 -1.25952 0
M  V30 15409 C 1448.01 2.06642 -1.06779 0
M  V30 15410 C 1449 1.694 0.00348362 0
M  V30 15411 O 1450.21 1.79351 -0.152715 0
M  V30 15412 H 1446.58 0.676499 -0.32841 0
M  V30 15413 H 1448.55 2.19968 -2.01635 0
M  V30 15414 C 1447.3 3.40353 -0.711015 0
M  V30 15415 H 1446.63 3.69483 -1.52718 0
M  V30 15416 H 1448.07 4.19493 -0.616606 0
M  V30 15417 C 1446.52 3.3181 0.58344 0
M  V30 15418 O 1447.05 3.67431 1.6235 0
M  V30 15419 N 1445.26 2.84919 0.571797 0
M  V30 15420 H 1444.81 2.56128 -0.274962 0
M  V30 15421 H 1444.77 2.79586 1.43803 0
M  V30 15422 N 1448.54 1.07657 1.15099 0
M  V30 15423 C 1449.82 0.714608 1.82079 0
M  V30 15424 C 1450.2 -0.802578 1.95248 0
M  V30 15425 O 1449.54 -1.71818 1.50634 0
M  V30 15426 C 1449.75 1.43264 3.1824 0
M  V30 15427 C 1451.1 1.58675 3.93837 0
M  V30 15428 O 1452.13 1.39367 3.27804 0
M  V30 15429 O 1450.98 1.9047 5.12234 0
M  V30 15430 H 1448.08 0.254645 0.786819 0
M  V30 15431 H 1450.62 1.17768 1.22183 0
M  V30 15432 H 1449.4 2.46655 3.03772 0
M  V30 15433 H 1449.02 0.960546 3.85823 0
M  V30 15434 N 1450.02 -1.31994 0.861122 0
M  V30 15435 C 1451.24 -2.01211 0.481865 0
M  V30 15436 C 1451.66 -1.64687 -0.923233 0
M  V30 15437 O 1451.02 -0.87151 -1.60346 0
M  V30 15438 C 1451.07 -3.56162 0.618919 0
M  V30 15439 O 1450.79 -3.91376 1.96868 0
M  V30 15440 C 1452.29 -4.42652 0.239514 0
M  V30 15441 H 1449.51 -0.643922 0.188693 0
M  V30 15442 H 1452.05 -1.68427 1.15985 0
M  V30 15443 H 1450.21 -3.87398 -0.0114042 0
M  V30 15444 H 1450.62 -4.86095 1.97008 0
M  V30 15445 H 1452.1 -5.50646 0.386394 0
M  V30 15446 H 1452.57 -4.31466 -0.820598 0
M  V30 15447 H 1453.18 -4.16818 0.845175 0
M  V30 15448 N 1451.49 -0.619688 -1.44906 0
M  V30 15449 C 1452.72 -0.124598 -2.07025 0
M  V30 15450 C 1453.14 1.18698 -1.45919 0
M  V30 15451 O 1452.5 1.72552 -0.556366 0
M  V30 15452 C 1452.55 -0.0112238 -3.60598 0
M  V30 15453 O 1451.65 1.03582 -3.9918 0
M  V30 15454 H 1451 -0.0795631 -0.659216 0
M  V30 15455 H 1453.53 -0.853127 -1.85965 0
M  V30 15456 H 1453.54 0.183079 -4.07589 0
M  V30 15457 H 1452.21 -0.968849 -4.04458 0
M  V30 15458 H 1450.79 0.817008 -3.6384 0
M  V30 15459 N 1452.97 1.53444 -0.359552 0
M  V30 15460 C 1453.9 2.28475 0.4818 0
M  V30 15461 C 1454.88 1.30664 1.08908 0
M  V30 15462 O 1456.07 1.59527 1.10746 0
M  V30 15463 C 1453.2 3.06951 1.62477 0
M  V30 15464 C 1452.15 4.12399 1.14504 0
M  V30 15465 C 1451.48 4.78922 2.37777 0
M  V30 15466 C 1452.78 5.21775 0.234075 0
M  V30 15467 H 1454.47 2.99053 -0.144162 0
M  V30 15468 H 1452.02 1.43826 -0.0707746 0
M  V30 15469 H 1453.97 3.58186 2.21993 0
M  V30 15470 H 1452.7 2.34053 2.27787 0
M  V30 15471 H 1451.35 3.62101 0.572589 0
M  V30 15472 H 1451 4.02602 3.0153 0
M  V30 15473 H 1450.7 5.50175 2.06353 0
M  V30 15474 H 1452.23 5.32948 2.97991 0
M  V30 15475 H 1453.64 5.68549 0.736548 0
M  V30 15476 H 1452.04 6.00099 0.0109887 0
M  V30 15477 H 1453.11 4.79443 -0.725435 0
M  V30 15478 N 1454.45 0.0885642 1.57351 0
M  V30 15479 C 1455.38 -0.869946 2.16689 0
M  V30 15480 C 1456.36 -1.29878 1.09844 0
M  V30 15481 O 1457.55 -1.36684 1.37954 0
M  V30 15482 C 1454.68 -2.13148 2.74199 0
M  V30 15483 C 1453.63 -1.84149 3.86359 0
M  V30 15484 C 1452.96 -3.17075 4.30543 0
M  V30 15485 C 1454.26 -1.13357 5.09851 0
M  V30 15486 H 1455.95 -0.375578 2.97035 0
M  V30 15487 H 1453.5 -0.17921 1.42881 0
M  V30 15488 H 1455.45 -2.80634 3.14361 0
M  V30 15489 H 1454.17 -2.64856 1.91098 0
M  V30 15490 H 1452.83 -1.19063 3.46727 0
M  V30 15491 H 1452.48 -3.66658 3.44342 0
M  V30 15492 H 1452.18 -2.98457 5.06159 0
M  V30 15493 H 1453.7 -3.85731 4.73333 0
M  V30 15494 H 1455.12 -1.70941 5.47222 0
M  V30 15495 H 1453.52 -1.0494 5.90853 0
M  V30 15496 H 1454.59 -0.115273 4.84763 0
M  V30 15497 N 1455.93 -1.56509 -0.185096 0
M  V30 15498 C 1457.16 -1.85058 -0.918527 0
M  V30 15499 C 1457.57 -0.670181 -1.76933 0
M  V30 15500 O 1456.91 0.370215 -1.79931 0
M  V30 15501 C 1456.97 -3.07843 -1.85669 0
M  V30 15502 C 1456.64 -4.41319 -1.18686 0
M  V30 15503 C 1457.63 -5.16887 -0.558946 0
M  V30 15504 C 1455.32 -4.88056 -1.18773 0
M  V30 15505 C 1457.31 -6.37373 0.0591595 0
M  V30 15506 C 1455 -6.08475 -0.565791 0
M  V30 15507 C 1456 -6.82977 0.0565621 0
M  V30 15508 O 1455.68 -8.01114 0.668726 0
M  V30 15509 H 1455.42 -0.618423 -0.273001 0
M  V30 15510 H 1457.97 -2.04479 -0.194261 0
M  V30 15511 H 1456.2 -2.84332 -2.62092 0
M  V30 15512 H 1457.89 -3.22954 -2.45877 0
M  V30 15513 H 1458.66 -4.81867 -0.550347 0
M  V30 15514 H 1454.53 -4.30016 -1.66154 0
M  V30 15515 H 1458.08 -6.95464 0.545534 0
M  V30 15516 H 1453.98 -6.42961 -0.571927 0
M  V30 15517 H 1454.74 -8.16536 0.566616 0
M  V30 15518 N 1457.41 0.45317 -1.50944 0
M  V30 15519 C 1458.35 1.56953 -1.71664 0
M  V30 15520 C 1459.35 1.59064 -0.582673 0
M  V30 15521 O 1460.55 1.62998 -0.763651 0
M  V30 15522 H 1456.93 0.521147 -0.542135 0
M  V30 15523 H 1458.9 1.36645 -2.65275 0
M  V30 15524 C 1457.65 2.9475 -1.84438 0
M  V30 15525 H 1456.97 2.93852 -2.71093 0
M  V30 15526 H 1458.41 3.72271 -2.02954 0
M  V30 15527 C 1456.87 3.31509 -0.600281 0
M  V30 15528 O 1457.4 4.00906 0.252366 0
M  V30 15529 N 1455.61 2.8711 -0.449014 0
M  V30 15530 H 1455.15 2.30808 -1.14392 0
M  V30 15531 H 1455.11 3.12068 0.382199 0
M  V30 15532 N 1458.88 1.40823 0.707568 0
M  V30 15533 C 1459.79 1.44058 1.85161 0
M  V30 15534 C 1460.81 0.332357 1.70796 0
M  V30 15535 O 1461.99 0.578205 1.92922 0
M  V30 15536 C 1459.05 1.3091 3.21035 0
M  V30 15537 C 1458.11 2.51944 3.47595 0
M  V30 15538 C 1457.35 2.39414 4.76987 0
M  V30 15539 O 1457.57 1.41224 5.52641 0
M  V30 15540 O 1456.5 3.28944 5.04063 0
M  V30 15541 H 1460.33 2.40551 1.85388 0
M  V30 15542 H 1457.91 1.22232 0.859052 0
M  V30 15543 H 1459.8 1.25816 4.02179 0
M  V30 15544 H 1458.47 0.375263 3.21517 0
M  V30 15545 H 1457.38 2.62615 2.66428 0
M  V30 15546 H 1458.71 3.44115 3.51917 0
M  V30 15547 N 1460.36 -0.94061 1.26453 0
M  V30 15548 C 1461.59 -1.71874 1.14643 0
M  V30 15549 C 1462 -1.86791 -0.300969 0
M  V30 15550 O 1461.34 -1.37529 -1.21784 0
M  V30 15551 C 1461.41 -3.14408 1.74321 0
M  V30 15552 C 1461.07 -3.22873 3.23422 0
M  V30 15553 C 1462.07 -3.06107 4.20231 0
M  V30 15554 C 1459.75 -3.46245 3.63895 0
M  V30 15555 C 1461.75 -3.12581 5.55492 0
M  V30 15556 C 1459.43 -3.52354 4.99289 0
M  V30 15557 C 1460.43 -3.35539 5.94897 0
M  V30 15558 O 1460.12 -3.41357 7.27826 0
M  V30 15559 H 1459.85 -0.544931 0.400033 0
M  V30 15560 H 1462.4 -1.18767 1.67581 0
M  V30 15561 H 1460.63 -3.6894 1.15846 0
M  V30 15562 H 1462.32 -3.74135 1.57409 0
M  V30 15563 H 1463.09 -2.87906 3.90302 0
M  V30 15564 H 1458.97 -3.58389 2.89962 0
M  V30 15565 H 1462.51 -2.99374 6.30096 0
M  V30 15566 H 1458.41 -3.70077 5.2888 0
M  V30 15567 H 1459.18 -3.57897 7.36106 0
M  V30 15568 N 1461.84 -1.08266 -1.14527 0
M  V30 15569 C 1463.09 -0.806405 -1.84878 0
M  V30 15570 C 1463.4 0.670151 -1.83762 0
M  V30 15571 O 1464.61 1.06151 -2.49888 0
M  V30 15572 C 1463.06 -1.39257 -3.31867 0
M  V30 15573 C 1462.67 -2.90081 -3.41404 0
M  V30 15574 C 1464.42 -1.19475 -4.0734 0
M  V30 15575 C 1462.32 -3.41842 -4.82595 0
M  V30 15576 H 1461.25 -0.297993 -0.692615 0
M  V30 15577 H 1463.9 -1.30389 -1.29116 0
M  V30 15578 H 1462.29 -0.822802 -3.87358 0
M  V30 15579 H 1463.46 -3.53182 -2.95971 0
M  V30 15580 H 1461.78 -3.08761 -2.79385 0
M  V30 15581 H 1464.37 -1.55614 -5.11555 0
M  V30 15582 H 1464.72 -0.134455 -4.16083 0
M  V30 15583 H 1465.25 -1.73138 -3.58145 0
M  V30 15584 H 1461.99 -4.47439 -4.79039 0
M  V30 15585 H 1461.51 -2.835 -5.28572 0
M  V30 15586 H 1463.19 -3.38346 -5.51481 0
M  V30 15587 N 1463.32 1.31536 -0.86811 0
M  V30 15588 C 1464.57 1.97066 -0.478829 0
M  V30 15589 C 1464.9 1.68469 0.966021 0
M  V30 15590 O 1464.17 0.980166 1.67997 0
M  V30 15591 C 1464.46 3.52533 -0.734313 0
M  V30 15592 C 1464.31 3.90711 -2.22856 0
M  V30 15593 C 1465.63 4.39647 -0.199559 0
M  V30 15594 H 1462.75 0.715813 -0.175444 0
M  V30 15595 H 1465.39 1.55694 -1.08901 0
M  V30 15596 H 1463.54 3.87905 -0.214962 0
M  V30 15597 H 1465.21 3.65451 -2.81502 0
M  V30 15598 H 1463.45 3.39385 -2.70185 0
M  V30 15599 H 1464.13 4.99103 -2.35797 0
M  V30 15600 H 1466.6 4.11088 -0.643853 0
M  V30 15601 H 1465.48 5.47383 -0.407783 0
M  V30 15602 H 1465.74 4.32875 0.898414 0
M  V30 15603 N 1464.8 0.627364 1.44575 0
M  V30 15604 C 1466.03 0.137114 2.06145 0
M  V30 15605 C 1466.44 -1.19201 1.46928 0
M  V30 15606 O 1465.78 -1.7413 0.585199 0
M  V30 15607 C 1465.84 -0.0560229 3.59456 0
M  V30 15608 C 1465.5 1.19435 4.41117 0
M  V30 15609 C 1466.5 2.11717 4.74839 0
M  V30 15610 C 1464.19 1.42871 4.81553 0
M  V30 15611 C 1466.18 3.25749 5.47875 0
M  V30 15612 C 1463.87 2.572 5.54339 0
M  V30 15613 C 1464.87 3.48466 5.87419 0
M  V30 15614 O 1464.55 4.60802 6.58723 0
M  V30 15615 H 1464.29 0.0751614 0.671809 0
M  V30 15616 H 1466.84 0.86076 1.86494 0
M  V30 15617 H 1465.07 -0.834775 3.77582 0
M  V30 15618 H 1466.76 -0.500352 4.02804 0
M  V30 15619 H 1467.52 1.94844 4.44141 0
M  V30 15620 H 1463.4 0.727246 4.55228 0
M  V30 15621 H 1466.95 3.97007 5.73612 0
M  V30 15622 H 1462.84 2.74018 5.84452 0
M  V30 15623 H 1463.61 4.59736 6.77189 0
M  V30 15624 N 1466.28 -1.53251 0.367684 0
M  V30 15625 C 1467.55 -1.93617 -0.277842 0
M  V30 15626 C 1467.93 -1.3014 -1.66213 0
M  V30 15627 O 1467.28 -0.461277 -2.23796 0
M  V30 15628 C 1467.49 -3.47475 -0.325937 0
M  V30 15629 C 1468.84 -4.2082 -0.565276 0
M  V30 15630 O 1469.86 -3.53866 -0.407057 0
M  V30 15631 O 1468.72 -5.39474 -0.873522 0
M  V30 15632 H 1465.82 -0.80993 -0.167158 0
M  V30 15633 H 1468.36 -1.64405 0.420621 0
M  V30 15634 H 1467.13 -3.85955 0.644542 0
M  V30 15635 H 1466.76 -3.82926 -1.07021 0
M  V30 15636 N 1467.75 -0.0969077 -1.57302 0
M  V30 15637 C 1469 0.566072 -1.93594 0
M  V30 15638 C 1469.32 1.69226 -0.980922 0
M  V30 15639 O 1470.52 2.41651 -1.23763 0
M  V30 15640 C 1468.98 1.05832 -3.43988 0
M  V30 15641 C 1468.59 -0.038207 -4.47984 0
M  V30 15642 C 1470.33 1.69393 -3.89238 0
M  V30 15643 C 1468.24 0.4695 -5.89533 0
M  V30 15644 H 1467.17 0.215226 -0.72263 0
M  V30 15645 H 1469.82 -0.173202 -1.82681 0
M  V30 15646 H 1468.2 1.85134 -3.50059 0
M  V30 15647 H 1469.37 -0.813761 -4.53558 0
M  V30 15648 H 1467.69 -0.579113 -4.12353 0
M  V30 15649 H 1470.29 2.08454 -4.92393 0
M  V30 15650 H 1470.63 2.56381 -3.27986 0
M  V30 15651 H 1471.16 0.966709 -3.85875 0
M  V30 15652 H 1467.9 -0.363802 -6.5449 0
M  V30 15653 H 1467.42 1.21202 -5.87427 0
M  V30 15654 H 1469.1 0.937885 -6.40166 0
M  V30 15655 N 1469.23 1.56605 0.176793 0
M  V30 15656 C 1470.19 1.95109 1.20271 0
M  V30 15657 C 1471.19 0.83414 1.37473 0
M  V30 15658 O 1472.38 1.10128 1.34972 0
M  V30 15659 C 1469.52 2.24112 2.56878 0
M  V30 15660 H 1470.71 2.86909 0.87312 0
M  V30 15661 H 1468.26 1.50578 0.419033 0
M  V30 15662 H 1469 1.35009 2.94861 0
M  V30 15663 H 1468.78 3.05523 2.45761 0
M  V30 15664 H 1470.27 2.54842 3.30825 0
M  V30 15665 N 1470.71 -0.445159 1.51182 0
M  V30 15666 C 1471.64 -1.55788 1.68115 0
M  V30 15667 C 1472.65 -1.52793 0.561964 0
M  V30 15668 O 1473.84 -1.57711 0.836029 0
M  V30 15669 C 1470.94 -2.94702 1.67344 0
M  V30 15670 C 1470.12 -3.22286 2.9572 0
M  V30 15671 C 1469.18 -4.40884 2.87241 0
M  V30 15672 O 1468.2 -4.3992 3.61191 0
M  V30 15673 N 1469.4 -5.44013 2.02558 0
M  V30 15674 H 1472.17 -1.4167 2.64102 0
M  V30 15675 H 1469.73 -0.633984 1.48971 0
M  V30 15676 H 1471.72 -3.7205 1.5925 0
M  V30 15677 H 1470.29 -3.02457 0.789842 0
M  V30 15678 H 1469.51 -2.33309 3.17743 0
M  V30 15679 H 1470.8 -3.3754 3.80715 0
M  V30 15680 H 1470.2 -5.47629 1.4184 0
M  V30 15681 H 1468.75 -6.20245 2.0035 0
M  V30 15682 N 1472.19 -1.41197 -0.700089 0
M  V30 15683 C 1473.43 -1.40519 -1.46227 0
M  V30 15684 C 1473.77 -0.0126108 -1.94196 0
M  V30 15685 O 1473.04 0.958837 -1.69223 0
M  V30 15686 C 1473.32 -2.40808 -2.67738 0
M  V30 15687 C 1473.18 -3.89154 -2.25563 0
M  V30 15688 C 1474.5 -2.38415 -3.69927 0
M  V30 15689 H 1471.62 -0.511724 -0.530384 0
M  V30 15690 H 1474.26 -1.72441 -0.797754 0
M  V30 15691 H 1472.41 -2.13717 -3.24434 0
M  V30 15692 H 1474.08 -4.27132 -1.74229 0
M  V30 15693 H 1472.32 -4.04239 -1.57395 0
M  V30 15694 H 1472.99 -4.54866 -3.12731 0
M  V30 15695 H 1475.47 -2.62447 -3.22895 0
M  V30 15696 H 1474.35 -3.10609 -4.52563 0
M  V30 15697 H 1474.61 -1.40116 -4.19309 0
M  V30 15698 N 1473.67 0.933891 -1.2695 0
M  V30 15699 C 1474.61 2.05498 -1.08964 0
M  V30 15700 C 1475.61 1.69394 -0.0144837 0
M  V30 15701 O 1476.81 1.79179 -0.171729 0
M  V30 15702 H 1473.19 0.672978 -0.335566 0
M  V30 15703 H 1475.16 2.17817 -2.03957 0
M  V30 15704 C 1473.91 3.39579 -0.747074 0
M  V30 15705 H 1473.23 3.67842 -1.56628 0
M  V30 15706 H 1474.67 4.18815 -0.661064 0
M  V30 15707 C 1473.13 3.3241 0.548214 0
M  V30 15708 O 1473.66 3.69132 1.58443 0
M  V30 15709 N 1471.87 2.85509 0.541545 0
M  V30 15710 H 1471.41 2.55822 -0.302112 0
M  V30 15711 H 1471.37 2.81095 1.4083 0
M  V30 15712 N 1475.14 1.08871 1.13951 0
M  V30 15713 C 1476.07 0.744715 2.21306 0
M  V30 15714 C 1477.05 -0.275019 1.67862 0
M  V30 15715 O 1478.24 -0.144339 1.93663 0
M  V30 15716 C 1475.37 0.158336 3.46939 0
M  V30 15717 C 1474.32 1.10695 4.13438 0
M  V30 15718 C 1473.65 0.382552 5.3333 0
M  V30 15719 C 1474.95 2.44704 4.61429 0
M  V30 15720 H 1476.64 1.6423 2.50337 0
M  V30 15721 H 1474.19 0.791088 1.20324 0
M  V30 15722 H 1476.14 -0.0943587 4.21294 0
M  V30 15723 H 1474.87 -0.774413 3.17286 0
M  V30 15724 H 1473.53 1.34482 3.41043 0
M  V30 15725 H 1473.17 -0.554153 4.99938 0
M  V30 15726 H 1472.87 1.01499 5.78767 0
M  V30 15727 H 1474.4 0.138023 6.10444 0
M  V30 15728 H 1475.81 2.25156 5.27236 0
M  V30 15729 H 1474.21 3.03684 5.17586 0
M  V30 15730 H 1475.28 3.05883 3.76249 0
M  V30 15731 N 1476.62 -1.31073 0.875073 0
M  V30 15732 C 1477.57 -2.28389 0.332718 0
M  V30 15733 C 1478.54 -1.55954 -0.571639 0
M  V30 15734 O 1479.72 -1.84073 -0.502185 0
M  V30 15735 C 1476.86 -3.42083 -0.455364 0
M  V30 15736 C 1475.98 -4.29358 0.477088 0
M  V30 15737 C 1475.11 -5.30201 -0.325619 0
M  V30 15738 C 1474.15 -6.09123 0.602935 0
M  V30 15739 N 1473.29 -7.01909 -0.163836 0
M  V30 15740 H 1478.13 -2.74166 1.16777 0
M  V30 15741 H 1475.66 -1.3487 0.587248 0
M  V30 15742 H 1477.62 -4.06746 -0.928104 0
M  V30 15743 H 1476.25 -2.97402 -1.25507 0
M  V30 15744 H 1475.3 -3.65091 1.06829 0
M  V30 15745 H 1476.62 -4.84425 1.18887 0
M  V30 15746 H 1475.77 -6.00565 -0.860647 0
M  V30 15747 H 1474.51 -4.75802 -1.07067 0
M  V30 15748 H 1473.51 -5.37645 1.14968 0
M  V30 15749 H 1474.74 -6.65609 1.34692 0
M  V30 15750 H 1472.69 -6.49913 -0.891604 0
M  V30 15751 H 1472.6 -7.5442 0.48851 0
M  V30 15752 H 1473.87 -7.76529 -0.679929 0
M  V30 15753 N 1478.1 -0.635022 -1.4424 0
M  V30 15754 C 1479.33 -0.148045 -2.06069 0
M  V30 15755 C 1479.74 1.1842 -1.47558 0
M  V30 15756 O 1479.08 1.73817 -0.594425 0
M  V30 15757 C 1479.14 0.0369593 -3.59481 0
M  V30 15758 C 1478.81 -1.21773 -4.40478 0
M  V30 15759 C 1479.8 -2.14233 -4.73709 0
M  V30 15760 C 1477.49 -1.45423 -4.80788 0
M  V30 15761 C 1479.48 -3.2865 -5.46139 0
M  V30 15762 C 1477.17 -2.60136 -5.52967 0
M  V30 15763 C 1478.17 -3.51576 -5.85562 0
M  V30 15764 O 1477.86 -4.64289 -6.5627 0
M  V30 15765 H 1477.59 -0.0787231 -0.671401 0
M  V30 15766 H 1480.14 -0.870639 -1.86035 0
M  V30 15767 H 1478.37 0.814739 -3.7802 0
M  V30 15768 H 1480.06 0.478984 -4.03064 0
M  V30 15769 H 1480.83 -1.97196 -4.43101 0
M  V30 15770 H 1476.71 -0.751378 -4.54835 0
M  V30 15771 H 1480.25 -4.00043 -5.71499 0
M  V30 15772 H 1476.15 -2.77114 -5.82991 0
M  V30 15773 H 1476.92 -4.6332 -6.74742 0
M  V30 15774 N 1479.58 1.53054 -0.375806 0
M  V30 15775 C 1480.51 2.28973 0.45754 0
M  V30 15776 C 1481.49 1.31812 1.07516 0
M  V30 15777 O 1482.67 1.60693 1.09048 0
M  V30 15778 C 1479.8 3.08657 1.59212 0
M  V30 15779 C 1478.76 4.1359 1.10123 0
M  V30 15780 C 1478.08 4.81417 2.32684 0
M  V30 15781 C 1479.38 5.21994 0.17872 0
M  V30 15782 H 1481.08 2.98883 -0.175872 0
M  V30 15783 H 1478.62 1.43743 -0.0860253 0
M  V30 15784 H 1480.58 3.6052 2.18182 0
M  V30 15785 H 1479.3 2.36456 2.25291 0
M  V30 15786 H 1477.96 3.62688 0.534151 0
M  V30 15787 H 1477.61 4.05778 2.97243 0
M  V30 15788 H 1477.31 5.52332 2.00506 0
M  V30 15789 H 1478.83 5.36079 2.92322 0
M  V30 15790 H 1480.25 5.69298 0.676204 0
M  V30 15791 H 1478.64 6.00077 -0.0526605 0
M  V30 15792 H 1479.71 4.78646 -0.776246 0
M  V30 15793 N 1481.06 0.105248 1.57248 0
M  V30 15794 C 1481.99 -0.846915 2.176 0
M  V30 15795 C 1482.97 -1.28706 1.11216 0
M  V30 15796 O 1484.15 -1.35213 1.39396 0
M  V30 15797 C 1481.28 -2.10228 2.76445 0
M  V30 15798 C 1480.24 -1.80041 3.8829 0
M  V30 15799 C 1479.56 -3.12491 4.33882 0
M  V30 15800 C 1480.86 -1.07943 5.11024 0
M  V30 15801 H 1482.56 -0.344052 2.97417 0
M  V30 15802 H 1480.1 -0.164045 1.43063 0
M  V30 15803 H 1482.06 -2.77284 3.17319 0
M  V30 15804 H 1480.78 -2.62815 1.93897 0
M  V30 15805 H 1479.44 -1.15379 3.4797 0
M  V30 15806 H 1479.09 -3.62985 3.48211 0
M  V30 15807 H 1478.79 -2.93072 5.09296 0
M  V30 15808 H 1480.31 -3.80688 4.77398 0
M  V30 15809 H 1481.72 -1.65127 5.49004 0
M  V30 15810 H 1480.12 -0.986674 5.91933 0
M  V30 15811 H 1481.19 -0.0638511 4.84858 0
M  V30 15812 N 1482.53 -1.56697 -0.168486 0
M  V30 15813 C 1483.48 -1.96628 -1.20855 0
M  V30 15814 C 1484.45 -0.830623 -1.4384 0
M  V30 15815 O 1485.64 -1.09097 -1.56533 0
M  V30 15816 C 1482.78 -2.3338 -2.5422 0
M  V30 15817 C 1481.89 -3.60137 -2.3859 0
M  V30 15818 C 1481.02 -3.86088 -3.64842 0
M  V30 15819 C 1480.06 -5.06184 -3.44157 0
M  V30 15820 N 1479.2 -5.28254 -4.62485 0
M  V30 15821 H 1484.04 -2.8529 -0.86102 0
M  V30 15822 H 1481.58 -1.41162 -0.413741 0
M  V30 15823 H 1483.54 -2.52711 -3.31953 0
M  V30 15824 H 1482.17 -1.47825 -2.86963 0
M  V30 15825 H 1481.22 -3.48704 -1.52019 0
M  V30 15826 H 1482.53 -4.48028 -2.19254 0
M  V30 15827 H 1481.68 -4.05802 -4.5101 0
M  V30 15828 H 1480.42 -2.96578 -3.8716 0
M  V30 15829 H 1479.43 -4.86366 -2.56376 0
M  V30 15830 H 1480.65 -5.97228 -3.23258 0
M  V30 15831 H 1478.6 -4.41695 -4.85017 0
M  V30 15832 H 1478.52 -6.10373 -4.46072 0
M  V30 15833 H 1479.78 -5.52448 -5.49928 0
M  V30 15834 N 1484.01 0.437135 -1.51416 0
M  V30 15835 C 1484.94 1.538 -1.75692 0
M  V30 15836 C 1485.92 1.5891 -0.606759 0
M  V30 15837 O 1487.11 1.74635 -0.849492 0
M  V30 15838 C 1484.24 2.91877 -1.88215 0
M  V30 15839 C 1483.19 3.01628 -3.03652 0
M  V30 15840 C 1482.52 4.41687 -3.01358 0
M  V30 15841 C 1483.82 2.75691 -4.43612 0
M  V30 15842 H 1485.51 1.33737 -2.67871 0
M  V30 15843 H 1483.06 0.641936 -1.289 0
M  V30 15844 H 1485.01 3.68851 -2.03781 0
M  V30 15845 H 1483.74 3.13173 -0.926847 0
M  V30 15846 H 1482.39 2.27094 -2.87791 0
M  V30 15847 H 1482.04 4.5995 -2.03605 0
M  V30 15848 H 1481.74 4.49141 -3.78875 0
M  V30 15849 H 1483.27 5.20634 -3.19018 0
M  V30 15850 H 1484.68 3.42398 -4.59822 0
M  V30 15851 H 1483.08 2.94554 -5.22836 0
M  V30 15852 H 1484.15 1.71297 -4.53636 0
M  V30 15853 N 1485.49 1.41566 0.692592 0
M  V30 15854 C 1486.44 1.43648 1.80648 0
M  V30 15855 C 1487.41 0.290497 1.6354 0
M  V30 15856 O 1488.59 0.491979 1.84348 0
M  V30 15857 C 1485.73 1.32733 3.18553 0
M  V30 15858 C 1484.85 2.57224 3.47073 0
M  V30 15859 C 1483.98 2.38581 4.74608 0
M  V30 15860 C 1483.02 3.58534 4.96105 0
M  V30 15861 N 1482.16 3.38942 6.14868 0
M  V30 15862 H 1487 2.38847 1.78203 0
M  V30 15863 H 1484.53 1.186 0.870193 0
M  V30 15864 H 1486.49 1.24405 3.9822 0
M  V30 15865 H 1485.12 0.411407 3.20168 0
M  V30 15866 H 1484.17 2.7599 2.6179 0
M  V30 15867 H 1485.49 3.46443 3.58858 0
M  V30 15868 H 1484.64 2.27738 5.62335 0
M  V30 15869 H 1483.38 1.46824 4.65074 0
M  V30 15870 H 1482.38 3.69828 4.06826 0
M  V30 15871 H 1483.61 4.51248 5.07496 0
M  V30 15872 H 1481.55 2.49887 6.06541 0
M  V30 15873 H 1481.47 4.21737 6.27434 0
M  V30 15874 H 1482.74 3.31877 7.05321 0
M  V30 15875 N 1486.97 -0.927146 1.27443 0
M  V30 15876 C 1488.22 -1.67489 1.13814 0
M  V30 15877 C 1488.54 -1.91917 -0.315914 0
M  V30 15878 O 1487.8 -1.5079 -1.24743 0
M  V30 15879 C 1488.1 -3.0472 1.86764 0
M  V30 15880 C 1487.76 -3 3.36617 0
M  V30 15881 C 1486.43 -2.9842 3.77491 0
M  V30 15882 C 1488.78 -2.91249 4.32231 0
M  V30 15883 C 1486.11 -2.85872 5.12342 0
M  V30 15884 C 1488.46 -2.80242 5.67139 0
M  V30 15885 C 1487.12 -2.77013 6.07306 0
M  V30 15886 H 1486.39 -0.612887 0.416474 0
M  V30 15887 H 1489.04 -1.0812 1.58058 0
M  V30 15888 H 1487.34 -3.67797 1.35029 0
M  V30 15889 H 1489.04 -3.61453 1.73646 0
M  V30 15890 H 1485.63 -3.02017 3.04111 0
M  V30 15891 H 1489.81 -2.91567 4.01625 0
M  V30 15892 H 1485.07 -2.81758 5.42607 0
M  V30 15893 H 1489.24 -2.72437 6.40899 0
M  V30 15894 H 1486.87 -2.67047 7.11751 0
M  V30 15895 N 1488.45 -1.09474 -1.13372 0
M  V30 15896 C 1489.39 -0.729274 -2.20872 0
M  V30 15897 C 1490.39 0.270036 -1.67234 0
M  V30 15898 O 1491.59 0.131445 -1.79519 0
M  V30 15899 H 1487.97 -0.217852 -0.719753 0
M  V30 15900 H 1489.94 -1.64505 -2.48959 0
M  V30 15901 C 1488.69 -0.166518 -3.47301 0
M  V30 15902 H 1488.01 -0.926666 -3.88913 0
M  V30 15903 H 1489.45 0.0512617 -4.23969 0
M  V30 15904 C 1487.91 1.09836 -3.18493 0
M  V30 15905 O 1488.44 2.18152 -3.37302 0
M  V30 15906 N 1486.65 1.01307 -2.7237 0
M  V30 15907 H 1486.19 0.131551 -2.57264 0
M  V30 15908 H 1486.15 1.86011 -2.5347 0
M  V30 15909 N 1489.92 1.30607 -0.882012 0
M  V30 15910 C 1491.17 1.96256 -0.498964 0
M  V30 15911 C 1491.5 1.69651 0.951259 0
M  V30 15912 O 1490.75 0.992303 1.68677 0
M  V30 15913 C 1491.05 3.50136 -0.716929 0
M  V30 15914 C 1490.72 3.96785 -2.14178 0
M  V30 15915 C 1489.38 4.09234 -2.53142 0
M  V30 15916 C 1491.73 4.21154 -3.07048 0
M  V30 15917 C 1489.06 4.43411 -3.84192 0
M  V30 15918 C 1491.41 4.56799 -4.37627 0
M  V30 15919 C 1490.08 4.67456 -4.76488 0
M  V30 15920 H 1489.35 0.718153 -0.182584 0
M  V30 15921 H 1491.99 1.55527 -1.1173 0
M  V30 15922 H 1490.3 3.91797 -0.0155388 0
M  V30 15923 H 1492 3.98998 -0.400196 0
M  V30 15924 H 1488.59 3.876 -1.82932 0
M  V30 15925 H 1492.77 4.1102 -2.78167 0
M  V30 15926 H 1488.03 4.49861 -4.14047 0
M  V30 15927 H 1492.2 4.74607 -5.09629 0
M  V30 15928 H 1489.83 4.93694 -5.78074 0
M  V30 15929 N 1491.4 0.642663 1.43901 0
M  V30 15930 C 1492.35 -0.0553351 2.30734 0
M  V30 15931 C 1493.32 -0.825286 1.44147 0
M  V30 15932 O 1494.5 -0.804012 1.73033 0
M  V30 15933 C 1491.64 -1.02306 3.29587 0
M  V30 15934 C 1490.76 -0.250323 4.31274 0
M  V30 15935 C 1489.89 -1.2109 5.17214 0
M  V30 15936 C 1488.93 -0.427984 6.10602 0
M  V30 15937 N 1488.07 -1.33961 6.89202 0
M  V30 15938 H 1492.91 0.691038 2.89877 0
M  V30 15939 H 1490.45 0.352549 1.42813 0
M  V30 15940 H 1492.4 -1.59763 3.85398 0
M  V30 15941 H 1491.03 -1.73643 2.72117 0
M  V30 15942 H 1490.09 0.440359 3.77843 0
M  V30 15943 H 1491.4 0.358937 4.97507 0
M  V30 15944 H 1490.55 -1.85644 5.776 0
M  V30 15945 H 1489.29 -1.85408 4.51082 0
M  V30 15946 H 1488.3 0.230971 5.49315 0
M  V30 15947 H 1489.52 0.210639 6.78773 0
M  V30 15948 H 1487.47 -1.96978 6.25728 0
M  V30 15949 H 1487.38 -0.784655 7.51917 0
M  V30 15950 H 1488.65 -1.97363 7.54101 0
M  V30 15951 N 1492.88 -1.52852 0.383918 0
M  V30 15952 C 1494.11 -2.05929 -0.200216 0
M  V30 15953 C 1494.52 -1.25606 -1.40956 0
M  V30 15954 O 1493.88 -0.301336 -1.79995 0
M  V30 15955 C 1493.93 -3.56887 -0.575655 0
M  V30 15956 O 1493.65 -4.34168 0.58564 0
M  V30 15957 C 1495.15 -4.2629 -1.21623 0
M  V30 15958 H 1492.37 -0.670261 -0.0314727 0
M  V30 15959 H 1494.92 -1.97032 0.547591 0
M  V30 15960 H 1493.07 -3.65875 -1.27336 0
M  V30 15961 H 1493.49 -5.23761 0.278267 0
M  V30 15962 H 1494.96 -5.33174 -1.42933 0
M  V30 15963 H 1495.44 -3.81163 -2.182 0
M  V30 15964 H 1496.04 -4.21605 -0.559435 0
M  V30 15965 N 1494.36 -0.113586 -1.5719 0
M  V30 15966 C 1495.58 0.556928 -1.99783 0
M  V30 15967 C 1496.01 1.59774 -0.992669 0
M  V30 15968 O 1495.37 1.81263 0.0363821 0
M  V30 15969 C 1495.42 1.16463 -3.41275 0
M  V30 15970 O 1494.52 2.28024 -3.43626 0
M  V30 15971 H 1493.86 0.139628 -0.649153 0
M  V30 15972 H 1496.39 -0.200462 -2.03616 0
M  V30 15973 H 1496.4 1.50147 -3.79368 0
M  V30 15974 H 1495.08 0.402232 -4.1395 0
M  V30 15975 H 1493.65 1.9582 -3.17347 0
M  V30 15976 N 1495.84 1.56784 0.160173 0
M  V30 15977 C 1496.77 2.00298 1.20012 0
M  V30 15978 C 1497.75 0.880356 1.45546 0
M  V30 15979 O 1498.93 1.14724 1.56691 0
M  V30 15980 C 1496.06 2.37238 2.53645 0
M  V30 15981 C 1495.02 3.52563 2.42658 0
M  V30 15982 C 1494.34 3.75278 3.80881 0
M  V30 15983 C 1495.64 4.85657 1.92183 0
M  V30 15984 H 1497.34 2.87423 0.838362 0
M  V30 15985 H 1494.88 1.3828 0.401838 0
M  V30 15986 H 1496.84 2.66278 3.2661 0
M  V30 15987 H 1495.56 1.47035 2.9163 0
M  V30 15988 H 1494.22 3.23669 1.72146 0
M  V30 15989 H 1493.87 2.82347 4.1628 0
M  V30 15990 H 1493.57 4.52882 3.74396 0
M  V30 15991 H 1495.09 4.0673 4.55415 0
M  V30 15992 H 1496.51 5.13501 2.54931 0
M  V30 15993 H 1494.9 5.66975 1.96619 0
M  V30 15994 H 1495.97 4.76908 0.876742 0
M  V30 15995 N 1497.32 -0.429099 1.51646 0
M  V30 15996 C 1498.56 -1.17644 1.65926 0
M  V30 15997 C 1498.92 -1.88715 0.374777 0
M  V30 15998 O 1498.21 -1.80952 -0.629842 0
M  V30 15999 C 1498.4 -2.2131 2.80636 0
M  V30 16000 C 1498.23 -1.60416 4.20115 0
M  V30 16001 C 1497 -1.38551 4.85934 0
M  V30 16002 C 1499.2 -1.07589 5.0292 0
M  V30 16003 N 1497.18 -0.733404 6.09503 0
M  V30 16004 C 1498.55 -0.549542 6.1756 0
M  V30 16005 C 1500.61 -0.968438 4.88391 0
M  V30 16006 C 1499.31 0.07371 7.19262 0
M  V30 16007 C 1501.34 -0.359068 5.90309 0
M  V30 16008 C 1500.7 0.156699 7.04226 0
M  V30 16009 H 1496.8 -0.417871 0.66099 0
M  V30 16010 H 1499.38 -0.471789 1.88897 0
M  V30 16011 H 1497.55 -2.89155 2.59314 0
M  V30 16012 H 1499.29 -2.88263 2.84054 0
M  V30 16013 H 1496.04 -1.64953 4.43945 0
M  V30 16014 H 1496.46 -0.424555 6.75667 0
M  V30 16015 H 1501.11 -1.35305 4.00565 0
M  V30 16016 H 1498.82 0.470433 8.0673 0
M  V30 16017 H 1502.41 -0.277718 5.81137 0
M  V30 16018 H 1501.29 0.62081 7.81739 0
M  V30 16019 O 1498.83 -1.50921 -0.574898 0
M  V30 16020 H 1499.52 -1.49642 -1.22992 0
M  V30 END ATOM
M  V30 BEGIN BOND
M  V30 END BOND
M  V30 END CTAB
M  END
$$$$
