drugbank_target|Q7ZJM1 Integrase (DB06817; DB08930; DB09101; DB11799)
 OpenBabel12092120593D

  0  0  0     0  0            999 V3000
M  V30 BEGIN CTAB
M  V30 COUNTS 4531 4578 0 0 0
M  V30 BEGIN ATOM
M  V30 1 H -0.908 1.98254 -0.117106 0
M  V30 2 N 0 1.576 0 0
M  V30 3 C 1.247 1.90568 0.684848 0
M  V30 4 C 1.575 0.873566 1.73779 0
M  V30 5 O 0.83 -0.121654 1.95322 0
M  V30 6 C 1.129 3.3029 1.3654 0
M  V30 7 C 0.795 4.48692 0.445662 0
M  V30 8 C -0.543 4.80815 0.192429 0
M  V30 9 C 1.809 5.20862 -0.187591 0
M  V30 10 C -0.863 5.82481 -0.702352 0
M  V30 11 C 1.489 6.23481 -1.07025 0
M  V30 12 C 0.153 6.54062 -1.33266 0
M  V30 13 H -0.577 0.697337 0.250604 0
M  V30 14 H 2.07 1.91419 -0.0555272 0
M  V30 15 H 0.375 3.25563 2.17982 0
M  V30 16 H 2.072 3.53058 1.90135 0
M  V30 17 H -1.338 4.23593 0.653203 0
M  V30 18 H 2.846 4.963 -0.004963 0
M  V30 19 H -1.898 6.04535 -0.913665 0
M  V30 20 H 2.276 6.78535 -1.56729 0
M  V30 21 H -0.097 7.32659 -2.02769 0
M  V30 22 N 1.4781 -0.272755 1.55222 0
M  V30 23 C 2.4081 -1.34136 1.91127 0
M  V30 24 C 3.3891 -1.51513 0.773168 0
M  V30 25 O 4.5741 -1.64552 1.03132 0
M  V30 26 C 1.7041 -2.70083 2.1834 0
M  V30 27 C 0.6581 -2.67437 3.34158 0
M  V30 28 C -0.0159 -4.06938 3.46851 0
M  V30 29 C 1.2841 -2.26686 4.70543 0
M  V30 30 H 2.9781 -1.04333 2.80633 0
M  V30 31 H 0.5241 -0.500454 1.35024 0
M  V30 32 H 2.4771 -3.44952 2.42046 0
M  V30 33 H 1.2011 -3.01469 1.25634 0
M  V30 34 H -0.1399 -1.95026 3.1042 0
M  V30 35 H -0.4919 -4.35547 2.51611 0
M  V30 36 H -0.7919 -4.06062 4.2472 0
M  V30 37 H 0.7321 -4.83545 3.72849 0
M  V30 38 H 2.1461 -2.91277 4.93792 0
M  V30 39 H 0.5431 -2.36971 5.5133 0
M  V30 40 H 1.6131 -1.21818 4.69349 0
M  V30 41 N 2.9562 -1.48159 -0.537278 0
M  V30 42 C 4.2332 -1.46291 -1.29839 0
M  V30 43 C 4.6132 -0.170613 -2.10409 0
M  V30 44 O 3.9612 0.847746 -2.12192 0
M  V30 45 C 4.1712 -2.72055 -2.18603 0
M  V30 46 C 5.5192 -3.20087 -2.7898 0
M  V30 47 O 6.5432 -2.72921 -2.28894 0
M  V30 48 O 5.4022 -4.02138 -3.70064 0
M  V30 49 H 2.4962 -0.583906 -0.585647 0
M  V30 50 H 5.0422 -1.60384 -0.554534 0
M  V30 51 H 3.8142 -3.57628 -1.58801 0
M  V30 52 H 3.4372 -2.60646 -3.00249 0
M  V30 53 N 4.4343 0.785586 -1.36625 0
M  V30 54 C 5.6823 1.54057 -1.30808 0
M  V30 55 C 6.0033 1.94683 0.111157 0
M  V30 56 O 5.2733 1.65241 1.05224 0
M  V30 57 H 3.8533 0.571354 -0.481211 0
M  V30 58 H 6.5153 0.935821 -1.70963 0
M  V30 59 H 5.6113 2.44637 -1.93801 0
M  V30 60 N 5.9124 1.20967 1.01018 0
M  V30 61 C 7.1614 1.01796 1.74128 0
M  V30 62 C 7.4744 -0.449691 1.90361 0
M  V30 63 O 8.6804 -0.76068 2.60626 0
M  V30 64 C 7.1364 1.7727 3.13215 0
M  V30 65 C 6.7444 3.28171 3.04972 0
M  V30 66 C 8.4884 1.66489 3.90489 0
M  V30 67 C 6.3954 3.96156 4.39107 0
M  V30 68 H 5.3254 0.377276 0.652824 0
M  V30 69 H 7.9764 1.44651 1.12909 0
M  V30 70 H 6.3584 1.27205 3.75013 0
M  V30 71 H 7.5324 3.85499 2.52443 0
M  V30 72 H 5.8474 3.39437 2.41188 0
M  V30 73 H 8.4444 2.14617 4.89738 0
M  V30 74 H 8.7874 0.6222 4.11624 0
M  V30 75 H 9.3204 2.14003 3.35332 0
M  V30 76 H 6.0594 5.00604 4.23174 0
M  V30 77 H 5.5794 3.43617 4.91617 0
M  V30 78 H 7.2584 4.00774 5.07926 0
M  V30 79 N 7.3905 -1.2043 1.01659 0
M  V30 80 C 8.6675 -1.8548 0.621004 0
M  V30 81 C 9.0475 -1.9091 -0.900919 0
M  V30 82 O 8.3955 -1.41694 -1.79263 0
M  V30 83 C 8.6055 -3.25119 1.2688 0
M  V30 84 C 9.9535 -4.01403 1.38423 0
M  V30 85 O 10.9775 -3.34473 1.22501 0
M  V30 86 O 9.8365 -5.21265 1.64151 0
M  V30 87 H 6.9305 -0.798761 0.214266 0
M  V30 88 H 9.4765 -1.28019 1.11396 0
M  V30 89 H 8.2485 -3.15932 2.30873 0
M  V30 90 H 7.8715 -3.90212 0.762917 0
M  V30 91 N 8.8686 -0.792821 -1.36206 0
M  V30 92 C 9.8156 -0.191653 -2.30003 0
M  V30 93 C 10.7856 0.666453 -1.52143 0
M  V30 94 O 11.9706 0.61442 -1.80636 0
M  V30 95 C 9.1106 0.664848 -3.38635 0
M  V30 96 C 8.2236 -0.212175 -4.31479 0
M  V30 97 C 7.3586 0.651022 -5.27196 0
M  V30 98 C 6.3976 -0.227247 -6.11678 0
M  V30 99 N 5.5346 0.595127 -6.99573 0
M  V30 100 H 10.3746 -0.996978 -2.80828 0
M  V30 101 H 7.9116 -0.503206 -1.38225 0
M  V30 102 H 9.8696 1.17645 -4.00269 0
M  V30 103 H 8.4996 1.43557 -2.89122 0
M  V30 104 H 7.5516 -0.841777 -3.70969 0
M  V30 105 H 8.8636 -0.888751 -4.90818 0
M  V30 106 H 8.0176 1.2283 -5.94136 0
M  V30 107 H 6.7566 1.36121 -4.68319 0
M  V30 108 H 5.7616 -0.816904 -5.43697 0
M  V30 109 H 6.9866 -0.93509 -6.72631 0
M  V30 110 H 4.9326 1.28955 -6.432 0
M  V30 111 H 4.8496 -0.0236952 -7.55996 0
M  V30 112 H 6.1176 1.15613 -7.70879 0
M  V30 113 N 10.3467 1.47872 -0.545128 0
M  V30 114 C 11.3097 2.28337 0.198717 0
M  V30 115 C 12.3097 1.36255 0.853888 0
M  V30 116 O 13.4997 1.59003 0.711606 0
M  V30 117 C 10.6317 3.15585 1.28915 0
M  V30 118 H 11.8247 2.95567 -0.507941 0
M  V30 119 H 9.3777 1.53362 -0.301616 0
M  V30 120 H 10.1127 2.53019 2.02859 0
M  V30 121 H 9.8977 3.83337 0.824309 0
M  V30 122 H 11.3877 3.76243 1.81194 0
M  V30 123 N 11.8248 0.280983 1.55075 0
M  V30 124 C 12.7568 -0.637268 2.20163 0
M  V30 125 C 13.7698 -1.11298 1.18813 0
M  V30 126 O 14.9588 -1.03388 1.4551 0
M  V30 127 C 12.0588 -1.88199 2.81841 0
M  V30 128 C 11.2318 -1.55211 4.08936 0
M  V30 129 C 10.2908 -2.64991 4.54606 0
M  V30 130 O 9.3168 -2.30929 5.2025 0
M  V30 131 N 10.5188 -3.95161 4.25238 0
M  V30 132 H 13.2838 -0.0801694 2.99593 0
M  V30 133 H 10.8448 0.102329 1.61576 0
M  V30 134 H 12.8368 -2.60948 3.09335 0
M  V30 135 H 11.4068 -2.34799 2.06369 0
M  V30 136 H 10.6268 -0.658185 3.88666 0
M  V30 137 H 11.9148 -1.30681 4.91732 0
M  V30 138 H 11.3128 -4.25653 3.72607 0
M  V30 139 H 9.8698 -4.6427 4.5749 0
M  V30 140 N 13.3029 -1.57598 0.00835791 0
M  V30 141 C 14.5799 -1.82172 -0.712235 0
M  V30 142 C 14.9599 -0.887873 -1.9152 0
M  V30 143 O 14.3079 0.06146 -2.28417 0
M  V30 144 C 14.5179 -3.30875 -1.11008 0
M  V30 145 C 15.8659 -3.96826 -1.51044 0
M  V30 146 O 16.8899 -3.35248 -1.20364 0
M  V30 147 O 15.7489 -5.05318 -2.08125 0
M  V30 148 H 12.8429 -0.750435 -0.347529 0
M  V30 149 H 15.3889 -1.69665 0.0344523 0
M  V30 150 H 14.1609 -3.90481 -0.252982 0
M  V30 151 H 13.7839 -3.48412 -1.9156 0
M  V30 152 N 14.781 0.264519 -1.55364 0
M  V30 153 C 15.691 1.34902 -1.91934 0
M  V30 154 C 16.707 1.53595 -0.817593 0
M  V30 155 O 17.883 1.67558 -1.11742 0
M  V30 156 C 14.948 2.68676 -2.19121 0
M  V30 157 C 14.009 2.58657 -3.4263 0
M  V30 158 C 13.242 3.86051 -3.68511 0
M  V30 159 O 13.465 4.87126 -2.96757 0
M  V30 160 O 12.399 3.85744 -4.62045 0
M  V30 161 H 16.225 1.06883 -2.8427 0
M  V30 162 H 13.81 0.463775 -1.42019 0
M  V30 163 H 15.692 3.47759 -2.37995 0
M  V30 164 H 14.367 2.96463 -1.29966 0
M  V30 165 H 13.274 1.7792 -3.29082 0
M  V30 166 H 14.607 2.35818 -4.32031 0
M  V30 167 N 16.2591 1.48442 0.529413 0
M  V30 168 C 17.2091 1.59407 1.63014 0
M  V30 169 C 18.1931 0.451166 1.54445 0
M  V30 170 O 19.3851 0.702635 1.62456 0
M  V30 171 C 16.5141 1.63746 3.01732 0
M  V30 172 C 15.6001 2.83518 3.15402 0
M  V30 173 N 15.9911 4.07929 2.99045 0
M  V30 174 C 14.2891 2.80862 3.46457 0
M  V30 175 C 14.9901 4.8829 3.16146 0
M  V30 176 N 13.9661 4.21117 3.43746 0
M  V30 177 H 17.7681 2.53343 1.48978 0
M  V30 178 H 15.2821 1.44821 0.734885 0
M  V30 179 H 17.2791 1.69695 3.80801 0
M  V30 180 H 15.9391 0.709264 3.16859 0
M  V30 181 H 16.9501 4.38357 2.75796 0
M  V30 182 H 13.6271 1.97301 3.67938 0
M  V30 183 H 15.0171 5.97028 3.08232 0
M  V30 184 N 17.7372 -0.778329 1.37039 0
M  V30 185 C 18.6472 -1.92253 1.34446 0
M  V30 186 C 19.6632 -1.72267 0.244991 0
M  V30 187 O 20.8392 -1.95615 0.479258 0
M  V30 188 C 17.9042 -3.27282 1.144 0
M  V30 189 C 16.9652 -3.59969 2.33925 0
M  V30 190 C 16.1982 -4.88555 2.14825 0
M  V30 191 O 16.4212 -5.59113 1.12912 0
M  V30 192 O 15.3552 -5.20153 3.02861 0
M  V30 193 H 19.1812 -1.97392 2.30803 0
M  V30 194 H 16.7662 -0.920154 1.17701 0
M  V30 195 H 18.6482 -4.08062 1.05182 0
M  V30 196 H 17.3232 -3.23011 0.211124 0
M  V30 197 H 16.2302 -2.7945 2.48714 0
M  V30 198 H 17.5632 -3.68976 3.25757 0
M  V30 199 N 19.2153 -1.21501 -1.00376 0
M  V30 200 C 20.1623 -0.975387 -2.09177 0
M  V30 201 C 21.1323 0.0990615 -1.65804 0
M  V30 202 O 22.3173 -0.0483147 -1.90739 0
M  V30 203 C 19.4573 -0.547507 -3.40729 0
M  V30 204 C 18.5703 -1.69153 -3.97506 0
M  V30 205 C 17.7053 -1.2127 -5.17172 0
M  V30 206 C 16.7443 -2.32897 -5.66061 0
M  V30 207 N 15.8813 -1.86138 -6.76976 0
M  V30 208 H 20.7213 -1.9068 -2.29009 0
M  V30 209 H 18.2583 -0.950257 -1.12288 0
M  V30 210 H 20.2163 -0.280667 -4.16255 0
M  V30 211 H 18.8463 0.346904 -3.20931 0
M  V30 212 H 17.8983 -2.07298 -3.18954 0
M  V30 213 H 19.2103 -2.5316 -4.29781 0
M  V30 214 H 18.3643 -0.902591 -5.99948 0
M  V30 215 H 17.1033 -0.342692 -4.86495 0
M  V30 216 H 16.1083 -2.64709 -4.81881 0
M  V30 217 H 17.3333 -3.20396 -5.98768 0
M  V30 218 H 15.2793 -1.01484 -6.48103 0
M  V30 219 H 15.1963 -2.63717 -7.08512 0
M  V30 220 H 16.4643 -1.58165 -7.63285 0
M  V30 221 N 20.6934 1.19889 -1.02296 0
M  V30 222 C 21.9234 1.93109 -0.734332 0
M  V30 223 C 22.3314 1.75377 0.709889 0
M  V30 224 O 21.6744 1.06912 1.49384 0
M  V30 225 C 21.7364 3.45362 -0.99827 0
M  V30 226 C 21.4004 3.8686 -2.43287 0
M  V30 227 C 22.3974 3.92102 -3.41397 0
M  V30 228 C 20.0824 4.18668 -2.77529 0
M  V30 229 C 22.0764 4.28573 -4.71809 0
M  V30 230 C 19.7634 4.54813 -4.08153 0
M  V30 231 C 20.7614 4.59739 -5.05103 0
M  V30 232 O 20.4494 4.95051 -6.33388 0
M  V30 233 H 20.1814 0.620409 -0.268456 0
M  V30 234 H 22.7354 1.53144 -1.3688 0
M  V30 235 H 20.9654 3.85482 -0.306645 0
M  V30 236 H 22.6544 3.99814 -0.700234 0
M  V30 237 H 23.4204 3.67685 -3.1628 0
M  V30 238 H 19.2994 4.14021 -2.0275 0
M  V30 239 H 22.8434 4.32333 -5.4748 0
M  V30 240 H 18.7404 4.78687 -4.33047 0
M  V30 241 H 19.5084 5.1302 -6.37772 0
M  V30 242 N 22.1715 0.800033 1.35784 0
M  V30 243 C 23.1215 0.178654 2.27299 0
M  V30 244 C 24.1055 -0.643667 1.47464 0
M  V30 245 O 25.2975 -0.502 1.69732 0
M  V30 246 C 22.4265 -0.677194 3.36555 0
M  V30 247 C 21.5125 0.154497 4.23818 0
M  V30 248 N 21.9035 1.21427 4.91008 0
M  V30 249 C 20.2015 -0.0649462 4.45953 0
M  V30 250 C 20.9025 1.72147 5.55644 0
M  V30 251 N 19.8785 1.02897 5.33773 0
M  V30 252 H 23.6805 0.989637 2.76737 0
M  V30 253 H 21.1945 0.64054 1.49234 0
M  V30 254 H 23.1915 -1.13835 4.01058 0
M  V30 255 H 21.8515 -1.4866 2.8867 0
M  V30 256 H 22.8625 1.59684 4.92668 0
M  V30 257 H 19.5395 -0.844016 4.0888 0
M  V30 258 H 20.9295 2.60683 6.19269 0
M  V30 259 N 23.6496 -1.47581 0.552962 0
M  V30 260 C 24.8746 -2.07378 0.0300593 0
M  V30 261 C 25.2996 -1.40355 -1.25229 0
M  V30 262 O 24.6576 -0.477099 -1.7491 0
M  V30 263 C 24.7056 -3.60274 -0.153231 0
M  V30 264 O 23.8096 -3.94041 -1.21678 0
M  V30 265 H 23.1506 -0.662158 0.0494182 0
M  V30 266 H 25.6806 -1.89662 0.767434 0
M  V30 267 H 25.6906 -4.0633 -0.368761 0
M  V30 268 H 24.3656 -4.08455 0.783397 0
M  V30 269 H 22.9426 -3.59735 -0.982079 0
M  V30 270 N 25.1277 -0.289203 -1.54924 0
M  V30 271 C 26.0757 0.607966 -2.24514 0
M  V30 272 C 27.0697 1.14655 -1.24702 0
M  V30 273 O 28.2757 1.09856 -1.4259 0
M  V30 274 H 24.6507 0.21464 -0.720718 0
M  V30 275 H 26.6217 -0.00164182 -2.984 0
M  V30 276 C 25.3707 1.77406 -2.99036 0
M  V30 277 H 24.6937 1.36884 -3.75637 0
M  V30 278 H 26.1337 2.37814 -3.51028 0
M  V30 279 C 24.5927 2.67107 -2.05318 0
M  V30 280 O 25.1227 3.6787 -1.61353 0
M  V30 281 N 23.3287 2.34582 -1.71521 0
M  V30 282 H 22.8757 1.52688 -2.07471 0
M  V30 283 H 22.8337 2.94867 -1.0909 0
M  V30 284 N 26.6058 1.57591 -0.0167156 0
M  V30 285 C 27.8518 1.92399 0.659861 0
M  V30 286 C 28.2068 0.892561 1.70444 0
M  V30 287 O 27.4998 -0.0930755 1.91374 0
M  V30 288 C 27.6938 3.3172 1.33029 0
M  V30 289 C 27.5228 4.48319 0.352174 0
M  V30 290 C 26.2928 5.05281 -0.0434883 0
M  V30 291 C 28.4908 5.12831 -0.388474 0
M  V30 292 N 26.4728 6.05399 -1.01807 0
M  V30 293 C 27.8438 6.07934 -1.2172 0
M  V30 294 C 29.8988 4.95858 -0.450513 0
M  V30 295 C 28.6018 6.87891 -2.10235 0
M  V30 296 C 30.6278 5.76413 -1.32295 0
M  V30 297 C 29.9898 6.71123 -2.13948 0
M  V30 298 H 26.0888 0.752106 0.21415 0
M  V30 299 H 28.6728 1.94532 -0.0809846 0
M  V30 300 H 26.8438 3.3043 2.04134 0
M  V30 301 H 28.5758 3.5391 1.9629 0
M  V30 302 H 25.3308 4.7246 0.328384 0
M  V30 303 H 25.7548 6.60145 -1.50123 0
M  V30 304 H 30.3968 4.22472 0.166512 0
M  V30 305 H 28.1148 7.60591 -2.72997 0
M  V30 306 H 31.7008 5.65317 -1.37508 0
M  V30 307 H 30.5808 7.3237 -2.80364 0
M  V30 308 N 28.0839 -0.256276 1.55502 0
M  V30 309 C 29.4999 -0.604325 1.47716 0
M  V30 310 C 29.6999 -1.88763 0.705039 0
M  V30 311 O 28.7559 -2.51445 0.230613 0
M  V30 312 C 30.0689 -0.715756 2.92057 0
M  V30 313 C 31.6169 -0.808706 3.02372 0
M  V30 314 C 32.0919 -0.951777 4.48001 0
M  V30 315 N 33.5829 -1.01688 4.519 0
M  V30 316 C 34.3179 -1.14668 5.61817 0
M  V30 317 N 33.8139 -1.24261 6.81565 0
M  V30 318 N 35.6069 -1.1791 5.49594 0
M  V30 319 H 27.7579 0.586291 2.04148 0
M  V30 320 H 30.0209 0.201015 0.926443 0
M  V30 321 H 29.7269 0.157027 3.51349 0
M  V30 322 H 29.6009 -1.59071 3.42018 0
M  V30 323 H 31.9879 -1.67195 2.43166 0
M  V30 324 H 32.0689 0.0912063 2.55637 0
M  V30 325 H 31.7129 -0.0931291 5.07815 0
M  V30 326 H 31.6429 -1.86659 4.92408 0
M  V30 327 H 34.1339 -0.954468 3.65648 0
M  V30 328 H 34.4469 -1.34046 7.61086 0
M  V30 329 H 32.7919 -1.21236 6.84344 0
M  V30 330 H 35.9829 -1.10057 4.54978 0
M  V30 331 H 36.1559 -1.27681 6.35296 0
M  V30 332 N 29.562 -1.4872 -0.521534 0
M  V30 333 C 30.525 -1.63379 -1.60748 0
M  V30 334 C 31.525 -0.50661 -1.52611 0
M  V30 335 O 32.715 -0.772601 -1.5613 0
M  V30 336 C 29.847 -1.61192 -3.00383 0
M  V30 337 H 31.04 -2.60217 -1.49087 0
M  V30 338 H 28.593 -1.37444 -0.744235 0
M  V30 339 H 29.328 -0.65863 -3.17541 0
M  V30 340 H 29.113 -2.43032 -3.07698 0
M  V30 341 H 30.603 -1.7466 -3.7932 0
M  V30 342 N 31.0401 0.771051 -1.3745 0
M  V30 343 C 31.9731 1.89166 -1.27638 0
M  V30 344 C 32.9511 1.61842 -0.156782 0
M  V30 345 O 34.1351 1.85569 -0.331111 0
M  V30 346 C 31.2621 3.24405 -0.973621 0
M  V30 347 C 30.3081 3.70638 -2.1102 0
M  V30 348 S 31.1411 3.84228 -3.73 0
M  V30 349 C 32.2971 5.22313 -3.44876 0
M  V30 350 H 32.5301 1.972 -2.22485 0
M  V30 351 H 30.0631 0.932224 -1.23081 0
M  V30 352 H 32.0211 4.02514 -0.805766 0
M  V30 353 H 30.6821 3.14071 -0.0426279 0
M  V30 354 H 29.8751 4.68685 -1.85338 0
M  V30 355 H 29.4771 2.99632 -2.23822 0
M  V30 356 H 31.7691 6.07505 -2.99908 0
M  V30 357 H 32.7121 5.53008 -4.42253 0
M  V30 358 H 33.1201 4.90284 -2.79789 0
M  V30 359 N 32.5182 1.22032 0.997298 0
M  V30 360 C 33.4812 0.987909 2.06816 0
M  V30 361 C 34.4812 -0.0440084 1.6074 0
M  V30 362 O 35.6712 0.194053 1.73116 0
M  V30 363 C 32.8032 0.49132 3.37341 0
M  V30 364 H 33.9962 1.93803 2.28868 0
M  V30 365 H 31.5492 1.03838 1.16822 0
M  V30 366 H 32.2842 -0.463364 3.20973 0
M  V30 367 H 32.0692 1.23575 3.72118 0
M  V30 368 H 33.5592 0.348824 4.16141 0
M  V30 369 N 33.9963 -1.19345 1.0293 0
M  V30 370 C 35.2213 -1.93538 0.745511 0
M  V30 371 C 35.6463 -1.75007 -0.689511 0
M  V30 372 O 35.0043 -1.05265 -1.47611 0
M  V30 373 C 35.0523 -3.43336 1.10239 0
M  V30 374 O 34.1563 -4.11806 0.221289 0
M  V30 375 H 33.4973 -0.604193 0.275404 0
M  V30 376 H 36.0273 -1.5141 1.37609 0
M  V30 377 H 36.0373 -3.94004 1.05947 0
M  V30 378 H 34.7123 -3.56146 2.14786 0
M  V30 379 H 33.2893 -3.715 0.322842 0
M  V30 380 N 35.4744 -0.807222 -1.35358 0
M  V30 381 C 36.7514 -0.311126 -1.9311 0
M  V30 382 C 37.1314 1.19937 -1.73719 0
M  V30 383 O 36.4794 1.99918 -1.10657 0
M  V30 384 C 36.6894 -0.723226 -3.41424 0
M  V30 385 C 38.0374 -0.713078 -4.18569 0
M  V30 386 O 39.0614 -0.664811 -3.49941 0
M  V30 387 O 37.9204 -0.772022 -5.41019 0
M  V30 388 H 35.0144 -0.081526 -0.822972 0
M  V30 389 H 37.5604 -0.890962 -1.4443 0
M  V30 390 H 36.3324 -1.76426 -3.4927 0
M  V30 391 H 35.9554 -0.118232 -3.97424 0
M  V30 392 N 36.9525 1.47285 -0.560781 0
M  V30 393 C 38.1995 2.02464 -0.038062 0
M  V30 394 C 38.5275 1.43474 1.31322 0
M  V30 395 O 37.7825 0.581311 1.86867 0
M  V30 396 C 38.0815 3.57258 0.100784 0
M  V30 397 C 37.7475 4.35184 -1.18007 0
M  V30 398 C 36.4095 4.56194 -1.53103 0
M  V30 399 C 38.7615 4.80098 -2.02867 0
M  V30 400 C 36.0895 5.19367 -2.729 0
M  V30 401 C 38.4415 5.44593 -3.21871 0
M  V30 402 C 37.1055 5.63835 -3.57276 0
M  V30 403 H 36.3755 0.740869 -0.0139279 0
M  V30 404 H 39.0225 1.76916 -0.733012 0
M  V30 405 H 37.3275 3.81819 0.878724 0
M  V30 406 H 39.0245 3.97606 0.520639 0
M  V30 407 H 35.6145 4.19113 -0.8968 0
M  V30 408 H 39.7985 4.63642 -1.7706 0
M  V30 409 H 35.0545 5.32459 -3.00496 0
M  V30 410 H 39.2285 5.78358 -3.87911 0
M  V30 411 H 36.8555 6.12557 -4.50197 0
M  V30 412 N 38.4306 0.297415 1.54768 0
M  V30 413 C 39.3786 -0.596051 2.24833 0
M  V30 414 C 40.3726 -1.13992 1.25308 0
M  V30 415 O 41.5786 -1.09098 1.4317 0
M  V30 416 H 37.9536 -0.210814 0.721846 0
M  V30 417 H 39.9246 0.0174667 2.98395 0
M  V30 418 C 38.6736 -1.75818 2.99972 0
M  V30 419 H 37.9966 -1.3489 3.76357 0
M  V30 420 H 39.4366 -2.35949 3.52284 0
M  V30 421 C 37.8956 -2.66014 2.06732 0
M  V30 422 O 38.4256 -3.67009 1.63302 0
M  V30 423 N 36.6316 -2.33669 1.72763 0
M  V30 424 H 36.1786 -1.51586 2.08277 0
M  V30 425 H 36.1366 -2.94285 1.10652 0
M  V30 426 N 39.9087 -1.5758 0.0250728 0
M  V30 427 C 40.8387 -2.13007 -0.956575 0
M  V30 428 C 41.8197 -1.0452 -1.342 0
M  V30 429 O 43.0047 -1.32332 -1.42133 0
M  V30 430 C 40.1347 -2.65386 -2.24026 0
M  V30 431 C 39.0887 -3.78623 -1.99571 0
M  V30 432 C 38.4147 -4.17414 -3.3417 0
M  V30 433 C 39.7147 -5.04867 -1.33814 0
M  V30 434 H 41.4087 -2.9528 -0.494991 0
M  V30 435 H 38.9547 -1.42042 -0.236651 0
M  V30 436 H 40.9077 -3.02794 -2.93076 0
M  V30 437 H 39.6317 -1.80268 -2.72343 0
M  V30 438 H 38.2907 -3.41646 -1.32941 0
M  V30 439 H 37.9387 -3.29284 -3.80238 0
M  V30 440 H 37.6387 -4.93719 -3.18615 0
M  V30 441 H 39.1627 -4.57402 -4.04495 0
M  V30 442 H 40.5767 -5.39888 -1.92857 0
M  V30 443 H 38.9737 -5.86144 -1.28669 0
M  V30 444 H 40.0437 -4.83904 -0.310561 0
M  V30 445 N 41.3868 0.248026 -1.55636 0
M  V30 446 C 42.7978 0.817177 -1.67866 0
M  V30 447 C 43.1488 1.86069 -0.622322 0
M  V30 448 O 42.2738 2.15157 0.231618 0
M  V30 449 C 42.8688 1.489 -3.04326 0
M  V30 450 C 41.4278 2.00587 -3.185 0
M  V30 451 C 40.5748 0.856573 -2.63739 0
M  V30 452 H 43.5258 0.0238579 -1.58682 0
M  V30 453 H 43.5468 2.35698 -2.98708 0
M  V30 454 H 43.0588 0.729279 -3.81186 0
M  V30 455 H 41.1598 2.79443 -2.4646 0
M  V30 456 H 41.2728 2.20402 -4.25393 0
M  V30 457 H 39.6368 1.25678 -2.21534 0
M  V30 458 H 40.4198 0.109953 -3.43124 0
M  V30 459 N 42.8649 1.48995 0.513639 0
M  V30 460 C 44.2759 1.5119 1.09537 0
M  V30 461 C 44.6269 0.290906 1.94031 0
M  V30 462 O 43.7519 -0.60049 2.07902 0
M  V30 463 C 44.3469 2.73964 1.99322 0
M  V30 464 C 42.9059 2.78978 2.52682 0
M  V30 465 C 42.0529 2.44934 1.30009 0
M  V30 466 H 45.0039 1.55875 0.298125 0
M  V30 467 H 45.0249 2.53409 2.83838 0
M  V30 468 H 44.5369 3.62813 1.37799 0
M  V30 469 H 42.6379 1.94378 3.1788 0
M  V30 470 H 42.7509 3.8083 2.90698 0
M  V30 471 H 41.1149 1.9644 1.62122 0
M  V30 472 H 41.8979 3.36043 0.702131 0
M  V30 473 N 44.343 -0.763751 1.37857 0
M  V30 474 C 45.589 -1.52483 1.33704 0
M  V30 475 C 45.922 -1.94051 -0.0759612 0
M  V30 476 O 45.197 -1.64675 -1.03501 0
M  V30 477 C 45.48 -2.78441 2.28348 0
M  V30 478 C 45.333 -2.43075 3.78463 0
M  V30 479 C 46.652 -3.80415 2.21298 0
M  V30 480 H 43.771 -0.553169 0.487005 0
M  V30 481 H 46.413 -0.875562 1.68624 0
M  V30 482 H 44.563 -3.33842 1.987 0
M  V30 483 H 46.235 -1.93527 4.18742 0
M  V30 484 H 44.478 -1.75666 3.96641 0
M  V30 485 H 45.149 -3.33149 4.40132 0
M  V30 486 H 47.625 -3.34527 2.47449 0
M  V30 487 H 46.501 -4.66257 2.89647 0
M  V30 488 H 46.762 -4.25262 1.20849 0
M  V30 489 N 45.8211 -1.22559 -0.990812 0
M  V30 490 C 47.0671 -1.05297 -1.73322 0
M  V30 491 C 47.4001 0.410655 -1.89808 0
M  V30 492 O 46.6751 1.30439 -1.44277 0
M  V30 493 C 46.9581 -1.76713 -3.13759 0
M  V30 494 C 46.8111 -3.30684 -3.04907 0
M  V30 495 C 48.1301 -1.52121 -4.12974 0
M  V30 496 H 45.2491 -0.38392 -0.629106 0
M  V30 497 H 47.8911 -1.50926 -1.15418 0
M  V30 498 H 46.0411 -1.37924 -3.63193 0
M  V30 499 H 47.7131 -3.7893 -2.63077 0
M  V30 500 H 45.9561 -3.60253 -2.41661 0
M  V30 501 H 46.6271 -3.75833 -4.04294 0
M  V30 502 H 49.1031 -1.85819 -3.72304 0
M  V30 503 H 47.9791 -2.04582 -5.0935 0
M  V30 504 H 48.2401 -0.454257 -4.3976 0
M  V30 505 N 47.2992 1.18797 -1.03562 0
M  V30 506 C 48.2622 2.20464 -0.626769 0
M  V30 507 C 49.2622 1.57721 0.313173 0
M  V30 508 O 50.4522 1.73917 0.0992615 0
M  V30 509 C 47.5842 3.40802 0.0818498 0
M  V30 510 H 48.7772 2.58149 -1.5264 0
M  V30 511 H 46.3302 1.32593 -0.827578 0
M  V30 512 H 47.0652 3.08642 0.995518 0
M  V30 513 H 46.8502 3.8758 -0.593652 0
M  V30 514 H 48.3402 4.16092 0.354584 0
M  V30 515 N 48.7773 0.814389 1.34928 0
M  V30 516 C 49.7243 0.22822 2.29669 0
M  V30 517 C 50.6943 -0.642164 1.53184 0
M  V30 518 O 51.8793 -0.585605 1.81591 0
M  V30 519 C 49.0193 -0.61089 3.3965 0
M  V30 520 C 48.1323 0.280792 4.31086 0
M  V30 521 C 47.2673 -0.567067 5.28165 0
M  V30 522 C 46.3063 0.324531 6.11239 0
M  V30 523 N 45.4433 -0.483756 7.00431 0
M  V30 524 H 50.2833 1.04153 2.79206 0
M  V30 525 H 47.8203 0.525133 1.37407 0
M  V30 526 H 49.7783 -1.11263 4.0209 0
M  V30 527 H 48.4083 -1.38939 2.91369 0
M  V30 528 H 47.4603 0.900688 3.69583 0
M  V30 529 H 48.7723 0.966723 4.89342 0
M  V30 530 H 47.9263 -1.13363 5.96015 0
M  V30 531 H 46.6653 -1.28654 4.70425 0
M  V30 532 H 45.6703 0.903298 5.42329 0
M  V30 533 H 46.8953 1.04198 6.71059 0
M  V30 534 H 44.8413 -1.18706 6.45171 0
M  V30 535 H 44.7583 0.143965 7.55863 0
M  V30 536 H 46.0263 -1.03334 7.7262 0
M  V30 537 N 50.2554 -1.46986 0.568584 0
M  V30 538 C 51.1654 -2.33942 -0.17555 0
M  V30 539 C 52.1814 -1.48891 -0.90041 0
M  V30 540 O 53.3574 -1.81794 -0.86676 0
M  V30 541 C 50.4224 -3.25811 -1.18524 0
M  V30 542 C 49.4834 -4.26757 -0.466582 0
M  V30 543 C 48.7164 -5.14236 -1.42817 0
M  V30 544 O 48.9394 -5.04379 -2.66379 0
M  V30 545 O 47.8734 -5.94412 -0.946453 0
M  V30 546 H 51.6994 -2.98896 0.538036 0
M  V30 547 H 49.2844 -1.4573 0.329097 0
M  V30 548 H 51.1664 -3.82527 -1.76779 0
M  V30 549 H 49.8414 -2.63471 -1.88055 0
M  V30 550 H 48.7484 -3.73769 0.157451 0
M  V30 551 H 50.0814 -4.91843 0.187485 0
M  V30 552 N 51.7335 -0.305618 -1.54608 0
M  V30 553 C 52.9825 0.303098 -1.9941 0
M  V30 554 C 53.2955 1.54648 -1.19764 0
M  V30 555 O 54.5015 2.23007 -1.54855 0
M  V30 556 C 52.9575 0.590588 -3.55021 0
M  V30 557 C 52.5655 -0.634719 -4.43481 0
M  V30 558 C 54.3095 1.16025 -4.08336 0
M  V30 559 C 52.2165 -0.320126 -5.90533 0
M  V30 560 H 51.1465 0.117031 -0.744862 0
M  V30 561 H 53.7975 -0.415045 -1.78745 0
M  V30 562 H 52.1795 1.36845 -3.71604 0
M  V30 563 H 53.3535 -1.41079 -4.38672 0
M  V30 564 H 51.6685 -1.12333 -4.00962 0
M  V30 565 H 54.2655 1.40994 -5.15776 0
M  V30 566 H 54.6085 2.10397 -3.5922 0
M  V30 567 H 55.1415 0.443985 -3.95315 0
M  V30 568 H 51.8805 -1.23254 -6.43808 0
M  V30 569 H 51.4005 0.418579 -5.98338 0
M  V30 570 H 53.0795 0.0766241 -6.46955 0
M  V30 571 N 53.2116 1.57565 -0.0334293 0
M  V30 572 C 54.4576 1.92262 0.645226 0
M  V30 573 C 54.7906 0.910543 1.71531 0
M  V30 574 O 54.0656 -0.066099 1.94388 0
M  V30 575 C 54.3486 3.37422 1.2577 0
M  V30 576 C 54.2016 4.49369 0.196891 0
M  V30 577 C 55.5206 3.82628 2.17449 0
M  V30 578 H 52.6396 0.699171 0.233085 0
M  V30 579 H 55.2816 1.89779 -0.0915694 0
M  V30 580 H 53.4316 3.39669 1.88566 0
M  V30 581 H 55.1036 4.59254 -0.433962 0
M  V30 582 H 53.3466 4.31168 -0.477137 0
M  V30 583 H 54.0176 5.47978 0.665124 0
M  V30 584 H 56.4936 3.82145 1.64634 0
M  V30 585 H 55.3696 4.84883 2.57254 0
M  V30 586 H 55.6306 3.18376 3.0674 0
M  V30 587 N 54.6897 -0.239769 1.55765 0
M  V30 588 C 55.6527 -1.28038 1.90103 0
M  V30 589 C 56.6527 -1.40723 0.778055 0
M  V30 590 O 57.8427 -1.39301 1.04599 0
M  V30 591 C 54.9747 -2.65702 2.13577 0
M  V30 592 H 56.1677 -0.988048 2.83157 0
M  V30 593 H 53.7207 -0.479382 1.48767 0
M  V30 594 H 54.4557 -3.00063 1.23015 0
M  V30 595 H 54.2407 -2.57875 2.95369 0
M  V30 596 H 55.7307 -3.40828 2.41301 0
M  V30 597 N 56.1678 -1.49265 -0.50573 0
M  V30 598 C 57.3928 -1.62478 -1.28902 0
M  V30 599 C 57.8178 -0.294332 -1.85783 0
M  V30 600 O 57.1758 0.737412 -1.65626 0
M  V30 601 C 57.2238 -2.69268 -2.39848 0
M  V30 602 O 56.3278 -2.28113 -3.43567 0
M  V30 603 H 55.6688 -0.54399 -0.380751 0
M  V30 604 H 58.1988 -1.95421 -0.605952 0
M  V30 605 H 58.2088 -2.91291 -2.85681 0
M  V30 606 H 56.8838 -3.65846 -1.97812 0
M  V30 607 H 55.4608 -2.16401 -3.03685 0
M  V30 608 N 57.6459 0.756429 -1.3826 0
M  V30 609 C 58.8859 1.52833 -1.35725 0
M  V30 610 C 59.2499 1.91926 0.0534106 0
M  V30 611 O 60.4509 2.68028 0.203613 0
M  V30 612 C 58.7219 2.74919 -2.28373 0
M  V30 613 S 60.2809 3.64817 -2.43832 0
M  V30 614 H 57.0989 0.523043 -0.481608 0
M  V30 615 H 59.7009 0.888212 -1.74158 0
M  V30 616 H 58.4049 2.44304 -3.29763 0
M  V30 617 H 57.9359 3.43878 -1.91079 0
M  V30 618 H 59.9509 4.676 -1.66027 0
M  V30 619 N 59.124 1.23083 0.984299 0
M  V30 620 C 60.401 0.9689 1.69917 0
M  V30 621 C 60.781 -0.513604 2.04757 0
M  V30 622 O 60.129 -1.48383 1.73767 0
M  V30 623 C 60.339 1.87518 2.94343 0
M  V30 624 C 61.687 2.13636 3.6694 0
M  V30 625 O 62.711 1.85036 3.04368 0
M  V30 626 O 61.57 2.62119 4.79537 0
M  V30 627 H 58.664 0.365095 0.742048 0
M  V30 628 H 61.21 1.34107 1.03987 0
M  V30 629 H 59.982 2.87756 2.65164 0
M  V30 630 H 59.605 1.50514 3.6801 0
M  V30 631 N 60.6021 -1.18246 1.0419 0
M  V30 632 C 61.5491 -2.2192 0.634037 0
M  V30 633 C 62.5191 -1.62179 -0.358765 0
M  V30 634 O 63.7041 -1.89122 -0.252466 0
M  V30 635 C 60.8441 -3.451 0.00445535 0
M  V30 636 C 59.9571 -4.19174 1.04487 0
M  V30 637 C 59.0921 -5.29813 0.383676 0
M  V30 638 C 58.1311 -5.9566 1.4091 0
M  V30 639 N 57.2681 -6.97834 0.772784 0
M  V30 640 H 62.1081 -2.56164 1.52263 0
M  V30 641 H 59.6451 -1.25843 0.761701 0
M  V30 642 H 61.6031 -4.15485 -0.377919 0
M  V30 643 H 60.2331 -3.11472 -0.847652 0
M  V30 644 H 59.2851 -3.47604 1.54518 0
M  V30 645 H 60.5971 -4.64267 1.82368 0
M  V30 646 H 59.7511 -6.06677 -0.0528366 0
M  V30 647 H 58.4901 -4.85825 -0.427208 0
M  V30 648 H 57.4951 -5.17535 1.85574 0
M  V30 649 H 58.7201 -6.4173 2.22171 0
M  V30 650 H 56.6661 -6.55998 -0.0177708 0
M  V30 651 H 56.5831 -7.41186 1.48928 0
M  V30 652 H 57.8511 -7.78665 0.36071 0
M  V30 653 N 62.0802 -0.821533 -1.34494 0
M  V30 654 C 63.3202 -0.414785 -2.00147 0
M  V30 655 C 63.6842 1.00299 -1.6372 0
M  V30 656 O 64.8852 1.51255 -2.22206 0
M  V30 657 C 63.1562 -0.609403 -3.52166 0
M  V30 658 S 64.7152 -0.295297 -4.37805 0
M  V30 659 H 61.5332 -0.15679 -0.693497 0
M  V30 660 H 64.1352 -1.06705 -1.63812 0
M  V30 661 H 62.8392 -1.64096 -3.76166 0
M  V30 662 H 62.3702 0.0576414 -3.93358 0
M  V30 663 H 64.3852 0.891531 -4.88125 0
M  V30 664 N 63.5583 1.46682 -0.576371 0
M  V30 665 C 64.4903 2.28341 0.198231 0
M  V30 666 C 65.5033 1.38141 0.861453 0
M  V30 667 O 66.6923 1.62797 0.732082 0
M  V30 668 C 63.7923 3.12986 1.29972 0
M  V30 669 C 62.9653 4.31271 0.729639 0
M  V30 670 C 62.0243 4.97363 1.71803 0
M  V30 671 O 61.0503 5.55156 1.25658 0
M  V30 672 N 62.2523 4.93796 3.05198 0
M  V30 673 H 65.0173 2.9546 -0.502324 0
M  V30 674 H 62.5783 1.56525 -0.413715 0
M  V30 675 H 64.5703 3.54066 1.96008 0
M  V30 676 H 63.1403 2.47984 1.90323 0
M  V30 677 H 62.3603 3.94052 -0.108012 0
M  V30 678 H 63.6483 5.07739 0.328438 0
M  V30 679 H 63.0463 4.48077 3.45317 0
M  V30 680 H 61.6033 5.38837 3.6674 0
M  V30 681 N 65.0364 0.313813 1.54444 0
M  V30 682 C 65.9664 -0.549454 2.26943 0
M  V30 683 C 66.9474 -1.12741 1.27372 0
M  V30 684 O 68.1324 -1.15436 1.56167 0
M  V30 685 C 65.2624 -1.71523 3.01989 0
M  V30 686 C 64.2164 -1.26703 4.08816 0
M  V30 687 C 63.5424 -2.51898 4.71647 0
M  V30 688 C 64.8424 -0.388962 5.2085 0
M  V30 689 H 66.5364 0.0552661 2.99349 0
M  V30 690 H 64.0824 0.0280207 1.43973 0
M  V30 691 H 66.0354 -2.32535 3.51433 0
M  V30 692 H 64.7594 -2.34639 2.27183 0
M  V30 693 H 63.4184 -0.679896 3.6024 0
M  V30 694 H 63.0664 -3.13356 3.93468 0
M  V30 695 H 62.7664 -2.22605 5.43802 0
M  V30 696 H 64.2904 -3.1369 5.23861 0
M  V30 697 H 65.7044 -0.905107 5.6611 0
M  V30 698 H 64.1014 -0.18924 5.99802 0
M  V30 699 H 65.1714 0.582699 4.81386 0
M  V30 700 N 66.5145 -1.57545 0.0417849 0
M  V30 701 C 67.4615 -2.10977 -0.935805 0
M  V30 702 C 68.4315 -1.01486 -1.31491 0
M  V30 703 O 69.6165 -1.2898 -1.40602 0
M  V30 704 C 66.7565 -2.65169 -2.2086 0
M  V30 705 C 65.8695 -3.88714 -1.88482 0
M  V30 706 C 65.0045 -4.31254 -3.1015 0
M  V30 707 C 64.0435 -5.47524 -2.7365 0
M  V30 708 N 63.1805 -5.85162 -3.87982 0
M  V30 709 H 68.0205 -2.94218 -0.473249 0
M  V30 710 H 65.5575 -1.45415 -0.221981 0
M  V30 711 H 67.5155 -2.94685 -2.95325 0
M  V30 712 H 66.1455 -1.8474 -2.64709 0
M  V30 713 H 65.1975 -3.65849 -1.04205 0
M  V30 714 H 66.5095 -4.73245 -1.57608 0
M  V30 715 H 65.6635 -4.62273 -3.92923 0
M  V30 716 H 64.4025 -3.45516 -3.44195 0
M  V30 717 H 63.4075 -5.16187 -1.89291 0
M  V30 718 H 64.6325 -6.34971 -2.40807 0
M  V30 719 H 62.5785 -5.02377 -4.21846 0
M  V30 720 H 62.4955 -6.64362 -3.60775 0
M  V30 721 H 63.7635 -6.20791 -4.71422 0
M  V30 722 N 67.9926 0.231505 -1.5589 0
M  V30 723 C 69.2406 0.955461 -1.78088 0
M  V30 724 C 69.5616 1.85262 -0.608533 0
M  V30 725 O 68.8316 1.92277 0.375035 0
M  V30 726 H 67.4116 0.355787 -0.656829 0
M  V30 727 H 70.0736 0.245751 -1.93344 0
M  V30 728 H 69.1696 1.56814 -2.69844 0
M  V30 729 N 69.4707 1.49531 0.497807 0
M  V30 730 C 70.3807 1.69176 1.62532 0
M  V30 731 C 71.3967 0.5744 1.64246 0
M  V30 732 O 72.5727 0.849497 1.82608 0
M  V30 733 C 69.6377 1.75695 2.98885 0
M  V30 734 C 68.6987 2.9929 3.07773 0
M  V30 735 C 67.9317 3.05488 4.37622 0
M  V30 736 O 68.1547 2.19192 5.26603 0
M  V30 737 O 67.0887 3.9798 4.51548 0
M  V30 738 H 70.9147 2.647 1.48887 0
M  V30 739 H 68.4997 1.3331 0.674441 0
M  V30 740 H 70.3817 1.82317 3.79919 0
M  V30 741 H 69.0567 0.8335 3.12785 0
M  V30 742 H 67.9637 2.98183 2.25915 0
M  V30 743 H 69.2967 3.91125 2.98801 0
M  V30 744 N 70.9488 -0.749086 1.3866 0
M  V30 745 C 71.9118 -1.84457 1.36045 0
M  V30 746 C 72.9118 -1.58682 0.260122 0
M  V30 747 O 74.1018 -1.66343 0.517261 0
M  V30 748 C 71.2338 -3.22008 1.11911 0
M  V30 749 H 72.4268 -1.88182 2.33512 0
M  V30 750 H 69.9798 -0.951266 1.24019 0
M  V30 751 H 70.7148 -3.2395 0.150686 0
M  V30 752 H 70.4998 -3.42111 1.91579 0
M  V30 753 H 71.9898 -4.0208 1.12788 0
M  V30 754 N 72.4269 -1.23603 -0.977757 0
M  V30 755 C 73.3599 -0.962772 -2.06896 0
M  V30 756 C 74.3379 0.0998743 -1.62293 0
M  V30 757 O 75.5219 -0.0349421 -1.88468 0
M  V30 758 C 72.6489 -0.45095 -3.35685 0
M  V30 759 C 71.6949 -1.50061 -3.99229 0
M  V30 760 S 72.5279 -3.07884 -4.38142 0
M  V30 761 C 73.6839 -2.58378 -5.7008 0
M  V30 762 H 73.9169 -1.88677 -2.29757 0
M  V30 763 H 71.4499 -1.06876 -1.11431 0
M  V30 764 H 73.4079 -0.162261 -4.10179 0
M  V30 765 H 72.0689 0.452179 -3.10828 0
M  V30 766 H 71.2619 -1.09269 -4.92013 0
M  V30 767 H 70.8639 -1.73878 -3.31123 0
M  V30 768 H 73.1559 -2.00563 -6.47133 0
M  V30 769 H 74.0989 -3.49711 -6.15717 0
M  V30 770 H 74.5069 -1.99143 -5.28207 0
M  V30 771 N 73.905 1.17692 -1.04816 0
M  V30 772 C 74.855 2.1952 -0.616042 0
M  V30 773 C 75.839 1.57147 0.345485 0
M  V30 774 O 77.031 1.76245 0.163325 0
M  V30 775 C 74.16 3.43298 0.0116917 0
M  V30 776 C 73.246 4.12777 -0.973435 0
M  V30 777 N 73.637 4.5814 -2.14339 0
M  V30 778 C 71.935 4.38747 -0.80108 0
M  V30 779 C 72.636 5.11713 -2.7663 0
M  V30 780 N 71.612 5.03686 -2.04453 0
M  V30 781 H 75.414 2.52293 -1.5075 0
M  V30 782 H 72.928 1.3398 -0.917776 0
M  V30 783 H 74.925 4.15519 0.339006 0
M  V30 784 H 73.585 3.12018 0.898593 0
M  V30 785 H 74.596 4.52349 -2.52191 0
M  V30 786 H 71.273 4.17485 0.0350934 0
M  V30 787 H 72.663 5.56962 -3.75823 0
M  V30 788 N 75.3831 0.828654 1.34056 0
M  V30 789 C 76.6311 0.41863 1.97717 0
M  V30 790 C 76.9521 -1.02314 1.66002 0
M  V30 791 O 76.2221 -1.71119 0.953683 0
M  V30 792 H 74.8021 0.151809 0.731412 0
M  V30 793 H 77.4641 1.05936 1.63596 0
M  V30 794 H 76.5601 0.542318 3.07352 0
M  V30 795 N 76.8612 -1.46375 0.584142 0
M  V30 796 C 77.7932 -2.28443 -0.186119 0
M  V30 797 C 78.8062 -1.38596 -0.854115 0
M  V30 798 O 79.9952 -1.63183 -0.723438 0
M  V30 799 C 77.0952 -3.13671 -1.28311 0
M  V30 800 C 76.2682 -4.31652 -0.706758 0
M  V30 801 C 75.3272 -4.98267 -1.69163 0
M  V30 802 O 74.3532 -5.55815 -1.22712 0
M  V30 803 N 75.5552 -4.95408 -3.02575 0
M  V30 804 H 78.3202 -2.9519 0.517986 0
M  V30 805 H 75.8812 -1.56303 0.42201 0
M  V30 806 H 77.8732 -3.55101 -1.94128 0
M  V30 807 H 76.4432 -2.48989 -1.89005 0
M  V30 808 H 75.6632 -3.93989 0.128908 0
M  V30 809 H 76.9512 -5.07906 -0.301506 0
M  V30 810 H 76.3492 -4.49902 -3.42936 0
M  V30 811 H 74.9062 -5.40774 -3.63877 0
M  V30 812 N 78.3393 -0.321999 -1.54275 0
M  V30 813 C 79.5853 0.281461 -2.00837 0
M  V30 814 C 79.9183 1.51909 -1.20985 0
M  V30 815 O 79.1933 1.923 -0.291733 0
M  V30 816 C 79.4763 0.617162 -3.54772 0
M  V30 817 C 79.3293 -0.631064 -4.45351 0
M  V30 818 C 80.6483 1.43542 -4.16033 0
M  V30 819 H 77.7673 0.100826 -0.730071 0
M  V30 820 H 80.4093 -0.438268 -1.84876 0
M  V30 821 H 78.5593 1.23034 -3.68504 0
M  V30 822 H 80.2313 -1.26934 -4.43492 0
M  V30 823 H 78.4743 -1.26025 -4.15091 0
M  V30 824 H 79.1453 -0.351735 -5.50878 0
M  V30 825 H 81.6213 0.917134 -4.05867 0
M  V30 826 H 80.4973 1.63907 -5.23856 0
M  V30 827 H 80.7583 2.43108 -3.69257 0
M  V30 828 N 79.8174 1.5752 -0.0501392 0
M  V30 829 C 81.0944 1.83996 0.663685 0
M  V30 830 C 81.4744 0.938339 1.89099 0
M  V30 831 O 80.8224 -0.00087759 2.285 0
M  V30 832 C 81.0324 3.33702 1.02196 0
M  V30 833 C 82.3804 4.00691 1.40469 0
M  V30 834 O 83.4044 3.38321 1.11433 0
M  V30 835 O 82.2634 5.10658 1.94654 0
M  V30 836 H 79.3574 0.759385 0.32751 0
M  V30 837 H 81.9034 1.69514 -0.0794238 0
M  V30 838 H 80.6754 3.91015 0.149364 0
M  V30 839 H 80.2984 3.53368 1.82255 0
M  V30 840 N 81.2955 -0.223234 1.56011 0
M  V30 841 C 82.5355 -0.954962 1.8072 0
M  V30 842 C 82.8995 -1.81598 0.623384 0
M  V30 843 O 84.1005 -2.58132 0.749745 0
M  V30 844 C 82.3715 -1.77313 3.10314 0
M  V30 845 S 83.9305 -2.56073 3.56332 0
M  V30 846 H 80.7485 -0.320812 0.634508 0
M  V30 847 H 83.3505 -0.220686 1.9425 0
M  V30 848 H 82.0545 -1.13071 3.94516 0
M  V30 849 H 81.5855 -2.54974 2.99586 0
M  V30 850 H 83.6005 -3.79619 3.19536 0
M  V30 851 N 82.7736 -1.49793 -0.48987 0
M  V30 852 C 83.9986 -1.63836 -1.27172 0
M  V30 853 C 84.4236 -0.31402 -1.8546 0
M  V30 854 O 83.7816 0.719803 -1.66399 0
M  V30 855 C 83.8296 -2.71797 -2.36978 0
M  V30 856 O 82.9336 -2.31744 -3.41128 0
M  V30 857 H 82.2746 -0.547997 -0.37496 0
M  V30 858 H 84.8046 -1.96053 -0.585191 0
M  V30 859 H 84.8146 -2.94305 -2.82575 0
M  V30 860 H 83.4896 -3.67923 -1.93921 0
M  V30 861 H 82.0666 -2.1961 -3.01373 0
M  V30 862 N 84.2517 0.741722 -1.39055 0
M  V30 863 C 85.6627 1.31966 -1.32068 0
M  V30 864 C 86.0137 1.96192 0.0180797 0
M  V30 865 O 85.1387 1.95861 0.920196 0
M  V30 866 C 85.7337 2.39954 -2.39181 0
M  V30 867 C 84.2927 2.93438 -2.35735 0
M  V30 868 C 83.4397 1.66936 -2.21422 0
M  V30 869 H 86.3907 0.539721 -1.4924 0
M  V30 870 H 86.4117 3.20182 -2.05581 0
M  V30 871 H 85.9237 1.9318 -3.36605 0
M  V30 872 H 84.0247 3.4451 -1.41929 0
M  V30 873 H 84.1377 3.4701 -3.30335 0
M  V30 874 H 82.5017 1.91016 -1.68478 0
M  V30 875 H 83.2847 1.22224 -3.20806 0
M  V30 876 N 85.7298 1.2412 0.971189 0
M  V30 877 C 86.9778 1.07668 1.71032 0
M  V30 878 C 87.2988 -0.385797 1.91146 0
M  V30 879 O 86.5688 -1.27569 1.4867 0
M  V30 880 H 85.1488 0.395429 0.633755 0
M  V30 881 H 87.8108 1.55984 1.16855 0
M  V30 882 H 86.9068 1.57195 2.69622 0
M  V30 883 N 87.2079 -1.17134 1.05439 0
M  V30 884 C 88.4569 -1.86791 0.761049 0
M  V30 885 C 88.7699 -1.82072 -0.714795 0
M  V30 886 O 89.9759 -2.47223 -1.12218 0
M  V30 887 C 88.4319 -3.35166 1.31117 0
M  V30 888 C 88.0399 -3.48381 2.81664 0
M  V30 889 C 89.7839 -4.10134 1.09499 0
M  V30 890 C 87.6909 -4.90793 3.29964 0
M  V30 891 H 86.6209 -0.699681 0.281002 0
M  V30 892 H 89.2719 -1.3226 1.27199 0
M  V30 893 H 87.6539 -3.8925 0.72803 0
M  V30 894 H 88.8279 -3.04502 3.45855 0
M  V30 895 H 87.1429 -2.86836 3.01851 0
M  V30 896 H 89.7399 -5.152 1.43084 0
M  V30 897 H 90.0829 -4.16287 0.0328772 0
M  V30 898 H 90.6159 -3.62264 1.64346 0
M  V30 899 H 87.3549 -4.89816 4.35616 0
M  V30 900 H 86.8749 -5.35333 2.70516 0
M  V30 901 H 88.5539 -5.59573 3.24787 0
M  V30 902 N 88.686 -0.835752 -1.33615 0
M  V30 903 C 89.932 -0.439817 -1.98588 0
M  V30 904 C 90.287 0.989274 -1.65019 0
M  V30 905 O 89.58 1.68168 -0.918159 0
M  V30 906 C 89.774 -0.593925 -3.52431 0
M  V30 907 C 89.603 -2.03644 -4.00948 0
M  V30 908 C 88.373 -2.67103 -4.28934 0
M  V30 909 C 90.571 -3.00479 -4.17393 0
M  V30 910 N 88.553 -4.02462 -4.6357 0
M  V30 911 C 89.924 -4.20777 -4.55353 0
M  V30 912 C 91.979 -2.96926 -3.99674 0
M  V30 913 C 90.682 -5.37994 -4.77447 0
M  V30 914 C 92.708 -4.1337 -4.22941 0
M  V30 915 C 92.07 -5.32422 -4.61201 0
M  V30 916 H 88.169 -0.209303 -0.75347 0
M  V30 917 H 90.753 -1.08316 -1.61789 0
M  V30 918 H 88.924 0.019599 -3.88395 0
M  V30 919 H 90.656 -0.169738 -4.04344 0
M  V30 920 H 87.411 -2.18259 -4.20309 0
M  V30 921 H 87.835 -4.72232 -4.85104 0
M  V30 922 H 92.477 -2.06015 -3.69212 0
M  V30 923 H 90.195 -6.29451 -5.06771 0
M  V30 924 H 93.781 -4.12034 -4.10754 0
M  V30 925 H 92.661 -6.21027 -4.78848 0
M  V30 926 N 90.1641 1.46063 -0.591896 0
M  V30 927 C 91.0961 2.28539 0.174001 0
M  V30 928 C 92.1091 1.39047 0.846753 0
M  V30 929 O 93.2981 1.63564 0.714774 0
M  V30 930 C 90.3981 3.14347 1.26645 0
M  V30 931 C 89.5711 4.32021 0.683856 0
M  V30 932 C 88.6301 4.99157 1.66518 0
M  V30 933 O 87.6561 5.56458 1.19763 0
M  V30 934 N 88.8581 4.97005 2.99943 0
M  V30 935 H 91.6231 2.94911 -0.533633 0
M  V30 936 H 89.1841 1.56077 -0.430294 0
M  V30 937 H 91.1761 3.56125 1.92242 0
M  V30 938 H 89.7461 2.49988 1.87682 0
M  V30 939 H 88.9661 3.93915 -0.1498 0
M  V30 940 H 90.2541 5.08059 0.274567 0
M  V30 941 H 89.6521 4.51714 3.40545 0
M  V30 942 H 88.2091 5.42696 3.61004 0
M  V30 943 N 91.6422 0.330177 1.54103 0
M  V30 944 C 92.5722 -0.525353 2.27513 0
M  V30 945 C 93.5532 -1.11383 1.2856 0
M  V30 946 O 94.7382 -1.13773 1.57383 0
M  V30 947 C 91.8682 -1.6831 3.03791 0
M  V30 948 C 90.8222 -1.2236 4.10137 0
M  V30 949 C 90.1482 -2.46882 4.74293 0
M  V30 950 C 91.4482 -0.333697 5.21233 0
M  V30 951 H 93.1422 0.087013 2.99274 0
M  V30 952 H 90.6882 0.0432893 1.43935 0
M  V30 953 H 92.6412 -2.28795 3.5388 0
M  V30 954 H 91.3652 -2.32216 2.29659 0
M  V30 955 H 90.0242 -0.64165 3.60941 0
M  V30 956 H 89.6722 -3.09165 3.96769 0
M  V30 957 H 89.3722 -2.16825 5.46133 0
M  V30 958 H 90.8962 -3.08117 5.27159 0
M  V30 959 H 92.3102 -0.845013 5.67038 0
M  V30 960 H 90.7072 -0.125612 5.99969 0
M  V30 961 H 91.7772 0.633724 4.80741 0
M  V30 962 N 93.1203 -1.57491 0.0584922 0
M  V30 963 C 94.3973 -1.84346 -0.653918 0
M  V30 964 C 94.7773 -0.948355 -1.88599 0
M  V30 965 O 94.1253 -0.0112403 -2.28497 0
M  V30 966 C 94.3353 -3.34239 -1.00425 0
M  V30 967 C 95.6833 -4.01431 -1.38342 0
M  V30 968 O 96.7073 -3.38907 -1.09637 0
M  V30 969 O 95.5663 -5.11683 -1.91943 0
M  V30 970 H 92.6603 -0.761112 -0.323478 0
M  V30 971 H 95.2063 -1.6947 0.0884125 0
M  V30 972 H 93.9783 -3.91089 -0.128625 0
M  V30 973 H 93.6013 -3.54329 -1.80378 0
M  V30 974 N 94.5984 0.214957 -1.56127 0
M  V30 975 C 95.8384 0.945364 -1.81224 0
M  V30 976 C 96.2024 1.81265 -0.633005 0
M  V30 977 O 97.4034 2.57731 -0.763423 0
M  V30 978 C 95.6744 1.75665 -3.1125 0
M  V30 979 S 97.2334 2.54179 -3.57685 0
M  V30 980 H 94.0514 0.317443 -0.6362 0
M  V30 981 H 96.6534 0.210381 -1.94365 0
M  V30 982 H 95.3574 1.10977 -3.9511 0
M  V30 983 H 94.8884 2.53381 -3.00934 0
M  V30 984 H 96.9034 3.7792 -3.21545 0
M  V30 985 N 96.0765 1.50051 0.48192 0
M  V30 986 C 97.3045 1.64237 1.25832 0
M  V30 987 C 97.7195 0.321336 1.86045 0
M  V30 988 O 97.0765 -0.695478 1.68729 0
M  V30 989 C 97.1275 2.72548 2.37487 0
M  V30 990 O 96.8485 3.99529 1.79745 0
M  V30 991 C 98.3495 2.9761 3.28547 0
M  V30 992 H 95.5695 0.55237 0.380957 0
M  V30 993 H 98.1135 1.96207 0.576467 0
M  V30 994 H 96.2685 2.43303 3.01467 0
M  V30 995 H 96.6825 4.59342 2.5319 0
M  V30 996 H 98.1565 3.77084 4.03127 0
M  V30 997 H 98.6335 2.0826 3.86684 0
M  V30 998 H 99.2395 3.28345 2.70314 0
M  V30 999 N 97.5546 -0.734337 1.39446 0
M  V30 1000 C 98.5046 -1.83949 1.34709 0
M  V30 1001 C 99.4886 -1.59279 0.227851 0
M  V30 1002 O 100.681 -1.70771 0.465438 0
M  V30 1003 C 97.8096 -3.21884 1.19356 0
M  V30 1004 C 96.8956 -3.52381 2.35984 0
M  V30 1005 N 97.2866 -3.53811 3.61457 0
M  V30 1006 C 95.5846 -3.82747 2.28956 0
M  V30 1007 C 96.2856 -3.82122 4.38586 0
M  V30 1008 N 95.2616 -3.9993 3.68181 0
M  V30 1009 H 99.0636 -1.83361 2.29687 0
M  V30 1010 H 96.5776 -0.932609 1.32952 0
M  V30 1011 H 98.5746 -4.00998 1.14046 0
M  V30 1012 H 97.2346 -3.23711 0.253295 0
M  V30 1013 H 98.2456 -3.35107 3.94872 0
M  V30 1014 H 94.9226 -3.92175 1.43194 0
M  V30 1015 H 96.3126 -3.89691 5.47349 0
M  V30 1016 N 99.0327 -1.24633 -0.964593 0
M  V30 1017 C 99.9627 -1.06611 -2.07741 0
M  V30 1018 C 100.944 0.0218666 -1.70086 0
M  V30 1019 O 102.129 -0.145793 -1.93652 0
M  V30 1020 C 99.2587 -0.673444 -3.40708 0
M  V30 1021 C 98.2127 -1.71054 -3.92332 0
M  V30 1022 C 97.5387 -1.17285 -5.21678 0
M  V30 1023 C 98.8387 -3.10718 -4.19824 0
M  V30 1024 H 100.533 -1.99693 -2.23076 0
M  V30 1025 H 98.0787 -0.96152 -1.07195 0
M  V30 1026 H 100.032 -0.534345 -4.17998 0
M  V30 1027 H 98.7557 0.293073 -3.25282 0
M  V30 1028 H 97.4147 -1.83791 -3.17201 0
M  V30 1029 H 97.0627 -0.196847 -5.02615 0
M  V30 1030 H 96.7627 -1.86592 -5.57187 0
M  V30 1031 H 98.2867 -1.04593 -6.01575 0
M  V30 1032 H 99.7007 -3.01192 -4.87808 0
M  V30 1033 H 98.0977 -3.77406 -4.66567 0
M  V30 1034 H 99.1677 -3.58524 -3.26479 0
M  V30 1035 N 100.511 1.16574 -1.06058 0
M  V30 1036 C 101.421 2.2452 -0.680282 0
M  V30 1037 C 102.437 1.71348 0.302604 0
M  V30 1038 O 103.613 2.00822 0.152513 0
M  V30 1039 C 100.678 3.46629 -0.0700315 0
M  V30 1040 C 99.7388 4.14849 -1.10448 0
M  V30 1041 C 98.9718 5.31129 -0.523256 0
M  V30 1042 O 99.1948 5.66514 0.664709 0
M  V30 1043 O 98.1288 5.88526 -1.26179 0
M  V30 1044 H 101.955 2.59355 -1.58015 0
M  V30 1045 H 99.5398 1.24043 -0.832694 0
M  V30 1046 H 101.422 4.20543 0.268667 0
M  V30 1047 H 100.097 3.13573 0.803353 0
M  V30 1048 H 99.0038 3.42916 -1.49532 0
M  V30 1049 H 100.337 4.51954 -1.94931 0
M  V30 1050 N 101.989 0.842826 1.3317 0
M  V30 1051 C 103.237 0.439577 1.97262 0
M  V30 1052 C 103.558 -1.00548 1.67078 0
M  V30 1053 O 102.828 -1.70098 0.971779 0
M  V30 1054 H 101.408 0.159558 0.72976 0
M  V30 1055 H 104.07 1.07665 1.62463 0
M  V30 1056 H 103.166 0.574886 3.0676 0
M  V30 1057 N 103.467 -1.45747 0.599634 0
M  V30 1058 C 104.414 -2.30467 -0.123849 0
M  V30 1059 C 105.384 -1.41632 -0.86774 0
M  V30 1060 O 106.569 -1.70568 -0.855056 0
M  V30 1061 C 103.709 -3.26402 -1.12051 0
M  V30 1062 C 102.822 -4.3034 -0.37832 0
M  V30 1063 C 101.957 -5.13389 -1.364 0
M  V30 1064 C 100.996 -6.09061 -0.609171 0
M  V30 1065 N 100.133 -6.84918 -1.54374 0
M  V30 1066 H 104.973 -2.91802 0.604627 0
M  V30 1067 H 102.51 -1.43797 0.309972 0
M  V30 1068 H 104.468 -3.80482 -1.7114 0
M  V30 1069 H 103.098 -2.66839 -1.8165 0
M  V30 1070 H 102.15 -3.78984 0.327929 0
M  V30 1071 H 103.462 -4.98354 0.210997 0
M  V30 1072 H 102.616 -5.7183 -2.02719 0
M  V30 1073 H 101.355 -4.45376 -1.98725 0
M  V30 1074 H 100.36 -5.49758 0.0676979 0
M  V30 1075 H 101.585 -6.79099 0.00891991 0
M  V30 1076 H 99.531 -6.19601 -2.15478 0
M  V30 1077 H 99.448 -7.49254 -1.00766 0
M  V30 1078 H 100.716 -7.47906 -2.19676 0
M  V30 1079 N 104.945 -0.338344 -1.53925 0
M  V30 1080 C 106.191 0.260143 -2.01125 0
M  V30 1081 C 106.524 1.50617 -1.22589 0
M  V30 1082 O 105.799 1.91979 -0.312113 0
M  V30 1083 C 106.082 0.579499 -3.55407 0
M  V30 1084 C 105.935 -0.678264 -4.44657 0
M  V30 1085 C 107.254 1.39122 -4.17532 0
M  V30 1086 H 104.373 0.0930772 -0.731099 0
M  V30 1087 H 107.015 -0.457852 -1.84401 0
M  V30 1088 H 105.165 1.19118 -3.69788 0
M  V30 1089 H 106.837 -1.31631 -4.42121 0
M  V30 1090 H 105.08 -1.3042 -4.13731 0
M  V30 1091 H 105.751 -0.410143 -5.50474 0
M  V30 1092 H 108.227 0.874035 -4.06817 0
M  V30 1093 H 107.103 1.58342 -5.25565 0
M  V30 1094 H 107.364 2.39178 -3.71815 0
M  V30 1095 N 106.423 1.57458 -0.0668435 0
M  V30 1096 C 107.672 1.92477 0.602947 0
M  V30 1097 C 107.985 0.948419 1.71068 0
M  V30 1098 O 109.191 1.19124 2.43971 0
M  V30 1099 C 107.647 3.41903 1.12383 0
M  V30 1100 C 107.255 4.47975 0.04737 0
M  V30 1101 C 108.999 3.85931 1.76797 0
M  V30 1102 C 106.906 5.88529 0.582022 0
M  V30 1103 H 105.836 0.718387 0.22899 0
M  V30 1104 H 108.487 1.82978 -0.138276 0
M  V30 1105 H 106.869 3.46459 1.91787 0
M  V30 1106 H 108.043 4.55029 -0.726978 0
M  V30 1107 H 106.358 4.13384 -0.500243 0
M  V30 1108 H 108.955 4.88322 2.17821 0
M  V30 1109 H 109.298 3.23029 2.62599 0
M  V30 1110 H 109.831 3.83958 1.04024 0
M  V30 1111 H 106.57 6.55065 -0.238721 0
M  V30 1112 H 106.09 5.85004 1.324 0
M  V30 1113 H 107.769 6.38258 1.05999 0
M  V30 1114 N 107.901 -0.206675 1.56239 0
M  V30 1115 C 108.831 -1.25909 1.96645 0
M  V30 1116 C 109.812 -1.48097 0.836734 0
M  V30 1117 O 110.997 -1.6003 1.10019 0
M  V30 1118 C 108.127 -2.6058 2.29599 0
M  V30 1119 C 107.081 -2.53024 3.452 0
M  V30 1120 C 106.407 -3.91861 3.63798 0
M  V30 1121 C 107.707 -2.06524 4.79734 0
M  V30 1122 H 109.401 -0.923369 2.84806 0
M  V30 1123 H 106.947 -0.442735 1.37025 0
M  V30 1124 H 108.9 -3.34375 2.56459 0
M  V30 1125 H 107.624 -2.95869 1.38307 0
M  V30 1126 H 106.283 -1.81684 3.18412 0
M  V30 1127 H 105.931 -4.24483 2.69857 0
M  V30 1128 H 105.631 -3.87683 4.4156 0
M  V30 1129 H 107.155 -4.67296 3.93022 0
M  V30 1130 H 108.569 -2.70072 5.05702 0
M  V30 1131 H 106.966 -2.13374 5.60885 0
M  V30 1132 H 108.036 -1.01802 4.74093 0
M  V30 1133 N 109.379 -1.50304 -0.473955 0
M  V30 1134 C 110.625 -1.61389 -1.22806 0
M  V30 1135 C 110.958 -0.311955 -1.91678 0
M  V30 1136 O 110.233 0.686384 -1.81986 0
M  V30 1137 C 110.516 -2.79219 -2.27396 0
M  V30 1138 C 110.369 -4.19286 -1.62848 0
M  V30 1139 C 111.688 -2.92614 -3.28732 0
M  V30 1140 H 108.807 -0.587399 -0.445119 0
M  V30 1141 H 111.449 -1.82681 -0.522265 0
M  V30 1142 H 109.599 -2.61195 -2.87592 0
M  V30 1143 H 111.271 -4.48892 -1.06271 0
M  V30 1144 H 109.514 -4.23677 -0.931693 0
M  V30 1145 H 110.185 -4.97655 -2.38838 0
M  V30 1146 H 112.661 -3.09105 -2.78556 0
M  V30 1147 H 111.537 -3.76688 -3.99246 0
M  V30 1148 H 111.798 -2.03107 -3.92683 0
M  V30 1149 N 110.857 0.726932 -1.39834 0
M  V30 1150 C 111.82 1.82269 -1.38962 0
M  V30 1151 C 112.82 1.58248 -0.285334 0
M  V30 1152 O 114.01 1.65499 -0.54366 0
M  V30 1153 C 111.142 3.20186 -1.17019 0
M  V30 1154 H 112.335 1.84443 -2.36476 0
M  V30 1155 H 109.888 0.931416 -1.25516 0
M  V30 1156 H 110.623 3.23669 -0.202204 0
M  V30 1157 H 110.408 3.3902 -1.96998 0
M  V30 1158 H 111.898 4.00235 -1.1917 0
M  V30 1159 N 112.336 1.25143 0.95797 0
M  V30 1160 C 113.582 1.09855 1.70469 0
M  V30 1161 C 113.915 -0.360187 1.90831 0
M  V30 1162 O 113.19 -1.26568 1.47685 0
M  V30 1163 C 113.473 1.8497 3.08963 0
M  V30 1164 C 113.326 3.38652 2.96032 0
M  V30 1165 C 114.645 1.63016 4.08795 0
M  V30 1166 H 111.764 0.400465 0.618706 0
M  V30 1167 H 114.406 1.53933 1.11376 0
M  V30 1168 H 112.556 1.47505 3.59409 0
M  V30 1169 H 114.228 3.85772 2.52938 0
M  V30 1170 H 112.471 3.66534 2.32025 0
M  V30 1171 H 113.142 3.8642 3.94187 0
M  V30 1172 H 115.618 1.95625 3.67247 0
M  V30 1173 H 114.494 2.18015 5.03747 0
M  V30 1174 H 114.755 0.570692 4.38401 0
M  V30 1175 N 113.814 -1.1601 1.06675 0
M  V30 1176 C 114.764 -2.18512 0.650888 0
M  V30 1177 C 115.748 -1.57677 -0.320441 0
M  V30 1178 O 116.94 -1.76482 -0.135266 0
M  V30 1179 C 114.069 -3.43273 0.0429255 0
M  V30 1180 C 113.155 -4.11176 1.03898 0
M  V30 1181 N 113.546 -4.54672 2.216 0
M  V30 1182 C 111.844 -4.37417 0.870779 0
M  V30 1183 C 112.545 -5.07248 2.84736 0
M  V30 1184 N 111.521 -5.0037 2.12441 0
M  V30 1185 H 115.323 -2.49863 1.54745 0
M  V30 1186 H 112.837 -1.32503 0.938975 0
M  V30 1187 H 114.834 -4.16006 -0.272857 0
M  V30 1188 H 113.494 -3.13408 -0.84884 0
M  V30 1189 H 114.505 -4.4828 2.59356 0
M  V30 1190 H 111.182 -4.17488 0.0313293 0
M  V30 1191 H 112.572 -5.50912 3.84636 0
M  V30 1192 N 115.292 -0.849877 -1.32721 0
M  V30 1193 C 116.538 -0.451591 -1.97708 0
M  V30 1194 C 116.871 0.989175 -1.6712 0
M  V30 1195 O 116.146 1.69334 -0.956891 0
M  V30 1196 C 116.429 -0.685598 -3.53513 0
M  V30 1197 C 116.282 -2.17444 -3.93749 0
M  V30 1198 C 117.601 -0.138874 -4.39881 0
M  V30 1199 H 114.72 -0.16555 -0.718166 0
M  V30 1200 H 117.362 -1.06742 -1.57182 0
M  V30 1201 H 115.512 -0.161416 -3.88165 0
M  V30 1202 H 117.184 -2.76433 -3.693 0
M  V30 1203 H 115.427 -2.65476 -3.43081 0
M  V30 1204 H 116.098 -2.28888 -5.02309 0
M  V30 1205 H 118.574 -0.587068 -4.11938 0
M  V30 1206 H 117.45 -0.332213 -5.47894 0
M  V30 1207 H 117.711 0.95806 -4.31594 0
M  V30 1208 N 116.77 1.45427 -0.607355 0
M  V30 1209 C 117.733 2.28974 0.101693 0
M  V30 1210 C 118.733 1.39754 0.795329 0
M  V30 1211 O 119.923 1.61878 0.643527 0
M  V30 1212 C 117.055 3.20768 1.15414 0
M  V30 1213 H 118.248 2.93147 -0.632844 0
M  V30 1214 H 115.801 1.51945 -0.366391 0
M  V30 1215 H 116.536 2.61395 1.91945 0
M  V30 1216 H 116.321 3.86489 0.66098 0
M  V30 1217 H 117.811 3.83589 1.65073 0
M  V30 1218 N 118.248 0.346503 1.53744 0
M  V30 1219 C 119.473 -0.253074 2.0585 0
M  V30 1220 C 119.898 -1.43202 1.21962 0
M  V30 1221 O 119.256 -1.79783 0.234073 0
M  V30 1222 C 119.304 -0.643193 3.54817 0
M  V30 1223 O 118.408 -1.74286 3.73762 0
M  V30 1224 H 117.749 -0.0413583 0.662711 0
M  V30 1225 H 120.279 0.501574 1.98357 0
M  V30 1226 H 120.289 -0.919526 3.97503 0
M  V30 1227 H 118.964 0.218966 4.15323 0
M  V30 1228 H 117.541 -1.46356 3.42979 0
M  V30 1229 N 119.726 -1.57421 0.075193 0
M  V30 1230 C 120.974 -1.93236 -0.591974 0
M  V30 1231 C 121.295 -0.956241 -1.69944 0
M  V30 1232 O 120.565 -0.00494792 -1.95899 0
M  V30 1233 H 119.145 -0.713355 -0.22166 0
M  V30 1234 H 121.807 -1.9444 0.133848 0
M  V30 1235 H 120.903 -2.95131 -1.01509 0
M  V30 1236 N 121.204 0.198386 -1.56346 0
M  V30 1237 C 122.434 0.934215 -1.84271 0
M  V30 1238 C 122.842 1.77496 -0.655125 0
M  V30 1239 O 122.185 1.7961 0.385488 0
M  V30 1240 C 122.247 1.88278 -3.06254 0
M  V30 1241 C 121.911 1.22431 -4.40295 0
M  V30 1242 C 122.908 0.602839 -5.16393 0
M  V30 1243 C 120.593 1.22915 -4.87029 0
M  V30 1244 C 122.587 -0.0050083 -6.374 0
M  V30 1245 C 120.274 0.617465 -6.07973 0
M  V30 1246 C 121.272 0.00146341 -6.83 0
M  V30 1247 O 120.96 -0.600642 -8.01653 0
M  V30 1248 H 120.692 0.278245 -0.616081 0
M  V30 1249 H 123.246 0.211626 -2.04307 0
M  V30 1250 H 121.476 2.64498 -2.82095 0
M  V30 1251 H 123.165 2.48612 -3.20853 0
M  V30 1252 H 123.931 0.591265 -4.81382 0
M  V30 1253 H 119.81 1.69801 -4.28589 0
M  V30 1254 H 123.354 -0.48643 -6.95902 0
M  V30 1255 H 119.251 0.62653 -6.42452 0
M  V30 1256 H 120.019 -0.497225 -8.16988 0
M  V30 1257 N 122.682 1.50554 0.465978 0
M  V30 1258 C 123.931 1.61038 1.21448 0
M  V30 1259 C 124.244 0.31865 1.92987 0
M  V30 1260 O 125.45 0.302469 2.6981 0
M  V30 1261 C 123.906 2.84283 2.20706 0
M  V30 1262 C 123.514 4.20352 1.54946 0
M  V30 1263 C 125.258 3.04115 2.96166 0
M  V30 1264 C 123.165 5.34778 2.5252 0
M  V30 1265 H 122.095 0.599718 0.457005 0
M  V30 1266 H 124.746 1.7699 0.484424 0
M  V30 1267 H 123.128 2.61901 2.97025 0
M  V30 1268 H 124.302 4.53008 0.843811 0
M  V30 1269 H 122.617 4.06167 0.917475 0
M  V30 1270 H 125.214 3.86774 3.69202 0
M  V30 1271 H 125.557 2.16045 3.55852 0
M  V30 1272 H 126.09 3.26702 2.26959 0
M  V30 1273 H 122.829 6.25018 1.97566 0
M  V30 1274 H 122.349 5.06534 3.21222 0
M  V30 1275 H 124.028 5.65561 3.14245 0
M  V30 1276 N 124.16 -0.719506 1.40217 0
M  V30 1277 C 125.07 -1.86378 1.42479 0
M  V30 1278 C 126.086 -1.71073 0.317834 0
M  V30 1279 O 127.262 -1.93406 0.561794 0
M  V30 1280 C 124.327 -3.22136 1.28178 0
M  V30 1281 C 123.388 -3.49723 2.48982 0
M  V30 1282 C 122.621 -4.79004 2.35353 0
M  V30 1283 O 122.844 -5.53821 1.36524 0
M  V30 1284 O 121.778 -5.06839 3.2465 0
M  V30 1285 H 125.604 -1.87425 2.38968 0
M  V30 1286 H 123.189 -0.869405 1.21498 0
M  V30 1287 H 125.071 -4.03234 1.22395 0
M  V30 1288 H 123.746 -3.21825 0.347934 0
M  V30 1289 H 122.653 -2.6865 2.60342 0
M  V30 1290 H 123.986 -3.54828 3.41113 0
M  V30 1291 N 125.638 -1.25649 -0.95132 0
M  V30 1292 C 126.601 -1.06399 -2.03007 0
M  V30 1293 C 127.601 -0.0156794 -1.60792 0
M  V30 1294 O 128.791 -0.25817 -1.72276 0
M  V30 1295 C 125.923 -0.616184 -3.35285 0
M  V30 1296 H 127.116 -2.02164 -2.21517 0
M  V30 1297 H 124.669 -1.08103 -1.12887 0
M  V30 1298 H 125.404 0.343917 -3.22471 0
M  V30 1299 H 125.189 -1.37301 -3.67275 0
M  V30 1300 H 126.679 -0.503032 -4.14559 0
M  V30 1301 N 127.117 1.15442 -1.07289 0
M  V30 1302 C 128.027 2.23786 -0.704057 0
M  V30 1303 C 129.043 1.7166 0.284413 0
M  V30 1304 O 130.219 2.00972 0.131205 0
M  V30 1305 C 127.284 3.46535 -0.106792 0
M  V30 1306 C 126.345 4.13654 -1.14842 0
M  V30 1307 C 125.578 5.30544 -0.57956 0
M  V30 1308 O 125.801 5.67187 0.604585 0
M  V30 1309 O 124.735 5.87154 -1.32414 0
M  V30 1310 H 128.561 2.57664 -1.60757 0
M  V30 1311 H 126.146 1.23152 -0.845803 0
M  V30 1312 H 128.028 4.20804 0.224048 0
M  V30 1313 H 126.703 3.14407 0.770049 0
M  V30 1314 H 125.61 3.4131 -1.5316 0
M  V30 1315 H 126.943 4.49861 -1.99714 0
M  V30 1316 N 128.595 0.856903 1.32268 0
M  V30 1317 C 129.841 0.462069 1.97466 0
M  V30 1318 C 130.174 -0.980298 1.67642 0
M  V30 1319 O 129.449 -1.68824 0.965858 0
M  V30 1320 C 129.732 0.704336 3.53145 0
M  V30 1321 C 129.585 2.19529 3.9259 0
M  V30 1322 C 130.904 0.1622 4.39801 0
M  V30 1323 H 128.023 0.169357 0.717278 0
M  V30 1324 H 130.665 1.07574 1.56614 0
M  V30 1325 H 128.815 0.181999 3.88073 0
M  V30 1326 H 130.487 2.78387 3.67829 0
M  V30 1327 H 128.73 2.67292 3.41668 0
M  V30 1328 H 129.401 2.31549 5.01088 0
M  V30 1329 H 131.877 0.608905 4.11621 0
M  V30 1330 H 130.753 0.361265 5.4771 0
M  V30 1331 H 131.014 -0.935158 4.32096 0
M  V30 1332 N 130.073 -1.45103 0.615059 0
M  V30 1333 C 131.322 -2.01396 0.110718 0
M  V30 1334 C 131.635 -1.48834 -1.26916 0
M  V30 1335 O 132.841 -1.97152 -1.86664 0
M  V30 1336 C 131.297 -3.59599 0.14723 0
M  V30 1337 C 130.905 -4.21158 1.52743 0
M  V30 1338 C 132.649 -4.23428 -0.30148 0
M  V30 1339 C 130.556 -5.71535 1.51992 0
M  V30 1340 H 129.486 -0.753061 0.0376241 0
M  V30 1341 H 132.137 -1.66494 0.77149 0
M  V30 1342 H 130.519 -3.91724 -0.580339 0
M  V30 1343 H 131.693 -4.00594 2.2773 0
M  V30 1344 H 130.008 -3.69552 1.91886 0
M  V30 1345 H 132.605 -5.33703 -0.326392 0
M  V30 1346 H 132.948 -3.94629 -1.32565 0
M  V30 1347 H 133.481 -3.96047 0.373065 0
M  V30 1348 H 130.22 -6.05044 2.52193 0
M  V30 1349 H 129.74 -5.94268 0.81274 0
M  V30 1350 H 131.419 -6.34873 1.24681 0
M  V30 1351 N 131.551 -0.354651 -1.53558 0
M  V30 1352 C 132.962 0.126902 -1.86268 0
M  V30 1353 C 133.313 1.49075 -1.27558 0
M  V30 1354 O 132.438 2.08105 -0.5934 0
M  V30 1355 C 133.033 0.237046 -3.3797 0
M  V30 1356 C 131.592 0.662842 -3.70518 0
M  V30 1357 C 130.739 -0.196652 -2.76602 0
M  V30 1358 H 133.69 -0.573849 -1.47962 0
M  V30 1359 H 133.711 1.06259 -3.65362 0
M  V30 1360 H 133.223 -0.755725 -3.80671 0
M  V30 1361 H 131.324 1.66424 -3.33367 0
M  V30 1362 H 131.437 0.445034 -4.77029 0
M  V30 1363 H 129.801 0.332763 -2.52517 0
M  V30 1364 H 130.584 -1.18676 -3.22135 0
M  V30 1365 N 133.029 1.57378 -0.0835403 0
M  V30 1366 C 133.992 2.12252 0.864959 0
M  V30 1367 C 134.992 1.04916 1.21858 0
M  V30 1368 O 136.182 1.30853 1.14991 0
M  V30 1369 C 133.314 2.63358 2.16461 0
M  V30 1370 H 134.507 2.97371 0.388676 0
M  V30 1371 H 132.06 1.55423 0.165317 0
M  V30 1372 H 132.795 1.81727 2.686 0
M  V30 1373 H 132.58 3.41826 1.92087 0
M  V30 1374 H 134.07 3.05847 2.84337 0
M  V30 1375 N 134.507 -0.190092 1.56449 0
M  V30 1376 C 135.417 -1.25591 1.98152 0
M  V30 1377 C 136.433 -1.49519 0.889944 0
M  V30 1378 O 137.609 -1.62036 1.19609 0
M  V30 1379 C 134.674 -2.57916 2.3169 0
M  V30 1380 C 133.735 -2.42015 3.5458 0
M  V30 1381 C 132.968 -3.6803 3.8651 0
M  V30 1382 O 133.191 -4.72413 3.1966 0
M  V30 1383 O 132.125 -3.6326 4.79923 0
M  V30 1384 H 135.951 -0.931988 2.89046 0
M  V30 1385 H 133.536 -0.395488 1.4407 0
M  V30 1386 H 135.418 -3.36008 2.54316 0
M  V30 1387 H 134.093 -2.89925 1.43963 0
M  V30 1388 H 133 -1.62017 3.37196 0
M  V30 1389 H 134.333 -2.14937 4.4279 0
M  V30 1390 N 135.985 -1.50799 -0.457987 0
M  V30 1391 C 137.213 -1.66218 -1.23203 0
M  V30 1392 C 137.628 -0.350894 -1.85511 0
M  V30 1393 O 136.985 0.668546 -1.69814 0
M  V30 1394 C 137.036 -2.76291 -2.33121 0
M  V30 1395 O 136.757 -4.02338 -1.73366 0
M  V30 1396 C 138.258 -3.028 -3.2377 0
M  V30 1397 H 135.478 -0.558361 -0.372121 0
M  V30 1398 H 138.022 -1.97099 -0.545179 0
M  V30 1399 H 136.177 -2.48068 -2.97558 0
M  V30 1400 H 136.591 -4.63312 -2.4585 0
M  V30 1401 H 138.065 -3.8345 -3.97077 0
M  V30 1402 H 138.542 -2.14385 -3.83322 0
M  V30 1403 H 139.148 -3.32604 -2.65056 0
M  V30 1404 N 137.463 0.71206 -1.40597 0
M  V30 1405 C 138.711 1.46907 -1.38791 0
M  V30 1406 C 139.032 1.94998 0.00780391 0
M  V30 1407 O 138.302 1.70587 0.963174 0
M  V30 1408 H 136.882 0.545043 -0.51082 0
M  V30 1409 H 139.544 0.843882 -1.75683 0
M  V30 1410 H 138.64 2.34021 -2.06496 0
M  V30 1411 N 138.941 1.26152 0.944643 0
M  V30 1412 C 139.873 1.03199 2.04652 0
M  V30 1413 C 140.886 -0.00642356 1.62799 0
M  V30 1414 O 142.075 0.233263 1.76969 0
M  V30 1415 C 139.175 0.540111 3.34568 0
M  V30 1416 C 138.348 1.64697 4.05208 0
M  V30 1417 C 137.407 1.15374 5.13396 0
M  V30 1418 O 136.433 1.85013 5.38293 0
M  V30 1419 N 137.635 0.00031529 5.805 0
M  V30 1420 H 140.4 1.9808 2.2491 0
M  V30 1421 H 137.961 1.17491 1.11389 0
M  V30 1422 H 139.953 0.194401 4.04233 0
M  V30 1423 H 138.523 -0.315021 3.11009 0
M  V30 1424 H 137.743 2.16379 3.29506 0
M  V30 1425 H 139.031 2.3903 4.49157 0
M  V30 1426 H 138.429 -0.581336 5.62705 0
M  V30 1427 H 136.986 -0.286346 6.51171 0
M  V30 1428 N 140.419 -1.14872 1.07899 0
M  V30 1429 C 141.329 -2.2341 0.715915 0
M  V30 1430 C 142.345 -1.71808 -0.275306 0
M  V30 1431 O 143.521 -2.01039 -0.120545 0
M  V30 1432 C 140.586 -3.46474 0.125168 0
M  V30 1433 C 139.647 -4.13039 1.17034 0
M  V30 1434 C 138.88 -5.30229 0.607688 0
M  V30 1435 O 139.103 -5.675 -0.574497 0
M  V30 1436 O 138.037 -5.86444 1.35526 0
M  V30 1437 H 141.863 -2.56808 1.62121 0
M  V30 1438 H 139.448 -1.22702 0.852322 0
M  V30 1439 H 141.33 -4.20917 -0.201729 0
M  V30 1440 H 140.005 -3.14811 -0.753364 0
M  V30 1441 H 138.912 -3.40493 1.54968 0
M  V30 1442 H 140.245 -4.48796 2.02097 0
M  V30 1443 N 141.898 -0.863906 -1.31812 0
M  V30 1444 C 143.126 -0.486111 -2.01108 0
M  V30 1445 C 143.541 0.919755 -1.64882 0
M  V30 1446 O 142.898 1.60162 -0.874893 0
M  V30 1447 C 142.949 -0.626435 -3.56031 0
M  V30 1448 O 142.67 -1.97693 -3.90959 0
M  V30 1449 C 144.171 -0.248857 -4.42601 0
M  V30 1450 H 141.391 -0.190052 -0.643523 0
M  V30 1451 H 143.935 -1.1634 -1.68182 0
M  V30 1452 H 142.09 0.00322717 -3.874 0
M  V30 1453 H 142.504 -1.98034 -4.85678 0
M  V30 1454 H 143.978 -0.398016 -5.50563 0
M  V30 1455 H 144.455 0.811489 -4.31638 0
M  V30 1456 H 145.061 -0.853971 -4.16638 0
M  V30 1457 N 143.376 1.44774 -0.622745 0
M  V30 1458 C 144.339 2.29069 0.0774015 0
M  V30 1459 C 145.339 1.4059 0.780461 0
M  V30 1460 O 146.529 1.62551 0.626322 0
M  V30 1461 C 143.661 3.21974 1.12006 0
M  V30 1462 H 144.854 2.92459 -0.663901 0
M  V30 1463 H 142.407 1.51548 -0.382486 0
M  V30 1464 H 143.142 2.63417 1.89162 0
M  V30 1465 H 142.927 3.87168 0.619951 0
M  V30 1466 H 144.417 3.85318 1.60995 0
M  V30 1467 N 144.854 0.36279 1.53368 0
M  V30 1468 C 146.084 -0.228281 2.05335 0
M  V30 1469 C 146.492 -1.43226 1.23625 0
M  V30 1470 O 145.835 -1.81717 0.269206 0
M  V30 1471 C 145.897 -0.688549 3.52845 0
M  V30 1472 C 145.561 0.398362 4.5526 0
M  V30 1473 C 146.558 1.24732 5.04716 0
M  V30 1474 C 144.243 0.557805 4.99193 0
M  V30 1475 C 146.237 2.2411 5.96702 0
M  V30 1476 C 143.924 1.55495 5.90986 0
M  V30 1477 C 144.922 2.39503 6.39631 0
M  V30 1478 O 144.61 3.37517 7.29615 0
M  V30 1479 H 144.342 -0.044395 0.674541 0
M  V30 1480 H 146.896 0.518668 1.98744 0
M  V30 1481 H 145.126 -1.48706 3.56964 0
M  V30 1482 H 146.815 -1.20231 3.87685 0
M  V30 1483 H 147.581 1.13532 4.71525 0
M  V30 1484 H 143.46 -0.0862959 4.60919 0
M  V30 1485 H 147.004 2.89718 6.34594 0
M  V30 1486 H 142.901 1.66744 6.23592 0
M  V30 1487 H 143.669 3.33213 7.47604 0
M  V30 1488 N 146.332 -1.57332 0.0918853 0
M  V30 1489 C 147.579 -1.94236 -0.572577 0
M  V30 1490 C 147.907 -0.973398 -1.6839 0
M  V30 1491 O 147.162 0.00756912 -1.95699 0
M  V30 1492 C 147.461 -3.37689 -1.17051 0
M  V30 1493 C 147.127 -4.50527 -0.183304 0
M  V30 1494 C 145.789 -4.81119 0.0882276 0
M  V30 1495 C 148.141 -5.18883 0.49095 0
M  V30 1496 C 145.469 -5.77395 1.04076 0
M  V30 1497 C 147.821 -6.1618 1.43193 0
M  V30 1498 C 146.485 -6.45179 1.71173 0
M  V30 1499 H 145.755 -0.710762 -0.209521 0
M  V30 1500 H 148.402 -1.9077 0.167036 0
M  V30 1501 H 146.707 -3.37718 -1.9863 0
M  V30 1502 H 148.404 -3.63543 -1.69227 0
M  V30 1503 H 144.994 -4.26681 -0.405124 0
M  V30 1504 H 149.178 -4.95427 0.294312 0
M  V30 1505 H 144.434 -5.98179 1.26457 0
M  V30 1506 H 148.608 -6.68243 1.96023 0
M  V30 1507 H 146.235 -7.1959 2.4514 0
M  V30 1508 N 147.81 0.181792 -1.56548 0
M  V30 1509 C 148.74 1.22765 -1.98623 0
M  V30 1510 C 149.721 1.46747 -0.860189 0
M  V30 1511 O 150.906 1.58259 -1.12551 0
M  V30 1512 C 148.036 2.56894 -2.33715 0
M  V30 1513 C 146.99 2.475 -3.49182 0
M  V30 1514 C 146.316 3.86023 -3.69986 0
M  V30 1515 C 147.616 1.98866 -4.82959 0
M  V30 1516 H 149.31 0.877942 -2.86239 0
M  V30 1517 H 146.856 0.42088 -1.37712 0
M  V30 1518 H 148.809 3.30253 -2.61746 0
M  V30 1519 H 147.533 2.93632 -1.42997 0
M  V30 1520 H 146.192 1.76596 -3.21262 0
M  V30 1521 H 145.84 4.20136 -2.76576 0
M  V30 1522 H 145.54 3.80609 -4.47672 0
M  V30 1523 H 147.064 4.60984 -4.00407 0
M  V30 1524 H 148.478 2.61992 -5.09934 0
M  V30 1525 H 146.875 2.04424 -5.64208 0
M  V30 1526 H 147.945 0.942465 -4.75653 0
M  V30 1527 N 149.288 1.51039 0.449983 0
M  V30 1528 C 150.218 1.74379 1.55288 0
M  V30 1529 C 151.199 0.593236 1.5942 0
M  V30 1530 O 152.384 0.834625 1.7535 0
M  V30 1531 C 149.514 1.85728 2.93466 0
M  V30 1532 C 148.468 3.01078 3.04197 0
M  V30 1533 C 147.794 2.97595 4.44231 0
M  V30 1534 C 149.094 4.41254 2.7945 0
M  V30 1535 H 150.788 2.66725 1.36008 0
M  V30 1536 H 148.334 1.2835 0.652864 0
M  V30 1537 H 150.287 2.0064 3.70569 0
M  V30 1538 H 149.011 0.900207 3.13949 0
M  V30 1539 H 147.67 2.85851 2.29531 0
M  V30 1540 H 147.318 1.99691 4.61663 0
M  V30 1541 H 147.018 3.75046 4.52343 0
M  V30 1542 H 148.542 3.14583 5.23326 0
M  V30 1543 H 149.956 4.56897 3.46292 0
M  V30 1544 H 148.353 5.20315 2.98985 0
M  V30 1545 H 149.423 4.52164 1.75144 0
M  V30 1546 N 150.766 -0.704594 1.40972 0
M  V30 1547 C 151.713 -1.81862 1.42109 0
M  V30 1548 C 152.683 -1.63781 0.276593 0
M  V30 1549 O 153.868 -1.84759 0.4763 0
M  V30 1550 C 151.008 -3.19669 1.30022 0
M  V30 1551 C 150.121 -3.49246 2.54267 0
M  V30 1552 C 149.256 -4.76618 2.3454 0
M  V30 1553 C 148.295 -4.99133 3.54306 0
M  V30 1554 N 147.432 -6.17726 3.33706 0
M  V30 1555 H 152.272 -1.80226 2.37324 0
M  V30 1556 H 149.809 -0.880238 1.17857 0
M  V30 1557 H 151.767 -3.99263 1.21018 0
M  V30 1558 H 150.397 -3.20506 0.384192 0
M  V30 1559 H 149.449 -2.64125 2.73756 0
M  V30 1560 H 150.761 -3.61788 3.43381 0
M  V30 1561 H 149.915 -5.64249 2.22952 0
M  V30 1562 H 148.654 -4.66305 1.42867 0
M  V30 1563 H 147.659 -4.09953 3.66359 0
M  V30 1564 H 148.884 -5.11311 4.4692 0
M  V30 1565 H 146.83 -6.08642 2.44725 0
M  V30 1566 H 146.747 -6.30995 4.16391 0
M  V30 1567 H 148.015 -7.08115 3.25873 0
M  V30 1568 N 152.244 -1.26651 -0.937939 0
M  V30 1569 C 153.174 -1.10993 -2.05433 0
M  V30 1570 C 154.155 -0.0142161 -1.70094 0
M  V30 1571 O 155.34 -0.186837 -1.93299 0
M  V30 1572 C 152.47 -0.745561 -3.39203 0
M  V30 1573 C 151.424 -1.79337 -3.88616 0
M  V30 1574 C 150.75 -1.28324 -5.19073 0
M  V30 1575 C 152.05 -3.19553 -4.13138 0
M  V30 1576 H 153.744 -2.0438 -2.1879 0
M  V30 1577 H 151.29 -0.984041 -1.05131 0
M  V30 1578 H 153.243 -0.622888 -4.16771 0
M  V30 1579 H 151.967 0.22401 -3.25831 0
M  V30 1580 H 150.626 -1.90477 -3.13231 0
M  V30 1581 H 150.274 -0.303414 -5.02084 0
M  V30 1582 H 149.974 -1.98369 -5.53103 0
M  V30 1583 H 151.498 -1.1733 -5.99221 0
M  V30 1584 H 152.912 -3.11471 -4.81309 0
M  V30 1585 H 151.309 -3.87218 -4.58457 0
M  V30 1586 H 152.379 -3.65368 -3.18801 0
M  V30 1587 N 153.722 1.14298 -1.08507 0
M  V30 1588 C 154.685 2.17607 -0.719711 0
M  V30 1589 C 155.685 1.58907 0.245997 0
M  V30 1590 O 156.875 1.74181 0.0254081 0
M  V30 1591 C 154.007 3.40842 -0.0627695 0
M  V30 1592 H 155.2 2.51443 -1.63452 0
M  V30 1593 H 152.753 1.28963 -0.88307 0
M  V30 1594 H 153.488 3.12587 0.863716 0
M  V30 1595 H 153.273 3.84713 -0.757504 0
M  V30 1596 H 154.763 4.17221 0.177786 0
M  V30 1597 N 155.201 0.870884 1.31352 0
M  V30 1598 C 156.449 0.48132 1.96285 0
M  V30 1599 C 156.77 -0.969813 1.69173 0
M  V30 1600 O 156.04 -1.67998 1.00764 0
M  V30 1601 H 154.62 0.175002 0.726212 0
M  V30 1602 H 157.282 1.11087 1.60143 0
M  V30 1603 H 156.378 0.639825 3.05471 0
M  V30 1604 N 156.679 -1.44442 0.630414 0
M  V30 1605 C 158.095 -1.56832 0.295973 0
M  V30 1606 C 158.295 -1.61806 -1.20088 0
M  V30 1607 O 157.351 -1.5607 -1.9849 0
M  V30 1608 C 158.664 -2.84031 0.987264 0
M  V30 1609 C 160.212 -2.97742 0.96534 0
M  V30 1610 C 160.687 -4.27743 1.63708 0
M  V30 1611 N 162.178 -4.34555 1.60364 0
M  V30 1612 C 162.913 -5.33862 2.09234 0
M  V30 1613 N 162.409 -6.39578 2.66292 0
M  V30 1614 N 164.202 -5.25366 1.99867 0
M  V30 1615 H 156.353 -1.39457 1.60205 0
M  V30 1616 H 158.616 -0.668237 0.672431 0
M  V30 1617 H 158.322 -2.86338 2.04215 0
M  V30 1618 H 158.196 -3.73534 0.524588 0
M  V30 1619 H 160.583 -2.94989 -0.0810639 0
M  V30 1620 H 160.664 -2.09589 1.4665 0
M  V30 1621 H 160.308 -4.31255 2.68293 0
M  V30 1622 H 160.238 -5.14752 1.11076 0
M  V30 1623 H 162.729 -3.58772 1.18705 0
M  V30 1624 H 163.042 -7.11637 3.01317 0
M  V30 1625 H 161.387 -6.40265 2.70343 0
M  V30 1626 H 164.578 -4.41688 1.55013 0
M  V30 1627 H 164.751 -6.02606 2.38265 0
M  V30 1628 N 158.157 -0.370918 -1.53173 0
M  V30 1629 C 159.403 0.209976 -2.02313 0
M  V30 1630 C 159.758 1.45987 -1.25322 0
M  V30 1631 O 159.051 1.8856 -0.339965 0
M  V30 1632 C 159.245 0.549696 -3.53147 0
M  V30 1633 C 159.074 -0.665721 -4.44745 0
M  V30 1634 C 157.844 -1.17942 -4.91343 0
M  V30 1635 C 160.042 -1.53255 -4.90935 0
M  V30 1636 N 158.024 -2.35431 -5.66962 0
M  V30 1637 C 159.395 -2.55403 -5.64951 0
M  V30 1638 C 161.45 -1.5548 -4.73002 0
M  V30 1639 C 160.153 -3.5964 -6.22938 0
M  V30 1640 C 162.179 -2.58613 -5.31858 0
M  V30 1641 C 161.541 -3.59485 -6.05764 0
M  V30 1642 H 157.64 0.0394095 -0.781006 0
M  V30 1643 H 160.224 -0.516666 -1.8772 0
M  V30 1644 H 158.395 1.24541 -3.67891 0
M  V30 1645 H 160.127 1.11614 -3.89004 0
M  V30 1646 H 156.882 -0.743228 -4.67732 0
M  V30 1647 H 157.306 -2.94827 -6.09431 0
M  V30 1648 H 161.948 -0.788457 -4.15383 0
M  V30 1649 H 159.666 -4.37153 -6.79649 0
M  V30 1650 H 163.252 -2.61195 -5.19873 0
M  V30 1651 H 162.132 -4.3798 -6.50495 0
M  V30 1652 N 159.635 1.57281 -0.100228 0
M  V30 1653 C 161.046 1.81725 0.428107 0
M  V30 1654 C 161.397 1.01619 1.67833 0
M  V30 1655 O 160.522 0.247098 2.14985 0
M  V30 1656 C 161.117 3.29617 0.78347 0
M  V30 1657 C 159.676 3.54808 1.25653 0
M  V30 1658 C 158.823 2.76118 0.255752 0
M  V30 1659 H 161.774 1.55324 -0.325608 0
M  V30 1660 H 161.795 3.4322 1.64256 0
M  V30 1661 H 161.307 3.87893 -0.12665 0
M  V30 1662 H 159.408 3.01868 2.18418 0
M  V30 1663 H 159.521 4.63443 1.21482 0
M  V30 1664 H 157.885 2.43745 0.738956 0
M  V30 1665 H 158.668 3.37145 -0.647136 0
M  V30 1666 N 161.113 -0.173488 1.56642 0
M  V30 1667 C 162.359 -0.891784 1.8214 0
M  V30 1668 C 162.692 -1.8199 0.677736 0
M  V30 1669 O 161.967 -1.91842 -0.320446 0
M  V30 1670 C 162.25 -1.68933 3.18015 0
M  V30 1671 C 162.103 -0.784487 4.42906 0
M  V30 1672 C 163.422 -2.65748 3.50808 0
M  V30 1673 H 160.541 -0.322761 0.662567 0
M  V30 1674 H 163.183 -0.158095 1.89341 0
M  V30 1675 H 161.333 -2.31482 3.12007 0
M  V30 1676 H 163.005 -0.172046 4.60979 0
M  V30 1677 H 161.248 -0.0924117 4.33702 0
M  V30 1678 H 161.919 -1.37799 5.34524 0
M  V30 1679 H 164.395 -2.13327 3.57255 0
M  V30 1680 H 163.271 -3.18619 4.4696 0
M  V30 1681 H 163.532 -3.45842 2.75401 0
M  V30 1682 N 162.591 -1.51276 -0.441967 0
M  V30 1683 C 163.538 -1.72256 -1.53612 0
M  V30 1684 C 164.508 -0.564164 -1.56225 0
M  V30 1685 O 165.693 -0.798074 -1.73307 0
M  V30 1686 C 162.833 -1.84932 -2.91366 0
M  V30 1687 C 161.946 -3.12459 -2.98317 0
M  V30 1688 C 161.081 -3.15758 -4.27166 0
M  V30 1689 C 160.12 -4.37619 -4.27967 0
M  V30 1690 N 159.257 -4.38493 -5.48333 0
M  V30 1691 H 164.097 -2.65654 -1.35026 0
M  V30 1692 H 161.634 -1.31662 -0.656009 0
M  V30 1693 H 163.592 -1.90263 -3.7129 0
M  V30 1694 H 162.222 -0.949461 -3.08521 0
M  V30 1695 H 161.274 -3.1646 -2.11086 0
M  V30 1696 H 162.586 -4.02382 -2.94771 0
M  V30 1697 H 161.74 -3.19979 -5.15459 0
M  V30 1698 H 160.479 -2.23715 -4.33362 0
M  V30 1699 H 159.484 -4.33579 -3.38067 0
M  V30 1700 H 160.709 -5.30921 -4.23438 0
M  V30 1701 H 158.655 -3.49318 -5.55259 0
M  V30 1702 H 158.572 -5.22219 -5.46647 0
M  V30 1703 H 159.84 -4.469 -6.38671 0
M  V30 1704 N 164.069 0.697108 -1.41344 0
M  V30 1705 C 165.297 1.48593 -1.43972 0
M  V30 1706 C 165.712 1.88747 -0.0445612 0
M  V30 1707 O 165.069 1.56682 0.935785 0
M  V30 1708 C 165.12 2.74946 -2.34706 0
M  V30 1709 O 164.841 2.36484 -3.68791 0
M  V30 1710 C 166.342 3.687 -2.46121 0
M  V30 1711 H 163.562 0.457964 -0.490418 0
M  V30 1712 H 166.106 0.858429 -1.8561 0
M  V30 1713 H 164.261 3.33937 -1.9638 0
M  V30 1714 H 164.675 3.17918 -4.17167 0
M  V30 1715 H 166.149 4.54145 -3.13777 0
M  V30 1716 H 166.626 4.13081 -1.49199 0
M  V30 1717 H 167.232 3.15613 -2.85076 0
M  V30 1718 N 165.547 1.27147 0.931209 0
M  V30 1719 C 166.796 1.12664 1.67302 0
M  V30 1720 C 167.109 -0.327718 1.92835 0
M  V30 1721 O 168.315 -0.593392 2.64936 0
M  V30 1722 C 166.771 1.9683 3.01307 0
M  V30 1723 C 166.379 3.46901 2.83485 0
M  V30 1724 C 168.123 1.90985 3.79111 0
M  V30 1725 C 166.03 4.23279 4.13024 0
M  V30 1726 H 164.96 0.41803 0.627509 0
M  V30 1727 H 167.611 1.51539 1.03481 0
M  V30 1728 H 165.993 1.50797 3.66164 0
M  V30 1729 H 167.167 4.00773 2.27415 0
M  V30 1730 H 165.482 3.54088 2.19113 0
M  V30 1731 H 168.079 2.45328 4.75098 0
M  V30 1732 H 168.422 0.882718 4.06834 0
M  V30 1733 H 168.955 2.34895 3.21044 0
M  V30 1734 H 165.694 5.26503 3.90481 0
M  V30 1735 H 165.214 3.74186 4.6877 0
M  V30 1736 H 166.893 4.32265 4.81411 0
M  V30 1737 N 167.025 -1.13721 1.09112 0
M  V30 1738 C 167.975 -2.17082 0.697091 0
M  V30 1739 C 168.959 -1.58321 -0.286923 0
M  V30 1740 O 170.151 -1.7673 -0.0978008 0
M  V30 1741 C 167.28 -3.43105 0.115729 0
M  V30 1742 C 166.366 -4.0888 1.12596 0
M  V30 1743 N 166.757 -4.4987 2.31195 0
M  V30 1744 C 165.055 -4.35471 0.963366 0
M  V30 1745 C 165.756 -5.01094 2.95431 0
M  V30 1746 N 164.732 -4.95751 2.23006 0
M  V30 1747 H 168.534 -2.46524 1.6001 0
M  V30 1748 H 166.048 -1.30481 0.966869 0
M  V30 1749 H 168.045 -4.16491 -0.184555 0
M  V30 1750 H 166.705 -3.15138 -0.78217 0
M  V30 1751 H 167.716 -4.42678 2.68806 0
M  V30 1752 H 164.393 -4.17328 0.119878 0
M  V30 1753 H 165.783 -5.4263 3.96236 0
M  V30 1754 N 168.503 -0.877838 -1.30888 0
M  V30 1755 C 169.731 -0.507414 -2.00581 0
M  V30 1756 C 170.146 0.902216 -1.65848 0
M  V30 1757 O 169.503 1.59225 -0.891831 0
M  V30 1758 C 169.554 -0.664162 -3.55347 0
M  V30 1759 O 169.275 -2.01829 -3.8884 0
M  V30 1760 C 170.776 -0.295787 -4.42312 0
M  V30 1761 H 167.996 -0.196866 -0.641471 0
M  V30 1762 H 170.54 -1.18117 -1.66939 0
M  V30 1763 H 168.695 -0.0378619 -3.87381 0
M  V30 1764 H 169.109 -2.03174 -4.8355 0
M  V30 1765 H 170.583 -0.456388 -5.5011 0
M  V30 1766 H 171.06 0.765663 -4.32475 0
M  V30 1767 H 171.666 -0.898113 -4.15709 0
M  V30 1768 N 169.982 1.44106 -0.638065 0
M  V30 1769 C 171.259 1.95453 -0.0759321 0
M  V30 1770 C 171.639 1.57984 1.40015 0
M  V30 1771 O 170.987 0.857361 2.11806 0
M  V30 1772 C 171.197 3.47655 -0.306132 0
M  V30 1773 C 172.545 4.24114 -0.203008 0
M  V30 1774 O 173.569 3.55405 -0.237871 0
M  V30 1775 O 172.428 5.46381 -0.113827 0
M  V30 1776 H 169.522 0.826797 0.0183332 0
M  V30 1777 H 172.068 1.54122 -0.710251 0
M  V30 1778 H 170.84 3.68 -1.3301 0
M  V30 1779 H 170.463 3.95949 0.361991 0
M  V30 1780 N 171.46 0.379036 1.52974 0
M  V30 1781 C 172.408 -0.476033 2.27677 0
M  V30 1782 C 173.402 -1.0719 1.31174 0
M  V30 1783 O 174.608 -1.01355 1.48752 0
M  V30 1784 H 170.983 -0.172255 0.732006 0
M  V30 1785 H 172.954 0.175615 2.97883 0
M  V30 1786 C 171.703 -1.5967 3.0887 0
M  V30 1787 H 171.026 -1.1475 3.82978 0
M  V30 1788 H 172.466 -2.16943 3.64296 0
M  V30 1789 C 170.925 -2.54682 2.20542 0
M  V30 1790 O 171.455 -3.57836 1.82527 0
M  V30 1791 N 169.661 -2.24183 1.84907 0
M  V30 1792 H 169.208 -1.40333 2.1602 0
M  V30 1793 H 169.166 -2.88006 1.26096 0
M  V30 1794 N 172.938 -1.57226 0.108567 0
M  V30 1795 C 174.186 -1.94448 -0.550853 0
M  V30 1796 C 174.507 -0.992074 -1.67878 0
M  V30 1797 O 173.777 -0.0465 -1.95845 0
M  V30 1798 H 172.357 -0.717897 -0.206479 0
M  V30 1799 H 175.019 -1.94112 0.175062 0
M  V30 1800 H 174.115 -2.97218 -0.952259 0
M  V30 1801 N 174.416 0.165178 -1.56732 0
M  V30 1802 C 175.641 0.900253 -1.86843 0
M  V30 1803 C 176.066 1.74766 -0.695596 0
M  V30 1804 O 175.424 1.77786 0.35522 0
M  V30 1805 C 175.472 1.74777 -3.15413 0
M  V30 1806 O 174.576 2.85007 -2.98068 0
M  V30 1807 H 173.917 0.251832 -0.614391 0
M  V30 1808 H 176.447 0.161468 -2.03962 0
M  V30 1809 H 176.457 2.14646 -3.46974 0
M  V30 1810 H 175.132 1.12537 -4.00385 0
M  V30 1811 H 173.709 2.48676 -2.77875 0
M  V30 1812 N 175.894 1.51508 0.433938 0
M  V30 1813 C 176.842 1.73646 1.54757 0
M  V30 1814 C 177.836 0.602854 1.5831 0
M  V30 1815 O 179.042 0.784318 1.62014 0
M  V30 1816 H 175.417 0.548718 0.51421 0
M  V30 1817 H 177.388 2.66991 1.33261 0
M  V30 1818 C 176.137 1.88172 2.92381 0
M  V30 1819 H 175.46 2.74808 2.90381 0
M  V30 1820 H 176.9 2.07672 3.6966 0
M  V30 1821 C 175.359 0.64239 3.30719 0
M  V30 1822 O 175.889 -0.201362 4.01195 0
M  V30 1823 N 174.095 0.485489 2.86516 0
M  V30 1824 H 173.642 1.17318 2.29334 0
M  V30 1825 H 173.6 -0.342482 3.12529 0
M  V30 1826 N 177.372 -0.689602 1.41712 0
M  V30 1827 C 178.619 -1.44966 1.4139 0
M  V30 1828 C 178.947 -1.94484 0.025105 0
M  V30 1829 O 178.202 -1.70307 -0.964048 0
M  V30 1830 C 178.501 -2.67298 2.37247 0
M  V30 1831 C 178.167 -2.36405 3.83958 0
M  V30 1832 C 176.829 -2.27691 4.23923 0
M  V30 1833 C 179.181 -2.11043 4.76561 0
M  V30 1834 C 176.509 -1.91719 5.54492 0
M  V30 1835 C 178.861 -1.76578 6.07456 0
M  V30 1836 C 177.525 -1.66363 6.46436 0
M  V30 1837 H 176.795 -0.53047 0.517381 0
M  V30 1838 H 179.442 -0.787655 1.74552 0
M  V30 1839 H 177.747 -3.38461 1.9736 0
M  V30 1840 H 179.444 -3.25452 2.34269 0
M  V30 1841 H 176.034 -2.44085 3.52308 0
M  V30 1842 H 180.218 -2.16717 4.46483 0
M  V30 1843 H 175.474 -1.82367 5.83568 0
M  V30 1844 H 179.648 -1.55974 6.78708 0
M  V30 1845 H 177.275 -1.38258 7.47522 0
M  V30 1846 N 178.85 -1.27639 -0.924453 0
M  V30 1847 C 180.078 -1.16989 -1.70649 0
M  V30 1848 C 180.493 0.272869 -1.86818 0
M  V30 1849 O 179.85 1.18549 -1.38753 0
M  V30 1850 C 179.901 -1.85229 -3.10439 0
M  V30 1851 O 179.622 -3.23868 -2.95028 0
M  V30 1852 C 181.123 -1.80746 -4.04779 0
M  V30 1853 H 178.343 -0.406595 -0.53378 0
M  V30 1854 H 180.887 -1.68569 -1.15778 0
M  V30 1855 H 179.042 -1.37545 -3.6216 0
M  V30 1856 H 179.456 -3.57889 -3.83426 0
M  V30 1857 H 180.93 -2.33101 -5.00368 0
M  V30 1858 H 181.407 -0.777499 -4.32263 0
M  V30 1859 H 182.013 -2.28059 -3.58984 0
M  V30 1860 N 180.328 1.1314 -1.09713 0
M  V30 1861 C 181.553 1.88862 -0.857081 0
M  V30 1862 C 181.978 1.78729 0.586304 0
M  V30 1863 O 181.336 1.13692 1.41222 0
M  V30 1864 C 181.384 3.36325 -1.30069 0
M  V30 1865 O 180.488 4.09815 -0.461007 0
M  V30 1866 H 179.829 0.587108 -0.310162 0
M  V30 1867 H 182.359 1.43129 -1.46203 0
M  V30 1868 H 182.369 3.87157 -1.28738 0
M  V30 1869 H 181.044 3.43017 -2.35185 0
M  V30 1870 H 179.621 3.68986 -0.538888 0
M  V30 1871 N 181.806 0.884767 1.30421 0
M  V30 1872 C 183.034 0.518044 2.0031 0
M  V30 1873 C 183.449 -0.893408 1.66324 0
M  V30 1874 O 182.806 -1.5875 0.900262 0
M  V30 1875 C 182.857 0.682997 3.54989 0
M  V30 1876 O 182.578 2.03888 3.87764 0
M  V30 1877 C 184.079 0.31924 4.42149 0
M  V30 1878 H 181.299 0.200265 0.640418 0
M  V30 1879 H 183.843 1.19001 1.6631 0
M  V30 1880 H 181.998 0.0584052 3.87356 0
M  V30 1881 H 182.412 2.05735 4.82466 0
M  V30 1882 H 183.886 0.485555 5.4986 0
M  V30 1883 H 184.363 -0.742717 4.32875 0
M  V30 1884 H 184.969 0.920147 4.15227 0
M  V30 1885 N 183.284 -1.43765 0.645699 0
M  V30 1886 C 184.512 -2.06253 0.163556 0
M  V30 1887 C 184.927 -1.48352 -1.16778 0
M  V30 1888 O 184.284 -0.611932 -1.71935 0
M  V30 1889 C 184.335 -3.61453 0.0583186 0
M  V30 1890 O 184.056 -4.172 1.33702 0
M  V30 1891 C 185.557 -4.41002 -0.450795 0
M  V30 1892 H 182.777 -0.665413 0.0864077 0
M  V30 1893 H 185.321 -1.84396 0.884222 0
M  V30 1894 H 183.476 -3.82522 -0.612865 0
M  V30 1895 H 183.89 -5.10791 1.19131 0
M  V30 1896 H 185.364 -5.49966 -0.473403 0
M  V30 1897 H 185.841 -4.13488 -1.48068 0
M  V30 1898 H 186.447 -4.24886 0.187637 0
M  V30 1899 N 184.763 -0.387143 -1.52771 0
M  V30 1900 C 186.009 0.196025 -2.0185 0
M  V30 1901 C 186.342 1.46641 -1.27319 0
M  V30 1902 O 185.617 1.90889 -0.373032 0
M  V30 1903 C 185.9 0.466136 -3.5707 0
M  V30 1904 C 185.753 -0.819385 -4.42274 0
M  V30 1905 C 187.072 1.25768 -4.21747 0
M  V30 1906 H 184.191 0.0697708 -0.73369 0
M  V30 1907 H 186.833 -0.516286 -1.82851 0
M  V30 1908 H 184.983 1.07293 -3.7339 0
M  V30 1909 H 186.655 -1.4563 -4.37709 0
M  V30 1910 H 184.898 -1.43517 -4.09372 0
M  V30 1911 H 185.569 -0.585065 -5.48891 0
M  V30 1912 H 188.045 0.744167 -4.09391 0
M  V30 1913 H 186.921 1.41541 -5.30337 0
M  V30 1914 H 187.182 2.27228 -3.79236 0
M  V30 1915 N 186.241 1.57166 -0.116904 0
M  V30 1916 C 187.188 2.15202 0.83408 0
M  V30 1917 C 188.158 1.07644 1.26499 0
M  V30 1918 O 189.343 1.35541 1.34288 0
M  V30 1919 C 186.483 2.75405 2.07957 0
M  V30 1920 C 185.596 3.97264 1.69721 0
M  V30 1921 C 184.731 4.45561 2.89221 0
M  V30 1922 C 183.77 5.59956 2.47215 0
M  V30 1923 N 182.907 6.03006 3.59622 0
M  V30 1924 H 187.747 2.96141 0.332335 0
M  V30 1925 H 185.284 1.46309 0.152349 0
M  V30 1926 H 187.242 3.08439 2.80929 0
M  V30 1927 H 185.872 1.97159 2.55594 0
M  V30 1928 H 184.924 3.70404 0.866316 0
M  V30 1929 H 186.236 4.80226 1.34849 0
M  V30 1930 H 185.39 4.80493 3.7042 0
M  V30 1931 H 184.129 3.61544 3.27318 0
M  V30 1932 H 183.134 5.2463 1.64448 0
M  V30 1933 H 184.359 6.45738 2.10238 0
M  V30 1934 H 182.305 5.21931 3.97396 0
M  V30 1935 H 182.222 6.80819 3.28667 0
M  V30 1936 H 183.49 6.42576 4.41267 0
M  V30 1937 N 187.719 -0.156864 1.56817 0
M  V30 1938 C 188.682 -1.17781 1.96622 0
M  V30 1939 C 189.682 -1.36401 0.851555 0
M  V30 1940 O 190.872 -1.33561 1.11836 0
M  V30 1941 C 188.004 -2.54008 2.27361 0
M  V30 1942 H 189.197 -0.836564 2.87996 0
M  V30 1943 H 186.75 -0.39985 1.51099 0
M  V30 1944 H 187.485 -2.9312 1.38748 0
M  V30 1945 H 187.27 -2.41856 3.08623 0
M  V30 1946 H 188.76 -3.27558 2.59029 0
M  V30 1947 N 189.197 -1.51736 -0.425897 0
M  V30 1948 C 190.16 -1.73271 -1.50032 0
M  V30 1949 C 191.16 -0.602639 -1.4908 0
M  V30 1950 O 192.35 -0.87033 -1.509 0
M  V30 1951 C 189.482 -1.79969 -2.89523 0
M  V30 1952 H 190.675 -2.69172 -1.32237 0
M  V30 1953 H 188.228 -1.41899 -0.65532 0
M  V30 1954 H 188.963 -0.859241 -3.1271 0
M  V30 1955 H 188.748 -2.62109 -2.91619 0
M  V30 1956 H 190.238 -1.9843 -3.67444 0
M  V30 1957 N 190.675 0.682077 -1.42076 0
M  V30 1958 C 191.915 1.45424 -1.43636 0
M  V30 1959 C 192.279 1.91939 -0.0484001 0
M  V30 1960 O 193.48 2.6873 0.0612514 0
M  V30 1961 C 191.751 2.62427 -2.42625 0
M  V30 1962 S 193.31 3.51379 -2.62827 0
M  V30 1963 H 190.128 0.496779 -0.508657 0
M  V30 1964 H 192.73 0.794645 -1.78621 0
M  V30 1965 H 191.434 2.26481 -3.42249 0
M  V30 1966 H 190.965 3.33266 -2.09039 0
M  V30 1967 H 192.98 4.58141 -1.9058 0
M  V30 1968 N 192.153 1.28127 0.917671 0
M  V30 1969 C 193.399 1.16232 1.66918 0
M  V30 1970 C 193.754 -0.28701 1.90247 0
M  V30 1971 O 193.047 -1.20586 1.48895 0
M  V30 1972 C 193.241 1.89018 3.03327 0
M  V30 1973 C 193.07 3.4088 2.9331 0
M  V30 1974 C 191.84 4.10214 2.95047 0
M  V30 1975 C 194.038 4.36689 2.71675 0
M  V30 1976 N 192.02 5.48571 2.75577 0
M  V30 1977 C 193.391 5.62382 2.6101 0
M  V30 1978 C 195.446 4.26661 2.56641 0
M  V30 1979 C 194.149 6.79189 2.36843 0
M  V30 1980 C 196.175 5.432 2.33853 0
M  V30 1981 C 195.537 6.67855 2.23939 0
M  V30 1982 H 191.636 0.48024 0.617166 0
M  V30 1983 H 194.22 1.61727 1.08409 0
M  V30 1984 H 192.391 1.45963 3.59929 0
M  V30 1985 H 194.123 1.69541 3.67475 0
M  V30 1986 H 190.878 3.61762 3.05655 0
M  V30 1987 H 191.302 6.21287 2.68945 0
M  V30 1988 H 195.944 3.30998 2.63059 0
M  V30 1989 H 193.662 7.74926 2.29164 0
M  V30 1990 H 197.248 5.37328 2.23091 0
M  V30 1991 H 196.128 7.56511 2.06546 0
M  V30 1992 N 193.631 -1.12557 1.10312 0
M  V30 1993 C 194.877 -1.84515 0.855901 0
M  V30 1994 C 195.232 -1.82409 -0.611936 0
M  V30 1995 O 194.525 -1.25778 -1.44535 0
M  V30 1996 C 194.719 -3.31462 1.33669 0
M  V30 1997 C 194.548 -3.47879 2.84974 0
M  V30 1998 C 193.318 -3.61589 3.52961 0
M  V30 1999 C 195.516 -3.43152 3.83081 0
M  V30 2000 N 193.498 -3.66359 4.926 0
M  V30 2001 C 194.869 -3.54401 5.08724 0
M  V30 2002 C 196.924 -3.2661 3.75807 0
M  V30 2003 C 195.627 -3.50815 6.2795 0
M  V30 2004 C 197.653 -3.24335 4.94531 0
M  V30 2005 C 197.015 -3.36144 6.19021 0
M  V30 2006 H 193.114 -0.690967 0.366182 0
M  V30 2007 H 195.698 -1.34763 1.40524 0
M  V30 2008 H 193.869 -3.7976 0.814686 0
M  V30 2009 H 195.601 -3.91272 1.03385 0
M  V30 2010 H 192.356 -3.63652 3.03404 0
M  V30 2011 H 192.78 -3.72411 5.65366 0
M  V30 2012 H 197.422 -3.16375 2.80476 0
M  V30 2013 H 195.14 -3.5982 7.23571 0
M  V30 2014 H 198.726 -3.12719 4.9061 0
M  V30 2015 H 197.606 -3.34357 7.09348 0
M  V30 2016 N 195.109 -0.891671 -1.2995 0
M  V30 2017 C 196.072 -0.36828 -2.26222 0
M  V30 2018 C 197.072 0.493014 -1.53056 0
M  V30 2019 O 198.262 0.299213 -1.71611 0
M  V30 2020 C 195.394 0.47442 -3.37583 0
M  V30 2021 H 196.587 -1.21844 -2.74033 0
M  V30 2022 H 194.14 -0.669107 -1.41254 0
M  V30 2023 H 194.875 1.34489 -2.95099 0
M  V30 2024 H 194.66 -0.142615 -3.91841 0
M  V30 2025 H 196.15 0.83218 -4.09224 0
M  V30 2026 N 196.587 1.43421 -0.653314 0
M  V30 2027 C 197.835 2.01414 -0.166415 0
M  V30 2028 C 198.156 1.51803 1.22397 0
M  V30 2029 O 197.426 0.730693 1.81763 0
M  V30 2030 H 196.006 0.744703 -0.0585319 0
M  V30 2031 H 198.668 1.75629 -0.845003 0
M  V30 2032 H 197.764 3.11734 -0.151111 0
M  V30 2033 N 198.065 0.39524 1.52563 0
M  V30 2034 C 199.314 -0.186321 2.00838 0
M  V30 2035 C 199.627 -1.47402 1.28577 0
M  V30 2036 O 200.833 -2.13599 1.67593 0
M  V30 2037 C 199.289 -0.382595 3.57861 0
M  V30 2038 C 198.897 0.892202 4.39026 0
M  V30 2039 C 200.641 -0.9202 4.14406 0
M  V30 2040 C 198.548 0.66388 5.87662 0
M  V30 2041 H 197.478 -0.0734041 0.750418 0
M  V30 2042 H 200.129 0.518552 1.76021 0
M  V30 2043 H 198.511 -1.14946 3.7895 0
M  V30 2044 H 199.685 1.66414 4.29701 0
M  V30 2045 H 198 1.35519 3.9373 0
M  V30 2046 H 200.597 -1.10683 5.23119 0
M  V30 2047 H 200.94 -1.89096 3.70875 0
M  V30 2048 H 201.473 -0.212751 3.97231 0
M  V30 2049 H 198.212 1.6058 6.35527 0
M  V30 2050 H 197.732 -0.0690193 5.9976 0
M  V30 2051 H 199.411 0.300699 6.46301 0
M  V30 2052 N 199.544 -1.57102 0.125237 0
M  V30 2053 C 200.491 -2.15641 -0.822655 0
M  V30 2054 C 201.461 -1.08313 -1.25927 0
M  V30 2055 O 202.646 -1.36251 -1.33567 0
M  V30 2056 C 199.786 -2.76504 -2.06494 0
M  V30 2057 C 198.899 -3.98158 -1.67612 0
M  V30 2058 C 198.034 -4.47088 -2.86854 0
M  V30 2059 C 197.073 -5.6126 -2.44242 0
M  V30 2060 N 196.21 -6.04905 -3.56419 0
M  V30 2061 H 201.05 -2.96313 -0.316625 0
M  V30 2062 H 198.587 -1.46388 -0.144588 0
M  V30 2063 H 200.545 -3.09925 -2.79289 0
M  V30 2064 H 199.175 -1.98512 -2.54545 0
M  V30 2065 H 198.227 -3.70858 -0.846661 0
M  V30 2066 H 199.539 -4.80934 -1.32301 0
M  V30 2067 H 198.693 -4.82451 -3.67867 0
M  V30 2068 H 197.432 -3.63275 -3.25396 0
M  V30 2069 H 196.437 -5.25495 -1.61663 0
M  V30 2070 H 197.662 -6.46843 -2.0681 0
M  V30 2071 H 195.608 -5.24032 -3.94623 0
M  V30 2072 H 195.525 -6.82552 -3.25051 0
M  V30 2073 H 196.793 -6.44907 -4.37853 0
M  V30 2074 N 201.022 0.148545 -1.56898 0
M  V30 2075 C 201.954 1.20852 -1.9475 0
M  V30 2076 C 202.967 1.39265 -0.843152 0
M  V30 2077 O 204.156 1.38864 -1.12156 0
M  V30 2078 C 201.256 2.57362 -2.20495 0
M  V30 2079 C 200.429 2.59947 -3.51776 0
M  V30 2080 C 199.488 3.77984 -3.6608 0
M  V30 2081 O 198.514 3.62929 -4.38487 0
M  V30 2082 N 199.716 4.95375 -3.02629 0
M  V30 2083 H 202.481 0.886804 -2.86279 0
M  V30 2084 H 200.042 0.338121 -1.5833 0
M  V30 2085 H 202.034 3.34833 -2.27307 0
M  V30 2086 H 200.604 2.81832 -1.35238 0
M  V30 2087 H 199.824 1.68403 -3.56419 0
M  V30 2088 H 201.112 2.58704 -4.38121 0
M  V30 2089 H 200.51 5.10509 -2.43715 0
M  V30 2090 H 199.067 5.70627 -3.15004 0
M  V30 2091 N 202.5 1.5196 0.417844 0
M  V30 2092 C 203.41 1.77554 1.53336 0
M  V30 2093 C 204.426 0.660655 1.6097 0
M  V30 2094 O 205.602 0.945099 1.77848 0
M  V30 2095 C 202.667 1.91291 2.89152 0
M  V30 2096 C 201.728 3.15183 2.91475 0
M  V30 2097 C 200.961 3.28256 4.20813 0
M  V30 2098 O 201.184 2.46798 5.14244 0
M  V30 2099 O 200.118 4.21356 4.29817 0
M  V30 2100 H 203.944 2.7222 1.34647 0
M  V30 2101 H 201.529 1.36698 0.602828 0
M  V30 2102 H 203.411 2.02199 3.69721 0
M  V30 2103 H 202.086 0.998129 3.07927 0
M  V30 2104 H 200.993 3.09739 2.09791 0
M  V30 2105 H 202.326 4.06414 2.77648 0
M  V30 2106 N 203.978 -0.674533 1.42435 0
M  V30 2107 C 205.225 -1.43459 1.42919 0
M  V30 2108 C 205.553 -1.94446 0.0457312 0
M  V30 2109 O 204.808 -1.7132 -0.94593 0
M  V30 2110 C 205.107 -2.64767 2.40069 0
M  V30 2111 C 204.773 -2.3232 3.86443 0
M  V30 2112 C 203.435 -2.23182 4.26314 0
M  V30 2113 C 205.787 -2.05977 4.78773 0
M  V30 2114 C 203.115 -1.85827 5.56494 0
M  V30 2115 C 205.467 -1.70125 6.09295 0
M  V30 2116 C 204.131 -1.59498 6.48164 0
M  V30 2117 H 203.401 -0.524952 0.522978 0
M  V30 2118 H 206.048 -0.769097 1.75377 0
M  V30 2119 H 204.353 -3.36349 2.00939 0
M  V30 2120 H 206.05 -3.22949 2.37707 0
M  V30 2121 H 202.64 -2.40334 3.54877 0
M  V30 2122 H 206.824 -2.11969 4.48757 0
M  V30 2123 H 202.08 -1.76168 5.8547 0
M  V30 2124 H 206.254 -1.48767 6.80324 0
M  V30 2125 H 203.881 -1.30322 7.48946 0
M  V30 2126 N 205.456 -1.28612 -0.910864 0
M  V30 2127 C 206.704 -1.15705 -1.65701 0
M  V30 2128 C 207.025 0.29416 -1.92769 0
M  V30 2129 O 206.295 1.20331 -1.54588 0
M  V30 2130 H 204.875 -0.425216 -0.614167 0
M  V30 2131 H 207.537 -1.61381 -1.0928 0
M  V30 2132 H 206.633 -1.6988 -2.61815 0
M  V30 2133 N 206.934 1.1197 -1.10907 0
M  V30 2134 C 208.183 1.82947 -0.849302 0
M  V30 2135 C 208.496 1.85275 0.627112 0
M  V30 2136 O 209.702 2.52296 1.00295 0
M  V30 2137 C 208.158 3.28529 -1.46959 0
M  V30 2138 C 207.766 3.34546 -2.97965 0
M  V30 2139 C 209.51 4.04443 -1.28942 0
M  V30 2140 C 207.417 4.74491 -3.53004 0
M  V30 2141 H 206.347 0.685477 -0.314065 0
M  V30 2142 H 208.998 1.2604 -1.33365 0
M  V30 2143 H 207.38 3.85333 -0.912917 0
M  V30 2144 H 208.554 2.87654 -3.59989 0
M  V30 2145 H 206.869 2.72108 -3.15192 0
M  V30 2146 H 209.466 5.07787 -1.67502 0
M  V30 2147 H 209.809 4.15656 -0.231456 0
M  V30 2148 H 210.342 3.5401 -1.81443 0
M  V30 2149 H 207.081 4.68474 -4.58489 0
M  V30 2150 H 206.601 5.21816 -2.9575 0
M  V30 2151 H 208.28 5.4344 -3.51115 0
M  V30 2152 N 208.412 0.89855 1.29475 0
M  V30 2153 C 209.823 0.572537 1.77705 0
M  V30 2154 C 210.174 -0.911778 1.73727 0
M  V30 2155 O 209.299 -1.71288 1.32247 0
M  V30 2156 C 209.894 1.03252 3.22683 0
M  V30 2157 C 208.453 0.757687 3.68695 0
M  V30 2158 C 207.6 1.20787 2.49612 0
M  V30 2159 H 210.551 1.08139 1.16153 0
M  V30 2160 H 210.572 0.367307 3.78723 0
M  V30 2161 H 210.084 2.11285 3.25546 0
M  V30 2162 H 208.185 -0.310079 3.71308 0
M  V30 2163 H 208.298 1.35476 4.59547 0
M  V30 2164 H 206.662 0.626888 2.46865 0
M  V30 2165 H 207.445 2.29622 2.55203 0
M  V30 2166 N 209.89 -1.43072 0.660911 0
M  V30 2167 C 211.12 -2.05769 0.185153 0
M  V30 2168 C 211.528 -1.49668 -1.15742 0
M  V30 2169 O 210.871 -0.625649 -1.72717 0
M  V30 2170 C 210.933 -3.59489 0.0278237 0
M  V30 2171 C 210.597 -4.38212 1.2969 0
M  V30 2172 C 211.594 -4.69772 2.22734 0
M  V30 2173 C 209.279 -4.7809 1.54063 0
M  V30 2174 C 211.273 -5.40129 3.38437 0
M  V30 2175 C 208.96 -5.4819 2.70058 0
M  V30 2176 C 209.958 -5.79132 3.62071 0
M  V30 2177 O 209.646 -6.47798 4.76039 0
M  V30 2178 H 209.378 -0.669873 0.0908086 0
M  V30 2179 H 211.932 -1.84436 0.90402 0
M  V30 2180 H 210.162 -3.79426 -0.746489 0
M  V30 2181 H 211.851 -4.03862 -0.406275 0
M  V30 2182 H 212.617 -4.39476 2.05149 0
M  V30 2183 H 208.496 -4.53408 0.833215 0
M  V30 2184 H 212.04 -5.64198 4.10277 0
M  V30 2185 H 207.937 -5.77902 2.87574 0
M  V30 2186 H 208.705 -6.66283 4.75404 0
M  V30 2187 N 211.368 -0.403325 -1.52352 0
M  V30 2188 C 212.316 0.439752 -2.28405 0
M  V30 2189 C 213.31 1.05089 -1.32863 0
M  V30 2190 O 214.516 0.989759 -1.50345 0
M  V30 2191 H 210.891 0.160587 -0.734653 0
M  V30 2192 H 212.862 -0.222983 -2.97566 0
M  V30 2193 C 211.611 1.54736 -3.11371 0
M  V30 2194 H 210.934 1.08643 -3.84755 0
M  V30 2195 H 212.374 2.1112 -3.67701 0
M  V30 2196 C 210.833 2.51141 -2.24566 0
M  V30 2197 O 211.363 3.54887 -1.88196 0
M  V30 2198 N 209.569 2.21213 -1.8845 0
M  V30 2199 H 209.116 1.36878 -2.18225 0
M  V30 2200 H 209.074 2.85963 -1.30662 0
M  V30 2201 N 212.846 1.57033 -0.133567 0
M  V30 2202 C 214.257 1.82593 0.389464 0
M  V30 2203 C 214.608 1.05156 1.6564 0
M  V30 2204 O 213.733 0.292644 2.14412 0
M  V30 2205 C 214.328 3.31204 0.713377 0
M  V30 2206 C 212.887 3.57393 1.18098 0
M  V30 2207 C 212.034 2.76598 0.197126 0
M  V30 2208 H 214.985 1.54598 -0.358481 0
M  V30 2209 H 215.006 3.46627 1.56939 0
M  V30 2210 H 214.518 3.87537 -0.2089 0
M  V30 2211 H 212.619 3.06433 2.11966 0
M  V30 2212 H 212.732 4.65915 1.11624 0
M  V30 2213 H 211.096 2.45257 0.687088 0
M  V30 2214 H 211.879 3.35697 -0.718504 0
M  V30 2215 N 214.325 -0.140222 1.56975 0
M  V30 2216 C 215.257 -1.19818 1.95388 0
M  V30 2217 C 216.27 -1.38816 0.850525 0
M  V30 2218 O 217.459 -1.38267 1.12891 0
M  V30 2219 C 214.559 -2.56189 2.21857 0
M  V30 2220 C 213.732 -2.58077 3.5315 0
M  V30 2221 C 212.791 -3.76037 3.6808 0
M  V30 2222 O 211.817 -3.60598 4.40406 0
M  V30 2223 N 213.019 -4.93763 3.05251 0
M  V30 2224 H 215.784 -0.871609 2.86746 0
M  V30 2225 H 213.345 -0.32972 1.58507 0
M  V30 2226 H 215.337 -3.33623 2.2908 0
M  V30 2227 H 213.907 -2.81111 1.36731 0
M  V30 2228 H 213.127 -1.6651 3.57307 0
M  V30 2229 H 214.415 -2.56377 4.39486 0
M  V30 2230 H 213.813 -5.09209 2.46419 0
M  V30 2231 H 212.37 -5.68949 3.18026 0
M  V30 2232 N 215.803 -1.52179 -0.40978 0
M  V30 2233 C 217.028 -1.70347 -1.18308 0
M  V30 2234 C 217.453 -0.411887 -1.83535 0
M  V30 2235 O 216.811 0.630587 -1.6998 0
M  V30 2236 C 216.859 -2.83977 -2.22238 0
M  V30 2237 O 215.963 -2.495 -3.28365 0
M  V30 2238 H 215.304 -0.567103 -0.345384 0
M  V30 2239 H 217.834 -1.98879 -0.480445 0
M  V30 2240 H 217.844 -3.0887 -2.66577 0
M  V30 2241 H 216.519 -3.77685 -1.74146 0
M  V30 2242 H 215.096 -2.35277 -2.89308 0
M  V30 2243 N 217.281 0.66697 -1.42791 0
M  V30 2244 C 218.213 1.7925 -1.42836 0
M  V30 2245 C 219.226 1.59496 -0.326333 0
M  V30 2246 O 220.415 1.6847 -0.589916 0
M  V30 2247 C 217.515 3.16476 -1.21229 0
M  V30 2248 C 216.688 3.63011 -2.44013 0
M  V30 2249 C 215.747 4.78993 -2.17834 0
M  V30 2250 O 214.773 4.89137 -2.91091 0
M  V30 2251 N 215.975 5.68248 -1.18635 0
M  V30 2252 H 218.74 1.79695 -2.39854 0
M  V30 2253 H 216.301 0.850338 -1.37771 0
M  V30 2254 H 218.293 3.91734 -1.01621 0
M  V30 2255 H 216.863 3.10884 -0.32706 0
M  V30 2256 H 216.083 2.78346 -2.79137 0
M  V30 2257 H 217.371 3.90845 -3.25757 0
M  V30 2258 H 216.769 5.62712 -0.580615 0
M  V30 2259 H 215.326 6.43285 -1.05013 0
M  V30 2260 N 218.759 1.29093 0.90403 0
M  V30 2261 C 220.007 1.16583 1.65085 0
M  V30 2262 C 220.328 -0.283933 1.92922 0
M  V30 2263 O 219.598 -1.19509 1.55224 0
M  V30 2264 H 218.178 0.428467 0.611903 0
M  V30 2265 H 220.84 1.61959 1.08422 0
M  V30 2266 H 219.936 1.71266 2.6091 0
M  V30 2267 N 220.237 -1.11381 1.11499 0
M  V30 2268 C 221.483 -1.83403 0.865512 0
M  V30 2269 C 221.816 -1.84459 -0.607329 0
M  V30 2270 O 221.091 -1.29811 -1.44842 0
M  V30 2271 C 221.374 -3.30552 1.42855 0
M  V30 2272 C 221.227 -3.37886 2.96906 0
M  V30 2273 C 222.546 -4.26643 1.08 0
M  V30 2274 H 219.665 -0.665879 0.31587 0
M  V30 2275 H 222.307 -1.30601 1.37998 0
M  V30 2276 H 220.457 -3.75648 0.990985 0
M  V30 2277 H 222.129 -3.01343 3.49271 0
M  V30 2278 H 220.372 -2.78088 3.32941 0
M  V30 2279 H 221.043 -4.41458 3.31389 0
M  V30 2280 H 223.519 -3.89729 1.45775 0
M  V30 2281 H 222.395 -5.27986 1.50072 0
M  V30 2282 H 222.656 -4.42099 -0.00915037 0
M  V30 2283 N 221.715 -0.905404 -1.28997 0
M  V30 2284 C 222.961 -0.535039 -1.95615 0
M  V30 2285 C 223.294 0.917404 -1.71165 0
M  V30 2286 O 222.569 1.65123 -1.02785 0
M  V30 2287 C 222.852 -0.834918 -3.50287 0
M  V30 2288 C 222.705 -2.33948 -3.84172 0
M  V30 2289 C 224.024 -0.325318 -4.38896 0
M  V30 2290 H 221.143 -0.195861 -0.710498 0
M  V30 2291 H 223.785 -1.13313 -1.52513 0
M  V30 2292 H 221.935 -0.325904 -3.87131 0
M  V30 2293 H 223.607 -2.91847 -3.57243 0
M  V30 2294 H 221.85 -2.79789 -3.31513 0
M  V30 2295 H 222.521 -2.49987 -4.92149 0
M  V30 2296 H 224.997 -0.761256 -4.09077 0
M  V30 2297 H 223.873 -0.564295 -5.45992 0
M  V30 2298 H 224.134 0.774144 -4.35269 0
M  V30 2299 N 223.193 1.4272 -0.668489 0
M  V30 2300 C 224.103 2.34596 0.0139753 0
M  V30 2301 C 225.119 1.5474 0.795703 0
M  V30 2302 O 226.295 1.87334 0.739466 0
M  V30 2303 C 223.36 3.33202 0.957982 0
M  V30 2304 C 222.421 4.28957 0.17149 0
M  V30 2305 C 221.654 5.22853 1.07053 0
M  V30 2306 O 221.877 5.21531 2.31001 0
M  V30 2307 O 220.811 5.9952 0.534727 0
M  V30 2308 H 224.637 2.9448 -0.742661 0
M  V30 2309 H 222.222 1.43117 -0.428705 0
M  V30 2310 H 224.104 3.93796 1.50008 0
M  V30 2311 H 222.779 2.758 1.69458 0
M  V30 2312 H 221.686 3.71796 -0.414558 0
M  V30 2313 H 223.019 4.89383 -0.52586 0
M  V30 2314 N 224.671 0.411399 1.52136 0
M  V30 2315 C 225.896 -0.165538 2.06738 0
M  V30 2316 C 226.321 -1.379 1.27926 0
M  V30 2317 O 225.679 -1.78628 0.310114 0
M  V30 2318 C 225.727 -0.492124 3.57226 0
M  V30 2319 O 224.831 -1.58276 3.80818 0
M  V30 2320 H 224.172 -0.0132132 0.663869 0
M  V30 2321 H 226.702 0.585253 1.96051 0
M  V30 2322 H 226.712 -0.750104 4.01045 0
M  V30 2323 H 225.387 0.394922 4.14021 0
M  V30 2324 H 223.964 -1.31677 3.48877 0
M  V30 2325 N 226.149 -1.5696 0.141893 0
M  V30 2326 C 227.082 -2.12271 -0.837627 0
M  V30 2327 C 228.06 -1.04495 -1.24578 0
M  V30 2328 O 229.244 -1.32293 -1.34278 0
M  V30 2329 C 226.371 -2.63822 -2.12404 0
M  V30 2330 C 225.417 -3.83698 -1.86221 0
M  V30 2331 S 226.25 -5.24948 -1.05781 0
M  V30 2332 C 227.406 -5.79884 -2.35552 0
M  V30 2333 H 227.639 -2.95023 -0.367249 0
M  V30 2334 H 225.172 -1.54231 -0.0723014 0
M  V30 2335 H 227.13 -2.94175 -2.86307 0
M  V30 2336 H 225.791 -1.8121 -2.56557 0
M  V30 2337 H 224.984 -4.17995 -2.81596 0
M  V30 2338 H 224.586 -3.5408 -1.20429 0
M  V30 2339 H 226.878 -5.91005 -3.31239 0
M  V30 2340 H 227.821 -6.77544 -2.05767 0
M  V30 2341 H 228.229 -5.08095 -2.45967 0
M  V30 2342 N 227.627 0.131896 -1.57047 0
M  V30 2343 C 228.575 1.18146 -2.0036 0
M  V30 2344 C 229.569 1.43614 -0.898406 0
M  V30 2345 O 230.775 1.43729 -1.08361 0
M  V30 2346 H 227.15 0.398042 -0.638018 0
M  V30 2347 H 229.121 0.789564 -2.87765 0
M  V30 2348 C 227.87 2.50341 -2.41298 0
M  V30 2349 H 227.193 2.31578 -3.25902 0
M  V30 2350 H 228.633 3.22371 -2.75414 0
M  V30 2351 C 227.092 3.11984 -1.27153 0
M  V30 2352 O 227.622 3.97484 -0.580459 0
M  V30 2353 N 225.828 2.71662 -1.03189 0
M  V30 2354 H 225.375 2.02231 -1.59564 0
M  V30 2355 H 225.333 3.13238 -0.270077 0
M  V30 2356 N 229.106 1.52395 0.401703 0
M  V30 2357 C 230.053 1.76268 1.48991 0
M  V30 2358 C 231.023 0.605386 1.54675 0
M  V30 2359 O 232.208 0.843742 1.7113 0
M  V30 2360 C 229.348 1.92592 2.86361 0
M  V30 2361 C 228.461 3.20259 2.89928 0
M  V30 2362 C 227.596 3.26972 4.18644 0
M  V30 2363 C 226.635 4.48812 4.16214 0
M  V30 2364 N 225.772 4.52877 5.36514 0
M  V30 2365 H 230.612 2.6914 1.27935 0
M  V30 2366 H 228.149 1.33355 0.620871 0
M  V30 2367 H 230.107 2.0004 3.66115 0
M  V30 2368 H 228.737 1.03093 3.05895 0
M  V30 2369 H 227.789 3.21945 2.02621 0
M  V30 2370 H 229.101 4.10056 2.83999 0
M  V30 2371 H 228.255 3.33533 5.06794 0
M  V30 2372 H 226.994 2.35126 4.27278 0
M  V30 2373 H 225.999 4.4239 3.26453 0
M  V30 2374 H 227.224 5.41961 4.09213 0
M  V30 2375 H 225.17 3.63917 5.45802 0
M  V30 2376 H 225.087 5.36529 5.32609 0
M  V30 2377 H 226.355 4.63676 6.26597 0
M  V30 2378 N 230.584 -0.659388 1.43143 0
M  V30 2379 C 231.494 -1.80167 1.50256 0
M  V30 2380 C 232.51 -1.69571 0.390106 0
M  V30 2381 O 233.686 -1.90849 0.643319 0
M  V30 2382 C 230.751 -3.16409 1.41725 0
M  V30 2383 C 229.812 -3.38848 2.63591 0
M  V30 2384 C 229.045 -4.68591 2.55458 0
M  V30 2385 O 229.268 -5.47532 1.59891 0
M  V30 2386 O 228.202 -4.92614 3.45854 0
M  V30 2387 H 232.028 -1.77121 2.46702 0
M  V30 2388 H 229.613 -0.817092 1.25076 0
M  V30 2389 H 231.495 -3.9768 1.39387 0
M  V30 2390 H 230.17 -3.20059 0.484118 0
M  V30 2391 H 229.077 -2.57366 2.71502 0
M  V30 2392 H 230.41 -3.4004 3.55856 0
M  V30 2393 N 232.062 -1.29571 -0.897171 0
M  V30 2394 C 232.992 -1.17473 -2.01798 0
M  V30 2395 C 233.973 -0.068323 -1.69963 0
M  V30 2396 O 235.158 -0.248239 -1.92607 0
M  V30 2397 C 232.288 -0.853099 -3.36659 0
M  V30 2398 C 231.242 -1.9161 -3.82713 0
M  V30 2399 C 230.568 -1.44773 -5.14728 0
M  V30 2400 C 231.868 -3.32535 -4.02763 0
M  V30 2401 H 233.562 -2.11237 -2.12177 0
M  V30 2402 H 231.108 -1.01699 -1.01948 0
M  V30 2403 H 233.061 -0.755165 -4.14578 0
M  V30 2404 H 231.785 0.120236 -3.26379 0
M  V30 2405 H 230.444 -2.00346 -3.07013 0
M  V30 2406 H 230.092 -0.462995 -5.00865 0
M  V30 2407 H 229.792 -2.15865 -5.46513 0
M  V30 2408 H 231.316 -1.36334 -5.95185 0
M  V30 2409 H 232.73 -3.26626 -4.71156 0
M  V30 2410 H 231.127 -4.01607 -4.45905 0
M  V30 2411 H 232.197 -3.75326 -3.07016 0
M  V30 2412 N 233.54 1.10788 -1.12088 0
M  V30 2413 C 234.487 2.17025 -0.785407 0
M  V30 2414 C 235.457 1.64265 0.246191 0
M  V30 2415 O 236.642 1.90412 0.121584 0
M  V30 2416 C 233.782 3.44249 -0.242177 0
M  V30 2417 C 232.895 4.1098 -1.33115 0
M  V30 2418 C 232.03 5.25911 -0.747741 0
M  V30 2419 C 231.069 5.84538 -1.81609 0
M  V30 2420 N 230.206 6.90853 -1.25167 0
M  V30 2421 H 235.046 2.45066 -1.69548 0
M  V30 2422 H 232.583 1.20297 -0.846582 0
M  V30 2423 H 234.541 4.17101 0.0908026 0
M  V30 2424 H 233.171 3.16571 0.631072 0
M  V30 2425 H 232.223 3.36133 -1.78097 0
M  V30 2426 H 233.535 4.50601 -2.13917 0
M  V30 2427 H 232.689 6.056 -0.365216 0
M  V30 2428 H 231.428 4.87614 0.0915188 0
M  V30 2429 H 230.433 5.03522 -2.20785 0
M  V30 2430 H 231.658 6.249 -2.6585 0
M  V30 2431 H 229.604 6.54562 -0.434174 0
M  V30 2432 H 229.521 7.29166 -1.99633 0
M  V30 2433 H 230.789 7.7433 -0.896259 0
M  V30 2434 N 235.018 0.912232 1.28515 0
M  V30 2435 C 235.965 0.397954 2.27343 0
M  V30 2436 C 236.935 -0.526766 1.57526 0
M  V30 2437 O 238.12 -0.449292 1.85435 0
M  V30 2438 C 235.26 -0.357263 3.43246 0
M  V30 2439 C 234.373 0.599788 4.27816 0
M  V30 2440 C 233.508 -0.173725 5.30916 0
M  V30 2441 C 232.547 0.777039 6.07148 0
M  V30 2442 N 231.684 0.0371398 7.0209 0
M  V30 2443 H 236.524 1.24577 2.70711 0
M  V30 2444 H 234.061 0.625612 1.33133 0
M  V30 2445 H 236.019 -0.8113 4.09236 0
M  V30 2446 H 234.649 -1.16943 3.00872 0
M  V30 2447 H 233.701 1.17235 3.61884 0
M  V30 2448 H 235.013 1.32704 4.80823 0
M  V30 2449 H 234.167 -0.688394 6.02782 0
M  V30 2450 H 232.906 -0.934041 4.78672 0
M  V30 2451 H 231.911 1.3031 5.34134 0
M  V30 2452 H 233.136 1.53689 6.61481 0
M  V30 2453 H 231.082 -0.705213 6.52198 0
M  V30 2454 H 230.999 0.704249 7.52713 0
M  V30 2455 H 232.267 -0.457383 7.78157 0
M  V30 2456 N 236.496 -1.42363 0.676048 0
M  V30 2457 C 237.745 -2.00745 0.196037 0
M  V30 2458 C 238.058 -1.54083 -1.20489 0
M  V30 2459 O 239.264 -2.04891 -1.78134 0
M  V30 2460 C 237.72 -3.58651 0.299616 0
M  V30 2461 C 237.328 -4.143 1.70468 0
M  V30 2462 C 239.072 -4.24326 -0.121619 0
M  V30 2463 C 236.979 -5.64574 1.76096 0
M  V30 2464 H 235.909 -0.750787 0.0695301 0
M  V30 2465 H 238.56 -1.63072 0.841412 0
M  V30 2466 H 236.942 -3.93833 -0.413673 0
M  V30 2467 H 238.116 -3.90575 2.44515 0
M  V30 2468 H 236.431 -3.61081 2.07387 0
M  V30 2469 H 239.028 -5.34607 -0.0997362 0
M  V30 2470 H 239.371 -3.99897 -1.15708 0
M  V30 2471 H 239.904 -3.94108 0.540706 0
M  V30 2472 H 236.643 -5.93804 2.77628 0
M  V30 2473 H 236.163 -5.90286 1.06406 0
M  V30 2474 H 237.842 -6.29013 1.51496 0
M  V30 2475 N 237.974 -0.419461 -1.51915 0
M  V30 2476 C 239.223 0.154346 -2.01109 0
M  V30 2477 C 239.536 1.45338 -1.30905 0
M  V30 2478 O 240.742 2.10906 -1.7097 0
M  V30 2479 C 239.198 0.325615 -3.58424 0
M  V30 2480 C 238.806 -0.961934 -4.37551 0
M  V30 2481 C 240.55 0.854155 -4.15818 0
M  V30 2482 C 238.457 -0.757287 -5.86531 0
M  V30 2483 H 237.387 0.0614563 -0.751491 0
M  V30 2484 H 240.038 -0.54649 -1.75173 0
M  V30 2485 H 238.42 1.08903 -3.80731 0
M  V30 2486 H 239.594 -1.7323 -4.26999 0
M  V30 2487 H 237.909 -1.41766 -3.91524 0
M  V30 2488 H 240.506 1.02346 -5.24814 0
M  V30 2489 H 240.849 1.83172 -3.73837 0
M  V30 2490 H 241.382 0.149528 -3.97519 0
M  V30 2491 H 238.121 -1.70671 -6.32892 0
M  V30 2492 H 237.641 -0.0264061 -5.99794 0
M  V30 2493 H 239.32 -0.403482 -6.45741 0
M  V30 2494 N 239.452 1.56882 -0.150215 0
M  V30 2495 C 240.7 1.9584 0.499105 0
M  V30 2496 C 241.021 1.03623 1.65188 0
M  V30 2497 O 240.291 0.0984084 1.95653 0
M  V30 2498 H 238.871 0.723119 0.187373 0
M  V30 2499 H 241.533 1.9358 -0.226466 0
M  V30 2500 H 240.629 2.99638 0.873122 0
M  V30 2501 N 240.93 -0.123565 1.57115 0
M  V30 2502 C 241.862 -1.17739 1.96648 0
M  V30 2503 C 242.875 -1.37906 0.865201 0
M  V30 2504 O 244.064 -1.37062 1.14351 0
M  V30 2505 C 241.164 -2.53821 2.24562 0
M  V30 2506 C 240.337 -2.54317 3.55867 0
M  V30 2507 C 239.396 -3.72112 3.72047 0
M  V30 2508 O 238.422 -3.55907 4.44206 0
M  V30 2509 N 239.624 -4.90498 3.10471 0
M  V30 2510 H 242.389 -0.841147 2.87654 0
M  V30 2511 H 239.95 -0.31289 1.58848 0
M  V30 2512 H 241.942 -3.31175 2.32606 0
M  V30 2513 H 240.512 -2.79645 1.39705 0
M  V30 2514 H 239.732 -1.62711 3.59053 0
M  V30 2515 H 241.02 -2.51701 4.42181 0
M  V30 2516 H 240.418 -5.06567 2.51806 0
M  V30 2517 H 238.975 -5.65544 3.24043 0
M  V30 2518 N 242.408 -1.52605 -0.393616 0
M  V30 2519 C 243.654 -1.67672 -1.14079 0
M  V30 2520 C 243.987 -0.413121 -1.89755 0
M  V30 2521 O 243.262 0.588952 -1.85369 0
M  V30 2522 C 243.545 -2.9088 -2.12276 0
M  V30 2523 C 243.398 -4.27329 -1.40394 0
M  V30 2524 C 244.717 -3.09628 -3.12759 0
M  V30 2525 H 241.836 -0.610168 -0.413356 0
M  V30 2526 H 244.478 -1.85193 -0.424696 0
M  V30 2527 H 242.628 -2.76073 -2.73342 0
M  V30 2528 H 244.3 -4.53894 -0.82327 0
M  V30 2529 H 242.543 -4.2802 -0.705801 0
M  V30 2530 H 243.214 -5.09615 -2.12123 0
M  V30 2531 H 245.69 -3.23436 -2.61779 0
M  V30 2532 H 244.566 -3.97322 -3.78717 0
M  V30 2533 H 244.827 -2.23637 -3.81365 0
M  V30 2534 N 243.887 0.651787 -1.4349 0
M  V30 2535 C 245.303 0.96762 -1.26922 0
M  V30 2536 C 245.503 2.00602 -0.189982 0
M  V30 2537 O 244.559 2.48793 0.431107 0
M  V30 2538 C 245.872 1.45052 -2.63401 0
M  V30 2539 C 247.42 1.5671 -2.70945 0
M  V30 2540 C 247.895 2.0839 -4.07845 0
M  V30 2541 N 249.386 2.1569 -4.09917 0
M  V30 2542 C 250.121 2.56804 -5.12679 0
M  V30 2543 N 249.617 2.97203 -6.25813 0
M  V30 2544 N 251.41 2.56756 -5.00033 0
M  V30 2545 H 243.561 -0.0353158 -2.12371 0
M  V30 2546 H 245.824 0.0467858 -0.946845 0
M  V30 2547 H 245.53 0.761926 -3.43348 0
M  V30 2548 H 245.404 2.42529 -2.88894 0
M  V30 2549 H 247.791 2.2467 -1.9133 0
M  V30 2550 H 247.872 0.57662 -2.49216 0
M  V30 2551 H 247.516 1.41031 -4.87927 0
M  V30 2552 H 247.446 3.08271 -4.26938 0
M  V30 2553 H 249.937 1.87237 -3.28254 0
M  V30 2554 H 250.25 3.27328 -7.00055 0
M  V30 2555 H 248.595 2.95004 -6.29283 0
M  V30 2556 H 251.786 2.24572 -4.10713 0
M  V30 2557 H 251.959 2.88475 -5.80247 0
M  V30 2558 N 245.365 1.30045 0.890287 0
M  V30 2559 C 246.642 1.09227 1.62262 0
M  V30 2560 C 247.022 -0.360305 2.08002 0
M  V30 2561 O 246.37 -1.35084 1.84295 0
M  V30 2562 C 246.58 2.08835 2.79623 0
M  V30 2563 C 247.928 2.40266 3.50082 0
M  V30 2564 O 248.952 2.07104 2.89804 0
M  V30 2565 O 247.811 2.96967 4.58773 0
M  V30 2566 H 244.905 0.419132 0.712922 0
M  V30 2567 H 247.451 1.41451 0.937529 0
M  V30 2568 H 246.223 3.06633 2.43089 0
M  V30 2569 H 245.846 1.77397 3.55832 0
M  V30 2570 N 246.843 -1.10192 1.12674 0
M  V30 2571 C 247.775 -2.16418 0.754701 0
M  V30 2572 C 248.788 -1.61309 -0.21986 0
M  V30 2573 O 249.977 -1.785 -0.000826841 0
M  V30 2574 C 247.077 -3.38762 0.096698 0
M  V30 2575 C 246.25 -4.23307 1.10136 0
M  V30 2576 C 245.309 -5.24092 0.470513 0
M  V30 2577 O 244.335 -5.57906 1.12824 0
M  V30 2578 N 245.537 -5.75491 -0.760948 0
M  V30 2579 H 248.302 -2.48943 1.66875 0
M  V30 2580 H 245.863 -1.25834 1.01869 0
M  V30 2581 H 247.855 -4.03291 -0.337384 0
M  V30 2582 H 246.425 -3.04192 -0.720153 0
M  V30 2583 H 245.645 -3.55036 1.71299 0
M  V30 2584 H 246.933 -4.76624 1.78064 0
M  V30 2585 H 246.331 -5.50222 -1.31424 0
M  V30 2586 H 244.888 -6.41792 -1.13781 0
M  V30 2587 N 248.321 -0.919034 -1.28029 0
M  V30 2588 C 249.284 -0.416182 -2.2539 0
M  V30 2589 C 250.284 0.460438 -1.54067 0
M  V30 2590 O 251.474 0.262744 -1.72207 0
M  V30 2591 C 248.606 0.402707 -3.38513 0
M  V30 2592 H 249.799 -1.27629 -2.71387 0
M  V30 2593 H 247.352 -0.698919 -1.39803 0
M  V30 2594 H 248.087 1.282 -2.97885 0
M  V30 2595 H 247.872 -0.225698 -3.9145 0
M  V30 2596 H 249.362 0.745191 -4.10897 0
M  V30 2597 N 249.799 1.42003 -0.683588 0
M  V30 2598 C 250.709 2.34597 -0.0109075 0
M  V30 2599 C 251.725 1.55576 0.779245 0
M  V30 2600 O 252.901 1.88107 0.719555 0
M  V30 2601 C 249.966 3.34199 0.922588 0
M  V30 2602 C 249.027 4.29115 0.125984 0
M  V30 2603 C 248.26 5.23959 1.01502 0
M  V30 2604 O 248.483 5.23952 2.25456 0
M  V30 2605 O 247.417 6.00053 0.47111 0
M  V30 2606 H 251.243 2.93675 -0.773853 0
M  V30 2607 H 248.828 1.42654 -0.443861 0
M  V30 2608 H 250.71 3.95365 1.45823 0
M  V30 2609 H 249.385 2.77582 1.66523 0
M  V30 2610 H 248.292 3.71335 -0.453969 0
M  V30 2611 H 249.625 4.88798 -0.577736 0
M  V30 2612 N 251.277 0.427512 1.51691 0
M  V30 2613 C 252.227 -0.406604 2.24345 0
M  V30 2614 C 253.211 -0.998276 1.26187 0
M  V30 2615 O 254.403 -0.918045 1.51331 0
M  V30 2616 C 251.532 -1.51266 3.08177 0
M  V30 2617 C 250.618 -0.930868 4.13758 0
M  V30 2618 N 251.009 -0.0773552 5.05741 0
M  V30 2619 C 249.307 -1.19948 4.29568 0
M  V30 2620 C 250.008 0.248344 5.8117 0
M  V30 2621 N 248.984 -0.365535 5.4237 0
M  V30 2622 H 252.786 0.251581 2.92821 0
M  V30 2623 H 250.3 0.239003 1.60632 0
M  V30 2624 H 252.297 -2.123 3.58796 0
M  V30 2625 H 250.957 -2.17328 2.41244 0
M  V30 2626 H 251.968 0.288351 5.17097 0
M  V30 2627 H 248.645 -1.85832 3.73862 0
M  V30 2628 H 250.035 0.942286 6.6526 0
M  V30 2629 N 252.755 -1.56801 0.158532 0
M  V30 2630 C 253.685 -2.20347 -0.772609 0
M  V30 2631 C 254.666 -1.15518 -1.24859 0
M  V30 2632 O 255.851 -1.43902 -1.30406 0
M  V30 2633 C 252.981 -2.83417 -2.00729 0
M  V30 2634 C 251.935 -3.94174 -1.66765 0
M  V30 2635 C 251.261 -4.44233 -2.97592 0
M  V30 2636 C 252.561 -5.14392 -0.905447 0
M  V30 2637 H 254.255 -2.98413 -0.242959 0
M  V30 2638 H 251.801 -1.43537 -0.115419 0
M  V30 2639 H 253.754 -3.26543 -2.6636 0
M  V30 2640 H 252.478 -2.02701 -2.56086 0
M  V30 2641 H 251.137 -3.51684 -1.03508 0
M  V30 2642 H 250.785 -3.60325 -3.50963 0
M  V30 2643 H 250.485 -5.18945 -2.75626 0
M  V30 2644 H 252.009 -4.90037 -3.64274 0
M  V30 2645 H 253.423 -5.5429 -1.46408 0
M  V30 2646 H 251.82 -5.9494 -0.7853 0
M  V30 2647 H 252.89 -4.84795 0.100668 0
M  V30 2648 N 254.233 0.115231 -1.57178 0
M  V30 2649 C 255.18 1.14115 -2.00615 0
M  V30 2650 C 256.15 1.40939 -0.878941 0
M  V30 2651 O 257.335 1.52741 -1.14345 0
M  V30 2652 C 254.475 2.46156 -2.4187 0
M  V30 2653 C 253.588 2.26236 -3.68024 0
M  V30 2654 C 252.723 3.51534 -3.98243 0
M  V30 2655 C 251.762 3.26787 -5.17568 0
M  V30 2656 N 250.899 4.44298 -5.43639 0
M  V30 2657 H 255.739 0.763743 -2.88047 0
M  V30 2658 H 253.276 0.365615 -1.42484 0
M  V30 2659 H 255.234 3.23189 -2.63827 0
M  V30 2660 H 253.864 2.81783 -1.57475 0
M  V30 2661 H 252.916 1.40102 -3.5366 0
M  V30 2662 H 254.228 2.03929 -4.55208 0
M  V30 2663 H 253.382 4.36984 -4.20868 0
M  V30 2664 H 252.121 3.76876 -3.09541 0
M  V30 2665 H 251.126 2.39729 -4.94783 0
M  V30 2666 H 252.351 3.02812 -6.0785 0
M  V30 2667 H 250.297 4.69754 -4.57895 0
M  V30 2668 H 250.214 4.25109 -6.25154 0
M  V30 2669 H 251.482 5.3087 -5.70786 0
M  V30 2670 N 255.711 1.52812 0.385517 0
M  V30 2671 C 256.939 1.71907 1.15133 0
M  V30 2672 C 257.354 0.439004 1.83625 0
M  V30 2673 O 256.711 -0.586765 1.7281 0
M  V30 2674 C 256.762 2.87099 2.19673 0
M  V30 2675 O 256.483 4.10151 1.53973 0
M  V30 2676 C 257.984 3.17902 3.08955 0
M  V30 2677 H 255.204 0.575479 0.345057 0
M  V30 2678 H 257.748 1.99476 0.45052 0
M  V30 2679 H 255.903 2.61982 2.85384 0
M  V30 2680 H 256.317 4.74514 2.23465 0
M  V30 2681 H 257.791 4.01959 3.7833 0
M  V30 2682 H 258.268 2.3243 3.72657 0
M  V30 2683 H 258.874 3.44871 2.48885 0
M  V30 2684 N 257.189 -0.644168 1.43834 0
M  V30 2685 C 258.152 -1.73857 1.49353 0
M  V30 2686 C 259.152 -1.56315 0.377112 0
M  V30 2687 O 260.342 -1.62048 0.639226 0
M  V30 2688 C 257.474 -3.12819 1.35488 0
M  V30 2689 H 258.667 -1.70342 2.46827 0
M  V30 2690 H 256.22 -0.856652 1.30733 0
M  V30 2691 H 256.955 -3.2194 0.390569 0
M  V30 2692 H 256.74 -3.26958 2.16428 0
M  V30 2693 H 258.23 -3.92606 1.42302 0
M  V30 2694 N 258.668 -1.30515 -0.883378 0
M  V30 2695 C 259.914 -1.19607 -1.63774 0
M  V30 2696 C 260.247 0.248314 -1.92606 0
M  V30 2697 O 259.522 1.17742 -1.54813 0
M  V30 2698 C 259.805 -2.02669 -2.97653 0
M  V30 2699 C 259.658 -3.55335 -2.75784 0
M  V30 2700 C 260.977 -1.86573 -3.98596 0
M  V30 2701 H 258.096 -0.435856 -0.594305 0
M  V30 2702 H 260.738 -1.60165 -1.02212 0
M  V30 2703 H 258.888 -1.68208 -3.50197 0
M  V30 2704 H 260.56 -3.99863 -2.30016 0
M  V30 2705 H 258.803 -3.79438 -2.1026 0
M  V30 2706 H 259.474 -4.08745 -3.70988 0
M  V30 2707 H 261.95 -2.16703 -3.55217 0
M  V30 2708 H 260.826 -2.47014 -4.90179 0
M  V30 2709 H 261.087 -0.825321 -4.34328 0
M  V30 2710 N 260.146 1.09593 -1.13257 0
M  V30 2711 C 261.078 2.16015 -0.766167 0
M  V30 2712 C 262.091 1.61423 0.211303 0
M  V30 2713 O 263.28 1.78498 -0.00863946 0
M  V30 2714 C 260.38 3.38706 -0.114662 0
M  V30 2715 C 259.553 4.22717 -1.12379 0
M  V30 2716 C 258.612 5.23835 -0.498301 0
M  V30 2717 O 257.638 5.573 -1.15781 0
M  V30 2718 N 258.84 5.75886 0.730417 0
M  V30 2719 H 261.605 2.48055 -1.68193 0
M  V30 2720 H 259.166 1.25292 -1.02535 0
M  V30 2721 H 261.158 4.03464 0.315991 0
M  V30 2722 H 259.728 3.04569 0.704011 0
M  V30 2723 H 258.948 3.54122 -1.73179 0
M  V30 2724 H 260.236 4.75673 -1.80589 0
M  V30 2725 H 259.634 5.50911 1.28504 0
M  V30 2726 H 258.191 6.42387 1.10376 0
M  V30 2727 N 261.624 0.925811 1.2754 0
M  V30 2728 C 262.557 0.367836 2.25216 0
M  V30 2729 C 263.535 -0.534738 1.53556 0
M  V30 2730 O 264.719 -0.475672 1.824 0
M  V30 2731 C 261.846 -0.47298 3.35381 0
M  V30 2732 C 260.892 0.365898 4.24928 0
M  V30 2733 S 261.725 1.78025 5.05042 0
M  V30 2734 C 262.881 0.947068 6.18693 0
M  V30 2735 H 263.114 1.19568 2.72196 0
M  V30 2736 H 260.647 0.727867 1.36167 0
M  V30 2737 H 262.605 -0.952242 3.99303 0
M  V30 2738 H 261.266 -1.27533 2.87044 0
M  V30 2739 H 260.459 -0.277582 5.03235 0
M  V30 2740 H 260.061 0.779261 3.65792 0
M  V30 2741 H 262.353 0.182201 6.77255 0
M  V30 2742 H 263.296 1.70309 6.87314 0
M  V30 2743 H 263.704 0.489913 5.6237 0
M  V30 2744 N 263.102 -1.41638 0.69111 0
M  V30 2745 C 264.065 -2.29178 0.0319786 0
M  V30 2746 C 265.065 -1.44153 -0.712496 0
M  V30 2747 O 266.255 -1.65354 -0.548053 0
M  V30 2748 C 263.387 -3.26952 -0.965161 0
M  V30 2749 H 264.58 -2.88959 0.802681 0
M  V30 2750 H 262.133 -1.4955 0.454356 0
M  V30 2751 H 262.868 -2.72142 -1.76378 0
M  V30 2752 H 262.653 -3.89685 -0.434522 0
M  V30 2753 H 264.143 -3.92561 -1.42428 0
M  V30 2754 N 264.58 -0.43555 -1.51462 0
M  V30 2755 C 265.826 0.131709 -2.02372 0
M  V30 2756 C 266.159 1.42516 -1.3192 0
M  V30 2757 O 265.434 1.89606 -0.433573 0
M  V30 2758 C 265.717 0.352301 -3.58373 0
M  V30 2759 C 265.57 -0.959676 -4.39443 0
M  V30 2760 C 266.889 1.12286 -4.25535 0
M  V30 2761 H 264.008 0.0463936 -0.735538 0
M  V30 2762 H 266.65 -0.574197 -1.81116 0
M  V30 2763 H 264.8 0.9536 -3.76615 0
M  V30 2764 H 266.472 -1.59482 -4.32855 0
M  V30 2765 H 264.715 -1.56468 -4.04599 0
M  V30 2766 H 265.386 -0.759394 -5.46752 0
M  V30 2767 H 267.862 0.613545 -4.11552 0
M  V30 2768 H 266.738 1.24598 -5.34571 0
M  V30 2769 H 266.999 2.15048 -3.86273 0
M  V30 2770 N 266.058 1.56714 -0.166846 0
M  V30 2771 C 267.305 1.96747 0.479252 0
M  V30 2772 C 267.633 1.05263 1.63554 0
M  V30 2773 O 266.888 0.0858098 1.95512 0
M  V30 2774 C 267.187 3.42889 1.00806 0
M  V30 2775 C 266.853 4.50889 -0.0318574 0
M  V30 2776 C 265.515 4.8015 -0.317675 0
M  V30 2777 C 267.867 5.15949 -0.737956 0
M  V30 2778 C 265.195 5.71772 -1.31506 0
M  V30 2779 C 267.547 6.08647 -1.72429 0
M  V30 2780 C 266.211 6.36277 -2.0176 0
M  V30 2781 H 265.481 0.719949 0.175371 0
M  V30 2782 H 268.128 1.89756 -0.257864 0
M  V30 2783 H 266.433 3.4681 1.82291 0
M  V30 2784 H 268.13 3.71203 1.51689 0
M  V30 2785 H 264.72 4.28128 0.201088 0
M  V30 2786 H 268.904 4.93458 -0.530351 0
M  V30 2787 H 264.16 5.91465 -1.54853 0
M  V30 2788 H 268.334 6.58129 -2.27682 0
M  V30 2789 H 265.961 7.07075 -2.79194 0
M  V30 2790 N 267.536 -0.106894 1.57237 0
M  V30 2791 C 268.785 -0.811163 1.8467 0
M  V30 2792 C 269.098 -1.80469 0.754342 0
M  V30 2793 O 270.304 -2.55601 0.915439 0
M  V30 2794 C 268.76 -1.49337 3.27454 0
M  V30 2795 C 268.368 -0.540217 4.44731 0
M  V30 2796 C 270.112 -2.18206 3.64124 0
M  V30 2797 C 268.019 -1.22634 5.78545 0
M  V30 2798 H 266.949 -0.306679 0.688813 0
M  V30 2799 H 269.6 -0.0639887 1.83388 0
M  V30 2800 H 267.982 -2.2876 3.23241 0
M  V30 2801 H 269.156 0.221659 4.60267 0
M  V30 2802 H 267.471 0.042146 4.16379 0
M  V30 2803 H 270.068 -2.70253 4.61376 0
M  V30 2804 H 270.411 -2.96562 2.92158 0
M  V30 2805 H 270.944 -1.45658 3.70174 0
M  V30 2806 H 267.683 -0.483832 6.53712 0
M  V30 2807 H 267.203 -1.95993 5.66874 0
M  V30 2808 H 268.882 -1.75615 6.2271 0
M  V30 2809 N 269.014 -1.53014 -0.377408 0
M  V30 2810 C 269.964 -1.74996 -1.46152 0
M  V30 2811 C 270.948 -0.604236 -1.49123 0
M  V30 2812 O 272.14 -0.862489 -1.54564 0
M  V30 2813 C 269.269 -1.93267 -2.8373 0
M  V30 2814 C 268.355 -3.13807 -2.85283 0
M  V30 2815 N 268.746 -4.35941 -2.56493 0
M  V30 2816 C 267.044 -3.14288 -3.16448 0
M  V30 2817 C 267.745 -5.17615 -2.65424 0
M  V30 2818 N 266.721 -4.53559 -2.99641 0
M  V30 2819 H 270.523 -2.67044 -1.22738 0
M  V30 2820 H 268.037 -1.51479 -0.585479 0
M  V30 2821 H 270.034 -2.0714 -3.61799 0
M  V30 2822 H 268.694 -1.0244 -3.08117 0
M  V30 2823 H 269.705 -4.63876 -2.30302 0
M  V30 2824 H 266.382 -2.33312 -3.46225 0
M  V30 2825 H 267.772 -6.25006 -2.46612 0
M  V30 2826 N 270.492 0.636531 -1.44174 0
M  V30 2827 C 271.44 1.76995 -1.50915 0
M  V30 2828 C 272.434 1.65053 -0.381295 0
M  V30 2829 O 273.64 1.71197 -0.55601 0
M  V30 2830 H 270.015 0.584247 -0.473455 0
M  V30 2831 H 271.986 1.68432 -2.4632 0
M  V30 2832 C 270.735 3.15314 -1.46534 0
M  V30 2833 H 270.058 3.25149 -2.32633 0
M  V30 2834 H 271.498 3.9453 -1.55312 0
M  V30 2835 C 269.957 3.3639 -0.185305 0
M  V30 2836 O 270.487 3.94699 0.746688 0
M  V30 2837 N 268.693 2.9046 -0.0901606 0
M  V30 2838 H 268.24 2.43193 -0.849416 0
M  V30 2839 H 268.198 3.04937 0.765553 0
M  V30 2840 N 271.97 1.30982 0.876444 0
M  V30 2841 C 273.217 1.20296 1.62896 0
M  V30 2842 C 273.545 -0.240395 1.93009 0
M  V30 2843 O 272.8 -1.18733 1.55567 0
M  V30 2844 C 273.099 1.98572 2.9716 0
M  V30 2845 C 272.765 3.48125 2.86566 0
M  V30 2846 C 271.427 3.88905 2.83383 0
M  V30 2847 C 273.779 4.43322 2.74071 0
M  V30 2848 C 271.107 5.2316 2.65556 0
M  V30 2849 C 273.459 5.77695 2.57781 0
M  V30 2850 C 272.123 6.17704 2.52979 0
M  V30 2851 H 271.393 0.440193 0.59608 0
M  V30 2852 H 274.04 1.62177 1.01837 0
M  V30 2853 H 272.345 1.49352 3.62217 0
M  V30 2854 H 274.042 1.8769 3.54364 0
M  V30 2855 H 270.632 3.15723 2.89856 0
M  V30 2856 H 274.816 4.12752 2.75589 0
M  V30 2857 H 270.072 5.53241 2.60259 0
M  V30 2858 H 274.246 6.51091 2.47089 0
M  V30 2859 H 271.873 7.21678 2.38924 0
M  V30 2860 N 273.449 -1.08991 1.13837 0
M  V30 2861 C 274.396 -2.15748 0.819835 0
M  V30 2862 C 275.366 -1.64636 -0.220026 0
M  V30 2863 O 276.551 -1.90582 -0.0912757 0
M  V30 2864 C 273.691 -3.4382 0.296913 0
M  V30 2865 C 272.804 -4.0881 1.39636 0
M  V30 2866 C 271.939 -5.24655 0.831314 0
M  V30 2867 C 270.978 -5.81575 1.90886 0
M  V30 2868 N 270.115 -6.88774 1.36142 0
M  V30 2869 H 274.955 -2.42338 1.73426 0
M  V30 2870 H 272.492 -1.18935 0.865613 0
M  V30 2871 H 274.45 -4.17193 -0.0244339 0
M  V30 2872 H 273.08 -3.17535 -0.580628 0
M  V30 2873 H 272.132 -3.33258 1.83422 0
M  V30 2874 H 273.444 -4.47141 2.21058 0
M  V30 2875 H 272.598 -6.04942 0.461515 0
M  V30 2876 H 271.337 -4.87698 -0.013932 0
M  V30 2877 H 270.342 -4.99946 2.28767 0
M  V30 2878 H 271.567 -6.20592 2.75758 0
M  V30 2879 H 269.513 -6.53788 0.538254 0
M  V30 2880 H 269.43 -7.25898 2.11208 0
M  V30 2881 H 270.698 -7.72806 1.01933 0
M  V30 2882 N 274.927 -0.932562 -1.27047 0
M  V30 2883 C 276.343 -0.633544 -1.46487 0
M  V30 2884 C 276.543 0.815746 -1.84249 0
M  V30 2885 O 275.599 1.59319 -1.95892 0
M  V30 2886 C 276.912 -1.58758 -2.55375 0
M  V30 2887 C 278.46 -1.59634 -2.69232 0
M  V30 2888 C 278.935 -2.53747 -3.81283 0
M  V30 2889 N 280.426 -2.51982 -3.88664 0
M  V30 2890 C 281.161 -3.21491 -4.74796 0
M  V30 2891 N 280.657 -4.00395 -5.65381 0
M  V30 2892 N 282.45 -3.10485 -4.68568 0
M  V30 2893 H 274.601 -1.86946 -1.00821 0
M  V30 2894 H 276.864 -0.802897 -0.504044 0
M  V30 2895 H 276.57 -2.62172 -2.34432 0
M  V30 2896 H 276.444 -1.33301 -3.52861 0
M  V30 2897 H 278.831 -0.569488 -2.89553 0
M  V30 2898 H 278.912 -1.89142 -1.72218 0
M  V30 2899 H 278.556 -3.56545 -3.61715 0
M  V30 2900 H 278.486 -2.21532 -4.77735 0
M  V30 2901 H 280.977 -1.94681 -3.23895 0
M  V30 2902 H 281.29 -4.50406 -6.27976 0
M  V30 2903 H 279.635 -4.04498 -5.65161 0
M  V30 2904 H 282.826 -2.48331 -3.96799 0
M  V30 2905 H 282.999 -3.64925 -5.35475 0
M  V30 2906 N 276.405 1.4127 -0.698611 0
M  V30 2907 C 277.352 2.30773 -0.0352094 0
M  V30 2908 C 278.322 1.47273 0.768111 0
M  V30 2909 O 279.507 1.76053 0.735524 0
M  V30 2910 C 276.647 3.33346 0.893 0
M  V30 2911 C 275.76 4.31924 0.0809695 0
M  V30 2912 C 274.895 5.21566 1.0071 0
M  V30 2913 C 273.934 6.11811 0.188155 0
M  V30 2914 N 273.071 6.93926 1.06825 0
M  V30 2915 H 277.911 2.86943 -0.804207 0
M  V30 2916 H 275.448 1.4132 -0.408294 0
M  V30 2917 H 277.406 3.91368 1.44523 0
M  V30 2918 H 276.036 2.78719 1.62836 0
M  V30 2919 H 275.088 3.75825 -0.588224 0
M  V30 2920 H 276.4 4.95716 -0.553801 0
M  V30 2921 H 275.554 5.84437 1.62845 0
M  V30 2922 H 274.293 4.58008 1.67572 0
M  V30 2923 H 273.298 5.47986 -0.446254 0
M  V30 2924 H 274.523 6.77425 -0.476716 0
M  V30 2925 H 272.469 6.32973 1.72283 0
M  V30 2926 H 272.386 7.54416 0.489123 0
M  V30 2927 H 273.654 7.61262 1.67632 0
M  V30 2928 N 277.883 0.443576 1.51229 0
M  V30 2929 C 279.131 -0.120557 2.0174 0
M  V30 2930 C 279.452 -1.42665 1.32935 0
M  V30 2931 O 278.722 -1.9028 0.465866 0
M  V30 2932 H 277.302 -0.0475426 0.745486 0
M  V30 2933 H 279.964 0.587711 1.85828 0
M  V30 2934 H 279.06 -0.291972 3.10731 0
M  V30 2935 N 279.361 -1.56624 0.175154 0
M  V30 2936 C 280.609 -1.96609 -0.467885 0
M  V30 2937 C 280.93 -1.06238 -1.63519 0
M  V30 2938 O 280.2 -0.129523 -1.95471 0
M  V30 2939 H 278.78 -0.726008 -0.175845 0
M  V30 2940 H 281.442 -1.93195 0.257234 0
M  V30 2941 H 280.538 -3.00989 -0.825342 0
M  V30 2942 N 280.839 0.0985539 -1.57292 0
M  V30 2943 C 282.088 0.801358 -1.85098 0
M  V30 2944 C 282.401 1.80066 -0.763902 0
M  V30 2945 O 283.607 2.55112 -0.928981 0
M  V30 2946 C 282.063 1.47599 -3.28242 0
M  V30 2947 C 281.671 0.516624 -4.45011 0
M  V30 2948 C 283.415 2.16272 -3.65276 0
M  V30 2949 C 281.322 1.19564 -5.79188 0
M  V30 2950 H 280.252 0.303022 -0.69043 0
M  V30 2951 H 282.903 0.0542623 -1.8342 0
M  V30 2952 H 281.285 2.27042 -3.2445 0
M  V30 2953 H 282.459 -0.246065 -4.60143 0
M  V30 2954 H 280.774 -0.064227 -4.1635 0
M  V30 2955 H 283.371 2.67802 -4.62803 0
M  V30 2956 H 283.714 2.95009 -2.93727 0
M  V30 2957 H 284.247 1.43693 -3.70941 0
M  V30 2958 H 280.986 0.449157 -6.53959 0
M  V30 2959 H 280.506 1.92984 -5.67906 0
M  V30 2960 H 282.185 1.7231 -6.23633 0
M  V30 2961 N 282.317 1.53212 0.369288 0
M  V30 2962 C 283.565 1.68881 1.11012 0
M  V30 2963 C 283.886 0.441285 1.89941 0
M  V30 2964 O 283.156 -0.544623 1.88177 0
M  V30 2965 H 281.736 0.622569 0.412816 0
M  V30 2966 H 284.398 1.90391 0.416802 0
M  V30 2967 H 283.494 2.54822 1.80201 0
M  V30 2968 N 283.795 -0.628877 1.44509 0
M  V30 2969 C 285.043 -1.38565 1.4712 0
M  V30 2970 C 285.364 -1.94712 0.105899 0
M  V30 2971 O 284.634 -1.75912 -0.862079 0
M  V30 2972 H 283.214 -0.514333 0.541729 0
M  V30 2973 H 285.876 -0.740018 1.80305 0
M  V30 2974 H 284.972 -2.21583 2.19789 0
M  V30 2975 N 285.273 -1.31445 -0.869486 0
M  V30 2976 C 286.503 -1.23942 -1.65294 0
M  V30 2977 C 286.911 0.197561 -1.88166 0
M  V30 2978 O 286.254 1.14019 -1.44033 0
M  V30 2979 C 286.316 -1.91385 -3.04322 0
M  V30 2980 C 285.98 -3.40726 -3.04557 0
M  V30 2981 C 286.977 -4.36464 -2.82481 0
M  V30 2982 C 284.662 -3.82425 -3.25663 0
M  V30 2983 C 286.656 -5.71876 -2.8149 0
M  V30 2984 C 284.343 -5.1795 -3.243 0
M  V30 2985 C 285.341 -6.12486 -3.02241 0
M  V30 2986 O 285.029 -7.45534 -3.00724 0
M  V30 2987 H 284.761 -0.429459 -0.522054 0
M  V30 2988 H 287.315 -1.73873 -1.0935 0
M  V30 2989 H 285.545 -1.36004 -3.61994 0
M  V30 2990 H 287.234 -1.77791 -3.64891 0
M  V30 2991 H 288 -4.05576 -2.65956 0
M  V30 2992 H 283.879 -3.09274 -3.41863 0
M  V30 2993 H 287.423 -6.45638 -2.64191 0
M  V30 2994 H 283.32 -5.48473 -3.40365 0
M  V30 2995 H 284.088 -7.54713 -3.16782 0
M  V30 2996 N 286.751 1.08385 -1.14413 0
M  V30 2997 C 287.976 1.85057 -0.936413 0
M  V30 2998 C 288.401 1.81055 0.509971 0
M  V30 2999 O 287.759 1.1958 1.36273 0
M  V30 3000 C 287.807 3.30505 -1.44217 0
M  V30 3001 O 286.911 4.07491 -0.634409 0
M  V30 3002 H 286.252 0.573425 -0.334784 0
M  V30 3003 H 288.782 1.36799 -1.52142 0
M  V30 3004 H 288.792 3.81348 -1.45043 0
M  V30 3005 H 287.467 3.32734 -2.49522 0
M  V30 3006 H 286.044 3.66368 -0.694902 0
M  V30 3007 N 288.23 0.939286 1.26551 0
M  V30 3008 C 289.193 0.451987 2.24699 0
M  V30 3009 C 290.193 -0.435869 1.5478 0
M  V30 3010 O 291.383 -0.235314 1.72603 0
M  V30 3011 C 288.515 -0.348801 3.39111 0
M  V30 3012 H 289.708 1.3193 2.69322 0
M  V30 3013 H 287.261 0.721072 1.38673 0
M  V30 3014 H 287.996 -1.23444 2.99887 0
M  V30 3015 H 287.781 0.287945 3.91041 0
M  V30 3016 H 289.271 -0.679726 4.12031 0
M  V30 3017 N 289.708 -1.40897 0.706093 0
M  V30 3018 C 290.956 -2.00657 0.241054 0
M  V30 3019 C 291.277 -1.56241 -1.16678 0
M  V30 3020 O 290.547 -0.79765 -1.78926 0
M  V30 3021 H 289.127 -0.742018 0.0861308 0
M  V30 3022 H 291.789 -1.72372 0.909604 0
M  V30 3023 H 290.885 -3.10958 0.266705 0
M  V30 3024 N 291.186 -0.45159 -1.50991 0
M  V30 3025 C 292.096 0.358431 -2.31846 0
M  V30 3026 C 293.112 1.01438 -1.41373 0
M  V30 3027 O 294.288 1.00663 -1.74439 0
M  V30 3028 C 291.353 1.43704 -3.15515 0
M  V30 3029 C 290.414 0.799742 -4.21785 0
M  V30 3030 C 289.647 1.82696 -5.01456 0
M  V30 3031 O 289.87 3.05105 -4.81941 0
M  V30 3032 O 288.804 1.40958 -5.85162 0
M  V30 3033 H 292.63 -0.302032 -3.02194 0
M  V30 3034 H 290.215 -0.213825 -1.47862 0
M  V30 3035 H 292.097 2.06227 -3.67489 0
M  V30 3036 H 290.772 2.08133 -2.47916 0
M  V30 3037 H 289.679 0.136084 -3.73852 0
M  V30 3038 H 291.012 0.198718 -4.91799 0
M  V30 3039 N 292.664 1.56529 -0.183458 0
M  V30 3040 C 294.08 1.58664 0.172554 0
M  V30 3041 C 294.28 1.19925 1.61926 0
M  V30 3042 O 293.336 0.916534 2.35278 0
M  V30 3043 C 294.649 3.00463 -0.119262 0
M  V30 3044 C 296.197 3.12945 -0.0584396 0
M  V30 3045 C 296.672 4.56857 -0.323408 0
M  V30 3046 N 298.163 4.62403 -0.271612 0
M  V30 3047 C 298.898 5.71626 -0.450639 0
M  V30 3048 N 298.394 6.89362 -0.689384 0
M  V30 3049 N 300.187 5.60775 -0.385701 0
M  V30 3050 H 292.338 1.79994 -1.12765 0
M  V30 3051 H 294.601 0.834808 -0.449222 0
M  V30 3052 H 294.307 3.33326 -1.12192 0
M  V30 3053 H 294.181 3.72659 0.583544 0
M  V30 3054 H 296.568 2.79902 0.934805 0
M  V30 3055 H 296.649 2.4316 -0.794144 0
M  V30 3056 H 296.293 4.9061 -1.31392 0
M  V30 3057 H 296.223 5.24816 0.43305 0
M  V30 3058 H 298.714 3.77785 -0.0932256 0
M  V30 3059 H 299.027 7.68489 -0.815113 0
M  V30 3060 H 297.372 6.91196 -0.726142 0
M  V30 3061 H 300.563 4.67674 -0.199687 0
M  V30 3062 H 300.736 6.4584 -0.528646 0
M  V30 3063 N 294.142 -0.090211 1.57342 0
M  V30 3064 C 295.391 -0.791531 1.8552 0
M  V30 3065 C 295.704 -1.79659 0.773441 0
M  V30 3066 O 296.91 -2.54616 0.942497 0
M  V30 3067 C 295.366 -1.45856 3.2902 0
M  V30 3068 C 294.974 -0.493017 4.45279 0
M  V30 3069 C 296.718 -2.14332 3.66418 0
M  V30 3070 C 294.625 -1.16491 5.79814 0
M  V30 3071 H 293.555 -0.299356 0.692027 0
M  V30 3072 H 296.206 -0.0445343 1.83446 0
M  V30 3073 H 294.588 -2.25318 3.2565 0
M  V30 3074 H 295.762 0.270464 4.60006 0
M  V30 3075 H 294.077 0.0863061 4.16311 0
M  V30 3076 H 296.674 -2.65344 4.64216 0
M  V30 3077 H 297.017 -2.93447 2.95287 0
M  V30 3078 H 297.55 -1.41724 3.71698 0
M  V30 3079 H 294.289 -0.41447 6.54188 0
M  V30 3080 H 293.809 -1.8997 5.68921 0
M  V30 3081 H 295.488 -1.69001 6.24538 0
M  V30 3082 N 295.62 -1.53406 -0.361157 0
M  V30 3083 C 296.866 -1.70054 -1.10496 0
M  V30 3084 C 297.199 -0.453278 -1.88836 0
M  V30 3085 O 296.474 0.5495 -1.86576 0
M  V30 3086 C 296.757 -2.95317 -2.06058 0
M  V30 3087 C 296.61 -4.3021 -1.31298 0
M  V30 3088 C 297.929 -3.16193 -3.06121 0
M  V30 3089 H 295.048 -0.618799 -0.400321 0
M  V30 3090 H 297.69 -1.86052 -0.385318 0
M  V30 3091 H 295.84 -2.81809 -2.67425 0
M  V30 3092 H 297.512 -4.55538 -0.726807 0
M  V30 3093 H 295.755 -4.29421 -0.614853 0
M  V30 3094 H 296.426 -5.14 -2.01265 0
M  V30 3095 H 298.902 -3.28916 -2.5486 0
M  V30 3096 H 297.778 -4.05266 -3.70204 0
M  V30 3097 H 298.039 -2.31676 -3.76535 0
M  V30 3098 N 297.098 0.621204 -1.44841 0
M  V30 3099 C 298.375 1.38 -1.38619 0
M  V30 3100 C 298.755 2.11041 -0.0498935 0
M  V30 3101 O 298.103 2.06992 0.967816 0
M  V30 3102 C 298.313 2.33817 -2.59096 0
M  V30 3103 C 299.661 2.96844 -3.03593 0
M  V30 3104 O 300.685 2.44141 -2.59371 0
M  V30 3105 O 299.544 3.92476 -3.80296 0
M  V30 3106 H 296.638 0.61811 -0.549426 0
M  V30 3107 H 299.184 0.645429 -1.56947 0
M  V30 3108 H 297.956 1.79012 -3.47952 0
M  V30 3109 H 297.579 3.14676 -2.43032 0
M  V30 3110 N 298.576 1.31904 0.862503 0
M  V30 3111 C 299.825 1.21373 1.61094 0
M  V30 3112 C 300.138 -0.22504 1.94301 0
M  V30 3113 O 301.344 -0.452121 2.67709 0
M  V30 3114 C 299.8 2.12525 2.9045 0
M  V30 3115 C 299.408 3.61441 2.64697 0
M  V30 3116 C 301.152 2.10813 3.68454 0
M  V30 3117 C 299.059 4.44578 3.90006 0
M  V30 3118 H 297.989 0.450705 0.604468 0
M  V30 3119 H 300.64 1.56811 0.953027 0
M  V30 3120 H 299.022 1.69994 3.57656 0
M  V30 3121 H 300.196 4.12264 2.05851 0
M  V30 3122 H 298.511 3.65205 2.00036 0
M  V30 3123 H 301.108 2.70167 4.61426 0
M  V30 3124 H 301.451 1.09713 4.01583 0
M  V30 3125 H 301.984 2.51583 3.08141 0
M  V30 3126 H 298.723 5.46461 3.62023 0
M  V30 3127 H 298.243 3.98508 4.48276 0
M  V30 3128 H 299.922 4.57176 4.5782 0
M  V30 3129 N 300.054 -1.07777 1.14986 0
M  V30 3130 C 301.303 -1.79669 0.916617 0
M  V30 3131 C 301.616 -1.87474 -0.557917 0
M  V30 3132 O 302.822 -2.55845 -0.908617 0
M  V30 3133 C 301.278 -3.22848 1.59051 0
M  V30 3134 C 300.886 -3.23257 3.10176 0
M  V30 3135 C 302.63 -3.99379 1.43864 0
M  V30 3136 C 300.537 -4.61063 3.70372 0
M  V30 3137 H 299.467 -0.673349 0.33929 0
M  V30 3138 H 302.118 -1.21003 1.37951 0
M  V30 3139 H 300.5 -3.8168 1.0553 0
M  V30 3140 H 301.674 -2.74095 3.70417 0
M  V30 3141 H 299.989 -2.60222 3.25074 0
M  V30 3142 H 302.586 -5.0122 1.86232 0
M  V30 3143 H 302.929 -4.14511 0.385564 0
M  V30 3144 H 303.462 -3.47032 1.94457 0
M  V30 3145 H 300.201 -4.51135 4.7556 0
M  V30 3146 H 299.721 -5.1048 3.14913 0
M  V30 3147 H 301.4 -5.30034 3.71043 0
M  V30 3148 N 301.532 -0.945985 -1.26051 0
M  V30 3149 C 302.495 -0.463897 -2.24456 0
M  V30 3150 C 303.495 0.427655 -1.55009 0
M  V30 3151 O 304.685 0.226157 -1.72726 0
M  V30 3152 C 301.817 0.330812 -3.39291 0
M  V30 3153 H 303.01 -1.33357 -2.68619 0
M  V30 3154 H 300.563 -0.728416 -1.38289 0
M  V30 3155 H 301.298 1.21852 -3.00537 0
M  V30 3156 H 301.083 -0.308679 -3.90883 0
M  V30 3157 H 302.573 0.657865 -4.12386 0
M  V30 3158 N 303.011 1.40521 -0.713556 0
M  V30 3159 C 304.239 2.05237 -0.261775 0
M  V30 3160 C 304.654 1.53755 1.09567 0
M  V30 3161 O 304.011 0.693268 1.6882 0
M  V30 3162 C 304.062 3.60763 -0.230706 0
M  V30 3163 O 303.783 4.10345 -1.53455 0
M  V30 3164 C 305.284 4.42651 0.239874 0
M  V30 3165 H 302.504 0.660533 -0.118057 0
M  V30 3166 H 305.048 1.79967 -0.971192 0
M  V30 3167 H 303.203 3.8501 0.429661 0
M  V30 3168 H 303.617 5.04526 -1.43366 0
M  V30 3169 H 305.091 5.51599 0.210468 0
M  V30 3170 H 305.568 4.20082 1.28171 0
M  V30 3171 H 306.174 4.23507 -0.390142 0
M  V30 3172 N 304.489 0.459591 1.5075 0
M  V30 3173 C 305.766 -0.160371 1.94941 0
M  V30 3174 C 306.146 -1.58048 1.39943 0
M  V30 3175 O 305.494 -2.206 0.595629 0
M  V30 3176 C 305.704 -0.115432 3.48809 0
M  V30 3177 C 307.052 -0.310026 4.23467 0
M  V30 3178 O 308.076 -0.192543 3.55679 0
M  V30 3179 O 306.935 -0.546031 5.43765 0
M  V30 3180 H 304.029 -0.117925 0.818549 0
M  V30 3181 H 306.575 0.519169 1.61563 0
M  V30 3182 H 305.347 0.87652 3.81357 0
M  V30 3183 H 304.97 -0.836928 3.88692 0
M  V30 3184 N 305.967 -1.56429 0.191757 0
M  V30 3185 C 307.216 -1.9666 -0.448088 0
M  V30 3186 C 307.529 -1.08136 -1.62991 0
M  V30 3187 O 308.735 -1.38135 -2.33733 0
M  V30 3188 C 307.191 -3.49753 -0.848585 0
M  V30 3189 C 306.799 -4.46935 0.308764 0
M  V30 3190 C 308.543 -3.9876 -1.4557 0
M  V30 3191 C 306.45 -5.91293 -0.112506 0
M  V30 3192 H 305.38 -0.734312 -0.171179 0
M  V30 3193 H 308.031 -1.81301 0.283242 0
M  V30 3194 H 306.413 -3.60604 -1.63649 0
M  V30 3195 H 307.587 -4.47813 1.08627 0
M  V30 3196 H 305.902 -4.08102 0.827158 0
M  V30 3197 H 308.499 -5.04086 -1.78328 0
M  V30 3198 H 308.842 -3.42875 -2.36099 0
M  V30 3199 H 309.375 -3.9101 -0.731836 0
M  V30 3200 H 306.114 -6.51097 0.758514 0
M  V30 3201 H 305.634 -5.93676 -0.854941 0
M  V30 3202 H 307.313 -6.44663 -0.549448 0
M  V30 3203 N 307.445 0.0818655 -1.57387 0
M  V30 3204 C 308.377 1.12484 -1.997 0
M  V30 3205 C 309.39 1.35564 -0.90146 0
M  V30 3206 O 310.579 1.33982 -1.17945 0
M  V30 3207 C 307.679 2.47778 -2.31213 0
M  V30 3208 C 306.852 2.44793 -3.62485 0
M  V30 3209 C 305.911 3.62117 -3.81782 0
M  V30 3210 O 304.937 3.44005 -4.53486 0
M  V30 3211 N 306.139 4.82094 -3.23367 0
M  V30 3212 H 308.904 0.764585 -2.89783 0
M  V30 3213 H 306.465 0.270664 -1.59621 0
M  V30 3214 H 308.457 3.24891 -2.41304 0
M  V30 3215 H 307.027 2.75843 -1.4707 0
M  V30 3216 H 306.247 1.53134 -3.6324 0
M  V30 3217 H 307.535 2.39889 -4.48699 0
M  V30 3218 H 306.933 4.99713 -2.65148 0
M  V30 3219 H 305.49 5.56753 -3.38923 0
M  V30 3220 N 308.923 1.53595 0.353017 0
M  V30 3221 C 310.151 1.74311 1.1146 0
M  V30 3222 C 310.566 0.477854 1.82653 0
M  V30 3223 O 309.923 -0.549977 1.74016 0
M  V30 3224 C 309.974 2.91694 2.13534 0
M  V30 3225 O 309.695 4.13325 1.45238 0
M  V30 3226 C 311.196 3.24384 3.02142 0
M  V30 3227 H 308.416 0.582669 0.332773 0
M  V30 3228 H 310.96 2.00386 0.408107 0
M  V30 3229 H 309.115 2.67977 2.79763 0
M  V30 3230 H 309.529 4.79148 2.13349 0
M  V30 3231 H 311.003 4.09893 3.69718 0
M  V30 3232 H 311.48 2.40282 3.67643 0
M  V30 3233 H 312.086 3.50073 2.41514 0
M  V30 3234 N 310.401 -0.613514 1.45168 0
M  V30 3235 C 311.348 -1.72456 1.53387 0
M  V30 3236 C 312.318 -1.6169 0.380191 0
M  V30 3237 O 313.503 -1.81356 0.592836 0
M  V30 3238 C 310.643 -3.10753 1.50088 0
M  V30 3239 C 309.756 -3.32368 2.75963 0
M  V30 3240 C 308.891 -4.60737 2.64376 0
M  V30 3241 C 307.93 -4.7559 3.85332 0
M  V30 3242 N 307.067 -5.95253 3.72315 0
M  V30 3243 H 311.907 -1.64768 2.48305 0
M  V30 3244 H 309.444 -0.803503 1.23216 0
M  V30 3245 H 311.402 -3.90758 1.46164 0
M  V30 3246 H 310.032 -3.17413 0.587243 0
M  V30 3247 H 309.084 -2.4618 2.89999 0
M  V30 3248 H 310.396 -3.39218 3.65695 0
M  V30 3249 H 309.55 -5.48928 2.58385 0
M  V30 3250 H 308.289 -4.56275 1.72233 0
M  V30 3251 H 307.294 -3.85824 3.91688 0
M  V30 3252 H 308.519 -4.81854 4.78533 0
M  V30 3253 H 306.465 -5.91847 2.82937 0
M  V30 3254 H 306.382 -6.03236 4.55677 0
M  V30 3255 H 307.65 -6.85958 3.70246 0
M  V30 3256 N 311.879 -1.3236 -0.855495 0
M  V30 3257 C 312.789 -1.23221 -1.99634 0
M  V30 3258 C 313.805 -0.145983 -1.73387 0
M  V30 3259 O 314.981 -0.366502 -1.98037 0
M  V30 3260 C 312.046 -0.954782 -3.33294 0
M  V30 3261 C 311.107 -2.12937 -3.72769 0
M  V30 3262 C 310.34 -1.86508 -5.00051 0
M  V30 3263 O 310.563 -0.807231 -5.64659 0
M  V30 3264 O 309.497 -2.72591 -5.36636 0
M  V30 3265 H 313.323 -2.19126 -2.1028 0
M  V30 3266 H 310.908 -1.12241 -0.986018 0
M  V30 3267 H 312.79 -0.816519 -4.13414 0
M  V30 3268 H 311.465 -0.0258854 -3.2369 0
M  V30 3269 H 310.372 -2.3231 -2.93228 0
M  V30 3270 H 311.705 -3.04102 -3.87018 0
M  V30 3271 N 313.357 1.07166 -1.15556 0
M  V30 3272 C 314.287 2.16403 -0.877046 0
M  V30 3273 C 315.268 1.69217 0.173111 0
M  V30 3274 O 316.453 1.94181 0.027084 0
M  V30 3275 C 313.583 3.45349 -0.367632 0
M  V30 3276 C 312.537 4.05995 -1.35468 0
M  V30 3277 C 311.863 5.30045 -0.704038 0
M  V30 3278 C 313.163 4.45804 -2.72132 0
M  V30 3279 H 314.857 2.39959 -1.79053 0
M  V30 3280 H 312.403 1.15325 -0.862331 0
M  V30 3281 H 314.356 4.21095 -0.160317 0
M  V30 3282 H 313.08 3.21385 0.581326 0
M  V30 3283 H 311.739 3.32296 -1.54839 0
M  V30 3284 H 311.387 5.02373 0.251128 0
M  V30 3285 H 311.087 5.71579 -1.36277 0
M  V30 3286 H 312.611 6.08495 -0.50654 0
M  V30 3287 H 314.025 5.12671 -2.56595 0
M  V30 3288 H 312.422 4.98296 -3.34397 0
M  V30 3289 H 313.492 3.57083 -3.28054 0
M  V30 3290 N 314.835 0.952656 1.25548 0
M  V30 3291 C 315.767 0.428609 2.25157 0
M  V30 3292 C 316.78 -0.454428 1.56329 0
M  V30 3293 O 317.969 -0.263023 1.76552 0
M  V30 3294 C 315.069 -0.401972 3.36508 0
M  V30 3295 C 314.242 0.467601 4.34893 0
M  V30 3296 C 313.301 -0.30445 5.25319 0
M  V30 3297 O 312.327 0.296473 5.68427 0
M  V30 3298 N 313.529 -1.59805 5.5807 0
M  V30 3299 H 316.294 1.28497 2.70756 0
M  V30 3300 H 313.855 0.822798 1.39433 0
M  V30 3301 H 315.847 -0.926134 3.9396 0
M  V30 3302 H 314.417 -1.15918 2.90313 0
M  V30 3303 H 313.637 1.17288 3.76347 0
M  V30 3304 H 314.925 1.06119 4.97611 0
M  V30 3305 H 314.323 -2.10823 5.24948 0
M  V30 3306 H 312.88 -2.06822 6.18116 0
M  V30 3307 N 316.313 -1.40141 0.720998 0
M  V30 3308 C 317.26 -2.30688 0.071919 0
M  V30 3309 C 318.23 -1.48476 -0.744584 0
M  V30 3310 O 319.415 -1.77201 -0.707423 0
M  V30 3311 C 316.555 -3.34724 -0.839855 0
M  V30 3312 C 315.668 -4.31998 -0.0122438 0
M  V30 3313 C 314.803 -5.23102 -0.923995 0
M  V30 3314 C 313.842 -6.12033 -0.0907969 0
M  V30 3315 N 312.979 -6.95537 -0.957718 0
M  V30 3316 H 317.819 -2.85628 0.849755 0
M  V30 3317 H 315.356 -1.40653 0.430726 0
M  V30 3318 H 317.314 -3.93618 -1.38279 0
M  V30 3319 H 315.944 -2.81274 -1.58381 0
M  V30 3320 H 314.996 -3.74841 0.64794 0
M  V30 3321 H 316.308 -4.94772 0.632595 0
M  V30 3322 H 315.462 -5.86953 -1.53527 0
M  V30 3323 H 314.201 -4.60615 -1.60264 0
M  V30 3324 H 313.206 -5.47207 0.533377 0
M  V30 3325 H 314.431 -6.76581 0.584428 0
M  V30 3326 H 312.377 -6.35633 -1.62192 0
M  V30 3327 H 312.294 -7.55099 -0.36904 0
M  V30 3328 H 313.562 -7.63832 -1.555 0
M  V30 3329 N 317.792 -0.46758 -1.50504 0
M  V30 3330 C 318.724 0.364655 -2.26281 0
M  V30 3331 C 319.737 0.960151 -1.31472 0
M  V30 3332 O 320.926 0.849153 -1.57008 0
M  V30 3333 C 318.026 1.52509 -3.02645 0
M  V30 3334 C 317.199 1.04302 -4.24782 0
M  V30 3335 C 316.258 2.07709 -4.8347 0
M  V30 3336 O 315.284 1.65913 -5.44483 0
M  V30 3337 N 316.486 3.40485 -4.70159 0
M  V30 3338 H 319.251 -0.28495 -2.98342 0
M  V30 3339 H 316.812 -0.298163 -1.59131 0
M  V30 3340 H 318.804 2.21371 -3.38787 0
M  V30 3341 H 317.374 2.07945 -2.33404 0
M  V30 3342 H 316.594 0.180393 -3.93787 0
M  V30 3343 H 317.882 0.698798 -5.03978 0
M  V30 3344 H 317.28 3.77155 -4.21629 0
M  V30 3345 H 315.837 4.05156 -5.1058 0
M  V30 3346 N 319.27 1.56325 -0.20005 0
M  V30 3347 C 320.519 1.96895 0.437652 0
M  V30 3348 C 320.832 1.08999 1.62415 0
M  V30 3349 O 322.038 1.39372 2.32997 0
M  V30 3350 C 320.494 3.50198 0.830025 0
M  V30 3351 C 320.102 4.46765 -0.332461 0
M  V30 3352 C 321.846 3.99526 1.43453 0
M  V30 3353 C 319.753 5.91344 0.0811468 0
M  V30 3354 H 318.683 0.735209 0.167282 0
M  V30 3355 H 321.334 1.81148 -0.292853 0
M  V30 3356 H 319.716 3.61467 1.61734 0
M  V30 3357 H 320.89 4.47231 -1.11 0
M  V30 3358 H 319.205 4.07657 -0.848789 0
M  V30 3359 H 321.802 5.05025 1.75652 0
M  V30 3360 H 322.145 3.44122 2.34277 0
M  V30 3361 H 322.678 3.91393 0.71109 0
M  V30 3362 H 319.417 6.50685 -0.793033 0
M  V30 3363 H 318.937 5.94121 0.823445 0
M  V30 3364 H 320.616 6.44945 0.515252 0
M  V30 3365 N 320.748 -0.0735177 1.57428 0
M  V30 3366 C 321.976 -0.785969 1.9139 0
M  V30 3367 C 322.391 -1.71207 0.795847 0
M  V30 3368 O 321.748 -1.81033 -0.230915 0
M  V30 3369 C 321.799 -1.58107 3.25091 0
M  V30 3370 O 321.52 -0.6922 4.32597 0
M  V30 3371 C 323.021 -2.39467 3.73055 0
M  V30 3372 H 320.241 -0.223558 0.632663 0
M  V30 3373 H 322.785 -0.044302 2.04452 0
M  V30 3374 H 320.94 -2.27503 3.13562 0
M  V30 3375 H 321.354 -1.24504 5.09508 0
M  V30 3376 H 322.828 -2.90716 4.69242 0
M  V30 3377 H 323.305 -3.18913 3.01979 0
M  V30 3378 H 323.911 -1.7523 3.87523 0
M  V30 3379 N 322.226 -1.5378 -0.344866 0
M  V30 3380 C 323.173 -1.81676 -1.42346 0
M  V30 3381 C 324.143 -0.662376 -1.52321 0
M  V30 3382 O 325.328 -0.906675 -1.67881 0
M  V30 3383 C 322.468 -2.03087 -2.79015 0
M  V30 3384 C 321.581 -3.30799 -2.77842 0
M  V30 3385 C 320.716 -3.42285 -4.0622 0
M  V30 3386 C 319.755 -4.6395 -3.9927 0
M  V30 3387 N 318.892 -4.72477 -5.19336 0
M  V30 3388 H 323.732 -2.73703 -1.17858 0
M  V30 3389 H 321.269 -1.35568 -0.570949 0
M  V30 3390 H 323.227 -2.1349 -3.58438 0
M  V30 3391 H 321.857 -1.14375 -3.01858 0
M  V30 3392 H 320.909 -3.29244 -1.90533 0
M  V30 3393 H 322.221 -4.20314 -2.68584 0
M  V30 3394 H 321.375 -3.52113 -4.94066 0
M  V30 3395 H 320.114 -2.50823 -4.18258 0
M  V30 3396 H 319.119 -4.54201 -3.09809 0
M  V30 3397 H 320.344 -5.56775 -3.88817 0
M  V30 3398 H 318.29 -3.83924 -5.3192 0
M  V30 3399 H 318.207 -5.55927 -5.12329 0
M  V30 3400 H 319.475 -4.86613 -6.08957 0
M  V30 3401 N 323.704 0.605807 -1.45491 0
M  V30 3402 C 324.953 1.36086 -1.48874 0
M  V30 3403 C 325.266 1.95131 -0.135333 0
M  V30 3404 O 326.472 2.7146 -0.0468144 0
M  V30 3405 C 324.928 2.46518 -2.62215 0
M  V30 3406 C 324.536 1.93877 -4.03876 0
M  V30 3407 C 326.28 3.23512 -2.74846 0
M  V30 3408 C 324.187 3.01801 -5.08596 0
M  V30 3409 H 323.117 0.511497 -0.553974 0
M  V30 3410 H 325.768 0.649089 -1.71636 0
M  V30 3411 H 324.15 3.20388 -2.32739 0
M  V30 3412 H 325.324 1.26704 -4.43038 0
M  V30 3413 H 323.639 1.29622 -3.95711 0
M  V30 3414 H 326.236 4.04013 -3.50253 0
M  V30 3415 H 326.579 3.74631 -1.81542 0
M  V30 3416 H 327.112 2.56742 -3.03856 0
M  V30 3417 H 323.851 2.55597 -6.03614 0
M  V30 3418 H 323.371 3.67535 -4.74002 0
M  V30 3419 H 325.05 3.66152 -5.33424 0
M  V30 3420 N 325.182 1.32811 0.848464 0
M  V30 3421 C 326.114 1.18095 1.96433 0
M  V30 3422 C 327.127 0.114354 1.62398 0
M  V30 3423 O 328.316 0.363892 1.74751 0
M  V30 3424 C 325.416 0.786798 3.2964 0
M  V30 3425 C 324.589 1.943 3.91875 0
M  V30 3426 C 323.648 1.53138 5.03423 0
M  V30 3427 O 322.674 2.24432 5.23086 0
M  V30 3428 N 323.876 0.430915 5.78898 0
M  V30 3429 H 326.641 2.14218 2.09597 0
M  V30 3430 H 324.202 1.2543 1.02367 0
M  V30 3431 H 326.194 0.493715 4.01677 0
M  V30 3432 H 324.764 -0.0834541 3.12489 0
M  V30 3433 H 323.984 2.40224 3.12547 0
M  V30 3434 H 325.272 2.71689 4.30189 0
M  V30 3435 H 324.67 -0.162333 5.65467 0
M  V30 3436 H 323.227 0.197466 6.51501 0
M  V30 3437 N 326.66 -1.06551 1.16123 0
M  V30 3438 C 327.608 -2.16063 0.861371 0
M  V30 3439 C 328.602 -1.6856 -0.168517 0
M  V30 3440 O 329.808 -1.79986 -0.0227579 0
M  V30 3441 H 326.183 -0.705278 0.260934 0
M  V30 3442 H 328.154 -2.38567 1.79244 0
M  V30 3443 C 326.903 -3.45661 0.376018 0
M  V30 3444 H 326.226 -3.82604 1.15992 0
M  V30 3445 H 327.666 -4.23504 0.204951 0
M  V30 3446 C 326.125 -3.24546 -0.903954 0
M  V30 3447 O 326.655 -3.49865 -1.97377 0
M  V30 3448 N 324.861 -2.77992 -0.846679 0
M  V30 3449 H 324.408 -2.57589 0.0241017 0
M  V30 3450 H 324.366 -2.64244 -1.70359 0
M  V30 3451 N 328.138 -0.959301 -1.25041 0
M  V30 3452 C 329.385 -0.616611 -1.92884 0
M  V30 3453 C 329.713 0.847036 -1.75087 0
M  V30 3454 O 328.968 1.62374 -1.09239 0
M  V30 3455 C 329.267 -0.927136 -3.45165 0
M  V30 3456 C 328.933 -2.37757 -3.83122 0
M  V30 3457 C 327.595 -2.77402 -3.93194 0
M  V30 3458 C 329.947 -3.31929 -4.01836 0
M  V30 3459 C 327.275 -4.10277 -4.19392 0
M  V30 3460 C 329.627 -4.64423 -4.29528 0
M  V30 3461 C 328.291 -5.03857 -4.37818 0
M  V30 3462 H 327.561 -0.225634 -0.705812 0
M  V30 3463 H 330.208 -1.20921 -1.48493 0
M  V30 3464 H 328.513 -0.252195 -3.90987 0
M  V30 3465 H 330.21 -0.6405 -3.95852 0
M  V30 3466 H 326.8 -2.06013 -3.75841 0
M  V30 3467 H 330.984 -3.02488 -3.93465 0
M  V30 3468 H 326.24 -4.40467 -4.24027 0
M  V30 3469 H 330.414 -5.37369 -4.42953 0
M  V30 3470 H 328.041 -6.06843 -4.57871 0
M  V30 3471 N 329.616 1.39756 -0.72842 0
M  V30 3472 C 331.032 1.5442 -0.403308 0
M  V30 3473 C 331.232 1.69694 1.08656 0
M  V30 3474 O 330.288 1.69373 1.87267 0
M  V30 3475 C 331.601 2.76555 -1.18058 0
M  V30 3476 C 333.149 2.90384 -1.16815 0
M  V30 3477 C 333.624 4.15449 -1.92785 0
M  V30 3478 N 335.115 4.22475 -1.89918 0
M  V30 3479 C 335.85 5.1818 -2.45514 0
M  V30 3480 N 335.346 6.19714 -3.09719 0
M  V30 3481 N 337.139 5.1035 -2.35584 0
M  V30 3482 H 329.29 1.28089 -1.69431 0
M  V30 3483 H 331.553 0.620327 -0.716867 0
M  V30 3484 H 331.259 2.7159 -2.23455 0
M  V30 3485 H 331.133 3.69033 -0.780662 0
M  V30 3486 H 333.52 2.94846 -0.12234 0
M  V30 3487 H 333.601 1.98988 -1.6074 0
M  V30 3488 H 333.245 4.11749 -2.97364 0
M  V30 3489 H 333.175 5.05877 -1.46272 0
M  V30 3490 H 335.666 3.49743 -1.43138 0
M  V30 3491 H 335.979 6.8919 -3.49625 0
M  V30 3492 H 334.324 6.20121 -3.13807 0
M  V30 3493 H 337.515 4.2996 -1.85072 0
M  V30 3494 H 337.688 5.84761 -2.79211 0
M  V30 3495 N 331.094 0.475555 1.50254 0
M  V30 3496 C 332.34 -0.0780073 2.0265 0
M  V30 3497 C 332.673 -1.38968 1.35652 0
M  V30 3498 O 331.948 -1.8839 0.483691 0
M  V30 3499 C 332.231 -0.257161 3.59181 0
M  V30 3500 C 332.084 1.07585 4.36744 0
M  V30 3501 C 333.403 -1.00965 4.28362 0
M  V30 3502 H 330.522 -0.0268758 0.73651 0
M  V30 3503 H 333.164 0.622015 1.7953 0
M  V30 3504 H 331.314 -0.853412 3.79011 0
M  V30 3505 H 332.986 1.70902 4.28474 0
M  V30 3506 H 331.229 1.6714 4.00308 0
M  V30 3507 H 331.9 0.904088 5.44546 0
M  V30 3508 H 334.376 -0.504214 4.13034 0
M  V30 3509 H 333.252 -1.10381 5.37687 0
M  V30 3510 H 333.513 -2.04731 3.91839 0
M  V30 3511 N 332.573 -1.56217 0.208337 0
M  V30 3512 C 333.803 -2.02043 -0.431523 0
M  V30 3513 C 334.211 -1.08755 -1.54819 0
M  V30 3514 O 333.554 -0.0870009 -1.83494 0
M  V30 3515 C 333.616 -3.44239 -1.03633 0
M  V30 3516 C 333.28 -4.56965 -0.0567502 0
M  V30 3517 C 334.277 -5.14624 0.738773 0
M  V30 3518 C 331.962 -5.02266 0.0581736 0
M  V30 3519 C 333.956 -6.16045 1.63605 0
M  V30 3520 C 331.643 -6.03528 0.959001 0
M  V30 3521 C 332.641 -6.60293 1.7465 0
M  V30 3522 O 332.329 -7.59586 2.6322 0
M  V30 3523 H 332.061 -0.666772 -0.111313 0
M  V30 3524 H 334.615 -2.02919 0.318277 0
M  V30 3525 H 332.845 -3.40391 -1.83497 0
M  V30 3526 H 334.534 -3.73793 -1.58221 0
M  V30 3527 H 335.3 -4.80483 0.660364 0
M  V30 3528 H 331.179 -4.57771 -0.544633 0
M  V30 3529 H 334.723 -6.60279 2.25116 0
M  V30 3530 H 330.62 -6.37092 1.03848 0
M  V30 3531 H 331.388 -7.77057 2.57148 0
M  V30 3532 N 334.051 0.0651679 -1.57465 0
M  V30 3533 C 335.281 0.774683 -1.91526 0
M  V30 3534 C 335.689 1.71305 -0.803196 0
M  V30 3535 O 335.032 1.82231 0.231881 0
M  V30 3536 C 335.094 1.61645 -3.21109 0
M  V30 3537 C 334.758 0.846753 -4.49087 0
M  V30 3538 C 335.755 0.163024 -5.19644 0
M  V30 3539 C 333.44 0.811966 -4.95694 0
M  V30 3540 C 335.434 -0.54519 -6.35064 0
M  V30 3541 C 333.121 0.0999836 -6.11018 0
M  V30 3542 C 334.119 -0.577388 -6.80555 0
M  V30 3543 O 333.807 -1.27789 -7.93678 0
M  V30 3544 H 333.539 0.225031 -0.637446 0
M  V30 3545 H 336.093 0.0377134 -2.05365 0
M  V30 3546 H 334.323 2.39638 -3.03497 0
M  V30 3547 H 336.012 2.20525 -3.40769 0
M  V30 3548 H 336.778 0.181163 -4.84662 0
M  V30 3549 H 332.657 1.32867 -4.41438 0
M  V30 3550 H 336.201 -1.07446 -6.89276 0
M  V30 3551 H 332.098 0.0797945 -6.45451 0
M  V30 3552 H 332.866 -1.18784 -8.09835 0
M  V30 3553 N 335.529 1.53961 0.336706 0
M  V30 3554 C 336.945 1.44378 0.680241 0
M  V30 3555 C 337.145 0.606034 1.9217 0
M  V30 3556 O 336.201 0.099688 2.52303 0
M  V30 3557 C 337.514 2.87945 0.8665 0
M  V30 3558 C 339.062 2.97763 0.964682 0
M  V30 3559 C 339.537 4.42453 1.18321 0
M  V30 3560 N 341.028 4.46008 1.25025 0
M  V30 3561 C 341.763 5.55102 1.43697 0
M  V30 3562 N 341.259 6.7419 1.59498 0
M  V30 3563 N 343.052 5.42727 1.463 0
M  V30 3564 H 335.203 2.06918 -0.479455 0
M  V30 3565 H 337.466 0.935634 -0.152619 0
M  V30 3566 H 337.172 3.51691 0.0256937 0
M  V30 3567 H 337.046 3.33293 1.76623 0
M  V30 3568 H 339.433 2.34153 1.796 0
M  V30 3569 H 339.514 2.55766 0.041708 0
M  V30 3570 H 339.158 5.06645 0.356788 0
M  V30 3571 H 339.088 4.82048 2.11985 0
M  V30 3572 H 341.579 3.60196 1.14312 0
M  V30 3573 H 341.892 7.53095 1.734 0
M  V30 3574 H 340.237 6.77123 1.56621 0
M  V30 3575 H 343.428 4.48647 1.33543 0
M  V30 3576 H 343.601 6.27806 1.6051 0
M  V30 3577 N 337.007 -0.598083 1.45811 0
M  V30 3578 C 338.284 -1.35777 1.40797 0
M  V30 3579 C 338.664 -2.10935 0.083462 0
M  V30 3580 O 338.012 -2.08505 -0.934763 0
M  V30 3581 C 338.222 -2.29666 2.62783 0
M  V30 3582 C 339.57 -2.91977 3.08277 0
M  V30 3583 O 340.594 -2.39984 2.63223 0
M  V30 3584 O 339.453 -3.86376 3.86491 0
M  V30 3585 H 336.547 -0.609291 0.55919 0
M  V30 3586 H 339.093 -0.620379 1.57954 0
M  V30 3587 H 337.865 -1.73454 3.50756 0
M  V30 3588 H 337.488 -3.1077 2.48008 0
M  V30 3589 N 338.485 -1.33259 -0.841409 0
M  V30 3590 C 339.71 -1.2775 -1.63385 0
M  V30 3591 C 340.135 0.149188 -1.87507 0
M  V30 3592 O 339.493 1.10498 -1.43736 0
M  V30 3593 C 339.541 -2.05571 -2.96265 0
M  V30 3594 O 338.645 -1.41257 -3.87453 0
M  V30 3595 H 337.986 -0.439627 -0.497618 0
M  V30 3596 H 340.516 -1.75782 -1.04699 0
M  V30 3597 H 340.526 -2.16241 -3.45982 0
M  V30 3598 H 339.201 -3.09309 -2.7803 0
M  V30 3599 H 337.778 -1.39217 -3.45938 0
M  V30 3600 N 339.963 1.05934 -1.16686 0
M  V30 3601 C 341.379 1.30938 -0.912542 0
M  V30 3602 C 341.579 1.96803 0.432533 0
M  V30 3603 O 340.635 2.23693 1.17123 0
M  V30 3604 C 341.948 2.18649 -2.06429 0
M  V30 3605 C 343.496 2.32055 -2.10047 0
M  V30 3606 C 343.971 3.23122 -3.24586 0
M  V30 3607 N 345.462 3.30706 -3.24327 0
M  V30 3608 C 346.197 4.01273 -4.09594 0
M  V30 3609 N 345.693 4.74332 -5.04956 0
M  V30 3610 N 347.486 3.97361 -3.97569 0
M  V30 3611 H 339.637 0.615777 -2.03278 0
M  V30 3612 H 341.9 0.334077 -0.887185 0
M  V30 3613 H 341.606 1.77534 -3.03603 0
M  V30 3614 H 341.48 3.19252 -2.00894 0
M  V30 3615 H 343.867 2.72415 -1.13464 0
M  V30 3616 H 343.948 1.31107 -2.19647 0
M  V30 3617 H 343.592 2.83477 -4.2143 0
M  V30 3618 H 343.522 4.24057 -3.12223 0
M  V30 3619 H 346.013 2.78644 -2.55276 0
M  V30 3620 H 346.326 5.25716 -5.6643 0
M  V30 3621 H 344.671 4.733 -5.08933 0
M  V30 3622 H 347.862 3.39405 -3.22369 0
M  V30 3623 H 348.035 4.52089 -4.64241 0
M  V30 3624 N 341.441 0.965919 1.2453 0
M  V30 3625 C 342.718 0.543777 1.87889 0
M  V30 3626 C 343.098 -0.97909 1.87021 0
M  V30 3627 O 342.446 -1.84969 1.3416 0
M  V30 3628 C 342.656 1.13327 3.30088 0
M  V30 3629 C 344.004 1.21707 4.06783 0
M  V30 3630 O 345.028 1.08566 3.39252 0
M  V30 3631 O 343.887 1.42456 5.27606 0
M  V30 3632 H 340.981 0.181054 0.806938 0
M  V30 3633 H 343.527 1.06007 1.32516 0
M  V30 3634 H 342.299 2.17612 3.25209 0
M  V30 3635 H 341.922 0.600911 3.93033 0
M  V30 3636 N 342.919 -1.39368 0.735821 0
M  V30 3637 C 344.33 -1.83313 0.354015 0
M  V30 3638 C 344.681 -1.61461 -1.11466 0
M  V30 3639 O 343.806 -1.10621 -1.85989 0
M  V30 3640 C 344.401 -3.32781 0.635769 0
M  V30 3641 C 342.96 -3.75142 0.307448 0
M  V30 3642 C 342.107 -2.62358 0.897974 0
M  V30 3643 H 345.058 -1.28349 0.933398 0
M  V30 3644 H 345.079 -3.80388 -0.0921773 0
M  V30 3645 H 344.591 -3.48654 1.70476 0
M  V30 3646 H 342.692 -3.64857 -0.755674 0
M  V30 3647 H 342.805 -4.72532 0.790583 0
M  V30 3648 H 341.169 -2.52624 0.324551 0
M  V30 3649 H 341.952 -2.81036 1.97164 0
M  V30 3650 N 344.397 -0.483516 -1.5 0
M  V30 3651 C 345.327 0.293829 -2.31644 0
M  V30 3652 C 346.308 0.978864 -1.39112 0
M  V30 3653 O 347.493 0.973644 -1.68029 0
M  V30 3654 C 344.623 1.36897 -3.19181 0
M  V30 3655 C 343.577 0.804833 -4.20365 0
M  V30 3656 C 342.903 1.9792 -4.96721 0
M  V30 3657 C 344.203 -0.192313 -5.21946 0
M  V30 3658 H 345.897 -0.387616 -2.9688 0
M  V30 3659 H 343.443 -0.187856 -1.42769 0
M  V30 3660 H 345.396 1.92037 -3.751 0
M  V30 3661 H 344.12 2.07936 -2.51853 0
M  V30 3662 H 342.779 0.275319 -3.65565 0
M  V30 3663 H 342.427 2.67686 -4.25856 0
M  V30 3664 H 342.127 1.60789 -5.65173 0
M  V30 3665 H 343.651 2.53526 -5.55479 0
M  V30 3666 H 345.065 0.270333 -5.72662 0
M  V30 3667 H 343.462 -0.478543 -5.98189 0
M  V30 3668 H 344.532 -1.11409 -4.71928 0
M  V30 3669 N 345.875 1.56104 -0.216619 0
M  V30 3670 C 347.121 1.99219 0.410301 0
M  V30 3671 C 347.476 1.10169 1.57735 0
M  V30 3672 O 346.769 0.150598 1.91007 0
M  V30 3673 C 346.963 3.45923 0.898464 0
M  V30 3674 C 346.792 4.49163 -0.219748 0
M  V30 3675 C 345.562 5.00642 -0.684516 0
M  V30 3676 C 347.76 5.03751 -1.03629 0
M  V30 3677 N 345.742 5.87579 -1.7783 0
M  V30 3678 C 347.113 5.87566 -1.97904 0
M  V30 3679 C 349.168 4.86128 -1.07629 0
M  V30 3680 C 347.871 6.5564 -2.95851 0
M  V30 3681 C 349.897 5.54958 -2.04392 0
M  V30 3682 C 349.259 6.38536 -2.97407 0
M  V30 3683 H 345.358 0.773206 0.11695 0
M  V30 3684 H 347.942 1.9193 -0.327258 0
M  V30 3685 H 346.113 3.53669 1.6054 0
M  V30 3686 H 347.845 3.75963 1.49779 0
M  V30 3687 H 344.6 4.72807 -0.27399 0
M  V30 3688 H 345.024 6.3575 -2.32705 0
M  V30 3689 H 349.666 4.21168 -0.371099 0
M  V30 3690 H 347.384 7.19785 -3.67335 0
M  V30 3691 H 350.97 5.43289 -2.08154 0
M  V30 3692 H 349.85 6.90858 -3.71059 0
M  V30 3693 N 347.353 -0.0568162 1.57498 0
M  V30 3694 C 348.3 -1.06591 2.04712 0
M  V30 3695 C 349.27 -1.3758 0.930644 0
M  V30 3696 O 350.455 -1.48392 1.19935 0
M  V30 3697 C 347.595 -2.3701 2.50839 0
M  V30 3698 C 346.708 -2.12421 3.76167 0
M  V30 3699 C 345.843 -3.36511 4.11015 0
M  V30 3700 C 344.882 -3.07353 5.2934 0
M  V30 3701 N 344.019 -4.23816 5.59754 0
M  V30 3702 H 348.859 -0.65631 2.90683 0
M  V30 3703 H 346.396 -0.312481 1.43743 0
M  V30 3704 H 348.354 -3.13175 2.7564 0
M  V30 3705 H 346.984 -2.75744 1.67825 0
M  V30 3706 H 346.036 -1.2688 3.58616 0
M  V30 3707 H 347.348 -1.86894 4.62463 0
M  V30 3708 H 346.502 -4.21062 4.36797 0
M  V30 3709 H 345.241 -3.65128 3.23315 0
M  V30 3710 H 344.246 -2.212 5.03339 0
M  V30 3711 H 345.471 -2.80043 6.1867 0
M  V30 3712 H 343.417 -4.52436 4.75014 0
M  V30 3713 H 343.334 -4.01614 6.40501 0
M  V30 3714 H 344.602 -5.0932 5.90096 0
M  V30 3715 N 348.832 -1.54138 -0.328536 0
M  V30 3716 C 350.08 -1.71765 -1.06496 0
M  V30 3717 C 350.401 -0.49149 -1.88704 0
M  V30 3718 O 349.671 0.494539 -1.89555 0
M  V30 3719 H 348.251 -0.633295 -0.396164 0
M  V30 3720 H 350.913 -1.91429 -0.366176 0
M  V30 3721 H 350.009 -2.5951 -1.73381 0
M  V30 3722 N 350.31 0.590341 -1.46126 0
M  V30 3723 C 351.721 1.17243 -1.45296 0
M  V30 3724 C 352.072 1.95281 -0.189723 0
M  V30 3725 O 351.197 2.04502 0.707674 0
M  V30 3726 C 351.792 2.13284 -2.6324 0
M  V30 3727 C 350.351 2.66832 -2.65476 0
M  V30 3728 C 349.498 1.42557 -2.3785 0
M  V30 3729 H 352.449 0.378692 -1.54116 0
M  V30 3730 H 352.47 2.96619 -2.38323 0
M  V30 3731 H 351.982 1.56459 -3.55165 0
M  V30 3732 H 350.083 3.27548 -1.77603 0
M  V30 3733 H 350.196 3.10088 -3.65215 0
M  V30 3734 H 348.56 1.72107 -1.87753 0
M  V30 3735 H 349.343 0.875741 -3.31942 0
M  V30 3736 N 351.788 1.33704 0.83433 0
M  V30 3737 C 352.751 1.24244 1.92603 0
M  V30 3738 C 353.751 0.160383 1.59998 0
M  V30 3739 O 354.941 0.412228 1.69252 0
M  V30 3740 C 352.073 0.91555 3.28376 0
M  V30 3741 H 353.266 2.21287 2.02416 0
M  V30 3742 H 350.819 1.17827 1.02696 0
M  V30 3743 H 351.554 -0.0521886 3.24258 0
M  V30 3744 H 351.339 1.69811 3.53422 0
M  V30 3745 H 352.829 0.874231 4.08347 0
M  V30 3746 N 353.266 -1.05314 1.17247 0
M  V30 3747 C 354.213 -2.13031 0.888058 0
M  V30 3748 C 355.183 -1.65253 -0.167537 0
M  V30 3749 O 356.368 -1.90775 -0.0305974 0
M  V30 3750 C 353.508 -3.42702 0.406147 0
M  V30 3751 C 352.621 -4.04161 1.52572 0
M  V30 3752 C 351.756 -5.21744 0.997808 0
M  V30 3753 C 350.795 -5.75207 2.09291 0
M  V30 3754 N 349.932 -6.84094 1.57986 0
M  V30 3755 H 354.772 -2.36698 1.81048 0
M  V30 3756 H 352.309 -1.16121 0.903013 0
M  V30 3757 H 354.267 -4.17059 0.108305 0
M  V30 3758 H 352.897 -3.19222 -0.479313 0
M  V30 3759 H 351.949 -3.27253 1.93931 0
M  V30 3760 H 353.261 -4.39881 2.35172 0
M  V30 3761 H 352.415 -6.03168 0.653739 0
M  V30 3762 H 351.154 -4.87495 0.141232 0
M  V30 3763 H 350.159 -4.92414 2.44557 0
M  V30 3764 H 351.384 -6.11505 2.95362 0
M  V30 3765 H 349.33 -6.51745 0.74598 0
M  V30 3766 H 349.247 -7.18811 2.34195 0
M  V30 3767 H 350.515 -7.69172 1.26468 0
M  V30 3768 N 354.744 -0.972509 -1.24016 0
M  V30 3769 C 355.674 -0.525548 -2.27509 0
M  V30 3770 C 356.655 0.437262 -1.64384 0
M  V30 3771 O 357.84 0.332343 -1.91335 0
M  V30 3772 C 354.97 0.180448 -3.46831 0
M  V30 3773 C 353.924 -0.698859 -4.22256 0
M  V30 3774 C 353.25 0.138903 -5.3452 0
M  V30 3775 C 354.55 -1.98582 -4.83076 0
M  V30 3776 H 356.244 -1.39058 -2.65148 0
M  V30 3777 H 353.79 -0.67009 -1.27459 0
M  V30 3778 H 355.743 0.504387 -4.18371 0
M  V30 3779 H 354.467 1.07987 -3.08231 0
M  V30 3780 H 353.126 -1.00614 -3.52523 0
M  V30 3781 H 352.774 1.03862 -4.9216 0
M  V30 3782 H 352.474 -0.446259 -5.85903 0
M  V30 3783 H 353.998 0.457404 -6.08884 0
M  V30 3784 H 355.412 -1.72715 -5.46665 0
M  V30 3785 H 353.809 -2.5181 -5.44713 0
M  V30 3786 H 354.879 -2.67769 -4.04262 0
M  V30 3787 N 356.222 1.38976 -0.743202 0
M  V30 3788 C 357.152 2.33171 -0.123873 0
M  V30 3789 C 358.133 1.54336 0.71516 0
M  V30 3790 O 359.318 1.82696 0.658467 0
M  V30 3791 C 356.448 3.38474 0.777978 0
M  V30 3792 C 355.402 4.27979 0.0424758 0
M  V30 3793 C 354.728 5.2405 1.06189 0
M  V30 3794 C 356.028 5.10155 -1.1198 0
M  V30 3795 H 357.722 2.85213 -0.910709 0
M  V30 3796 H 355.268 1.37133 -0.439388 0
M  V30 3797 H 357.221 4.03328 1.22084 0
M  V30 3798 H 355.945 2.84891 1.59702 0
M  V30 3799 H 354.604 3.64616 -0.380853 0
M  V30 3800 H 354.252 4.66758 1.87472 0
M  V30 3801 H 353.952 5.84785 0.574485 0
M  V30 3802 H 355.476 5.9178 1.50428 0
M  V30 3803 H 356.89 5.68307 -0.75499 0
M  V30 3804 H 355.287 5.80073 -1.53738 0
M  V30 3805 H 356.357 4.44504 -1.93764 0
M  V30 3806 N 357.7 0.491464 1.49741 0
M  V30 3807 C 358.946 -0.0485431 2.03342 0
M  V30 3808 C 359.301 -1.35566 1.36527 0
M  V30 3809 O 358.594 -1.85262 0.488729 0
M  V30 3810 C 358.788 -0.267329 3.56399 0
M  V30 3811 C 358.617 1.01703 4.38049 0
M  V30 3812 C 357.387 1.56614 4.80417 0
M  V30 3813 C 359.585 1.91782 4.77204 0
M  V30 3814 N 357.567 2.7974 5.4646 0
M  V30 3815 C 358.938 2.99489 5.42868 0
M  V30 3816 C 360.993 1.92575 4.5915 0
M  V30 3817 C 359.696 4.08005 5.92389 0
M  V30 3818 C 361.722 3.0006 5.09626 0
M  V30 3819 C 361.084 4.06485 5.75282 0
M  V30 3820 H 357.183 0.0227779 0.781668 0
M  V30 3821 H 359.767 0.664204 1.8302 0
M  V30 3822 H 357.938 -0.949126 3.76625 0
M  V30 3823 H 359.67 -0.803492 3.96644 0
M  V30 3824 H 356.425 1.11256 4.60347 0
M  V30 3825 H 356.849 3.42323 5.84075 0
M  V30 3826 H 361.491 1.11605 4.07804 0
M  V30 3827 H 359.209 4.89779 6.42761 0
M  V30 3828 H 362.795 3.01681 4.97473 0
M  V30 3829 H 361.675 4.88287 6.13633 0
M  V30 3830 N 359.178 -1.55987 0.224894 0
M  V30 3831 C 360.125 -2.20436 -0.68385 0
M  V30 3832 C 361.095 -1.16102 -1.18783 0
M  V30 3833 O 362.28 -1.4447 -1.24632 0
M  V30 3834 C 359.42 -2.89076 -1.88491 0
M  V30 3835 C 358.533 -4.08012 -1.41951 0
M  V30 3836 C 357.668 -4.64426 -2.5784 0
M  V30 3837 C 356.707 -5.75656 -2.08053 0
M  V30 3838 N 355.844 -6.26347 -3.17227 0
M  V30 3839 H 360.684 -2.97727 -0.12754 0
M  V30 3840 H 358.221 -1.47011 -0.0511978 0
M  V30 3841 H 360.179 -3.27059 -2.59014 0
M  V30 3842 H 358.809 -2.14298 -2.41405 0
M  V30 3843 H 357.861 -3.75492 -0.609095 0
M  V30 3844 H 359.173 -4.88375 -1.01447 0
M  V30 3845 H 358.327 -5.04869 -3.3644 0
M  V30 3846 H 357.066 -3.83233 -3.01635 0
M  V30 3847 H 356.071 -5.34712 -1.27916 0
M  V30 3848 H 357.296 -6.58686 -1.65255 0
M  V30 3849 H 355.242 -5.48067 -3.60497 0
M  V30 3850 H 355.159 -7.01843 -2.80986 0
M  V30 3851 H 356.427 -6.71447 -3.95953 0
M  V30 3852 N 360.656 0.0484629 -1.57525 0
M  V30 3853 C 361.904 0.741657 -1.88 0
M  V30 3854 C 362.225 1.76918 -0.820054 0
M  V30 3855 O 361.495 1.95335 0.148661 0
M  V30 3856 H 360.075 0.276908 -0.69378 0
M  V30 3857 H 362.737 0.019013 -1.94891 0
M  V30 3858 H 361.833 1.24336 -2.86264 0
M  V30 3859 N 362.134 1.5431 0.320358 0
M  V30 3860 C 363.044 1.86946 1.41734 0
M  V30 3861 C 364.06 0.761689 1.56443 0
M  V30 3862 O 365.236 1.05629 1.71477 0
M  V30 3863 C 362.301 2.09293 2.76401 0
M  V30 3864 C 361.362 3.33082 2.70841 0
M  V30 3865 C 360.595 3.54353 3.99086 0
M  V30 3866 O 360.818 2.79002 4.97508 0
M  V30 3867 O 359.752 4.47838 4.0215 0
M  V30 3868 H 363.578 2.80232 1.17062 0
M  V30 3869 H 361.163 1.40255 0.514673 0
M  V30 3870 H 363.045 2.25303 3.56113 0
M  V30 3871 H 361.72 1.19194 3.00956 0
M  V30 3872 H 360.627 3.22454 1.89668 0
M  V30 3873 H 361.96 4.23249 2.5124 0
M  V30 3874 N 363.613 -0.582584 1.46437 0
M  V30 3875 C 364.861 -1.33814 1.51453 0
M  V30 3876 C 365.182 -1.94277 0.167792 0
M  V30 3877 O 364.452 -1.78566 -0.805677 0
M  V30 3878 H 363.032 -0.496838 0.557818 0
M  V30 3879 H 365.694 -0.682281 1.82568 0
M  V30 3880 H 364.79 -2.14479 2.26728 0
M  V30 3881 N 365.091 -1.34144 -0.827227 0
M  V30 3882 C 366.054 -1.25264 -1.91942 0
M  V30 3883 C 367.054 -0.168866 -1.59911 0
M  V30 3884 O 368.244 -0.421198 -1.69031 0
M  V30 3885 C 365.376 -0.932952 -3.27885 0
M  V30 3886 H 366.569 -2.22357 -2.0124 0
M  V30 3887 H 364.122 -1.1837 -1.0207 0
M  V30 3888 H 364.857 0.0349917 -3.24281 0
M  V30 3889 H 364.642 -1.71682 -3.52516 0
M  V30 3890 H 366.132 -0.895874 -4.07877 0
M  V30 3891 N 366.569 1.04691 -1.17803 0
M  V30 3892 C 367.815 1.78045 -0.970969 0
M  V30 3893 C 368.148 1.87686 0.498751 0
M  V30 3894 O 367.423 1.38035 1.37027 0
M  V30 3895 C 367.706 3.2166 -1.61884 0
M  V30 3896 C 367.559 3.20001 -3.161 0
M  V30 3897 C 368.878 4.1962 -1.3269 0
M  V30 3898 H 365.997 0.64633 -0.354155 0
M  V30 3899 H 368.639 1.22333 -1.45378 0
M  V30 3900 H 366.789 3.69232 -1.20831 0
M  V30 3901 H 368.461 2.80467 -3.66246 0
M  V30 3902 H 366.704 2.58203 -3.48588 0
M  V30 3903 H 367.375 4.21386 -3.56564 0
M  V30 3904 H 369.851 3.80567 -1.68249 0
M  V30 3905 H 368.727 5.18339 -1.80599 0
M  V30 3906 H 368.988 4.414 -0.248622 0
M  V30 3907 N 368.047 0.979072 1.23499 0
M  V30 3908 C 369.293 0.648178 1.92163 0
M  V30 3909 C 369.626 -0.816049 1.76222 0
M  V30 3910 O 368.901 -1.58849 1.12237 0
M  V30 3911 C 369.184 1.03773 3.44824 0
M  V30 3912 C 369.037 2.55948 3.69879 0
M  V30 3913 C 370.356 0.580653 4.36253 0
M  V30 3914 H 367.475 0.236952 0.69787 0
M  V30 3915 H 370.117 1.22012 1.45647 0
M  V30 3916 H 368.267 0.551058 3.84572 0
M  V30 3917 H 369.939 3.12179 3.3962 0
M  V30 3918 H 368.182 2.98641 3.14636 0
M  V30 3919 H 368.853 2.78255 4.76737 0
M  V30 3920 H 371.329 0.998465 4.03943 0
M  V30 3921 H 370.205 0.881663 5.41773 0
M  V30 3922 H 370.466 -0.519052 4.39042 0
M  V30 3923 N 369.525 -1.3858 0.750561 0
M  V30 3924 C 370.774 -1.99424 0.302172 0
M  V30 3925 C 371.087 -1.60254 -1.12152 0
M  V30 3926 O 372.293 -2.14046 -1.67023 0
M  V30 3927 C 370.749 -3.56558 0.489307 0
M  V30 3928 C 370.357 -4.04682 1.92189 0
M  V30 3929 C 372.101 -4.24374 0.103478 0
M  V30 3930 C 370.008 -5.54446 2.05775 0
M  V30 3931 H 368.938 -0.746046 0.10923 0
M  V30 3932 H 371.589 -1.58383 0.92667 0
M  V30 3933 H 369.971 -3.95472 -0.204329 0
M  V30 3934 H 371.145 -3.77065 2.64875 0
M  V30 3935 H 369.46 -3.4958 2.26236 0
M  V30 3936 H 372.057 -5.34384 0.183787 0
M  V30 3937 H 372.4 -4.05468 -0.943481 0
M  V30 3938 H 372.933 -3.90688 0.748854 0
M  V30 3939 H 369.672 -5.78252 3.08714 0
M  V30 3940 H 369.192 -5.83816 1.37546 0
M  V30 3941 H 370.871 -6.20099 1.84626 0
M  V30 3942 N 371.003 -0.499398 -1.49478 0
M  V30 3943 C 371.935 0.316575 -2.27003 0
M  V30 3944 C 372.948 0.932047 -1.33479 0
M  V30 3945 O 374.137 0.815658 -1.58774 0
M  V30 3946 C 371.237 1.46055 -3.05812 0
M  V30 3947 C 370.41 0.952679 -4.26899 0
M  V30 3948 C 369.469 1.97407 -4.87767 0
M  V30 3949 O 368.495 1.54326 -5.4788 0
M  V30 3950 N 369.697 3.30436 -4.77276 0
M  V30 3951 H 372.462 -0.348168 -2.97671 0
M  V30 3952 H 370.023 -0.33185 -1.58463 0
M  V30 3953 H 372.015 2.14135 -3.43407 0
M  V30 3954 H 370.585 2.02948 -2.37762 0
M  V30 3955 H 369.805 0.0968248 -3.94081 0
M  V30 3956 H 371.093 0.59174 -5.05347 0
M  V30 3957 H 370.491 3.68126 -4.29534 0
M  V30 3958 H 369.048 3.94235 -5.19059 0
M  V30 3959 N 372.481 1.55866 -0.233164 0
M  V30 3960 C 373.758 1.90471 0.444988 0
M  V30 3961 C 374.138 1.15209 1.7689 0
M  V30 3962 O 373.486 0.265119 2.26957 0
M  V30 3963 C 373.696 3.4333 0.626559 0
M  V30 3964 C 375.044 4.14319 0.92871 0
M  V30 3965 O 376.068 3.48993 0.712926 0
M  V30 3966 O 374.927 5.29846 1.33887 0
M  V30 3967 H 372.021 0.792347 0.236885 0
M  V30 3968 H 374.567 1.67437 -0.276211 0
M  V30 3969 H 373.339 3.90095 -0.306822 0
M  V30 3970 H 372.962 3.72181 1.39881 0
M  V30 3971 N 373.959 -0.0401083 1.57549 0
M  V30 3972 C 374.907 -1.06264 2.06908 0
M  V30 3973 C 375.901 -1.38132 0.980608 0
M  V30 3974 O 377.107 -1.37167 1.16556 0
M  V30 3975 H 373.482 -0.360166 0.660139 0
M  V30 3976 H 375.453 -0.620445 2.91878 0
M  V30 3977 C 374.202 -2.35846 2.55483 0
M  V30 3978 H 373.525 -2.12183 3.38849 0
M  V30 3979 H 374.965 -3.05765 2.93741 0
M  V30 3980 C 373.424 -3.0404 1.45126 0
M  V30 3981 O 373.954 -3.93424 0.811216 0
M  V30 3982 N 372.16 -2.65184 1.18852 0
M  V30 3983 H 371.707 -1.92584 1.71083 0
M  V30 3984 H 371.665 -3.1113 0.452244 0
M  V30 3985 N 375.437 -1.54477 -0.31217 0
M  V30 3986 C 376.662 -1.77526 -1.07235 0
M  V30 3987 C 377.087 -0.527775 -1.80544 0
M  V30 3988 O 376.445 0.52121 -1.73646 0
M  V30 3989 C 376.493 -2.97535 -2.03728 0
M  V30 3990 O 375.597 -2.69878 -3.11833 0
M  V30 3991 H 374.938 -0.58792 -0.30862 0
M  V30 3992 H 377.468 -2.01532 -0.352993 0
M  V30 3993 H 377.478 -3.25198 -2.46395 0
M  V30 3994 H 376.153 -3.87996 -1.49774 0
M  V30 3995 H 374.73 -2.53199 -2.7376 0
M  V30 3996 N 376.915 0.57481 -1.46744 0
M  V30 3997 C 378.192 1.3352 -1.4294 0
M  V30 3998 C 378.572 2.10775 -0.117009 0
M  V30 3999 O 377.92 2.09966 0.901474 0
M  V30 4000 C 378.13 2.25456 -2.66403 0
M  V30 4001 C 379.478 2.87035 -3.12883 0
M  V30 4002 O 380.502 2.35766 -2.67007 0
M  V30 4003 O 379.361 3.80179 -3.92589 0
M  V30 4004 H 376.455 0.600318 -0.568812 0
M  V30 4005 H 379.001 0.595171 -1.58921 0
M  V30 4006 H 377.773 1.67851 -3.53471 0
M  V30 4007 H 377.396 3.06785 -2.52921 0
M  V30 4008 N 378.394 1.34581 0.820102 0
M  V30 4009 C 379.643 1.26437 1.57151 0
M  V30 4010 C 379.956 -0.163111 1.94919 0
M  V30 4011 O 381.162 -0.366722 2.69012 0
M  V30 4012 C 379.618 2.21658 2.83541 0
M  V30 4013 C 379.226 3.69679 2.53065 0
M  V30 4014 C 380.97 2.22428 3.61561 0
M  V30 4015 C 378.877 4.56761 3.75664 0
M  V30 4016 H 377.807 0.469707 0.589823 0
M  V30 4017 H 380.458 1.59763 0.902656 0
M  V30 4018 H 378.84 1.81287 3.52067 0
M  V30 4019 H 380.014 4.18605 1.92631 0
M  V30 4020 H 378.329 3.71384 1.88316 0
M  V30 4021 H 380.926 2.8471 4.52597 0
M  V30 4022 H 381.269 1.22434 3.97889 0
M  V30 4023 H 381.802 2.61259 2.99981 0
M  V30 4024 H 378.541 5.57702 3.44454 0
M  V30 4025 H 378.061 4.12568 4.35371 0
M  V30 4026 H 379.74 4.71509 4.43044 0
M  V30 4027 N 379.872 -1.04064 1.18357 0
M  V30 4028 C 380.819 -2.12077 0.910603 0
M  V30 4029 C 381.789 -1.65421 -0.15 0
M  V30 4030 O 382.974 -1.90797 -0.0103614 0
M  V30 4031 C 380.114 -3.42252 0.442472 0
M  V30 4032 C 379.227 -4.0252 1.5685 0
M  V30 4033 C 378.362 -5.20657 1.05309 0
M  V30 4034 C 377.401 -5.72955 2.1538 0
M  V30 4035 N 376.538 -6.8238 1.65233 0
M  V30 4036 H 381.378 -2.34764 1.83548 0
M  V30 4037 H 378.915 -1.15157 0.915279 0
M  V30 4038 H 380.873 -4.16921 0.152534 0
M  V30 4039 H 379.503 -3.19712 -0.445428 0
M  V30 4040 H 378.555 -3.25178 1.97391 0
M  V30 4041 H 379.867 -4.37362 2.39824 0
M  V30 4042 H 379.021 -6.0244 0.717677 0
M  V30 4043 H 377.76 -4.87318 0.19293 0
M  V30 4044 H 376.765 -4.89793 2.49766 0
M  V30 4045 H 377.99 -6.08337 3.01832 0
M  V30 4046 H 375.936 -6.50917 0.815064 0
M  V30 4047 H 375.853 -7.16286 2.41805 0
M  V30 4048 H 377.121 -7.67788 1.34619 0
M  V30 4049 N 381.35 -0.985608 -1.22978 0
M  V30 4050 C 382.596 -0.65836 -1.91816 0
M  V30 4051 C 382.929 0.806692 -1.76653 0
M  V30 4052 O 382.204 1.58252 -1.13078 0
M  V30 4053 C 382.487 -1.056 -3.44268 0
M  V30 4054 C 382.34 -2.57906 -3.68516 0
M  V30 4055 C 383.659 -0.603781 -4.35939 0
M  V30 4056 H 380.778 -0.24065 -0.696604 0
M  V30 4057 H 383.42 -1.22783 -1.44998 0
M  V30 4058 H 381.57 -0.571445 -3.84274 0
M  V30 4059 H 383.242 -3.13976 -3.3796 0
M  V30 4060 H 381.485 -3.00305 -3.13048 0
M  V30 4061 H 382.156 -2.80779 -4.75255 0
M  V30 4062 H 384.632 -1.01987 -4.03408 0
M  V30 4063 H 383.508 -0.910383 -5.41298 0
M  V30 4064 H 383.769 0.495761 -4.39312 0
M  V30 4065 N 382.828 1.3818 -0.7579 0
M  V30 4066 C 384.074 2.00316 -0.316453 0
M  V30 4067 C 384.407 1.60026 1.10025 0
M  V30 4068 O 383.682 0.839835 1.75434 0
M  V30 4069 C 383.965 3.57349 -0.444245 0
M  V30 4070 C 383.818 4.07591 -1.90236 0
M  V30 4071 C 385.137 4.3981 0.1598 0
M  V30 4072 H 382.256 0.727741 -0.116459 0
M  V30 4073 H 384.898 1.6406 -0.958352 0
M  V30 4074 H 383.048 3.88365 0.102233 0
M  V30 4075 H 384.72 3.87199 -2.50748 0
M  V30 4076 H 382.963 3.60297 -2.41595 0
M  V30 4077 H 383.634 5.16677 -1.94291 0
M  V30 4078 H 386.11 4.14971 -0.306314 0
M  V30 4079 H 384.986 5.48885 0.0401675 0
M  V30 4080 H 385.247 4.24102 1.24859 0
M  V30 4081 N 384.306 0.507319 1.49211 0
M  V30 4082 C 385.717 0.0611118 1.866 0
M  V30 4083 C 386.068 -1.35488 1.41907 0
M  V30 4084 O 385.193 -2.0108 0.799726 0
M  V30 4085 C 385.788 0.104125 3.3864 0
M  V30 4086 C 384.347 -0.28677 3.75306 0
M  V30 4087 C 383.494 0.473893 2.73221 0
M  V30 4088 H 386.445 0.719775 1.41439 0
M  V30 4089 H 386.466 -0.689672 3.74198 0
M  V30 4090 H 385.978 1.13482 3.71138 0
M  V30 4091 H 384.079 -1.32046 3.48417 0
M  V30 4092 H 384.192 0.0370745 4.79086 0
M  V30 4093 H 382.556 -0.0770644 2.54583 0
M  V30 4094 H 383.339 1.50478 3.08563 0
M  V30 4095 N 385.784 -1.5574 0.241426 0
M  V30 4096 C 387.2 -1.59196 -0.113548 0
M  V30 4097 C 387.4 -1.25852 -1.57364 0
M  V30 4098 O 386.456 -1.00322 -2.31715 0
M  V30 4099 C 387.769 -2.99814 0.230695 0
M  V30 4100 C 389.317 -3.12513 0.174547 0
M  V30 4101 C 389.792 -4.55342 0.492744 0
M  V30 4102 N 391.283 -4.61076 0.443043 0
M  V30 4103 C 392.018 -5.6956 0.662484 0
M  V30 4104 N 391.514 -6.86328 0.944761 0
M  V30 4105 N 393.307 -5.58957 0.593564 0
M  V30 4106 H 385.458 -1.75685 1.19368 0
M  V30 4107 H 387.721 -0.81756 0.479896 0
M  V30 4108 H 387.427 -3.28932 1.24485 0
M  V30 4109 H 387.301 -3.74568 -0.444833 0
M  V30 4110 H 389.688 -2.83179 -0.830277 0
M  V30 4111 H 389.769 -2.40045 0.883845 0
M  V30 4112 H 389.413 -4.85396 1.4951 0
M  V30 4113 H 389.343 -5.26062 -0.23797 0
M  V30 4114 H 391.834 -3.77179 0.233374 0
M  V30 4115 H 392.147 -7.64935 1.09977 0
M  V30 4116 H 390.492 -6.88025 0.982175 0
M  V30 4117 H 393.683 -4.66611 0.373123 0
M  V30 4118 H 393.856 -6.43433 0.767981 0
M  V30 4119 N 387.262 0.0317525 -1.57568 0
M  V30 4120 C 388.678 0.38735 -1.54828 0
M  V30 4121 C 388.878 1.7677 -0.967187 0
M  V30 4122 O 387.934 2.45581 -0.587063 0
M  V30 4123 C 389.247 0.291667 -2.99282 0
M  V30 4124 C 390.795 0.368946 -3.10818 0
M  V30 4125 C 391.27 0.302741 -4.56998 0
M  V30 4126 N 392.761 0.361617 -4.61786 0
M  V30 4127 C 393.496 0.333238 -5.72431 0
M  V30 4128 N 392.992 0.257308 -6.92322 0
M  V30 4129 N 394.785 0.382769 -5.60795 0
M  V30 4130 H 386.936 -0.871609 -1.93692 0
M  V30 4131 H 389.199 -0.331161 -0.888277 0
M  V30 4132 H 388.905 -0.656794 -3.45513 0
M  V30 4133 H 388.779 1.08638 -3.61217 0
M  V30 4134 H 391.166 1.30784 -2.64536 0
M  V30 4135 H 391.247 -0.455066 -2.5172 0
M  V30 4136 H 390.891 -0.632473 -5.03947 0
M  V30 4137 H 390.821 1.14482 -5.14005 0
M  V30 4138 H 393.312 0.422923 -3.75526 0
M  V30 4139 H 393.625 0.24068 -7.72425 0
M  V30 4140 H 391.97 0.223396 -6.94641 0
M  V30 4141 H 395.161 0.44006 -4.66027 0
M  V30 4142 H 395.334 0.357184 -6.47015 0
M  V30 4143 N 388.74 1.54641 0.303973 0
M  V30 4144 C 389.687 1.85386 1.37479 0
M  V30 4145 C 390.657 0.702528 1.50512 0
M  V30 4146 O 391.842 0.950867 1.65418 0
M  V30 4147 C 388.982 2.10413 2.73533 0
M  V30 4148 C 388.095 3.38049 2.68974 0
M  V30 4149 C 387.23 3.52934 3.97002 0
M  V30 4150 C 386.269 4.74373 3.86829 0
M  V30 4151 N 385.406 4.8608 5.06627 0
M  V30 4152 H 390.246 2.76732 1.1056 0
M  V30 4153 H 387.783 1.37034 0.534805 0
M  V30 4154 H 389.741 2.22919 3.52652 0
M  V30 4155 H 388.371 1.22338 2.98719 0
M  V30 4156 H 387.423 3.3418 1.81736 0
M  V30 4157 H 388.735 4.27288 2.57346 0
M  V30 4158 H 387.889 3.65088 4.84557 0
M  V30 4159 H 386.628 2.61824 4.1146 0
M  V30 4160 H 385.633 4.62255 2.97658 0
M  V30 4161 H 386.858 5.66888 3.73918 0
M  V30 4162 H 384.804 3.97891 5.21554 0
M  V30 4163 H 384.721 5.69315 4.9741 0
M  V30 4164 H 385.989 5.02587 5.95841 0
M  V30 4165 N 390.218 -0.567019 1.47046 0
M  V30 4166 C 391.464 -1.32658 1.53394 0
M  V30 4167 C 391.797 -1.93254 0.19148 0
M  V30 4168 O 391.072 -1.77338 -0.798844 0
M  V30 4169 C 391.355 -2.44412 2.64452 0
M  V30 4170 C 391.208 -1.88749 4.08282 0
M  V30 4171 C 392.527 -3.46387 2.71485 0
M  V30 4172 H 389.646 -0.48098 0.558415 0
M  V30 4173 H 392.288 -0.635481 1.79058 0
M  V30 4174 H 390.438 -3.03363 2.427 0
M  V30 4175 H 392.11 -1.34134 4.41368 0
M  V30 4176 H 390.353 -1.19481 4.17021 0
M  V30 4177 H 391.024 -2.69491 4.81745 0
M  V30 4178 H 393.5 -2.9734 2.91081 0
M  V30 4179 H 392.376 -4.2202 3.50985 0
M  V30 4180 H 392.637 -4.04616 1.78153 0
M  V30 4181 N 391.696 -1.35014 -0.812953 0
M  V30 4182 C 392.643 -1.27412 -1.92444 0
M  V30 4183 C 393.613 -0.14733 -1.65445 0
M  V30 4184 O 394.798 -0.329974 -1.87925 0
M  V30 4185 C 391.938 -1.04558 -3.28879 0
M  V30 4186 C 391.051 -2.26101 -3.68106 0
M  V30 4187 C 390.186 -1.96449 -4.9354 0
M  V30 4188 C 389.225 -3.14081 -5.25376 0
M  V30 4189 N 388.362 -2.84246 -6.41988 0
M  V30 4190 H 393.202 -2.22463 -1.98278 0
M  V30 4191 H 390.739 -1.10593 -0.969933 0
M  V30 4192 H 392.697 -0.893413 -4.07522 0
M  V30 4193 H 391.327 -0.131719 -3.22531 0
M  V30 4194 H 390.379 -2.52204 -2.84775 0
M  V30 4195 H 391.691 -3.13959 -3.87597 0
M  V30 4196 H 390.845 -1.78026 -5.79993 0
M  V30 4197 H 389.584 -1.05867 -4.76071 0
M  V30 4198 H 388.589 -3.33089 -4.37415 0
M  V30 4199 H 389.814 -4.05455 -5.44778 0
M  V30 4200 H 387.76 -1.96252 -6.25956 0
M  V30 4201 H 387.677 -3.65637 -6.61699 0
M  V30 4202 H 388.945 -2.6935 -7.31485 0
M  V30 4203 N 393.175 1.03435 -1.18907 0
M  V30 4204 C 394.424 1.76143 -0.982669 0
M  V30 4205 C 394.737 1.89416 0.487953 0
M  V30 4206 O 395.943 2.59041 0.813036 0
M  V30 4207 C 394.399 3.16722 -1.70924 0
M  V30 4208 C 394.007 3.11522 -3.21959 0
M  V30 4209 C 395.751 3.93764 -1.58588 0
M  V30 4210 C 393.658 4.46999 -3.87228 0
M  V30 4211 H 392.588 0.660292 -0.364047 0
M  V30 4212 H 395.239 1.158 -1.42347 0
M  V30 4213 H 393.621 3.775 -1.19623 0
M  V30 4214 H 394.795 2.60158 -3.80335 0
M  V30 4215 H 393.11 2.47978 -3.34508 0
M  V30 4216 H 395.707 4.93963 -2.04707 0
M  V30 4217 H 396.05 4.12794 -0.539142 0
M  V30 4218 H 396.583 3.39576 -2.07203 0
M  V30 4219 H 393.322 4.33174 -4.91976 0
M  V30 4220 H 392.842 4.98441 -3.33642 0
M  V30 4221 H 394.521 5.15898 -3.90459 0
M  V30 4222 N 394.653 0.992116 1.22453 0
M  V30 4223 C 395.902 0.662992 1.90492 0
M  V30 4224 C 396.215 -0.808407 1.78113 0
M  V30 4225 O 397.421 -1.24908 2.41061 0
M  V30 4226 C 395.877 1.1353 3.41524 0
M  V30 4227 C 395.485 2.63187 3.62542 0
M  V30 4228 C 397.229 0.880465 4.15269 0
M  V30 4229 C 395.136 3.04024 5.0727 0
M  V30 4230 H 394.066 0.244278 0.713333 0
M  V30 4231 H 396.717 1.20157 1.38688 0
M  V30 4232 H 395.099 0.52485 3.92506 0
M  V30 4233 H 396.273 3.2957 3.22056 0
M  V30 4234 H 394.588 2.86543 3.02129 0
M  V30 4235 H 397.185 1.16128 5.21937 0
M  V30 4236 H 397.528 -0.183408 4.15896 0
M  V30 4237 H 398.061 1.45307 3.70312 0
M  V30 4238 H 394.8 4.09584 5.11782 0
M  V30 4239 H 394.32 2.42343 5.48662 0
M  V30 4240 H 395.999 2.95282 5.75689 0
M  V30 4241 N 396.131 -1.37776 0.765217 0
M  V30 4242 C 397.547 -1.53297 0.444108 0
M  V30 4243 C 397.747 -1.72515 -1.04119 0
M  V30 4244 O 396.803 -1.74278 -1.82711 0
M  V30 4245 C 398.116 -2.73328 1.25349 0
M  V30 4246 C 399.664 -2.87185 1.24473 0
M  V30 4247 C 400.139 -4.10191 2.03733 0
M  V30 4248 N 401.63 -4.17291 2.01053 0
M  V30 4249 C 402.365 -5.11488 2.59166 0
M  V30 4250 N 401.861 -6.11285 3.26041 0
M  V30 4251 N 403.654 -5.03924 2.49032 0
M  V30 4252 H 395.805 -1.23552 1.72768 0
M  V30 4253 H 398.068 -0.601103 0.733062 0
M  V30 4254 H 397.774 -2.6557 2.30577 0
M  V30 4255 H 397.648 -3.66834 0.87823 0
M  V30 4256 H 400.035 -2.94418 0.20047 0
M  V30 4257 H 400.116 -1.94657 1.65959 0
M  V30 4258 H 399.76 -4.0372 3.08176 0
M  V30 4259 H 399.69 -5.01821 1.59633 0
M  V30 4260 H 402.181 -3.45825 1.5236 0
M  V30 4261 H 402.494 -6.79678 3.67774 0
M  V30 4262 H 400.839 -6.11583 3.30138 0
M  V30 4263 H 404.03 -4.24902 1.96407 0
M  V30 4264 H 404.203 -5.77152 2.94617 0
M  V30 4265 N 397.609 -0.515225 -1.4894 0
M  V30 4266 C 398.886 0.0879088 -1.95402 0
M  V30 4267 C 399.266 1.52745 -1.45712 0
M  V30 4268 O 398.614 2.18238 -0.677093 0
M  V30 4269 C 398.824 -0.0141055 -3.48997 0
M  V30 4270 C 400.172 0.152646 -4.24326 0
M  V30 4271 O 401.196 0.0604025 -3.56149 0
M  V30 4272 O 400.055 0.34384 -5.45417 0
M  V30 4273 H 397.149 0.0874636 -0.822362 0
M  V30 4274 H 399.695 -0.578775 -1.59525 0
M  V30 4275 H 398.467 -1.01745 -3.77841 0
M  V30 4276 H 398.09 0.692091 -3.9153 0
M  V30 4277 N 399.087 1.5561 -0.249682 0
M  V30 4278 C 400.317 2.03116 0.377803 0
M  V30 4279 C 400.725 1.12822 1.51881 0
M  V30 4280 O 400.068 0.13562 1.83199 0
M  V30 4281 C 400.13 3.46866 0.944693 0
M  V30 4282 C 399.794 4.56955 -0.0644259 0
M  V30 4283 C 400.791 5.12485 -0.874957 0
M  V30 4284 C 398.476 5.01936 -0.19132 0
M  V30 4285 C 400.47 6.11491 -1.79881 0
M  V30 4286 C 398.157 6.00773 -1.11868 0
M  V30 4287 C 399.155 6.5543 -1.92095 0
M  V30 4288 O 398.843 7.5234 -2.83267 0
M  V30 4289 H 398.575 0.669489 0.0935961 0
M  V30 4290 H 401.129 2.02004 -0.371966 0
M  V30 4291 H 399.359 3.45136 1.74407 0
M  V30 4292 H 401.048 3.77856 1.48255 0
M  V30 4293 H 401.814 4.78564 -0.787523 0
M  V30 4294 H 397.693 4.59055 0.423072 0
M  V30 4295 H 401.237 6.54078 -2.42543 0
M  V30 4296 H 397.134 6.34114 -1.20703 0
M  V30 4297 H 397.902 7.69966 -2.7766 0
M  V30 4298 N 400.565 -0.0233959 1.57583 0
M  V30 4299 C 401.813 -0.711654 1.89156 0
M  V30 4300 C 402.134 -1.75591 0.848096 0
M  V30 4301 O 401.404 -1.95547 -0.117566 0
M  V30 4302 H 399.984 -0.265835 0.698098 0
M  V30 4303 H 402.646 0.0119948 1.94896 0
M  V30 4304 H 401.742 -1.19766 2.88206 0
M  V30 4305 N 402.043 -1.548 -0.295768 0
M  V30 4306 C 402.99 -1.86113 -1.36494 0
M  V30 4307 C 403.96 -0.7105 -1.50137 0
M  V30 4308 O 405.145 -0.959626 -1.64912 0
M  V30 4309 C 402.285 -2.11861 -2.72413 0
M  V30 4310 C 401.398 -3.39471 -2.67177 0
M  V30 4311 C 400.533 -3.55035 -3.95125 0
M  V30 4312 C 399.572 -4.76418 -3.84308 0
M  V30 4313 N 398.709 -4.8876 -5.04042 0
M  V30 4314 H 403.549 -2.77314 -1.09091 0
M  V30 4315 H 401.086 -1.37315 -0.52753 0
M  V30 4316 H 403.044 -2.24786 -3.51464 0
M  V30 4317 H 401.674 -1.2392 -2.98066 0
M  V30 4318 H 400.726 -3.35139 -1.79962 0
M  V30 4319 H 402.038 -4.28646 -2.55076 0
M  V30 4320 H 401.192 -3.67653 -4.82614 0
M  V30 4321 H 399.931 -2.64002 -4.10066 0
M  V30 4322 H 398.936 -4.63827 -2.95202 0
M  V30 4323 H 400.161 -5.68863 -3.70906 0
M  V30 4324 H 398.107 -4.00652 -5.19436 0
M  V30 4325 H 398.024 -5.71945 -4.94384 0
M  V30 4326 H 399.292 -5.0574 -5.93167 0
M  V30 4327 N 403.521 0.559213 -1.47345 0
M  V30 4328 C 404.453 1.68161 -1.55738 0
M  V30 4329 C 405.466 1.56636 -0.443744 0
M  V30 4330 O 406.655 1.6363 -0.713258 0
M  V30 4331 C 403.755 3.06611 -1.4437 0
M  V30 4332 C 402.928 3.4391 -2.70268 0
M  V30 4333 C 401.987 4.61515 -2.52765 0
M  V30 4334 O 401.013 4.66197 -3.26572 0
M  V30 4335 N 402.215 5.57883 -1.6046 0
M  V30 4336 H 404.98 1.61408 -2.52522 0
M  V30 4337 H 402.541 0.7458 -1.43699 0
M  V30 4338 H 404.533 3.83117 -1.30398 0
M  V30 4339 H 403.103 3.07602 -0.556766 0
M  V30 4340 H 402.323 2.56873 -2.99015 0
M  V30 4341 H 403.611 3.65605 -3.53851 0
M  V30 4342 H 403.009 5.56855 -0.996422 0
M  V30 4343 H 401.566 6.33723 -1.52441 0
M  V30 4344 N 404.999 1.35443 0.805782 0
M  V30 4345 C 405.932 1.22783 1.92353 0
M  V30 4346 C 406.91 0.115543 1.62189 0
M  V30 4347 O 408.094 0.283778 1.86352 0
M  V30 4348 C 405.221 0.890746 3.26777 0
M  V30 4349 C 404.267 2.01519 3.75889 0
M  V30 4350 S 405.1 3.63101 3.93596 0
M  V30 4351 C 406.256 3.31472 5.30921 0
M  V30 4352 H 406.489 2.17394 2.02798 0
M  V30 4353 H 404.022 1.20669 0.963245 0
M  V30 4354 H 405.98 0.703068 4.04434 0
M  V30 4355 H 404.641 -0.0373152 3.14078 0
M  V30 4356 H 403.834 1.7335 4.7325 0
M  V30 4357 H 403.436 2.16124 3.05231 0
M  V30 4358 H 405.728 2.8435 6.1494 0
M  V30 4359 H 406.671 4.28036 5.64084 0
M  V30 4360 H 407.079 2.67221 4.97246 0
M  V30 4361 N 406.477 -1.02803 1.19454 0
M  V30 4362 C 407.44 -2.09264 0.934955 0
M  V30 4363 C 408.44 -1.60576 -0.0849015 0
M  V30 4364 O 409.63 -1.73554 0.149933 0
M  V30 4365 C 406.762 -3.38482 0.40531 0
M  V30 4366 H 407.955 -2.33726 1.87916 0
M  V30 4367 H 405.508 -1.19426 1.00832 0
M  V30 4368 H 406.243 -3.19689 -0.544899 0
M  V30 4369 H 406.028 -3.75142 1.14065 0
M  V30 4370 H 407.518 -4.16894 0.242806 0
M  V30 4371 N 407.956 -0.998596 -1.21925 0
M  V30 4372 C 409.204 -0.676325 -1.90448 0
M  V30 4373 C 409.525 0.794719 -1.78071 0
M  V30 4374 O 408.795 1.5701 -1.17152 0
M  V30 4375 H 407.375 -0.247165 -0.704925 0
M  V30 4376 H 410.037 -1.26633 -1.48156 0
M  V30 4377 H 409.133 -0.943858 -2.97486 0
M  V30 4378 N 409.434 1.37368 -0.772513 0
M  V30 4379 C 410.711 1.93839 -0.26188 0
M  V30 4380 C 411.091 1.7061 1.24319 0
M  V30 4381 O 410.439 1.05534 2.02669 0
M  V30 4382 C 410.649 3.43154 -0.636102 0
M  V30 4383 C 411.997 4.20249 -0.606324 0
M  V30 4384 O 413.021 3.5152 -0.575538 0
M  V30 4385 O 411.88 5.42809 -0.634086 0
M  V30 4386 H 408.974 0.82478 -0.0605555 0
M  V30 4387 H 411.52 1.4665 -0.853917 0
M  V30 4388 H 410.292 3.53647 -1.6748 0
M  V30 4389 H 409.915 3.97596 -0.0170516 0
M  V30 4390 N 410.912 0.523116 1.48665 0
M  V30 4391 C 412.189 -0.0775449 1.95446 0
M  V30 4392 C 412.569 -1.5197 1.4652 0
M  V30 4393 O 411.917 -2.17876 0.688657 0
M  V30 4394 C 412.127 0.0326135 3.48985 0
M  V30 4395 C 413.475 -0.130141 4.24401 0
M  V30 4396 O 414.499 -0.0415142 3.56176 0
M  V30 4397 O 413.358 -0.31491 5.45592 0
M  V30 4398 H 410.452 -0.0831012 0.822814 0
M  V30 4399 H 412.998 0.587227 1.59216 0
M  V30 4400 H 411.77 1.03748 3.77296 0
M  V30 4401 H 411.393 -0.671317 3.91892 0
M  V30 4402 N 412.39 -1.55475 0.257931 0
M  V30 4403 C 413.63 -2.01112 -0.365129 0
M  V30 4404 C 413.994 -1.1423 -1.54323 0
M  V30 4405 O 415.195 -1.49371 -2.23477 0
M  V30 4406 C 413.466 -3.49353 -0.754117 0
M  V30 4407 S 415.025 -4.16992 -1.36614 0
M  V30 4408 H 411.843 -0.701737 -0.114397 0
M  V30 4409 H 414.445 -1.91855 0.375747 0
M  V30 4410 H 413.149 -4.10246 0.112441 0
M  V30 4411 H 412.68 -3.6256 -1.52689 0
M  V30 4412 H 414.695 -4.19191 -2.65505 0
M  V30 4413 N 413.868 0.0150385 -1.57593 0
M  V30 4414 C 415.114 0.704043 -1.90187 0
M  V30 4415 C 415.447 1.74249 -0.857366 0
M  V30 4416 O 414.722 1.94092 0.125843 0
M  V30 4417 C 415.005 1.36087 -3.33395 0
M  V30 4418 C 414.858 0.334981 -4.48551 0
M  V30 4419 C 416.177 2.29112 -3.7576 0
M  V30 4420 H 413.296 0.254475 -0.691673 0
M  V30 4421 H 415.938 -0.0331678 -1.89971 0
M  V30 4422 H 414.088 1.98922 -3.3371 0
M  V30 4423 H 415.76 -0.292534 -4.60372 0
M  V30 4424 H 414.003 -0.344325 -4.32431 0
M  V30 4425 H 414.674 0.833316 -5.45674 0
M  V30 4426 H 417.15 1.76308 -3.76902 0
M  V30 4427 H 416.026 2.72043 -4.76743 0
M  V30 4428 H 416.287 3.16385 -3.08793 0
M  V30 4429 N 415.346 1.54954 0.287554 0
M  V30 4430 C 416.309 1.86076 1.33823 0
M  V30 4431 C 417.309 0.734414 1.43049 0
M  V30 4432 O 418.499 1.00266 1.42452 0
M  V30 4433 C 415.631 2.05305 2.72144 0
M  V30 4434 H 416.824 2.79984 1.07465 0
M  V30 4435 H 414.377 1.47223 0.524902 0
M  V30 4436 H 415.112 1.1373 3.03704 0
M  V30 4437 H 414.897 2.873 2.66836 0
M  V30 4438 H 416.387 2.30706 3.48087 0
M  V30 4439 N 416.824 -0.551391 1.4764 0
M  V30 4440 C 418.049 -1.33837 1.58437 0
M  V30 4441 C 418.474 -1.866 0.237063 0
M  V30 4442 O 417.832 -1.6328 -0.787994 0
M  V30 4443 C 417.88 -2.48014 2.61766 0
M  V30 4444 O 416.984 -3.50419 2.1744 0
M  V30 4445 H 416.325 -0.397299 0.532024 0
M  V30 4446 H 418.855 -0.665759 1.93465 0
M  V30 4447 H 418.865 -2.94503 2.82369 0
M  V30 4448 H 417.54 -2.08969 3.5959 0
M  V30 4449 H 416.117 -3.10196 2.06961 0
M  V30 4450 N 418.302 -1.35869 -0.798587 0
M  V30 4451 C 419.718 -1.16082 -1.09532 0
M  V30 4452 C 419.918 0.0213124 -2.01489 0
M  V30 4453 O 418.974 0.689488 -2.42904 0
M  V30 4454 C 420.287 -2.46748 -1.7186 0
M  V30 4455 C 421.835 -2.53028 -1.84244 0
M  V30 4456 C 422.31 -3.83758 -2.49988 0
M  V30 4457 N 423.801 -3.85053 -2.57465 0
M  V30 4458 C 424.536 -4.8294 -3.09122 0
M  V30 4459 N 424.032 -5.91217 -3.61157 0
M  V30 4460 N 425.825 -4.70369 -3.0775 0
M  V30 4461 H 417.976 -2.11571 -0.187461 0
M  V30 4462 H 420.239 -0.936726 -0.145765 0
M  V30 4463 H 419.945 -3.33471 -1.11759 0
M  V30 4464 H 419.819 -2.61883 -2.71472 0
M  V30 4465 H 422.206 -1.66729 -2.43486 0
M  V30 4466 H 422.287 -2.418 -0.834643 0
M  V30 4467 H 421.931 -4.70459 -1.91393 0
M  V30 4468 H 421.861 -3.92278 -3.5132 0
M  V30 4469 H 424.352 -3.06822 -2.20609 0
M  V30 4470 H 424.665 -6.61892 -3.98896 0
M  V30 4471 H 423.01 -5.94899 -3.59333 0
M  V30 4472 H 426.201 -3.84914 -2.66381 0
M  V30 4473 H 426.374 -5.46816 -3.47701 0
M  V30 4474 N 419.78 1.02168 -1.19998 0
M  V30 4475 C 420.712 2.10705 -0.901994 0
M  V30 4476 C 421.725 1.6244 0.108216 0
M  V30 4477 O 422.914 1.78082 -0.12214 0
M  V30 4478 C 420.014 3.37291 -0.329834 0
M  V30 4479 C 419.187 4.14714 -1.39035 0
M  V30 4480 C 418.246 5.19606 -0.830432 0
M  V30 4481 O 417.272 5.48809 -1.50989 0
M  V30 4482 N 418.474 5.79366 0.362696 0
M  V30 4483 H 421.239 2.36856 -1.83628 0
M  V30 4484 H 418.8 1.18518 -1.10296 0
M  V30 4485 H 420.792 4.04657 0.0587633 0
M  V30 4486 H 419.362 3.0843 0.508891 0
M  V30 4487 H 418.582 3.42392 -1.9535 0
M  V30 4488 H 419.87 4.63226 -2.10474 0
M  V30 4489 H 419.268 5.57968 0.932081 0
M  V30 4490 H 417.825 6.48106 0.69299 0
M  V30 4491 N 421.258 1.00505 1.21394 0
M  V30 4492 C 422.535 0.603277 1.86064 0
M  V30 4493 C 422.915 -0.919095 1.90042 0
M  V30 4494 O 422.263 -1.80607 1.39977 0
M  V30 4495 C 422.473 1.23772 3.26315 0
M  V30 4496 C 423.821 1.34586 4.02705 0
M  V30 4497 O 424.845 1.19304 3.35626 0
M  V30 4498 O 423.704 1.59169 5.22807 0
M  V30 4499 H 420.798 0.206634 0.800769 0
M  V30 4500 H 423.344 1.1017 1.29076 0
M  V30 4501 H 422.116 2.27848 3.18121 0
M  V30 4502 H 421.739 0.725648 3.90922 0
M  V30 4503 N 422.737 -1.36956 0.779787 0
M  V30 4504 C 423.647 -2.33965 0.172491 0
M  V30 4505 C 424.663 -1.60574 -0.670222 0
M  V30 4506 O 425.839 -1.92617 -0.588263 0
M  V30 4507 C 422.904 -3.39761 -0.690173 0
M  V30 4508 C 421.965 -4.28964 0.169924 0
M  V30 4509 C 421.198 -5.29707 -0.651662 0
M  V30 4510 O 421.421 -5.38238 -1.88827 0
M  V30 4511 O 420.355 -6.01873 -0.0566264 0
M  V30 4512 H 424.181 -2.87647 0.974321 0
M  V30 4513 H 421.766 -1.39258 0.541078 0
M  V30 4514 H 423.648 -4.04471 -1.1824 0
M  V30 4515 H 422.323 -2.88394 -1.47006 0
M  V30 4516 H 421.23 -3.67326 0.708696 0
M  V30 4517 H 422.563 -4.83656 0.913085 0
M  V30 4518 N 424.215 -0.530993 -1.48385 0
M  V30 4519 C 425.492 0.0671788 -1.95485 0
M  V30 4520 C 425.872 1.51191 -1.47324 0
M  V30 4521 O 425.22 2.17507 -0.700202 0
M  V30 4522 C 425.43 -0.0511206 -3.48963 0
M  V30 4523 C 426.778 0.107632 -4.24464 0
M  V30 4524 O 427.802 0.0226248 -3.56193 0
M  V30 4525 O 426.661 0.285972 -5.45751 0
M  V30 4526 H 423.755 0.0787365 -0.823243 0
M  V30 4527 H 426.301 -0.595662 -1.58902 0
M  V30 4528 H 425.073 -1.05747 -3.7674 0
M  V30 4529 H 424.696 0.650525 -3.92242 0
M  V30 4530 O 425.732 1.56259 -0.408071 0
M  V30 4531 H 426.423 1.93245 0.132688 0
M  V30 END ATOM
M  V30 BEGIN BOND
M  V30 END BOND
M  V30 END CTAB
M  END
$$$$
