drugbank_target|Q8DP79 Peptide deformylase (DB08523; DB08524; DB08525)
 OpenBabel12092120223D

  0  0  0     0  0            999 V3000
M  V30 BEGIN CTAB
M  V30 COUNTS 3195 3221 0 0 0
M  V30 BEGIN ATOM
M  V30 1 H -0.908 1.98254 -0.117106 0
M  V30 2 N 0 1.576 0 0
M  V30 3 C 0.933 2.03868 1.02534 0
M  V30 4 C 1.911 0.928543 1.3348 0
M  V30 5 O 3.095 1.19667 1.45644 0
M  V30 6 C 0.222 2.43627 2.35294 0
M  V30 7 C -0.732 3.65373 2.2001 0
M  V30 8 S 0.101 5.13292 1.52614 0
M  V30 9 C 1.257 5.56322 2.86805 0
M  V30 10 H 1.49 2.90518 0.631377 0
M  V30 11 H -0.977 1.52953 0.210867 0
M  V30 12 H 0.981 2.67203 3.11629 0
M  V30 13 H -0.358 1.57376 2.7183 0
M  V30 14 H -1.165 3.90944 3.18086 0
M  V30 15 H -1.563 3.418 1.51819 0
M  V30 16 H 0.729 5.58782 3.83104 0
M  V30 17 H 1.672 6.56266 2.65933 0
M  V30 18 H 2.08 4.83886 2.90714 0
M  V30 19 N 1.4781 -0.272755 1.55222 0
M  V30 20 C 2.7031 -1.02683 1.80197 0
M  V30 21 C 3.1281 -1.79142 0.573551 0
M  V30 22 O 2.4861 -1.74917 -0.476849 0
M  V30 23 C 2.5341 -1.9609 3.02624 0
M  V30 24 O 1.6381 -3.04863 2.77727 0
M  V30 25 H 0.9791 -0.293557 0.595584 0
M  V30 26 H 3.5091 -0.30159 2.02365 0
M  V30 27 H 3.5191 -2.38039 3.31363 0
M  V30 28 H 2.1941 -1.39851 3.91682 0
M  V30 29 H 0.7711 -2.67228 2.60084 0
M  V30 30 N 2.9562 -1.48159 -0.537278 0
M  V30 31 C 3.9192 -1.61665 -1.62472 0
M  V30 32 C 4.9192 -0.490395 -1.5314 0
M  V30 33 O 6.1092 -0.755998 -1.5694 0
M  V30 34 C 3.2412 -1.57997 -3.02076 0
M  V30 35 H 4.4342 -2.58621 -1.51839 0
M  V30 36 H 1.9872 -1.36647 -0.758771 0
M  V30 37 H 2.7222 -0.624913 -3.18222 0
M  V30 38 H 2.5072 -2.39755 -3.10258 0
M  V30 39 H 3.9972 -1.70627 -3.81151 0
M  V30 40 N 4.4343 0.785586 -1.36625 0
M  V30 41 C 5.6833 1.53883 -1.30396 0
M  V30 42 C 5.9963 1.95271 0.113452 0
M  V30 43 O 7.2023 2.69858 0.298142 0
M  V30 44 C 5.6583 2.77808 -2.28802 0
M  V30 45 C 5.2663 2.43574 -3.75999 0
M  V30 46 C 7.0103 3.55783 -2.31558 0
M  V30 47 C 4.9173 3.63919 -4.66173 0
M  V30 48 H 3.8473 0.577678 -0.484566 0
M  V30 49 H 6.4983 0.861705 -1.62009 0
M  V30 50 H 4.8803 3.47339 -1.90188 0
M  V30 51 H 6.0543 1.81916 -4.23371 0
M  V30 52 H 4.3693 1.78803 -3.76056 0
M  V30 53 H 6.9663 4.45205 -2.96137 0
M  V30 54 H 7.3093 3.94644 -1.3252 0
M  V30 55 H 7.8423 2.93235 -2.68809 0
M  V30 56 H 4.5813 3.3015 -5.66287 0
M  V30 57 H 4.1013 4.2473 -4.23515 0
M  V30 58 H 5.7803 4.30901 -4.82632 0
M  V30 59 N 5.9124 1.20967 1.01018 0
M  V30 60 C 6.8224 0.980157 2.13143 0
M  V30 61 C 7.8384 -0.0660665 1.73875 0
M  V30 62 O 9.0144 0.122821 2.01025 0
M  V30 63 C 6.0794 0.54216 3.42435 0
M  V30 64 C 5.1404 1.65999 3.95908 0
M  V30 65 C 4.3734 1.2428 5.19028 0
M  V30 66 O 4.5964 0.114196 5.70286 0
M  V30 67 O 3.5304 2.05271 5.65816 0
M  V30 68 H 7.3564 1.91913 2.35379 0
M  V30 69 H 4.9414 0.994099 1.11526 0
M  V30 70 H 6.8234 0.30744 4.20277 0
M  V30 71 H 5.4984 -0.36815 3.216 0
M  V30 72 H 4.4054 1.94906 3.19316 0
M  V30 73 H 5.7384 2.54753 4.21143 0
M  V30 74 N 7.3905 -1.2043 1.01659 0
M  V30 75 C 8.8065 -1.41852 0.731442 0
M  V30 76 C 9.0065 -1.89358 -0.688898 0
M  V30 77 O 8.0625 -2.06247 -1.45666 0
M  V30 78 C 9.3755 -2.44019 1.75714 0
M  V30 79 C 10.9235 -2.57785 1.77527 0
M  V30 80 C 11.3985 -3.63194 2.79023 0
M  V30 81 N 12.8895 -3.70678 2.77763 0
M  V30 82 C 13.6245 -4.51897 3.52954 0
M  V30 83 N 13.1205 -5.36921 4.37821 0
M  V30 84 N 14.9135 -4.4643 3.41551 0
M  V30 85 H 7.0645 -0.879093 1.93354 0
M  V30 86 H 9.3275 -0.448425 0.835236 0
M  V30 87 H 9.0335 -2.1611 2.77469 0
M  V30 88 H 8.9075 -3.43007 1.56927 0
M  V30 89 H 11.2945 -2.85023 0.764569 0
M  V30 90 H 11.3755 -1.58992 2.00387 0
M  V30 91 H 11.0195 -3.36699 3.80258 0
M  V30 92 H 10.9495 -4.61609 2.53425 0
M  V30 93 H 13.4405 -3.09944 2.16201 0
M  V30 94 H 13.7535 -5.95981 4.91962 0
M  V30 95 H 12.0985 -5.36424 4.41899 0
M  V30 96 H 15.2895 -3.79042 2.74672 0
M  V30 97 H 15.4625 -5.09491 4.00404 0
M  V30 98 N 8.8686 -0.792821 -1.36206 0
M  V30 99 C 10.1176 -0.363353 -1.984 0
M  V30 100 C 10.4306 1.07172 -1.63626 0
M  V30 101 O 11.6366 1.60362 -2.19081 0
M  V30 102 C 10.0926 -0.59872 -3.54885 0
M  V30 103 C 9.7006 -2.04543 -3.9858 0
M  V30 104 C 11.4446 -0.233926 -4.23855 0
M  V30 105 C 9.3516 -2.22727 -5.47856 0
M  V30 106 H 8.2816 -0.13212 -0.742334 0
M  V30 107 H 10.9326 -0.974935 -1.55458 0
M  V30 108 H 9.3146 0.0826222 -3.95914 0
M  V30 109 H 10.4886 -2.76345 -3.68741 0
M  V30 110 H 8.8036 -2.36879 -3.42458 0
M  V30 111 H 11.4006 -0.348027 -5.33566 0
M  V30 112 H 11.7436 0.818351 -4.08177 0
M  V30 113 H 12.2766 -0.868639 -3.882 0
M  V30 114 H 9.0156 -3.2635 -5.68486 0
M  V30 115 H 8.5356 -1.55434 -5.7931 0
M  V30 116 H 10.2146 -2.03607 -6.14128 0
M  V30 117 N 10.3467 1.47872 -0.545128 0
M  V30 118 C 11.5747 2.06889 -0.021084 0
M  V30 119 C 11.9897 1.39955 1.2672 0
M  V30 120 O 11.3467 0.492036 1.75742 0
M  V30 121 C 11.3977 3.60996 0.190817 0
M  V30 122 O 11.1187 4.25419 -1.04644 0
M  V30 123 C 12.6197 4.36849 0.753521 0
M  V30 124 H 9.8397 0.669785 -0.0403635 0
M  V30 125 H 12.3837 1.90049 -0.755095 0
M  V30 126 H 10.5387 3.77391 0.87492 0
M  V30 127 H 10.9527 5.17785 -0.836611 0
M  V30 128 H 12.4267 5.45399 0.851139 0
M  V30 129 H 12.9037 4.02306 1.762 0
M  V30 130 H 13.5097 4.25169 0.105503 0
M  V30 131 N 11.8248 0.280983 1.55075 0
M  V30 132 C 12.7718 -0.603937 2.22758 0
M  V30 133 C 13.7418 -1.1452 1.20309 0
M  V30 134 O 14.9268 -1.19343 1.48869 0
M  V30 135 C 12.0668 -1.77947 2.95684 0
M  V30 136 C 11.1798 -1.2715 4.12864 0
M  V30 137 C 10.3148 -2.4093 4.7342 0
M  V30 138 C 9.3538 -1.87165 5.82783 0
M  V30 139 N 8.4908 -2.94441 6.37377 0
M  V30 140 H 13.3308 -0.020124 2.97993 0
M  V30 141 H 10.8678 0.00183425 1.471 0
M  V30 142 H 12.8258 -2.47055 3.36184 0
M  V30 143 H 11.4558 -2.33522 2.22861 0
M  V30 144 H 10.5078 -0.473331 3.77444 0
M  V30 145 H 11.8198 -0.837751 4.91715 0
M  V30 146 H 10.9738 -3.18021 5.1667 0
M  V30 147 H 9.7128 -2.87623 3.93859 0
M  V30 148 H 8.7178 -1.08556 5.38976 0
M  V30 149 H 9.9428 -1.41401 6.64216 0
M  V30 150 H 7.8888 -3.40505 5.60707 0
M  V30 151 H 7.8058 -2.55501 7.11516 0
M  V30 152 H 9.0738 -3.71489 6.85285 0
M  V30 153 N 13.3029 -1.57598 0.00835791 0
M  V30 154 C 14.2659 -2.07884 -0.965242 0
M  V30 155 C 15.2659 -0.989825 -1.26725 0
M  V30 156 O 16.4559 -1.25218 -1.21104 0
M  V30 157 C 13.5879 -2.52731 -2.28779 0
M  V30 158 H 14.7809 -2.95178 -0.530112 0
M  V30 159 H 12.3339 -1.54458 -0.239283 0
M  V30 160 H 13.0689 -1.68705 -2.76964 0
M  V30 161 H 12.8539 -3.32272 -2.08177 0
M  V30 162 H 14.3439 -2.91933 -2.98605 0
M  V30 163 N 14.781 0.264519 -1.55364 0
M  V30 164 C 15.744 1.31046 -1.88042 0
M  V30 165 C 16.744 1.41943 -0.755569 0
M  V30 166 O 17.934 1.40947 -1.02369 0
M  V30 167 C 15.066 2.69067 -2.09323 0
M  V30 168 H 16.259 1.03297 -2.81549 0
M  V30 169 H 13.812 0.502989 -1.47986 0
M  V30 170 H 14.547 3.01982 -1.18226 0
M  V30 171 H 14.332 2.62542 -2.91229 0
M  V30 172 H 15.822 3.44623 -2.35848 0
M  V30 173 N 16.2591 1.48442 0.529413 0
M  V30 174 C 17.2091 1.59407 1.63014 0
M  V30 175 C 18.1931 0.451166 1.54445 0
M  V30 176 O 19.3851 0.702635 1.62456 0
M  V30 177 C 16.5141 1.63746 3.01732 0
M  V30 178 C 15.6001 2.83518 3.15402 0
M  V30 179 N 15.9911 4.07929 2.99045 0
M  V30 180 C 14.2891 2.80862 3.46457 0
M  V30 181 C 14.9901 4.8829 3.16146 0
M  V30 182 N 13.9661 4.21117 3.43746 0
M  V30 183 H 17.7681 2.53343 1.48978 0
M  V30 184 H 15.2821 1.44821 0.734885 0
M  V30 185 H 17.2791 1.69695 3.80801 0
M  V30 186 H 15.9391 0.709264 3.16859 0
M  V30 187 H 16.9501 4.38357 2.75796 0
M  V30 188 H 13.6271 1.97301 3.67938 0
M  V30 189 H 15.0171 5.97028 3.08232 0
M  V30 190 N 17.7372 -0.778329 1.37039 0
M  V30 191 C 18.6672 -1.90546 1.34962 0
M  V30 192 C 19.6482 -1.68681 0.219274 0
M  V30 193 O 20.8332 -1.89634 0.418624 0
M  V30 194 C 17.9632 -3.27734 1.14925 0
M  V30 195 C 16.9172 -3.64147 2.24902 0
M  V30 196 C 16.2432 -4.99806 1.89996 0
M  V30 197 C 17.5432 -3.71579 3.67051 0
M  V30 198 H 19.2372 -1.92541 2.29277 0
M  V30 199 H 16.7832 -0.924948 1.10366 0
M  V30 200 H 18.7362 -4.06215 1.12104 0
M  V30 201 H 17.4602 -3.26154 0.170631 0
M  V30 202 H 16.1192 -2.8797 2.26868 0
M  V30 203 H 15.7672 -4.94759 0.906796 0
M  V30 204 H 15.4672 -5.25139 2.63634 0
M  V30 205 H 16.9912 -5.80694 1.88749 0
M  V30 206 H 18.4052 -4.40227 3.67251 0
M  V30 207 H 16.8022 -4.08405 4.39688 0
M  V30 208 H 17.8722 -2.72404 4.01154 0
M  V30 209 N 19.2153 -1.21501 -1.00376 0
M  V30 210 C 20.4643 -1.02718 -1.73586 0
M  V30 211 C 20.7773 0.439589 -1.90596 0
M  V30 212 O 21.9833 0.746848 -2.61026 0
M  V30 213 C 20.4393 -1.78929 -3.1227 0
M  V30 214 C 20.0473 -3.29783 -3.03228 0
M  V30 215 C 21.7913 -1.68557 -3.89601 0
M  V30 216 C 19.6983 -3.98479 -4.36999 0
M  V30 217 H 18.6283 -0.380733 -0.650814 0
M  V30 218 H 21.2793 -1.45248 -1.1214 0
M  V30 219 H 19.6613 -1.29192 -3.74333 0
M  V30 220 H 20.8353 -3.86832 -2.50395 0
M  V30 221 H 19.1503 -3.40711 -2.39385 0
M  V30 222 H 21.7473 -2.17211 -4.88593 0
M  V30 223 H 22.0903 -0.644021 -4.11288 0
M  V30 224 H 22.6233 -2.15778 -3.34193 0
M  V30 225 H 19.3623 -5.02841 -4.20513 0
M  V30 226 H 18.8823 -3.46219 -4.89788 0
M  V30 227 H 20.5613 -4.03462 -5.05794 0
M  V30 228 N 20.6934 1.19889 -1.02296 0
M  V30 229 C 21.9704 1.85148 -0.630832 0
M  V30 230 C 22.3504 1.91385 0.890782 0
M  V30 231 O 21.6984 1.42642 1.78509 0
M  V30 232 C 21.9084 3.24442 -1.28602 0
M  V30 233 C 23.2564 4.00663 -1.4055 0
M  V30 234 O 24.2804 3.33818 -1.24273 0
M  V30 235 O 23.1394 5.20387 -1.66913 0
M  V30 236 H 20.2334 0.797613 -0.218499 0
M  V30 237 H 22.7794 1.27427 -1.12074 0
M  V30 238 H 21.5514 3.14704 -2.32545 0
M  V30 239 H 21.1744 3.89802 -0.7836 0
M  V30 240 N 22.1715 0.800033 1.35784 0
M  V30 241 C 23.1045 0.151499 2.27697 0
M  V30 242 C 24.0825 -0.678663 1.4776 0
M  V30 243 O 25.2665 -0.647358 1.77035 0
M  V30 244 C 22.3935 -0.790492 3.29346 0
M  V30 245 C 21.4395 -0.0407832 4.26481 0
M  V30 246 S 22.2725 1.29077 5.19711 0
M  V30 247 C 23.4285 0.353055 6.24903 0
M  V30 248 H 23.6615 0.930796 2.82353 0
M  V30 249 H 21.1945 0.594767 1.42485 0
M  V30 250 H 23.1525 -1.3285 3.88409 0
M  V30 251 H 21.8135 -1.54312 2.73581 0
M  V30 252 H 21.0065 -0.755971 4.98298 0
M  V30 253 H 20.6085 0.427063 3.71554 0
M  V30 254 H 22.9005 -0.464147 6.75908 0
M  V30 255 H 23.8435 1.04023 7.00418 0
M  V30 256 H 24.2515 -0.0483344 5.64479 0
M  V30 257 N 23.6496 -1.47581 0.552962 0
M  V30 258 C 24.5976 -2.31648 -0.21023 0
M  V30 259 C 25.5916 -1.42663 -0.913432 0
M  V30 260 O 26.7976 -1.5945 -0.835201 0
M  V30 261 H 23.1726 -0.746989 -0.0866676 0
M  V30 262 H 25.1436 -2.93869 0.518051 0
M  V30 263 C 23.8926 -3.25226 -1.22976 0
M  V30 264 H 23.2156 -3.93658 -0.698077 0
M  V30 265 H 24.6556 -3.86889 -1.73473 0
M  V30 266 C 23.1146 -2.48448 -2.27542 0
M  V30 267 O 23.6446 -2.22585 -3.34393 0
M  V30 268 N 21.8506 -2.09532 -2.01357 0
M  V30 269 H 21.3976 -2.30765 -1.14478 0
M  V30 270 H 21.3556 -1.58476 -2.71538 0
M  V30 271 N 25.1277 -0.289203 -1.54924 0
M  V30 272 C 26.4047 0.376032 -1.91951 0
M  V30 273 C 26.7847 1.72622 -1.21511 0
M  V30 274 O 26.1327 2.25853 -0.346767 0
M  V30 275 C 26.3427 0.502378 -3.45365 0
M  V30 276 C 27.6907 0.778741 -4.17398 0
M  V30 277 O 28.7147 0.586647 -3.51336 0
M  V30 278 O 27.5737 1.14698 -5.34328 0
M  V30 279 H 24.6677 0.208167 -0.800372 0
M  V30 280 H 27.2137 -0.336394 -1.66332 0
M  V30 281 H 25.9857 -0.447255 -3.88736 0
M  V30 282 H 25.6087 1.26373 -3.76982 0
M  V30 283 N 26.6058 1.57591 -0.0167156 0
M  V30 284 C 27.8548 1.90461 0.663877 0
M  V30 285 C 28.1678 0.893515 1.73999 0
M  V30 286 O 29.3738 1.11302 2.47637 0
M  V30 287 C 27.8298 3.38155 1.23204 0
M  V30 288 C 27.4378 4.47597 0.189866 0
M  V30 289 C 29.1818 3.80111 1.88986 0
M  V30 290 C 27.0888 5.86379 0.768964 0
M  V30 291 H 26.0188 0.710738 0.251729 0
M  V30 292 H 28.6698 1.83326 -0.0799926 0
M  V30 293 H 27.0518 3.40182 2.02712 0
M  V30 294 H 28.2258 4.57112 -0.581846 0
M  V30 295 H 26.5408 4.14766 -0.368475 0
M  V30 296 H 29.1378 4.81145 2.33247 0
M  V30 297 H 29.4808 3.14511 2.72743 0
M  V30 298 H 30.0138 3.80454 1.16187 0
M  V30 299 H 26.7528 6.55493 -0.0301957 0
M  V30 300 H 26.2728 5.80496 1.50945 0
M  V30 301 H 27.9518 6.34563 1.26251 0
M  V30 302 N 28.0839 -0.256276 1.55502 0
M  V30 303 C 29.3329 -0.983486 1.76098 0
M  V30 304 C 29.6459 -1.86837 0.578896 0
M  V30 305 O 30.8519 -2.63163 0.667648 0
M  V30 306 C 29.3079 -1.79868 3.1173 0
M  V30 307 C 28.9159 -0.961648 4.37557 0
M  V30 308 C 30.6599 -2.51919 3.41668 0
M  V30 309 C 28.5669 -1.77219 5.64223 0
M  V30 310 H 27.4969 -0.370936 0.656447 0
M  V30 311 H 30.1479 -0.238492 1.81944 0
M  V30 312 H 28.5299 -2.58527 2.99966 0
M  V30 313 H 29.7039 -0.218048 4.60284 0
M  V30 314 H 28.0189 -0.354913 4.14885 0
M  V30 315 H 30.6159 -3.12998 4.33516 0
M  V30 316 H 30.9589 -3.23059 2.62562 0
M  V30 317 H 31.4919 -1.80278 3.54605 0
M  V30 318 H 28.2309 -1.10471 6.46124 0
M  V30 319 H 27.7509 -2.49132 5.45613 0
M  V30 320 H 29.4299 -2.34169 6.03137 0
M  V30 321 N 29.562 -1.4872 -0.521534 0
M  V30 322 C 30.978 -1.35028 -0.850855 0
M  V30 323 C 31.178 -0.367712 -1.98116 0
M  V30 324 O 30.234 0.208037 -2.51642 0
M  V30 325 C 31.547 -2.75263 -1.21041 0
M  V30 326 C 33.095 -2.83813 -1.31981 0
M  V30 327 C 33.57 -4.24769 -1.71276 0
M  V30 328 N 35.061 -4.27482 -1.78363 0
M  V30 329 C 35.796 -5.33494 -2.1017 0
M  V30 330 N 35.292 -6.49775 -2.40343 0
M  V30 331 N 37.085 -5.20894 -2.11248 0
M  V30 332 H 29.236 -2.11214 0.22413 0
M  V30 333 H 31.499 -0.947252 0.0376439 0
M  V30 334 H 31.205 -3.48765 -0.453415 0
M  V30 335 H 31.079 -3.09327 -2.15863 0
M  V30 336 H 33.466 -2.10561 -2.06756 0
M  V30 337 H 33.547 -2.53358 -0.352596 0
M  V30 338 H 33.191 -4.9854 -0.970588 0
M  V30 339 H 33.121 -4.52673 -2.69062 0
M  V30 340 H 35.612 -3.43611 -1.57288 0
M  V30 341 H 35.925 -7.26402 -2.63743 0
M  V30 342 H 34.27 -6.53035 -2.37844 0
M  V30 343 H 37.461 -4.29065 -1.87139 0
M  V30 344 H 37.634 -6.03612 -2.35704 0
M  V30 345 N 31.0401 0.771051 -1.3745 0
M  V30 346 C 31.9501 1.91538 -1.35464 0
M  V30 347 C 32.9661 1.72134 -0.254123 0
M  V30 348 O 34.1421 1.95358 -0.489626 0
M  V30 349 C 31.2071 3.26671 -1.16134 0
M  V30 350 C 30.2681 3.58723 -2.35831 0
M  V30 351 C 29.5011 4.87409 -2.17413 0
M  V30 352 O 29.7241 5.58506 -1.15876 0
M  V30 353 O 28.6581 5.18539 -3.05615 0
M  V30 354 H 32.4841 1.96165 -2.31847 0
M  V30 355 H 30.0691 0.9139 -1.18187 0
M  V30 356 H 31.9511 4.07499 -1.07345 0
M  V30 357 H 30.6261 3.22894 -0.228251 0
M  V30 358 H 29.5331 2.78127 -2.50192 0
M  V30 359 H 30.8661 3.67243 -3.27709 0
M  V30 360 N 32.5182 1.22032 0.997298 0
M  V30 361 C 33.7662 1.04016 1.73278 0
M  V30 362 C 34.0872 -0.426255 1.90284 0
M  V30 363 O 33.3572 -1.30694 1.45931 0
M  V30 364 H 31.9372 0.381897 0.642 0
M  V30 365 H 34.5992 1.5347 1.20137 0
M  V30 366 H 33.6952 1.51441 2.72896 0
M  V30 367 N 33.9963 -1.19345 1.0293 0
M  V30 368 C 34.9443 -2.24621 0.604001 0
M  V30 369 C 35.9383 -1.65452 -0.363587 0
M  V30 370 O 37.1443 -1.78497 -0.23212 0
M  V30 371 H 33.5193 -0.730858 0.177061 0
M  V30 372 H 35.4903 -2.5781 1.50255 0
M  V30 373 C 34.2393 -3.47688 -0.0289127 0
M  V30 374 H 33.5623 -3.93505 0.706651 0
M  V30 375 H 35.0023 -4.23011 -0.289432 0
M  V30 376 C 33.4613 -3.11817 -1.2756 0
M  V30 377 O 33.9913 -3.2451 -2.36762 0
M  V30 378 N 32.1973 -2.66246 -1.16453 0
M  V30 379 H 31.7443 -2.56118 -0.275914 0
M  V30 380 H 31.7023 -2.42617 -1.99961 0
M  V30 381 N 35.4744 -0.807222 -1.35358 0
M  V30 382 C 36.8854 -0.44876 -1.81226 0
M  V30 383 C 37.2364 1.02929 -1.67033 0
M  V30 384 O 36.3614 1.79991 -1.20133 0
M  V30 385 C 36.9564 -0.807774 -3.2903 0
M  V30 386 C 35.5154 -0.501901 -3.73039 0
M  V30 387 C 34.6624 -1.03304 -2.57339 0
M  V30 388 H 37.6134 -0.998808 -1.23327 0
M  V30 389 H 37.6344 -0.10554 -3.80354 0
M  V30 390 H 37.1464 -1.88357 -3.39328 0
M  V30 391 H 35.2474 0.565128 -3.68289 0
M  V30 392 H 35.3604 -1.03497 -4.67787 0
M  V30 393 H 33.7244 -0.455339 -2.50597 0
M  V30 394 H 34.5074 -2.11496 -2.70415 0
M  V30 395 N 36.9525 1.47285 -0.560781 0
M  V30 396 C 38.1805 2.06855 -0.0430262 0
M  V30 397 C 38.5955 1.41291 1.25229 0
M  V30 398 O 37.9525 0.510648 1.7521 0
M  V30 399 C 38.0035 3.61178 0.152518 0
M  V30 400 O 37.7245 4.24285 -1.0915 0
M  V30 401 C 39.2255 4.37624 0.707145 0
M  V30 402 H 36.4455 0.669319 -0.0474652 0
M  V30 403 H 38.9895 1.89237 -0.77521 0
M  V30 404 H 37.1445 3.78298 0.834843 0
M  V30 405 H 37.5585 5.16868 -0.891482 0
M  V30 406 H 39.0325 5.46271 0.793244 0
M  V30 407 H 39.5095 4.04152 1.71923 0
M  V30 408 H 40.1155 4.25257 0.0604027 0
M  V30 409 N 38.4306 0.297415 1.54768 0
M  V30 410 C 39.3606 -0.573494 2.26348 0
M  V30 411 C 40.3416 -1.14085 1.26169 0
M  V30 412 O 41.5266 -1.17086 1.54934 0
M  V30 413 C 38.6566 -1.74716 3.00153 0
M  V30 414 C 37.6106 -1.31032 4.07449 0
M  V30 415 C 36.9366 -2.56887 4.68949 0
M  V30 416 C 38.2366 -0.444183 5.20408 0
M  V30 417 H 39.9306 0.0235131 2.99391 0
M  V30 418 H 37.4766 0.0127488 1.43994 0
M  V30 419 H 39.4296 -2.3625 3.48947 0
M  V30 420 H 38.1536 -2.37035 2.24682 0
M  V30 421 H 36.8126 -0.718066 3.59499 0
M  V30 422 H 36.4606 -3.17512 3.90122 0
M  V30 423 H 36.1606 -2.2836 5.41411 0
M  V30 424 H 37.6846 -3.19229 5.20505 0
M  V30 425 H 39.0986 -0.9651 5.65118 0
M  V30 426 H 37.4956 -0.252846 5.99567 0
M  V30 427 H 38.5656 0.531609 4.81977 0
M  V30 428 N 39.9087 -1.5758 0.0250728 0
M  V30 429 C 41.3247 -1.56124 -0.331282 0
M  V30 430 C 41.5247 -1.03029 -1.73169 0
M  V30 431 O 40.5807 -0.675215 -2.43305 0
M  V30 432 C 41.8937 -3.00139 -0.183584 0
M  V30 433 C 43.4417 -3.11946 -0.256654 0
M  V30 434 C 43.9167 -4.57793 -0.137792 0
M  V30 435 N 45.4077 -4.6279 -0.194904 0
M  V30 436 C 46.1427 -5.7326 -0.126655 0
M  V30 437 N 45.6387 -6.928 -0.00755288 0
M  V30 438 N 47.4317 -5.61811 -0.180348 0
M  V30 439 H 39.5827 -1.90424 0.94087 0
M  V30 440 H 41.8457 -0.875761 0.362968 0
M  V30 441 H 41.5517 -3.4292 0.780927 0
M  V30 442 H 41.4257 -3.64899 -0.955448 0
M  V30 443 H 43.8127 -2.69079 -1.21162 0
M  V30 444 H 43.8937 -2.49915 0.545517 0
M  V30 445 H 43.5377 -5.01339 0.813739 0
M  V30 446 H 43.4677 -5.17798 -0.958775 0
M  V30 447 H 45.9587 -3.76807 -0.287267 0
M  V30 448 H 46.2717 -7.72791 0.0379428 0
M  V30 449 H 44.6167 -6.94995 0.0271731 0
M  V30 450 H 47.8077 -4.6731 -0.271767 0
M  V30 451 H 47.9807 -6.47882 -0.123697 0
M  V30 452 N 41.3868 0.248026 -1.55636 0
M  V30 453 C 42.6148 0.993808 -1.81469 0
M  V30 454 C 43.0298 1.78991 -0.60064 0
M  V30 455 O 42.3868 1.77345 0.430682 0
M  V30 456 C 42.4378 1.93258 -3.05506 0
M  V30 457 O 42.1588 1.16869 -4.22224 0
M  V30 458 C 43.6598 2.79444 -3.4413 0
M  V30 459 H 40.8798 0.292486 -0.603898 0
M  V30 460 H 43.4238 0.271253 -2.02693 0
M  V30 461 H 41.5788 2.60943 -2.86335 0
M  V30 462 H 41.9928 1.80359 -4.92515 0
M  V30 463 H 43.4668 3.41066 -4.34026 0
M  V30 464 H 43.9438 3.50499 -2.64665 0
M  V30 465 H 44.5498 2.17214 -3.65648 0
M  V30 466 N 42.8649 1.48995 0.513639 0
M  V30 467 C 44.1109 1.58076 1.27042 0
M  V30 468 C 44.4439 0.261026 1.92438 0
M  V30 469 O 43.7189 -0.734393 1.80103 0
M  V30 470 C 44.0019 2.73091 2.34719 0
M  V30 471 C 43.8549 4.14821 1.73907 0
M  V30 472 C 45.1739 2.83796 3.36375 0
M  V30 473 H 42.2929 0.575391 0.460536 0
M  V30 474 H 44.9349 1.81232 0.570516 0
M  V30 475 H 43.0849 2.53479 2.94416 0
M  V30 476 H 44.7569 4.45917 1.18135 0
M  V30 477 H 42.9999 4.21058 1.0437 0
M  V30 478 H 43.6709 4.91147 2.51949 0
M  V30 479 H 46.1469 3.01611 2.86653 0
M  V30 480 H 45.0229 3.65971 4.09093 0
M  V30 481 H 45.2839 1.92624 3.9793 0
M  V30 482 N 44.343 -0.763751 1.37857 0
M  V30 483 C 45.306 -1.85889 1.34081 0
M  V30 484 C 46.306 -1.58949 0.243277 0
M  V30 485 O 47.496 -1.66882 0.499589 0
M  V30 486 C 44.628 -3.23176 1.08489 0
M  V30 487 H 45.821 -1.90648 2.31502 0
M  V30 488 H 43.374 -0.964367 1.23003 0
M  V30 489 H 44.109 -3.24091 0.116318 0
M  V30 490 H 43.894 -3.44124 1.8794 0
M  V30 491 H 45.384 -4.03254 1.08517 0
M  V30 492 N 45.8211 -1.22559 -0.990812 0
M  V30 493 C 46.7311 -1.01394 -2.11557 0
M  V30 494 C 47.7471 0.0383962 -1.73958 0
M  V30 495 O 48.9231 -0.154787 -2.00804 0
M  V30 496 C 45.9881 -0.596569 -3.41529 0
M  V30 497 C 45.0491 -1.72276 -3.93217 0
M  V30 498 C 44.2821 -1.32521 -5.16985 0
M  V30 499 O 44.5051 -0.204909 -5.70032 0
M  V30 500 O 43.4391 -2.14247 -5.62478 0
M  V30 501 H 47.2651 -1.95633 -2.32296 0
M  V30 502 H 44.8501 -1.01172 -1.0993 0
M  V30 503 H 46.7321 -0.374263 -4.19735 0
M  V30 504 H 45.4071 0.316939 -3.22145 0
M  V30 505 H 44.3141 -1.99961 -3.16174 0
M  V30 506 H 45.6471 -2.61421 -4.17037 0
M  V30 507 N 47.2992 1.18797 -1.03562 0
M  V30 508 C 48.2092 2.25913 -0.632505 0
M  V30 509 C 49.2252 1.70668 0.338882 0
M  V30 510 O 50.4012 2.00453 0.195076 0
M  V30 511 C 47.4662 3.467 0.00350942 0
M  V30 512 C 46.5272 4.17098 -1.01624 0
M  V30 513 C 45.7602 5.32119 -0.410478 0
M  V30 514 O 45.9832 5.64976 0.784725 0
M  V30 515 O 44.9172 5.9107 -1.13667 0
M  V30 516 H 48.7432 2.62648 -1.52478 0
M  V30 517 H 46.3282 1.25781 -0.806195 0
M  V30 518 H 48.2102 4.19878 0.35781 0
M  V30 519 H 46.8852 3.11798 0.869686 0
M  V30 520 H 45.7922 3.4601 -1.42224 0
M  V30 521 H 47.1252 4.55987 -1.85301 0
M  V30 522 N 48.7773 0.814389 1.34928 0
M  V30 523 C 50.0233 0.399013 1.98836 0
M  V30 524 C 50.3563 -1.03314 1.64438 0
M  V30 525 O 49.6313 -1.71811 0.911659 0
M  V30 526 C 49.9143 0.591629 3.55207 0
M  V30 527 C 49.7673 2.06928 3.99376 0
M  V30 528 C 51.0863 0.022199 4.40094 0
M  V30 529 H 48.2053 0.146451 0.722303 0
M  V30 530 H 50.8473 1.02537 1.59957 0
M  V30 531 H 48.9973 0.0584441 3.88456 0
M  V30 532 H 50.6693 2.66544 3.76499 0
M  V30 533 H 48.9123 2.56287 3.49999 0
M  V30 534 H 49.5833 2.1549 5.08201 0
M  V30 535 H 52.0593 0.477643 4.13349 0
M  V30 536 H 50.9353 0.186832 5.48582 0
M  V30 537 H 51.1963 -1.07215 4.28902 0
M  V30 538 N 50.2554 -1.46986 0.568584 0
M  V30 539 C 51.4834 -2.0683 0.0539956 0
M  V30 540 C 51.8984 -1.41953 -1.24478 0
M  V30 541 O 51.2554 -0.519933 -1.74937 0
M  V30 542 C 51.3064 -3.61254 -0.133362 0
M  V30 543 O 51.0274 -4.237 1.11399 0
M  V30 544 C 52.5284 -4.37992 -0.683927 0
M  V30 545 H 49.7484 -0.669058 0.0510141 0
M  V30 546 H 52.2924 -1.88824 0.785234 0
M  V30 547 H 50.4474 -3.78735 -0.81477 0
M  V30 548 H 50.8614 -5.16388 0.91888 0
M  V30 549 H 52.3354 -5.46684 -0.764263 0
M  V30 550 H 52.8124 -4.05058 -1.69778 0
M  V30 551 H 53.4184 -4.25283 -0.0378494 0
M  V30 552 N 51.7335 -0.305618 -1.54608 0
M  V30 553 C 52.9805 0.302298 -2.00231 0
M  V30 554 C 53.3085 1.5354 -1.19398 0
M  V30 555 O 52.5635 1.93973 -0.259423 0
M  V30 556 C 52.8625 0.698983 -3.50498 0
M  V30 557 C 52.5285 -0.432903 -4.48817 0
M  V30 558 C 51.1905 -0.743622 -4.75419 0
M  V30 559 C 53.5425 -1.19409 -5.07337 0
M  V30 560 C 50.8705 -1.81857 -5.57804 0
M  V30 561 C 53.2225 -2.25899 -5.90891 0
M  V30 562 C 51.8865 -2.57572 -6.15803 0
M  V30 563 H 51.1565 0.110619 -0.732697 0
M  V30 564 H 53.8035 -0.425674 -1.86709 0
M  V30 565 H 52.1085 1.50711 -3.61654 0
M  V30 566 H 53.8055 1.1806 -3.83227 0
M  V30 567 H 50.3955 -0.18063 -4.28219 0
M  V30 568 H 54.5795 -0.967295 -4.86782 0
M  V30 569 H 49.8355 -2.06864 -5.75341 0
M  V30 570 H 54.0095 -2.85335 -6.35261 0
M  V30 571 H 51.6365 -3.40998 -6.7943 0
M  V30 572 N 53.2116 1.57565 -0.0334293 0
M  V30 573 C 54.6226 1.79746 0.504798 0
M  V30 574 C 54.9736 0.944091 1.71992 0
M  V30 575 O 54.0986 0.155694 2.15839 0
M  V30 576 C 54.6936 3.25997 0.922567 0
M  V30 577 C 53.2526 3.49159 1.40588 0
M  V30 578 C 52.3996 2.74785 0.372633 0
M  V30 579 H 55.3506 1.56565 -0.259436 0
M  V30 580 H 55.3716 3.35945 1.78666 0
M  V30 581 H 54.8836 3.88081 0.0379825 0
M  V30 582 H 52.9846 2.92332 2.31025 0
M  V30 583 H 53.0976 4.57873 1.41028 0
M  V30 584 H 51.4616 2.40391 0.841672 0
M  V30 585 H 52.2446 3.39587 -0.503559 0
M  V30 586 N 54.6897 -0.239769 1.55765 0
M  V30 587 C 55.6197 -1.30052 1.9393 0
M  V30 588 C 56.6007 -1.49839 0.805132 0
M  V30 589 O 57.7857 -1.62328 1.06599 0
M  V30 590 C 54.9157 -2.65391 2.2402 0
M  V30 591 C 53.8697 -2.60289 3.39755 0
M  V30 592 C 53.1957 -3.99489 3.55405 0
M  V30 593 C 54.4957 -2.16654 4.75246 0
M  V30 594 H 56.1897 -0.983573 2.82783 0
M  V30 595 H 53.7357 -0.471701 1.36055 0
M  V30 596 H 55.6887 -3.3974 2.49308 0
M  V30 597 H 54.4127 -2.98736 1.32 0
M  V30 598 H 53.0717 -1.88398 3.14487 0
M  V30 599 H 52.7197 -4.30112 2.60793 0
M  V30 600 H 52.4197 -3.96962 4.33238 0
M  V30 601 H 53.9437 -4.75528 3.83022 0
M  V30 602 H 55.3577 -2.80737 4.99859 0
M  V30 603 H 53.7547 -2.25223 5.56232 0
M  V30 604 H 54.8247 -1.11835 4.71827 0
M  V30 605 N 56.1678 -1.49265 -0.50573 0
M  V30 606 C 57.3928 -1.62478 -1.28902 0
M  V30 607 C 57.8178 -0.294332 -1.85783 0
M  V30 608 O 57.1758 0.737412 -1.65626 0
M  V30 609 C 57.2238 -2.69268 -2.39848 0
M  V30 610 O 56.3278 -2.28113 -3.43567 0
M  V30 611 H 55.6688 -0.54399 -0.380751 0
M  V30 612 H 58.1988 -1.95421 -0.605952 0
M  V30 613 H 58.2088 -2.91291 -2.85681 0
M  V30 614 H 56.8838 -3.65846 -1.97812 0
M  V30 615 H 55.4608 -2.16401 -3.03685 0
M  V30 616 N 57.6459 0.756429 -1.3826 0
M  V30 617 C 58.9229 1.50584 -1.24835 0
M  V30 618 C 59.3029 2.10556 0.151485 0
M  V30 619 O 58.6509 1.96825 1.1607 0
M  V30 620 C 58.8609 2.57448 -2.3563 0
M  V30 621 C 60.2089 3.24429 -2.73917 0
M  V30 622 O 61.2329 2.67751 -2.34921 0
M  V30 623 O 60.0919 4.26937 -3.41156 0
M  V30 624 H 57.1859 0.667664 -0.48801 0
M  V30 625 H 59.7319 0.792083 -1.5008 0
M  V30 626 H 58.5039 2.11362 -3.29305 0
M  V30 627 H 58.1269 3.36408 -2.11933 0
M  V30 628 N 59.124 1.23083 0.984299 0
M  V30 629 C 60.056 0.96636 2.07832 0
M  V30 630 C 61.069 -0.0582135 1.62696 0
M  V30 631 O 62.258 0.176843 1.77622 0
M  V30 632 C 59.358 0.433397 3.36117 0
M  V30 633 C 58.531 1.51722 4.10243 0
M  V30 634 C 57.59 0.989821 5.16807 0
M  V30 635 O 56.616 1.67794 5.43906 0
M  V30 636 N 57.818 -0.184367 5.80207 0
M  V30 637 H 60.583 1.90824 2.31098 0
M  V30 638 H 58.144 1.13888 1.1507 0
M  V30 639 H 60.136 0.065699 4.04647 0
M  V30 640 H 58.706 -0.413806 3.09849 0
M  V30 641 H 57.926 2.05786 3.36223 0
M  V30 642 H 59.214 2.24619 4.56534 0
M  V30 643 H 58.612 -0.760062 5.60571 0
M  V30 644 H 57.169 -0.493366 6.4993 0
M  V30 645 N 60.6021 -1.18246 1.0419 0
M  V30 646 C 61.5121 -2.25574 0.644476 0
M  V30 647 C 62.5281 -1.70845 -0.329826 0
M  V30 648 O 63.7041 -2.00554 -0.184443 0
M  V30 649 C 60.7691 -3.46697 0.014877 0
M  V30 650 C 59.8301 -4.16554 1.03834 0
M  V30 651 C 59.0631 -5.31894 0.438692 0
M  V30 652 O 59.2861 -5.65385 -0.754752 0
M  V30 653 O 58.2201 -5.90459 1.168 0
M  V30 654 H 62.0461 -2.61836 1.53869 0
M  V30 655 H 59.6311 -1.25352 0.812854 0
M  V30 656 H 61.5131 -4.20062 -0.335538 0
M  V30 657 H 60.1881 -3.12255 -0.853138 0
M  V30 658 H 59.0951 -3.45251 1.44057 0
M  V30 659 H 60.4281 -4.54998 1.87716 0
M  V30 660 N 62.0802 -0.821533 -1.34494 0
M  V30 661 C 63.3292 -0.405355 -1.97585 0
M  V30 662 C 63.6422 1.03677 -1.65863 0
M  V30 663 O 64.8482 1.55679 -2.22433 0
M  V30 664 C 63.3042 -0.673861 -3.53535 0
M  V30 665 C 62.9122 -2.12951 -3.94152 0
M  V30 666 C 64.6562 -0.32378 -4.23263 0
M  V30 667 C 62.5632 -2.34298 -5.43009 0
M  V30 668 H 61.4932 -0.147836 -0.739365 0
M  V30 669 H 64.1442 -1.00769 -1.53355 0
M  V30 670 H 62.5262 -0.00137554 -3.96 0
M  V30 671 H 63.7002 -2.84104 -3.62797 0
M  V30 672 H 62.0152 -2.44089 -3.37356 0
M  V30 673 H 64.6122 -0.461126 -5.32708 0
M  V30 674 H 64.9552 0.731586 -4.09821 0
M  V30 675 H 65.4882 -0.950786 -3.8627 0
M  V30 676 H 62.2272 -3.38335 -5.61435 0
M  V30 677 H 61.7472 -1.67687 -5.75883 0
M  V30 678 H 63.4262 -2.16588 -6.09671 0
M  V30 679 N 63.5583 1.46682 -0.576371 0
M  V30 680 C 64.8073 2.01619 -0.0572825 0
M  V30 681 C 65.1203 1.45417 1.30818 0
M  V30 682 O 66.3263 1.92133 1.91825 0
M  V30 683 C 64.7823 3.59863 -0.0518371 0
M  V30 684 C 64.3903 4.25059 -1.41523 0
M  V30 685 C 66.1343 4.2248 0.413639 0
M  V30 686 C 64.0413 5.75364 -1.36785 0
M  V30 687 H 62.9713 0.753794 -0.0176448 0
M  V30 688 H 65.6223 1.68481 -0.727076 0
M  V30 689 H 64.0043 3.90048 0.683994 0
M  V30 690 H 65.1783 4.06491 -2.17029 0
M  V30 691 H 63.4933 3.7451 -1.8202 0
M  V30 692 H 66.0903 5.3265 0.467779 0
M  V30 693 H 66.4333 3.90976 1.42982 0
M  V30 694 H 66.9663 3.96897 -0.267929 0
M  V30 695 H 63.7053 6.11518 -2.36063 0
M  V30 696 H 63.2253 5.96214 -0.654895 0
M  V30 697 H 64.9043 6.37955 -1.07805 0
M  V30 698 N 65.0364 0.313813 1.54444 0
M  V30 699 C 65.9664 -0.549454 2.26943 0
M  V30 700 C 66.9474 -1.12741 1.27372 0
M  V30 701 O 68.1324 -1.15436 1.56167 0
M  V30 702 C 65.2624 -1.71523 3.01989 0
M  V30 703 C 64.2164 -1.26703 4.08816 0
M  V30 704 C 63.5424 -2.51898 4.71647 0
M  V30 705 C 64.8424 -0.388962 5.2085 0
M  V30 706 H 66.5364 0.0552661 2.99349 0
M  V30 707 H 64.0824 0.0280207 1.43973 0
M  V30 708 H 66.0354 -2.32535 3.51433 0
M  V30 709 H 64.7594 -2.34639 2.27183 0
M  V30 710 H 63.4184 -0.679896 3.6024 0
M  V30 711 H 63.0664 -3.13356 3.93468 0
M  V30 712 H 62.7664 -2.22605 5.43802 0
M  V30 713 H 64.2904 -3.1369 5.23861 0
M  V30 714 H 65.7044 -0.905107 5.6611 0
M  V30 715 H 64.1014 -0.18924 5.99802 0
M  V30 716 H 65.1714 0.582699 4.81386 0
M  V30 717 N 66.5145 -1.57545 0.0417849 0
M  V30 718 C 67.7625 -1.91937 -0.632829 0
M  V30 719 C 68.0835 -0.919978 -1.71934 0
M  V30 720 O 67.3535 0.0366064 -1.95866 0
M  V30 721 H 65.9335 -0.708493 -0.236742 0
M  V30 722 H 68.5955 -1.9468 0.0925745 0
M  V30 723 H 67.6915 -2.92912 -1.07746 0
M  V30 724 N 67.9926 0.231505 -1.5589 0
M  V30 725 C 68.9026 1.308 -1.94752 0
M  V30 726 C 69.9186 1.51826 -0.849989 0
M  V30 727 O 71.0946 1.6515 -1.15271 0
M  V30 728 C 68.1596 2.63968 -2.24771 0
M  V30 729 C 67.2206 2.51331 -3.48039 0
M  V30 730 C 66.4536 3.78148 -3.76616 0
M  V30 731 O 66.6766 4.80722 -3.07022 0
M  V30 732 O 65.6106 3.75857 -4.70123 0
M  V30 733 H 69.4366 1.0083 -2.86474 0
M  V30 734 H 67.0216 0.433547 -1.42971 0
M  V30 735 H 68.9036 3.42633 -2.45318 0
M  V30 736 H 67.5786 2.9364 -1.36225 0
M  V30 737 H 66.4856 1.709 -3.32782 0
M  V30 738 H 67.8186 2.26601 -4.36936 0
M  V30 739 N 69.4707 1.49531 0.497807 0
M  V30 740 C 70.4177 1.66436 1.59899 0
M  V30 741 C 71.3877 0.505793 1.58212 0
M  V30 742 O 72.5727 0.733202 1.7615 0
M  V30 743 C 69.7127 1.7399 2.98029 0
M  V30 744 C 68.8257 3.01172 3.09708 0
M  V30 745 C 67.9607 2.99686 4.38591 0
M  V30 746 C 66.9997 4.21434 4.43914 0
M  V30 747 N 66.1367 4.1784 5.64229 0
M  V30 748 H 70.9767 2.60459 1.44793 0
M  V30 749 H 68.5137 1.29137 0.704423 0
M  V30 750 H 70.4717 1.76352 3.78095 0
M  V30 751 H 69.1017 0.834301 3.11832 0
M  V30 752 H 68.1537 3.08408 2.22685 0
M  V30 753 H 69.4657 3.91165 3.09502 0
M  V30 754 H 68.6197 3.00628 5.2698 0
M  V30 755 H 67.3587 2.07477 4.41367 0
M  V30 756 H 66.3637 4.20733 3.53926 0
M  V30 757 H 67.5887 5.14839 4.42851 0
M  V30 758 H 65.5347 3.28469 5.67841 0
M  V30 759 H 65.4517 5.01571 5.65652 0
M  V30 760 H 66.7197 4.22889 6.54817 0
M  V30 761 N 70.9488 -0.749086 1.3866 0
M  V30 762 C 71.8818 -1.87111 1.30631 0
M  V30 763 C 72.8598 -1.61572 0.18251 0
M  V30 764 O 74.0438 -1.85019 0.360592 0
M  V30 765 C 71.1708 -3.22815 1.02511 0
M  V30 766 C 70.2168 -3.67234 2.1689 0
M  V30 767 S 71.0498 -3.78245 3.79066 0
M  V30 768 C 72.2058 -5.16761 3.53142 0
M  V30 769 H 72.4388 -1.93636 2.25594 0
M  V30 770 H 69.9718 -0.912525 1.24549 0
M  V30 771 H 71.9298 -4.01181 0.869701 0
M  V30 772 H 70.5908 -3.13964 0.0925884 0
M  V30 773 H 69.7838 -4.65677 1.92771 0
M  V30 774 H 69.3858 -2.96034 2.28561 0
M  V30 775 H 71.6778 -6.02656 3.09534 0
M  V30 776 H 72.6208 -5.45902 4.50995 0
M  V30 777 H 73.0288 -4.85771 2.87554 0
M  V30 778 N 72.4269 -1.23603 -0.977757 0
M  V30 779 C 73.3599 -0.962772 -2.06896 0
M  V30 780 C 74.3379 0.0998743 -1.62293 0
M  V30 781 O 75.5219 -0.0349421 -1.88468 0
M  V30 782 C 72.6489 -0.45095 -3.35685 0
M  V30 783 C 71.6949 -1.50061 -3.99229 0
M  V30 784 S 72.5279 -3.07884 -4.38142 0
M  V30 785 C 73.6839 -2.58378 -5.7008 0
M  V30 786 H 73.9169 -1.88677 -2.29757 0
M  V30 787 H 71.4499 -1.06876 -1.11431 0
M  V30 788 H 73.4079 -0.162261 -4.10179 0
M  V30 789 H 72.0689 0.452179 -3.10828 0
M  V30 790 H 71.2619 -1.09269 -4.92013 0
M  V30 791 H 70.8639 -1.73878 -3.31123 0
M  V30 792 H 73.1559 -2.00563 -6.47133 0
M  V30 793 H 74.0989 -3.49711 -6.15717 0
M  V30 794 H 74.5069 -1.99143 -5.28207 0
M  V30 795 N 73.905 1.17692 -1.04816 0
M  V30 796 C 74.837 2.21103 -0.603822 0
M  V30 797 C 75.85 1.59411 0.33046 0
M  V30 798 O 77.039 1.7807 0.12379 0
M  V30 799 C 74.139 3.38623 0.136898 0
M  V30 800 C 73.312 4.29888 -0.807137 0
M  V30 801 C 72.371 5.26088 -0.10836 0
M  V30 802 O 71.397 5.64353 -0.741232 0
M  V30 803 N 72.599 5.68882 1.15558 0
M  V30 804 H 75.364 2.59848 -1.49329 0
M  V30 805 H 72.925 1.32553 -0.929587 0
M  V30 806 H 74.917 4.00009 0.614401 0
M  V30 807 H 73.487 2.98508 0.927993 0
M  V30 808 H 72.707 3.65993 -1.46434 0
M  V30 809 H 73.995 4.87759 -1.44807 0
M  V30 810 H 73.393 5.39861 1.69015 0
M  V30 811 H 71.95 6.32429 1.57722 0
M  V30 812 N 75.3831 0.828654 1.34056 0
M  V30 813 C 76.6301 0.419458 1.98108 0
M  V30 814 C 76.9581 -1.01886 1.65679 0
M  V30 815 O 76.2131 -1.72539 0.923512 0
M  V30 816 C 76.5121 0.575226 3.52741 0
M  V30 817 C 76.1781 1.98012 4.05095 0
M  V30 818 C 74.8401 2.36442 4.19104 0
M  V30 819 C 77.1921 2.89824 4.33188 0
M  V30 820 C 74.5201 3.66009 4.58535 0
M  V30 821 C 76.8721 4.1886 4.74066 0
M  V30 822 C 75.5361 4.5726 4.86281 0
M  V30 823 H 74.8061 0.153491 0.724929 0
M  V30 824 H 77.4531 1.05371 1.59904 0
M  V30 825 H 75.7581 -0.142385 3.91541 0
M  V30 826 H 77.4551 0.239057 4.00287 0
M  V30 827 H 74.0451 1.67162 3.94658 0
M  V30 828 H 78.2291 2.61375 4.21897 0
M  V30 829 H 73.4851 3.95579 4.66184 0
M  V30 830 H 77.6591 4.90086 4.94761 0
M  V30 831 H 75.2861 5.57707 5.16592 0
M  V30 832 N 76.8612 -1.46375 0.584142 0
M  V30 833 C 77.7912 -2.33103 -0.136037 0
M  V30 834 C 78.7722 -1.45431 -0.882255 0
M  V30 835 O 79.9572 -1.74246 -0.857434 0
M  V30 836 C 77.0872 -3.27731 -1.14933 0
M  V30 837 C 76.0412 -4.24855 -0.517862 0
M  V30 838 C 75.3672 -5.09001 -1.63773 0
M  V30 839 C 76.6672 -5.19439 0.545886 0
M  V30 840 H 78.3612 -2.93568 0.588086 0
M  V30 841 H 75.9072 -1.41166 0.284259 0
M  V30 842 H 77.8602 -3.87261 -1.66153 0
M  V30 843 H 76.5842 -2.65377 -1.90375 0
M  V30 844 H 75.2432 -3.6659 -0.0267361 0
M  V30 845 H 74.8912 -4.43031 -2.38185 0
M  V30 846 H 74.5912 -5.74777 -1.22085 0
M  V30 847 H 76.1152 -5.71396 -2.15266 0
M  V30 848 H 77.5292 -5.73177 0.118704 0
M  V30 849 H 75.9262 -5.93566 0.88317 0
M  V30 850 H 76.9962 -4.63285 1.43162 0
M  V30 851 N 78.3393 -0.321999 -1.54275 0
M  V30 852 C 79.2863 0.544664 -2.24281 0
M  V30 853 C 80.2563 1.1129 -1.23303 0
M  V30 854 O 81.4413 1.15354 -1.51981 0
M  V30 855 C 78.5813 1.70045 -3.00298 0
M  V30 856 C 77.6943 1.16159 -4.1609 0
M  V30 857 C 76.8293 2.28293 -4.79641 0
M  V30 858 C 75.8683 1.71648 -5.8754 0
M  V30 859 N 75.0053 2.77438 -6.44959 0
M  V30 860 H 79.8453 -0.0588907 -2.97942 0
M  V30 861 H 77.3823 -0.0408345 -1.47043 0
M  V30 862 H 79.3403 2.38054 -3.42616 0
M  V30 863 H 77.9703 2.27531 -2.28975 0
M  V30 864 H 77.0223 0.373092 -3.78566 0
M  V30 865 H 78.3343 0.707087 -4.93763 0
M  V30 866 H 77.4883 3.0421 -5.2492 0
M  V30 867 H 76.2273 2.77079 -4.01346 0
M  V30 868 H 75.2323 0.942282 -5.41665 0
M  V30 869 H 76.4573 1.23741 -6.67731 0
M  V30 870 H 74.4033 3.25519 -5.69538 0
M  V30 871 H 74.3203 2.36547 -7.1804 0
M  V30 872 H 75.5883 3.53189 -6.94894 0
M  V30 873 N 79.8174 1.5752 -0.0501392 0
M  V30 874 C 80.7674 2.07981 0.934231 0
M  V30 875 C 81.7514 0.984745 1.27246 0
M  V30 876 O 82.9434 1.24809 1.25506 0
M  V30 877 C 80.0724 2.62751 2.20945 0
M  V30 878 C 79.1584 3.79225 1.89865 0
M  V30 879 N 79.5494 4.89036 1.29142 0
M  V30 880 C 77.8474 3.88111 2.19741 0
M  V30 881 C 78.5484 5.70084 1.15669 0
M  V30 882 N 77.5244 5.17659 1.65923 0
M  V30 883 H 81.3264 2.90277 0.460053 0
M  V30 884 H 78.8404 1.61665 0.15434 0
M  V30 885 H 80.8374 2.97205 2.9236 0
M  V30 886 H 79.4974 1.81894 2.6897 0
M  V30 887 H 80.5084 5.08854 0.963756 0
M  V30 888 H 77.1854 3.18194 2.70293 0
M  V30 889 H 78.5754 6.68395 0.685356 0
M  V30 890 N 81.2955 -0.223234 1.56011 0
M  V30 891 C 82.5205 -0.968978 1.83373 0
M  V30 892 C 82.9455 -1.77227 0.630254 0
M  V30 893 O 82.3035 -1.76345 -0.420959 0
M  V30 894 C 82.3515 -1.86363 3.08709 0
M  V30 895 O 81.4555 -2.95873 2.87285 0
M  V30 896 H 80.7965 -0.274461 0.604622 0
M  V30 897 H 83.3265 -0.237056 2.03222 0
M  V30 898 H 83.3365 -2.27376 3.38768 0
M  V30 899 H 82.0115 -1.27319 3.95933 0
M  V30 900 H 80.5885 -2.58818 2.68454 0
M  V30 901 N 82.7736 -1.49793 -0.48987 0
M  V30 902 C 83.7056 -1.63413 -1.60713 0
M  V30 903 C 84.7186 -0.516329 -1.54395 0
M  V30 904 O 85.9076 -0.788812 -1.60125 0
M  V30 905 C 83.0076 -1.58516 -2.99543 0
M  V30 906 C 82.1806 -2.86016 -3.30928 0
M  V30 907 C 81.2396 -2.74018 -4.49222 0
M  V30 908 O 80.2656 -3.47964 -4.50455 0
M  V30 909 N 81.4676 -1.86309 -5.4979 0
M  V30 910 H 84.2326 -2.59777 -1.49452 0
M  V30 911 H 81.7936 -1.47022 -0.677955 0
M  V30 912 H 83.7856 -1.48128 -3.76617 0
M  V30 913 H 82.3556 -0.69965 -3.0467 0
M  V30 914 H 81.5756 -3.10672 -2.42645 0
M  V30 915 H 82.8636 -3.70521 -3.487 0
M  V30 916 H 82.2616 -1.2551 -5.51601 0
M  V30 917 H 80.8186 -1.81837 -6.25922 0
M  V30 918 N 84.2517 0.741722 -1.39055 0
M  V30 919 C 85.5287 1.49252 -1.26425 0
M  V30 920 C 85.9087 2.10705 0.129144 0
M  V30 921 O 85.2567 1.98045 1.13976 0
M  V30 922 C 85.4667 2.54934 -2.38347 0
M  V30 923 C 86.8147 3.21506 -2.77343 0
M  V30 924 O 87.8387 2.65245 -2.37747 0
M  V30 925 O 86.6977 4.23294 -3.45665 0
M  V30 926 H 83.7917 0.662451 -0.495064 0
M  V30 927 H 86.3377 0.776121 -1.50912 0
M  V30 928 H 85.1097 2.07857 -3.31529 0
M  V30 929 H 84.7327 3.34141 -2.15489 0
M  V30 930 N 85.7298 1.2412 0.971189 0
M  V30 931 C 87.1408 1.07236 1.52831 0
M  V30 932 C 87.4918 -0.357352 1.92918 0
M  V30 933 O 86.6168 -1.24528 1.76979 0
M  V30 934 C 87.2118 1.94043 2.77728 0
M  V30 935 C 85.7708 1.81394 3.29808 0
M  V30 936 C 84.9178 1.89189 2.02738 0
M  V30 937 H 87.8688 1.37648 0.789864 0
M  V30 938 H 87.8898 1.47066 3.5093 0
M  V30 939 H 87.4018 2.98093 2.4852 0
M  V30 940 H 85.5028 0.801634 3.63874 0
M  V30 941 H 85.6158 2.65294 3.98944 0
M  V30 942 H 83.9798 1.32877 2.17292 0
M  V30 943 H 84.7628 2.94812 1.759 0
M  V30 944 N 87.2079 -1.17134 1.05439 0
M  V30 945 C 88.4539 -1.87733 0.767077 0
M  V30 946 C 88.7869 -1.8098 -0.704253 0
M  V30 947 O 88.0619 -1.21951 -1.5152 0
M  V30 948 C 88.3449 -3.37659 1.25133 0
M  V30 949 C 88.1979 -3.53149 2.78578 0
M  V30 950 C 89.5169 -4.31768 0.852324 0
M  V30 951 H 86.6359 -0.681687 0.280129 0
M  V30 952 H 89.2779 -1.37732 1.30881 0
M  V30 953 H 87.4279 -3.80373 0.790469 0
M  V30 954 H 89.0999 -3.19434 3.32806 0
M  V30 955 H 87.3429 -2.95345 3.17732 0
M  V30 956 H 88.0139 -4.58403 3.07523 0
M  V30 957 H 90.4899 -3.96909 1.24911 0
M  V30 958 H 89.3659 -5.35199 1.21873 0
M  V30 959 H 89.6269 -4.41429 -0.243485 0
M  V30 960 N 88.686 -0.835752 -1.33615 0
M  V30 961 C 89.619 -0.211815 -2.27215 0
M  V30 962 C 90.597 0.639249 -1.49507 0
M  V30 963 O 91.781 0.600193 -1.78689 0
M  V30 964 C 88.908 0.702893 -3.31326 0
M  V30 965 C 87.954 -0.0723049 -4.26439 0
M  V30 966 S 88.787 -1.42811 -5.16106 0
M  V30 967 C 89.943 -0.518613 -6.23748 0
M  V30 968 H 90.176 -1.00533 -2.79786 0
M  V30 969 H 87.709 -0.632336 -1.40858 0
M  V30 970 H 89.667 1.22505 -3.91794 0
M  V30 971 H 88.328 1.47004 -2.77576 0
M  V30 972 H 87.521 0.62359 -5.00127 0
M  V30 973 H 87.123 -0.525424 -3.70291 0
M  V30 974 H 89.415 0.284778 -6.76901 0
M  V30 975 H 90.358 -1.22556 -6.97413 0
M  V30 976 H 90.766 -0.101344 -5.64409 0
M  V30 977 N 90.1641 1.46063 -0.591896 0
M  V30 978 C 91.1271 2.28854 0.125973 0
M  V30 979 C 92.1271 1.38903 0.810107 0
M  V30 980 O 93.3171 1.61186 0.66066 0
M  V30 981 C 90.4491 3.19526 1.1881 0
M  V30 982 H 91.6421 2.93802 -0.601717 0
M  V30 983 H 89.1951 1.52325 -0.350254 0
M  V30 984 H 89.9301 2.59345 1.94707 0
M  V30 985 H 89.7151 3.85766 0.701936 0
M  V30 986 H 91.2051 3.81817 1.69132 0
M  V30 987 N 91.6422 0.330177 1.54103 0
M  V30 988 C 92.5522 -0.541534 2.28264 0
M  V30 989 C 93.5682 -1.12351 1.32866 0
M  V30 990 O 94.7442 -1.14206 1.65888 0
M  V30 991 C 91.8092 -1.68322 3.03098 0
M  V30 992 C 90.8702 -1.13238 4.14096 0
M  V30 993 C 90.1032 -2.21966 4.85352 0
M  V30 994 O 90.3262 -3.42437 4.56172 0
M  V30 995 O 89.2602 -1.87013 5.7211 0
M  V30 996 H 93.0862 0.060938 3.03639 0
M  V30 997 H 90.6712 0.09565 1.49093 0
M  V30 998 H 92.5532 -2.34777 3.49939 0
M  V30 999 H 91.2282 -2.27176 2.30593 0
M  V30 1000 H 90.1352 -0.432736 3.71589 0
M  V30 1001 H 91.4682 -0.588898 4.88664 0
M  V30 1002 N 93.1203 -1.57491 0.0584922 0
M  V30 1003 C 94.0673 -2.11958 -0.913376 0
M  V30 1004 C 95.0373 -1.02875 -1.30407 0
M  V30 1005 O 96.2223 -1.30464 -1.39226 0
M  V30 1006 C 93.3623 -2.67497 -2.18035 0
M  V30 1007 C 92.4753 -3.90691 -1.84349 0
M  V30 1008 C 91.6103 -4.3452 -3.05559 0
M  V30 1009 C 90.6493 -5.50395 -2.67827 0
M  V30 1010 N 89.7863 -5.89244 -3.81754 0
M  V30 1011 H 94.6263 -2.94704 -0.442017 0
M  V30 1012 H 92.1633 -1.45643 -0.206545 0
M  V30 1013 H 94.1213 -2.978 -2.92183 0
M  V30 1014 H 92.7513 -1.87537 -2.62735 0
M  V30 1015 H 91.8033 -3.66934 -1.00319 0
M  V30 1016 H 93.1153 -4.7489 -1.5258 0
M  V30 1017 H 92.2693 -4.66414 -3.87998 0
M  V30 1018 H 91.0083 -3.49147 -3.40511 0
M  V30 1019 H 90.0133 -5.18165 -1.83806 0
M  V30 1020 H 91.2383 -6.3749 -2.34059 0
M  V30 1021 H 89.1843 -5.06823 -4.16493 0
M  V30 1022 H 89.1013 -6.68151 -3.53708 0
M  V30 1023 H 90.3693 -6.25756 -4.64811 0
M  V30 1024 N 94.5984 0.214957 -1.56127 0
M  V30 1025 C 95.5314 1.29382 -1.87977 0
M  V30 1026 C 96.5094 1.44897 -0.737807 0
M  V30 1027 O 97.6934 1.60605 -0.986833 0
M  V30 1028 C 94.8204 2.66325 -2.09258 0
M  V30 1029 C 93.8664 2.67789 -3.31951 0
M  V30 1030 S 94.6994 2.21198 -4.8768 0
M  V30 1031 C 95.8554 3.60003 -5.12004 0
M  V30 1032 H 96.0884 1.02173 -2.79192 0
M  V30 1033 H 93.6214 0.417516 -1.48648 0
M  V30 1034 H 95.5794 3.45162 -2.22201 0
M  V30 1035 H 94.2404 2.90755 -1.18829 0
M  V30 1036 H 93.4334 3.68436 -3.43906 0
M  V30 1037 H 93.0354 1.9702 -3.17898 0
M  V30 1038 H 95.3274 4.55739 -5.01307 0
M  V30 1039 H 96.2704 3.52959 -6.13861 0
M  V30 1040 H 96.6784 3.53996 -4.39712 0
M  V30 1041 N 96.0765 1.50051 0.48192 0
M  V30 1042 C 97.3245 1.60181 1.23234 0
M  V30 1043 C 97.6455 0.299176 1.92691 0
M  V30 1044 O 96.9155 -0.682708 1.83619 0
M  V30 1045 H 95.4955 0.590232 0.457859 0
M  V30 1046 H 98.1575 1.86775 0.556881 0
M  V30 1047 H 97.2535 2.40753 1.98607 0
M  V30 1048 N 97.5546 -0.734337 1.39446 0
M  V30 1049 C 98.4846 -1.86155 1.40955 0
M  V30 1050 C 99.4656 -1.67898 0.272827 0
M  V30 1051 O 100.651 -1.88207 0.478743 0
M  V30 1052 C 97.7806 -3.23912 1.25294 0
M  V30 1053 C 96.7346 -3.56808 2.36373 0
M  V30 1054 C 96.0606 -4.93508 2.058 0
M  V30 1055 C 97.3606 -3.59713 3.78687 0
M  V30 1056 H 99.0546 -1.8515 2.35287 0
M  V30 1057 H 96.6006 -0.889367 1.13253 0
M  V30 1058 H 98.5536 -4.02443 1.2497 0
M  V30 1059 H 97.2776 -3.25446 0.274308 0
M  V30 1060 H 95.9366 -2.80606 2.35914 0
M  V30 1061 H 95.5846 -4.91623 1.06374 0
M  V30 1062 H 95.2846 -5.16486 2.80208 0
M  V30 1063 H 96.8086 -5.74396 2.07128 0
M  V30 1064 H 98.2226 -4.2832 3.81071 0
M  V30 1065 H 96.6196 -3.94209 4.52459 0
M  V30 1066 H 97.6896 -2.59504 4.09617 0
M  V30 1067 N 99.0327 -1.24633 -0.964593 0
M  V30 1068 C 100.449 -1.01239 -1.2338 0
M  V30 1069 C 100.649 0.2769 -1.99588 0
M  V30 1070 O 99.7047 0.992241 -2.32187 0
M  V30 1071 C 101.018 -2.22937 -2.01791 0
M  V30 1072 C 102.566 -2.27594 -2.14872 0
M  V30 1073 C 103.041 -3.48921 -2.96678 0
M  V30 1074 N 104.532 -3.49257 -3.04259 0
M  V30 1075 C 105.267 -4.39795 -3.67924 0
M  V30 1076 N 104.763 -5.40591 -4.33281 0
M  V30 1077 N 106.556 -4.275 -3.64966 0
M  V30 1078 H 98.7067 -2.0748 -0.454502 0
M  V30 1079 H 100.97 -0.910647 -0.26349 0
M  V30 1080 H 100.676 -3.16587 -1.53184 0
M  V30 1081 H 100.55 -2.25306 -3.02518 0
M  V30 1082 H 102.937 -1.34473 -2.6268 0
M  V30 1083 H 103.018 -2.2925 -1.13482 0
M  V30 1084 H 102.662 -4.42359 -2.49562 0
M  V30 1085 H 102.592 -3.4451 -3.98272 0
M  V30 1086 H 105.083 -2.76337 -2.57771 0
M  V30 1087 H 105.396 -6.05904 -4.79687 0
M  V30 1088 H 103.741 -5.44475 -4.3194 0
M  V30 1089 H 106.932 -3.47987 -3.13086 0
M  V30 1090 H 107.105 -4.98258 -4.14298 0
M  V30 1091 N 100.511 1.16574 -1.06058 0
M  V30 1092 C 101.759 1.86677 -0.77434 0
M  V30 1093 C 102.08 1.81959 0.701147 0
M  V30 1094 O 101.35 1.2515 1.50713 0
M  V30 1095 H 99.9298 0.691134 -0.283449 0
M  V30 1096 H 102.592 1.41378 -1.34158 0
M  V30 1097 H 101.688 2.92181 -1.09711 0
M  V30 1098 N 101.989 0.842826 1.3317 0
M  V30 1099 C 103.237 0.439577 1.97262 0
M  V30 1100 C 103.558 -1.00548 1.67078 0
M  V30 1101 O 102.828 -1.70098 0.971779 0
M  V30 1102 H 101.408 0.159558 0.72976 0
M  V30 1103 H 104.07 1.07665 1.62463 0
M  V30 1104 H 103.166 0.574886 3.0676 0
M  V30 1105 N 103.467 -1.45747 0.599634 0
M  V30 1106 C 104.713 -2.02592 0.0918643 0
M  V30 1107 C 105.046 -1.46806 -1.27128 0
M  V30 1108 O 104.321 -0.639658 -1.83681 0
M  V30 1109 C 104.604 -3.60073 0.0443398 0
M  V30 1110 C 104.457 -4.26208 1.43759 0
M  V30 1111 C 105.776 -4.35309 -0.647608 0
M  V30 1112 H 102.895 -0.736175 0.034857 0
M  V30 1113 H 105.537 -1.73694 0.770081 0
M  V30 1114 H 103.687 -3.84823 -0.533224 0
M  V30 1115 H 105.359 -4.12668 2.06162 0
M  V30 1116 H 103.602 -3.84916 2.00056 0
M  V30 1117 H 104.273 -5.35069 1.35665 0
M  V30 1118 H 106.749 -4.15805 -0.156776 0
M  V30 1119 H 105.625 -5.45038 -0.649942 0
M  V30 1120 H 105.886 -4.07598 -1.71219 0
M  V30 1121 N 104.945 -0.338344 -1.53925 0
M  V30 1122 C 106.193 0.259245 -2.0043 0
M  V30 1123 C 106.514 1.51484 -1.22791 0
M  V30 1124 O 105.784 1.93037 -0.33368 0
M  V30 1125 H 104.364 0.0987845 -0.740439 0
M  V30 1126 H 107.026 -0.458302 -1.89435 0
M  V30 1127 H 106.122 0.505334 -3.07982 0
M  V30 1128 N 106.423 1.57458 -0.0668435 0
M  V30 1129 C 107.353 2.15468 0.899764 0
M  V30 1130 C 108.334 1.08042 1.31381 0
M  V30 1131 O 109.519 1.36054 1.38574 0
M  V30 1132 C 106.649 2.71232 2.16911 0
M  V30 1133 C 105.603 3.83781 1.89463 0
M  V30 1134 C 104.929 4.26127 3.22986 0
M  V30 1135 C 106.229 5.08238 1.20381 0
M  V30 1136 H 107.923 2.96488 0.416529 0
M  V30 1137 H 105.469 1.4262 0.198908 0
M  V30 1138 H 107.422 3.10458 2.84945 0
M  V30 1139 H 106.146 1.87426 2.67468 0
M  V30 1140 H 104.805 3.45051 1.23836 0
M  V30 1141 H 104.453 3.39249 3.71374 0
M  V30 1142 H 104.153 5.01993 3.05413 0
M  V30 1143 H 105.677 4.67966 3.92225 0
M  V30 1144 H 107.091 5.44811 1.78475 0
M  V30 1145 H 105.488 5.89349 1.13083 0
M  V30 1146 H 106.558 4.84558 0.182153 0
M  V30 1147 N 107.901 -0.206675 1.56239 0
M  V30 1148 C 108.864 -1.23976 1.92776 0
M  V30 1149 C 109.864 -1.39041 0.807729 0
M  V30 1150 O 111.054 -1.37051 1.0753 0
M  V30 1151 C 108.186 -2.61112 2.19165 0
M  V30 1152 H 109.379 -0.927764 2.85189 0
M  V30 1153 H 106.932 -0.447718 1.4975 0
M  V30 1154 H 107.667 -2.97386 1.29352 0
M  V30 1155 H 107.452 -2.51552 3.00772 0
M  V30 1156 H 108.942 -3.35633 2.48476 0
M  V30 1157 N 109.379 -1.50304 -0.473955 0
M  V30 1158 C 110.342 -1.6841 -1.55469 0
M  V30 1159 C 111.342 -0.554905 -1.50922 0
M  V30 1160 O 112.532 -0.821882 -1.53593 0
M  V30 1161 C 109.664 -1.70667 -2.95102 0
M  V30 1162 H 110.857 -2.64828 -1.40733 0
M  V30 1163 H 108.41 -1.39742 -0.700132 0
M  V30 1164 H 109.145 -0.75932 -3.15285 0
M  V30 1165 H 108.93 -2.52698 -2.9981 0
M  V30 1166 H 110.42 -1.8664 -3.73571 0
M  V30 1167 N 110.857 0.726932 -1.39834 0
M  V30 1168 C 112.268 1.30558 -1.3346 0
M  V30 1169 C 112.619 1.962 -0.00273003 0
M  V30 1170 O 111.744 1.96826 0.899371 0
M  V30 1171 C 112.339 2.37404 -2.41713 0
M  V30 1172 C 110.898 2.90921 -2.38835 0
M  V30 1173 C 110.045 1.64578 -2.2318 0
M  V30 1174 H 112.996 0.523862 -1.49804 0
M  V30 1175 H 113.017 3.17984 -2.08966 0
M  V30 1176 H 112.529 1.89599 -3.38635 0
M  V30 1177 H 110.63 3.42985 -1.45575 0
M  V30 1178 H 110.743 3.43487 -3.33997 0
M  V30 1179 H 109.107 1.89219 -1.70494 0
M  V30 1180 H 109.89 1.18814 -3.22084 0
M  V30 1181 N 112.336 1.25143 0.95797 0
M  V30 1182 C 113.268 1.01023 2.05735 0
M  V30 1183 C 114.281 -0.0236902 1.62783 0
M  V30 1184 O 115.47 0.21448 1.77207 0
M  V30 1185 C 112.57 0.504595 3.35122 0
M  V30 1186 C 111.743 1.6039 4.06932 0
M  V30 1187 C 110.802 1.09922 5.14591 0
M  V30 1188 O 109.828 1.79293 5.40225 0
M  V30 1189 N 111.03 -0.0612545 5.80468 0
M  V30 1190 H 113.795 1.95683 2.26998 0
M  V30 1191 H 111.356 1.16303 1.12629 0
M  V30 1192 H 113.348 0.151516 4.04416 0
M  V30 1193 H 111.918 -0.347989 3.10657 0
M  V30 1194 H 111.138 2.12872 3.31782 0
M  V30 1195 H 112.426 2.34252 4.51667 0
M  V30 1196 H 111.824 -0.640985 5.62057 0
M  V30 1197 H 110.381 -0.355395 6.5083 0
M  V30 1198 N 113.814 -1.1601 1.06675 0
M  V30 1199 C 114.744 -2.22688 0.702307 0
M  V30 1200 C 115.725 -1.67306 -0.307032 0
M  V30 1201 O 116.91 -1.93352 -0.181305 0
M  V30 1202 C 114.04 -3.47178 0.092038 0
M  V30 1203 C 112.994 -4.15477 1.02777 0
M  V30 1204 C 112.32 -5.33963 0.28061 0
M  V30 1205 C 113.62 -4.66019 2.35846 0
M  V30 1206 H 115.314 -2.53429 1.59419 0
M  V30 1207 H 112.86 -1.21813 0.767961 0
M  V30 1208 H 114.813 -4.21037 -0.174814 0
M  V30 1209 H 113.537 -3.15749 -0.834877 0
M  V30 1210 H 112.196 -3.43549 1.27944 0
M  V30 1211 H 111.844 -4.98788 -0.649545 0
M  V30 1212 H 111.544 -5.806 0.904258 0
M  V30 1213 H 113.068 -6.10596 0.021396 0
M  V30 1214 H 114.482 -5.3144 2.15045 0
M  V30 1215 H 112.879 -5.23293 2.93743 0
M  V30 1216 H 113.949 -3.82023 2.98641 0
M  V30 1217 N 115.292 -0.849877 -1.32721 0
M  V30 1218 C 116.569 -0.372405 -1.92022 0
M  V30 1219 C 116.949 1.1435 -1.77447 0
M  V30 1220 O 116.297 1.96296 -1.16962 0
M  V30 1221 C 116.507 -0.831482 -3.3895 0
M  V30 1222 C 117.855 -0.845882 -4.16089 0
M  V30 1223 O 118.879 -0.775806 -3.47649 0
M  V30 1224 O 117.738 -0.943753 -5.38289 0
M  V30 1225 H 114.832 -0.107667 -0.819961 0
M  V30 1226 H 117.378 -0.93646 -1.41522 0
M  V30 1227 H 116.15 -1.87448 -3.4348 0
M  V30 1228 H 115.773 -0.24461 -3.96847 0
M  V30 1229 N 116.77 1.45427 -0.607355 0
M  V30 1230 C 118.019 2.01452 -0.100036 0
M  V30 1231 C 118.332 1.48159 1.27704 0
M  V30 1232 O 119.538 1.96159 1.87707 0
M  V30 1233 C 117.994 3.59672 -0.128158 0
M  V30 1234 C 117.602 4.21962 -1.50507 0
M  V30 1235 C 119.346 4.23262 0.323932 0
M  V30 1236 C 117.253 5.72333 -1.48959 0
M  V30 1237 H 116.183 0.75325 -0.0336299 0
M  V30 1238 H 118.834 1.66901 -0.76265 0
M  V30 1239 H 117.216 3.91411 0.601105 0
M  V30 1240 H 118.39 4.01796 -2.25602 0
M  V30 1241 H 116.705 3.70565 -1.89923 0
M  V30 1242 H 119.302 5.33522 0.354691 0
M  V30 1243 H 119.645 3.93921 1.34656 0
M  V30 1244 H 120.178 3.96239 -0.352056 0
M  V30 1245 H 116.917 6.06373 -2.48981 0
M  V30 1246 H 116.437 5.94691 -0.781214 0
M  V30 1247 H 118.116 6.35525 -1.21313 0
M  V30 1248 N 118.248 0.346503 1.53744 0
M  V30 1249 C 119.473 -0.253074 2.0585 0
M  V30 1250 C 119.898 -1.43202 1.21962 0
M  V30 1251 O 119.256 -1.79783 0.234073 0
M  V30 1252 C 119.304 -0.643193 3.54817 0
M  V30 1253 O 118.408 -1.74286 3.73762 0
M  V30 1254 H 117.749 -0.0413583 0.662711 0
M  V30 1255 H 120.279 0.501574 1.98357 0
M  V30 1256 H 120.289 -0.919526 3.97503 0
M  V30 1257 H 118.964 0.218966 4.15323 0
M  V30 1258 H 117.541 -1.46356 3.42979 0
M  V30 1259 N 119.726 -1.57421 0.075193 0
M  V30 1260 C 120.673 -2.12915 -0.890843 0
M  V30 1261 C 121.643 -1.04252 -1.29309 0
M  V30 1262 O 122.828 -1.31933 -1.37834 0
M  V30 1263 C 119.968 -2.69795 -2.15186 0
M  V30 1264 C 119.081 -3.92624 -1.80194 0
M  V30 1265 C 118.216 -4.37736 -3.00933 0
M  V30 1266 C 117.255 -5.53205 -2.61974 0
M  V30 1267 N 116.392 -5.9326 -3.75483 0
M  V30 1268 H 121.232 -2.95156 -0.410735 0
M  V30 1269 H 118.769 -1.45854 -0.191086 0
M  V30 1270 H 120.727 -3.00883 -2.89008 0
M  V30 1271 H 119.357 -1.90313 -2.60731 0
M  V30 1272 H 118.409 -3.67977 -0.964218 0
M  V30 1273 H 119.721 -4.76482 -1.47534 0
M  V30 1274 H 118.875 -4.70503 -3.8303 0
M  V30 1275 H 117.614 -3.52739 -3.36789 0
M  V30 1276 H 116.619 -5.20086 -1.783 0
M  V30 1277 H 117.844 -6.39936 -2.27284 0
M  V30 1278 H 115.79 -5.11212 -4.11094 0
M  V30 1279 H 115.707 -6.71865 -3.46602 0
M  V30 1280 H 116.975 -6.30651 -4.58148 0
M  V30 1281 N 121.204 0.198386 -1.56346 0
M  V30 1282 C 122.62 0.549085 -1.49857 0
M  V30 1283 C 122.82 1.86016 -0.774611 0
M  V30 1284 O 121.876 2.50416 -0.323776 0
M  V30 1285 C 123.189 0.606868 -2.94512 0
M  V30 1286 C 124.737 0.695925 -3.05165 0
M  V30 1287 C 125.212 0.784848 -4.51225 0
M  V30 1288 N 126.703 0.848463 -4.55363 0
M  V30 1289 C 127.438 0.937378 -5.65686 0
M  V30 1290 N 126.934 0.9888 -6.85707 0
M  V30 1291 N 128.727 0.974312 -5.53592 0
M  V30 1292 H 120.878 -0.661655 -2.01831 0
M  V30 1293 H 123.141 -0.235261 -0.918344 0
M  V30 1294 H 122.847 -0.28732 -3.50524 0
M  V30 1295 H 122.721 1.46268 -3.47686 0
M  V30 1296 H 125.108 1.58055 -2.49204 0
M  V30 1297 H 125.189 -0.186022 -2.55123 0
M  V30 1298 H 124.833 -0.0954072 -5.0781 0
M  V30 1299 H 124.763 1.68255 -4.98997 0
M  V30 1300 H 127.254 0.818103 -3.68938 0
M  V30 1301 H 127.567 1.05707 -7.65536 0
M  V30 1302 H 125.912 0.957534 -6.88372 0
M  V30 1303 H 129.103 0.930954 -4.58749 0
M  V30 1304 H 129.276 1.04015 -6.39597 0
M  V30 1305 N 122.682 1.50554 0.465978 0
M  V30 1306 C 123.931 1.61038 1.21448 0
M  V30 1307 C 124.244 0.31865 1.92987 0
M  V30 1308 O 125.45 0.302469 2.6981 0
M  V30 1309 C 123.906 2.84283 2.20706 0
M  V30 1310 C 123.514 4.20352 1.54946 0
M  V30 1311 C 125.258 3.04115 2.96166 0
M  V30 1312 C 123.165 5.34778 2.5252 0
M  V30 1313 H 122.095 0.599718 0.457005 0
M  V30 1314 H 124.746 1.7699 0.484424 0
M  V30 1315 H 123.128 2.61901 2.97025 0
M  V30 1316 H 124.302 4.53008 0.843811 0
M  V30 1317 H 122.617 4.06167 0.917475 0
M  V30 1318 H 125.214 3.86774 3.69202 0
M  V30 1319 H 125.557 2.16045 3.55852 0
M  V30 1320 H 126.09 3.26702 2.26959 0
M  V30 1321 H 122.829 6.25018 1.97566 0
M  V30 1322 H 122.349 5.06534 3.21222 0
M  V30 1323 H 124.028 5.65561 3.14245 0
M  V30 1324 N 124.16 -0.719506 1.40217 0
M  V30 1325 C 125.409 -1.47486 1.37589 0
M  V30 1326 C 125.722 -1.9559 -0.0201568 0
M  V30 1327 O 126.928 -2.70973 -0.169049 0
M  V30 1328 C 125.384 -2.66575 2.41796 0
M  V30 1329 C 124.992 -2.25358 3.87192 0
M  V30 1330 C 126.736 -3.4433 2.48269 0
M  V30 1331 C 124.643 -3.41262 4.83005 0
M  V30 1332 H 123.573 -0.553901 0.511576 0
M  V30 1333 H 126.224 -0.783427 1.65936 0
M  V30 1334 H 124.606 -3.3787 2.06543 0
M  V30 1335 H 125.78 -1.61509 4.31569 0
M  V30 1336 H 124.095 -1.60657 3.84159 0
M  V30 1337 H 126.692 -4.30569 3.17041 0
M  V30 1338 H 127.035 -3.87872 1.51198 0
M  V30 1339 H 127.568 -2.80076 2.82493 0
M  V30 1340 H 124.307 -3.02755 5.81394 0
M  V30 1341 H 123.827 -4.0404 4.43297 0
M  V30 1342 H 125.506 -4.07383 5.02641 0
M  V30 1343 N 125.638 -1.25649 -0.95132 0
M  V30 1344 C 126.601 -1.06399 -2.03007 0
M  V30 1345 C 127.601 -0.0156794 -1.60792 0
M  V30 1346 O 128.791 -0.25817 -1.72276 0
M  V30 1347 C 125.923 -0.616184 -3.35285 0
M  V30 1348 H 127.116 -2.02164 -2.21517 0
M  V30 1349 H 124.669 -1.08103 -1.12887 0
M  V30 1350 H 125.404 0.343917 -3.22471 0
M  V30 1351 H 125.189 -1.37301 -3.67275 0
M  V30 1352 H 126.679 -0.503032 -4.14559 0
M  V30 1353 N 127.117 1.15442 -1.07289 0
M  V30 1354 C 128.363 1.86489 -0.796846 0
M  V30 1355 C 128.696 1.82078 0.675371 0
M  V30 1356 O 127.971 1.24346 1.4956 0
M  V30 1357 C 128.254 3.35626 -1.30489 0
M  V30 1358 C 128.107 3.48673 -2.84161 0
M  V30 1359 C 129.426 4.30357 -0.920907 0
M  V30 1360 H 126.545 0.677144 -0.290939 0
M  V30 1361 H 129.187 1.35633 -1.33056 0
M  V30 1362 H 127.337 3.79068 -0.850883 0
M  V30 1363 H 129.009 3.14099 -3.37846 0
M  V30 1364 H 127.252 2.90253 -3.22391 0
M  V30 1365 H 127.923 4.53453 -3.14777 0
M  V30 1366 H 130.399 3.94871 -1.3121 0
M  V30 1367 H 129.275 5.33193 -1.30372 0
M  V30 1368 H 129.536 4.4176 0.173226 0
M  V30 1369 N 128.595 0.856903 1.32268 0
M  V30 1370 C 129.525 0.31858 2.31316 0
M  V30 1371 C 130.506 -0.583487 1.59779 0
M  V30 1372 O 131.691 -0.503259 1.87566 0
M  V30 1373 C 128.821 -0.491979 3.43798 0
M  V30 1374 C 127.775 0.315849 4.26833 0
M  V30 1375 C 127.101 -0.619586 5.31098 0
M  V30 1376 C 128.401 1.54282 4.98993 0
M  V30 1377 H 130.095 1.14621 2.76591 0
M  V30 1378 H 127.641 0.552613 1.32974 0
M  V30 1379 H 129.594 -0.879012 4.1213 0
M  V30 1380 H 128.318 -1.35299 2.97257 0
M  V30 1381 H 126.977 0.684664 3.6015 0
M  V30 1382 H 126.625 -1.47751 4.8081 0
M  V30 1383 H 126.325 -0.0830621 5.87541 0
M  V30 1384 H 127.849 -1.00375 6.02293 0
M  V30 1385 H 129.263 1.22796 5.59995 0
M  V30 1386 H 127.66 2.01745 5.65172 0
M  V30 1387 H 128.73 2.30285 4.26728 0
M  V30 1388 N 130.073 -1.45103 0.615059 0
M  V30 1389 C 131.319 -2.02483 0.113347 0
M  V30 1390 C 131.652 -1.48146 -1.25564 0
M  V30 1391 O 130.927 -0.659104 -1.82992 0
M  V30 1392 C 131.21 -3.60005 0.0825278 0
M  V30 1393 C 131.063 -4.2466 1.48271 0
M  V30 1394 C 132.382 -4.35972 -0.601401 0
M  V30 1395 H 129.501 -0.735764 0.0426632 0
M  V30 1396 H 132.143 -1.72868 0.788461 0
M  V30 1397 H 130.293 -3.85367 -0.492378 0
M  V30 1398 H 131.965 -4.10458 2.10527 0
M  V30 1399 H 130.208 -3.82772 2.04127 0
M  V30 1400 H 130.879 -5.336 1.41332 0
M  V30 1401 H 133.355 -4.15947 -0.112666 0
M  V30 1402 H 132.231 -5.45697 -0.592097 0
M  V30 1403 H 132.492 -4.09391 -1.66887 0
M  V30 1404 N 131.551 -0.354651 -1.53558 0
M  V30 1405 C 132.962 0.126902 -1.86268 0
M  V30 1406 C 133.313 1.49075 -1.27558 0
M  V30 1407 O 132.438 2.08105 -0.5934 0
M  V30 1408 C 133.033 0.237046 -3.3797 0
M  V30 1409 C 131.592 0.662842 -3.70518 0
M  V30 1410 C 130.739 -0.196652 -2.76602 0
M  V30 1411 H 133.69 -0.573849 -1.47962 0
M  V30 1412 H 133.711 1.06259 -3.65362 0
M  V30 1413 H 133.223 -0.755725 -3.80671 0
M  V30 1414 H 131.324 1.66424 -3.33367 0
M  V30 1415 H 131.437 0.445034 -4.77029 0
M  V30 1416 H 129.801 0.332763 -2.52517 0
M  V30 1417 H 130.584 -1.18676 -3.22135 0
M  V30 1418 N 133.029 1.57378 -0.0835403 0
M  V30 1419 C 133.977 2.14602 0.89714 0
M  V30 1420 C 134.971 1.08589 1.30018 0
M  V30 1421 O 136.177 1.26952 1.27606 0
M  V30 1422 H 132.552 0.686346 0.3073 0
M  V30 1423 H 134.523 2.95845 0.38969 0
M  V30 1424 C 133.272 2.73188 2.15089 0
M  V30 1425 H 132.595 3.54442 1.84962 0
M  V30 1426 H 134.035 3.1681 2.81793 0
M  V30 1427 C 132.494 1.68517 2.91725 0
M  V30 1428 O 133.024 1.11718 3.85852 0
M  V30 1429 N 131.23 1.39277 2.55049 0
M  V30 1430 H 130.777 1.85655 1.78577 0
M  V30 1431 H 130.735 0.694791 3.06627 0
M  V30 1432 N 134.507 -0.190092 1.56449 0
M  V30 1433 C 135.756 -0.907912 1.80111 0
M  V30 1434 C 136.069 -1.84214 0.657619 0
M  V30 1435 O 137.275 -2.60094 0.778663 0
M  V30 1436 C 135.731 -1.66485 3.19078 0
M  V30 1437 C 135.339 -0.7752 4.41242 0
M  V30 1438 C 137.083 -2.37201 3.52045 0
M  V30 1439 C 134.99 -1.53129 5.71231 0
M  V30 1440 H 133.92 -0.34276 0.671589 0
M  V30 1441 H 136.571 -0.161109 1.82791 0
M  V30 1442 H 134.953 -2.45572 3.10661 0
M  V30 1443 H 136.127 -0.0226298 4.60794 0
M  V30 1444 H 134.442 -0.178627 4.16017 0
M  V30 1445 H 137.039 -2.94329 4.46402 0
M  V30 1446 H 137.382 -3.11632 2.76028 0
M  V30 1447 H 137.915 -1.65075 3.61932 0
M  V30 1448 H 134.654 -0.82967 6.50228 0
M  V30 1449 H 134.174 -2.25767 5.55688 0
M  V30 1450 H 135.853 -2.08377 6.12526 0
M  V30 1451 N 135.985 -1.50799 -0.457987 0
M  V30 1452 C 137.231 -1.62683 -1.21088 0
M  V30 1453 C 137.564 -0.332268 -1.91336 0
M  V30 1454 O 136.839 0.667043 -1.82704 0
M  V30 1455 C 137.122 -2.81615 -2.24422 0
M  V30 1456 C 136.975 -4.20989 -1.58392 0
M  V30 1457 C 138.294 -2.96085 -3.2561 0
M  V30 1458 H 135.413 -0.592087 -0.438864 0
M  V30 1459 H 138.055 -1.83225 -0.50286 0
M  V30 1460 H 136.205 -2.64231 -2.84806 0
M  V30 1461 H 137.877 -4.49994 -1.01504 0
M  V30 1462 H 136.12 -4.24641 -0.886704 0
M  V30 1463 H 136.791 -5.0016 -2.33547 0
M  V30 1464 H 139.267 -3.12042 -2.75262 0
M  V30 1465 H 138.143 -3.80902 -3.95228 0
M  V30 1466 H 138.404 -2.0726 -3.90507 0
M  V30 1467 N 137.463 0.71206 -1.40597 0
M  V30 1468 C 138.373 1.8562 -1.43466 0
M  V30 1469 C 139.389 1.70902 -0.326902 0
M  V30 1470 O 140.565 1.93105 -0.572043 0
M  V30 1471 C 137.63 3.21451 -1.29884 0
M  V30 1472 C 136.691 3.48398 -2.50833 0
M  V30 1473 C 135.924 4.77749 -2.3789 0
M  V30 1474 O 136.147 5.53089 -1.39459 0
M  V30 1475 O 135.081 5.05111 -3.27333 0
M  V30 1476 H 138.907 1.86155 -2.39958 0
M  V30 1477 H 136.492 0.86295 -1.21957 0
M  V30 1478 H 138.374 4.02579 -1.24531 0
M  V30 1479 H 137.049 3.21636 -0.364997 0
M  V30 1480 H 135.956 2.67265 -2.61763 0
M  V30 1481 H 137.289 3.53014 -3.4299 0
M  V30 1482 N 138.941 1.26152 0.944643 0
M  V30 1483 C 139.851 1.09176 2.07648 0
M  V30 1484 C 140.867 0.0261935 1.7398 0
M  V30 1485 O 142.043 0.229208 2.00091 0
M  V30 1486 C 139.108 0.722915 3.39079 0
M  V30 1487 C 138.169 1.86752 3.86552 0
M  V30 1488 C 137.402 1.51617 5.11711 0
M  V30 1489 O 137.625 0.416331 5.68879 0
M  V30 1490 O 136.559 2.34975 5.54139 0
M  V30 1491 H 140.385 2.0412 2.24875 0
M  V30 1492 H 137.97 1.05182 1.061 0
M  V30 1493 H 139.852 0.529787 4.18056 0
M  V30 1494 H 138.527 -0.197159 3.23099 0
M  V30 1495 H 137.434 2.11558 3.08535 0
M  V30 1496 H 138.767 2.76719 4.07047 0
M  V30 1497 N 140.419 -1.14872 1.07899 0
M  V30 1498 C 141.667 -1.85422 0.803941 0
M  V30 1499 C 141.988 -1.83051 -0.67211 0
M  V30 1500 O 141.258 -1.27532 -1.48703 0
M  V30 1501 H 139.838 -0.686537 0.294408 0
M  V30 1502 H 142.5 -1.39226 1.3639 0
M  V30 1503 H 141.596 -2.90399 1.14346 0
M  V30 1504 N 141.898 -0.863906 -1.31812 0
M  V30 1505 C 142.808 -0.318461 -2.32428 0
M  V30 1506 C 143.824 0.568496 -1.64451 0
M  V30 1507 O 145 0.46666 -1.95919 0
M  V30 1508 C 142.065 0.476355 -3.43412 0
M  V30 1509 C 141.126 -0.43784 -4.27061 0
M  V30 1510 C 140.359 0.319138 -5.32745 0
M  V30 1511 O 140.582 1.54799 -5.48993 0
M  V30 1512 O 139.516 -0.319861 -6.01049 0
M  V30 1513 H 143.342 -1.15229 -2.80991 0
M  V30 1514 H 140.927 -0.627103 -1.35602 0
M  V30 1515 H 142.809 0.927156 -4.11074 0
M  V30 1516 H 141.484 1.28683 -2.97022 0
M  V30 1517 H 140.391 -0.937013 -3.62175 0
M  V30 1518 H 141.724 -1.21375 -4.77 0
M  V30 1519 N 143.376 1.44774 -0.622745 0
M  V30 1520 C 144.604 2.06487 -0.130722 0
M  V30 1521 C 145.019 1.46476 1.19123 0
M  V30 1522 O 144.376 0.584502 1.72887 0
M  V30 1523 C 144.427 3.615 -0.000807207 0
M  V30 1524 O 144.148 4.19274 -1.27048 0
M  V30 1525 C 145.649 4.40229 0.520898 0
M  V30 1526 H 142.869 0.666704 -0.0758106 0
M  V30 1527 H 145.413 1.85779 -0.854774 0
M  V30 1528 H 143.568 3.81498 0.673643 0
M  V30 1529 H 143.982 5.12622 -1.1099 0
M  V30 1530 H 145.456 5.49144 0.560838 0
M  V30 1531 H 145.933 4.1108 1.54627 0
M  V30 1532 H 146.539 4.25131 -0.120018 0
M  V30 1533 N 144.854 0.36279 1.53368 0
M  V30 1534 C 146.265 -0.117022 1.86333 0
M  V30 1535 C 146.616 -1.48397 1.28347 0
M  V30 1536 O 145.741 -2.07787 0.604428 0
M  V30 1537 C 146.336 -0.21912 3.38091 0
M  V30 1538 C 144.895 -0.643184 3.70864 0
M  V30 1539 C 144.042 0.211318 2.76494 0
M  V30 1540 H 146.993 0.581687 1.47655 0
M  V30 1541 H 147.014 -1.04319 3.6592 0
M  V30 1542 H 146.526 0.775902 3.80265 0
M  V30 1543 H 144.627 -1.64654 3.34245 0
M  V30 1544 H 144.74 -0.41973 4.77258 0
M  V30 1545 H 143.104 -0.319367 2.5269 0
M  V30 1546 H 143.887 1.20383 3.21501 0
M  V30 1547 N 146.332 -1.57332 0.0918853 0
M  V30 1548 C 147.264 -2.10869 -0.898168 0
M  V30 1549 C 148.277 -1.04521 -1.24817 0
M  V30 1550 O 149.466 -1.31977 -1.20184 0
M  V30 1551 C 146.566 -2.57083 -2.2082 0
M  V30 1552 C 145.739 -3.87229 -2.03402 0
M  V30 1553 C 144.798 -4.19324 -3.17889 0
M  V30 1554 O 143.824 -4.88598 -2.91994 0
M  V30 1555 N 145.026 -3.74471 -4.43567 0
M  V30 1556 H 147.791 -2.96439 -0.440943 0
M  V30 1557 H 145.352 -1.61631 -0.0933064 0
M  V30 1558 H 147.344 -2.75602 -2.96354 0
M  V30 1559 H 145.914 -1.76541 -2.57977 0
M  V30 1560 H 145.134 -3.7789 -1.12218 0
M  V30 1561 H 146.422 -4.72379 -1.89038 0
M  V30 1562 H 145.82 -3.18546 -4.67488 0
M  V30 1563 H 144.377 -3.98151 -5.16061 0
M  V30 1564 N 147.81 0.181792 -1.56548 0
M  V30 1565 C 148.72 1.24538 -1.98815 0
M  V30 1566 C 149.736 1.49045 -0.897861 0
M  V30 1567 O 150.912 1.61399 -1.20467 0
M  V30 1568 C 147.977 2.56683 -2.33055 0
M  V30 1569 C 147.038 2.40131 -3.55859 0
M  V30 1570 C 146.271 3.65975 -3.88456 0
M  V30 1571 O 146.494 4.70711 -3.22161 0
M  V30 1572 O 145.428 3.6071 -4.81842 0
M  V30 1573 H 149.254 0.916647 -2.89536 0
M  V30 1574 H 146.839 0.387842 -1.44278 0
M  V30 1575 H 148.721 3.34655 -2.56094 0
M  V30 1576 H 147.396 2.89157 -1.45498 0
M  V30 1577 H 146.303 1.60226 -3.38051 0
M  V30 1578 H 147.636 2.12585 -4.43924 0
M  V30 1579 N 149.288 1.51039 0.449983 0
M  V30 1580 C 150.251 1.70863 1.5277 0
M  V30 1581 C 151.251 0.578846 1.5002 0
M  V30 1582 O 152.441 0.846213 1.52266 0
M  V30 1583 C 149.573 1.75341 2.9235 0
M  V30 1584 H 150.766 2.67034 1.36502 0
M  V30 1585 H 148.319 1.40838 0.677812 0
M  V30 1586 H 149.054 0.809383 3.14037 0
M  V30 1587 H 148.839 2.57436 2.95752 0
M  V30 1588 H 150.329 1.92559 3.70555 0
M  V30 1589 N 150.766 -0.704594 1.40972 0
M  V30 1590 C 151.996 -1.49138 1.42974 0
M  V30 1591 C 152.404 -1.89175 0.0308406 0
M  V30 1592 O 151.747 -1.56734 -0.958138 0
M  V30 1593 C 151.809 -2.79016 2.26694 0
M  V30 1594 C 151.473 -2.61236 3.74973 0
M  V30 1595 C 152.47 -2.27773 4.67349 0
M  V30 1596 C 150.155 -2.77158 4.18914 0
M  V30 1597 C 152.149 -2.10457 6.01653 0
M  V30 1598 C 149.836 -2.59459 5.53285 0
M  V30 1599 C 150.834 -2.26158 6.4447 0
M  V30 1600 O 150.522 -2.08605 7.76363 0
M  V30 1601 H 150.254 -0.466443 0.489292 0
M  V30 1602 H 152.808 -0.8758 1.85793 0
M  V30 1603 H 151.038 -3.42947 1.78673 0
M  V30 1604 H 152.727 -3.40782 2.20504 0
M  V30 1605 H 153.493 -2.15095 4.34694 0
M  V30 1606 H 149.372 -3.02064 3.48251 0
M  V30 1607 H 152.916 -1.84387 6.72791 0
M  V30 1608 H 148.813 -2.71725 5.85522 0
M  V30 1609 H 149.581 -2.23439 7.87412 0
M  V30 1610 N 152.244 -1.26651 -0.937939 0
M  V30 1611 C 153.521 -1.0313 -1.66204 0
M  V30 1612 C 153.901 0.437256 -2.06522 0
M  V30 1613 O 153.249 1.41831 -1.79154 0
M  V30 1614 C 153.459 -1.98314 -2.87181 0
M  V30 1615 C 154.807 -2.27107 -3.58758 0
M  V30 1616 O 155.831 -1.96205 -2.97291 0
M  V30 1617 O 154.69 -2.79736 -4.69479 0
M  V30 1618 H 151.784 -0.392384 -0.727986 0
M  V30 1619 H 154.33 -1.37874 -0.989382 0
M  V30 1620 H 153.102 -2.97399 -2.54302 0
M  V30 1621 H 152.725 -1.64068 -3.6217 0
M  V30 1622 N 153.722 1.14298 -1.08507 0
M  V30 1623 C 154.652 2.21542 -0.737646 0
M  V30 1624 C 155.633 1.67773 0.280377 0
M  V30 1625 O 156.818 1.93616 0.150521 0
M  V30 1626 C 153.948 3.46988 -0.147259 0
M  V30 1627 C 152.902 4.13789 -1.09374 0
M  V30 1628 C 152.228 5.33449 -0.365524 0
M  V30 1629 C 153.528 4.62208 -2.4323 0
M  V30 1630 H 155.222 2.5086 -1.6343 0
M  V30 1631 H 152.768 1.20576 -0.787243 0
M  V30 1632 H 154.721 4.21262 0.107808 0
M  V30 1633 H 153.445 3.17037 0.784538 0
M  V30 1634 H 152.104 3.4147 -1.33393 0
M  V30 1635 H 151.752 4.99759 0.57011 0
M  V30 1636 H 151.452 5.79088 -0.996512 0
M  V30 1637 H 152.976 6.10485 -0.118534 0
M  V30 1638 H 154.39 5.27952 -2.23472 0
M  V30 1639 H 152.787 5.18553 -3.02031 0
M  V30 1640 H 153.857 3.77224 -3.04681 0
M  V30 1641 N 155.201 0.870884 1.31352 0
M  V30 1642 C 156.111 0.330783 2.32256 0
M  V30 1643 C 157.127 -0.559767 1.6475 0
M  V30 1644 O 158.303 -0.456263 1.96164 0
M  V30 1645 C 155.368 -0.458137 3.4366 0
M  V30 1646 C 154.429 0.460482 4.26823 0
M  V30 1647 C 153.662 -0.290881 5.32907 0
M  V30 1648 O 153.885 -1.51885 5.49806 0
M  V30 1649 O 152.819 0.351732 6.00871 0
M  V30 1650 H 156.645 1.16718 2.80376 0
M  V30 1651 H 154.23 0.634285 1.35267 0
M  V30 1652 H 156.112 -0.905343 4.1156 0
M  V30 1653 H 154.787 -1.27106 2.97701 0
M  V30 1654 H 153.694 0.956207 3.61673 0
M  V30 1655 H 155.027 1.23903 4.7635 0
M  V30 1656 N 156.679 -1.44442 0.630414 0
M  V30 1657 C 157.642 -2.29107 -0.0652523 0
M  V30 1658 C 158.642 -1.41002 -0.772995 0
M  V30 1659 O 159.832 -1.62881 -0.617692 0
M  V30 1660 C 156.964 -3.22564 -1.10296 0
M  V30 1661 H 158.157 -2.92103 0.679401 0
M  V30 1662 H 155.71 -1.51343 0.390517 0
M  V30 1663 H 156.445 -2.64416 -1.87762 0
M  V30 1664 H 156.23 -3.87491 -0.59941 0
M  V30 1665 H 157.72 -3.86167 -1.5895 0
M  V30 1666 N 158.157 -0.370918 -1.53173 0
M  V30 1667 C 159.406 0.218249 -2.00516 0
M  V30 1668 C 159.719 1.49429 -1.26215 0
M  V30 1669 O 160.925 2.16239 -1.64174 0
M  V30 1670 C 159.381 0.43948 -3.57207 0
M  V30 1671 C 158.989 -0.822244 -4.4039 0
M  V30 1672 C 160.733 0.986012 -4.1289 0
M  V30 1673 C 158.64 -0.570304 -5.88644 0
M  V30 1674 H 157.57 0.0853333 -0.749156 0
M  V30 1675 H 160.221 -0.490483 -1.76823 0
M  V30 1676 H 158.603 1.20961 -3.77074 0
M  V30 1677 H 159.777 -1.59557 -4.32294 0
M  V30 1678 H 158.092 -1.29238 -3.95836 0
M  V30 1679 H 160.689 1.18991 -5.21292 0
M  V30 1680 H 161.032 1.94972 -3.6782 0
M  V30 1681 H 161.565 0.27592 -3.96842 0
M  V30 1682 H 158.304 -1.50449 -6.38001 0
M  V30 1683 H 157.824 0.164427 -5.99575 0
M  V30 1684 H 159.503 -0.19784 -6.46697 0
M  V30 1685 N 159.635 1.57281 -0.100228 0
M  V30 1686 C 160.568 2.09976 0.893612 0
M  V30 1687 C 161.546 1.01155 1.27304 0
M  V30 1688 O 162.73 1.28687 1.37739 0
M  V30 1689 C 159.857 2.58098 2.19324 0
M  V30 1690 C 158.903 3.78626 1.96328 0
M  V30 1691 S 159.736 5.21959 1.19662 0
M  V30 1692 C 160.892 5.73435 2.50844 0
M  V30 1693 H 161.125 2.93946 0.44534 0
M  V30 1694 H 158.658 1.53985 0.113167 0
M  V30 1695 H 160.616 2.8648 2.94005 0
M  V30 1696 H 159.277 1.74344 2.61272 0
M  V30 1697 H 158.47 4.10382 2.92579 0
M  V30 1698 H 158.072 3.50763 1.29775 0
M  V30 1699 H 160.364 5.82015 3.46792 0
M  V30 1700 H 161.307 6.7185 2.23659 0
M  V30 1701 H 161.715 5.01395 2.59352 0
M  V30 1702 N 161.113 -0.173488 1.56642 0
M  V30 1703 C 162.343 -0.904781 1.85734 0
M  V30 1704 C 162.751 -1.76431 0.68328 0
M  V30 1705 O 162.094 -1.802 -0.356865 0
M  V30 1706 C 162.156 -1.83382 3.09211 0
M  V30 1707 C 161.82 -1.15411 4.42187 0
M  V30 1708 C 162.817 -0.520609 5.17287 0
M  V30 1709 C 160.502 -1.15151 4.88923 0
M  V30 1710 C 162.496 0.106412 6.37311 0
M  V30 1711 C 160.183 -0.520664 6.08878 0
M  V30 1712 C 161.181 0.107196 6.82916 0
M  V30 1713 O 160.869 0.728102 8.00596 0
M  V30 1714 H 160.601 -0.268408 0.62043 0
M  V30 1715 H 163.155 -0.179096 2.04618 0
M  V30 1716 H 161.385 -2.59976 2.86268 0
M  V30 1717 H 163.074 -2.43476 3.24768 0
M  V30 1718 H 163.84 -0.514606 4.82262 0
M  V30 1719 H 159.719 -1.62961 4.31236 0
M  V30 1720 H 163.263 0.597081 6.9504 0
M  V30 1721 H 159.16 -0.524242 6.43368 0
M  V30 1722 H 159.928 0.627138 8.16094 0
M  V30 1723 N 162.591 -1.51276 -0.441967 0
M  V30 1724 C 163.539 -1.72823 -1.55676 0
M  V30 1725 C 164.533 -0.59445 -1.58627 0
M  V30 1726 O 165.739 -0.775715 -1.62427 0
M  V30 1727 H 162.114 -0.545983 -0.517113 0
M  V30 1728 H 164.085 -2.6628 -1.34675 0
M  V30 1729 C 162.834 -1.86619 -2.93375 0
M  V30 1730 H 162.157 -2.73264 -2.91834 0
M  V30 1731 H 163.597 -2.05709 -3.70756 0
M  V30 1732 C 162.056 -0.624842 -3.31055 0
M  V30 1733 O 162.586 0.222636 -4.01083 0
M  V30 1734 N 160.792 -0.470288 -2.86769 0
M  V30 1735 H 160.339 -1.161 -2.29953 0
M  V30 1736 H 160.297 0.359051 -3.12343 0
M  V30 1737 N 164.069 0.697108 -1.41344 0
M  V30 1738 C 165.48 1.27697 -1.36199 0
M  V30 1739 C 165.831 1.9615 -0.0443463 0
M  V30 1740 O 164.956 1.98689 0.857419 0
M  V30 1741 C 165.551 2.32223 -2.46694 0
M  V30 1742 C 164.11 2.8579 -2.44952 0
M  V30 1743 C 163.257 1.59807 -2.26621 0
M  V30 1744 H 166.208 0.491968 -1.50882 0
M  V30 1745 H 166.229 3.1348 -2.15664 0
M  V30 1746 H 165.741 1.82373 -3.42581 0
M  V30 1747 H 163.842 3.3982 -1.52817 0
M  V30 1748 H 163.955 3.36325 -3.41207 0
M  V30 1749 H 162.319 1.8556 -1.7447 0
M  V30 1750 H 163.102 1.11956 -3.24532 0
M  V30 1751 N 165.547 1.27147 0.931209 0
M  V30 1752 C 166.494 1.09568 2.03134 0
M  V30 1753 C 167.464 -0.00222433 1.661 0
M  V30 1754 O 168.649 0.159439 1.90133 0
M  V30 1755 C 165.789 0.745231 3.36957 0
M  V30 1756 C 164.902 1.92041 3.86968 0
M  V30 1757 C 164.037 1.51216 5.09222 0
M  V30 1758 C 163.076 2.65504 5.5152 0
M  V30 1759 N 162.213 2.25291 6.64972 0
M  V30 1760 H 167.053 2.03708 2.17502 0
M  V30 1761 H 164.59 1.01411 1.06556 0
M  V30 1762 H 166.548 0.522878 4.1391 0
M  V30 1763 H 165.178 -0.159202 3.22407 0
M  V30 1764 H 164.23 2.25541 3.06326 0
M  V30 1765 H 165.542 2.77787 4.1429 0
M  V30 1766 H 164.696 1.25084 5.93666 0
M  V30 1767 H 163.435 0.625749 4.83669 0
M  V30 1768 H 162.44 2.92354 4.65628 0
M  V30 1769 H 163.665 3.54761 5.7907 0
M  V30 1770 H 161.611 1.39098 6.41083 0
M  V30 1771 H 161.528 3.04577 6.91931 0
M  V30 1772 H 162.796 2.02398 7.52765 0
M  V30 1773 N 167.025 -1.13721 1.09112 0
M  V30 1774 C 168.274 -1.84275 0.82009 0
M  V30 1775 C 168.587 -1.84253 -0.656509 0
M  V30 1776 O 169.793 -2.50668 -1.04296 0
M  V30 1777 C 168.249 -3.30825 1.41714 0
M  V30 1778 C 167.857 -3.39244 2.92605 0
M  V30 1779 C 169.601 -4.06443 1.22492 0
M  V30 1780 C 167.508 -4.80047 3.45411 0
M  V30 1781 H 166.438 -0.690387 0.30312 0
M  V30 1782 H 169.089 -1.28146 1.31343 0
M  V30 1783 H 167.471 -3.86737 0.851498 0
M  V30 1784 H 168.645 -2.93344 3.55367 0
M  V30 1785 H 166.96 -2.77088 3.10823 0
M  V30 1786 H 169.557 -5.10387 1.59402 0
M  V30 1787 H 169.9 -4.15972 0.165299 0
M  V30 1788 H 170.433 -3.56852 1.75788 0
M  V30 1789 H 167.172 -4.75709 4.50978 0
M  V30 1790 H 166.692 -5.26455 2.87411 0
M  V30 1791 H 168.371 -5.48957 3.42425 0
M  V30 1792 N 168.503 -0.877838 -1.30888 0
M  V30 1793 C 169.749 -0.493426 -1.96706 0
M  V30 1794 C 170.082 0.953504 -1.6918 0
M  V30 1795 O 169.357 1.67266 -0.992594 0
M  V30 1796 C 169.64 -0.760429 -3.51979 0
M  V30 1797 C 169.493 -2.25747 -3.89048 0
M  V30 1798 C 170.812 -0.232148 -4.39487 0
M  V30 1799 H 167.931 -0.180746 -0.714493 0
M  V30 1800 H 170.573 -1.10052 -1.54882 0
M  V30 1801 H 168.723 -0.243715 -3.87735 0
M  V30 1802 H 170.395 -2.84204 -3.63354 0
M  V30 1803 H 168.638 -2.72694 -3.37373 0
M  V30 1804 H 169.309 -2.39491 -4.97341 0
M  V30 1805 H 171.785 -0.674314 -4.106 0
M  V30 1806 H 170.661 -0.448355 -5.47066 0
M  V30 1807 H 170.922 0.866297 -4.33529 0
M  V30 1808 N 169.982 1.44106 -0.638065 0
M  V30 1809 C 171.207 2.0685 -0.150916 0
M  V30 1810 C 171.632 1.47417 1.16833 0
M  V30 1811 O 170.99 0.578264 1.71831 0
M  V30 1812 C 171.038 3.60555 -0.05708 0
M  V30 1813 O 170.142 4.00465 0.984972 0
M  V30 1814 H 169.483 0.658151 -0.0879399 0
M  V30 1815 H 172.013 1.84865 -0.876707 0
M  V30 1816 H 172.023 4.07789 0.131232 0
M  V30 1817 H 170.698 4.03193 -1.02021 0
M  V30 1818 H 169.275 3.64849 0.770672 0
M  V30 1819 N 171.46 0.379036 1.52974 0
M  V30 1820 C 172.41 -0.477772 2.22938 0
M  V30 1821 C 173.394 -1.03792 1.22948 0
M  V30 1822 O 174.586 -0.965725 1.48333 0
M  V30 1823 C 171.715 -1.60994 3.03209 0
M  V30 1824 C 170.801 -1.06203 4.10587 0
M  V30 1825 N 171.192 -0.238214 5.05239 0
M  V30 1826 C 169.49 -1.33554 4.25534 0
M  V30 1827 C 170.191 0.0633235 5.81666 0
M  V30 1828 N 169.167 -0.537901 5.40932 0
M  V30 1829 H 172.969 0.158295 2.93473 0
M  V30 1830 H 170.483 0.187778 1.61311 0
M  V30 1831 H 172.48 -2.23607 3.5186 0
M  V30 1832 H 171.14 -2.24893 2.34207 0
M  V30 1833 H 172.151 0.123695 5.17752 0
M  V30 1834 H 168.828 -1.97632 3.6776 0
M  V30 1835 H 170.218 0.730161 6.67921 0
M  V30 1836 N 172.938 -1.57226 0.108567 0
M  V30 1837 C 174.163 -1.99604 -0.563303 0
M  V30 1838 C 174.588 -0.987563 -1.6009 0
M  V30 1839 O 173.946 0.0421687 -1.81251 0
M  V30 1840 C 173.994 -3.40902 -1.17552 0
M  V30 1841 O 173.098 -3.42896 -2.2912 0
M  V30 1842 H 172.439 -0.648704 -0.1417 0
M  V30 1843 H 174.969 -2.03679 0.193961 0
M  V30 1844 H 174.979 -3.78886 -1.51357 0
M  V30 1845 H 173.654 -4.1382 -0.415445 0
M  V30 1846 H 172.231 -3.1672 -1.96832 0
M  V30 1847 N 174.416 0.165178 -1.56732 0
M  V30 1848 C 175.662 0.882112 -1.82611 0
M  V30 1849 C 175.995 1.81628 -0.687378 0
M  V30 1850 O 175.27 1.92009 0.310267 0
M  V30 1851 C 175.553 1.67245 -3.18906 0
M  V30 1852 C 175.406 0.760987 -4.43316 0
M  V30 1853 C 176.725 2.63884 -3.52212 0
M  V30 1854 H 173.844 0.319242 -0.664269 0
M  V30 1855 H 176.486 0.148052 -1.89422 0
M  V30 1856 H 174.636 2.29824 -3.1323 0
M  V30 1857 H 176.308 0.147596 -4.61064 0
M  V30 1858 H 174.551 0.0694102 -4.33744 0
M  V30 1859 H 175.222 1.34962 -5.35247 0
M  V30 1860 H 177.698 2.11429 -3.58381 0
M  V30 1861 H 176.574 3.16245 -4.48643 0
M  V30 1862 H 176.835 3.44377 -2.77231 0
M  V30 1863 N 175.894 1.51508 0.433938 0
M  V30 1864 C 176.826 1.69266 1.54537 0
M  V30 1865 C 177.839 0.573276 1.52373 0
M  V30 1866 O 179.028 0.847698 1.57087 0
M  V30 1867 C 176.128 1.69524 2.93453 0
M  V30 1868 C 175.301 2.98101 3.20085 0
M  V30 1869 C 174.36 2.90502 4.38742 0
M  V30 1870 O 173.386 3.64442 4.3723 0
M  V30 1871 N 174.588 2.06586 5.42496 0
M  V30 1872 H 177.353 2.65145 1.39708 0
M  V30 1873 H 174.914 1.49437 0.622922 0
M  V30 1874 H 176.906 1.62004 3.70859 0
M  V30 1875 H 175.476 0.812245 3.01863 0
M  V30 1876 H 174.696 3.19464 2.30947 0
M  V30 1877 H 175.984 3.83207 3.34708 0
M  V30 1878 H 175.382 1.45896 5.46563 0
M  V30 1879 H 173.939 2.04943 6.18742 0
M  V30 1880 N 177.372 -0.689602 1.41712 0
M  V30 1881 C 178.649 -1.44457 1.31877 0
M  V30 1882 C 179.029 -2.11039 -0.0508537 0
M  V30 1883 O 178.377 -2.02138 -1.06547 0
M  V30 1884 C 178.587 -2.45913 2.47645 0
M  V30 1885 C 179.935 -3.10991 2.89084 0
M  V30 1886 O 180.959 -2.56238 2.47428 0
M  V30 1887 O 179.818 -4.10174 3.61137 0
M  V30 1888 H 176.912 -0.64362 0.519309 0
M  V30 1889 H 179.458 -0.719576 1.53689 0
M  V30 1890 H 178.23 -1.95409 3.39015 0
M  V30 1891 H 177.853 -3.25913 2.27742 0
M  V30 1892 N 178.85 -1.27639 -0.924453 0
M  V30 1893 C 179.813 -1.10681 -2.00705 0
M  V30 1894 C 180.813 -0.0497823 -1.60723 0
M  V30 1895 O 182.003 -0.294654 -1.7169 0
M  V30 1896 C 179.135 -0.687164 -3.33902 0
M  V30 1897 H 180.328 -2.06817 -2.17179 0
M  V30 1898 H 177.881 -1.10473 -1.10569 0
M  V30 1899 H 178.616 0.275439 -3.23128 0
M  V30 1900 H 178.401 -1.45061 -3.6428 0
M  V30 1901 H 179.891 -0.590853 -4.13399 0
M  V30 1902 N 180.328 1.1314 -1.09713 0
M  V30 1903 C 181.291 2.16831 -0.742751 0
M  V30 1904 C 182.291 1.59159 0.229129 0
M  V30 1905 O 183.481 1.74199 0.00693237 0
M  V30 1906 C 180.613 3.40756 -0.0989168 0
M  V30 1907 H 181.806 2.49695 -1.66109 0
M  V30 1908 H 179.359 1.2802 -0.896699 0
M  V30 1909 H 180.094 3.13485 0.830514 0
M  V30 1910 H 179.879 3.83888 -0.798265 0
M  V30 1911 H 181.369 4.17386 0.133524 0
M  V30 1912 N 181.806 0.884767 1.30421 0
M  V30 1913 C 182.736 0.367574 2.30589 0
M  V30 1914 C 183.717 -0.549464 1.60981 0
M  V30 1915 O 184.902 -0.46336 1.88591 0
M  V30 1916 C 182.032 -0.418944 3.44764 0
M  V30 1917 C 180.986 0.406316 4.26067 0
M  V30 1918 C 180.312 -0.506793 5.32293 0
M  V30 1919 C 181.612 1.64832 4.95608 0
M  V30 1920 H 183.306 1.20462 2.74097 0
M  V30 1921 H 180.852 0.580695 1.31772 0
M  V30 1922 H 182.805 -0.791395 4.13902 0
M  V30 1923 H 181.529 -1.28964 3.0006 0
M  V30 1924 H 180.188 0.760903 3.58617 0
M  V30 1925 H 179.836 -1.37519 4.83836 0
M  V30 1926 H 179.536 0.0415828 5.87585 0
M  V30 1927 H 181.06 -0.875764 6.04287 0
M  V30 1928 H 182.474 1.34646 5.57264 0
M  V30 1929 H 180.871 2.13688 5.60765 0
M  V30 1930 H 181.941 2.39284 4.21748 0
M  V30 1931 N 183.284 -1.43765 0.645699 0
M  V30 1932 C 184.532 -2.01499 0.155731 0
M  V30 1933 C 184.853 -1.51151 -1.232 0
M  V30 1934 O 184.123 -0.721044 -1.82148 0
M  V30 1935 H 182.703 -0.745003 0.0545817 0
M  V30 1936 H 185.365 -1.76075 0.835677 0
M  V30 1937 H 184.461 -3.1181 0.134577 0
M  V30 1938 N 184.763 -0.387143 -1.52771 0
M  V30 1939 C 185.673 0.456442 -2.30117 0
M  V30 1940 C 186.689 1.07342 -1.36944 0
M  V30 1941 O 187.865 1.07971 -1.70013 0
M  V30 1942 C 184.93 1.56957 -3.09136 0
M  V30 1943 C 183.991 0.977916 -4.18014 0
M  V30 1944 C 183.224 2.038 -4.93256 0
M  V30 1945 O 183.447 3.25271 -4.68567 0
M  V30 1946 O 182.381 1.6565 -5.78657 0
M  V30 1947 H 186.207 -0.17359 -3.03203 0
M  V30 1948 H 183.792 -0.150919 -1.48636 0
M  V30 1949 H 185.674 2.21628 -3.58412 0
M  V30 1950 H 184.349 2.18461 -2.38865 0
M  V30 1951 H 183.256 0.294525 -3.72939 0
M  V30 1952 H 184.589 0.407128 -4.90513 0
M  V30 1953 N 186.241 1.57166 -0.116904 0
M  V30 1954 C 187.489 1.94737 0.540533 0
M  V30 1955 C 187.81 1.00096 1.67349 0
M  V30 1956 O 187.08 0.0568854 1.95817 0
M  V30 1957 H 185.66 0.718981 0.202669 0
M  V30 1958 H 188.322 1.94017 -0.185353 0
M  V30 1959 H 187.418 2.97719 0.936483 0
M  V30 1960 N 187.719 -0.156864 1.56817 0
M  V30 1961 C 188.629 -1.2136 2.00771 0
M  V30 1962 C 189.645 -1.47598 0.921459 0
M  V30 1963 O 190.821 -1.59462 1.2302 0
M  V30 1964 C 187.886 -2.52943 2.37109 0
M  V30 1965 C 186.947 -2.34439 3.59634 0
M  V30 1966 C 186.18 -3.59748 3.94229 0
M  V30 1967 O 186.403 -4.65526 3.29609 0
M  V30 1968 O 185.337 -3.52998 4.8752 0
M  V30 1969 H 189.163 -0.870468 2.90958 0
M  V30 1970 H 186.748 -0.36484 1.44877 0
M  V30 1971 H 188.63 -3.30538 2.61386 0
M  V30 1972 H 187.305 -2.86806 1.5008 0
M  V30 1973 H 186.212 -1.54828 3.40557 0
M  V30 1974 H 187.545 -2.05496 4.4725 0
M  V30 1975 N 189.197 -1.51736 -0.425897 0
M  V30 1976 C 190.445 -1.64644 -1.17204 0
M  V30 1977 C 190.766 -0.370486 -1.91448 0
M  V30 1978 O 190.036 0.614088 -1.86026 0
M  V30 1979 H 188.616 -0.606819 -0.435638 0
M  V30 1980 H 191.278 -1.88713 -0.487177 0
M  V30 1981 H 190.374 -2.47958 -1.89534 0
M  V30 1982 N 190.675 0.682077 -1.42076 0
M  V30 1983 C 191.915 1.45424 -1.43636 0
M  V30 1984 C 192.279 1.91939 -0.0484001 0
M  V30 1985 O 193.48 2.6873 0.0612514 0
M  V30 1986 C 191.751 2.62427 -2.42625 0
M  V30 1987 S 193.31 3.51379 -2.62827 0
M  V30 1988 H 190.128 0.496779 -0.508657 0
M  V30 1989 H 192.73 0.794645 -1.78621 0
M  V30 1990 H 191.434 2.26481 -3.42249 0
M  V30 1991 H 190.965 3.33266 -2.09039 0
M  V30 1992 H 192.98 4.58141 -1.9058 0
M  V30 1993 N 192.153 1.28127 0.917671 0
M  V30 1994 C 193.083 1.14248 2.03641 0
M  V30 1995 C 194.064 0.0412748 1.7005 0
M  V30 1996 O 195.249 0.217566 1.92977 0
M  V30 1997 C 192.379 0.799431 3.37974 0
M  V30 1998 C 191.333 1.85497 3.85713 0
M  V30 1999 C 190.659 1.36565 5.16966 0
M  V30 2000 C 191.959 3.26085 4.08002 0
M  V30 2001 H 193.653 2.07835 2.15511 0
M  V30 2002 H 191.199 1.00064 1.03553 0
M  V30 2003 H 193.152 0.689114 4.15727 0
M  V30 2004 H 191.876 -0.172145 3.26146 0
M  V30 2005 H 190.535 1.95437 3.10161 0
M  V30 2006 H 190.183 0.383253 5.01538 0
M  V30 2007 H 189.883 2.07143 5.49878 0
M  V30 2008 H 191.407 1.26848 5.97279 0
M  V30 2009 H 192.821 3.19089 4.76293 0
M  V30 2010 H 191.218 3.94462 4.52238 0
M  V30 2011 H 192.288 3.70394 3.12948 0
M  V30 2012 N 193.631 -1.12557 1.10312 0
M  V30 2013 C 194.856 -1.88405 0.867085 0
M  V30 2014 C 195.281 -1.79038 -0.576817 0
M  V30 2015 O 194.639 -1.14439 -1.40618 0
M  V30 2016 C 194.687 -3.3563 1.31851 0
M  V30 2017 O 193.791 -4.09565 0.482734 0
M  V30 2018 H 193.132 -0.585455 0.313271 0
M  V30 2019 H 195.662 -1.42352 1.4696 0
M  V30 2020 H 195.672 -3.86469 1.3079 0
M  V30 2021 H 194.347 -3.41765 2.37001 0
M  V30 2022 H 192.924 -3.68695 0.558448 0
M  V30 2023 N 195.109 -0.891671 -1.2995 0
M  V30 2024 C 196.355 -0.514261 -1.96171 0
M  V30 2025 C 196.688 0.935506 -1.70182 0
M  V30 2026 O 195.963 1.66204 -1.01028 0
M  V30 2027 C 196.246 -0.797719 -3.51153 0
M  V30 2028 C 196.099 -2.2986 -3.86632 0
M  V30 2029 C 197.418 -0.278749 -4.39216 0
M  V30 2030 H 194.537 -0.188314 -0.712535 0
M  V30 2031 H 197.179 -1.11689 -1.53706 0
M  V30 2032 H 195.329 -0.284826 -3.87455 0
M  V30 2033 H 197.001 -2.88042 -3.60319 0
M  V30 2034 H 195.244 -2.76257 -3.34462 0
M  V30 2035 H 195.915 -2.44753 -4.94773 0
M  V30 2036 H 198.391 -0.717825 -4.09862 0
M  V30 2037 H 197.267 -0.506353 -5.46559 0
M  V30 2038 H 197.528 0.820266 -4.34424 0
M  V30 2039 N 196.587 1.43421 -0.653314 0
M  V30 2040 C 197.864 1.95361 -0.0966581 0
M  V30 2041 C 198.244 1.59461 1.38331 0
M  V30 2042 O 197.592 0.879777 2.10884 0
M  V30 2043 C 197.802 3.47311 -0.342988 0
M  V30 2044 C 199.15 4.23875 -0.24798 0
M  V30 2045 O 200.174 3.55133 -0.275553 0
M  V30 2046 O 199.033 5.4623 -0.171771 0
M  V30 2047 H 196.127 0.826945 0.00956291 0
M  V30 2048 H 198.673 1.5336 -0.726558 0
M  V30 2049 H 197.445 3.66569 -1.36906 0
M  V30 2050 H 197.068 3.9631 0.319975 0
M  V30 2051 N 198.065 0.39524 1.52563 0
M  V30 2052 C 199.481 0.0454682 1.59535 0
M  V30 2053 C 199.681 -1.44056 1.4089 0
M  V30 2054 O 198.737 -2.20579 1.22888 0
M  V30 2055 C 200.05 0.527963 2.96029 0
M  V30 2056 C 201.598 0.484733 3.09224 0
M  V30 2057 C 202.073 0.943512 4.48176 0
M  V30 2058 N 203.564 0.899765 4.54377 0
M  V30 2059 C 204.299 1.22609 5.60138 0
M  V30 2060 N 203.795 1.62319 6.73516 0
M  V30 2061 N 205.588 1.14696 5.50274 0
M  V30 2062 H 197.739 1.36261 1.62931 0
M  V30 2063 H 200.002 0.558887 0.765735 0
M  V30 2064 H 199.708 1.56607 3.14908 0
M  V30 2065 H 199.582 -0.0698056 3.77135 0
M  V30 2066 H 201.969 -0.544298 2.90037 0
M  V30 2067 H 202.05 1.11838 2.30056 0
M  V30 2068 H 201.694 1.9708 4.68104 0
M  V30 2069 H 201.624 0.286817 5.25818 0
M  V30 2070 H 204.115 0.607632 3.72983 0
M  V30 2071 H 204.428 1.85567 7.5019 0
M  V30 2072 H 202.773 1.66211 6.74833 0
M  V30 2073 H 205.964 0.835701 4.6058 0
M  V30 2074 H 206.137 1.40459 6.32594 0
M  V30 2075 N 199.544 -1.57102 0.125237 0
M  V30 2076 C 200.492 -2.16905 -0.839927 0
M  V30 2077 C 201.486 -1.11998 -1.27094 0
M  V30 2078 O 202.692 -1.3029 -1.24195 0
M  V30 2079 H 199.067 -0.694252 -0.288995 0
M  V30 2080 H 201.038 -2.96774 -0.311115 0
M  V30 2081 C 199.787 -2.78795 -2.07771 0
M  V30 2082 H 199.11 -3.59221 -1.755 0
M  V30 2083 H 200.55 -3.2417 -2.73295 0
M  V30 2084 C 199.009 -1.76193 -2.87155 0
M  V30 2085 O 199.539 -1.21909 -3.82755 0
M  V30 2086 N 197.745 -1.45991 -2.51267 0
M  V30 2087 H 197.292 -1.90325 -1.73592 0
M  V30 2088 H 197.25 -0.775844 -3.04677 0
M  V30 2089 N 201.022 0.148545 -1.56898 0
M  V30 2090 C 202.268 0.862694 -1.83536 0
M  V30 2091 C 202.601 1.80889 -0.706604 0
M  V30 2092 O 201.876 1.92328 0.289885 0
M  V30 2093 C 202.159 1.63853 -3.20662 0
M  V30 2094 C 202.012 0.713925 -4.44098 0
M  V30 2095 C 203.331 2.60133 -3.54991 0
M  V30 2096 H 200.45 0.312179 -0.667618 0
M  V30 2097 H 203.092 0.127953 -1.89569 0
M  V30 2098 H 201.242 2.26489 -3.1565 0
M  V30 2099 H 202.914 0.098686 -4.61194 0
M  V30 2100 H 201.157 0.0234019 -4.33794 0
M  V30 2101 H 201.828 1.29278 -5.36648 0
M  V30 2102 H 204.304 2.07616 -3.60603 0
M  V30 2103 H 203.18 3.11468 -4.51972 0
M  V30 2104 H 203.441 3.41417 -2.80868 0
M  V30 2105 N 202.5 1.5196 0.417844 0
M  V30 2106 C 203.911 1.57851 0.997 0
M  V30 2107 C 204.262 0.413714 1.91789 0
M  V30 2108 O 203.387 -0.467057 2.113 0
M  V30 2109 C 203.982 2.86085 1.81496 0
M  V30 2110 C 202.541 2.94483 2.34428 0
M  V30 2111 C 201.688 2.52707 1.14169 0
M  V30 2112 H 204.639 1.57455 0.198392 0
M  V30 2113 H 204.66 2.70947 2.67148 0
M  V30 2114 H 204.172 3.70842 1.14446 0
M  V30 2115 H 202.273 2.142 3.04875 0
M  V30 2116 H 202.386 3.98546 2.65891 0
M  V30 2117 H 200.75 2.06353 1.49301 0
M  V30 2118 H 201.533 3.39828 0.486999 0
M  V30 2119 N 203.978 -0.674533 1.42435 0
M  V30 2120 C 205.226 -1.43175 1.42637 0
M  V30 2121 C 205.547 -1.94951 0.0438992 0
M  V30 2122 O 204.817 -1.7308 -0.917607 0
M  V30 2123 H 203.397 -0.531307 0.525092 0
M  V30 2124 H 206.059 -0.797006 1.77859 0
M  V30 2125 H 205.155 -2.28463 2.12629 0
M  V30 2126 N 205.456 -1.28612 -0.910864 0
M  V30 2127 C 206.686 -1.1862 -1.69153 0
M  V30 2128 C 207.094 0.257324 -1.87442 0
M  V30 2129 O 206.437 1.18543 -1.40332 0
M  V30 2130 C 206.499 -1.81606 -3.10257 0
M  V30 2131 C 206.163 -3.30864 -3.15243 0
M  V30 2132 C 207.16 -4.27256 -2.96223 0
M  V30 2133 C 204.845 -3.71871 -3.37664 0
M  V30 2134 C 206.839 -5.62631 -2.99541 0
M  V30 2135 C 204.526 -5.07371 -3.40614 0
M  V30 2136 C 205.524 -6.02561 -3.21573 0
M  V30 2137 O 205.212 -7.35589 -3.2429 0
M  V30 2138 H 204.944 -0.412633 -0.535453 0
M  V30 2139 H 207.498 -1.70306 -1.14827 0
M  V30 2140 H 205.728 -1.24418 -3.66138 0
M  V30 2141 H 207.417 -1.66092 -3.70362 0
M  V30 2142 H 208.183 -3.9691 -2.78725 0
M  V30 2143 H 204.062 -2.98241 -3.5153 0
M  V30 2144 H 207.606 -6.36907 -2.84597 0
M  V30 2145 H 203.503 -5.37366 -3.57642 0
M  V30 2146 H 204.271 -7.44252 -3.40633 0
M  V30 2147 N 206.934 1.1197 -1.10907 0
M  V30 2148 C 208.18 1.8386 -0.855773 0
M  V30 2149 C 208.513 1.84134 0.617103 0
M  V30 2150 O 207.788 1.29041 1.45529 0
M  V30 2151 C 208.071 3.31305 -1.411 0
M  V30 2152 C 207.924 3.39456 -2.9511 0
M  V30 2153 C 209.243 4.2721 -1.05736 0
M  V30 2154 H 206.362 0.667545 -0.312334 0
M  V30 2155 H 209.004 1.31331 -1.37303 0
M  V30 2156 H 207.154 3.76169 -0.97105 0
M  V30 2157 H 208.826 3.03191 -3.47668 0
M  V30 2158 H 207.069 2.79849 -3.31462 0
M  V30 2159 H 207.74 4.43209 -3.29044 0
M  V30 2160 H 210.216 3.90497 -1.43706 0
M  V30 2161 H 209.092 5.28775 -1.47269 0
M  V30 2162 H 209.353 4.42088 0.0325958 0
M  V30 2163 N 208.412 0.89855 1.29475 0
M  V30 2164 C 209.658 0.524658 1.95896 0
M  V30 2165 C 209.991 -0.926468 1.70676 0
M  V30 2166 O 209.266 -1.65665 1.01908 0
M  V30 2167 C 209.549 0.81633 3.50725 0
M  V30 2168 C 209.402 2.31907 3.85408 0
M  V30 2169 C 210.721 0.302038 4.39062 0
M  V30 2170 H 207.84 0.19209 0.711527 0
M  V30 2171 H 210.482 1.12502 1.53112 0
M  V30 2172 H 208.632 0.305369 3.87298 0
M  V30 2173 H 210.304 2.89949 3.58786 0
M  V30 2174 H 208.547 2.78027 3.32992 0
M  V30 2175 H 209.218 2.47373 4.93468 0
M  V30 2176 H 211.694 0.739551 4.09475 0
M  V30 2177 H 210.57 0.535331 5.46283 0
M  V30 2178 H 210.831 -0.797216 4.34853 0
M  V30 2179 N 209.89 -1.43072 0.660911 0
M  V30 2180 C 211.306 -1.56169 0.329173 0
M  V30 2181 C 211.506 -1.64317 -1.16629 0
M  V30 2182 O 210.562 -1.60245 -1.95135 0
M  V30 2183 C 211.875 -2.81873 1.04729 0
M  V30 2184 C 213.423 -2.95627 1.02828 0
M  V30 2185 C 213.898 -4.24174 1.72744 0
M  V30 2186 N 215.389 -4.31055 1.69545 0
M  V30 2187 C 216.124 -5.29304 2.20511 0
M  V30 2188 N 215.62 -6.33786 2.79799 0
M  V30 2189 N 217.413 -5.21008 2.10966 0
M  V30 2190 H 209.564 -1.36027 1.63127 0
M  V30 2191 H 211.827 -0.653823 0.686454 0
M  V30 2192 H 211.533 -2.81942 2.10242 0
M  V30 2193 H 211.407 -3.72338 0.603702 0
M  V30 2194 H 213.794 -2.95094 -0.0184742 0
M  V30 2195 H 213.875 -2.06431 1.51063 0
M  V30 2196 H 213.519 -4.25467 2.7738 0
M  V30 2197 H 213.449 -5.1228 1.2197 0
M  V30 2198 H 215.94 -3.56174 1.26288 0
M  V30 2199 H 216.253 -7.05086 3.16344 0
M  V30 2200 H 214.598 -6.34387 2.83863 0
M  V30 2201 H 217.789 -4.38301 1.64347 0
M  V30 2202 H 217.962 -5.97416 2.50993 0
M  V30 2203 N 211.368 -0.403325 -1.52352 0
M  V30 2204 C 212.318 0.442244 -2.2367 0
M  V30 2205 C 213.302 1.01823 -1.24583 0
M  V30 2206 O 214.494 0.942005 -1.49851 0
M  V30 2207 C 211.623 1.5615 -3.05732 0
M  V30 2208 C 210.709 0.996575 -4.12225 0
M  V30 2209 N 211.1 0.157804 -5.05554 0
M  V30 2210 C 209.398 1.26767 -4.27605 0
M  V30 2211 C 210.099 -0.155853 -5.81491 0
M  V30 2212 N 209.075 0.451775 -5.41719 0
M  V30 2213 H 212.877 -0.204964 -2.93184 0
M  V30 2214 H 210.391 -0.213418 -1.60992 0
M  V30 2215 H 212.388 2.17981 -3.55373 0
M  V30 2216 H 211.048 2.21139 -2.37755 0
M  V30 2217 H 212.059 -0.206049 -5.1749 0
M  V30 2218 H 208.736 1.91757 -3.70858 0
M  V30 2219 H 210.126 -0.836329 -6.66675 0
M  V30 2220 N 212.846 1.57033 -0.133567 0
M  V30 2221 C 213.809 2.14897 0.796995 0
M  V30 2222 C 214.809 1.0874 1.18458 0
M  V30 2223 O 215.999 1.34446 1.1077 0
M  V30 2224 C 213.131 2.70112 2.07973 0
M  V30 2225 H 214.324 2.98457 0.293873 0
M  V30 2226 H 211.877 1.55871 0.115787 0
M  V30 2227 H 212.612 1.9018 2.62682 0
M  V30 2228 H 212.397 3.47764 1.81115 0
M  V30 2229 H 213.887 3.14738 2.74462 0
M  V30 2230 N 214.325 -0.140222 1.56975 0
M  V30 2231 C 215.741 -0.493088 1.51792 0
M  V30 2232 C 215.941 -1.83013 0.843116 0
M  V30 2233 O 214.997 -2.49041 0.416493 0
M  V30 2234 C 216.31 -0.497144 2.96562 0
M  V30 2235 C 217.858 -0.582186 3.07538 0
M  V30 2236 C 218.333 -0.616838 4.53827 0
M  V30 2237 N 219.824 -0.678873 4.58198 0
M  V30 2238 C 220.559 -0.726782 5.68775 0
M  V30 2239 N 220.055 -0.733623 6.88905 0
M  V30 2240 N 221.848 -0.768179 5.56826 0
M  V30 2241 H 213.999 0.736108 1.99237 0
M  V30 2242 H 216.262 0.269182 0.90898 0
M  V30 2243 H 215.968 0.417217 3.49217 0
M  V30 2244 H 215.842 -1.33263 3.52875 0
M  V30 2245 H 218.229 -1.48697 2.54899 0
M  V30 2246 H 218.31 0.280581 2.54257 0
M  V30 2247 H 217.954 0.283812 5.07106 0
M  V30 2248 H 217.884 -1.49619 5.04898 0
M  V30 2249 H 220.375 -0.68061 3.7172 0
M  V30 2250 H 220.688 -0.772215 7.68932 0
M  V30 2251 H 219.033 -0.701389 6.91452 0
M  V30 2252 H 222.224 -0.760051 4.61888 0
M  V30 2253 H 222.397 -0.80205 6.43017 0
M  V30 2254 N 215.803 -1.52179 -0.40978 0
M  V30 2255 C 217.049 -1.66453 -1.15851 0
M  V30 2256 C 217.382 -0.392972 -1.90182 0
M  V30 2257 O 216.657 0.608579 -1.84734 0
M  V30 2258 C 216.94 -2.88612 -2.15349 0
M  V30 2259 C 216.793 -4.25815 -1.44918 0
M  V30 2260 C 218.112 -3.06294 -3.16026 0
M  V30 2261 H 215.231 -0.60575 -0.419805 0
M  V30 2262 H 217.873 -1.84732 -0.444314 0
M  V30 2263 H 216.023 -2.73158 -2.76255 0
M  V30 2264 H 217.695 -4.52995 -0.871365 0
M  V30 2265 H 215.938 -4.27247 -0.751159 0
M  V30 2266 H 216.609 -5.07337 -2.17516 0
M  V30 2267 H 219.085 -3.20641 -2.65195 0
M  V30 2268 H 217.961 -3.93283 -3.8291 0
M  V30 2269 H 218.222 -2.19579 -3.83715 0
M  V30 2270 N 217.281 0.66697 -1.42791 0
M  V30 2271 C 218.509 1.45505 -1.47091 0
M  V30 2272 C 218.924 1.8861 -0.0845873 0
M  V30 2273 O 218.281 1.58632 0.90234 0
M  V30 2274 C 218.332 2.69906 -2.40485 0
M  V30 2275 O 218.053 2.28608 -3.73725 0
M  V30 2276 C 219.554 3.63396 -2.53886 0
M  V30 2277 H 216.774 0.447459 -0.500022 0
M  V30 2278 H 219.318 0.818866 -1.8739 0
M  V30 2279 H 217.473 3.29696 -2.03419 0
M  V30 2280 H 217.887 3.08997 -4.23817 0
M  V30 2281 H 219.361 4.47387 -3.2334 0
M  V30 2282 H 219.838 4.09824 -1.57927 0
M  V30 2283 H 220.444 3.09495 -2.91706 0
M  V30 2284 N 218.759 1.29093 0.90403 0
M  V30 2285 C 220.005 1.16986 1.65656 0
M  V30 2286 C 220.338 -0.278925 1.92186 0
M  V30 2287 O 219.613 -1.2019 1.5292 0
M  V30 2288 C 219.896 1.97908 3.0084 0
M  V30 2289 C 219.749 3.50903 2.81403 0
M  V30 2290 C 221.068 1.80208 4.01513 0
M  V30 2291 H 218.187 0.426346 0.601164 0
M  V30 2292 H 220.829 1.58518 1.04747 0
M  V30 2293 H 218.979 1.62616 3.52829 0
M  V30 2294 H 220.651 3.96153 2.36348 0
M  V30 2295 H 218.894 3.76045 2.1627 0
M  V30 2296 H 219.565 4.02791 3.77443 0
M  V30 2297 H 222.041 2.11025 3.58619 0
M  V30 2298 H 220.917 2.39184 4.94047 0
M  V30 2299 H 221.178 0.756119 4.35586 0
M  V30 2300 N 220.237 -1.11381 1.11499 0
M  V30 2301 C 221.514 -1.7955 0.775965 0
M  V30 2302 C 221.894 -1.97859 -0.73588 0
M  V30 2303 O 221.242 -1.56376 -1.66609 0
M  V30 2304 C 221.452 -3.13196 1.53977 0
M  V30 2305 C 222.8 -3.88227 1.71944 0
M  V30 2306 O 223.824 -3.22887 1.50407 0
M  V30 2307 O 222.683 -5.05477 2.07738 0
M  V30 2308 H 219.777 -0.777728 0.28119 0
M  V30 2309 H 222.323 -1.18118 1.21845 0
M  V30 2310 H 221.095 -2.95229 2.56818 0
M  V30 2311 H 220.718 -3.82342 1.09088 0
M  V30 2312 N 221.715 -0.905404 -1.28997 0
M  V30 2313 C 222.945 -0.549049 -1.99171 0
M  V30 2314 C 223.353 0.87203 -1.67906 0
M  V30 2315 O 222.696 1.58796 -0.923561 0
M  V30 2316 C 222.758 -0.668306 -3.53234 0
M  V30 2317 C 222.422 -2.0574 -4.08069 0
M  V30 2318 C 223.419 -3.0292 -4.22534 0
M  V30 2319 C 221.104 -2.36833 -4.42962 0
M  V30 2320 C 223.098 -4.29314 -4.71135 0
M  V30 2321 C 220.785 -3.63467 -4.91258 0
M  V30 2322 C 221.783 -4.59522 -5.053 0
M  V30 2323 O 221.471 -5.83907 -5.52546 0
M  V30 2324 H 221.203 -0.208784 -0.64295 0
M  V30 2325 H 223.757 -1.21836 -1.65363 0
M  V30 2326 H 221.987 0.0580547 -3.86656 0
M  V30 2327 H 223.676 -0.320273 -4.04634 0
M  V30 2328 H 224.442 -2.80216 -3.95859 0
M  V30 2329 H 220.321 -1.62824 -4.31288 0
M  V30 2330 H 223.865 -5.04293 -4.8201 0
M  V30 2331 H 219.762 -3.86 -5.17372 0
M  V30 2332 H 220.53 -5.86578 -5.70849 0
M  V30 2333 N 223.193 1.4272 -0.668489 0
M  V30 2334 C 224.44 2.01624 -0.18814 0
M  V30 2335 C 224.768 1.5282 1.20317 0
M  V30 2336 O 224.023 0.718323 1.8204 0
M  V30 2337 C 224.322 3.57021 -0.164499 0
M  V30 2338 C 223.988 4.25232 -1.49962 0
M  V30 2339 C 222.65 4.4358 -1.8652 0
M  V30 2340 C 225.002 4.63727 -2.37921 0
M  V30 2341 C 222.33 4.97694 -3.10674 0
M  V30 2342 C 224.682 5.19218 -3.6138 0
M  V30 2343 C 223.346 5.3578 -3.98115 0
M  V30 2344 H 222.616 0.737795 -0.0688454 0
M  V30 2345 H 225.263 1.70991 -0.862225 0
M  V30 2346 H 223.568 3.87285 0.593079 0
M  V30 2347 H 225.265 4.00372 0.224271 0
M  V30 2348 H 221.855 4.11306 -1.20522 0
M  V30 2349 H 226.039 4.4923 -2.10964 0
M  V30 2350 H 221.295 5.08702 -3.39164 0
M  V30 2351 H 225.469 5.4799 -4.29743 0
M  V30 2352 H 223.096 5.77475 -4.94395 0
M  V30 2353 N 224.671 0.411399 1.52136 0
M  V30 2354 C 225.948 -0.222308 1.94333 0
M  V30 2355 C 226.328 -1.6242 1.34844 0
M  V30 2356 O 225.676 -2.22384 0.525145 0
M  V30 2357 C 225.886 -0.226345 3.48265 0
M  V30 2358 C 227.234 -0.444592 4.22266 0
M  V30 2359 O 228.258 -0.305602 3.54887 0
M  V30 2360 O 227.117 -0.718749 5.41753 0
M  V30 2361 H 224.211 -0.143907 0.814383 0
M  V30 2362 H 226.757 0.467506 1.63133 0
M  V30 2363 H 225.529 0.75475 3.83952 0
M  V30 2364 H 225.152 -0.960163 3.85832 0
M  V30 2365 N 226.149 -1.5696 0.141893 0
M  V30 2366 C 227.096 -2.16501 -0.799737 0
M  V30 2367 C 228.066 -1.09643 -1.24771 0
M  V30 2368 O 229.251 -1.3766 -1.32115 0
M  V30 2369 C 226.391 -2.78679 -2.03549 0
M  V30 2370 C 225.504 -3.99914 -1.6338 0
M  V30 2371 C 224.639 -4.50106 -2.82096 0
M  V30 2372 C 223.678 -5.63819 -2.38275 0
M  V30 2373 N 222.815 -6.08651 -3.49983 0
M  V30 2374 H 227.655 -2.96632 -0.285179 0
M  V30 2375 H 225.192 -1.46533 -0.129053 0
M  V30 2376 H 227.15 -3.1287 -2.75986 0
M  V30 2377 H 225.78 -2.012 -2.52425 0
M  V30 2378 H 224.832 -3.71735 -0.807279 0
M  V30 2379 H 226.144 -4.82311 -1.27192 0
M  V30 2380 H 225.298 -4.86325 -3.62729 0
M  V30 2381 H 224.037 -3.66706 -3.21525 0
M  V30 2382 H 223.042 -5.2718 -1.56081 0
M  V30 2383 H 224.267 -6.49 -1.99938 0
M  V30 2384 H 222.213 -5.28188 -3.89042 0
M  V30 2385 H 222.13 -6.85961 -3.17794 0
M  V30 2386 H 223.398 -6.49515 -4.30988 0
M  V30 2387 N 227.627 0.131896 -1.57047 0
M  V30 2388 C 228.904 0.871495 -1.75112 0
M  V30 2389 C 229.284 1.9866 -0.713949 0
M  V30 2390 O 228.632 2.26965 0.264447 0
M  V30 2391 C 228.842 1.40007 -3.19686 0
M  V30 2392 C 230.19 1.85752 -3.81813 0
M  V30 2393 O 231.214 1.49715 -3.23209 0
M  V30 2394 O 230.073 2.5226 -4.84796 0
M  V30 2395 H 227.167 0.412919 -0.716538 0
M  V30 2396 H 229.713 0.116641 -1.69299 0
M  V30 2397 H 228.485 0.599404 -3.86682 0
M  V30 2398 H 228.108 2.218 -3.29986 0
M  V30 2399 N 229.106 1.52395 0.401703 0
M  V30 2400 C 230.354 1.66488 1.14569 0
M  V30 2401 C 230.675 0.400897 1.90835 0
M  V30 2402 O 229.945 -0.584415 1.8698 0
M  V30 2403 H 228.525 0.613672 0.425929 0
M  V30 2404 H 231.187 1.89464 0.457093 0
M  V30 2405 H 230.283 2.50942 1.85566 0
M  V30 2406 N 230.584 -0.659388 1.43143 0
M  V30 2407 C 231.494 -1.80167 1.50256 0
M  V30 2408 C 232.51 -1.69571 0.390106 0
M  V30 2409 O 233.686 -1.90849 0.643319 0
M  V30 2410 C 230.751 -3.16409 1.41725 0
M  V30 2411 C 229.812 -3.38848 2.63591 0
M  V30 2412 C 229.045 -4.68591 2.55458 0
M  V30 2413 O 229.268 -5.47532 1.59891 0
M  V30 2414 O 228.202 -4.92614 3.45854 0
M  V30 2415 H 232.028 -1.77121 2.46702 0
M  V30 2416 H 229.613 -0.817092 1.25076 0
M  V30 2417 H 231.495 -3.9768 1.39387 0
M  V30 2418 H 230.17 -3.20059 0.484118 0
M  V30 2419 H 229.077 -2.57366 2.71502 0
M  V30 2420 H 230.41 -3.4004 3.55856 0
M  V30 2421 N 232.062 -1.29571 -0.897171 0
M  V30 2422 C 233.009 -1.14916 -2.00158 0
M  V30 2423 C 233.979 -0.0418149 -1.66047 0
M  V30 2424 O 235.164 -0.209793 -1.89643 0
M  V30 2425 C 232.304 -0.834307 -3.34863 0
M  V30 2426 C 231.417 -2.02234 -3.8174 0
M  V30 2427 C 230.552 -1.64664 -5.05034 0
M  V30 2428 C 229.591 -2.80033 -5.44286 0
M  V30 2429 N 228.728 -2.42843 -6.58765 0
M  V30 2430 H 233.568 -2.09403 -2.12025 0
M  V30 2431 H 231.105 -1.042 -1.0383 0
M  V30 2432 H 233.063 -0.632436 -4.12379 0
M  V30 2433 H 231.693 0.0736656 -3.22716 0
M  V30 2434 H 230.745 -2.33583 -3.00238 0
M  V30 2435 H 232.057 -2.88673 -4.06779 0
M  V30 2436 H 231.211 -1.4078 -5.9014 0
M  V30 2437 H 229.95 -0.753766 -4.8184 0
M  V30 2438 H 228.955 -3.04596 -4.57713 0
M  V30 2439 H 230.18 -3.69989 -5.6946 0
M  V30 2440 H 228.126 -1.56046 -6.3717 0
M  V30 2441 H 228.043 -3.22815 -6.83613 0
M  V30 2442 H 229.311 -2.22285 -7.47134 0
M  V30 2443 N 233.54 1.10788 -1.12088 0
M  V30 2444 C 234.49 2.15158 -0.754401 0
M  V30 2445 C 235.474 1.59026 0.244846 0
M  V30 2446 O 236.666 1.76927 0.0509097 0
M  V30 2447 C 233.795 3.42677 -0.206657 0
M  V30 2448 C 232.881 4.05751 -1.23398 0
M  V30 2449 N 233.272 4.43582 -2.43041 0
M  V30 2450 C 231.57 4.32764 -1.07848 0
M  V30 2451 C 232.271 4.93085 -3.08613 0
M  V30 2452 N 231.247 4.89664 -2.36072 0
M  V30 2453 H 235.049 2.42195 -1.6649 0
M  V30 2454 H 232.563 1.27872 -1.00112 0
M  V30 2455 H 234.56 4.16834 0.0740646 0
M  V30 2456 H 233.22 3.17101 0.698342 0
M  V30 2457 H 234.231 4.35395 -2.80449 0
M  V30 2458 H 230.908 4.16863 -0.230483 0
M  V30 2459 H 232.298 5.31933 -4.10483 0
M  V30 2460 N 235.018 0.912232 1.28515 0
M  V30 2461 C 236.434 0.610159 1.47476 0
M  V30 2462 C 236.634 -0.844955 1.82928 0
M  V30 2463 O 235.69 -1.62416 1.93332 0
M  V30 2464 C 237.003 1.54675 2.57868 0
M  V30 2465 C 238.551 1.55331 2.71738 0
M  V30 2466 C 239.026 2.47649 3.85272 0
M  V30 2467 N 240.517 2.45767 3.92623 0
M  V30 2468 C 241.252 3.13896 4.79851 0
M  V30 2469 N 240.748 3.9135 5.71679 0
M  V30 2470 N 242.541 3.02991 4.73448 0
M  V30 2471 H 234.692 1.85318 1.03783 0
M  V30 2472 H 236.955 0.794777 0.516753 0
M  V30 2473 H 236.661 2.5841 2.38574 0
M  V30 2474 H 236.535 1.27671 3.54937 0
M  V30 2475 H 238.922 0.52335 2.90422 0
M  V30 2476 H 239.003 1.86378 1.75205 0
M  V30 2477 H 238.647 3.50745 3.67342 0
M  V30 2478 H 238.577 2.13904 4.81199 0
M  V30 2479 H 241.068 1.89503 3.26951 0
M  V30 2480 H 241.381 4.40359 6.35062 0
M  V30 2481 H 239.726 3.95455 5.71524 0
M  V30 2482 H 242.917 2.41987 4.007 0
M  V30 2483 H 243.09 3.5636 5.41213 0
M  V30 2484 N 236.496 -1.42363 0.676048 0
M  V30 2485 C 237.745 -2.00745 0.196037 0
M  V30 2486 C 238.058 -1.54083 -1.20489 0
M  V30 2487 O 239.264 -2.04891 -1.78134 0
M  V30 2488 C 237.72 -3.58651 0.299616 0
M  V30 2489 C 237.328 -4.143 1.70468 0
M  V30 2490 C 239.072 -4.24326 -0.121619 0
M  V30 2491 C 236.979 -5.64574 1.76096 0
M  V30 2492 H 235.909 -0.750787 0.0695301 0
M  V30 2493 H 238.56 -1.63072 0.841412 0
M  V30 2494 H 236.942 -3.93833 -0.413673 0
M  V30 2495 H 238.116 -3.90575 2.44515 0
M  V30 2496 H 236.431 -3.61081 2.07387 0
M  V30 2497 H 239.028 -5.34607 -0.0997362 0
M  V30 2498 H 239.371 -3.99897 -1.15708 0
M  V30 2499 H 239.904 -3.94108 0.540706 0
M  V30 2500 H 236.643 -5.93804 2.77628 0
M  V30 2501 H 236.163 -5.90286 1.06406 0
M  V30 2502 H 237.842 -6.29013 1.51496 0
M  V30 2503 N 237.974 -0.419461 -1.51915 0
M  V30 2504 C 238.921 0.400927 -2.27291 0
M  V30 2505 C 239.891 1.03224 -1.30131 0
M  V30 2506 O 241.076 1.05455 -1.59009 0
M  V30 2507 C 238.216 1.50603 -3.10504 0
M  V30 2508 C 237.329 0.89462 -4.22635 0
M  V30 2509 C 236.464 1.97328 -4.93189 0
M  V30 2510 C 235.503 1.33935 -5.97267 0
M  V30 2511 N 234.64 2.3586 -6.61298 0
M  V30 2512 H 239.48 -0.248251 -2.96964 0
M  V30 2513 H 237.017 -0.134266 -1.46486 0
M  V30 2514 H 238.975 2.15783 -3.57062 0
M  V30 2515 H 237.605 2.12509 -2.42981 0
M  V30 2516 H 236.657 0.131583 -3.80172 0
M  V30 2517 H 237.969 0.391641 -4.9726 0
M  V30 2518 H 237.123 2.70211 -5.43204 0
M  V30 2519 H 235.862 2.50994 -4.18155 0
M  V30 2520 H 234.867 0.595896 -5.46561 0
M  V30 2521 H 236.092 0.810252 -6.74249 0
M  V30 2522 H 234.038 2.88639 -5.89087 0
M  V30 2523 H 233.955 1.90403 -7.3163 0
M  V30 2524 H 235.223 3.08282 -7.15949 0
M  V30 2525 N 239.452 1.56882 -0.150215 0
M  V30 2526 C 240.382 2.19935 0.784284 0
M  V30 2527 C 241.363 1.14854 1.25469 0
M  V30 2528 O 242.548 1.43209 1.31168 0
M  V30 2529 C 239.678 2.82349 2.02229 0
M  V30 2530 C 238.632 3.93285 1.68853 0
M  V30 2531 C 237.958 4.42649 2.99944 0
M  V30 2532 C 239.258 5.13904 0.932714 0
M  V30 2533 H 240.952 2.9828 0.258781 0
M  V30 2534 H 238.498 1.43473 0.123029 0
M  V30 2535 H 240.451 3.25126 2.68088 0
M  V30 2536 H 239.175 2.0134 2.57157 0
M  V30 2537 H 237.834 3.5113 1.05371 0
M  V30 2538 H 237.482 3.58458 3.52869 0
M  V30 2539 H 237.182 5.17476 2.78374 0
M  V30 2540 H 238.706 4.88099 3.66868 0
M  V30 2541 H 240.12 5.53506 1.49345 0
M  V30 2542 H 238.517 5.94515 0.81684 0
M  V30 2543 H 239.587 4.84842 -0.0749568 0
M  V30 2544 N 240.93 -0.123565 1.57115 0
M  V30 2545 C 241.877 -1.15177 2.00007 0
M  V30 2546 C 242.847 -1.41403 0.871454 0
M  V30 2547 O 244.032 -1.53346 1.13533 0
M  V30 2548 C 241.172 -2.47436 2.40561 0
M  V30 2549 C 240.285 -2.28184 3.66819 0
M  V30 2550 C 239.42 -3.53641 3.96373 0
M  V30 2551 C 238.459 -3.29528 5.15827 0
M  V30 2552 N 237.596 -4.47175 5.41275 0
M  V30 2553 H 242.436 -0.779008 2.87638 0
M  V30 2554 H 239.973 -0.373166 1.42288 0
M  V30 2555 H 241.931 -3.24584 2.62109 0
M  V30 2556 H 240.561 -2.82614 1.55978 0
M  V30 2557 H 239.613 -1.41976 3.52912 0
M  V30 2558 H 240.925 -2.0634 4.5412 0
M  V30 2559 H 240.079 -4.39209 4.18545 0
M  V30 2560 H 238.818 -3.78512 3.07538 0
M  V30 2561 H 237.823 -2.42349 4.93505 0
M  V30 2562 H 239.048 -3.06031 6.06236 0
M  V30 2563 H 236.994 -4.72175 4.55397 0
M  V30 2564 H 236.911 -4.28419 6.22891 0
M  V30 2565 H 238.179 -5.3389 5.67963 0
M  V30 2566 N 242.408 -1.52605 -0.393616 0
M  V30 2567 C 243.656 -1.67093 -1.13685 0
M  V30 2568 C 243.977 -0.411011 -1.90619 0
M  V30 2569 O 243.247 0.574491 -1.87287 0
M  V30 2570 H 241.827 -0.615923 -0.422668 0
M  V30 2571 H 244.489 -1.89704 -0.447039 0
M  V30 2572 H 243.585 -2.51922 -1.84232 0
M  V30 2573 N 243.887 0.651787 -1.4349 0
M  V30 2574 C 245.117 1.43728 -1.48411 0
M  V30 2575 C 245.525 1.8893 -0.10103 0
M  V30 2576 O 244.868 1.60182 0.899307 0
M  V30 2577 C 244.93 2.70411 -2.36893 0
M  V30 2578 C 244.594 2.4714 -3.8441 0
M  V30 2579 C 245.591 2.10271 -4.75481 0
M  V30 2580 C 243.276 2.6142 -4.28912 0
M  V30 2581 C 245.27 1.87982 -6.0905 0
M  V30 2582 C 242.957 2.38746 -5.62533 0
M  V30 2583 C 243.955 2.02083 -6.5242 0
M  V30 2584 O 243.643 1.79647 -7.8357 0
M  V30 2585 H 243.375 0.447962 -0.506267 0
M  V30 2586 H 245.929 0.80624 -1.88915 0
M  V30 2587 H 244.159 3.36079 -1.91278 0
M  V30 2588 H 245.848 3.32364 -2.33 0
M  V30 2589 H 246.614 1.98814 -4.42378 0
M  V30 2590 H 242.493 2.88931 -3.59222 0
M  V30 2591 H 246.037 1.5929 -6.7917 0
M  V30 2592 H 241.934 2.49806 -5.95203 0
M  V30 2593 H 242.702 1.9406 -7.95162 0
M  V30 2594 N 245.365 1.30045 0.890287 0
M  V30 2595 C 246.313 1.15873 2.01683 0
M  V30 2596 C 247.307 0.0719403 1.69247 0
M  V30 2597 O 248.513 0.232414 1.78493 0
M  V30 2598 H 244.888 0.358203 0.661207 0
M  V30 2599 H 246.859 2.11229 2.10772 0
M  V30 2600 C 245.608 0.861842 3.36849 0
M  V30 2601 H 244.931 1.69016 3.62317 0
M  V30 2602 H 246.371 0.802762 4.16331 0
M  V30 2603 C 244.83 -0.435132 3.34078 0
M  V30 2604 O 245.36 -1.4583 3.74295 0
M  V30 2605 N 243.566 -0.444377 2.87182 0
M  V30 2606 H 243.113 0.388723 2.5465 0
M  V30 2607 H 243.071 -1.31213 2.85711 0
M  V30 2608 N 246.843 -1.10192 1.12674 0
M  V30 2609 C 248.068 -1.86523 0.906853 0
M  V30 2610 C 248.493 -1.80221 -0.538711 0
M  V30 2611 O 247.851 -1.17396 -1.38158 0
M  V30 2612 C 247.899 -3.32758 1.3894 0
M  V30 2613 O 247.003 -4.08449 0.5695 0
M  V30 2614 H 246.344 -0.578678 0.325619 0
M  V30 2615 H 248.874 -1.39203 1.49946 0
M  V30 2616 H 248.884 -3.83608 1.38958 0
M  V30 2617 H 247.559 -3.36661 2.44197 0
M  V30 2618 H 246.136 -3.67427 0.636528 0
M  V30 2619 N 248.321 -0.919034 -1.28029 0
M  V30 2620 C 249.57 -0.550802 -1.94034 0
M  V30 2621 C 249.883 0.910877 -1.73096 0
M  V30 2622 O 251.089 1.3875 -2.33368 0
M  V30 2623 C 249.545 -0.934249 -3.47563 0
M  V30 2624 C 249.153 -2.41602 -3.7727 0
M  V30 2625 C 250.897 -0.636854 -4.19696 0
M  V30 2626 C 248.804 -2.73932 -5.24133 0
M  V30 2627 H 247.734 -0.202273 -0.726362 0
M  V30 2628 H 250.385 -1.11867 -1.45458 0
M  V30 2629 H 248.767 -0.295115 -3.94899 0
M  V30 2630 H 249.941 -3.10233 -3.40723 0
M  V30 2631 H 248.256 -2.68441 -3.18321 0
M  V30 2632 H 250.853 -0.855005 -5.2782 0
M  V30 2633 H 251.196 0.425575 -4.14119 0
M  V30 2634 H 251.729 -1.23469 -3.78154 0
M  V30 2635 H 248.468 -3.79049 -5.34792 0
M  V30 2636 H 247.988 -2.09942 -5.61858 0
M  V30 2637 H 249.667 -2.61215 -5.91925 0
M  V30 2638 N 249.799 1.42003 -0.683588 0
M  V30 2639 C 251.045 2.01712 -0.209825 0
M  V30 2640 C 251.378 1.53968 1.18353 0
M  V30 2641 O 250.653 0.745661 1.79639 0
M  V30 2642 C 250.936 3.59202 -0.254197 0
M  V30 2643 C 250.789 4.17102 -1.68363 0
M  V30 2644 C 252.108 4.38344 0.392709 0
M  V30 2645 H 249.227 0.732891 -0.0777189 0
M  V30 2646 H 251.869 1.68909 -0.87004 0
M  V30 2647 H 250.019 3.87278 0.307954 0
M  V30 2648 H 251.691 3.99946 -2.29871 0
M  V30 2649 H 249.934 3.72597 -2.22157 0
M  V30 2650 H 250.605 5.26249 -1.6663 0
M  V30 2651 H 253.081 4.16011 -0.0859162 0
M  V30 2652 H 251.957 5.47901 0.331063 0
M  V30 2653 H 252.218 4.16887 1.47164 0
M  V30 2654 N 251.277 0.427512 1.51691 0
M  V30 2655 C 252.523 -0.142439 2.02299 0
M  V30 2656 C 252.856 -1.43214 1.31162 0
M  V30 2657 O 252.131 -1.89833 0.423511 0
M  V30 2658 C 252.414 -0.371301 3.58181 0
M  V30 2659 C 252.267 0.936358 4.39946 0
M  V30 2660 C 253.586 -1.14542 4.24933 0
M  V30 2661 H 250.705 -0.0502937 0.735282 0
M  V30 2662 H 253.347 0.564584 1.81418 0
M  V30 2663 H 251.497 -0.973559 3.76104 0
M  V30 2664 H 253.169 1.57184 4.33694 0
M  V30 2665 H 251.412 1.5432 4.05423 0
M  V30 2666 H 252.083 0.730388 5.47147 0
M  V30 2667 H 254.559 -0.635362 4.11221 0
M  V30 2668 H 253.435 -1.27431 5.33903 0
M  V30 2669 H 253.696 -2.17093 3.85127 0
M  V30 2670 N 252.755 -1.56801 0.158532 0
M  V30 2671 C 253.687 -2.14488 -0.807923 0
M  V30 2672 C 254.7 -1.09721 -1.20271 0
M  V30 2673 O 255.889 -1.36956 -1.14478 0
M  V30 2674 C 252.989 -2.66217 -2.09718 0
M  V30 2675 C 252.162 -3.95507 -1.86796 0
M  V30 2676 C 251.221 -4.3243 -2.99818 0
M  V30 2677 O 250.247 -5.00543 -2.71008 0
M  V30 2678 N 251.449 -3.92947 -4.27285 0
M  V30 2679 H 254.214 -2.98042 -0.314816 0
M  V30 2680 H 251.775 -1.61881 -0.0246692 0
M  V30 2681 H 253.767 -2.87924 -2.84398 0
M  V30 2682 H 252.337 -1.87324 -2.50257 0
M  V30 2683 H 251.557 -3.82309 -0.96089 0
M  V30 2684 H 252.845 -4.79972 -1.68833 0
M  V30 2685 H 252.243 -3.38087 -4.53557 0
M  V30 2686 H 250.8 -4.19681 -4.9871 0
M  V30 2687 N 254.233 0.115231 -1.57178 0
M  V30 2688 C 255.183 1.14707 -1.97044 0
M  V30 2689 C 256.167 1.36866 -0.845957 0
M  V30 2690 O 257.359 1.37895 -1.10968 0
M  V30 2691 C 254.488 2.47266 -2.38148 0
M  V30 2692 C 253.574 2.28566 -3.57237 0
M  V30 2693 N 253.965 1.79685 -4.72807 0
M  V30 2694 C 252.263 2.59208 -3.62943 0
M  V30 2695 C 252.964 1.74781 -5.54821 0
M  V30 2696 N 251.94 2.19264 -4.97417 0
M  V30 2697 H 255.742 0.761754 -2.83857 0
M  V30 2698 H 253.256 0.322928 -1.59157 0
M  V30 2699 H 255.253 3.219 -2.64927 0
M  V30 2700 H 253.913 2.86552 -1.52702 0
M  V30 2701 H 254.924 1.49177 -4.9595 0
M  V30 2702 H 251.601 3.02154 -2.88113 0
M  V30 2703 H 252.991 1.38212 -6.57531 0
M  V30 2704 N 255.711 1.52812 0.385517 0
M  V30 2705 C 256.621 1.80766 1.49535 0
M  V30 2706 C 257.637 0.694651 1.59532 0
M  V30 2707 O 258.813 0.982611 1.75803 0
M  V30 2708 C 255.878 1.97381 2.85029 0
M  V30 2709 C 254.939 3.21295 2.84724 0
M  V30 2710 C 254.172 3.37108 4.13756 0
M  V30 2711 O 254.395 2.5765 5.08893 0
M  V30 2712 O 253.329 4.30378 4.20783 0
M  V30 2713 H 257.155 2.75015 1.28842 0
M  V30 2714 H 254.74 1.37946 0.573697 0
M  V30 2715 H 256.622 2.09996 3.65349 0
M  V30 2716 H 255.297 1.06322 3.05741 0
M  V30 2717 H 254.204 3.1412 2.03174 0
M  V30 2718 H 255.537 4.12212 2.68965 0
M  V30 2719 N 257.189 -0.644168 1.43834 0
M  V30 2720 C 258.438 -1.39985 1.45214 0
M  V30 2721 C 258.751 -1.95421 0.0835494 0
M  V30 2722 O 259.957 -2.71488 -0.0251748 0
M  V30 2723 C 258.413 -2.53384 2.55587 0
M  V30 2724 C 258.021 -2.04517 3.98594 0
M  V30 2725 C 259.765 -3.30685 2.66172 0
M  V30 2726 C 257.672 -3.1518 5.00416 0
M  V30 2727 H 256.602 -0.526005 0.540218 0
M  V30 2728 H 259.253 -0.694367 1.69855 0
M  V30 2729 H 257.635 -3.26446 2.24163 0
M  V30 2730 H 258.809 -1.38405 4.39523 0
M  V30 2731 H 257.124 -1.40068 3.92135 0
M  V30 2732 H 259.721 -4.13158 3.39418 0
M  V30 2733 H 260.064 -3.79312 1.71546 0
M  V30 2734 H 260.597 -2.64708 2.96942 0
M  V30 2735 H 257.336 -2.71511 5.96625 0
M  V30 2736 H 256.856 -3.79974 4.64091 0
M  V30 2737 H 258.535 -3.80166 5.23529 0
M  V30 2738 N 258.668 -1.30515 -0.883378 0
M  V30 2739 C 259.945 -1.10086 -1.6168 0
M  V30 2740 C 260.325 0.349269 -2.08191 0
M  V30 2741 O 259.673 1.34105 -1.85008 0
M  V30 2742 C 259.883 -2.10315 -2.78511 0
M  V30 2743 C 261.231 -2.42119 -3.48803 0
M  V30 2744 O 262.255 -2.08638 -2.88702 0
M  V30 2745 O 261.114 -2.99396 -4.57192 0
M  V30 2746 H 258.208 -0.422907 -0.710689 0
M  V30 2747 H 260.754 -1.41947 -0.930015 0
M  V30 2748 H 259.526 -3.07917 -2.41459 0
M  V30 2749 H 259.149 -1.79282 -3.54886 0
M  V30 2750 N 260.146 1.09593 -1.13257 0
M  V30 2751 C 261.096 2.14345 -0.777179 0
M  V30 2752 C 262.08 1.59277 0.227966 0
M  V30 2753 O 263.272 1.76971 0.0321413 0
M  V30 2754 C 260.401 3.42439 -0.242991 0
M  V30 2755 C 259.487 4.04419 -1.27694 0
M  V30 2756 N 259.878 4.40979 -2.47732 0
M  V30 2757 C 258.176 4.31596 -1.12432 0
M  V30 2758 C 258.877 4.89784 -3.13826 0
M  V30 2759 N 257.853 4.87133 -2.41252 0
M  V30 2760 H 261.655 2.40415 -1.69049 0
M  V30 2761 H 259.169 1.26803 -1.01463 0
M  V30 2762 H 261.166 4.16889 0.0298496 0
M  V30 2763 H 259.826 3.17824 0.66467 0
M  V30 2764 H 260.837 4.32396 -2.85051 0
M  V30 2765 H 257.514 4.16595 -0.274684 0
M  V30 2766 H 258.904 5.2755 -4.16102 0
M  V30 2767 N 261.624 0.925811 1.2754 0
M  V30 2768 C 262.873 0.561084 1.93739 0
M  V30 2769 C 263.186 -0.901685 1.73577 0
M  V30 2770 O 264.392 -1.37511 2.34101 0
M  V30 2771 C 262.848 0.952668 3.47062 0
M  V30 2772 C 262.456 2.43599 3.75983 0
M  V30 2773 C 264.2 0.659103 4.19352 0
M  V30 2774 C 262.107 2.76707 5.22673 0
M  V30 2775 H 261.037 0.206122 0.725279 0
M  V30 2776 H 263.688 1.12637 1.44863 0
M  V30 2777 H 262.07 0.316053 3.94737 0
M  V30 2778 H 263.244 3.12035 3.39073 0
M  V30 2779 H 261.559 2.70125 3.16893 0
M  V30 2780 H 264.156 0.882985 5.27359 0
M  V30 2781 H 264.499 -0.403607 4.14339 0
M  V30 2782 H 265.032 1.25473 3.77494 0
M  V30 2783 H 261.771 3.8188 5.32774 0
M  V30 2784 H 261.291 2.12919 5.60737 0
M  V30 2785 H 262.97 2.6435 5.90532 0
M  V30 2786 N 263.102 -1.41638 0.69111 0
M  V30 2787 C 264.05 -2.32597 0.0115199 0
M  V30 2788 C 265.044 -1.5072 -0.773296 0
M  V30 2789 O 266.25 -1.66685 -0.67942 0
M  V30 2790 H 262.625 -0.751849 -0.0150746 0
M  V30 2791 H 264.596 -2.87593 0.795791 0
M  V30 2792 C 263.345 -3.35467 -0.914172 0
M  V30 2793 H 262.668 -3.9852 -0.319687 0
M  V30 2794 H 264.108 -4.01662 -1.35808 0
M  V30 2795 C 262.567 -2.69004 -2.02826 0
M  V30 2796 O 263.097 -2.53444 -3.11655 0
M  V30 2797 N 261.303 -2.2777 -1.80469 0
M  V30 2798 H 260.85 -2.40626 -0.919615 0
M  V30 2799 H 260.808 -1.83635 -2.55197 0
M  V30 2800 N 264.58 -0.43555 -1.51462 0
M  V30 2801 C 265.828 0.131254 -2.01673 0
M  V30 2802 C 266.149 1.43368 -1.32177 0
M  V30 2803 O 265.419 1.90524 -0.455769 0
M  V30 2804 H 263.999 0.0514954 -0.745223 0
M  V30 2805 H 266.661 -0.577847 -1.86137 0
M  V30 2806 H 265.757 0.308446 -3.10572 0
M  V30 2807 N 266.058 1.56714 -0.166846 0
M  V30 2808 C 267.307 1.95922 0.479318 0
M  V30 2809 C 267.62 1.05529 1.6469 0
M  V30 2810 O 268.826 1.34399 2.35901 0
M  V30 2811 C 267.282 3.48359 0.90412 0
M  V30 2812 C 266.89 4.47369 -0.237621 0
M  V30 2813 C 268.634 3.96394 1.51896 0
M  V30 2814 C 266.541 5.91039 0.206561 0
M  V30 2815 H 265.471 0.731495 0.18284 0
M  V30 2816 H 268.122 1.81728 -0.254363 0
M  V30 2817 H 266.504 3.57955 1.69365 0
M  V30 2818 H 267.678 4.49485 -1.01489 0
M  V30 2819 H 265.993 4.09366 -0.762128 0
M  V30 2820 H 268.59 5.01186 1.86325 0
M  V30 2821 H 268.933 3.39075 2.41524 0
M  V30 2822 H 269.466 3.89796 0.79395 0
M  V30 2823 H 266.205 6.52221 -0.654834 0
M  V30 2824 H 265.725 5.9224 0.949282 0
M  V30 2825 H 267.404 6.43707 0.651939 0
M  V30 2826 N 267.536 -0.106894 1.57237 0
M  V30 2827 C 268.469 -1.16125 1.96444 0
M  V30 2828 C 269.447 -1.3947 0.835871 0
M  V30 2829 O 270.631 -1.53425 1.09513 0
M  V30 2830 C 267.758 -2.51277 2.27107 0
M  V30 2831 C 266.804 -2.44285 3.4961 0
M  V30 2832 S 267.637 -1.87077 5.01759 0
M  V30 2833 C 268.793 -3.23877 5.35588 0
M  V30 2834 H 269.026 -0.826971 2.85567 0
M  V30 2835 H 266.559 -0.314124 1.51171 0
M  V30 2836 H 268.517 -3.29035 2.45451 0
M  V30 2837 H 267.178 -2.81879 1.38576 0
M  V30 2838 H 266.371 -3.4387 3.68469 0
M  V30 2839 H 265.973 -1.74652 3.30715 0
M  V30 2840 H 268.265 -4.20122 5.31511 0
M  V30 2841 H 269.208 -3.09833 6.36717 0
M  V30 2842 H 269.616 -3.22864 4.63054 0
M  V30 2843 N 269.014 -1.53014 -0.377408 0
M  V30 2844 C 270.261 -1.68623 -1.12128 0
M  V30 2845 C 270.589 -0.431997 -1.89642 0
M  V30 2846 O 269.844 0.585855 -1.86725 0
M  V30 2847 C 270.143 -2.87982 -2.11663 0
M  V30 2848 C 269.809 -4.24964 -1.50719 0
M  V30 2849 C 268.471 -4.62217 -1.33825 0
M  V30 2850 C 270.823 -5.10199 -1.06519 0
M  V30 2851 C 268.151 -5.82352 -0.712963 0
M  V30 2852 C 270.503 -6.30969 -0.453955 0
M  V30 2853 C 269.167 -6.66944 -0.272411 0
M  V30 2854 H 268.437 -0.617034 -0.410305 0
M  V30 2855 H 271.084 -1.8718 -0.404484 0
M  V30 2856 H 269.389 -2.63889 -2.89603 0
M  V30 2857 H 271.086 -2.97253 -2.6915 0
M  V30 2858 H 267.676 -3.95626 -1.64858 0
M  V30 2859 H 271.86 -4.81978 -1.18368 0
M  V30 2860 H 267.116 -6.08824 -0.560611 0
M  V30 2861 H 271.29 -6.96324 -0.103217 0
M  V30 2862 H 268.917 -7.59898 0.214181 0
M  V30 2863 N 270.492 0.636531 -1.44174 0
M  V30 2864 C 271.722 1.42146 -1.49927 0
M  V30 2865 C 272.13 1.88812 -0.121063 0
M  V30 2866 O 271.473 1.61126 0.882267 0
M  V30 2867 C 271.535 2.67883 -2.39748 0
M  V30 2868 C 271.199 2.43048 -3.8701 0
M  V30 2869 C 272.196 2.05216 -4.77684 0
M  V30 2870 C 269.881 2.56856 -4.3166 0
M  V30 2871 C 271.875 1.81512 -6.11009 0
M  V30 2872 C 269.562 2.32766 -5.65034 0
M  V30 2873 C 270.56 1.95152 -6.54526 0
M  V30 2874 O 270.248 1.71326 -7.85431 0
M  V30 2875 H 269.98 0.442567 -0.51099 0
M  V30 2876 H 272.534 0.786158 -1.8976 0
M  V30 2877 H 270.764 3.34032 -1.94832 0
M  V30 2878 H 272.453 3.29874 -2.36513 0
M  V30 2879 H 273.219 1.94111 -4.44462 0
M  V30 2880 H 269.098 2.85104 -3.62266 0
M  V30 2881 H 272.642 1.52077 -6.80822 0
M  V30 2882 H 268.539 2.43479 -5.97819 0
M  V30 2883 H 269.307 1.85616 -7.97176 0
M  V30 2884 N 271.97 1.30982 0.876444 0
M  V30 2885 C 273.247 1.10942 1.61094 0
M  V30 2886 C 273.627 -0.338223 2.08373 0
M  V30 2887 O 272.975 -1.33122 1.85717 0
M  V30 2888 C 273.185 2.11789 2.77392 0
M  V30 2889 C 274.533 2.43965 3.47514 0
M  V30 2890 O 275.557 2.10166 2.87591 0
M  V30 2891 O 274.416 3.01817 4.55597 0
M  V30 2892 H 271.51 0.42667 0.708436 0
M  V30 2893 H 274.056 1.42438 0.922474 0
M  V30 2894 H 272.828 3.09194 2.39823 0
M  V30 2895 H 272.451 1.81161 3.5393 0
M  V30 2896 N 273.449 -1.08991 1.13837 0
M  V30 2897 C 274.865 -1.33312 0.877506 0
M  V30 2898 C 275.065 -1.95587 -0.48456 0
M  V30 2899 O 274.121 -2.20509 -1.23013 0
M  V30 2900 C 275.434 -2.24045 2.0056 0
M  V30 2901 C 276.982 -2.37542 2.03821 0
M  V30 2902 C 277.457 -3.31614 3.15905 0
M  V30 2903 N 278.948 -3.39189 3.15445 0
M  V30 2904 C 279.683 -4.11992 3.98811 0
M  V30 2905 N 279.179 -4.87553 4.92203 0
M  V30 2906 N 280.972 -4.07762 3.86894 0
M  V30 2907 H 273.123 -0.669456 2.01574 0
M  V30 2908 H 275.386 -0.357482 0.878015 0
M  V30 2909 H 275.092 -1.85521 2.98789 0
M  V30 2910 H 274.966 -3.24466 1.92359 0
M  V30 2911 H 277.353 -2.75327 1.06202 0
M  V30 2912 H 277.434 -1.36884 2.16093 0
M  V30 2913 H 277.078 -2.94551 4.13766 0
M  V30 2914 H 277.008 -4.32186 3.0087 0
M  V30 2915 H 279.499 -2.85314 2.47799 0
M  V30 2916 H 279.812 -5.40549 5.52292 0
M  V30 2917 H 278.157 -4.86627 4.96205 0
M  V30 2918 H 281.348 -3.47833 3.13257 0
M  V30 2919 H 281.521 -4.64238 4.52092 0
M  V30 2920 N 274.927 -0.932562 -1.27047 0
M  V30 2921 C 276.176 -0.571351 -1.93439 0
M  V30 2922 C 276.489 0.892467 -1.74053 0
M  V30 2923 O 277.695 1.36267 -2.34826 0
M  V30 2924 C 276.151 -0.97106 -3.46552 0
M  V30 2925 C 275.759 -2.4559 -3.74686 0
M  V30 2926 C 277.503 -0.681333 -4.18997 0
M  V30 2927 C 275.41 -2.79475 -5.21198 0
M  V30 2928 H 274.34 -0.209966 -0.724176 0
M  V30 2929 H 276.991 -1.13403 -1.44263 0
M  V30 2930 H 275.373 -0.336983 -3.94564 0
M  V30 2931 H 276.547 -3.13829 -3.37414 0
M  V30 2932 H 274.862 -2.71802 -3.15456 0
M  V30 2933 H 277.459 -0.910939 -5.26883 0
M  V30 2934 H 277.802 0.381628 -4.14547 0
M  V30 2935 H 278.335 -1.27473 -3.76823 0
M  V30 2936 H 275.074 -3.847 -5.30741 0
M  V30 2937 H 274.594 -2.1589 -5.596 0
M  V30 2938 H 276.273 -2.67478 -5.89122 0
M  V30 2939 N 276.405 1.4127 -0.698611 0
M  V30 2940 C 277.353 2.32588 -0.023855 0
M  V30 2941 C 278.347 1.51128 0.765292 0
M  V30 2942 O 279.553 1.67043 0.670571 0
M  V30 2943 H 275.928 0.751918 0.0110871 0
M  V30 2944 H 277.899 2.87167 -0.811031 0
M  V30 2945 C 276.648 3.35947 0.896369 0
M  V30 2946 H 275.971 3.98684 0.298548 0
M  V30 2947 H 277.411 4.02376 1.33676 0
M  V30 2948 C 275.87 2.70076 2.01396 0
M  V30 2949 O 276.4 2.55093 3.10307 0
M  V30 2950 N 274.606 2.28724 1.79259 0
M  V30 2951 H 274.153 2.4111 0.906841 0
M  V30 2952 H 274.111 1.84986 2.54219 0
M  V30 2953 N 277.883 0.443576 1.51229 0
M  V30 2954 C 278.793 -0.370721 2.31652 0
M  V30 2955 C 279.809 -1.02186 1.40833 0
M  V30 2956 O 280.985 -1.01586 1.73903 0
M  V30 2957 C 278.05 -1.45376 3.14749 0
M  V30 2958 C 277.111 -0.822099 4.21355 0
M  V30 2959 C 276.344 -1.85353 5.0048 0
M  V30 2960 O 276.567 -3.07656 4.80316 0
M  V30 2961 O 275.501 -1.4406 5.84406 0
M  V30 2962 H 279.327 0.286002 3.0235 0
M  V30 2963 H 276.912 0.20598 1.47973 0
M  V30 2964 H 278.794 -2.08173 3.66391 0
M  V30 2965 H 277.469 -2.09445 2.46809 0
M  V30 2966 H 276.376 -0.155909 3.73775 0
M  V30 2967 H 277.709 -0.224797 4.91686 0
M  V30 2968 N 279.361 -1.56624 0.175154 0
M  V30 2969 C 280.308 -2.18149 -0.753634 0
M  V30 2970 C 281.278 -1.12265 -1.22417 0
M  V30 2971 O 282.463 -1.40432 -1.29165 0
M  V30 2972 C 279.603 -2.82933 -1.97592 0
M  V30 2973 C 278.716 -4.03289 -1.5486 0
M  V30 2974 C 277.851 -4.55988 -2.72485 0
M  V30 2975 C 276.89 -5.68746 -2.26262 0
M  V30 2976 N 276.027 -6.15938 -3.36994 0
M  V30 2977 H 280.867 -2.9717 -0.222195 0
M  V30 2978 H 278.404 -1.46774 -0.0979422 0
M  V30 2979 H 280.362 -3.18653 -2.69288 0
M  V30 2980 H 278.992 -2.06509 -2.481 0
M  V30 2981 H 278.044 -3.73364 -0.728246 0
M  V30 2982 H 279.356 -4.849 -1.16933 0
M  V30 2983 H 278.51 -4.9391 -3.52332 0
M  V30 2984 H 277.249 -3.73443 -3.13674 0
M  V30 2985 H 276.254 -5.30372 -1.44863 0
M  V30 2986 H 277.479 -6.53095 -1.86127 0
M  V30 2987 H 275.425 -5.36321 -3.77751 0
M  V30 2988 H 275.342 -6.92548 -3.03172 0
M  V30 2989 H 276.61 -6.58511 -4.17114 0
M  V30 2990 N 280.839 0.0985539 -1.57292 0
M  V30 2991 C 282.116 0.834155 -1.76921 0
M  V30 2992 C 282.496 1.97101 -0.755928 0
M  V30 2993 O 281.844 2.27474 0.216245 0
M  V30 2994 C 282.054 1.33194 -3.22584 0
M  V30 2995 C 283.402 1.77611 -3.85668 0
M  V30 2996 O 284.426 1.42825 -3.26312 0
M  V30 2997 O 283.285 2.4192 -4.90038 0
M  V30 2998 H 280.379 0.397628 -0.725135 0
M  V30 2999 H 282.925 0.0807044 -1.69508 0
M  V30 3000 H 281.697 0.517248 -3.87866 0
M  V30 3001 H 281.32 2.1475 -3.34616 0
M  V30 3002 N 282.317 1.53212 0.369288 0
M  V30 3003 C 283.728 1.60943 0.946276 0
M  V30 3004 C 284.079 0.47452 1.90375 0
M  V30 3005 O 283.204 -0.399597 2.12679 0
M  V30 3006 C 283.799 2.91715 1.72302 0
M  V30 3007 C 282.358 3.01792 2.24941 0
M  V30 3008 C 281.505 2.56211 1.06072 0
M  V30 3009 H 284.456 1.58007 0.148198 0
M  V30 3010 H 284.477 2.79309 2.58393 0
M  V30 3011 H 283.989 3.74295 1.0259 0
M  V30 3012 H 282.09 2.23791 2.97906 0
M  V30 3013 H 282.203 4.06803 2.53077 0
M  V30 3014 H 280.567 2.10998 1.4266 0
M  V30 3015 H 281.35 3.41206 0.378639 0
M  V30 3016 N 283.795 -0.628877 1.44509 0
M  V30 3017 C 285.042 -1.38839 1.47411 0
M  V30 3018 C 285.37 -1.94202 0.10757 0
M  V30 3019 O 284.625 -1.74243 -0.890947 0
M  V30 3020 C 284.924 -2.56995 2.48371 0
M  V30 3021 C 284.59 -2.19908 3.93639 0
M  V30 3022 C 283.252 -2.09506 4.33198 0
M  V30 3023 C 285.604 -1.9064 4.85083 0
M  V30 3024 C 282.932 -1.68028 5.62124 0
M  V30 3025 C 285.284 -1.50655 6.14399 0
M  V30 3026 C 283.948 -1.38796 6.5291 0
M  V30 3027 H 283.218 -0.508048 0.539414 0
M  V30 3028 H 285.865 -0.712913 1.77735 0
M  V30 3029 H 284.17 -3.29786 2.11538 0
M  V30 3030 H 285.867 -3.15223 2.47861 0
M  V30 3031 H 282.457 -2.28922 3.62343 0
M  V30 3032 H 286.641 -1.97585 4.55273 0
M  V30 3033 H 281.897 -1.57452 5.90778 0
M  V30 3034 H 286.071 -1.27048 6.84713 0
M  V30 3035 H 283.698 -1.06429 7.52713 0
M  V30 3036 N 285.273 -1.31445 -0.869486 0
M  V30 3037 C 286.236 -1.19094 -1.9583 0
M  V30 3038 C 287.236 -0.117906 -1.60367 0
M  V30 3039 O 288.426 -0.367208 -1.70286 0
M  V30 3040 C 285.558 -0.828165 -3.30688 0
M  V30 3041 H 286.751 -2.15842 -2.08212 0
M  V30 3042 H 284.304 -1.15063 -1.05784 0
M  V30 3043 H 285.039 0.138142 -3.24006 0
M  V30 3044 H 284.824 -1.6038 -3.578 0
M  V30 3045 H 286.314 -0.765658 -4.10521 0
M  V30 3046 N 286.751 1.08385 -1.14413 0
M  V30 3047 C 287.997 1.81044 -0.913834 0
M  V30 3048 C 288.33 1.86004 0.558209 0
M  V30 3049 O 287.605 1.33606 1.4135 0
M  V30 3050 C 287.888 3.26648 -1.51569 0
M  V30 3051 C 287.741 3.29895 -3.0576 0
M  V30 3052 C 289.06 4.23629 -1.19273 0
M  V30 3053 H 286.179 0.65727 -0.333414 0
M  V30 3054 H 288.821 1.26896 -1.41412 0
M  V30 3055 H 286.971 3.72889 -1.09023 0
M  V30 3056 H 288.643 2.91977 -3.57137 0
M  V30 3057 H 286.886 2.69163 -3.40197 0
M  V30 3058 H 287.557 4.32516 -3.42977 0
M  V30 3059 H 290.033 3.85727 -1.56057 0
M  V30 3060 H 288.909 5.23822 -1.64017 0
M  V30 3061 H 289.17 4.41968 -0.108068 0
M  V30 3062 N 288.23 0.939286 1.26551 0
M  V30 3063 C 289.177 0.446088 2.26448 0
M  V30 3064 C 290.147 -0.493234 1.58608 0
M  V30 3065 O 291.332 -0.409857 1.86346 0
M  V30 3066 C 288.472 -0.284375 3.43926 0
M  V30 3067 C 287.585 0.690399 4.26448 0
M  V30 3068 C 286.72 -0.0610712 5.31165 0
M  V30 3069 C 285.759 0.905649 6.05363 0
M  V30 3070 N 284.896 0.186055 7.01853 0
M  V30 3071 H 289.736 1.30291 2.68008 0
M  V30 3072 H 287.273 0.65371 1.31776 0
M  V30 3073 H 289.231 -0.724313 4.10864 0
M  V30 3074 H 287.861 -1.10535 3.03285 0
M  V30 3075 H 286.913 1.24885 3.59316 0
M  V30 3076 H 288.225 1.42873 4.779 0
M  V30 3077 H 287.379 -0.56038 6.04106 0
M  V30 3078 H 286.118 -0.832297 4.80546 0
M  V30 3079 H 285.123 1.4161 5.3125 0
M  V30 3080 H 286.348 1.67685 6.58072 0
M  V30 3081 H 284.294 -0.566714 6.53548 0
M  V30 3082 H 284.211 0.863752 7.51049 0
M  V30 3083 H 285.479 -0.292221 7.78952 0
M  V30 3084 N 289.708 -1.40897 0.706093 0
M  V30 3085 C 290.985 -1.94868 0.169099 0
M  V30 3086 C 291.365 -1.64485 -1.32318 0
M  V30 3087 O 290.713 -0.95744 -2.07474 0
M  V30 3088 C 290.923 -3.45798 0.471654 0
M  V30 3089 C 292.271 -4.22663 0.405127 0
M  V30 3090 O 293.295 -3.53865 0.407168 0
M  V30 3091 O 292.154 -5.45216 0.374383 0
M  V30 3092 H 289.248 -0.82673 0.0211352 0
M  V30 3093 H 291.794 -1.50558 0.782976 0
M  V30 3094 H 290.566 -3.61235 1.50416 0
M  V30 3095 H 290.189 -3.97225 -0.172666 0
M  V30 3096 N 291.186 -0.45159 -1.50991 0
M  V30 3097 C 292.434 0.109857 -2.01801 0
M  V30 3098 C 292.755 1.41958 -1.3369 0
M  V30 3099 O 292.025 1.9003 -0.475951 0
M  V30 3100 H 290.605 0.0435884 -0.745727 0
M  V30 3101 H 293.267 -0.597557 -1.85514 0
M  V30 3102 H 292.363 0.275489 -3.10882 0
M  V30 3103 N 292.664 1.56529 -0.183458 0
M  V30 3104 C 293.594 2.21549 0.737456 0
M  V30 3105 C 294.575 1.17489 1.23005 0
M  V30 3106 O 295.76 1.45959 1.281 0
M  V30 3107 C 292.89 2.86575 1.96194 0
M  V30 3108 C 291.844 3.96778 1.60473 0
M  V30 3109 C 291.17 4.48911 2.90487 0
M  V30 3110 C 292.47 5.15767 0.823497 0
M  V30 3111 H 294.164 2.98761 0.195453 0
M  V30 3112 H 291.71 1.43702 0.0925686 0
M  V30 3113 H 293.663 3.30739 2.61131 0
M  V30 3114 H 292.387 2.06749 2.52828 0
M  V30 3115 H 291.046 3.53286 0.978997 0
M  V30 3116 H 290.694 3.65862 3.45186 0
M  V30 3117 H 290.394 5.23265 2.67335 0
M  V30 3118 H 291.918 4.95771 3.56432 0
M  V30 3119 H 293.332 5.56549 1.37571 0
M  V30 3120 H 291.729 5.96114 0.690551 0
M  V30 3121 H 292.799 4.84574 -0.177782 0
M  V30 3122 N 294.142 -0.090211 1.57342 0
M  V30 3123 C 295.072 -1.10976 2.05443 0
M  V30 3124 C 296.053 -1.41482 0.944284 0
M  V30 3125 O 297.238 -1.51428 1.21586 0
M  V30 3126 C 294.368 -2.42831 2.48295 0
M  V30 3127 C 293.322 -2.26721 3.63018 0
M  V30 3128 C 292.648 -3.63796 3.91863 0
M  V30 3129 C 293.948 -1.7037 4.93732 0
M  V30 3130 H 295.642 -0.709564 2.9087 0
M  V30 3131 H 293.188 -0.339874 1.39932 0
M  V30 3132 H 295.141 -3.14431 2.80555 0
M  V30 3133 H 293.865 -2.84795 1.59873 0
M  V30 3134 H 292.524 -1.57565 3.31012 0
M  V30 3135 H 292.172 -4.03297 3.00601 0
M  V30 3136 H 291.872 -3.53861 4.69101 0
M  V30 3137 H 293.396 -4.36855 4.26603 0
M  V30 3138 H 294.81 -2.31816 5.24342 0
M  V30 3139 H 293.207 -1.71181 5.75167 0
M  V30 3140 H 294.277 -0.663542 4.80339 0
M  V30 3141 N 295.62 -1.53406 -0.361157 0
M  V30 3142 C 296.869 -1.69022 -1.10066 0
M  V30 3143 C 297.182 -0.450838 -1.90333 0
M  V30 3144 O 298.388 -0.487617 -2.67085 0
M  V30 3145 C 296.844 -2.98812 -2.00598 0
M  V30 3146 C 296.452 -4.30027 -1.25621 0
M  V30 3147 C 298.196 -3.23795 -2.74513 0
M  V30 3148 C 296.103 -5.50903 -2.1508 0
M  V30 3149 H 295.033 -0.629776 -0.414606 0
M  V30 3150 H 297.684 -1.79907 -0.361348 0
M  V30 3151 H 296.066 -2.8174 -2.78278 0
M  V30 3152 H 297.24 -4.57745 -0.529739 0
M  V30 3153 H 295.555 -4.11522 -0.635496 0
M  V30 3154 H 298.152 -4.11289 -3.41681 0
M  V30 3155 H 298.495 -2.40045 -3.40123 0
M  V30 3156 H 299.028 -3.41561 -2.03914 0
M  V30 3157 H 295.767 -6.37143 -1.54041 0
M  V30 3158 H 295.287 -5.27459 -2.85565 0
M  V30 3159 H 296.966 -5.85865 -2.74538 0
M  V30 3160 N 297.098 0.621204 -1.44841 0
M  V30 3161 C 298.028 1.74366 -1.55303 0
M  V30 3162 C 299.009 1.65199 -0.405385 0
M  V30 3163 O 300.194 1.83807 -0.626787 0
M  V30 3164 C 297.324 3.12931 -1.50637 0
M  V30 3165 C 296.278 3.36896 -2.63979 0
M  V30 3166 C 295.604 4.75594 -2.44366 0
M  V30 3167 C 296.904 3.28483 -4.06074 0
M  V30 3168 H 298.598 1.65867 -2.49256 0
M  V30 3169 H 296.144 0.796558 -1.19962 0
M  V30 3170 H 298.097 3.9124 -1.56555 0
M  V30 3171 H 296.821 3.22237 -0.532057 0
M  V30 3172 H 295.48 2.60972 -2.57467 0
M  V30 3173 H 295.128 4.81616 -1.45105 0
M  V30 3174 H 294.828 4.92586 -3.20364 0
M  V30 3175 H 296.352 5.5612 -2.52117 0
M  V30 3176 H 297.766 3.96684 -4.13902 0
M  V30 3177 H 296.163 3.57008 -4.82354 0
M  V30 3178 H 297.233 2.26133 -4.28943 0
M  V30 3179 N 298.576 1.31904 0.862503 0
M  V30 3180 C 299.486 1.22161 2.00285 0
M  V30 3181 C 300.502 0.136785 1.73462 0
M  V30 3182 O 301.678 0.355994 1.98229 0
M  V30 3183 C 298.743 0.937093 3.33796 0
M  V30 3184 C 297.804 2.10957 3.73893 0
M  V30 3185 C 297.037 1.83853 5.01033 0
M  V30 3186 O 297.26 0.777274 5.65079 0
M  V30 3187 O 296.194 2.69741 5.38074 0
M  V30 3188 H 300.02 2.18008 2.11439 0
M  V30 3189 H 297.605 1.11716 0.991957 0
M  V30 3190 H 299.487 0.794583 4.13841 0
M  V30 3191 H 298.162 0.00871894 3.23699 0
M  V30 3192 H 297.069 2.30752 2.94456 0
M  V30 3193 H 298.402 3.02046 3.88625 0
M  V30 3194 O 300.093 -0.999479 1.26857 0
M  V30 3195 H 300.784 -1.62077 1.0607 0
M  V30 END ATOM
M  V30 BEGIN BOND
M  V30 END BOND
M  V30 END CTAB
M  END
$$$$
