drugbank_target|P21695 Glycerol-3-phosphate dehydrogenase [NAD(+)], cytoplasmic (DB00157; DB00331)
 OpenBabel12092119273D

  0  0  0     0  0            999 V3000
M  V30 BEGIN CTAB
M  V30 COUNTS 5310 5356 0 0 0
M  V30 BEGIN ATOM
M  V30 1 H -0.908 1.98254 -0.117106 0
M  V30 2 N 0 1.576 0 0
M  V30 3 C 0.933 2.03868 1.02534 0
M  V30 4 C 1.911 0.928543 1.3348 0
M  V30 5 O 3.095 1.19667 1.45644 0
M  V30 6 C 0.222 2.43627 2.35294 0
M  V30 7 C -0.732 3.65373 2.2001 0
M  V30 8 S 0.101 5.13292 1.52614 0
M  V30 9 C 1.257 5.56322 2.86805 0
M  V30 10 H 1.49 2.90518 0.631377 0
M  V30 11 H -0.977 1.52953 0.210867 0
M  V30 12 H 0.981 2.67203 3.11629 0
M  V30 13 H -0.358 1.57376 2.7183 0
M  V30 14 H -1.165 3.90944 3.18086 0
M  V30 15 H -1.563 3.418 1.51819 0
M  V30 16 H 0.729 5.58782 3.83104 0
M  V30 17 H 1.672 6.56266 2.65933 0
M  V30 18 H 2.08 4.83886 2.90714 0
M  V30 19 N 1.4781 -0.272755 1.55222 0
M  V30 20 C 2.4411 -1.32041 1.87344 0
M  V30 21 C 3.4411 -1.42342 0.74803 0
M  V30 22 O 4.6311 -1.41488 1.0162 0
M  V30 23 C 1.7631 -2.70173 2.07893 0
M  V30 24 H 2.9561 -1.04789 2.80997 0
M  V30 25 H 0.5091 -0.51083 1.47717 0
M  V30 26 H 1.2441 -3.02605 1.16622 0
M  V30 27 H 1.0291 -2.64082 2.89833 0
M  V30 28 H 2.5191 -3.45869 2.34017 0
M  V30 29 N 2.9562 -1.48159 -0.537278 0
M  V30 30 C 4.1812 -1.59707 -1.32319 0
M  V30 31 C 4.6062 -0.254859 -1.86365 0
M  V30 32 O 3.9642 0.772378 -1.64024 0
M  V30 33 C 4.0122 -2.6412 -2.45505 0
M  V30 34 O 3.1162 -2.20774 -3.48328 0
M  V30 35 H 2.4572 -0.535791 -0.392204 0
M  V30 36 H 4.9872 -1.94092 -0.647268 0
M  V30 37 H 4.9972 -2.85166 -2.91795 0
M  V30 38 H 3.6722 -3.61567 -2.05528 0
M  V30 39 H 2.2492 -2.09911 -3.08207 0
M  V30 40 N 4.4343 0.785586 -1.36625 0
M  V30 41 C 5.3813 1.89838 -1.31264 0
M  V30 42 C 6.3513 1.65115 -0.180633 0
M  V30 43 O 7.5363 1.87222 -0.36777 0
M  V30 44 C 4.6763 3.26706 -1.11163 0
M  V30 45 C 3.7893 3.63476 -2.33472 0
M  V30 46 C 2.9243 4.89481 -2.06353 0
M  V30 47 C 1.9633 5.18941 -3.24602 0
M  V30 48 N 1.1003 6.36131 -2.97123 0
M  V30 49 H 5.9403 1.93756 -2.26413 0
M  V30 50 H 3.4773 0.947454 -1.12524 0
M  V30 51 H 5.4353 4.05639 -0.975337 0
M  V30 52 H 4.0653 3.222 -0.196674 0
M  V30 53 H 3.1173 2.79636 -2.57891 0
M  V30 54 H 4.4293 3.81193 -3.21704 0
M  V30 55 H 3.5833 5.76288 -1.89675 0
M  V30 56 H 2.3223 4.73841 -1.15437 0
M  V30 57 H 1.3273 4.30615 -3.41834 0
M  V30 58 H 2.5523 5.36498 -4.16349 0
M  V30 59 H 0.4983 6.21875 -2.08823 0
M  V30 60 H 0.4153 6.54198 -3.78894 0
M  V30 61 H 1.6833 7.2591 -2.84033 0
M  V30 62 N 5.9124 1.20967 1.01018 0
M  V30 63 C 6.8594 0.964281 2.09691 0
M  V30 64 C 7.8294 -0.107853 1.65749 0
M  V30 65 O 9.0144 0.0381987 1.90762 0
M  V30 66 C 6.1544 0.52943 3.41015 0
M  V30 67 C 5.2674 1.67043 3.98398 0
M  V30 68 C 4.4024 1.18525 5.17808 0
M  V30 69 C 3.4414 2.29892 5.67288 0
M  V30 70 N 2.5784 1.82546 6.77954 0
M  V30 71 H 7.4184 1.89463 2.30017 0
M  V30 72 H 4.9554 0.944289 1.1279 0
M  V30 73 H 6.9134 0.258588 4.16398 0
M  V30 74 H 5.5434 -0.363919 3.20742 0
M  V30 75 H 4.5954 2.05603 3.20049 0
M  V30 76 H 5.9074 2.50877 4.31117 0
M  V30 77 H 5.0614 0.870762 6.00419 0
M  V30 78 H 3.8004 0.316887 4.86669 0
M  V30 79 H 2.8054 2.6215 4.83278 0
M  V30 80 H 4.0304 3.17216 6.00459 0
M  V30 81 H 1.9764 0.980454 6.48632 0
M  V30 82 H 1.8934 2.59956 7.09901 0
M  V30 83 H 3.1614 1.54115 7.64113 0
M  V30 84 N 7.3905 -1.2043 1.01659 0
M  V30 85 C 8.6365 -1.90079 0.706963 0
M  V30 86 C 8.9695 -1.78648 -0.761474 0
M  V30 87 O 8.2445 -1.17069 -1.55323 0
M  V30 88 C 8.5275 -3.41469 1.14327 0
M  V30 89 C 8.3805 -3.61833 2.67201 0
M  V30 90 C 9.6995 -4.34261 0.714529 0
M  V30 91 H 6.8185 -0.690254 0.2583 0
M  V30 92 H 9.4605 -1.41826 1.26433 0
M  V30 93 H 7.6105 -3.82696 0.669056 0
M  V30 94 H 9.2825 -3.2986 3.22475 0
M  V30 95 H 7.5255 -3.05304 3.08175 0
M  V30 96 H 8.1965 -4.67955 2.92783 0
M  V30 97 H 10.6725 -4.00682 1.12221 0
M  V30 98 H 9.5485 -5.38806 1.04784 0
M  V30 99 H 9.8095 -4.40431 -0.383799 0
M  V30 100 N 8.8686 -0.792821 -1.36206 0
M  V30 101 C 10.1086 -0.372238 -2.00982 0
M  V30 102 C 10.4726 1.03749 -1.61555 0
M  V30 103 O 11.6736 1.55934 -2.18948 0
M  V30 104 C 9.9446 -0.534566 -3.5338 0
M  V30 105 S 11.5036 -0.202365 -4.38333 0
M  V30 106 H 8.3216 -0.142044 -0.696667 0
M  V30 107 H 10.9236 -1.03206 -1.66039 0
M  V30 108 H 9.6276 -1.5608 -3.79562 0
M  V30 109 H 9.1586 0.141065 -3.93147 0
M  V30 110 H 11.1736 0.994869 -4.86124 0
M  V30 111 N 10.3467 1.47872 -0.545128 0
M  V30 112 C 11.5957 2.01695 -0.0145033 0
M  V30 113 C 11.9087 1.42609 1.33873 0
M  V30 114 O 13.1147 1.88021 1.95858 0
M  V30 115 C 11.5707 3.59892 0.0245068 0
M  V30 116 C 11.1787 4.27966 -1.32475 0
M  V30 117 C 12.9227 4.21507 0.50316 0
M  V30 118 C 10.8297 5.78136 -1.2455 0
M  V30 119 H 9.7597 0.753998 -0.00165172 0
M  V30 120 H 12.4107 1.69985 -0.691175 0
M  V30 121 H 10.7927 3.88509 0.766575 0
M  V30 122 H 11.9667 4.11003 -2.08357 0
M  V30 123 H 10.2817 3.78286 -1.74036 0
M  V30 124 H 12.8787 5.31538 0.580656 0
M  V30 125 H 13.2217 3.87855 1.51243 0
M  V30 126 H 13.7547 3.97376 -0.183681 0
M  V30 127 H 10.4937 6.16388 -2.23039 0
M  V30 128 H 10.0137 5.97469 -0.528282 0
M  V30 129 H 11.6927 6.40099 -0.942488 0
M  V30 130 N 11.8248 0.280983 1.55075 0
M  V30 131 C 13.0708 -0.33461 2.00021 0
M  V30 132 C 13.4038 -1.55063 1.16915 0
M  V30 133 O 12.6788 -1.93006 0.240646 0
M  V30 134 C 12.9618 -0.711007 3.53011 0
M  V30 135 C 12.8148 0.512766 4.46868 0
M  V30 136 C 14.1338 -1.54522 4.12081 0
M  V30 137 H 11.2528 -0.120147 0.727141 0
M  V30 138 H 13.8948 0.389097 1.85973 0
M  V30 139 H 12.0448 -1.32761 3.65112 0
M  V30 140 H 13.7168 1.15131 4.46702 0
M  V30 141 H 11.9598 1.14975 4.18286 0
M  V30 142 H 12.6308 0.205556 5.51617 0
M  V30 143 H 15.1068 -1.02442 4.03293 0
M  V30 144 H 13.9828 -1.77739 5.19327 0
M  V30 145 H 14.2438 -2.52813 3.62682 0
M  V30 146 N 13.3029 -1.57598 0.00835791 0
M  V30 147 C 14.5509 -1.90551 -0.6734 0
M  V30 148 C 14.8719 -0.883301 -1.73847 0
M  V30 149 O 14.1419 0.0781442 -1.95744 0
M  V30 150 H 12.7219 -0.703312 -0.251717 0
M  V30 151 H 15.3839 -1.94833 0.0512592 0
M  V30 152 H 14.4799 -2.9056 -1.13935 0
M  V30 153 N 14.781 0.264519 -1.55364 0
M  V30 154 C 16.006 1.01726 -1.80739 0
M  V30 155 C 16.431 1.78836 -0.583044 0
M  V30 156 O 15.789 1.75167 0.467566 0
M  V30 157 C 15.837 1.94482 -3.03659 0
M  V30 158 O 14.941 3.03386 -2.7934 0
M  V30 159 H 14.282 0.290395 -0.597132 0
M  V30 160 H 16.812 0.290854 -2.02522 0
M  V30 161 H 16.822 2.36278 -3.32621 0
M  V30 162 H 15.497 1.37772 -3.92418 0
M  V30 163 H 14.074 2.65844 -2.61498 0
M  V30 164 N 16.2591 1.48442 0.529413 0
M  V30 165 C 17.5071 1.56179 1.28267 0
M  V30 166 C 17.8281 0.237721 1.93546 0
M  V30 167 O 17.0981 -0.740779 1.81354 0
M  V30 168 H 15.6781 0.575367 0.476405 0
M  V30 169 H 18.3401 1.84909 0.61602 0
M  V30 170 H 17.4361 2.34312 2.06165 0
M  V30 171 N 17.7372 -0.778329 1.37039 0
M  V30 172 C 18.6852 -1.91278 1.32345 0
M  V30 173 C 19.6792 -1.68051 0.213331 0
M  V30 174 O 20.8852 -1.75922 0.38098 0
M  V30 175 H 17.2602 -0.628909 0.412283 0
M  V30 176 H 19.2312 -1.92355 2.28127 0
M  V30 177 C 17.9802 -3.28455 1.14073 0
M  V30 178 H 17.3032 -3.46901 1.98746 0
M  V30 179 H 18.7432 -4.08152 1.14837 0
M  V30 180 C 17.2022 -3.36548 -0.154015 0
M  V30 181 O 17.7322 -3.85186 -1.13993 0
M  V30 182 N 15.9382 -2.89894 -0.202475 0
M  V30 183 H 15.4852 -2.50504 0.600476 0
M  V30 184 H 15.4432 -2.9569 -1.06841 0
M  V30 185 N 19.2153 -1.21501 -1.00376 0
M  V30 186 C 20.4613 -1.04457 -1.74529 0
M  V30 187 C 20.8163 0.417386 -1.87818 0
M  V30 188 O 20.1093 1.30556 -1.40234 0
M  V30 189 C 20.3033 -1.67673 -3.15627 0
M  V30 190 C 20.1323 -3.19865 -3.16096 0
M  V30 191 C 18.9023 -3.88915 -3.22604 0
M  V30 192 C 21.1003 -4.16936 -3.01112 0
M  V30 193 N 19.0823 -5.28284 -3.12712 0
M  V30 194 C 20.4533 -5.43066 -2.99131 0
M  V30 195 C 22.5083 -4.07968 -2.85423 0
M  V30 196 C 21.2113 -6.6126 -2.83068 0
M  V30 197 C 23.2373 -5.258 -2.70718 0
M  V30 198 C 22.5993 -6.50842 -2.69414 0
M  V30 199 H 18.6983 -0.436584 -0.648782 0
M  V30 200 H 21.2823 -1.53875 -1.19293 0
M  V30 201 H 19.4533 -1.20822 -3.6913 0
M  V30 202 H 21.1853 -1.43824 -3.78281 0
M  V30 203 H 17.9403 -3.39847 -3.2985 0
M  V30 204 H 18.3643 -6.01284 -3.11105 0
M  V30 205 H 23.0063 -3.1209 -2.85236 0
M  V30 206 H 20.7243 -7.57298 -2.82002 0
M  V30 207 H 24.3103 -5.20683 -2.59577 0
M  V30 208 H 23.1903 -7.40485 -2.5817 0
M  V30 209 N 20.6934 1.19889 -1.02296 0
M  V30 210 C 21.9414 1.89046 -0.714558 0
M  V30 211 C 22.2624 1.79636 0.758681 0
M  V30 212 O 21.5324 1.20292 1.54618 0
M  V30 213 H 20.1124 0.699802 -0.261317 0
M  V30 214 H 22.7744 1.45574 -1.29592 0
M  V30 215 H 21.8704 2.95524 -1.0036 0
M  V30 216 N 22.1715 0.800033 1.35784 0
M  V30 217 C 23.3965 0.388511 2.03729 0
M  V30 218 C 23.8215 -0.990481 1.5991 0
M  V30 219 O 23.1795 -1.64013 0.772612 0
M  V30 220 C 23.2275 0.4726 3.5749 0
M  V30 221 O 22.3315 -0.51646 4.09153 0
M  V30 222 H 21.6725 0.163271 0.643614 0
M  V30 223 H 24.2025 1.0841 1.73518 0
M  V30 224 H 24.2125 0.34003 4.06581 0
M  V30 225 H 22.8875 1.47848 3.88734 0
M  V30 226 H 21.4645 -0.344673 3.71304 0
M  V30 227 N 23.6496 -1.47581 0.552962 0
M  V30 228 C 24.6126 -2.28439 -0.186605 0
M  V30 229 C 25.6126 -1.36706 -0.84665 0
M  V30 230 O 26.8026 -1.59378 -0.703164 0
M  V30 231 C 23.9346 -3.16264 -1.2724 0
M  V30 232 H 25.1276 -2.95294 0.523609 0
M  V30 233 H 22.6806 -1.532 0.309745 0
M  V30 234 H 23.4156 -2.54091 -2.01514 0
M  V30 235 H 23.2006 -3.83769 -0.803968 0
M  V30 236 H 24.6906 -3.77198 -1.79196 0
M  V30 237 N 25.1277 -0.289203 -1.54924 0
M  V30 238 C 26.3767 0.324231 -1.99077 0
M  V30 239 C 26.6897 1.5591 -1.18117 0
M  V30 240 O 27.8957 2.24637 -1.52481 0
M  V30 241 C 26.3517 0.628209 -3.54375 0
M  V30 242 C 25.9597 -0.587647 -4.44129 0
M  V30 243 C 27.7037 1.20349 -4.07083 0
M  V30 244 C 25.6107 -0.257475 -5.90839 0
M  V30 245 H 24.5407 0.124924 -0.743579 0
M  V30 246 H 27.1917 -0.396063 -1.79175 0
M  V30 247 H 25.5737 1.40778 -3.70132 0
M  V30 248 H 26.7477 -1.36418 -4.40144 0
M  V30 249 H 25.0627 -1.08074 -4.0213 0
M  V30 250 H 27.6597 1.46456 -5.14252 0
M  V30 251 H 28.0027 2.14195 -3.56968 0
M  V30 252 H 28.5357 0.485889 -3.94821 0
M  V30 253 H 25.2747 -1.16419 -6.45079 0
M  V30 254 H 24.7947 0.482018 -5.9786 0
M  V30 255 H 26.4737 0.145238 -6.46837 0
M  V30 256 N 26.6058 1.57591 -0.0167156 0
M  V30 257 C 27.5688 2.08393 0.954204 0
M  V30 258 C 28.5688 0.996531 1.26198 0
M  V30 259 O 29.7588 1.25858 1.20438 0
M  V30 260 C 26.8908 2.5394 2.27436 0
M  V30 261 H 28.0838 2.95455 0.514451 0
M  V30 262 H 25.6368 1.54582 0.231089 0
M  V30 263 H 26.3718 1.70171 2.76066 0
M  V30 264 H 26.1568 3.33371 2.06412 0
M  V30 265 H 27.6468 2.93512 2.97053 0
M  V30 266 N 28.0839 -0.256276 1.55502 0
M  V30 267 C 29.0309 -1.31714 1.89526 0
M  V30 268 C 30.0009 -1.4828 0.748479 0
M  V30 269 O 31.1859 -1.62416 1.00128 0
M  V30 270 C 28.3259 -2.66933 2.18725 0
M  V30 271 C 27.4389 -2.58452 3.4616 0
M  V30 272 C 26.5739 -3.85961 3.64976 0
M  V30 273 C 25.6129 -3.72059 4.86044 0
M  V30 274 N 24.7499 -4.9144 5.01429 0
M  V30 275 H 29.5899 -1.01998 2.80001 0
M  V30 276 H 27.1269 -0.492413 1.38613 0
M  V30 277 H 29.0849 -3.4563 2.33657 0
M  V30 278 H 27.7149 -2.94816 1.31466 0
M  V30 279 H 26.7669 -1.71374 3.3961 0
M  V30 280 H 28.0789 -2.44085 4.34999 0
M  V30 281 H 27.2329 -4.73101 3.79816 0
M  V30 282 H 25.9719 -4.03215 2.74353 0
M  V30 283 H 24.9769 -2.83302 4.7119 0
M  V30 284 H 26.2019 -3.56309 5.78118 0
M  V30 285 H 24.1479 -5.09072 4.13741 0
M  V30 286 H 24.0649 -4.79668 5.84341 0
M  V30 287 H 25.3329 -5.80104 5.20672 0
M  V30 288 N 29.562 -1.4872 -0.521534 0
M  V30 289 C 30.811 -1.56419 -1.27341 0
M  V30 290 C 31.124 -0.246805 -1.94037 0
M  V30 291 O 32.33 -0.202122 -2.70747 0
M  V30 292 C 30.786 -2.75896 -2.31105 0
M  V30 293 C 30.394 -4.14311 -1.70441 0
M  V30 294 C 32.138 -2.92913 -3.07249 0
M  V30 295 C 30.045 -5.25038 -2.72194 0
M  V30 296 H 28.975 -0.582344 -0.478949 0
M  V30 297 H 31.626 -1.75071 -0.549779 0
M  V30 298 H 30.008 -2.50697 -3.06541 0
M  V30 299 H 31.182 -4.49564 -1.01136 0
M  V30 300 H 29.497 -4.02482 -1.06759 0
M  V30 301 H 32.094 -3.72805 -3.83302 0
M  V30 302 H 32.437 -2.02689 -3.63625 0
M  V30 303 H 32.97 -3.18054 -2.38928 0
M  V30 304 H 29.709 -6.17255 -2.20627 0
M  V30 305 H 29.229 -4.94263 -3.39801 0
M  V30 306 H 30.908 -5.53508 -3.35019 0
M  V30 307 N 31.0401 0.771051 -1.3745 0
M  V30 308 C 32.2861 1.5319 -1.32894 0
M  V30 309 C 32.6191 1.94008 0.0862511 0
M  V30 310 O 31.8941 1.64124 1.04373 0
M  V30 311 C 32.1771 2.79648 -2.26868 0
M  V30 312 C 32.0301 2.45079 -3.77169 0
M  V30 313 C 33.3491 3.81583 -2.19277 0
M  V30 314 H 30.4681 0.555744 -0.484064 0
M  V30 315 H 33.1101 0.884492 -1.68157 0
M  V30 316 H 31.2601 3.34891 -1.96926 0
M  V30 317 H 32.9321 1.95745 -4.1771 0
M  V30 318 H 31.1751 1.77767 -3.95704 0
M  V30 319 H 31.8461 3.35478 -4.38359 0
M  V30 320 H 34.3221 3.35835 -2.45671 0
M  V30 321 H 33.1981 4.67787 -2.87171 0
M  V30 322 H 33.4591 4.25897 -1.18592 0
M  V30 323 N 32.5182 1.22032 0.997298 0
M  V30 324 C 33.7662 1.04016 1.73278 0
M  V30 325 C 34.0872 -0.426255 1.90284 0
M  V30 326 O 33.3572 -1.30694 1.45931 0
M  V30 327 H 31.9372 0.381897 0.642 0
M  V30 328 H 34.5992 1.5347 1.20137 0
M  V30 329 H 33.6952 1.51441 2.72896 0
M  V30 330 N 33.9963 -1.19345 1.0293 0
M  V30 331 C 35.2443 -1.88665 0.724574 0
M  V30 332 C 35.5653 -1.80036 -0.749144 0
M  V30 333 O 34.8353 -1.2111 -1.53978 0
M  V30 334 H 33.4153 -0.698406 0.265025 0
M  V30 335 H 36.0773 -1.44885 1.30362 0
M  V30 336 H 35.1733 -2.94987 1.01926 0
M  V30 337 N 35.4744 -0.807222 -1.35358 0
M  V30 338 C 36.4224 -0.20614 -2.31685 0
M  V30 339 C 37.4164 0.644445 -1.56663 0
M  V30 340 O 38.6224 0.537538 -1.71786 0
M  V30 341 H 34.9974 -0.0479006 -0.750473 0
M  V30 342 H 36.9684 -1.03369 -2.79924 0
M  V30 343 C 35.7174 0.630212 -3.41941 0
M  V30 344 H 35.0404 -0.0149558 -3.99797 0
M  V30 345 H 36.4804 1.01716 -4.11619 0
M  V30 346 C 34.9394 1.79601 -2.85035 0
M  V30 347 O 35.4694 2.89351 -2.78637 0
M  V30 348 N 33.6754 1.60774 -2.42074 0
M  V30 349 H 33.2224 0.715009 -2.47478 0
M  V30 350 H 33.1804 2.38933 -2.04349 0
M  V30 351 N 36.9525 1.47285 -0.560781 0
M  V30 352 C 37.9155 2.28535 0.174488 0
M  V30 353 C 38.9155 1.37153 0.839388 0
M  V30 354 O 40.1055 1.59748 0.694702 0
M  V30 355 C 37.2375 3.16934 1.25561 0
M  V30 356 H 38.4305 2.95012 -0.539262 0
M  V30 357 H 35.9835 1.53034 -0.317865 0
M  V30 358 H 36.7185 2.55157 2.00164 0
M  V30 359 H 36.5035 3.8419 0.783604 0
M  V30 360 H 37.9935 3.78143 1.77193 0
M  V30 361 N 38.4306 0.297415 1.54768 0
M  V30 362 C 39.3936 -0.567375 2.22066 0
M  V30 363 C 40.3936 -1.06409 1.20556 0
M  V30 364 O 41.5836 -0.960691 1.45315 0
M  V30 365 C 38.7156 -1.78517 2.90421 0
M  V30 366 H 39.9086 0.0205534 2.99893 0
M  V30 367 H 37.4616 0.0482163 1.56226 0
M  V30 368 H 38.1966 -2.41303 2.16664 0
M  V30 369 H 37.9816 -1.43669 3.64831 0
M  V30 370 H 39.4716 -2.39964 3.41771 0
M  V30 371 N 39.9087 -1.5758 0.0250728 0
M  V30 372 C 40.8407 -2.06869 -0.986796 0
M  V30 373 C 41.8537 -0.991332 -1.29137 0
M  V30 374 O 43.0427 -1.26761 -1.25674 0
M  V30 375 C 40.1427 -2.47486 -2.31525 0
M  V30 376 C 39.3157 -3.78253 -2.19643 0
M  V30 377 C 38.3747 -4.05464 -3.35388 0
M  V30 378 O 37.4007 -4.75774 -3.12454 0
M  V30 379 N 38.6027 -3.55321 -4.59051 0
M  V30 380 H 41.3677 -2.94302 -0.566276 0
M  V30 381 H 38.9287 -1.6109 -0.161776 0
M  V30 382 H 40.9207 -2.62785 -3.07776 0
M  V30 383 H 39.4907 -1.65441 -2.65232 0
M  V30 384 H 38.7107 -3.7279 -1.28144 0
M  V30 385 H 39.9987 -4.63936 -2.08903 0
M  V30 386 H 39.3967 -2.98431 -4.80578 0
M  V30 387 H 37.9537 -3.75905 -5.32483 0
M  V30 388 N 41.3868 0.248026 -1.55636 0
M  V30 389 C 42.3168 1.31079 -1.93237 0
M  V30 390 C 43.2978 1.50264 -0.797174 0
M  V30 391 O 44.4828 1.62891 -1.05737 0
M  V30 392 C 41.6128 2.66575 -2.22609 0
M  V30 393 C 40.5668 2.62087 -3.3837 0
M  V30 394 C 39.8928 4.01369 -3.53281 0
M  V30 395 C 41.1928 2.19171 -4.7409 0
M  V30 396 H 42.8868 0.998556 -2.82257 0
M  V30 397 H 40.4328 0.47891 -1.35803 0
M  V30 398 H 42.3858 3.41057 -2.47503 0
M  V30 399 H 41.1098 2.99432 -1.30414 0
M  V30 400 H 39.7688 1.90063 -3.13483 0
M  V30 401 H 39.4168 4.31489 -2.58508 0
M  V30 402 H 39.1168 3.99254 -4.31127 0
M  V30 403 H 40.6408 4.77552 -3.80495 0
M  V30 404 H 42.0548 2.83384 -4.98363 0
M  V30 405 H 40.4518 2.2817 -5.5503 0
M  V30 406 H 41.5218 1.14336 -4.71227 0
M  V30 407 N 42.8649 1.48995 0.513639 0
M  V30 408 C 43.8279 1.64229 1.59879 0
M  V30 409 C 44.8279 0.514696 1.5234 0
M  V30 410 O 46.0179 0.78087 1.55718 0
M  V30 411 C 43.1499 1.62783 2.99524 0
M  V30 412 H 44.3429 2.61004 1.47705 0
M  V30 413 H 41.8959 1.37837 0.736936 0
M  V30 414 H 42.6309 0.675461 3.17188 0
M  V30 415 H 42.4159 2.4466 3.06404 0
M  V30 416 H 43.9059 1.76669 3.78388 0
M  V30 417 N 44.343 -0.763751 1.37857 0
M  V30 418 C 45.275 -1.88664 1.30148 0
M  V30 419 C 46.288 -1.61365 0.215685 0
M  V30 420 O 47.477 -1.72134 0.472459 0
M  V30 421 C 44.577 -3.24075 0.991396 0
M  V30 422 C 43.75 -3.78958 2.18426 0
M  V30 423 C 42.809 -4.92862 1.8432 0
M  V30 424 O 41.835 -5.08027 2.56704 0
M  V30 425 N 43.037 -5.75071 0.792081 0
M  V30 426 H 45.802 -1.95791 2.26905 0
M  V30 427 H 43.363 -0.943226 1.31586 0
M  V30 428 H 45.355 -3.97804 0.743935 0
M  V30 429 H 43.925 -3.12399 0.112122 0
M  V30 430 H 43.145 -2.96913 2.59299 0
M  V30 431 H 44.433 -4.12357 2.98058 0
M  V30 432 H 43.831 -5.65375 0.191595 0
M  V30 433 H 42.388 -6.48991 0.60449 0
M  V30 434 N 45.8211 -1.22559 -0.990812 0
M  V30 435 C 47.0681 -1.05141 -1.73065 0
M  V30 436 C 47.3961 0.413191 -1.9006 0
M  V30 437 O 46.6511 1.32257 -1.44245 0
M  V30 438 C 46.9501 -1.71011 -3.13831 0
M  V30 439 C 46.6161 -3.20911 -3.16745 0
M  V30 440 C 45.2781 -3.61812 -3.17247 0
M  V30 441 C 47.6301 -4.16846 -3.12872 0
M  V30 442 C 44.9581 -4.97127 -3.1158 0
M  V30 443 C 47.3101 -5.5214 -3.08746 0
M  V30 444 C 45.9741 -5.92419 -3.07565 0
M  V30 445 H 45.2441 -0.384738 -0.633291 0
M  V30 446 H 47.8911 -1.5235 -1.16025 0
M  V30 447 H 46.1961 -1.16133 -3.74193 0
M  V30 448 H 47.8931 -1.55023 -3.69823 0
M  V30 449 H 44.4831 -2.88344 -3.17105 0
M  V30 450 H 48.6671 -3.86263 -3.11632 0
M  V30 451 H 43.9231 -5.27562 -3.09012 0
M  V30 452 H 48.0971 -6.26201 -3.04705 0
M  V30 453 H 45.7241 -6.97236 -3.02929 0
M  V30 454 N 47.2992 1.18797 -1.03562 0
M  V30 455 C 48.5762 1.84469 -0.650434 0
M  V30 456 C 48.9562 1.92319 0.870433 0
M  V30 457 O 48.3042 1.44528 1.76986 0
M  V30 458 C 48.5142 3.2306 -1.32036 0
M  V30 459 C 49.8622 3.9915 -1.44792 0
M  V30 460 O 50.8862 3.32481 -1.27806 0
M  V30 461 O 49.7452 5.18587 -1.72423 0
M  V30 462 H 46.8392 0.795251 -0.226946 0
M  V30 463 H 49.3852 1.26231 -1.13419 0
M  V30 464 H 48.1572 3.1222 -2.3587 0
M  V30 465 H 47.7802 3.88949 -0.8249 0
M  V30 466 N 48.7773 0.814389 1.34928 0
M  V30 467 C 50.1883 0.458364 1.80986 0
M  V30 468 C 50.5393 -1.02042 1.67577 0
M  V30 469 O 49.6643 -1.79352 1.21086 0
M  V30 470 C 50.2593 0.825212 3.28597 0
M  V30 471 C 48.8183 0.521677 3.72767 0
M  V30 472 C 47.9653 1.04668 2.56788 0
M  V30 473 H 50.9163 1.00533 1.22795 0
M  V30 474 H 50.9373 0.12571 3.80292 0
M  V30 475 H 50.4493 1.90154 3.38324 0
M  V30 476 H 48.5503 -0.545589 3.68584 0
M  V30 477 H 48.6633 1.05977 4.67232 0
M  V30 478 H 47.0273 0.468622 2.50352 0
M  V30 479 H 47.8103 2.12927 2.6929 0
M  V30 480 N 50.2554 -1.46986 0.568584 0
M  V30 481 C 51.6714 -1.57946 0.229189 0
M  V30 482 C 51.8714 -1.56567 -1.26843 0
M  V30 483 O 50.9274 -1.47511 -2.04931 0
M  V30 484 C 52.2404 -2.87963 0.865909 0
M  V30 485 C 53.7884 -3.01568 0.838188 0
M  V30 486 C 54.2634 -4.34301 1.45419 0
M  V30 487 N 55.7544 -4.40965 1.41788 0
M  V30 488 C 56.4894 -5.42256 1.86403 0
M  V30 489 N 55.9854 -6.50297 2.38926 0
M  V30 490 N 57.7784 -5.3337 1.77405 0
M  V30 491 H 49.9294 -1.46126 1.54146 0
M  V30 492 H 52.1924 -0.696156 0.643484 0
M  V30 493 H 51.8984 -2.94742 1.91886 0
M  V30 494 H 51.7724 -3.75423 0.365687 0
M  V30 495 H 54.1594 -2.94379 -0.206106 0
M  V30 496 H 54.2404 -2.1562 1.37629 0
M  V30 497 H 53.8844 -4.42247 2.49761 0
M  V30 498 H 53.8144 -5.19 0.891435 0
M  V30 499 H 56.3054 -3.63484 1.03381 0
M  V30 500 H 56.6184 -7.23777 2.70863 0
M  V30 501 H 54.9634 -6.51155 2.42944 0
M  V30 502 H 58.1544 -4.47865 1.3614 0
M  V30 503 H 58.3274 -6.12169 2.12492 0
M  V30 504 N 51.7335 -0.305618 -1.54608 0
M  V30 505 C 52.9795 0.302746 -2.00528 0
M  V30 506 C 53.3125 1.53184 -1.19367 0
M  V30 507 O 52.5875 1.92598 -0.271321 0
M  V30 508 C 52.8705 0.654756 -3.54097 0
M  V30 509 C 52.7235 -0.583793 -4.45995 0
M  V30 510 C 54.0425 1.47947 -4.14487 0
M  V30 511 H 51.1615 0.108564 -0.72896 0
M  V30 512 H 53.8035 -0.418634 -1.85331 0
M  V30 513 H 51.9535 1.26935 -3.67178 0
M  V30 514 H 53.6255 -1.22224 -4.44814 0
M  V30 515 H 51.8685 -1.21615 -4.16404 0
M  V30 516 H 52.5395 -0.293287 -5.5122 0
M  V30 517 H 55.0155 0.96013 -4.04871 0
M  V30 518 H 53.8915 1.69454 -5.22088 0
M  V30 519 H 54.1525 2.47011 -3.66658 0
M  V30 520 N 53.2116 1.57565 -0.0334293 0
M  V30 521 C 54.4396 1.9628 0.654347 0
M  V30 522 C 54.8546 0.910138 1.65414 0
M  V30 523 O 54.2116 -0.107595 1.82183 0
M  V30 524 C 54.2626 3.35067 1.35693 0
M  V30 525 O 53.9836 4.36296 0.397191 0
M  V30 526 C 55.4846 3.88439 2.13613 0
M  V30 527 H 52.7046 0.646369 0.180132 0
M  V30 528 H 55.2486 2.04282 -0.0944721 0
M  V30 529 H 53.4036 3.2827 2.05712 0
M  V30 530 H 53.8176 5.1678 0.896597 0
M  V30 531 H 55.2916 4.8788 2.58219 0
M  V30 532 H 55.7686 3.22914 2.97696 0
M  V30 533 H 56.3746 3.98516 1.48543 0
M  V30 534 N 54.6897 -0.239769 1.55765 0
M  V30 535 C 55.6227 -1.32356 1.85895 0
M  V30 536 C 56.6007 -1.46053 0.714662 0
M  V30 537 O 57.7847 -1.62154 0.961157 0
M  V30 538 C 54.9117 -2.6962 2.04994 0
M  V30 539 C 53.9577 -2.73036 3.27648 0
M  V30 540 S 54.7907 -2.28929 4.84099 0
M  V30 541 C 55.9467 -3.68103 5.06212 0
M  V30 542 H 56.1797 -1.06601 2.77531 0
M  V30 543 H 53.7127 -0.441112 1.47965 0
M  V30 544 H 55.6707 -3.48653 2.16682 0
M  V30 545 H 54.3317 -2.92609 1.14188 0
M  V30 546 H 53.5247 -3.7386 3.38 0
M  V30 547 H 53.1267 -2.02052 3.14723 0
M  V30 548 H 55.4187 -4.63656 4.93993 0
M  V30 549 H 56.3617 -3.6268 6.08168 0
M  V30 550 H 56.7697 -3.60947 4.34025 0
M  V30 551 N 56.1678 -1.49265 -0.50573 0
M  V30 552 C 57.4138 -1.59723 -1.25937 0
M  V30 553 C 57.7688 -0.278236 -1.90378 0
M  V30 554 O 57.0618 0.72113 -1.77511 0
M  V30 555 C 57.2558 -2.69008 -2.35308 0
M  V30 556 C 57.0848 -4.11405 -1.81592 0
M  V30 557 C 55.8548 -4.78252 -1.63105 0
M  V30 558 C 58.0528 -4.96792 -1.33048 0
M  V30 559 N 56.0348 -6.0498 -1.04269 0
M  V30 560 C 57.4058 -6.13962 -0.863168 0
M  V30 561 C 59.4608 -4.82828 -1.21577 0
M  V30 562 C 58.1638 -7.18705 -0.292489 0
M  V30 563 C 60.1898 -5.87716 -0.65907 0
M  V30 564 C 59.5518 -7.0411 -0.201954 0
M  V30 565 H 55.6508 -0.638864 -0.450973 0
M  V30 566 H 58.2348 -1.86251 -0.567326 0
M  V30 567 H 56.4058 -2.4426 -3.01979 0
M  V30 568 H 58.1378 -2.69013 -3.02348 0
M  V30 569 H 54.8928 -4.34974 -1.87336 0
M  V30 570 H 55.3168 -6.72631 -0.767919 0
M  V30 571 H 59.9588 -3.93159 -1.55518 0
M  V30 572 H 57.6768 -8.08078 0.0591987 0
M  V30 573 H 61.2628 -5.7897 -0.573156 0
M  V30 574 H 60.1428 -7.83885 0.222101 0
M  V30 575 N 57.6459 0.756429 -1.3826 0
M  V30 576 C 58.8919 1.51772 -1.34511 0
M  V30 577 C 59.2249 1.94089 0.0656691 0
M  V30 578 O 58.4999 1.65221 1.02626 0
M  V30 579 C 58.7829 2.77226 -2.29821 0
M  V30 580 C 58.6359 2.41065 -3.79747 0
M  V30 581 C 59.9549 3.79236 -2.23312 0
M  V30 582 H 57.0739 0.550578 -0.489931 0
M  V30 583 H 59.7159 0.866607 -1.69086 0
M  V30 584 H 57.8659 3.32784 -2.00467 0
M  V30 585 H 59.5379 1.91303 -4.19763 0
M  V30 586 H 57.7809 1.7356 -3.97567 0
M  V30 587 H 58.4519 3.3081 -4.41892 0
M  V30 588 H 60.9279 3.3321 -2.49219 0
M  V30 589 H 59.8039 4.64714 -2.92116 0
M  V30 590 H 60.0649 4.24615 -1.23102 0
M  V30 591 N 59.124 1.23083 0.984299 0
M  V30 592 C 60.371 1.06057 1.72505 0
M  V30 593 C 60.699 -0.403105 1.90277 0
M  V30 594 O 59.954 -1.3149 1.44944 0
M  V30 595 C 60.253 1.72673 3.1292 0
M  V30 596 C 59.919 3.22586 3.15038 0
M  V30 597 C 58.581 3.63489 3.15324 0
M  V30 598 C 60.933 4.185 3.10657 0
M  V30 599 C 58.261 4.98772 3.08939 0
M  V30 600 C 60.613 5.53769 3.05814 0
M  V30 601 C 59.277 5.94041 3.04419 0
M  V30 602 H 58.547 0.388091 0.631242 0
M  V30 603 H 61.194 1.52963 1.15215 0
M  V30 604 H 59.499 1.18116 3.73572 0
M  V30 605 H 61.196 1.56982 3.68996 0
M  V30 606 H 57.786 2.90022 3.15571 0
M  V30 607 H 61.97 3.87911 3.09579 0
M  V30 608 H 57.226 5.29193 3.0621 0
M  V30 609 H 61.4 6.27808 3.0138 0
M  V30 610 H 59.027 6.98833 2.99227 0
M  V30 611 N 60.6021 -1.18246 1.0419 0
M  V30 612 C 61.5121 -2.25574 0.644476 0
M  V30 613 C 62.5281 -1.70845 -0.329826 0
M  V30 614 O 63.7041 -2.00554 -0.184443 0
M  V30 615 C 60.7691 -3.46697 0.014877 0
M  V30 616 C 59.8301 -4.16554 1.03834 0
M  V30 617 C 59.0631 -5.31894 0.438692 0
M  V30 618 O 59.2861 -5.65385 -0.754752 0
M  V30 619 O 58.2201 -5.90459 1.168 0
M  V30 620 H 62.0461 -2.61836 1.53869 0
M  V30 621 H 59.6311 -1.25352 0.812854 0
M  V30 622 H 61.5131 -4.20062 -0.335538 0
M  V30 623 H 60.1881 -3.12255 -0.853138 0
M  V30 624 H 59.0951 -3.45251 1.44057 0
M  V30 625 H 60.4281 -4.54998 1.87716 0
M  V30 626 N 62.0802 -0.821533 -1.34494 0
M  V30 627 C 62.9902 -0.244355 -2.33324 0
M  V30 628 C 64.0062 0.620527 -1.62559 0
M  V30 629 O 65.1822 0.528754 -1.94335 0
M  V30 630 C 62.2472 0.585368 -3.41723 0
M  V30 631 C 61.3082 -0.301752 -4.28238 0
M  V30 632 C 60.5412 0.488466 -5.3146 0
M  V30 633 O 60.7642 1.72186 -5.4379 0
M  V30 634 O 59.6982 -0.12848 -6.01763 0
M  V30 635 H 63.5242 -1.06231 -2.84515 0
M  V30 636 H 61.1092 -0.583645 -1.37528 0
M  V30 637 H 62.9912 1.05747 -4.07916 0
M  V30 638 H 61.6662 1.38068 -2.92778 0
M  V30 639 H 60.5732 -0.821315 -3.64973 0
M  V30 640 H 61.9062 -1.06138 -4.8062 0
M  V30 641 N 63.5583 1.46682 -0.576371 0
M  V30 642 C 64.8353 1.95599 0.00703437 0
M  V30 643 C 65.2153 1.51904 1.46589 0
M  V30 644 O 64.5633 0.766755 2.15251 0
M  V30 645 C 64.7733 3.4864 -0.158404 0
M  V30 646 C 66.1213 4.24594 -0.0229439 0
M  V30 647 O 67.1453 3.56094 -0.0869173 0
M  V30 648 O 66.0043 5.46373 0.118015 0
M  V30 649 H 63.0983 0.825275 0.053384 0
M  V30 650 H 65.6443 1.56996 -0.644244 0
M  V30 651 H 64.4163 3.7331 -1.17282 0
M  V30 652 H 64.0393 3.94057 0.5296 0
M  V30 653 N 65.0364 0.313813 1.54444 0
M  V30 654 C 66.2854 -0.292519 1.99568 0
M  V30 655 C 66.5984 -1.54011 1.20582 0
M  V30 656 O 67.8044 -2.22183 1.56035 0
M  V30 657 C 66.2604 -0.571752 3.55329 0
M  V30 658 C 65.8684 0.658229 4.43138 0
M  V30 659 C 67.6124 -1.13857 4.08946 0
M  V30 660 C 65.5194 0.351439 5.90355 0
M  V30 661 H 64.4494 -0.113079 0.745472 0
M  V30 662 H 67.1004 0.424518 1.78522 0
M  V30 663 H 65.4824 -1.34872 3.72325 0
M  V30 664 H 66.6564 1.43403 4.37918 0
M  V30 665 H 64.9714 1.14458 4.0036 0
M  V30 666 H 67.5684 -1.38257 5.16516 0
M  V30 667 H 67.9114 -2.08489 3.6033 0
M  V30 668 H 68.4444 -0.423015 3.95544 0
M  V30 669 H 65.1834 1.26667 6.43145 0
M  V30 670 H 64.7034 -0.386842 5.98551 0
M  V30 671 H 66.3824 -0.0423134 6.46986 0
M  V30 672 N 66.5145 -1.57545 0.0417849 0
M  V30 673 C 67.7625 -1.91937 -0.632829 0
M  V30 674 C 68.0835 -0.919978 -1.71934 0
M  V30 675 O 67.3535 0.0366064 -1.95866 0
M  V30 676 H 65.9335 -0.708493 -0.236742 0
M  V30 677 H 68.5955 -1.9468 0.0925745 0
M  V30 678 H 67.6915 -2.92912 -1.07746 0
M  V30 679 N 67.9926 0.231505 -1.5589 0
M  V30 680 C 69.2406 0.955461 -1.78088 0
M  V30 681 C 69.5616 1.85262 -0.608533 0
M  V30 682 O 68.8316 1.92277 0.375035 0
M  V30 683 H 67.4116 0.355787 -0.656829 0
M  V30 684 H 70.0736 0.245751 -1.93344 0
M  V30 685 H 69.1696 1.56814 -2.69844 0
M  V30 686 N 69.4707 1.49531 0.497807 0
M  V30 687 C 70.4177 1.66436 1.59899 0
M  V30 688 C 71.3877 0.505793 1.58212 0
M  V30 689 O 72.5727 0.733202 1.7615 0
M  V30 690 C 69.7127 1.7399 2.98029 0
M  V30 691 C 68.8257 3.01172 3.09708 0
M  V30 692 C 67.9607 2.99686 4.38591 0
M  V30 693 C 66.9997 4.21434 4.43914 0
M  V30 694 N 66.1367 4.1784 5.64229 0
M  V30 695 H 70.9767 2.60459 1.44793 0
M  V30 696 H 68.5137 1.29137 0.704423 0
M  V30 697 H 70.4717 1.76352 3.78095 0
M  V30 698 H 69.1017 0.834301 3.11832 0
M  V30 699 H 68.1537 3.08408 2.22685 0
M  V30 700 H 69.4657 3.91165 3.09502 0
M  V30 701 H 68.6197 3.00628 5.2698 0
M  V30 702 H 67.3587 2.07477 4.41367 0
M  V30 703 H 66.3637 4.20733 3.53926 0
M  V30 704 H 67.5887 5.14839 4.42851 0
M  V30 705 H 65.5347 3.28469 5.67841 0
M  V30 706 H 65.4517 5.01571 5.65652 0
M  V30 707 H 66.7197 4.22889 6.54817 0
M  V30 708 N 70.9488 -0.749086 1.3866 0
M  V30 709 C 71.8958 -1.86291 1.36251 0
M  V30 710 C 72.8658 -1.64578 0.224347 0
M  V30 711 O 74.0508 -1.86181 0.417279 0
M  V30 712 C 71.1908 -3.23644 1.19786 0
M  V30 713 C 70.3038 -3.57158 2.43027 0
M  V30 714 C 69.4388 -4.83838 2.19258 0
M  V30 715 C 68.4778 -5.10152 3.38247 0
M  V30 716 N 67.6148 -6.28029 3.13884 0
M  V30 717 H 72.4548 -1.87685 2.3147 0
M  V30 718 H 69.9918 -0.917287 1.14997 0
M  V30 719 H 71.9498 -4.0291 1.08254 0
M  V30 720 H 70.5798 -3.21566 0.282031 0
M  V30 721 H 69.6318 -2.72701 2.65214 0
M  V30 722 H 70.9438 -3.7253 3.31697 0
M  V30 723 H 70.0978 -5.71057 2.04888 0
M  V30 724 H 68.8368 -4.70614 1.2796 0
M  V30 725 H 67.8418 -4.21401 3.53131 0
M  V30 726 H 69.0668 -5.25271 4.30427 0
M  V30 727 H 67.0128 -6.1612 2.25238 0
M  V30 728 H 66.9298 -6.43922 3.96106 0
M  V30 729 H 68.1978 -7.18124 3.03179 0
M  V30 730 N 72.4269 -1.23603 -0.977757 0
M  V30 731 C 73.3569 -1.04401 -2.0886 0
M  V30 732 C 74.3379 0.0399052 -1.70053 0
M  V30 733 O 75.5229 -0.125246 -1.93796 0
M  V30 734 C 72.6529 -0.637269 -3.41403 0
M  V30 735 C 71.6069 -1.66883 -3.94124 0
M  V30 736 C 70.9329 -1.11745 -5.22893 0
M  V30 737 C 72.2329 -3.06247 -4.23096 0
M  V30 738 H 73.9269 -1.97316 -2.25182 0
M  V30 739 H 71.4729 -0.950096 -1.08209 0
M  V30 740 H 73.4259 -0.48998 -4.18542 0
M  V30 741 H 72.1499 0.327557 -3.24953 0
M  V30 742 H 70.8089 -1.80416 -3.19133 0
M  V30 743 H 70.4569 -0.143527 -5.02795 0
M  V30 744 H 70.1569 -1.80672 -5.59134 0
M  V30 745 H 71.6809 -0.982067 -6.02651 0
M  V30 746 H 73.0949 -2.96001 -4.90975 0
M  V30 747 H 71.4919 -3.72436 -4.70544 0
M  V30 748 H 72.5619 -3.55041 -3.30263 0
M  V30 749 N 73.905 1.17692 -1.04816 0
M  V30 750 C 75.133 1.91786 -0.776254 0
M  V30 751 C 75.548 1.76604 0.667577 0
M  V30 752 O 74.905 1.10067 1.45573 0
M  V30 753 C 74.956 3.42967 -1.14263 0
M  V30 754 O 74.677 3.57678 -2.52978 0
M  V30 755 C 76.178 4.34144 -0.896311 0
M  V30 756 H 73.398 0.608624 -0.282519 0
M  V30 757 H 75.942 1.49268 -1.39783 0
M  V30 758 H 74.097 3.83245 -0.565874 0
M  V30 759 H 74.511 4.51319 -2.67229 0
M  V30 760 H 75.985 5.38744 -1.20244 0
M  V30 761 H 76.462 4.38876 0.168636 0
M  V30 762 H 77.068 3.99574 -1.45672 0
M  V30 763 N 75.3831 0.828654 1.34056 0
M  V30 764 C 76.2931 0.256725 2.33191 0
M  V30 765 C 77.3091 -0.611898 1.62886 0
M  V30 766 O 78.4851 -0.51844 1.94613 0
M  V30 767 C 75.5501 -0.567238 3.42028 0
M  V30 768 C 74.6111 0.324458 4.28072 0
M  V30 769 C 73.8441 -0.460274 5.31712 0
M  V30 770 O 74.0671 -1.693 5.44696 0
M  V30 771 O 73.0011 0.160391 6.01686 0
M  V30 772 H 76.8271 1.07739 2.83947 0
M  V30 773 H 74.4121 0.59093 1.37217 0
M  V30 774 H 76.2941 -1.03582 4.08471 0
M  V30 775 H 74.9691 -1.36513 2.93506 0
M  V30 776 H 73.8761 0.840659 3.64532 0
M  V30 777 H 75.2091 1.08685 4.8005 0
M  V30 778 N 76.8612 -1.46375 0.584142 0
M  V30 779 C 78.1102 -2.01585 0.0679741 0
M  V30 780 C 78.4232 -1.46109 -1.30045 0
M  V30 781 O 79.6292 -1.93148 -1.90804 0
M  V30 782 C 78.0852 -3.5983 0.0709207 0
M  V30 783 C 77.6932 -4.24303 1.43775 0
M  V30 784 C 79.4372 -4.22693 -0.391228 0
M  V30 785 C 77.3442 -5.74631 1.39834 0
M  V30 786 H 76.2742 -0.753689 0.0216421 0
M  V30 787 H 78.9252 -1.68093 0.736001 0
M  V30 788 H 77.3072 -3.90405 -0.663299 0
M  V30 789 H 78.4812 -4.05335 2.19181 0
M  V30 790 H 76.7962 -3.73539 1.84004 0
M  V30 791 H 79.3932 -5.3289 -0.439524 0
M  V30 792 H 79.7362 -3.91728 -1.40906 0
M  V30 793 H 80.2692 -3.96749 0.288974 0
M  V30 794 H 77.0082 -6.10258 2.39303 0
M  V30 795 H 76.5282 -5.95858 0.686505 0
M  V30 796 H 78.2072 -6.37375 1.11187 0
M  V30 797 N 78.3393 -0.321999 -1.54275 0
M  V30 798 C 79.5883 0.281931 -1.9972 0
M  V30 799 C 79.9013 1.53369 -1.21397 0
M  V30 800 O 81.1073 2.21352 -1.57211 0
M  V30 801 C 79.5633 0.5529 -3.55628 0
M  V30 802 C 79.1713 -0.681721 -4.42783 0
M  V30 803 C 80.9153 1.11687 -4.09544 0
M  V30 804 C 78.8223 -0.382742 -5.9016 0
M  V30 805 H 77.7523 0.109124 -0.746062 0
M  V30 806 H 80.4033 -0.43398 -1.78294 0
M  V30 807 H 78.7853 1.32896 -3.73035 0
M  V30 808 H 79.9593 -1.45723 -4.37151 0
M  V30 809 H 78.2743 -1.1658 -3.99748 0
M  V30 810 H 80.8713 1.35515 -5.17242 0
M  V30 811 H 81.2143 2.06575 -3.61431 0
M  V30 812 H 81.7473 0.402032 -3.95763 0
M  V30 813 H 78.4863 -1.30076 -6.42464 0
M  V30 814 H 78.0063 0.355094 -5.98748 0
M  V30 815 H 79.6853 0.00800157 -6.47 0
M  V30 816 N 79.8174 1.5752 -0.0501392 0
M  V30 817 C 80.7654 2.12651 0.942459 0
M  V30 818 C 81.7594 1.05807 1.32292 0
M  V30 819 O 82.9654 1.24217 1.3027 0
M  V30 820 H 79.3404 0.679673 0.321789 0
M  V30 821 H 81.3114 2.94951 0.452356 0
M  V30 822 C 80.0604 2.68565 2.20836 0
M  V30 823 H 79.3834 3.50439 1.92439 0
M  V30 824 H 80.8234 3.10761 2.8845 0
M  V30 825 C 79.2824 1.62291 2.95234 0
M  V30 826 O 79.8124 1.03508 3.88135 0
M  V30 827 N 78.0184 1.33836 2.57946 0
M  V30 828 H 77.5654 1.81826 1.82475 0
M  V30 829 H 77.5234 0.629595 3.08032 0
M  V30 830 N 81.2955 -0.223234 1.56011 0
M  V30 831 C 82.5235 -0.964812 1.83027 0
M  V30 832 C 82.9385 -1.78013 0.62904 0
M  V30 833 O 82.2955 -1.78008 -0.402414 0
M  V30 834 C 82.3465 -1.88373 3.08542 0
M  V30 835 O 82.0675 -1.10137 4.2403 0
M  V30 836 C 83.5685 -2.73934 3.48533 0
M  V30 837 H 80.7885 -0.282842 0.608475 0
M  V30 838 H 83.3325 -0.238971 2.03099 0
M  V30 839 H 81.4875 -2.56354 2.9045 0
M  V30 840 H 81.9015 -1.72501 4.95322 0
M  V30 841 H 83.3755 -3.34117 4.39397 0
M  V30 842 H 83.8525 -3.46244 2.70207 0
M  V30 843 H 84.4585 -2.11369 3.69057 0
M  V30 844 N 82.7736 -1.49793 -0.48987 0
M  V30 845 C 83.7056 -1.63413 -1.60713 0
M  V30 846 C 84.7186 -0.516329 -1.54395 0
M  V30 847 O 85.9076 -0.788812 -1.60125 0
M  V30 848 C 83.0076 -1.58516 -2.99543 0
M  V30 849 C 82.1806 -2.86016 -3.30928 0
M  V30 850 C 81.2396 -2.74018 -4.49222 0
M  V30 851 O 80.2656 -3.47964 -4.50455 0
M  V30 852 N 81.4676 -1.86309 -5.4979 0
M  V30 853 H 84.2326 -2.59777 -1.49452 0
M  V30 854 H 81.7936 -1.47022 -0.677955 0
M  V30 855 H 83.7856 -1.48128 -3.76617 0
M  V30 856 H 82.3556 -0.69965 -3.0467 0
M  V30 857 H 81.5756 -3.10672 -2.42645 0
M  V30 858 H 82.8636 -3.70521 -3.487 0
M  V30 859 H 82.2616 -1.2551 -5.51601 0
M  V30 860 H 80.8186 -1.81837 -6.25922 0
M  V30 861 N 84.2517 0.741722 -1.39055 0
M  V30 862 C 85.2017 1.84661 -1.33732 0
M  V30 863 C 86.1857 1.59397 -0.219401 0
M  V30 864 O 87.3777 1.71015 -0.456375 0
M  V30 865 C 84.5067 3.22512 -1.17647 0
M  V30 866 C 83.5927 3.53628 -2.34112 0
M  V30 867 N 83.9837 3.55723 -3.59576 0
M  V30 868 C 82.2817 3.83956 -2.26923 0
M  V30 869 C 82.9827 3.84443 -4.36553 0
M  V30 870 N 81.9587 4.01877 -3.66055 0
M  V30 871 H 85.7607 1.84576 -2.28711 0
M  V30 872 H 83.2747 0.939647 -1.32455 0
M  V30 873 H 85.2717 4.01597 -1.11917 0
M  V30 874 H 83.9317 3.2384 -0.236124 0
M  V30 875 H 84.9427 3.37196 -3.93089 0
M  V30 876 H 81.6197 3.92929 -1.41113 0
M  V30 877 H 83.0097 3.92588 -5.45274 0
M  V30 878 N 85.7298 1.2412 0.971189 0
M  V30 879 C 86.6398 1.04747 2.09917 0
M  V30 880 C 87.6558 -0.0107162 1.73997 0
M  V30 881 O 88.8318 0.186714 2.00533 0
M  V30 882 C 85.8968 0.650828 3.40537 0
M  V30 883 C 84.9578 1.7851 3.90426 0
M  V30 884 C 84.1908 1.40729 5.14812 0
M  V30 885 O 84.4138 0.29557 5.69634 0
M  V30 886 O 83.3478 2.23168 5.58999 0
M  V30 887 H 87.1738 1.99304 2.29154 0
M  V30 888 H 84.7588 1.02908 1.08307 0
M  V30 889 H 86.6408 0.440992 4.19086 0
M  V30 890 H 85.3158 -0.265649 3.22608 0
M  V30 891 H 84.2228 2.04966 3.12953 0
M  V30 892 H 85.5558 2.68023 4.12825 0
M  V30 893 N 87.2079 -1.17134 1.05439 0
M  V30 894 C 88.1559 -2.23289 0.651511 0
M  V30 895 C 89.1499 -1.66186 -0.328411 0
M  V30 896 O 90.3559 -1.78949 -0.194206 0
M  V30 897 H 86.7309 -0.726938 0.192523 0
M  V30 898 H 88.7019 -2.54565 1.55689 0
M  V30 899 C 87.4509 -3.47671 0.0448436 0
M  V30 900 H 86.7739 -3.91918 0.78996 0
M  V30 901 H 88.2139 -4.2353 -0.19964 0
M  V30 902 C 86.6729 -3.14453 -1.20918 0
M  V30 903 O 87.2029 -3.29459 -2.29825 0
M  V30 904 N 85.4089 -2.68657 -1.10779 0
M  V30 905 H 84.9559 -2.56646 -0.221526 0
M  V30 906 H 84.9139 -2.46804 -1.9477 0
M  V30 907 N 88.686 -0.835752 -1.33615 0
M  V30 908 C 89.932 -0.430596 -1.98176 0
M  V30 909 C 90.265 1.00684 -1.66061 0
M  V30 910 O 89.54 1.70339 -0.938877 0
M  V30 911 C 89.823 -0.648065 -3.5422 0
M  V30 912 C 89.676 -2.13255 -3.96033 0
M  V30 913 C 90.995 -0.0922113 -4.40003 0
M  V30 914 H 88.114 -0.157924 -0.719881 0
M  V30 915 H 90.756 -1.05069 -1.58305 0
M  V30 916 H 88.906 -0.120237 -3.88314 0
M  V30 917 H 90.578 -2.725 -3.72211 0
M  V30 918 H 88.821 -2.61823 -3.45878 0
M  V30 919 H 89.492 -2.23547 -5.04708 0
M  V30 920 H 91.968 -0.543343 -4.12537 0
M  V30 921 H 90.844 -0.274083 -5.48215 0
M  V30 922 H 91.105 1.00378 -4.30554 0
M  V30 923 N 90.1641 1.46063 -0.591896 0
M  V30 924 C 91.1111 2.30399 0.136069 0
M  V30 925 C 92.0811 1.41169 0.875238 0
M  V30 926 O 93.2661 1.70112 0.86409 0
M  V30 927 C 90.4061 3.25804 1.13781 0
M  V30 928 C 89.5191 4.30134 0.401137 0
M  V30 929 C 88.6541 5.12659 1.39121 0
M  V30 930 C 87.6931 6.0873 0.641462 0
M  V30 931 N 86.8301 6.8409 1.58004 0
M  V30 932 H 91.6701 2.92118 -0.589144 0
M  V30 933 H 89.2071 1.43959 -0.302342 0
M  V30 934 H 91.1651 3.79569 1.73156 0
M  V30 935 H 89.7951 2.65872 1.83062 0
M  V30 936 H 88.8471 3.79152 -0.307826 0
M  V30 937 H 90.1591 4.98458 -0.184565 0
M  V30 938 H 89.3131 5.70747 2.05749 0
M  V30 939 H 88.0521 4.44316 2.01084 0
M  V30 940 H 87.0571 5.49786 -0.0385419 0
M  V30 941 H 88.2821 6.79095 0.0270945 0
M  V30 942 H 86.2281 6.18449 2.18761 0
M  V30 943 H 86.1451 7.48709 1.04738 0
M  V30 944 H 87.4131 7.4673 2.23639 0
M  V30 945 N 91.6422 0.330177 1.54103 0
M  V30 946 C 92.8722 -0.271784 2.04805 0
M  V30 947 C 93.2802 -1.45816 1.20559 0
M  V30 948 O 92.6232 -1.82247 0.2306 0
M  V30 949 C 92.6852 -0.763238 3.51305 0
M  V30 950 C 92.3492 0.301705 4.56003 0
M  V30 951 C 93.3462 1.13999 5.07248 0
M  V30 952 C 91.0312 0.451793 5.00264 0
M  V30 953 C 93.0252 2.11402 6.01322 0
M  V30 954 C 90.7122 1.42924 5.94151 0
M  V30 955 C 91.7102 2.25882 6.44567 0
M  V30 956 O 91.3982 3.21965 7.3661 0
M  V30 957 H 91.1302 -0.058693 0.673447 0
M  V30 958 H 93.6842 0.476395 1.99799 0
M  V30 959 H 91.9142 -1.56244 3.5373 0
M  V30 960 H 93.6032 -1.28427 3.85047 0
M  V30 961 H 94.3692 1.03505 4.73827 0
M  V30 962 H 90.2482 -0.184044 4.60632 0
M  V30 963 H 93.7922 2.76192 6.40596 0
M  V30 964 H 89.6892 1.53479 6.26988 0
M  V30 965 H 90.4572 3.17281 7.54503 0
M  V30 966 N 93.1203 -1.57491 0.0584922 0
M  V30 967 C 94.0503 -2.14988 -0.911178 0
M  V30 968 C 95.0313 -1.07343 -1.31952 0
M  V30 969 O 96.2163 -1.35318 -1.39294 0
M  V30 970 C 93.3463 -2.70078 -2.18347 0
M  V30 971 C 92.3003 -3.82771 -1.91495 0
M  V30 972 C 91.6263 -4.24408 -3.25241 0
M  V30 973 C 92.9263 -5.07592 -1.23075 0
M  V30 974 H 94.6203 -2.96263 -0.432246 0
M  V30 975 H 92.1663 -1.42512 -0.206469 0
M  V30 976 H 94.1193 -3.08943 -2.86587 0
M  V30 977 H 92.8433 -1.86005 -2.68458 0
M  V30 978 H 91.5023 -3.44389 -1.25664 0
M  V30 979 H 91.1503 -3.37275 -3.73168 0
M  V30 980 H 90.8503 -5.00366 -3.08071 0
M  V30 981 H 92.3743 -4.65879 -3.94701 0
M  V30 982 H 93.7883 -5.43857 -1.81362 0
M  V30 983 H 92.1853 -5.88741 -1.16207 0
M  V30 984 H 93.2553 -4.84454 -0.207847 0
M  V30 985 N 94.5984 0.214957 -1.56127 0
M  V30 986 C 96.0094 0.781386 -1.69562 0
M  V30 987 C 96.3604 1.84707 -0.66165 0
M  V30 988 O 95.4854 2.156 0.185927 0
M  V30 989 C 96.0804 1.42411 -3.07416 0
M  V30 990 C 94.6394 1.93786 -3.22683 0
M  V30 991 C 93.7864 0.800438 -2.65496 0
M  V30 992 H 96.7374 -0.00980633 -1.58697 0
M  V30 993 H 96.7584 2.29309 -3.0364 0
M  V30 994 H 96.2704 0.64826 -3.82648 0
M  V30 995 H 94.3714 2.74152 -2.52332 0
M  V30 996 H 94.4844 2.1133 -4.29973 0
M  V30 997 H 92.8484 1.2095 -2.2415 0
M  V30 998 H 93.6314 0.0371471 -3.4328 0
M  V30 999 N 96.0765 1.50051 0.48192 0
M  V30 1000 C 97.3245 1.60181 1.23234 0
M  V30 1001 C 97.6455 0.299176 1.92691 0
M  V30 1002 O 96.9155 -0.682708 1.83619 0
M  V30 1003 H 95.4955 0.590232 0.457859 0
M  V30 1004 H 98.1575 1.86775 0.556881 0
M  V30 1005 H 97.2535 2.40753 1.98607 0
M  V30 1006 N 97.5546 -0.734337 1.39446 0
M  V30 1007 C 98.5046 -1.83949 1.34709 0
M  V30 1008 C 99.4886 -1.59279 0.227851 0
M  V30 1009 O 100.681 -1.70771 0.465438 0
M  V30 1010 C 97.8096 -3.21884 1.19356 0
M  V30 1011 C 96.8956 -3.52381 2.35984 0
M  V30 1012 N 97.2866 -3.53811 3.61457 0
M  V30 1013 C 95.5846 -3.82747 2.28956 0
M  V30 1014 C 96.2856 -3.82122 4.38586 0
M  V30 1015 N 95.2616 -3.9993 3.68181 0
M  V30 1016 H 99.0636 -1.83361 2.29687 0
M  V30 1017 H 96.5776 -0.932609 1.32952 0
M  V30 1018 H 98.5746 -4.00998 1.14046 0
M  V30 1019 H 97.2346 -3.23711 0.253295 0
M  V30 1020 H 98.2456 -3.35107 3.94872 0
M  V30 1021 H 94.9226 -3.92175 1.43194 0
M  V30 1022 H 96.3126 -3.89691 5.47349 0
M  V30 1023 N 99.0327 -1.24633 -0.964593 0
M  V30 1024 C 99.9797 -1.04144 -2.05968 0
M  V30 1025 C 100.95 0.046262 -1.66036 0
M  V30 1026 O 102.135 -0.108972 -1.90489 0
M  V30 1027 C 99.2747 -0.65563 -3.38815 0
M  V30 1028 C 98.3877 -1.81714 -3.91923 0
M  V30 1029 C 97.5227 -1.37662 -5.13052 0
M  V30 1030 C 96.5617 -2.50788 -5.58365 0
M  V30 1031 N 95.6987 -2.07582 -6.70712 0
M  V30 1032 H 100.539 -1.9787 -2.22827 0
M  V30 1033 H 98.0757 -0.9855 -1.09208 0
M  V30 1034 H 100.034 -0.412954 -4.15151 0
M  V30 1035 H 98.6637 0.244627 -3.21872 0
M  V30 1036 H 97.7157 -2.1734 -3.12198 0
M  V30 1037 H 99.0277 -2.66705 -4.21509 0
M  V30 1038 H 98.1817 -1.093 -5.96773 0
M  V30 1039 H 96.9207 -0.497293 -4.85158 0
M  V30 1040 H 95.9257 -2.79906 -4.73215 0
M  V30 1041 H 97.1507 -3.39283 -5.88272 0
M  V30 1042 H 95.0967 -1.22051 -6.44546 0
M  V30 1043 H 95.0137 -2.86125 -6.99763 0
M  V30 1044 H 96.2817 -1.82369 -7.57867 0
M  V30 1045 N 100.511 1.16574 -1.06058 0
M  V30 1046 C 101.441 2.23057 -0.690488 0
M  V30 1047 C 102.422 1.67141 0.315901 0
M  V30 1048 O 103.607 1.93253 0.191556 0
M  V30 1049 C 100.737 3.47222 -0.073625 0
M  V30 1050 C 99.6908 4.16016 -1.00573 0
M  V30 1051 C 99.0168 5.34104 -0.252289 0
M  V30 1052 C 100.317 4.67264 -2.33371 0
M  V30 1053 H 102.011 2.54271 -1.58072 0
M  V30 1054 H 99.5568 1.22218 -0.76149 0
M  V30 1055 H 101.51 4.20939 0.19714 0
M  V30 1056 H 100.234 3.15302 0.85161 0
M  V30 1057 H 98.8928 3.44223 -1.2612 0
M  V30 1058 H 98.5408 4.98437 0.675988 0
M  V30 1059 H 98.2408 5.81072 -0.873455 0
M  V30 1060 H 99.7648 6.10599 0.0109857 0
M  V30 1061 H 101.179 5.32573 -2.12223 0
M  V30 1062 H 99.5758 5.24843 -2.90963 0
M  V30 1063 H 100.646 3.83602 -2.96611 0
M  V30 1064 N 101.989 0.842826 1.3317 0
M  V30 1065 C 103.4 0.496651 1.79973 0
M  V30 1066 C 103.751 -0.984641 1.69703 0
M  V30 1067 O 102.876 -1.76743 1.24863 0
M  V30 1068 C 103.471 0.894727 3.26772 0
M  V30 1069 C 102.03 0.600629 3.71577 0
M  V30 1070 C 101.177 1.10091 2.5451 0
M  V30 1071 H 104.128 1.03116 1.20635 0
M  V30 1072 H 104.149 0.206347 3.7994 0
M  V30 1073 H 103.661 1.97287 3.34215 0
M  V30 1074 H 101.762 -0.467284 3.69658 0
M  V30 1075 H 101.875 1.15863 4.64879 0
M  V30 1076 H 100.239 0.52162 2.49301 0
M  V30 1077 H 101.022 2.18591 2.64713 0
M  V30 1078 N 103.467 -1.45747 0.599634 0
M  V30 1079 C 104.878 -1.85853 0.177681 0
M  V30 1080 C 105.229 -1.50102 -1.26348 0
M  V30 1081 O 104.354 -0.923905 -1.95686 0
M  V30 1082 C 104.949 -3.37326 0.315688 0
M  V30 1083 C 103.508 -3.76365 -0.0515144 0
M  V30 1084 C 102.655 -2.69722 0.643822 0
M  V30 1085 H 105.606 -1.36661 0.806814 0
M  V30 1086 H 105.627 -3.77778 -0.454321 0
M  V30 1087 H 105.139 -3.63315 1.36468 0
M  V30 1088 H 103.24 -3.55993 -1.09999 0
M  V30 1089 H 103.353 -4.77916 0.336594 0
M  V30 1090 H 101.717 -2.54567 0.0822881 0
M  V30 1091 H 102.5 -2.98549 1.6948 0
M  V30 1092 N 104.945 -0.338344 -1.53925 0
M  V30 1093 C 105.893 0.536231 -2.26335 0
M  V30 1094 C 106.887 1.1063 -1.28286 0
M  V30 1095 O 108.093 1.05264 -1.46012 0
M  V30 1096 H 104.468 0.191602 -0.727181 0
M  V30 1097 H 106.439 -0.0965747 -2.98244 0
M  V30 1098 C 105.188 1.67803 -3.04528 0
M  V30 1099 H 104.511 1.24864 -3.79801 0
M  V30 1100 H 105.951 2.26526 -3.58416 0
M  V30 1101 C 104.41 2.60439 -2.13712 0
M  V30 1102 O 104.94 3.6255 -1.72975 0
M  V30 1103 N 103.146 2.29006 -1.78898 0
M  V30 1104 H 102.693 1.46011 -2.12223 0
M  V30 1105 H 102.651 2.91248 -1.18416 0
M  V30 1106 N 106.423 1.57458 -0.0668435 0
M  V30 1107 C 107.669 1.93587 0.6043 0
M  V30 1108 C 108.002 0.946722 1.69561 0
M  V30 1109 O 107.277 -0.0248516 1.94484 0
M  V30 1110 C 107.56 3.40014 1.18585 0
M  V30 1111 C 107.413 4.49685 0.101529 0
M  V30 1112 C 108.732 3.87154 2.09284 0
M  V30 1113 H 105.851 0.703958 0.218202 0
M  V30 1114 H 108.493 1.89542 -0.131804 0
M  V30 1115 H 106.643 3.43592 1.81319 0
M  V30 1116 H 108.315 4.5823 -0.531279 0
M  V30 1117 H 106.558 4.30059 -0.568487 0
M  V30 1118 H 107.229 5.49266 0.54874 0
M  V30 1119 H 109.705 3.85551 1.56491 0
M  V30 1120 H 108.581 4.90231 2.46911 0
M  V30 1121 H 108.842 3.2481 2.99918 0
M  V30 1122 N 107.901 -0.206675 1.56239 0
M  V30 1123 C 109.147 -0.930218 1.80208 0
M  V30 1124 C 109.48 -1.83387 0.638981 0
M  V30 1125 O 108.755 -1.91119 -0.361066 0
M  V30 1126 C 109.038 -1.75641 3.1436 0
M  V30 1127 C 108.891 -0.878257 4.41142 0
M  V30 1128 C 110.21 -2.73129 3.45092 0
M  V30 1129 H 107.329 -0.336742 0.655571 0
M  V30 1130 H 109.971 -0.198222 1.88963 0
M  V30 1131 H 108.121 -2.38048 3.07027 0
M  V30 1132 H 109.793 -0.269787 4.6051 0
M  V30 1133 H 108.036 -0.184385 4.33408 0
M  V30 1134 H 108.707 -1.49106 5.3148 0
M  V30 1135 H 111.183 -2.20856 3.52649 0
M  V30 1136 H 110.059 -3.28028 4.40101 0
M  V30 1137 H 110.32 -3.51606 2.68003 0
M  V30 1138 N 109.379 -1.50304 -0.473955 0
M  V30 1139 C 110.342 -1.6841 -1.55469 0
M  V30 1140 C 111.342 -0.554905 -1.50922 0
M  V30 1141 O 112.532 -0.821882 -1.53593 0
M  V30 1142 C 109.664 -1.70667 -2.95102 0
M  V30 1143 H 110.857 -2.64828 -1.40733 0
M  V30 1144 H 108.41 -1.39742 -0.700132 0
M  V30 1145 H 109.145 -0.75932 -3.15285 0
M  V30 1146 H 108.93 -2.52698 -2.9981 0
M  V30 1147 H 110.42 -1.8664 -3.73571 0
M  V30 1148 N 110.857 0.726932 -1.39834 0
M  V30 1149 C 112.103 1.48884 -1.377 0
M  V30 1150 C 112.436 1.94185 0.0244852 0
M  V30 1151 O 111.711 1.67361 0.990986 0
M  V30 1152 C 111.994 2.72288 -2.3565 0
M  V30 1153 C 111.847 2.32956 -3.84775 0
M  V30 1154 C 113.166 3.74414 -2.31306 0
M  V30 1155 H 110.285 0.540062 -0.5015 0
M  V30 1156 H 112.927 0.830547 -1.70886 0
M  V30 1157 H 111.077 3.28457 -2.07481 0
M  V30 1158 H 112.749 1.82356 -4.23726 0
M  V30 1159 H 110.992 1.65088 -4.01159 0
M  V30 1160 H 111.663 3.21362 -4.4881 0
M  V30 1161 H 114.139 3.27849 -2.56231 0
M  V30 1162 H 113.015 4.58414 -3.01907 0
M  V30 1163 H 113.276 4.21909 -1.32081 0
M  V30 1164 N 112.336 1.25143 0.95797 0
M  V30 1165 C 113.747 1.08851 1.51685 0
M  V30 1166 C 114.098 -0.33687 1.93286 0
M  V30 1167 O 113.223 -1.22644 1.7829 0
M  V30 1168 C 113.818 1.96978 2.75654 0
M  V30 1169 C 112.377 1.84881 3.27866 0
M  V30 1170 C 111.524 1.91329 2.0072 0
M  V30 1171 H 114.475 1.38478 0.77522 0
M  V30 1172 H 114.496 1.5078 3.4935 0
M  V30 1173 H 114.008 3.00712 2.45345 0
M  V30 1174 H 112.109 0.840182 3.63004 0
M  V30 1175 H 112.222 2.6951 3.96107 0
M  V30 1176 H 110.586 1.35174 2.15871 0
M  V30 1177 H 111.369 2.96661 1.72764 0
M  V30 1178 N 113.814 -1.1601 1.06675 0
M  V30 1179 C 115.091 -1.82679 0.699114 0
M  V30 1180 C 115.471 -1.94559 -0.819137 0
M  V30 1181 O 114.819 -1.49169 -1.73092 0
M  V30 1182 C 115.029 -3.19445 1.40555 0
M  V30 1183 C 116.377 -3.95171 1.55323 0
M  V30 1184 O 117.401 -3.28976 1.36577 0
M  V30 1185 O 116.26 -5.13833 1.86112 0
M  V30 1186 H 113.354 -0.788954 0.247951 0
M  V30 1187 H 115.9 -1.23179 1.16726 0
M  V30 1188 H 114.672 -3.05856 2.44065 0
M  V30 1189 H 114.295 -3.86625 0.927733 0
M  V30 1190 N 115.292 -0.849877 -1.32721 0
M  V30 1191 C 116.538 -0.451591 -1.97708 0
M  V30 1192 C 116.871 0.989175 -1.6712 0
M  V30 1193 O 116.146 1.69334 -0.956891 0
M  V30 1194 C 116.429 -0.685598 -3.53513 0
M  V30 1195 C 116.282 -2.17444 -3.93749 0
M  V30 1196 C 117.601 -0.138874 -4.39881 0
M  V30 1197 H 114.72 -0.16555 -0.718166 0
M  V30 1198 H 117.362 -1.06742 -1.57182 0
M  V30 1199 H 115.512 -0.161416 -3.88165 0
M  V30 1200 H 117.184 -2.76433 -3.693 0
M  V30 1201 H 115.427 -2.65476 -3.43081 0
M  V30 1202 H 116.098 -2.28888 -5.02309 0
M  V30 1203 H 118.574 -0.587068 -4.11938 0
M  V30 1204 H 117.45 -0.332213 -5.47894 0
M  V30 1205 H 117.711 0.95806 -4.31594 0
M  V30 1206 N 116.77 1.45427 -0.607355 0
M  V30 1207 C 118.016 2.0254 -0.102607 0
M  V30 1208 C 118.349 1.47478 1.26348 0
M  V30 1209 O 117.624 0.64939 1.83339 0
M  V30 1210 C 117.907 3.60044 -0.0634347 0
M  V30 1211 C 117.76 4.2544 -1.46017 0
M  V30 1212 C 119.079 4.35646 0.624514 0
M  V30 1213 H 116.198 0.73598 -0.0387607 0
M  V30 1214 H 118.84 1.73284 -0.779282 0
M  V30 1215 H 116.99 3.85101 0.512808 0
M  V30 1216 H 118.662 4.11569 -2.08347 0
M  V30 1217 H 116.905 3.83849 -2.02094 0
M  V30 1218 H 117.576 5.34342 -1.385 0
M  V30 1219 H 120.052 4.15882 0.134723 0
M  V30 1220 H 118.928 5.45376 0.621028 0
M  V30 1221 H 119.189 4.08501 1.69055 0
M  V30 1222 N 118.248 0.346503 1.53744 0
M  V30 1223 C 119.18 -0.543316 2.22667 0
M  V30 1224 C 120.193 -1.06159 1.23427 0
M  V30 1225 O 121.382 -0.971235 1.49764 0
M  V30 1226 C 118.482 -1.76076 2.89569 0
M  V30 1227 C 117.655 -1.37727 4.15151 0
M  V30 1228 C 116.714 -2.45471 4.65436 0
M  V30 1229 O 115.74 -2.08655 5.29577 0
M  V30 1230 N 116.942 -3.7677 4.41616 0
M  V30 1231 H 119.707 0.0469703 2.99663 0
M  V30 1232 H 117.268 0.170766 1.60997 0
M  V30 1233 H 119.26 -2.47593 3.20125 0
M  V30 1234 H 117.83 -2.25835 2.16142 0
M  V30 1235 H 117.05 -0.492746 3.91108 0
M  V30 1236 H 118.338 -1.09708 4.96832 0
M  V30 1237 H 117.736 -4.09467 3.90325 0
M  V30 1238 H 116.293 -4.44448 4.7677 0
M  V30 1239 N 119.726 -1.57421 0.075193 0
M  V30 1240 C 120.689 -2.11791 -0.876203 0
M  V30 1241 C 121.689 -1.04268 -1.22412 0
M  V30 1242 O 122.879 -1.30242 -1.15684 0
M  V30 1243 C 120.011 -2.62207 -2.17854 0
M  V30 1244 H 121.204 -2.9716 -0.40444 0
M  V30 1245 H 118.757 -1.55333 -0.173557 0
M  V30 1246 H 119.492 -1.803 -2.6956 0
M  V30 1247 H 119.277 -3.40802 -1.93897 0
M  V30 1248 H 120.767 -3.04335 -2.85955 0
M  V30 1249 N 121.204 0.198386 -1.56346 0
M  V30 1250 C 122.167 1.22952 -1.93431 0
M  V30 1251 C 123.167 1.38611 -0.815092 0
M  V30 1252 O 124.357 1.36479 -1.08255 0
M  V30 1253 C 121.489 2.59946 -2.20546 0
M  V30 1254 H 122.682 0.912626 -2.85677 0
M  V30 1255 H 120.235 0.43977 -1.49986 0
M  V30 1256 H 120.97 2.96696 -1.30927 0
M  V30 1257 H 120.755 2.49953 -3.02102 0
M  V30 1258 H 122.245 3.3431 -2.50253 0
M  V30 1259 N 122.682 1.50554 0.465978 0
M  V30 1260 C 123.592 1.72585 1.58907 0
M  V30 1261 C 124.608 0.60911 1.6299 0
M  V30 1262 O 125.784 0.88804 1.80765 0
M  V30 1263 C 122.849 1.81995 2.95091 0
M  V30 1264 C 121.91 3.05751 3.01355 0
M  V30 1265 C 121.143 3.14702 4.31043 0
M  V30 1266 O 121.366 2.30313 5.21835 0
M  V30 1267 O 120.3 4.07468 4.43005 0
M  V30 1268 H 124.126 2.67799 1.43239 0
M  V30 1269 H 121.711 1.34711 0.646013 0
M  V30 1270 H 123.593 1.90335 3.75966 0
M  V30 1271 H 122.268 0.899659 3.10947 0
M  V30 1272 H 121.175 3.02908 2.19539 0
M  V30 1273 H 122.508 3.97375 2.90437 0
M  V30 1274 N 124.16 -0.719506 1.40217 0
M  V30 1275 C 125.437 -1.47221 1.28784 0
M  V30 1276 C 125.817 -2.10883 -0.0956067 0
M  V30 1277 O 125.165 -1.99833 -1.10811 0
M  V30 1278 C 125.375 -2.5111 2.42373 0
M  V30 1279 C 126.723 -3.17053 2.82423 0
M  V30 1280 O 127.747 -2.61429 2.41937 0
M  V30 1281 O 126.606 -4.17742 3.52355 0
M  V30 1282 H 123.7 -0.654491 0.50554 0
M  V30 1283 H 126.246 -0.752014 1.52128 0
M  V30 1284 H 125.018 -2.02556 3.34793 0
M  V30 1285 H 124.641 -3.3067 2.20778 0
M  V30 1286 N 125.638 -1.25649 -0.95132 0
M  V30 1287 C 126.601 -1.06399 -2.03007 0
M  V30 1288 C 127.601 -0.0156794 -1.60792 0
M  V30 1289 O 128.791 -0.25817 -1.72276 0
M  V30 1290 C 125.923 -0.616184 -3.35285 0
M  V30 1291 H 127.116 -2.02164 -2.21517 0
M  V30 1292 H 124.669 -1.08103 -1.12887 0
M  V30 1293 H 125.404 0.343917 -3.22471 0
M  V30 1294 H 125.189 -1.37301 -3.67275 0
M  V30 1295 H 126.679 -0.503032 -4.14559 0
M  V30 1296 N 127.117 1.15442 -1.07289 0
M  V30 1297 C 128.394 1.82306 -0.708792 0
M  V30 1298 C 128.774 1.94991 0.808807 0
M  V30 1299 O 128.122 1.50085 1.72298 0
M  V30 1300 C 128.332 3.18695 -1.42247 0
M  V30 1301 C 129.68 3.94341 -1.57417 0
M  V30 1302 O 130.704 3.28247 -1.38319 0
M  V30 1303 O 129.563 5.12839 -1.88834 0
M  V30 1304 H 126.657 0.787628 -0.252132 0
M  V30 1305 H 129.203 1.22559 -1.17377 0
M  V30 1306 H 127.975 3.04557 -2.45684 0
M  V30 1307 H 127.598 3.86128 -0.948223 0
M  V30 1308 N 128.595 0.856903 1.32268 0
M  V30 1309 C 129.844 0.457599 1.96441 0
M  V30 1310 C 130.157 -0.992426 1.68553 0
M  V30 1311 O 131.363 -1.49727 2.26482 0
M  V30 1312 C 129.819 0.767358 3.51624 0
M  V30 1313 C 129.427 2.23326 3.88367 0
M  V30 1314 C 131.171 0.435887 4.22256 0
M  V30 1315 C 129.078 2.48613 5.36606 0
M  V30 1316 H 128.008 0.167387 0.735185 0
M  V30 1317 H 130.659 1.048 1.5063 0
M  V30 1318 H 129.041 0.106367 3.95857 0
M  V30 1319 H 130.215 2.93623 3.55137 0
M  V30 1320 H 128.53 2.52948 3.30766 0
M  V30 1321 H 131.127 0.602202 5.31298 0
M  V30 1322 H 131.47 -0.622672 4.11617 0
M  V30 1323 H 132.003 1.05286 3.83614 0
M  V30 1324 H 128.742 3.53101 5.52268 0
M  V30 1325 H 128.262 1.82896 5.71235 0
M  V30 1326 H 129.941 2.32676 6.03714 0
M  V30 1327 N 130.073 -1.45103 0.615059 0
M  V30 1328 C 131.003 -2.33339 -0.0865619 0
M  V30 1329 C 131.984 -1.4727 -0.851209 0
M  V30 1330 O 133.169 -1.76026 -0.820281 0
M  V30 1331 C 130.299 -3.30095 -1.07956 0
M  V30 1332 C 129.253 -4.25858 -0.427628 0
M  V30 1333 C 128.579 -5.12361 -1.5294 0
M  V30 1334 C 129.879 -5.18165 0.655944 0
M  V30 1335 H 131.573 -2.92254 0.650224 0
M  V30 1336 H 129.119 -1.40532 0.314138 0
M  V30 1337 H 131.072 -3.90698 -1.57901 0
M  V30 1338 H 129.796 -2.69355 -1.84703 0
M  V30 1339 H 128.455 -3.66564 0.0510292 0
M  V30 1340 H 128.103 -4.47984 -2.28734 0
M  V30 1341 H 127.803 -5.77238 -1.09865 0
M  V30 1342 H 129.327 -5.75833 -2.03098 0
M  V30 1343 H 130.741 -5.72796 0.240257 0
M  V30 1344 H 129.138 -5.91559 1.00888 0
M  V30 1345 H 130.208 -4.60144 1.52957 0
M  V30 1346 N 131.551 -0.354651 -1.53558 0
M  V30 1347 C 132.8 0.239504 -2.00273 0
M  V30 1348 C 133.113 1.50759 -1.24623 0
M  V30 1349 O 134.319 2.17968 -1.61871 0
M  V30 1350 C 132.775 0.477341 -3.5672 0
M  V30 1351 C 132.383 -0.775488 -4.41237 0
M  V30 1352 C 134.127 1.02975 -4.11821 0
M  V30 1353 C 132.034 -0.507838 -5.89216 0
M  V30 1354 H 130.964 0.0932743 -0.748208 0
M  V30 1355 H 133.615 -0.471701 -1.77334 0
M  V30 1356 H 131.997 1.24953 -3.7577 0
M  V30 1357 H 133.171 -1.54963 -4.33962 0
M  V30 1358 H 131.486 -1.25033 -3.97185 0
M  V30 1359 H 134.083 1.24513 -5.2 0
M  V30 1360 H 134.426 1.98862 -3.65731 0
M  V30 1361 H 134.959 0.317994 -3.96527 0
M  V30 1362 H 131.698 -1.43674 -6.39561 0
M  V30 1363 H 131.218 0.228011 -5.99366 0
M  V30 1364 H 132.897 -0.129238 -6.46871 0
M  V30 1365 N 133.029 1.57378 -0.0835403 0
M  V30 1366 C 134.276 1.9393 0.58287 0
M  V30 1367 C 134.604 0.964455 1.68904 0
M  V30 1368 O 133.859 -0.0179474 1.95692 0
M  V30 1369 C 134.158 3.37063 1.1884 0
M  V30 1370 C 133.824 4.50424 0.207194 0
M  V30 1371 C 132.486 4.81159 -0.0627115 0
M  V30 1372 C 134.838 5.19136 -0.463426 0
M  V30 1373 C 132.166 5.77939 -1.01012 0
M  V30 1374 C 134.518 6.16931 -1.39924 0
M  V30 1375 C 133.182 6.46078 -1.67749 0
M  V30 1376 H 132.452 0.70964 0.213287 0
M  V30 1377 H 135.099 1.90856 -0.156916 0
M  V30 1378 H 133.404 3.3666 2.00418 0
M  V30 1379 H 135.101 3.6264 1.71153 0
M  V30 1380 H 131.691 4.2646 0.427747 0
M  V30 1381 H 135.875 4.95576 -0.268034 0
M  V30 1382 H 131.131 5.98842 -1.23283 0
M  V30 1383 H 135.305 6.69273 -1.92476 0
M  V30 1384 H 132.932 7.2088 -2.41321 0
M  V30 1385 N 134.507 -0.190092 1.56449 0
M  V30 1386 C 135.753 -0.911052 1.81184 0
M  V30 1387 C 136.086 -1.82699 0.658396 0
M  V30 1388 O 135.361 -1.91491 -0.340775 0
M  V30 1389 C 135.644 -1.72297 3.16205 0
M  V30 1390 C 135.497 -0.831419 4.42049 0
M  V30 1391 C 136.816 -2.69454 3.47969 0
M  V30 1392 H 133.935 -0.32977 0.659106 0
M  V30 1393 H 136.577 -0.178169 1.89163 0
M  V30 1394 H 134.727 -2.34778 3.09534 0
M  V30 1395 H 136.399 -0.220929 4.60771 0
M  V30 1396 H 134.642 -0.138406 4.33579 0
M  V30 1397 H 135.313 -1.43461 5.33032 0
M  V30 1398 H 137.789 -2.17104 3.54972 0
M  V30 1399 H 136.665 -3.23342 4.43555 0
M  V30 1400 H 136.926 -3.48744 2.71717 0
M  V30 1401 N 135.985 -1.50799 -0.457987 0
M  V30 1402 C 137.231 -1.62683 -1.21088 0
M  V30 1403 C 137.564 -0.332268 -1.91336 0
M  V30 1404 O 136.839 0.667043 -1.82704 0
M  V30 1405 C 137.122 -2.81615 -2.24422 0
M  V30 1406 C 136.975 -4.20989 -1.58392 0
M  V30 1407 C 138.294 -2.96085 -3.2561 0
M  V30 1408 H 135.413 -0.592087 -0.438864 0
M  V30 1409 H 138.055 -1.83225 -0.50286 0
M  V30 1410 H 136.205 -2.64231 -2.84806 0
M  V30 1411 H 137.877 -4.49994 -1.01504 0
M  V30 1412 H 136.12 -4.24641 -0.886704 0
M  V30 1413 H 136.791 -5.0016 -2.33547 0
M  V30 1414 H 139.267 -3.12042 -2.75262 0
M  V30 1415 H 138.143 -3.80902 -3.95228 0
M  V30 1416 H 138.404 -2.0726 -3.90507 0
M  V30 1417 N 137.463 0.71206 -1.40597 0
M  V30 1418 C 138.874 1.29135 -1.34837 0
M  V30 1419 C 139.225 1.96186 -0.0235395 0
M  V30 1420 O 138.35 1.97768 0.878444 0
M  V30 1421 C 138.945 2.34827 -2.44217 0
M  V30 1422 C 137.504 2.88371 -2.41907 0
M  V30 1423 C 136.651 1.62202 -2.24913 0
M  V30 1424 H 139.602 0.507944 -1.50352 0
M  V30 1425 H 139.623 3.15749 -2.12327 0
M  V30 1426 H 139.135 1.85996 -3.40627 0
M  V30 1427 H 137.236 3.41422 -1.49204 0
M  V30 1428 H 137.349 3.39925 -3.37621 0
M  V30 1429 H 135.713 1.874 -1.72492 0
M  V30 1430 H 136.496 1.15391 -3.23326 0
M  V30 1431 N 138.941 1.26152 0.944643 0
M  V30 1432 C 139.891 1.04081 2.02857 0
M  V30 1433 C 140.875 -0.0256555 1.6088 0
M  V30 1434 O 142.067 0.190884 1.75968 0
M  V30 1435 C 139.196 0.672118 3.36656 0
M  V30 1436 C 138.282 1.77586 3.85128 0
M  V30 1437 N 138.673 3.01272 4.06287 0
M  V30 1438 C 136.971 1.65867 4.1401 0
M  V30 1439 C 137.672 3.72983 4.46384 0
M  V30 1440 N 136.648 3.00653 4.52889 0
M  V30 1441 H 140.45 1.97968 2.17223 0
M  V30 1442 H 137.964 1.16618 1.13022 0
M  V30 1443 H 139.961 0.495166 4.13949 0
M  V30 1444 H 138.621 -0.259307 3.23663 0
M  V30 1445 H 139.632 3.37213 3.93075 0
M  V30 1446 H 136.309 0.796907 4.09824 0
M  V30 1447 H 137.699 4.792 4.70975 0
M  V30 1448 N 140.419 -1.14872 1.07899 0
M  V30 1449 C 141.351 -2.19425 0.662231 0
M  V30 1450 C 142.364 -1.60231 -0.288079 0
M  V30 1451 O 143.553 -1.78336 -0.076534 0
M  V30 1452 C 140.653 -3.38867 -0.0470695 0
M  V30 1453 C 139.826 -4.27597 0.920831 0
M  V30 1454 C 138.885 -5.25616 0.247805 0
M  V30 1455 O 137.911 -5.62189 0.890599 0
M  V30 1456 N 139.113 -5.71746 -1.00435 0
M  V30 1457 H 141.878 -2.55797 1.56166 0
M  V30 1458 H 139.439 -1.30042 0.964404 0
M  V30 1459 H 141.431 -4.01497 -0.50813 0
M  V30 1460 H 140.001 -3.00864 -0.848523 0
M  V30 1461 H 139.221 -3.61982 1.56087 0
M  V30 1462 H 140.509 -4.83748 1.57688 0
M  V30 1463 H 139.907 -5.44153 -1.54642 0
M  V30 1464 H 138.464 -6.36389 -1.40899 0
M  V30 1465 N 141.898 -0.863906 -1.31812 0
M  V30 1466 C 143.145 -0.471836 -1.96926 0
M  V30 1467 C 143.473 0.974578 -1.68322 0
M  V30 1468 O 142.728 1.7003 -0.968933 0
M  V30 1469 C 143.027 -0.668547 -3.51091 0
M  V30 1470 C 142.693 -2.08683 -3.99703 0
M  V30 1471 C 141.355 -2.47471 -4.12688 0
M  V30 1472 C 143.707 -3.01207 -4.25351 0
M  V30 1473 C 141.035 -3.78037 -4.4867 0
M  V30 1474 C 143.387 -4.31282 -4.62794 0
M  V30 1475 C 142.051 -4.69992 -4.73987 0
M  V30 1476 H 141.321 -0.172657 -0.720604 0
M  V30 1477 H 143.968 -1.09573 -1.57054 0
M  V30 1478 H 142.273 0.0385252 -3.91781 0
M  V30 1479 H 143.97 -0.345102 -3.99512 0
M  V30 1480 H 140.56 -1.77566 -3.90087 0
M  V30 1481 H 144.744 -2.72469 -4.14819 0
M  V30 1482 H 140 -4.078 -4.55532 0
M  V30 1483 H 144.174 -5.03031 -4.81594 0
M  V30 1484 H 141.801 -5.71207 -5.01624 0
M  V30 1485 N 143.376 1.44774 -0.622745 0
M  V30 1486 C 144.625 2.01334 -0.121397 0
M  V30 1487 C 144.938 1.49505 1.26125 0
M  V30 1488 O 146.144 1.98139 1.85616 0
M  V30 1489 C 144.6 3.59516 -0.166298 0
M  V30 1490 C 144.208 4.20342 -1.54974 0
M  V30 1491 C 145.952 4.23582 0.279021 0
M  V30 1492 C 143.859 5.70721 -1.55021 0
M  V30 1493 H 142.789 0.752851 -0.0416172 0
M  V30 1494 H 145.44 1.66083 -0.780309 0
M  V30 1495 H 143.822 3.92027 0.559557 0
M  V30 1496 H 144.996 3.99381 -2.29851 0
M  V30 1497 H 143.311 3.68529 -1.93843 0
M  V30 1498 H 145.908 5.33868 0.298083 0
M  V30 1499 H 146.251 3.95327 1.30471 0
M  V30 1500 H 146.784 3.95843 -0.394063 0
M  V30 1501 H 143.523 6.03698 -2.55399 0
M  V30 1502 H 143.043 5.93829 -0.844245 0
M  V30 1503 H 144.722 6.34203 -1.28047 0
M  V30 1504 N 144.854 0.36279 1.53368 0
M  V30 1505 C 146.102 -0.227326 2.00817 0
M  V30 1506 C 146.423 -1.49511 1.25186 0
M  V30 1507 O 145.693 -1.92482 0.364348 0
M  V30 1508 H 144.273 -0.0869923 0.741917 0
M  V30 1509 H 146.935 0.488381 1.88682 0
M  V30 1510 H 146.031 -0.456273 3.08747 0
M  V30 1511 N 146.332 -1.57332 0.0918853 0
M  V30 1512 C 147.279 -2.13847 -0.868211 0
M  V30 1513 C 148.249 -1.05618 -1.28196 0
M  V30 1514 O 149.434 -1.33387 -1.36427 0
M  V30 1515 C 146.574 -2.72062 -2.12312 0
M  V30 1516 C 145.687 -3.94514 -1.7602 0
M  V30 1517 C 144.822 -4.40903 -2.96273 0
M  V30 1518 C 143.861 -5.55953 -2.56092 0
M  V30 1519 N 142.998 -5.97209 -3.69169 0
M  V30 1520 H 147.838 -2.95575 -0.379406 0
M  V30 1521 H 145.375 -1.46048 -0.175606 0
M  V30 1522 H 147.333 -3.03931 -2.858 0
M  V30 1523 H 145.963 -1.93068 -2.58698 0
M  V30 1524 H 145.015 -3.68979 -0.925135 0
M  V30 1525 H 146.327 -4.7802 -1.42472 0
M  V30 1526 H 145.481 -4.74539 -3.78018 0
M  V30 1527 H 144.22 -3.56291 -3.33029 0
M  V30 1528 H 143.225 -5.21948 -1.72773 0
M  V30 1529 H 144.45 -6.42311 -2.20484 0
M  V30 1530 H 142.396 -5.15543 -4.05649 0
M  V30 1531 H 142.313 -6.75504 -3.39456 0
M  V30 1532 H 143.581 -6.35475 -4.51434 0
M  V30 1533 N 147.81 0.181792 -1.56548 0
M  V30 1534 C 149.059 0.898348 -1.8059 0
M  V30 1535 C 149.372 1.83862 -0.667379 0
M  V30 1536 O 150.578 2.59678 -0.792446 0
M  V30 1537 C 149.034 1.64791 -3.19956 0
M  V30 1538 C 148.642 0.751789 -4.41647 0
M  V30 1539 C 150.386 2.35331 -3.53298 0
M  V30 1540 C 148.293 1.50098 -5.72035 0
M  V30 1541 H 147.223 0.339194 -0.673397 0
M  V30 1542 H 149.874 0.151413 -1.82874 0
M  V30 1543 H 148.256 2.43921 -3.11959 0
M  V30 1544 H 149.43 -0.0018076 -4.608 0
M  V30 1545 H 147.745 0.156562 -4.16106 0
M  V30 1546 H 150.342 2.91958 -4.47956 0
M  V30 1547 H 150.685 3.10164 -2.77676 0
M  V30 1548 H 151.218 1.63154 -3.62803 0
M  V30 1549 H 147.957 0.795175 -6.50659 0
M  V30 1550 H 147.477 2.22817 -5.56878 0
M  V30 1551 H 149.156 2.05125 -6.13622 0
M  V30 1552 N 149.288 1.51039 0.449983 0
M  V30 1553 C 150.528 1.64732 1.21007 0
M  V30 1554 C 150.892 0.349865 1.88785 0
M  V30 1555 O 152.093 0.362431 2.66345 0
M  V30 1556 C 150.364 2.80902 2.20973 0
M  V30 1557 S 151.923 3.14851 3.05638 0
M  V30 1558 H 148.741 0.5805 0.410538 0
M  V30 1559 H 151.343 1.88901 0.503634 0
M  V30 1560 H 150.047 3.73627 1.69796 0
M  V30 1561 H 149.578 2.58882 2.96215 0
M  V30 1562 H 151.593 2.60306 4.22439 0
M  V30 1563 N 150.766 -0.704594 1.40972 0
M  V30 1564 C 152.043 -1.45847 1.30338 0
M  V30 1565 C 152.423 -2.10973 -0.0732344 0
M  V30 1566 O 151.771 -2.00997 -1.08685 0
M  V30 1567 C 151.981 -2.48525 2.45023 0
M  V30 1568 C 153.329 -3.1404 2.8577 0
M  V30 1569 O 154.353 -2.58848 2.44696 0
M  V30 1570 O 153.212 -4.13981 3.56766 0
M  V30 1571 H 150.306 -0.649092 0.512454 0
M  V30 1572 H 152.852 -0.735836 1.52917 0
M  V30 1573 H 151.624 -1.98994 3.36923 0
M  V30 1574 H 151.247 -3.2831 2.24272 0
M  V30 1575 N 152.244 -1.26651 -0.937939 0
M  V30 1576 C 153.176 -1.04283 -2.04102 0
M  V30 1577 C 154.189 -0.00221014 -1.628 0
M  V30 1578 O 155.378 -0.242645 -1.76843 0
M  V30 1579 C 152.478 -0.557846 -3.34277 0
M  V30 1580 C 151.651 -1.66843 -4.04329 0
M  V30 1581 C 150.71 -1.18095 -5.12777 0
M  V30 1582 O 149.736 -1.87865 -5.37304 0
M  V30 1583 N 150.938 -0.0311006 -5.80492 0
M  V30 1584 H 153.703 -1.9927 -2.23856 0
M  V30 1585 H 151.264 -1.1808 -1.10764 0
M  V30 1586 H 153.256 -0.215836 -4.04124 0
M  V30 1587 H 151.826 0.298523 -3.11171 0
M  V30 1588 H 151.046 -2.18123 -3.28353 0
M  V30 1589 H 152.334 -2.41408 -4.47883 0
M  V30 1590 H 151.732 0.551486 -5.63005 0
M  V30 1591 H 150.289 0.251809 -6.51313 0
M  V30 1592 N 153.722 1.14298 -1.08507 0
M  V30 1593 C 154.652 2.21542 -0.737646 0
M  V30 1594 C 155.633 1.67773 0.280377 0
M  V30 1595 O 156.818 1.93616 0.150521 0
M  V30 1596 C 153.948 3.46988 -0.147259 0
M  V30 1597 C 152.902 4.13789 -1.09374 0
M  V30 1598 C 152.228 5.33449 -0.365524 0
M  V30 1599 C 153.528 4.62208 -2.4323 0
M  V30 1600 H 155.222 2.5086 -1.6343 0
M  V30 1601 H 152.768 1.20576 -0.787243 0
M  V30 1602 H 154.721 4.21262 0.107808 0
M  V30 1603 H 153.445 3.17037 0.784538 0
M  V30 1604 H 152.104 3.4147 -1.33393 0
M  V30 1605 H 151.752 4.99759 0.57011 0
M  V30 1606 H 151.452 5.79088 -0.996512 0
M  V30 1607 H 152.976 6.10485 -0.118534 0
M  V30 1608 H 154.39 5.27952 -2.23472 0
M  V30 1609 H 152.787 5.18553 -3.02031 0
M  V30 1610 H 153.857 3.77224 -3.04681 0
M  V30 1611 N 155.201 0.870884 1.31352 0
M  V30 1612 C 156.148 0.325425 2.28494 0
M  V30 1613 C 157.118 -0.576615 1.5577 0
M  V30 1614 O 158.303 -0.508059 1.83911 0
M  V30 1615 C 155.443 -0.466283 3.41935 0
M  V30 1616 C 154.556 0.463378 4.29508 0
M  V30 1617 C 153.691 -0.342544 5.30094 0
M  V30 1618 C 152.73 0.583486 6.09313 0
M  V30 1619 N 151.867 -0.186244 7.01853 0
M  V30 1620 H 156.707 1.15901 2.74538 0
M  V30 1621 H 154.244 0.58294 1.35056 0
M  V30 1622 H 156.202 -0.941085 4.06447 0
M  V30 1623 H 154.832 -1.26456 2.97 0
M  V30 1624 H 153.884 1.05663 3.65431 0
M  V30 1625 H 155.196 1.1734 4.84802 0
M  V30 1626 H 154.35 -0.879816 6.00287 0
M  V30 1627 H 153.089 -1.08585 4.75458 0
M  V30 1628 H 152.094 1.13251 5.3801 0
M  V30 1629 H 153.319 1.32566 6.66035 0
M  V30 1630 H 151.265 -0.912348 6.49625 0
M  V30 1631 H 151.182 0.464422 7.54572 0
M  V30 1632 H 152.45 -0.704716 7.76308 0
M  V30 1633 N 156.679 -1.44442 0.630414 0
M  V30 1634 C 157.927 -2.01653 0.134351 0
M  V30 1635 C 158.248 -1.49836 -1.24796 0
M  V30 1636 O 157.518 -0.701684 -1.82902 0
M  V30 1637 H 156.098 -0.74554 0.0466769 0
M  V30 1638 H 158.76 -1.76952 0.816955 0
M  V30 1639 H 157.856 -3.11935 0.101498 0
M  V30 1640 N 158.157 -0.370918 -1.53173 0
M  V30 1641 C 159.107 0.489588 -2.22681 0
M  V30 1642 C 160.091 1.04442 -1.22395 0
M  V30 1643 O 161.283 0.973578 -1.47819 0
M  V30 1644 C 158.412 1.626 -3.02351 0
M  V30 1645 C 157.498 1.08379 -4.10018 0
M  V30 1646 N 157.889 0.265004 -5.05105 0
M  V30 1647 C 156.187 1.35809 -4.2482 0
M  V30 1648 C 156.888 -0.0324755 -5.81691 0
M  V30 1649 N 155.864 0.566581 -5.40639 0
M  V30 1650 H 159.666 -0.142729 -2.93553 0
M  V30 1651 H 157.18 -0.179221 -1.61408 0
M  V30 1652 H 159.177 2.2547 -3.50669 0
M  V30 1653 H 157.837 2.26132 -2.33011 0
M  V30 1654 H 158.848 -0.0962352 -5.17811 0
M  V30 1655 H 155.525 1.9958 -3.66707 0
M  V30 1656 H 156.915 -0.69473 -6.68299 0
M  V30 1657 N 159.635 1.57281 -0.100228 0
M  V30 1658 C 160.565 2.17328 0.853857 0
M  V30 1659 C 161.546 1.10804 1.2906 0
M  V30 1660 O 162.731 1.38963 1.35657 0
M  V30 1661 C 159.861 2.75772 2.11109 0
M  V30 1662 C 158.815 3.87713 1.81279 0
M  V30 1663 C 158.141 4.32882 3.13874 0
M  V30 1664 C 159.441 5.10677 1.09574 0
M  V30 1665 H 161.135 2.97305 0.353545 0
M  V30 1666 H 158.681 1.43009 0.168612 0
M  V30 1667 H 160.634 3.16433 2.78296 0
M  V30 1668 H 159.358 1.93057 2.63432 0
M  V30 1669 H 158.017 3.476 1.16489 0
M  V30 1670 H 157.665 3.47051 3.64095 0
M  V30 1671 H 157.365 5.08358 2.94696 0
M  V30 1672 H 158.889 4.7618 3.82211 0
M  V30 1673 H 160.303 5.48474 1.66879 0
M  V30 1674 H 158.7 5.91615 1.00557 0
M  V30 1675 H 159.77 4.84835 0.0793299 0
M  V30 1676 N 161.113 -0.173488 1.56642 0
M  V30 1677 C 162.06 -1.21482 1.96242 0
M  V30 1678 C 163.03 -1.44104 0.826027 0
M  V30 1679 O 164.215 -1.5688 1.08597 0
M  V30 1680 C 161.355 -2.54964 2.32567 0
M  V30 1681 C 160.468 -2.39739 3.59373 0
M  V30 1682 C 159.603 -3.66072 3.84921 0
M  V30 1683 C 158.642 -3.45771 5.05083 0
M  V30 1684 N 157.779 -4.64169 5.26775 0
M  V30 1685 H 162.619 -0.870123 2.85014 0
M  V30 1686 H 160.156 -0.418245 1.41029 0
M  V30 1687 H 162.114 -3.32758 2.5165 0
M  V30 1688 H 160.744 -2.87433 1.46908 0
M  V30 1689 H 159.796 -1.53131 3.48217 0
M  V30 1690 H 161.108 -2.20683 4.47326 0
M  V30 1691 H 160.262 -4.52303 4.0436 0
M  V30 1692 H 159.001 -3.88105 2.9534 0
M  V30 1693 H 158.006 -2.57927 4.85545 0
M  V30 1694 H 159.231 -3.25163 5.96193 0
M  V30 1695 H 157.177 -4.86425 4.40144 0
M  V30 1696 H 157.094 -4.48019 6.08946 0
M  V30 1697 H 158.362 -5.51689 5.5069 0
M  V30 1698 N 162.591 -1.51276 -0.441967 0
M  V30 1699 C 163.554 -1.7167 -1.51862 0
M  V30 1700 C 164.554 -0.586793 -1.49711 0
M  V30 1701 O 165.744 -0.854276 -1.51815 0
M  V30 1702 C 162.876 -1.76889 -2.91416 0
M  V30 1703 H 164.069 -2.67754 -1.35084 0
M  V30 1704 H 161.622 -1.41196 -0.670333 0
M  V30 1705 H 162.357 -0.826026 -3.13604 0
M  V30 1706 H 162.142 -2.59001 -2.94382 0
M  V30 1707 H 163.632 -1.94522 -3.69528 0
M  V30 1708 N 164.069 0.697108 -1.41344 0
M  V30 1709 C 165.017 1.83237 -1.43272 0
M  V30 1710 C 166.011 1.66522 -0.310947 0
M  V30 1711 O 167.217 1.73402 -0.482899 0
M  V30 1712 H 163.592 0.603802 -0.448249 0
M  V30 1713 H 165.563 1.78727 -2.38954 0
M  V30 1714 C 164.312 3.21245 -1.33029 0
M  V30 1715 H 163.635 3.34723 -2.18633 0
M  V30 1716 H 165.075 4.00763 -1.38439 0
M  V30 1717 C 163.534 3.36873 -0.0424635 0
M  V30 1718 O 164.064 3.91177 0.913421 0
M  V30 1719 N 162.27 2.90581 0.0331145 0
M  V30 1720 H 161.817 2.46577 -0.745506 0
M  V30 1721 H 161.775 3.01416 0.894199 0
M  V30 1722 N 165.547 1.27147 0.931209 0
M  V30 1723 C 166.51 1.09615 2.01289 0
M  V30 1724 C 167.51 0.0412581 1.60747 0
M  V30 1725 O 168.7 0.285545 1.71844 0
M  V30 1726 C 165.832 0.669447 3.34262 0
M  V30 1727 H 167.025 2.05662 2.18273 0
M  V30 1728 H 164.578 1.09885 1.11153 0
M  V30 1729 H 165.313 -0.292572 3.22978 0
M  V30 1730 H 165.098 1.43127 3.65044 0
M  V30 1731 H 166.588 0.568921 4.13706 0
M  V30 1732 N 167.025 -1.13721 1.09112 0
M  V30 1733 C 168.253 -1.88773 0.846899 0
M  V30 1734 C 168.668 -1.7896 -0.601572 0
M  V30 1735 O 168.025 -1.15394 -1.41388 0
M  V30 1736 C 168.076 -3.3849 1.26913 0
M  V30 1737 O 167.797 -3.48043 2.66079 0
M  V30 1738 C 169.298 -4.30518 1.05682 0
M  V30 1739 H 166.518 -0.59772 0.304914 0
M  V30 1740 H 169.062 -1.43977 1.45227 0
M  V30 1741 H 167.217 -3.80881 0.707723 0
M  V30 1742 H 167.631 -4.4109 2.83795 0
M  V30 1743 H 169.105 -5.3391 1.40156 0
M  V30 1744 H 169.582 -4.392 -0.00563416 0
M  V30 1745 H 170.188 -3.93893 1.60402 0
M  V30 1746 N 168.503 -0.877838 -1.30888 0
M  V30 1747 C 169.751 -0.491723 -1.96027 0
M  V30 1748 C 170.072 0.960827 -1.69685 0
M  V30 1749 O 169.342 1.67462 -1.01654 0
M  V30 1750 H 167.922 -0.17885 -0.725273 0
M  V30 1751 H 170.584 -1.11935 -1.59551 0
M  V30 1752 H 169.68 -0.656016 -3.05128 0
M  V30 1753 N 169.982 1.44106 -0.638065 0
M  V30 1754 C 171.231 2.01194 -0.142744 0
M  V30 1755 C 171.544 1.50835 1.24532 0
M  V30 1756 O 172.75 2.00096 1.83504 0
M  V30 1757 C 171.206 3.59319 -0.20442 0
M  V30 1758 C 170.814 4.18674 -1.59423 0
M  V30 1759 C 172.558 4.23854 0.234079 0
M  V30 1760 C 170.465 5.69045 -1.61065 0
M  V30 1761 H 169.395 0.752367 -0.0495998 0
M  V30 1762 H 172.046 1.65246 -0.797881 0
M  V30 1763 H 170.428 3.92598 0.517946 0
M  V30 1764 H 171.602 3.96921 -2.34074 0
M  V30 1765 H 169.917 3.66453 -1.97741 0
M  V30 1766 H 172.514 5.34155 0.241443 0
M  V30 1767 H 172.857 3.96688 1.2627 0
M  V30 1768 H 173.39 3.95403 -0.436025 0
M  V30 1769 H 170.129 6.00956 -2.61787 0
M  V30 1770 H 169.649 5.929 -0.90718 0
M  V30 1771 H 171.328 6.32809 -1.34766 0
M  V30 1772 N 171.46 0.379036 1.52974 0
M  V30 1773 C 172.685 -0.209353 2.06341 0
M  V30 1774 C 173.11 -1.40583 1.24972 0
M  V30 1775 O 172.468 -1.79246 0.272155 0
M  V30 1776 C 172.516 -0.567786 3.56102 0
M  V30 1777 O 171.62 -1.66318 3.77375 0
M  V30 1778 H 170.961 -0.0272919 0.663439 0
M  V30 1779 H 173.491 0.543536 1.97248 0
M  V30 1780 H 173.501 -0.835003 3.99364 0
M  V30 1781 H 172.176 0.307013 4.14765 0
M  V30 1782 H 170.753 -1.39048 3.46006 0
M  V30 1783 N 172.938 -1.57226 0.108567 0
M  V30 1784 C 173.868 -2.17778 -0.84232 0
M  V30 1785 C 174.849 -1.11487 -1.2847 0
M  V30 1786 O 176.034 -1.39681 -1.34918 0
M  V30 1787 C 173.164 -2.76888 -2.09644 0
M  V30 1788 C 172.118 -3.88669 -1.79221 0
M  V30 1789 C 171.444 -4.34541 -3.11574 0
M  V30 1790 C 172.744 -5.11251 -1.06864 0
M  V30 1791 H 174.438 -2.97489 -0.337774 0
M  V30 1792 H 171.984 -1.43097 -0.161025 0
M  V30 1793 H 173.937 -3.17904 -2.76614 0
M  V30 1794 H 172.661 -1.94451 -2.62405 0
M  V30 1795 H 171.32 -3.48213 -1.14644 0
M  V30 1796 H 170.968 -3.48977 -3.62249 0
M  V30 1797 H 170.668 -5.09914 -2.91996 0
M  V30 1798 H 172.192 -4.782 -3.7968 0
M  V30 1799 H 173.606 -5.49352 -1.63968 0
M  V30 1800 H 172.003 -5.9214 -0.974178 0
M  V30 1801 H 173.073 -4.8487 -0.0536168 0
M  V30 1802 N 174.416 0.165178 -1.56732 0
M  V30 1803 C 175.665 0.879143 -1.81532 0
M  V30 1804 C 175.978 1.83144 -0.686842 0
M  V30 1805 O 177.184 2.58823 -0.819944 0
M  V30 1806 C 175.64 1.61388 -3.21686 0
M  V30 1807 C 175.248 0.704904 -4.4242 0
M  V30 1808 C 176.992 2.3157 -3.55774 0
M  V30 1809 C 174.899 1.44022 -5.73595 0
M  V30 1810 H 173.829 0.332033 -0.676957 0
M  V30 1811 H 176.48 0.132008 -1.83025 0
M  V30 1812 H 174.862 2.40599 -3.14529 0
M  V30 1813 H 176.036 -0.0506815 -4.60772 0
M  V30 1814 H 174.351 0.112419 -4.16248 0
M  V30 1815 H 176.948 2.8719 -4.51028 0
M  V30 1816 H 177.291 3.07201 -2.8095 0
M  V30 1817 H 177.824 1.59297 -3.64513 0
M  V30 1818 H 174.563 0.72612 -6.51466 0
M  V30 1819 H 174.083 2.16898 -5.5921 0
M  V30 1820 H 175.762 1.98606 -6.15764 0
M  V30 1821 N 175.894 1.51508 0.433938 0
M  V30 1822 C 176.841 1.73068 1.52696 0
M  V30 1823 C 177.811 0.572441 1.55924 0
M  V30 1824 O 178.996 0.807253 1.72882 0
M  V30 1825 C 176.136 1.86474 2.90381 0
M  V30 1826 C 175.249 3.14037 2.96656 0
M  V30 1827 C 174.384 3.18019 4.25485 0
M  V30 1828 C 173.423 4.39882 4.2564 0
M  V30 1829 N 172.56 4.41394 5.45999 0
M  V30 1830 H 177.4 2.66366 1.33615 0
M  V30 1831 H 174.937 1.32008 0.649018 0
M  V30 1832 H 176.895 1.92229 3.70275 0
M  V30 1833 H 175.525 0.965809 3.08013 0
M  V30 1834 H 174.577 3.17575 2.09404 0
M  V30 1835 H 175.889 4.0394 2.92633 0
M  V30 1836 H 175.043 3.22708 5.13755 0
M  V30 1837 H 173.782 2.2601 4.3217 0
M  V30 1838 H 172.787 4.35366 3.35763 0
M  V30 1839 H 174.012 5.33159 4.20617 0
M  V30 1840 H 171.958 3.52258 5.53399 0
M  V30 1841 H 171.875 5.25111 5.4387 0
M  V30 1842 H 173.143 4.50281 6.36292 0
M  V30 1843 N 177.372 -0.689602 1.41712 0
M  V30 1844 C 178.62 -1.4468 1.4111 0
M  V30 1845 C 178.941 -1.94986 0.0232196 0
M  V30 1846 O 178.211 -1.72097 -0.935913 0
M  V30 1847 H 176.791 -0.536847 0.519427 0
M  V30 1848 H 179.453 -0.815825 1.77004 0
M  V30 1849 H 178.549 -2.30706 2.10193 0
M  V30 1850 N 178.85 -1.27639 -0.924453 0
M  V30 1851 C 180.096 -1.14336 -1.67497 0
M  V30 1852 C 180.429 0.309465 -1.91718 0
M  V30 1853 O 179.704 1.22608 -1.50989 0
M  V30 1854 C 179.987 -1.93096 -3.0395 0
M  V30 1855 C 179.84 -3.46381 -2.8695 0
M  V30 1856 C 181.159 -1.73798 -4.0433 0
M  V30 1857 H 178.278 -0.416728 -0.607871 0
M  V30 1858 H 180.92 -1.56832 -1.07256 0
M  V30 1859 H 179.07 -1.56982 -3.55372 0
M  V30 1860 H 180.742 -3.92343 -2.42621 0
M  V30 1861 H 178.985 -3.72557 -2.22225 0
M  V30 1862 H 179.656 -3.96735 -3.83804 0
M  V30 1863 H 182.132 -2.05293 -3.61931 0
M  V30 1864 H 181.008 -2.31294 -4.97789 0
M  V30 1865 H 181.269 -0.686725 -4.36734 0
M  V30 1866 N 180.328 1.1314 -1.09713 0
M  V30 1867 C 181.605 1.80762 -0.747302 0
M  V30 1868 C 181.985 1.96663 0.767265 0
M  V30 1869 O 181.333 1.53706 1.69076 0
M  V30 1870 C 181.543 3.15606 -1.48975 0
M  V30 1871 C 182.891 3.90914 -1.65746 0
M  V30 1872 O 183.915 3.25239 -1.45251 0
M  V30 1873 O 182.774 5.08718 -1.9967 0
M  V30 1874 H 179.868 0.782103 -0.268782 0
M  V30 1875 H 182.414 1.20041 -1.19951 0
M  V30 1876 H 181.186 2.99278 -2.52088 0
M  V30 1877 H 180.809 3.84029 -1.02991 0
M  V30 1878 N 181.806 0.884767 1.30421 0
M  V30 1879 C 182.716 0.355398 2.31892 0
M  V30 1880 C 183.732 -0.542261 1.65335 0
M  V30 1881 O 184.908 -0.435432 1.96637 0
M  V30 1882 C 181.973 -0.421661 3.44126 0
M  V30 1883 C 181.034 0.505727 4.26311 0
M  V30 1884 C 180.267 -0.234343 5.33185 0
M  V30 1885 O 180.49 -1.46045 5.51386 0
M  V30 1886 O 179.424 0.415443 6.00465 0
M  V30 1887 H 183.25 1.19685 2.79122 0
M  V30 1888 H 180.835 0.648596 1.34587 0
M  V30 1889 H 182.717 -0.861641 4.12497 0
M  V30 1890 H 181.392 -1.23942 2.99032 0
M  V30 1891 H 180.299 0.994513 3.60639 0
M  V30 1892 H 181.632 1.28948 4.75009 0
M  V30 1893 N 183.284 -1.43765 0.645699 0
M  V30 1894 C 184.532 -2.01499 0.155731 0
M  V30 1895 C 184.853 -1.51151 -1.232 0
M  V30 1896 O 184.123 -0.721044 -1.82148 0
M  V30 1897 H 182.703 -0.745003 0.0545817 0
M  V30 1898 H 185.365 -1.76075 0.835677 0
M  V30 1899 H 184.461 -3.1181 0.134577 0
M  V30 1900 N 184.763 -0.387143 -1.52771 0
M  V30 1901 C 186.174 0.0873634 -1.86495 0
M  V30 1902 C 186.525 1.46336 -1.30691 0
M  V30 1903 O 185.65 2.068 -0.637409 0
M  V30 1904 C 186.245 0.165305 -3.38396 0
M  V30 1905 C 184.804 0.584101 -3.7184 0
M  V30 1906 C 183.951 -0.255279 -2.76122 0
M  V30 1907 H 186.902 -0.605104 -1.46711 0
M  V30 1908 H 186.923 0.984848 -3.67534 0
M  V30 1909 H 186.435 -0.836301 -3.78982 0
M  V30 1910 H 184.536 1.59315 -3.36823 0
M  V30 1911 H 184.649 0.343749 -4.77865 0
M  V30 1912 H 183.013 0.279126 -2.53166 0
M  V30 1913 H 183.796 -1.25482 -3.19545 0
M  V30 1914 N 186.241 1.57166 -0.116904 0
M  V30 1915 C 187.189 2.16457 0.851418 0
M  V30 1916 C 188.183 1.11323 1.27686 0
M  V30 1917 O 189.389 1.2963 1.24884 0
M  V30 1918 H 185.764 0.69271 0.292672 0
M  V30 1919 H 187.735 2.96605 0.32685 0
M  V30 1920 C 186.484 2.77689 2.09246 0
M  V30 1921 H 185.807 3.58285 1.77402 0
M  V30 1922 H 187.247 3.22716 2.7501 0
M  V30 1923 C 185.706 1.74667 2.88085 0
M  V30 1924 O 186.236 1.19877 3.83396 0
M  V30 1925 N 184.442 1.44656 2.52038 0
M  V30 1926 H 183.989 1.89402 1.74599 0
M  V30 1927 H 183.947 0.759675 3.05084 0
M  V30 1928 N 187.719 -0.156864 1.56817 0
M  V30 1929 C 188.967 -0.869404 1.82444 0
M  V30 1930 C 189.288 -1.82147 0.69623 0
M  V30 1931 O 188.558 -1.93847 -0.28287 0
M  V30 1932 H 187.138 -0.324043 0.673056 0
M  V30 1933 H 189.8 -0.153224 1.94297 0
M  V30 1934 H 188.896 -1.43761 2.77019 0
M  V30 1935 N 189.197 -1.51736 -0.425897 0
M  V30 1936 C 190.127 -1.76827 -1.52494 0
M  V30 1937 C 191.108 -0.618524 -1.58456 0
M  V30 1938 O 192.293 -0.862416 -1.74 0
M  V30 1939 C 189.423 -1.90374 -2.90474 0
M  V30 1940 C 188.377 -3.0588 -2.99369 0
M  V30 1941 C 187.703 -3.04625 -4.3944 0
M  V30 1942 C 189.003 -4.45644 -2.72394 0
M  V30 1943 H 190.697 -2.68855 -1.31748 0
M  V30 1944 H 188.243 -1.29372 -0.632362 0
M  V30 1945 H 190.196 -2.0651 -3.6733 0
M  V30 1946 H 188.92 -0.95004 -3.12477 0
M  V30 1947 H 187.579 -2.89467 -2.24954 0
M  V30 1948 H 187.227 -2.0701 -4.58428 0
M  V30 1949 H 186.927 -3.82195 -4.46319 0
M  V30 1950 H 188.451 -3.22869 -5.18255 0
M  V30 1951 H 189.865 -4.62348 -3.38979 0
M  V30 1952 H 188.262 -5.25006 -2.9067 0
M  V30 1953 H 189.332 -4.54893 -1.67929 0
M  V30 1954 N 190.675 0.682077 -1.42076 0
M  V30 1955 C 191.622 1.79578 -1.44984 0
M  V30 1956 C 192.592 1.6332 -0.302614 0
M  V30 1957 O 193.777 1.83978 -0.505633 0
M  V30 1958 C 190.917 3.1756 -1.35091 0
M  V30 1959 C 190.03 3.45156 -2.59791 0
M  V30 1960 C 189.165 4.72826 -2.42093 0
M  V30 1961 C 188.204 4.93433 -3.62202 0
M  V30 1962 N 187.341 6.12338 -3.43491 0
M  V30 1963 H 192.181 1.76427 -2.40161 0
M  V30 1964 H 189.718 0.861376 -1.19242 0
M  V30 1965 H 191.676 3.97287 -1.27354 0
M  V30 1966 H 190.306 3.19854 -0.435133 0
M  V30 1967 H 189.358 2.59736 -2.77923 0
M  V30 1968 H 190.67 3.5628 -3.49094 0
M  V30 1969 H 189.824 5.60631 -2.319 0
M  V30 1970 H 188.563 4.63973 -1.50268 0
M  V30 1971 H 187.568 4.04073 -3.72834 0
M  V30 1972 H 188.793 5.04136 -4.54998 0
M  V30 1973 H 186.739 6.04672 -2.54377 0
M  V30 1974 H 186.656 6.2429 -4.26377 0
M  V30 1975 H 187.924 7.02841 -3.37097 0
M  V30 1976 N 192.153 1.28127 0.917671 0
M  V30 1977 C 193.083 1.14248 2.03641 0
M  V30 1978 C 194.064 0.0412748 1.7005 0
M  V30 1979 O 195.249 0.217566 1.92977 0
M  V30 1980 C 192.379 0.799431 3.37974 0
M  V30 1981 C 191.333 1.85497 3.85713 0
M  V30 1982 C 190.659 1.36565 5.16966 0
M  V30 1983 C 191.959 3.26085 4.08002 0
M  V30 1984 H 193.653 2.07835 2.15511 0
M  V30 1985 H 191.199 1.00064 1.03553 0
M  V30 1986 H 193.152 0.689114 4.15727 0
M  V30 1987 H 191.876 -0.172145 3.26146 0
M  V30 1988 H 190.535 1.95437 3.10161 0
M  V30 1989 H 190.183 0.383253 5.01538 0
M  V30 1990 H 189.883 2.07143 5.49878 0
M  V30 1991 H 191.407 1.26848 5.97279 0
M  V30 1992 H 192.821 3.19089 4.76293 0
M  V30 1993 H 191.218 3.94462 4.52238 0
M  V30 1994 H 192.288 3.70394 3.12948 0
M  V30 1995 N 193.631 -1.12557 1.10312 0
M  V30 1996 C 194.88 -1.83395 0.839588 0
M  V30 1997 C 195.193 -1.84939 -0.636929 0
M  V30 1998 O 196.399 -2.51761 -1.01631 0
M  V30 1999 C 194.855 -3.29303 1.45215 0
M  V30 2000 C 194.463 -3.36122 2.96186 0
M  V30 2001 C 196.207 -4.05121 1.26796 0
M  V30 2002 C 194.114 -4.76357 3.50483 0
M  V30 2003 H 193.044 -0.687133 0.310425 0
M  V30 2004 H 195.695 -1.26746 1.32694 0
M  V30 2005 H 194.077 -3.85812 0.892469 0
M  V30 2006 H 195.251 -2.89559 3.58458 0
M  V30 2007 H 193.566 -2.73776 3.13745 0
M  V30 2008 H 196.163 -5.08668 1.64806 0
M  V30 2009 H 196.506 -4.15773 0.209409 0
M  V30 2010 H 197.039 -3.54967 1.79563 0
M  V30 2011 H 193.778 -4.70899 4.55998 0
M  V30 2012 H 193.298 -5.23377 2.92978 0
M  V30 2013 H 194.977 -5.45294 3.48228 0
M  V30 2014 N 195.109 -0.891671 -1.2995 0
M  V30 2015 C 196.334 -0.527932 -2.00568 0
M  V30 2016 C 196.759 0.877969 -1.66353 0
M  V30 2017 O 196.117 1.58301 -0.883762 0
M  V30 2018 C 196.165 -0.717745 -3.53385 0
M  V30 2019 O 195.269 0.233376 -4.11739 0
M  V30 2020 H 194.61 -0.20722 -0.630837 0
M  V30 2021 H 197.14 -1.20105 -1.65638 0
M  V30 2022 H 197.15 -0.619307 -4.03272 0
M  V30 2023 H 195.825 -1.74276 -3.77625 0
M  V30 2024 H 194.402 0.0880706 -3.72796 0
M  V30 2025 N 196.587 1.43421 -0.653314 0
M  V30 2026 C 197.497 2.34568 0.0388565 0
M  V30 2027 C 198.513 1.53888 0.81207 0
M  V30 2028 O 199.689 1.86539 0.759294 0
M  V30 2029 C 196.754 3.32167 0.993269 0
M  V30 2030 C 195.815 4.28751 0.216977 0
M  V30 2031 C 195.048 5.21688 1.12593 0
M  V30 2032 O 195.271 5.19052 2.36519 0
M  V30 2033 O 194.205 5.98919 0.598284 0
M  V30 2034 H 198.031 2.95251 -0.711386 0
M  V30 2035 H 195.616 1.43564 -0.413502 0
M  V30 2036 H 197.498 3.92183 1.54176 0
M  V30 2037 H 196.173 2.73987 1.72374 0
M  V30 2038 H 195.08 3.72215 -0.375101 0
M  V30 2039 H 196.413 4.89913 -0.473924 0
M  V30 2040 N 198.065 0.39524 1.52563 0
M  V30 2041 C 199.311 -0.185318 2.01952 0
M  V30 2042 C 199.644 -1.45964 1.28095 0
M  V30 2043 O 198.919 -1.90689 0.38315 0
M  V30 2044 C 199.202 -0.447193 3.57312 0
M  V30 2045 C 199.055 0.842828 4.41833 0
M  V30 2046 C 200.374 -1.23529 4.22408 0
M  V30 2047 H 197.493 -0.0658788 0.73405 0
M  V30 2048 H 200.135 0.525975 1.82575 0
M  V30 2049 H 198.285 -1.05312 3.73954 0
M  V30 2050 H 199.957 1.4795 4.36931 0
M  V30 2051 H 198.2 1.45686 4.08605 0
M  V30 2052 H 198.871 0.614165 5.48573 0
M  V30 2053 H 201.347 -0.722445 4.0978 0
M  V30 2054 H 200.223 -1.38727 5.3108 0
M  V30 2055 H 200.484 -2.25213 3.80436 0
M  V30 2056 N 199.544 -1.57102 0.125237 0
M  V30 2057 C 200.793 -1.94582 -0.531095 0
M  V30 2058 C 201.106 -1.01126 -1.6743 0
M  V30 2059 O 202.312 -1.28097 -2.39381 0
M  V30 2060 C 200.768 -3.45839 -0.996164 0
M  V30 2061 C 200.376 -4.47842 0.118926 0
M  V30 2062 C 202.12 -3.92227 -1.62352 0
M  V30 2063 C 200.027 -5.90284 -0.363192 0
M  V30 2064 H 198.957 -0.726391 -0.20217 0
M  V30 2065 H 201.608 -1.82339 0.206092 0
M  V30 2066 H 199.99 -3.53338 -1.78796 0
M  V30 2067 H 201.164 -4.52018 0.895358 0
M  V30 2068 H 199.479 -4.11243 0.653324 0
M  V30 2069 H 202.076 -4.96069 -1.99548 0
M  V30 2070 H 202.419 -3.32552 -2.50429 0
M  V30 2071 H 202.952 -3.87554 -0.897019 0
M  V30 2072 H 199.691 -6.53728 0.481679 0
M  V30 2073 H 199.211 -5.89515 -1.10597 0
M  V30 2074 H 200.89 -6.41752 -0.822377 0
M  V30 2075 N 201.022 0.148545 -1.56898 0
M  V30 2076 C 202.27 0.859717 -1.82902 0
M  V30 2077 C 202.591 1.81775 -0.70588 0
M  V30 2078 O 201.861 1.93994 0.272586 0
M  V30 2079 H 200.441 0.320469 -0.674766 0
M  V30 2080 H 203.103 0.142918 -1.94375 0
M  V30 2081 H 202.199 1.4229 -2.77777 0
M  V30 2082 N 202.5 1.5196 0.417844 0
M  V30 2083 C 203.41 1.77554 1.53336 0
M  V30 2084 C 204.426 0.660655 1.6097 0
M  V30 2085 O 205.602 0.945099 1.77848 0
M  V30 2086 C 202.667 1.91291 2.89152 0
M  V30 2087 C 201.728 3.15183 2.91475 0
M  V30 2088 C 200.961 3.28256 4.20813 0
M  V30 2089 O 201.184 2.46798 5.14244 0
M  V30 2090 O 200.118 4.21356 4.29817 0
M  V30 2091 H 203.944 2.7222 1.34647 0
M  V30 2092 H 201.529 1.36698 0.602828 0
M  V30 2093 H 203.411 2.02199 3.69721 0
M  V30 2094 H 202.086 0.998129 3.07927 0
M  V30 2095 H 200.993 3.09739 2.09791 0
M  V30 2096 H 202.326 4.06414 2.77648 0
M  V30 2097 N 203.978 -0.674533 1.42435 0
M  V30 2098 C 205.394 -0.98769 1.25367 0
M  V30 2099 C 205.594 -2.00879 0.158044 0
M  V30 2100 O 204.65 -2.48075 -0.470633 0
M  V30 2101 C 205.963 -1.49224 2.6106 0
M  V30 2102 C 207.511 -1.61 2.68417 0
M  V30 2103 C 207.986 -2.14852 4.04478 0
M  V30 2104 N 209.477 -2.22185 4.06434 0
M  V30 2105 C 210.212 -2.64928 5.08528 0
M  V30 2106 N 209.708 -3.07121 6.21006 0
M  V30 2107 N 211.501 -2.64679 4.95885 0
M  V30 2108 H 203.652 0.00152503 2.124 0
M  V30 2109 H 205.915 -0.0618434 0.945981 0
M  V30 2110 H 205.621 -0.816453 3.42092 0
M  V30 2111 H 205.495 -2.47094 2.84999 0
M  V30 2112 H 207.882 -2.27686 1.87732 0
M  V30 2113 H 207.963 -0.616195 2.48267 0
M  V30 2114 H 207.607 -1.48775 4.85622 0
M  V30 2115 H 207.537 -3.15024 4.2198 0
M  V30 2116 H 210.028 -1.92435 3.25234 0
M  V30 2117 H 210.341 -3.38423 6.94759 0
M  V30 2118 H 208.686 -3.04978 6.24511 0
M  V30 2119 H 211.877 -2.31078 4.07088 0
M  V30 2120 H 212.05 -2.9767 5.75584 0
M  V30 2121 N 205.456 -1.28612 -0.910864 0
M  V30 2122 C 206.386 -1.15326 -2.03032 0
M  V30 2123 C 207.367 -0.0502924 -1.70026 0
M  V30 2124 O 208.552 -0.227797 -1.92859 0
M  V30 2125 C 205.682 -0.817343 -3.37545 0
M  V30 2126 C 204.636 -1.8754 -3.84724 0
M  V30 2127 C 203.962 -1.39305 -5.16235 0
M  V30 2128 C 205.262 -3.28244 -4.06267 0
M  V30 2129 H 206.956 -2.08975 -2.14406 0
M  V30 2130 H 204.502 -1.00612 -1.03021 0
M  V30 2131 H 206.455 -0.711151 -4.15356 0
M  V30 2132 H 205.179 0.154846 -3.26233 0
M  V30 2133 H 203.838 -1.97079 -3.09121 0
M  V30 2134 H 203.486 -0.409846 -5.01328 0
M  V30 2135 H 203.186 -2.10057 -5.48771 0
M  V30 2136 H 204.71 -1.30014 -5.96598 0
M  V30 2137 H 206.124 -3.21611 -4.74594 0
M  V30 2138 H 204.521 -3.96855 -4.5014 0
M  V30 2139 H 205.591 -3.72048 -3.10979 0
M  V30 2140 N 206.934 1.1197 -1.10907 0
M  V30 2141 C 208.182 1.83225 -0.852819 0
M  V30 2142 C 208.503 1.84769 0.623341 0
M  V30 2143 O 207.773 1.3143 1.45269 0
M  V30 2144 H 206.353 0.67849 -0.312507 0
M  V30 2145 H 209.015 1.3556 -1.40033 0
M  V30 2146 H 208.111 2.87265 -1.22005 0
M  V30 2147 N 208.412 0.89855 1.29475 0
M  V30 2148 C 209.661 0.519863 1.94885 0
M  V30 2149 C 209.974 -0.9383 1.71625 0
M  V30 2150 O 211.18 -1.42445 2.31131 0
M  V30 2151 C 209.636 0.878836 3.49005 0
M  V30 2152 C 209.244 2.35569 3.81066 0
M  V30 2153 C 210.988 0.570004 4.20656 0
M  V30 2154 C 208.895 2.65558 5.28425 0
M  V30 2155 H 207.825 0.190692 0.729488 0
M  V30 2156 H 210.476 1.09539 1.47219 0
M  V30 2157 H 208.858 0.232253 3.95318 0
M  V30 2158 H 210.032 3.04773 3.45616 0
M  V30 2159 H 208.347 2.63343 3.22552 0
M  V30 2160 H 210.944 0.770925 5.29113 0
M  V30 2161 H 211.287 -0.491404 4.1339 0
M  V30 2162 H 211.82 1.17438 3.8007 0
M  V30 2163 H 208.559 3.70493 5.40754 0
M  V30 2164 H 208.079 2.00977 5.65127 0
M  V30 2165 H 209.758 2.51765 5.96006 0
M  V30 2166 N 209.89 -1.43072 0.660911 0
M  V30 2167 C 211.301 -1.84932 0.256348 0
M  V30 2168 C 211.652 -1.55325 -1.19868 0
M  V30 2169 O 210.777 -1.00607 -1.91591 0
M  V30 2170 C 211.372 -3.35684 0.458475 0
M  V30 2171 C 209.931 -3.76245 0.108161 0
M  V30 2172 C 209.078 -2.66749 0.757641 0
M  V30 2173 H 212.029 -1.33116 0.864051 0
M  V30 2174 H 212.05 -3.79365 -0.293683 0
M  V30 2175 H 211.562 -3.572 1.51755 0
M  V30 2176 H 209.663 -3.60338 -0.948014 0
M  V30 2177 H 209.776 -4.76058 0.538992 0
M  V30 2178 H 208.14 -2.53989 0.190185 0
M  V30 2179 H 208.923 -2.91092 1.81989 0
M  V30 2180 N 211.368 -0.403325 -1.52352 0
M  V30 2181 C 212.301 0.469463 -2.23319 0
M  V30 2182 C 213.279 1.05272 -1.23922 0
M  V30 2183 O 214.463 1.10169 -1.52954 0
M  V30 2184 C 211.59 1.6511 -2.9573 0
M  V30 2185 C 210.636 1.19178 -4.0951 0
M  V30 2186 S 211.469 0.161718 -5.35256 0
M  V30 2187 C 212.625 1.34882 -6.11194 0
M  V30 2188 H 212.858 -0.133134 -2.97002 0
M  V30 2189 H 210.391 -0.187588 -1.53256 0
M  V30 2190 H 212.349 2.3287 -3.38056 0
M  V30 2191 H 211.01 2.22503 -2.21701 0
M  V30 2192 H 210.203 2.07444 -4.59329 0
M  V30 2193 H 209.805 0.592911 -3.6927 0
M  V30 2194 H 212.097 2.27345 -6.38217 0
M  V30 2195 H 213.04 0.89128 -7.02468 0
M  V30 2196 H 213.448 1.57198 -5.42171 0
M  V30 2197 N 212.846 1.57033 -0.133567 0
M  V30 2198 C 214.071 2.00475 0.531477 0
M  V30 2199 C 214.496 1.01291 1.58499 0
M  V30 2200 O 213.854 -0.0133279 1.81295 0
M  V30 2201 C 213.902 3.42729 1.12113 0
M  V30 2202 O 213.006 3.46498 2.23636 0
M  V30 2203 H 212.347 0.650876 0.131362 0
M  V30 2204 H 214.877 2.03344 -0.22634 0
M  V30 2205 H 214.887 3.81246 1.4531 0
M  V30 2206 H 213.562 4.14428 0.349557 0
M  V30 2207 H 212.139 3.19811 1.91769 0
M  V30 2208 N 214.325 -0.140222 1.56975 0
M  V30 2209 C 215.571 -0.852949 1.83991 0
M  V30 2210 C 215.904 -1.80512 0.716187 0
M  V30 2211 O 215.179 -1.92479 -0.279681 0
M  V30 2212 C 215.462 -1.6215 3.21527 0
M  V30 2213 C 215.315 -0.690363 4.4447 0
M  V30 2214 C 216.634 -2.58247 3.56366 0
M  V30 2215 H 213.753 -0.308634 0.669264 0
M  V30 2216 H 216.395 -0.117898 1.89634 0
M  V30 2217 H 214.545 -2.24812 3.16847 0
M  V30 2218 H 216.217 -0.0742264 4.6124 0
M  V30 2219 H 214.46 -0.000396433 4.338 0
M  V30 2220 H 215.131 -1.2643 5.37326 0
M  V30 2221 H 217.607 -2.05701 3.61699 0
M  V30 2222 H 216.483 -3.09067 4.53617 0
M  V30 2223 H 216.744 -3.39923 2.82674 0
M  V30 2224 N 215.803 -1.52179 -0.40978 0
M  V30 2225 C 216.733 -1.78435 -1.5061 0
M  V30 2226 C 217.714 -0.635295 -1.57791 0
M  V30 2227 O 218.899 -0.880823 -1.73076 0
M  V30 2228 C 216.029 -1.93444 -2.88439 0
M  V30 2229 C 214.983 -3.09038 -2.96108 0
M  V30 2230 C 214.309 -3.09268 -4.36185 0
M  V30 2231 C 215.609 -4.48508 -2.67652 0
M  V30 2232 H 217.303 -2.70237 -1.28889 0
M  V30 2233 H 214.849 -1.30036 -0.618605 0
M  V30 2234 H 216.802 -2.10394 -3.65119 0
M  V30 2235 H 215.526 -0.983129 -3.11452 0
M  V30 2236 H 214.185 -2.91837 -2.21872 0
M  V30 2237 H 213.833 -2.11861 -4.56206 0
M  V30 2238 H 213.533 -3.86907 -4.42241 0
M  V30 2239 H 215.057 -3.28348 -5.14801 0
M  V30 2240 H 216.471 -4.65918 -3.34056 0
M  V30 2241 H 214.868 -5.28059 -2.85085 0
M  V30 2242 H 215.938 -4.56649 -1.63095 0
M  V30 2243 N 217.281 0.66697 -1.42791 0
M  V30 2244 C 218.214 1.79177 -1.41318 0
M  V30 2245 C 219.192 1.60234 -0.276401 0
M  V30 2246 O 220.376 1.82602 -0.46785 0
M  V30 2247 C 217.503 3.16289 -1.21157 0
M  V30 2248 C 216.549 3.53964 -2.37932 0
M  V30 2249 S 217.382 3.55501 -4.00474 0
M  V30 2250 C 218.538 4.95292 -3.8267 0
M  V30 2251 H 218.771 1.80153 -2.365 0
M  V30 2252 H 216.304 0.838357 -1.29657 0
M  V30 2253 H 218.262 3.95428 -1.10212 0
M  V30 2254 H 216.923 3.1289 -0.275481 0
M  V30 2255 H 216.116 4.53646 -2.19594 0
M  V30 2256 H 215.718 2.82204 -2.45432 0
M  V30 2257 H 218.01 5.83584 -3.44145 0
M  V30 2258 H 218.953 5.18679 -4.82055 0
M  V30 2259 H 219.361 4.68179 -3.15386 0
M  V30 2260 N 218.759 1.29093 0.90403 0
M  V30 2261 C 220.007 1.16583 1.65085 0
M  V30 2262 C 220.328 -0.283933 1.92922 0
M  V30 2263 O 219.598 -1.19509 1.55224 0
M  V30 2264 H 218.178 0.428467 0.611903 0
M  V30 2265 H 220.84 1.61959 1.08422 0
M  V30 2266 H 219.936 1.71266 2.6091 0
M  V30 2267 N 220.237 -1.11381 1.11499 0
M  V30 2268 C 221.2 -2.15622 0.777153 0
M  V30 2269 C 222.2 -1.59504 -0.203779 0
M  V30 2270 O 223.39 -1.74188 0.020782 0
M  V30 2271 C 220.522 -3.40556 0.153116 0
M  V30 2272 H 221.715 -2.47021 1.70061 0
M  V30 2273 H 219.268 -1.26577 0.916952 0
M  V30 2274 H 220.003 -3.14767 -0.780536 0
M  V30 2275 H 219.788 -3.8257 0.859238 0
M  V30 2276 H 221.278 -4.17546 -0.0671044 0
M  V30 2277 N 221.715 -0.905404 -1.28997 0
M  V30 2278 C 222.663 -0.377431 -2.29517 0
M  V30 2279 C 223.657 0.526461 -1.61012 0
M  V30 2280 O 224.863 0.40863 -1.753 0
M  V30 2281 H 221.238 -0.103437 -0.744852 0
M  V30 2282 H 223.209 -1.23848 -2.71485 0
M  V30 2283 C 221.958 0.374833 -3.45674 0
M  V30 2284 H 221.281 -0.311474 -3.98585 0
M  V30 2285 H 222.721 0.70903 -4.1803 0
M  V30 2286 C 221.18 1.57963 -2.97572 0
M  V30 2287 O 221.71 2.67886 -2.99333 0
M  V30 2288 N 219.916 1.42375 -2.53333 0
M  V30 2289 H 219.463 0.529466 -2.521 0
M  V30 2290 H 219.421 2.23117 -2.21509 0
M  V30 2291 N 223.193 1.4272 -0.668489 0
M  V30 2292 C 224.442 2.00846 -0.185389 0
M  V30 2293 C 224.755 1.53442 1.21305 0
M  V30 2294 O 225.961 2.03944 1.79218 0
M  V30 2295 C 224.417 3.58805 -0.280591 0
M  V30 2296 C 224.025 4.15198 -1.68268 0
M  V30 2297 C 225.769 4.24255 0.14412 0
M  V30 2298 C 223.676 5.655 -1.73099 0
M  V30 2299 H 222.606 0.751145 -0.0655475 0
M  V30 2300 H 225.257 1.63516 -0.832752 0
M  V30 2301 H 223.639 3.93608 0.434553 0
M  V30 2302 H 224.813 3.91866 -2.42441 0
M  V30 2303 H 223.128 3.62176 -2.05469 0
M  V30 2304 H 225.725 5.34547 0.128086 0
M  V30 2305 H 226.068 3.99277 1.17827 0
M  V30 2306 H 226.601 3.94389 -0.519798 0
M  V30 2307 H 223.34 5.95268 -2.74475 0
M  V30 2308 H 222.86 5.90842 -1.03274 0
M  V30 2309 H 224.539 6.29808 -1.48158 0
M  V30 2310 N 224.671 0.411399 1.52136 0
M  V30 2311 C 225.634 -0.401089 2.25663 0
M  V30 2312 C 226.634 -0.971732 1.28117 0
M  V30 2313 O 227.824 -0.850254 1.52041 0
M  V30 2314 C 224.956 -1.56483 3.02863 0
M  V30 2315 H 226.149 0.24295 2.98914 0
M  V30 2316 H 223.702 0.163968 1.55438 0
M  V30 2317 H 224.437 -2.24567 2.33967 0
M  V30 2318 H 224.222 -1.16211 3.74483 0
M  V30 2319 H 225.712 -2.13951 3.58629 0
M  V30 2320 N 226.149 -1.5696 0.141893 0
M  V30 2321 C 227.374 -2.00754 -0.520838 0
M  V30 2322 C 227.799 -1.0213 -1.57959 0
M  V30 2323 O 227.157 0.00371324 -1.813 0
M  V30 2324 C 227.205 -3.43318 -1.10294 0
M  V30 2325 O 226.309 -3.47679 -2.21795 0
M  V30 2326 H 225.65 -0.651564 -0.127908 0
M  V30 2327 H 228.18 -2.03221 0.23712 0
M  V30 2328 H 228.19 -3.82012 -1.43287 0
M  V30 2329 H 226.865 -4.14608 -0.327574 0
M  V30 2330 H 225.442 -3.20824 -1.9007 0
M  V30 2331 N 227.627 0.131896 -1.57047 0
M  V30 2332 C 228.537 1.1815 -2.02676 0
M  V30 2333 C 229.553 1.46113 -0.944824 0
M  V30 2334 O 230.729 1.57485 -1.25541 0
M  V30 2335 C 227.794 2.49139 -2.41103 0
M  V30 2336 C 226.855 2.28688 -3.63318 0
M  V30 2337 C 226.088 3.53431 -3.99903 0
M  V30 2338 O 226.311 4.60223 -3.36973 0
M  V30 2339 O 225.245 3.45198 -4.93074 0
M  V30 2340 H 229.071 0.824069 -2.92306 0
M  V30 2341 H 226.656 0.341745 -1.45439 0
M  V30 2342 H 228.538 3.26338 -2.66611 0
M  V30 2343 H 227.213 2.84382 -1.54624 0
M  V30 2344 H 226.12 1.4939 -3.42977 0
M  V30 2345 H 227.453 1.98355 -4.50462 0
M  V30 2346 N 229.106 1.52395 0.401703 0
M  V30 2347 C 230.352 1.67065 1.14966 0
M  V30 2348 C 230.685 0.403052 1.89971 0
M  V30 2349 O 229.96 -0.598774 1.85054 0
M  V30 2350 C 230.243 2.8975 2.13815 0
M  V30 2351 C 230.096 4.26578 1.42658 0
M  V30 2352 C 231.415 3.07965 3.14397 0
M  V30 2353 H 228.534 0.607968 0.416587 0
M  V30 2354 H 231.176 1.84965 0.434511 0
M  V30 2355 H 229.326 2.74619 2.74803 0
M  V30 2356 H 230.998 4.53451 0.847329 0
M  V30 2357 H 229.241 4.27639 0.72849 0
M  V30 2358 H 229.912 5.08483 2.14823 0
M  V30 2359 H 232.388 3.22043 2.63491 0
M  V30 2360 H 231.264 3.95308 3.80819 0
M  V30 2361 H 231.525 2.21611 3.82545 0
M  V30 2362 N 230.584 -0.659388 1.43143 0
M  V30 2363 C 231.547 -1.75432 1.47501 0
M  V30 2364 C 232.547 -1.56707 0.360512 0
M  V30 2365 O 233.737 -1.62717 0.622002 0
M  V30 2366 C 230.869 -3.14239 1.32162 0
M  V30 2367 H 232.062 -1.7295 2.45006 0
M  V30 2368 H 229.615 -0.870469 1.29817 0
M  V30 2369 H 230.35 -3.22336 0.356401 0
M  V30 2370 H 230.135 -3.29235 2.12948 0
M  V30 2371 H 231.625 -3.94094 1.3813 0
M  V30 2372 N 232.062 -1.29571 -0.897171 0
M  V30 2373 C 233.339 -1.08365 -1.62839 0
M  V30 2374 C 233.719 0.371331 -2.07808 0
M  V30 2375 O 233.067 1.3606 -1.83576 0
M  V30 2376 C 233.277 -2.0735 -2.80726 0
M  V30 2377 C 234.625 -2.38406 -3.51351 0
M  V30 2378 O 235.649 -2.05564 -2.90898 0
M  V30 2379 O 234.508 -2.9453 -4.60341 0
M  V30 2380 H 231.602 -0.415345 -0.715134 0
M  V30 2381 H 234.148 -1.40952 -0.945018 0
M  V30 2382 H 232.92 -3.05339 -2.44711 0
M  V30 2383 H 232.543 -1.75507 -3.56767 0
M  V30 2384 N 233.54 1.10788 -1.12088 0
M  V30 2385 C 234.45 2.20599 -0.798338 0
M  V30 2386 C 235.466 1.72712 0.21135 0
M  V30 2387 O 236.642 2.01348 0.0458477 0
M  V30 2388 C 233.707 3.45771 -0.253674 0
M  V30 2389 C 232.768 4.08411 -1.32283 0
M  V30 2390 C 232.001 5.27608 -0.80406 0
M  V30 2391 O 232.224 5.69241 0.363478 0
M  V30 2392 O 231.158 5.8101 -1.57198 0
M  V30 2393 H 234.984 2.50614 -1.7154 0
M  V30 2394 H 232.569 1.19454 -0.897275 0
M  V30 2395 H 234.451 4.21376 0.0453691 0
M  V30 2396 H 233.126 3.1739 0.636005 0
M  V30 2397 H 232.033 3.34507 -1.67499 0
M  V30 2398 H 233.366 4.40986 -2.18614 0
M  V30 2399 N 235.018 0.912232 1.28515 0
M  V30 2400 C 235.965 0.397954 2.27343 0
M  V30 2401 C 236.935 -0.526766 1.57526 0
M  V30 2402 O 238.12 -0.449292 1.85435 0
M  V30 2403 C 235.26 -0.357263 3.43246 0
M  V30 2404 C 234.373 0.599788 4.27816 0
M  V30 2405 C 233.508 -0.173725 5.30916 0
M  V30 2406 C 232.547 0.777039 6.07148 0
M  V30 2407 N 231.684 0.0371398 7.0209 0
M  V30 2408 H 236.524 1.24577 2.70711 0
M  V30 2409 H 234.061 0.625612 1.33133 0
M  V30 2410 H 236.019 -0.8113 4.09236 0
M  V30 2411 H 234.649 -1.16943 3.00872 0
M  V30 2412 H 233.701 1.17235 3.61884 0
M  V30 2413 H 235.013 1.32704 4.80823 0
M  V30 2414 H 234.167 -0.688394 6.02782 0
M  V30 2415 H 232.906 -0.934041 4.78672 0
M  V30 2416 H 231.911 1.3031 5.34134 0
M  V30 2417 H 233.136 1.53689 6.61481 0
M  V30 2418 H 231.082 -0.705213 6.52198 0
M  V30 2419 H 230.999 0.704249 7.52713 0
M  V30 2420 H 232.267 -0.457383 7.78157 0
M  V30 2421 N 236.496 -1.42363 0.676048 0
M  V30 2422 C 237.743 -2.01522 0.19883 0
M  V30 2423 C 238.071 -1.53456 -1.19505 0
M  V30 2424 O 237.326 -0.727967 -1.81657 0
M  V30 2425 C 237.625 -3.56929 0.183431 0
M  V30 2426 C 237.291 -4.24431 1.52215 0
M  V30 2427 C 235.953 -4.42585 1.8887 0
M  V30 2428 C 238.305 -4.62459 2.40377 0
M  V30 2429 C 235.633 -4.96039 3.13309 0
M  V30 2430 C 237.985 -5.17294 3.64129 0
M  V30 2431 C 236.649 -5.33661 4.00951 0
M  V30 2432 H 235.919 -0.737419 0.0727571 0
M  V30 2433 H 238.566 -1.70531 0.871281 0
M  V30 2434 H 236.871 -3.87594 -0.572532 0
M  V30 2435 H 238.568 -4.00486 -0.203035 0
M  V30 2436 H 235.158 -4.10661 1.22701 0
M  V30 2437 H 239.342 -4.48105 2.13343 0
M  V30 2438 H 234.598 -5.06896 3.41857 0
M  V30 2439 H 238.772 -5.45704 4.32644 0
M  V30 2440 H 236.399 -5.74845 4.9745 0
M  V30 2441 N 237.974 -0.419461 -1.51915 0
M  V30 2442 C 239.214 0.152336 -2.03832 0
M  V30 2443 C 239.578 1.41501 -1.29775 0
M  V30 2444 O 240.779 2.06591 -1.7197 0
M  V30 2445 C 239.05 0.383812 -3.55333 0
M  V30 2446 S 240.609 0.921577 -4.29013 0
M  V30 2447 H 237.427 0.0402193 -0.709862 0
M  V30 2448 H 240.029 -0.574758 -1.8686 0
M  V30 2449 H 238.733 -0.541794 -4.06808 0
M  V30 2450 H 238.264 1.13849 -3.76566 0
M  V30 2451 H 240.279 2.20108 -4.4471 0
M  V30 2452 N 239.452 1.56882 -0.150215 0
M  V30 2453 C 240.362 2.20494 0.801222 0
M  V30 2454 C 241.378 1.19019 1.26927 0
M  V30 2455 O 242.554 1.51607 1.32579 0
M  V30 2456 C 239.619 2.81659 2.02161 0
M  V30 2457 C 238.68 3.9827 1.60249 0
M  V30 2458 C 237.913 4.56508 2.7647 0
M  V30 2459 O 238.136 4.13627 3.92771 0
M  V30 2460 O 237.07 5.46719 2.51757 0
M  V30 2461 H 240.896 3.02315 0.289717 0
M  V30 2462 H 238.481 1.49202 0.0769684 0
M  V30 2463 H 240.363 3.20522 2.73576 0
M  V30 2464 H 239.038 2.02849 2.52258 0
M  V30 2465 H 237.945 3.64117 0.858477 0
M  V30 2466 H 239.278 4.78609 1.14864 0
M  V30 2467 N 240.93 -0.123565 1.57115 0
M  V30 2468 C 242.158 -0.846461 1.88793 0
M  V30 2469 C 242.573 -1.73652 0.740976 0
M  V30 2470 O 241.93 -1.80207 -0.288393 0
M  V30 2471 C 241.981 -1.6837 3.19897 0
M  V30 2472 O 241.702 -0.829477 4.30176 0
M  V30 2473 C 243.203 -2.51214 3.65248 0
M  V30 2474 H 240.423 -0.243573 0.625231 0
M  V30 2475 H 242.967 -0.109324 2.04208 0
M  V30 2476 H 241.122 -2.37364 3.06165 0
M  V30 2477 H 241.536 -1.40651 5.0529 0
M  V30 2478 H 243.01 -3.05497 4.59756 0
M  V30 2479 H 243.487 -3.28359 2.9168 0
M  V30 2480 H 244.093 -1.8747 3.81752 0
M  V30 2481 N 242.408 -1.52605 -0.393616 0
M  V30 2482 C 243.636 -1.71294 -1.16043 0
M  V30 2483 C 244.051 -0.429259 -1.83855 0
M  V30 2484 O 243.408 0.595921 -1.72496 0
M  V30 2485 C 243.459 -2.8593 -2.21193 0
M  V30 2486 O 243.18 -4.09329 -1.56146 0
M  V30 2487 C 244.681 -3.16259 -3.10636 0
M  V30 2488 H 241.901 -0.573641 -0.348104 0
M  V30 2489 H 244.445 -1.99234 -0.461092 0
M  V30 2490 H 242.6 -2.60465 -2.86769 0
M  V30 2491 H 243.014 -4.73323 -2.25978 0
M  V30 2492 H 244.488 -3.99946 -3.80456 0
M  V30 2493 H 244.965 -2.3045 -3.73884 0
M  V30 2494 H 245.571 -3.43547 -2.50711 0
M  V30 2495 N 243.887 0.651787 -1.4349 0
M  V30 2496 C 245.136 1.40754 -1.44469 0
M  V30 2497 C 245.449 1.95463 -0.0731845 0
M  V30 2498 O 246.655 2.71471 0.0395721 0
M  V30 2499 C 245.111 2.54735 -2.5424 0
M  V30 2500 C 244.719 2.06628 -3.97504 0
M  V30 2501 C 246.463 3.32092 -2.64414 0
M  V30 2502 C 244.37 3.17829 -4.98737 0
M  V30 2503 H 243.3 0.528862 -0.53742 0
M  V30 2504 H 245.951 0.703365 -1.69485 0
M  V30 2505 H 244.333 3.2763 -2.22428 0
M  V30 2506 H 245.507 1.40734 -4.38783 0
M  V30 2507 H 243.822 1.42146 -3.91387 0
M  V30 2508 H 246.419 4.14952 -3.37223 0
M  V30 2509 H 246.762 3.80217 -1.69532 0
M  V30 2510 H 247.295 2.66279 -2.95534 0
M  V30 2511 H 244.034 2.74671 -5.95177 0
M  V30 2512 H 243.554 3.82429 -4.62069 0
M  V30 2513 H 245.233 3.82937 -5.21505 0
M  V30 2514 N 245.365 1.30045 0.890287 0
M  V30 2515 C 246.613 1.18327 1.63839 0
M  V30 2516 C 246.934 -0.263455 1.93212 0
M  V30 2517 O 246.204 -1.17856 1.56482 0
M  V30 2518 H 244.784 0.434933 0.607324 0
M  V30 2519 H 247.446 1.631 1.06698 0
M  V30 2520 H 246.542 1.74024 2.59079 0
M  V30 2521 N 246.843 -1.10192 1.12674 0
M  V30 2522 C 248.083 -1.83825 0.893736 0
M  V30 2523 C 248.447 -1.83341 -0.570082 0
M  V30 2524 O 249.648 -2.52553 -0.920354 0
M  V30 2525 C 247.919 -3.26405 1.45582 0
M  V30 2526 S 249.478 -4.17136 1.36171 0
M  V30 2527 H 246.296 -0.633732 0.322342 0
M  V30 2528 H 248.898 -1.32581 1.43675 0
M  V30 2529 H 247.602 -3.24329 2.51473 0
M  V30 2530 H 247.133 -3.82721 0.910405 0
M  V30 2531 H 249.148 -4.95069 0.334863 0
M  V30 2532 N 248.321 -0.919034 -1.28029 0
M  V30 2533 C 249.268 -0.410005 -2.27129 0
M  V30 2534 C 250.238 0.518405 -1.57803 0
M  V30 2535 O 251.423 0.439451 -1.8567 0
M  V30 2536 C 248.563 0.339054 -3.4343 0
M  V30 2537 C 247.676 -0.622468 -4.27492 0
M  V30 2538 C 246.811 0.145567 -5.31001 0
M  V30 2539 C 245.85 -0.809226 -6.06727 0
M  V30 2540 N 244.987 -0.0743728 -7.02061 0
M  V30 2541 H 249.827 -1.26011 -2.70047 0
M  V30 2542 H 247.364 -0.632663 -1.328 0
M  V30 2543 H 249.322 0.789586 -4.0966 0
M  V30 2544 H 247.952 1.15346 -3.01488 0
M  V30 2545 H 247.004 -1.19153 -3.61257 0
M  V30 2546 H 248.316 -1.35252 -4.80113 0
M  V30 2547 H 247.47 0.656417 -6.03139 0
M  V30 2548 H 246.209 0.908643 -4.79161 0
M  V30 2549 H 245.214 -1.3314 -5.33436 0
M  V30 2550 H 246.439 -1.57194 -6.60656 0
M  V30 2551 H 244.385 0.670616 -6.52563 0
M  V30 2552 H 244.302 -0.744157 -7.52329 0
M  V30 2553 H 245.57 0.416109 -7.78389 0
M  V30 2554 N 249.799 1.42003 -0.683588 0
M  V30 2555 C 251.076 1.95112 -0.138075 0
M  V30 2556 C 251.456 1.62359 1.34918 0
M  V30 2557 O 250.804 0.924311 2.08971 0
M  V30 2558 C 251.014 3.46505 -0.416581 0
M  V30 2559 C 252.362 4.23254 -0.337834 0
M  V30 2560 O 253.386 3.54468 -0.35082 0
M  V30 2561 O 252.245 5.45743 -0.287596 0
M  V30 2562 H 249.339 0.826961 -0.00797996 0
M  V30 2563 H 251.885 1.51784 -0.758924 0
M  V30 2564 H 250.657 3.63582 -1.4465 0
M  V30 2565 H 250.28 3.969 0.235839 0
M  V30 2566 N 251.277 0.427512 1.51691 0
M  V30 2567 C 252.688 -0.0378867 1.86662 0
M  V30 2568 C 253.039 -1.42819 1.34525 0
M  V30 2569 O 252.164 -2.05037 0.692014 0
M  V30 2570 C 252.759 -0.0755266 3.38716 0
M  V30 2571 C 251.318 -0.485309 3.73258 0
M  V30 2572 C 250.465 0.328399 2.75349 0
M  V30 2573 H 253.416 0.64379 1.45055 0
M  V30 2574 H 253.437 -0.887056 3.70016 0
M  V30 2575 H 252.949 0.936487 3.76632 0
M  V30 2576 H 251.05 -1.50329 3.40928 0
M  V30 2577 H 251.163 -0.21693 4.78609 0
M  V30 2578 H 249.527 -0.211905 2.53817 0
M  V30 2579 H 250.31 1.3391 3.16106 0
M  V30 2580 N 252.755 -1.56801 0.158532 0
M  V30 2581 C 253.718 -2.16138 -0.762705 0
M  V30 2582 C 254.718 -1.1061 -1.16713 0
M  V30 2583 O 255.908 -1.36191 -1.08617 0
M  V30 2584 C 253.04 -2.73386 -2.03649 0
M  V30 2585 H 254.233 -2.98886 -0.246354 0
M  V30 2586 H 251.786 -1.56035 -0.0909744 0
M  V30 2587 H 252.521 -1.94335 -2.59623 0
M  V30 2588 H 252.306 -3.50601 -1.75559 0
M  V30 2589 H 253.796 -3.19065 -2.6942 0
M  V30 2590 N 254.233 0.115231 -1.57178 0
M  V30 2591 C 255.165 1.16694 -1.97269 0
M  V30 2592 C 256.178 1.37445 -0.872502 0
M  V30 2593 O 257.367 1.36454 -1.15077 0
M  V30 2594 C 254.467 2.52627 -2.25905 0
M  V30 2595 C 253.64 2.52427 -3.57211 0
M  V30 2596 C 252.699 3.70134 -3.74016 0
M  V30 2597 O 251.725 3.53546 -4.46087 0
M  V30 2598 N 252.927 4.88844 -3.13068 0
M  V30 2599 H 255.692 0.82588 -2.88096 0
M  V30 2600 H 253.253 0.304461 -1.59011 0
M  V30 2601 H 255.245 3.29937 -2.34359 0
M  V30 2602 H 253.815 2.789 -1.41186 0
M  V30 2603 H 253.035 1.60805 -3.5991 0
M  V30 2604 H 254.323 2.49353 -4.43509 0
M  V30 2605 H 253.721 5.05225 -2.54489 0
M  V30 2606 H 252.278 5.63817 -3.27037 0
M  V30 2607 N 255.711 1.52812 0.385517 0
M  V30 2608 C 256.959 1.67694 1.12797 0
M  V30 2609 C 257.28 0.421115 1.90399 0
M  V30 2610 O 256.55 -0.564551 1.87589 0
M  V30 2611 H 255.13 0.618155 0.419396 0
M  V30 2612 H 257.792 1.89938 0.436972 0
M  V30 2613 H 256.888 2.52896 1.82894 0
M  V30 2614 N 257.189 -0.644168 1.43834 0
M  V30 2615 C 258.121 -1.76955 1.45669 0
M  V30 2616 C 259.134 -1.58956 0.351666 0
M  V30 2617 O 260.323 -1.6751 0.616644 0
M  V30 2618 C 257.423 -3.14507 1.26248 0
M  V30 2619 C 256.596 -3.59083 2.49757 0
M  V30 2620 C 255.655 -4.75467 2.25427 0
M  V30 2621 O 254.681 -4.84444 2.98836 0
M  V30 2622 N 255.883 -5.66289 1.27661 0
M  V30 2623 H 258.648 -1.75856 2.42682 0
M  V30 2624 H 256.209 -0.828312 1.39106 0
M  V30 2625 H 258.201 -3.90067 1.0784 0
M  V30 2626 H 256.771 -3.10325 0.376478 0
M  V30 2627 H 255.991 -2.7387 2.8353 0
M  V30 2628 H 257.279 -3.85613 3.31934 0
M  V30 2629 H 256.677 -5.61718 0.670064 0
M  V30 2630 H 255.234 -6.41533 1.15234 0
M  V30 2631 N 258.668 -1.30515 -0.883378 0
M  V30 2632 C 259.598 -1.19607 -2.00541 0
M  V30 2633 C 260.579 -0.086346 -1.69881 0
M  V30 2634 O 261.764 -0.268654 -1.92333 0
M  V30 2635 C 258.894 -0.888758 -3.35736 0
M  V30 2636 C 257.848 -1.95659 -3.8066 0
M  V30 2637 C 257.174 -1.50224 -5.13164 0
M  V30 2638 C 258.474 -3.36788 -3.99213 0
M  V30 2639 H 260.168 -2.13476 -2.09925 0
M  V30 2640 H 257.714 -1.02775 -1.00863 0
M  V30 2641 H 259.667 -0.799094 -4.13754 0
M  V30 2642 H 258.391 0.0856125 -3.26488 0
M  V30 2643 H 257.05 -2.03591 -3.04871 0
M  V30 2644 H 256.698 -0.516092 -5.00345 0
M  V30 2645 H 256.398 -2.2165 -5.44192 0
M  V30 2646 H 257.922 -1.42639 -5.93706 0
M  V30 2647 H 259.336 -3.31605 -4.67665 0
M  V30 2648 H 257.733 -4.06314 -4.41621 0
M  V30 2649 H 258.803 -3.78561 -3.03017 0
M  V30 2650 N 260.146 1.09593 -1.13257 0
M  V30 2651 C 261.076 2.18214 -0.830946 0
M  V30 2652 C 262.057 1.68812 0.208966 0
M  V30 2653 O 263.242 1.9408 0.0682666 0
M  V30 2654 C 260.372 3.46051 -0.294296 0
M  V30 2655 C 259.326 4.08778 -1.26826 0
M  V30 2656 C 258.652 5.31419 -0.591449 0
M  V30 2657 C 259.952 4.51476 -2.62615 0
M  V30 2658 H 261.646 2.43703 -1.73923 0
M  V30 2659 H 259.192 1.17128 -0.837675 0
M  V30 2660 H 261.145 4.2134 -0.0709606 0
M  V30 2661 H 259.869 3.20079 0.649366 0
M  V30 2662 H 258.528 3.35505 -1.47756 0
M  V30 2663 H 258.176 5.01727 0.357633 0
M  V30 2664 H 257.876 5.74341 -1.24123 0
M  V30 2665 H 259.4 6.09433 -0.377355 0
M  V30 2666 H 260.814 5.17999 -2.45663 0
M  V30 2667 H 259.211 5.05277 -3.23752 0
M  V30 2668 H 260.281 3.63962 -3.20406 0
M  V30 2669 N 261.624 0.925811 1.2754 0
M  V30 2670 C 262.571 0.422045 2.26908 0
M  V30 2671 C 263.541 -0.510029 1.58076 0
M  V30 2672 O 264.726 -0.429599 1.85901 0
M  V30 2673 C 261.866 -0.320837 3.43605 0
M  V30 2674 C 260.979 0.64513 4.27156 0
M  V30 2675 C 260.114 -0.117405 5.3107 0
M  V30 2676 C 259.153 0.841391 6.0629 0
M  V30 2677 N 258.29 0.111604 7.02011 0
M  V30 2678 H 263.13 1.27441 2.69375 0
M  V30 2679 H 260.667 0.639697 1.32462 0
M  V30 2680 H 262.625 -0.76785 4.10073 0
M  V30 2681 H 261.255 -1.13745 3.02096 0
M  V30 2682 H 260.307 1.21067 3.6062 0
M  V30 2683 H 261.619 1.37797 4.79389 0
M  V30 2684 H 260.773 -0.624422 6.03478 0
M  V30 2685 H 259.512 -0.883219 4.79636 0
M  V30 2686 H 258.517 1.35967 5.32722 0
M  V30 2687 H 259.742 1.60696 6.59813 0
M  V30 2688 H 257.688 -0.635999 6.5291 0
M  V30 2689 H 257.605 0.784044 7.51923 0
M  V30 2690 H 258.873 -0.374823 7.78598 0
M  V30 2691 N 263.102 -1.41638 0.69111 0
M  V30 2692 C 264.012 -2.34588 0.0233487 0
M  V30 2693 C 265.028 -1.55987 -0.770984 0
M  V30 2694 O 266.204 -1.88486 -0.709569 0
M  V30 2695 C 263.269 -3.34684 -0.904851 0
M  V30 2696 C 262.33 -4.29176 -0.103225 0
M  V30 2697 C 261.563 -5.2449 -0.987216 0
M  V30 2698 O 261.786 -5.2514 -2.22674 0
M  V30 2699 O 260.72 -6.00295 -0.439281 0
M  V30 2700 H 264.546 -2.93261 0.789416 0
M  V30 2701 H 262.131 -1.42417 0.45142 0
M  V30 2702 H 264.013 -3.96133 -1.43724 0
M  V30 2703 H 262.688 -2.78461 -1.65049 0
M  V30 2704 H 261.595 -3.71089 0.473655 0
M  V30 2705 H 262.928 -4.88484 0.60365 0
M  V30 2706 N 264.58 -0.43555 -1.51462 0
M  V30 2707 C 265.51 0.367376 -2.30592 0
M  V30 2708 C 266.491 1.02263 -1.35928 0
M  V30 2709 O 267.676 1.02661 -1.64847 0
M  V30 2710 C 264.806 1.46983 -3.14664 0
M  V30 2711 C 263.76 0.938161 -4.17591 0
M  V30 2712 C 263.086 2.13622 -4.90173 0
M  V30 2713 C 264.386 -0.0261621 -5.22293 0
M  V30 2714 H 266.08 -0.292969 -2.97963 0
M  V30 2715 H 263.626 -0.14234 -1.43295 0
M  V30 2716 H 265.579 2.03873 -3.688 0
M  V30 2717 H 264.303 2.15843 -2.4511 0
M  V30 2718 H 262.962 0.391481 -3.64504 0
M  V30 2719 H 262.61 2.81098 -4.17124 0
M  V30 2720 H 262.31 1.78688 -5.59772 0
M  V30 2721 H 263.834 2.7107 -5.47132 0
M  V30 2722 H 265.248 0.452384 -5.71512 0
M  V30 2723 H 263.645 -0.287992 -5.99409 0
M  V30 2724 H 264.715 -0.963391 -4.75233 0
M  V30 2725 N 266.058 1.56714 -0.166846 0
M  V30 2726 C 266.991 2.13577 0.80375 0
M  V30 2727 C 267.969 1.06464 1.22899 0
M  V30 2728 O 269.153 1.34413 1.32157 0
M  V30 2729 C 266.28 2.67168 2.0818 0
M  V30 2730 C 265.326 3.86612 1.80093 0
M  V30 2731 S 266.159 5.26565 0.97416 0
M  V30 2732 C 267.315 5.83558 2.26297 0
M  V30 2733 H 267.548 2.9557 0.320267 0
M  V30 2734 H 265.081 1.54326 0.0477555 0
M  V30 2735 H 267.039 2.98692 2.8159 0
M  V30 2736 H 265.7 1.85269 2.53642 0
M  V30 2737 H 264.893 4.22422 2.7491 0
M  V30 2738 H 264.495 3.55951 1.14781 0
M  V30 2739 H 266.787 5.962 3.21795 0
M  V30 2740 H 267.73 6.80731 1.94962 0
M  V30 2741 H 268.138 5.11944 2.37853 0
M  V30 2742 N 267.536 -0.106894 1.57237 0
M  V30 2743 C 268.468 -1.15646 1.97885 0
M  V30 2744 C 269.481 -1.36981 0.879779 0
M  V30 2745 O 270.67 -1.35841 1.15799 0
M  V30 2746 C 267.77 -2.51425 2.27241 0
M  V30 2747 C 266.943 -2.50529 3.58545 0
M  V30 2748 C 266.002 -3.68145 3.75973 0
M  V30 2749 O 265.028 -3.51176 4.47956 0
M  V30 2750 N 266.23 -4.87177 3.15656 0
M  V30 2751 H 268.995 -0.81059 2.8853 0
M  V30 2752 H 266.556 -0.296024 1.59171 0
M  V30 2753 H 268.548 -3.28689 2.36105 0
M  V30 2754 H 267.118 -2.78147 1.42663 0
M  V30 2755 H 266.338 -1.58894 3.60758 0
M  V30 2756 H 267.626 -2.46997 4.44826 0
M  V30 2757 H 267.024 -5.03868 2.57165 0
M  V30 2758 H 265.581 -5.62075 3.30023 0
M  V30 2759 N 269.014 -1.53014 -0.377408 0
M  V30 2760 C 270.242 -1.72515 -1.14219 0
M  V30 2761 C 270.657 -0.448735 -1.8339 0
M  V30 2762 O 270.014 0.577592 -1.73119 0
M  V30 2763 C 270.065 -2.8826 -2.18148 0
M  V30 2764 O 269.786 -4.10962 -1.51795 0
M  V30 2765 C 271.287 -3.19536 -3.07264 0
M  V30 2766 H 268.507 -0.577301 -0.342001 0
M  V30 2767 H 271.051 -1.99712 -0.439935 0
M  V30 2768 H 269.206 -2.63492 -2.83991 0
M  V30 2769 H 269.62 -4.75693 -2.20945 0
M  V30 2770 H 271.094 -4.03959 -3.76193 0
M  V30 2771 H 271.571 -2.34403 -3.71419 0
M  V30 2772 H 272.177 -3.46186 -2.47053 0
M  V30 2773 N 270.492 0.636531 -1.44174 0
M  V30 2774 C 271.903 1.21806 -1.41493 0
M  V30 2775 C 272.254 1.95785 -0.1275 0
M  V30 2776 O 271.379 2.02147 0.772376 0
M  V30 2777 C 271.974 2.21551 -2.56321 0
M  V30 2778 C 270.533 2.75143 -2.56853 0
M  V30 2779 C 269.68 1.50052 -2.33195 0
M  V30 2780 H 272.631 0.427531 -1.52833 0
M  V30 2781 H 272.652 3.0405 -2.28765 0
M  V30 2782 H 272.164 1.67679 -3.50008 0
M  V30 2783 H 270.265 3.33033 -1.67093 0
M  V30 2784 H 270.378 3.2155 -3.55165 0
M  V30 2785 H 268.742 1.77993 -1.82183 0
M  V30 2786 H 269.525 0.980903 -3.28988 0
M  V30 2787 N 271.97 1.30982 0.876444 0
M  V30 2788 C 272.918 1.18006 2.00443 0
M  V30 2789 C 273.912 0.0898871 1.69161 0
M  V30 2790 O 275.118 0.251333 1.78237 0
M  V30 2791 H 271.493 0.365196 0.65737 0
M  V30 2792 H 273.464 2.13453 2.0852 0
M  V30 2793 C 272.213 0.897521 3.35916 0
M  V30 2794 H 271.536 1.7285 3.60504 0
M  V30 2795 H 272.976 0.846874 4.15456 0
M  V30 2796 C 271.435 -0.399674 3.34521 0
M  V30 2797 O 271.965 -1.41852 3.7582 0
M  V30 2798 N 270.171 -0.413893 2.87637 0
M  V30 2799 H 269.718 0.41571 2.54224 0
M  V30 2800 H 269.676 -1.28175 2.87086 0
M  V30 2801 N 273.449 -1.08991 1.13837 0
M  V30 2802 C 274.696 -1.81258 0.902882 0
M  V30 2803 C 275.024 -1.85936 -0.570803 0
M  V30 2804 O 274.279 -1.3267 -1.43865 0
M  V30 2805 C 274.578 -3.27042 1.44147 0
M  V30 2806 C 274.244 -3.4249 2.93276 0
M  V30 2807 C 272.906 -3.46414 3.33992 0
M  V30 2808 C 275.258 -3.4666 3.892 0
M  V30 2809 C 272.586 -3.52091 4.69307 0
M  V30 2810 C 274.938 -3.53872 5.24364 0
M  V30 2811 C 273.602 -3.56066 5.646 0
M  V30 2812 H 272.872 -0.663268 0.330388 0
M  V30 2813 H 275.519 -1.28368 1.42105 0
M  V30 2814 H 273.824 -3.82599 0.844097 0
M  V30 2815 H 275.521 -3.81499 1.23528 0
M  V30 2816 H 272.111 -3.40124 2.60794 0
M  V30 2817 H 276.295 -3.42865 3.58828 0
M  V30 2818 H 271.551 -3.52079 4.9985 0
M  V30 2819 H 275.725 -3.56043 5.98503 0
M  V30 2820 H 273.352 -3.60218 6.69438 0
M  V30 2821 N 274.927 -0.932562 -1.27047 0
M  V30 2822 C 276.343 -0.633544 -1.46487 0
M  V30 2823 C 276.543 0.815746 -1.84249 0
M  V30 2824 O 275.599 1.59319 -1.95892 0
M  V30 2825 C 276.912 -1.58758 -2.55375 0
M  V30 2826 C 278.46 -1.59634 -2.69232 0
M  V30 2827 C 278.935 -2.53747 -3.81283 0
M  V30 2828 N 280.426 -2.51982 -3.88664 0
M  V30 2829 C 281.161 -3.21491 -4.74796 0
M  V30 2830 N 280.657 -4.00395 -5.65381 0
M  V30 2831 N 282.45 -3.10485 -4.68568 0
M  V30 2832 H 274.601 -1.86946 -1.00821 0
M  V30 2833 H 276.864 -0.802897 -0.504044 0
M  V30 2834 H 276.57 -2.62172 -2.34432 0
M  V30 2835 H 276.444 -1.33301 -3.52861 0
M  V30 2836 H 278.831 -0.569488 -2.89553 0
M  V30 2837 H 278.912 -1.89142 -1.72218 0
M  V30 2838 H 278.556 -3.56545 -3.61715 0
M  V30 2839 H 278.486 -2.21532 -4.77735 0
M  V30 2840 H 280.977 -1.94681 -3.23895 0
M  V30 2841 H 281.29 -4.50406 -6.27976 0
M  V30 2842 H 279.635 -4.04498 -5.65161 0
M  V30 2843 H 282.826 -2.48331 -3.96799 0
M  V30 2844 H 282.999 -3.64925 -5.35475 0
M  V30 2845 N 276.405 1.4127 -0.698611 0
M  V30 2846 C 277.654 2.00408 -0.227949 0
M  V30 2847 C 277.967 1.55981 1.18023 0
M  V30 2848 O 279.173 2.07699 1.74852 0
M  V30 2849 C 277.629 3.58129 -0.356636 0
M  V30 2850 C 277.237 4.11536 -1.77037 0
M  V30 2851 C 278.981 4.24466 0.0540969 0
M  V30 2852 C 276.888 5.61701 -1.85055 0
M  V30 2853 H 275.818 0.749586 -0.0814657 0
M  V30 2854 H 278.469 1.61713 -0.867249 0
M  V30 2855 H 276.851 3.94442 0.350965 0
M  V30 2856 H 278.025 3.86636 -2.50698 0
M  V30 2857 H 276.34 3.57736 -2.13105 0
M  V30 2858 H 278.937 5.34698 0.0146723 0
M  V30 2859 H 279.28 4.01687 1.09332 0
M  V30 2860 H 279.813 3.93198 -0.603337 0
M  V30 2861 H 276.552 5.89312 -2.8704 0
M  V30 2862 H 276.072 5.88519 -1.15783 0
M  V30 2863 H 277.751 6.26524 -1.61484 0
M  V30 2864 N 277.883 0.443576 1.51229 0
M  V30 2865 C 279.111 -0.11929 2.06556 0
M  V30 2866 C 279.526 -1.35921 1.31038 0
M  V30 2867 O 278.883 -1.78675 0.371704 0
M  V30 2868 C 278.934 -0.435228 3.5887 0
M  V30 2869 O 278.655 0.755486 4.31537 0
M  V30 2870 C 280.156 -1.04808 4.30732 0
M  V30 2871 H 277.376 -0.0051584 0.67098 0
M  V30 2872 H 279.92 0.624453 1.94733 0
M  V30 2873 H 278.075 -1.12887 3.70588 0
M  V30 2874 H 278.489 0.483491 5.22267 0
M  V30 2875 H 279.963 -1.2191 5.3837 0
M  V30 2876 H 280.44 -2.03081 3.89429 0
M  V30 2877 H 281.046 -0.393637 4.23474 0
M  V30 2878 N 279.361 -1.56624 0.175154 0
M  V30 2879 C 280.607 -1.9729 -0.469506 0
M  V30 2880 C 280.94 -1.06128 -1.62636 0
M  V30 2881 O 280.215 -0.109183 -1.94193 0
M  V30 2882 C 280.498 -3.47375 -0.948804 0
M  V30 2883 C 280.351 -4.49317 0.208491 0
M  V30 2884 C 281.67 -4.00652 -1.82116 0
M  V30 2885 H 278.789 -0.717317 -0.16919 0
M  V30 2886 H 281.431 -1.88184 0.262062 0
M  V30 2887 H 279.581 -3.55267 -1.57219 0
M  V30 2888 H 281.253 -4.53482 0.845682 0
M  V30 2889 H 279.496 -4.25121 0.863395 0
M  V30 2890 H 280.167 -5.51741 -0.169059 0
M  V30 2891 H 282.643 -3.95416 -1.2956 0
M  V30 2892 H 281.519 -5.06075 -2.12554 0
M  V30 2893 H 281.78 -3.44699 -2.7683 0
M  V30 2894 N 280.839 0.0985539 -1.57292 0
M  V30 2895 C 282.085 0.803867 -1.86188 0
M  V30 2896 C 282.418 1.78549 -0.763794 0
M  V30 2897 O 281.693 1.93153 0.22855 0
M  V30 2898 C 281.976 1.53568 -3.25713 0
M  V30 2899 C 281.829 0.572277 -4.46145 0
M  V30 2900 C 283.148 2.48708 -3.63087 0
M  V30 2901 H 280.267 0.290781 -0.677211 0
M  V30 2902 H 282.909 0.0675783 -1.8988 0
M  V30 2903 H 281.059 2.16332 -3.22696 0
M  V30 2904 H 282.731 -0.0480894 -4.61275 0
M  V30 2905 H 280.974 -0.114618 -4.33649 0
M  V30 2906 H 281.645 1.12139 -5.40489 0
M  V30 2907 H 284.121 1.96039 -3.67026 0
M  V30 2908 H 282.997 2.96932 -4.61652 0
M  V30 2909 H 283.258 3.32309 -2.91588 0
M  V30 2910 N 282.317 1.53212 0.369288 0
M  V30 2911 C 283.249 1.75668 1.47219 0
M  V30 2912 C 284.262 0.637387 1.49804 0
M  V30 2913 O 285.451 0.913561 1.5335 0
M  V30 2914 C 282.551 1.81818 2.85999 0
M  V30 2915 C 281.724 3.11409 3.07153 0
M  V30 2916 C 280.783 3.08849 4.26026 0
M  V30 2917 O 279.809 3.82659 4.2138 0
M  V30 2918 N 281.011 2.29409 5.33246 0
M  V30 2919 H 283.776 2.70832 1.28337 0
M  V30 2920 H 281.337 1.51944 0.55898 0
M  V30 2921 H 283.329 1.77588 3.63655 0
M  V30 2922 H 281.899 0.939544 2.98146 0
M  V30 2923 H 281.119 3.28971 2.1719 0
M  V30 2924 H 282.407 3.97059 3.18154 0
M  V30 2925 H 281.805 1.68946 5.39883 0
M  V30 2926 H 280.362 2.31001 6.09493 0
M  V30 2927 N 283.795 -0.628877 1.44509 0
M  V30 2928 C 284.705 -1.7694 1.54044 0
M  V30 2929 C 285.721 -1.68705 0.425987 0
M  V30 2930 O 286.897 -1.89442 0.683656 0
M  V30 2931 C 283.962 -3.13332 1.48405 0
M  V30 2932 C 283.023 -3.33181 2.70719 0
M  V30 2933 C 282.256 -4.63067 2.6534 0
M  V30 2934 O 282.479 -5.44017 1.71469 0
M  V30 2935 O 281.413 -4.85167 3.56226 0
M  V30 2936 H 285.239 -1.71848 2.50403 0
M  V30 2937 H 282.824 -0.790378 1.26781 0
M  V30 2938 H 284.706 -3.94634 1.47791 0
M  V30 2939 H 283.381 -3.1896 0.551898 0
M  V30 2940 H 282.288 -2.51549 2.769 0
M  V30 2941 H 283.621 -3.32416 3.62988 0
M  V30 2942 N 285.273 -1.31445 -0.869486 0
M  V30 2943 C 286.519 -1.21337 -1.62496 0
M  V30 2944 C 286.852 0.227872 -1.92858 0
M  V30 2945 O 286.127 1.16094 -1.56053 0
M  V30 2946 C 286.41 -2.05814 -2.95487 0
M  V30 2947 C 286.263 -3.5824 -2.72 0
M  V30 2948 C 287.582 -1.9079 -3.96594 0
M  V30 2949 H 284.701 -0.442135 -0.589649 0
M  V30 2950 H 287.343 -1.6124 -1.00507 0
M  V30 2951 H 285.493 -1.71913 -3.48394 0
M  V30 2952 H 287.165 -4.0228 -2.25762 0
M  V30 2953 H 285.408 -3.81647 -2.06224 0
M  V30 2954 H 286.079 -4.12657 -3.66631 0
M  V30 2955 H 288.555 -2.20459 -3.52898 0
M  V30 2956 H 287.431 -2.52199 -4.87531 0
M  V30 2957 H 287.692 -0.871341 -4.33428 0
M  V30 2958 N 286.751 1.08385 -1.14413 0
M  V30 2959 C 288.028 1.77429 -0.823297 0
M  V30 2960 C 288.408 1.9974 0.683163 0
M  V30 2961 O 287.756 1.60739 1.62405 0
M  V30 2962 C 287.966 3.09004 -1.62227 0
M  V30 2963 C 289.314 3.83532 -1.82177 0
M  V30 2964 O 290.338 3.18786 -1.58915 0
M  V30 2965 O 289.197 4.99792 -2.21067 0
M  V30 2966 H 286.291 0.769999 -0.301712 0
M  V30 2967 H 288.837 1.14846 -1.24934 0
M  V30 2968 H 287.609 2.88316 -2.64555 0
M  V30 2969 H 287.232 3.79316 -1.19187 0
M  V30 2970 N 288.23 0.939286 1.26551 0
M  V30 2971 C 289.458 0.602536 1.97932 0
M  V30 2972 C 289.873 -0.82206 1.69964 0
M  V30 2973 O 289.23 -1.54789 0.966784 0
M  V30 2974 C 289.281 0.832946 3.51773 0
M  V30 2975 O 289.002 2.20151 3.78768 0
M  V30 2976 C 290.503 0.506483 4.40397 0
M  V30 2977 H 287.723 0.227248 0.631347 0
M  V30 2978 H 290.267 1.25948 1.61113 0
M  V30 2979 H 288.422 0.222644 3.8676 0
M  V30 2980 H 288.836 2.26013 4.73306 0
M  V30 2981 H 290.31 0.718333 5.47306 0
M  V30 2982 H 290.787 -0.558451 4.35635 0
M  V30 2983 H 291.393 1.09543 4.10951 0
M  V30 2984 N 289.708 -1.40897 0.706093 0
M  V30 2985 C 290.954 -2.01352 0.241889 0
M  V30 2986 C 291.287 -1.55832 -1.15888 0
M  V30 2987 O 290.562 -0.774145 -1.7843 0
M  V30 2988 C 290.845 -3.58752 0.311311 0
M  V30 2989 C 290.698 -4.1437 1.74978 0
M  V30 2990 C 292.017 -4.38914 -0.322922 0
M  V30 2991 H 289.136 -0.731562 0.0893687 0
M  V30 2992 H 291.778 -1.67504 0.896802 0
M  V30 2993 H 289.928 -3.87718 -0.246302 0
M  V30 2994 H 291.6 -3.96239 2.36205 0
M  V30 2995 H 289.843 -3.69016 2.28057 0
M  V30 2996 H 290.514 -5.23532 1.74981 0
M  V30 2997 H 292.99 -4.15822 0.152089 0
M  V30 2998 H 291.866 -5.48358 -0.243855 0
M  V30 2999 H 292.127 -4.19176 -1.40513 0
M  V30 3000 N 291.186 -0.45159 -1.50991 0
M  V30 3001 C 292.096 0.358431 -2.31846 0
M  V30 3002 C 293.112 1.01438 -1.41373 0
M  V30 3003 O 294.288 1.00663 -1.74439 0
M  V30 3004 C 291.353 1.43704 -3.15515 0
M  V30 3005 C 290.414 0.799742 -4.21785 0
M  V30 3006 C 289.647 1.82696 -5.01456 0
M  V30 3007 O 289.87 3.05105 -4.81941 0
M  V30 3008 O 288.804 1.40958 -5.85162 0
M  V30 3009 H 292.63 -0.302032 -3.02194 0
M  V30 3010 H 290.215 -0.213825 -1.47862 0
M  V30 3011 H 292.097 2.06227 -3.67489 0
M  V30 3012 H 290.772 2.08133 -2.47916 0
M  V30 3013 H 289.679 0.136084 -3.73852 0
M  V30 3014 H 291.012 0.198718 -4.91799 0
M  V30 3015 N 292.664 1.56529 -0.183458 0
M  V30 3016 C 293.913 1.96419 0.458511 0
M  V30 3017 C 294.226 1.0727 1.63562 0
M  V30 3018 O 295.432 1.36893 2.34462 0
M  V30 3019 C 293.888 3.49298 0.867122 0
M  V30 3020 C 293.496 4.47092 -0.285057 0
M  V30 3021 C 295.24 3.97983 1.47683 0
M  V30 3022 C 293.147 5.91225 0.143862 0
M  V30 3023 H 292.077 0.733394 0.175071 0
M  V30 3024 H 294.728 1.81448 -0.273624 0
M  V30 3025 H 293.11 3.59731 1.65559 0
M  V30 3026 H 294.284 4.48383 -1.0625 0
M  V30 3027 H 292.599 4.08535 -0.805503 0
M  V30 3028 H 295.196 5.03134 1.80999 0
M  V30 3029 H 295.539 3.41618 2.37914 0
M  V30 3030 H 296.072 3.90617 0.752562 0
M  V30 3031 H 292.811 6.5149 -0.723974 0
M  V30 3032 H 292.331 5.93214 0.886413 0
M  V30 3033 H 294.01 6.44362 0.583628 0
M  V30 3034 N 294.142 -0.090211 1.57342 0
M  V30 3035 C 295.382 -0.798365 1.88163 0
M  V30 3036 C 295.746 -1.75662 0.775046 0
M  V30 3037 O 296.947 -2.50849 0.965816 0
M  V30 3038 C 295.218 -1.50376 3.24225 0
M  V30 3039 S 296.777 -2.24952 3.76752 0
M  V30 3040 H 293.595 -0.265883 0.659414 0
M  V30 3041 H 296.197 -0.055264 1.95422 0
M  V30 3042 H 294.901 -0.792286 4.0268 0
M  V30 3043 H 294.432 -2.28666 3.20118 0
M  V30 3044 H 296.447 -3.51173 3.5056 0
M  V30 3045 N 295.62 -1.53406 -0.361157 0
M  V30 3046 C 296.868 -1.69467 -1.10115 0
M  V30 3047 C 297.189 -0.451352 -1.89705 0
M  V30 3048 O 296.459 0.534636 -1.88463 0
M  V30 3049 H 295.039 -0.624749 -0.409508 0
M  V30 3050 H 297.701 -1.90609 -0.406699 0
M  V30 3051 H 296.797 -2.55774 -1.78847 0
M  V30 3052 N 297.098 0.621204 -1.44841 0
M  V30 3053 C 298.061 1.71459 -1.521 0
M  V30 3054 C 299.061 1.55696 -0.401933 0
M  V30 3055 O 300.251 1.61011 -0.664925 0
M  V30 3056 C 297.383 3.10624 -1.40447 0
M  V30 3057 H 298.576 1.66394 -2.49506 0
M  V30 3058 H 296.129 0.835745 -1.3208 0
M  V30 3059 H 296.864 3.21277 -0.441737 0
M  V30 3060 H 296.649 3.23473 -2.21602 0
M  V30 3061 H 298.139 3.90293 -1.4853 0
M  V30 3062 N 298.576 1.31904 0.862503 0
M  V30 3063 C 299.506 1.22782 1.98612 0
M  V30 3064 C 300.487 0.113362 1.69722 0
M  V30 3065 O 301.672 0.299218 1.91881 0
M  V30 3066 C 298.802 0.942058 3.34279 0
M  V30 3067 C 297.756 2.0169 3.77499 0
M  V30 3068 C 297.082 1.58369 5.10709 0
M  V30 3069 C 298.382 3.43096 3.93805 0
M  V30 3070 H 300.076 2.16788 2.06502 0
M  V30 3071 H 297.622 1.04366 0.992154 0
M  V30 3072 H 299.575 0.864818 4.1243 0
M  V30 3073 H 298.299 -0.0336603 3.26583 0
M  V30 3074 H 296.958 2.08416 3.01593 0
M  V30 3075 H 296.606 0.595628 4.99461 0
M  V30 3076 H 296.306 2.30279 5.40597 0
M  V30 3077 H 297.83 1.52067 5.91361 0
M  V30 3078 H 299.244 3.39003 4.62331 0
M  V30 3079 H 297.641 4.13288 4.35101 0
M  V30 3080 H 298.711 3.83334 2.96957 0
M  V30 3081 N 300.054 -1.07777 1.14986 0
M  V30 3082 C 301.001 -2.14867 0.842672 0
M  V30 3083 C 301.971 -1.6486 -0.202552 0
M  V30 3084 O 303.156 -1.90668 -0.0710568 0
M  V30 3085 C 300.296 -3.43486 0.333363 0
M  V30 3086 C 299.409 -4.07306 1.43965 0
M  V30 3087 C 298.544 -5.23744 0.886914 0
M  V30 3088 C 297.583 -5.79517 1.97043 0
M  V30 3089 N 296.72 -6.87291 1.4344 0
M  V30 3090 H 301.56 -2.40485 1.75986 0
M  V30 3091 H 299.097 -1.1801 0.878179 0
M  V30 3092 H 301.055 -4.17195 0.0198163 0
M  V30 3093 H 299.685 -3.18133 -0.546916 0
M  V30 3094 H 298.737 -3.31293 1.86946 0
M  V30 3095 H 300.049 -4.44771 2.25788 0
M  V30 3096 H 299.203 -6.04419 0.525651 0
M  V30 3097 H 297.942 -4.87685 0.0377957 0
M  V30 3098 H 296.947 -4.97491 2.34057 0
M  V30 3099 H 298.172 -6.17632 2.82325 0
M  V30 3100 H 296.118 -6.5318 0.607567 0
M  V30 3101 H 296.035 -7.23617 2.18895 0
M  V30 3102 H 297.303 -7.71682 1.10124 0
M  V30 3103 N 301.532 -0.945985 -1.26051 0
M  V30 3104 C 302.48 -0.450259 -2.282 0
M  V30 3105 C 303.474 0.47497 -1.62605 0
M  V30 3106 O 304.68 0.352653 -1.76512 0
M  V30 3107 H 301.055 -0.127081 -0.741184 0
M  V30 3108 H 303.026 -1.32422 -2.67408 0
M  V30 3109 C 301.775 0.26467 -3.46691 0
M  V30 3110 H 301.098 -0.438123 -3.97392 0
M  V30 3111 H 302.538 0.575678 -4.20074 0
M  V30 3112 C 300.997 1.48416 -3.02447 0
M  V30 3113 O 301.527 2.58227 -3.07704 0
M  V30 3114 N 299.733 1.34243 -2.57735 0
M  V30 3115 H 299.28 0.448994 -2.53657 0
M  V30 3116 H 299.238 2.15957 -2.28495 0
M  V30 3117 N 303.011 1.40521 -0.713556 0
M  V30 3118 C 304.257 2.01221 -0.252564 0
M  V30 3119 C 304.59 1.56444 1.1506 0
M  V30 3120 O 303.865 0.783597 1.78017 0
M  V30 3121 C 304.148 3.58582 -0.330332 0
M  V30 3122 C 304.001 4.13437 -1.77173 0
M  V30 3123 C 305.32 4.39079 0.299641 0
M  V30 3124 H 302.439 0.731077 -0.0932471 0
M  V30 3125 H 305.081 1.67026 -0.905673 0
M  V30 3126 H 303.231 3.87844 0.225737 0
M  V30 3127 H 304.903 3.9498 -2.38303 0
M  V30 3128 H 303.146 3.67801 -2.3001 0
M  V30 3129 H 303.817 5.22597 -1.77755 0
M  V30 3130 H 306.293 4.15735 -0.174139 0
M  V30 3131 H 305.169 5.4848 0.214771 0
M  V30 3132 H 305.43 4.19915 1.38288 0
M  V30 3133 N 304.489 0.459591 1.5075 0
M  V30 3134 C 305.735 -0.0994966 2.02556 0
M  V30 3135 C 306.068 -1.40399 1.3417 0
M  V30 3136 O 305.343 -1.88892 0.463683 0
M  V30 3137 C 305.626 -0.295242 3.58888 0
M  V30 3138 C 305.479 1.02947 4.37861 0
M  V30 3139 C 306.798 -1.05502 4.27267 0
M  V30 3140 H 303.917 -0.034686 0.736183 0
M  V30 3141 H 306.559 0.602938 1.8018 0
M  V30 3142 H 304.709 -0.893563 3.78084 0
M  V30 3143 H 306.381 1.66348 4.30263 0
M  V30 3144 H 304.624 1.62885 4.02058 0
M  V30 3145 H 305.295 0.846281 5.45474 0
M  V30 3146 H 307.771 -0.547993 4.12476 0
M  V30 3147 H 306.647 -1.16077 5.36486 0
M  V30 3148 H 306.908 -2.08875 3.89645 0
M  V30 3149 N 305.967 -1.56429 0.191757 0
M  V30 3150 C 306.93 -2.17707 -0.716688 0
M  V30 3151 C 307.93 -1.13061 -1.14341 0
M  V30 3152 O 309.12 -1.38464 -1.05704 0
M  V30 3153 C 306.252 -2.77644 -1.97804 0
M  V30 3154 H 307.445 -2.99342 -0.1829 0
M  V30 3155 H 304.998 -1.56193 -0.0578566 0
M  V30 3156 H 305.733 -1.99799 -2.55443 0
M  V30 3157 H 305.518 -3.54246 -1.68083 0
M  V30 3158 H 307.008 -3.24708 -2.62592 0
M  V30 3159 N 307.445 0.0818655 -1.57387 0
M  V30 3160 C 308.691 0.784074 -1.8703 0
M  V30 3161 C 309.024 1.77729 -0.782689 0
M  V30 3162 O 308.299 1.93384 0.208051 0
M  V30 3163 C 308.582 1.50105 -3.27323 0
M  V30 3164 C 308.435 0.524925 -4.46727 0
M  V30 3165 C 309.754 2.44843 -3.65705 0
M  V30 3166 H 306.873 0.283582 -0.680257 0
M  V30 3167 H 309.515 0.0474352 -1.89941 0
M  V30 3168 H 307.665 2.12897 -3.24972 0
M  V30 3169 H 309.337 -0.0970111 -4.61198 0
M  V30 3170 H 307.58 -0.160606 -4.33503 0
M  V30 3171 H 308.251 1.064 -5.41648 0
M  V30 3172 H 310.727 1.92135 -3.69085 0
M  V30 3173 H 309.603 2.92018 -4.64776 0
M  V30 3174 H 309.864 3.29197 -2.95096 0
M  V30 3175 N 308.923 1.53595 0.353017 0
M  V30 3176 C 310.171 1.70049 1.09215 0
M  V30 3177 C 310.492 0.461406 1.89463 0
M  V30 3178 O 309.762 -0.524633 1.88744 0
M  V30 3179 H 308.342 0.626912 0.40619 0
M  V30 3180 H 311.004 1.90822 0.396585 0
M  V30 3181 H 310.1 2.56718 1.77488 0
M  V30 3182 N 310.401 -0.613514 1.45168 0
M  V30 3183 C 311.364 -1.7065 1.53007 0
M  V30 3184 C 312.364 -1.5548 0.410184 0
M  V30 3185 O 313.554 -1.60656 0.673455 0
M  V30 3186 C 310.686 -3.09875 1.42093 0
M  V30 3187 H 311.879 -1.65068 2.50385 0
M  V30 3188 H 309.432 -0.828728 1.32521 0
M  V30 3189 H 310.167 -3.21039 0.458769 0
M  V30 3190 H 309.952 -3.22293 2.23315 0
M  V30 3191 H 311.442 -3.895 1.50598 0
M  V30 3192 N 311.879 -1.3236 -0.855495 0
M  V30 3193 C 313.127 -1.22629 -1.60644 0
M  V30 3194 C 313.448 0.212136 -1.93843 0
M  V30 3195 O 312.718 1.13666 -1.59552 0
M  V30 3196 H 311.298 -0.450882 -0.595579 0
M  V30 3197 H 313.96 -1.65871 -1.02337 0
M  V30 3198 H 313.056 -1.80832 -2.54374 0
M  V30 3199 N 313.357 1.07166 -1.15556 0
M  V30 3200 C 314.604 1.79798 -0.931604 0
M  V30 3201 C 314.932 1.8682 0.54115 0
M  V30 3202 O 314.187 1.34942 1.41736 0
M  V30 3203 C 314.486 3.24707 -1.49332 0
M  V30 3204 C 314.152 3.37781 -2.98688 0
M  V30 3205 C 312.814 3.41057 -3.39461 0
M  V30 3206 C 315.166 3.40424 -3.94665 0
M  V30 3207 C 312.494 3.4458 -4.74849 0
M  V30 3208 C 314.846 3.45485 -5.29927 0
M  V30 3209 C 313.51 3.47039 -5.70193 0
M  V30 3210 H 312.78 0.657928 -0.340898 0
M  V30 3211 H 315.427 1.26091 -1.44129 0
M  V30 3212 H 313.732 3.81208 -0.904859 0
M  V30 3213 H 315.429 3.79486 -1.29582 0
M  V30 3214 H 312.019 3.35932 -2.66172 0
M  V30 3215 H 316.203 3.37113 -3.64237 0
M  V30 3216 H 311.459 3.44083 -5.05388 0
M  V30 3217 H 315.633 3.46476 -6.04092 0
M  V30 3218 H 313.26 3.49522 -6.75084 0
M  V30 3219 N 314.835 0.952656 1.25548 0
M  V30 3220 C 316.075 0.614013 1.9496 0
M  V30 3221 C 316.439 -0.833215 1.72978 0
M  V30 3222 O 317.64 -1.28135 2.36294 0
M  V30 3223 C 315.911 0.960562 3.4425 0
M  V30 3224 S 317.47 0.734195 4.32614 0
M  V30 3225 H 314.288 0.225754 0.674208 0
M  V30 3226 H 316.89 1.22641 1.52248 0
M  V30 3227 H 315.594 2.01103 3.57751 0
M  V30 3228 H 315.125 0.338336 3.91942 0
M  V30 3229 H 317.14 -0.395995 4.94617 0
M  V30 3230 N 316.313 -1.40141 0.720998 0
M  V30 3231 C 317.59 -1.94677 0.189757 0
M  V30 3232 C 317.97 -1.65879 -1.30566 0
M  V30 3233 O 317.318 -0.979391 -2.06447 0
M  V30 3234 C 317.528 -3.45279 0.508304 0
M  V30 3235 C 318.876 -4.22209 0.449934 0
M  V30 3236 O 319.9 -3.53413 0.444677 0
M  V30 3237 O 318.759 -5.44788 0.432189 0
M  V30 3238 H 315.853 -0.826459 0.0299026 0
M  V30 3239 H 318.399 -1.49719 0.7989 0
M  V30 3240 H 317.171 -3.59619 1.54239 0
M  V30 3241 H 316.794 -3.97386 -0.130525 0
M  V30 3242 N 317.792 -0.46758 -1.50504 0
M  V30 3243 C 319.04 0.0884469 -2.01906 0
M  V30 3244 C 319.361 1.40532 -1.35188 0
M  V30 3245 O 318.631 1.89515 -0.496079 0
M  V30 3246 H 317.211 0.0356765 -0.746148 0
M  V30 3247 H 319.873 -0.6172 -1.84869 0
M  V30 3248 H 318.969 0.2425 -3.11156 0
M  V30 3249 N 319.27 1.56325 -0.20005 0
M  V30 3250 C 320.2 2.22318 0.713916 0
M  V30 3251 C 321.181 1.18788 1.21752 0
M  V30 3252 O 322.366 1.47309 1.26545 0
M  V30 3253 C 319.496 2.88639 1.93144 0
M  V30 3254 C 318.45 3.98457 1.56255 0
M  V30 3255 C 317.776 4.51967 2.85709 0
M  V30 3256 C 319.076 5.16612 0.768747 0
M  V30 3257 H 320.77 2.98952 0.163755 0
M  V30 3258 H 318.316 1.43792 0.0773219 0
M  V30 3259 H 320.269 3.33491 2.57608 0
M  V30 3260 H 318.993 2.09419 2.50621 0
M  V30 3261 H 317.652 3.54305 0.941471 0
M  V30 3262 H 317.3 3.69503 3.41287 0
M  V30 3263 H 317 5.26071 2.6177 0
M  V30 3264 H 318.524 4.99523 3.51154 0
M  V30 3265 H 319.938 5.57977 1.3166 0
M  V30 3266 H 318.335 5.96812 0.627286 0
M  V30 3267 H 319.405 4.84358 -0.229168 0
M  V30 3268 N 320.748 -0.0735177 1.57428 0
M  V30 3269 C 321.996 -0.771472 1.86796 0
M  V30 3270 C 322.317 -1.78201 0.791804 0
M  V30 3271 O 321.587 -1.95074 -0.179718 0
M  V30 3272 H 320.167 -0.28791 0.689287 0
M  V30 3273 H 322.829 -0.0500161 1.94836 0
M  V30 3274 H 321.925 -1.28874 2.8425 0
M  V30 3275 N 322.226 -1.5378 -0.344866 0
M  V30 3276 C 323.473 -1.70963 -1.08526 0
M  V30 3277 C 323.801 -0.472126 -1.88683 0
M  V30 3278 O 323.056 0.546116 -1.87926 0
M  V30 3279 C 323.355 -2.92407 -2.05506 0
M  V30 3280 C 323.021 -4.28066 -1.41671 0
M  V30 3281 C 321.683 -4.64951 -1.2399 0
M  V30 3282 C 324.035 -5.12344 -0.956726 0
M  V30 3283 C 321.363 -5.83733 -0.589277 0
M  V30 3284 C 323.715 -6.3179 -0.320015 0
M  V30 3285 C 322.379 -6.67372 -0.130881 0
M  V30 3286 H 321.649 -0.625598 -0.397124 0
M  V30 3287 H 324.296 -1.87995 -0.36469 0
M  V30 3288 H 322.601 -2.69973 -2.8394 0
M  V30 3289 H 324.298 -3.02895 -2.62784 0
M  V30 3290 H 320.888 -3.99034 -1.56429 0
M  V30 3291 H 325.072 -4.8438 -1.08118 0
M  V30 3292 H 320.328 -6.09877 -0.431344 0
M  V30 3293 H 324.502 -6.96386 0.0445072 0
M  V30 3294 H 322.129 -7.59273 0.375318 0
M  V30 3295 N 323.704 0.605807 -1.45491 0
M  V30 3296 C 324.952 1.36207 -1.49305 0
M  V30 3297 C 325.273 1.94519 -0.136863 0
M  V30 3298 O 324.543 1.77261 0.833983 0
M  V30 3299 H 323.123 0.50565 -0.549843 0
M  V30 3300 H 325.785 0.711239 -1.81459 0
M  V30 3301 H 324.881 2.18058 -2.23287 0
M  V30 3302 N 325.182 1.32811 0.848464 0
M  V30 3303 C 326.459 1.14334 1.58704 0
M  V30 3304 C 326.839 -0.293948 2.09043 0
M  V30 3305 O 326.187 -1.29153 1.88499 0
M  V30 3306 C 326.397 2.17626 2.72837 0
M  V30 3307 C 327.745 2.51282 3.42261 0
M  V30 3308 O 328.769 2.16219 2.83068 0
M  V30 3309 O 327.628 3.11413 4.49093 0
M  V30 3310 H 324.722 0.441601 0.699226 0
M  V30 3311 H 327.268 1.44362 0.892053 0
M  V30 3312 H 326.04 3.14211 2.3321 0
M  V30 3313 H 325.663 1.88628 3.50008 0
M  V30 3314 N 326.66 -1.06551 1.16123 0
M  V30 3315 C 327.608 -2.16063 0.861371 0
M  V30 3316 C 328.602 -1.6856 -0.168517 0
M  V30 3317 O 329.808 -1.79986 -0.0227579 0
M  V30 3318 H 326.183 -0.705278 0.260934 0
M  V30 3319 H 328.154 -2.38567 1.79244 0
M  V30 3320 C 326.903 -3.45661 0.376018 0
M  V30 3321 H 326.226 -3.82604 1.15992 0
M  V30 3322 H 327.666 -4.23504 0.204951 0
M  V30 3323 C 326.125 -3.24546 -0.903954 0
M  V30 3324 O 326.655 -3.49865 -1.97377 0
M  V30 3325 N 324.861 -2.77992 -0.846679 0
M  V30 3326 H 324.408 -2.57589 0.0241017 0
M  V30 3327 H 324.366 -2.64244 -1.70359 0
M  V30 3328 N 328.138 -0.959301 -1.25041 0
M  V30 3329 C 329.366 -0.633949 -1.96948 0
M  V30 3330 C 329.781 0.794916 -1.7125 0
M  V30 3331 O 329.138 1.53231 -0.991287 0
M  V30 3332 C 329.189 -0.888805 -3.50403 0
M  V30 3333 O 328.91 -2.26149 -3.75218 0
M  V30 3334 C 330.411 -0.576482 -4.39536 0
M  V30 3335 H 327.631 -0.237263 -0.627652 0
M  V30 3336 H 330.175 -1.28495 -1.59089 0
M  V30 3337 H 328.33 -0.284145 -3.86357 0
M  V30 3338 H 328.744 -2.33514 -4.6965 0
M  V30 3339 H 330.218 -0.805314 -5.46094 0
M  V30 3340 H 330.695 0.489075 -4.36468 0
M  V30 3341 H 331.301 -1.16067 -4.09156 0
M  V30 3342 N 329.616 1.39756 -0.72842 0
M  V30 3343 C 330.563 2.30647 -0.0841519 0
M  V30 3344 C 331.533 1.48869 0.7367 0
M  V30 3345 O 332.718 1.77574 0.698015 0
M  V30 3346 C 329.858 3.35165 0.822091 0
M  V30 3347 C 328.971 4.31999 -0.0106663 0
M  V30 3348 C 328.106 5.23585 0.896241 0
M  V30 3349 C 327.145 6.12072 0.0583381 0
M  V30 3350 N 326.282 6.96035 0.920818 0
M  V30 3351 H 331.122 2.85173 -0.864891 0
M  V30 3352 H 328.659 1.40422 -0.438179 0
M  V30 3353 H 330.617 3.94345 1.36189 0
M  V30 3354 H 329.247 2.8211 1.56888 0
M  V30 3355 H 328.299 3.74492 -0.66781 0
M  V30 3356 H 329.611 4.9443 -0.658825 0
M  V30 3357 H 328.765 5.87759 1.50412 0
M  V30 3358 H 327.504 4.61459 1.57819 0
M  V30 3359 H 326.509 5.46916 -0.562389 0
M  V30 3360 H 327.734 6.76261 -0.6203 0
M  V30 3361 H 325.68 6.36485 1.58818 0
M  V30 3362 H 325.597 7.55284 0.32899 0
M  V30 3363 H 326.865 7.64646 1.51447 0
M  V30 3364 N 331.094 0.475555 1.50254 0
M  V30 3365 C 332.057 -0.305016 2.27161 0
M  V30 3366 C 333.057 -0.916519 1.32123 0
M  V30 3367 O 334.247 -0.785003 1.5551 0
M  V30 3368 C 331.379 -1.43496 3.09227 0
M  V30 3369 H 332.572 0.369511 2.97615 0
M  V30 3370 H 330.125 0.229747 1.54602 0
M  V30 3371 H 330.86 -2.14441 2.43281 0
M  V30 3372 H 330.645 -1.00223 3.79075 0
M  V30 3373 H 332.135 -1.98548 3.67381 0
M  V30 3374 N 332.573 -1.56217 0.208337 0
M  V30 3375 C 333.536 -2.18455 -0.693557 0
M  V30 3376 C 334.536 -1.14268 -1.13135 0
M  V30 3377 O 335.726 -1.39577 -1.0423 0
M  V30 3378 C 332.858 -2.79727 -1.94848 0
M  V30 3379 H 334.051 -2.99519 -0.15114 0
M  V30 3380 H 331.604 -1.56245 -0.041287 0
M  V30 3381 H 332.339 -2.02497 -2.53309 0
M  V30 3382 H 332.124 -3.56009 -1.64316 0
M  V30 3383 H 333.614 -3.27475 -2.59133 0
M  V30 3384 N 334.051 0.0651679 -1.57465 0
M  V30 3385 C 335.297 0.764193 -1.87851 0
M  V30 3386 C 335.63 1.76889 -0.801495 0
M  V30 3387 O 334.905 1.93594 0.187528 0
M  V30 3388 C 335.188 1.46625 -3.28897 0
M  V30 3389 C 335.041 0.477515 -4.47258 0
M  V30 3390 C 336.36 2.4095 -3.68281 0
M  V30 3391 H 333.479 0.276351 -0.683227 0
M  V30 3392 H 336.121 0.0272868 -1.8998 0
M  V30 3393 H 334.271 2.09438 -3.27212 0
M  V30 3394 H 335.943 -0.145922 -4.61069 0
M  V30 3395 H 334.186 -0.206576 -4.33308 0
M  V30 3396 H 334.857 1.0065 -5.42746 0
M  V30 3397 H 337.333 1.88209 -3.71102 0
M  V30 3398 H 336.209 2.87072 -4.67847 0
M  V30 3399 H 336.47 3.26049 -2.98571 0
M  V30 3400 N 335.529 1.53961 0.336706 0
M  V30 3401 C 336.778 1.70751 1.07363 0
M  V30 3402 C 337.091 0.481061 1.89592 0
M  V30 3403 O 338.297 0.530046 2.66276 0
M  V30 3404 C 336.753 3.01965 1.95818 0
M  V30 3405 C 336.361 4.31971 1.18764 0
M  V30 3406 C 338.105 3.28121 2.69327 0
M  V30 3407 C 336.012 5.54255 2.06289 0
M  V30 3408 H 334.942 0.636292 0.404535 0
M  V30 3409 H 337.593 1.80459 0.332681 0
M  V30 3410 H 335.975 2.86132 2.7376 0
M  V30 3411 H 337.149 4.5853 0.456849 0
M  V30 3412 H 335.464 4.12481 0.569946 0
M  V30 3413 H 338.061 4.16673 3.35094 0
M  V30 3414 H 338.404 2.45426 3.36261 0
M  V30 3415 H 338.937 3.44762 1.98454 0
M  V30 3416 H 335.676 6.39513 1.43885 0
M  V30 3417 H 335.196 5.31935 2.77138 0
M  V30 3418 H 336.875 5.90159 2.65182 0
M  V30 3419 N 337.007 -0.598083 1.45811 0
M  V30 3420 C 338.423 -0.919847 1.30426 0
M  V30 3421 C 338.623 -1.99759 0.264303 0
M  V30 3422 O 337.679 -2.50221 -0.338472 0
M  V30 3423 C 338.992 -1.35176 2.68603 0
M  V30 3424 C 340.54 -1.46546 2.76574 0
M  V30 3425 C 341.015 -1.9311 4.15298 0
M  V30 3426 N 342.506 -2.00328 4.1764 0
M  V30 3427 C 343.241 -2.37599 5.21856 0
M  V30 3428 N 342.737 -2.73771 6.36413 0
M  V30 3429 N 344.53 -2.38021 5.09218 0
M  V30 3430 H 336.681 0.114111 2.12093 0
M  V30 3431 H 338.944 -0.0116121 0.947929 0
M  V30 3432 H 338.65 -0.633969 3.45939 0
M  V30 3433 H 338.524 -2.3164 2.97696 0
M  V30 3434 H 340.911 -2.17415 1.99537 0
M  V30 3435 H 340.992 -0.483727 2.51185 0
M  V30 3436 H 340.636 -1.22824 4.92825 0
M  V30 3437 H 340.566 -2.92213 4.38086 0
M  V30 3438 H 343.057 -1.74925 3.34977 0
M  V30 3439 H 343.37 -3.0112 7.11721 0
M  V30 3440 H 341.715 -2.71445 6.39799 0
M  V30 3441 H 344.906 -2.09174 4.18765 0
M  V30 3442 H 345.079 -2.66741 5.90554 0
M  V30 3443 N 338.485 -1.33259 -0.841409 0
M  V30 3444 C 339.415 -1.25926 -1.96634 0
M  V30 3445 C 340.396 -0.140349 -1.6952 0
M  V30 3446 O 341.581 -0.329707 -1.91381 0
M  V30 3447 C 338.711 -0.99512 -3.32738 0
M  V30 3448 C 337.665 -2.0767 -3.74242 0
M  V30 3449 C 336.991 -1.66474 -5.08125 0
M  V30 3450 C 338.291 -3.49318 -3.88297 0
M  V30 3451 H 339.985 -2.20046 -2.03027 0
M  V30 3452 H 337.531 -1.05931 -0.975425 0
M  V30 3453 H 339.484 -0.930323 -4.11002 0
M  V30 3454 H 338.208 -0.0183004 -3.26595 0
M  V30 3455 H 336.867 -2.13187 -2.98239 0
M  V30 3456 H 336.515 -0.675012 -4.9845 0
M  V30 3457 H 336.215 -2.3885 -5.36865 0
M  V30 3458 H 337.739 -1.61455 -5.88867 0
M  V30 3459 H 339.153 -3.46316 -4.56879 0
M  V30 3460 H 337.55 -4.20158 -4.28471 0
M  V30 3461 H 338.62 -3.8801 -2.9082 0
M  V30 3462 N 339.963 1.05934 -1.16686 0
M  V30 3463 C 341.211 1.78447 -0.948744 0
M  V30 3464 C 341.532 1.87813 0.524523 0
M  V30 3465 O 340.802 1.38945 1.38098 0
M  V30 3466 H 339.382 0.660971 -0.348033 0
M  V30 3467 H 342.044 1.27947 -1.47022 0
M  V30 3468 H 341.14 2.80394 -1.37061 0
M  V30 3469 N 341.441 0.965919 1.2453 0
M  V30 3470 C 342.371 0.513476 2.27784 0
M  V30 3471 C 343.352 -0.445974 1.6415 0
M  V30 3472 O 344.537 -0.342485 1.91156 0
M  V30 3473 C 341.667 -0.198839 3.4673 0
M  V30 3474 C 340.621 0.676456 4.2262 0
M  V30 3475 C 339.947 -0.167248 5.34438 0
M  V30 3476 C 341.247 1.96017 4.84123 0
M  V30 3477 H 342.941 1.3765 2.65881 0
M  V30 3478 H 340.487 0.663321 1.27813 0
M  V30 3479 H 342.44 -0.526567 4.18097 0
M  V30 3480 H 341.164 -1.0962 3.07654 0
M  V30 3481 H 339.823 0.98743 3.53052 0
M  V30 3482 H 339.471 -1.0647 4.91603 0
M  V30 3483 H 339.171 0.415181 5.86131 0
M  V30 3484 H 340.695 -0.489688 6.08633 0
M  V30 3485 H 342.109 1.69814 5.47573 0
M  V30 3486 H 340.506 2.48918 5.4604 0
M  V30 3487 H 341.576 2.65622 4.05676 0
M  V30 3488 N 342.919 -1.39368 0.735821 0
M  V30 3489 C 343.852 -2.28155 0.0451175 0
M  V30 3490 C 344.83 -1.44433 -0.746852 0
M  V30 3491 O 346.014 -1.73823 -0.729237 0
M  V30 3492 C 343.141 -3.253 -0.943266 0
M  V30 3493 C 342.187 -4.25826 -0.239685 0
M  V30 3494 S 343.02 -5.25166 1.04693 0
M  V30 3495 C 344.176 -6.2587 0.0611639 0
M  V30 3496 H 344.409 -2.86388 0.79807 0
M  V30 3497 H 341.942 -1.45104 0.527653 0
M  V30 3498 H 343.9 -3.81789 -1.50824 0
M  V30 3499 H 342.561 -2.66085 -1.66906 0
M  V30 3500 H 341.754 -4.94229 -0.987596 0
M  V30 3501 H 341.356 -3.73141 0.253274 0
M  V30 3502 H 343.648 -6.73007 -0.778941 0
M  V30 3503 H 344.591 -7.04508 0.712362 0
M  V30 3504 H 344.999 -5.63639 -0.311602 0
M  V30 3505 N 344.397 -0.483516 -1.5 0
M  V30 3506 C 345.307 0.309172 -2.32554 0
M  V30 3507 C 346.323 0.984159 -1.43493 0
M  V30 3508 O 347.499 0.969399 -1.76535 0
M  V30 3509 C 344.564 1.36979 -3.18493 0
M  V30 3510 C 343.625 0.710095 -4.23387 0
M  V30 3511 C 342.858 1.72018 -5.05218 0
M  V30 3512 O 343.081 2.94813 -4.88305 0
M  V30 3513 O 342.015 1.28515 -5.8802 0
M  V30 3514 H 345.841 -0.366064 -3.01486 0
M  V30 3515 H 343.426 -0.24514 -1.47375 0
M  V30 3516 H 345.308 1.98385 -3.71781 0
M  V30 3517 H 343.983 2.02828 -2.52275 0
M  V30 3518 H 342.89 0.0567539 -3.74057 0
M  V30 3519 H 344.223 0.0943557 -4.9211 0
M  V30 3520 N 345.875 1.56104 -0.216619 0
M  V30 3521 C 346.808 2.16026 0.735395 0
M  V30 3522 C 347.786 1.1032 1.1945 0
M  V30 3523 O 348.97 1.38549 1.27814 0
M  V30 3524 C 346.097 2.73656 1.99575 0
M  V30 3525 C 345.143 3.92146 1.67702 0
M  V30 3526 S 345.976 5.29397 0.806145 0
M  V30 3527 C 347.132 5.90463 2.07617 0
M  V30 3528 H 347.365 2.96439 0.226072 0
M  V30 3529 H 344.898 1.544 -0.00136639 0
M  V30 3530 H 346.856 3.075 2.71945 0
M  V30 3531 H 345.517 1.93245 2.47619 0
M  V30 3532 H 344.71 4.30954 2.61332 0
M  V30 3533 H 344.312 3.59423 1.03398 0
M  V30 3534 H 346.604 6.06136 3.02664 0
M  V30 3535 H 347.547 6.86589 1.73207 0
M  V30 3536 H 347.955 5.19252 2.21445 0
M  V30 3537 N 347.353 -0.0568162 1.57498 0
M  V30 3538 C 348.602 -0.752001 1.87157 0
M  V30 3539 C 348.915 -1.77978 0.811375 0
M  V30 3540 O 350.121 -2.52559 0.996293 0
M  V30 3541 C 348.577 -1.38844 3.3204 0
M  V30 3542 C 348.185 -0.398456 4.46225 0
M  V30 3543 C 349.929 -2.06512 3.70882 0
M  V30 3544 C 347.836 -1.04166 5.82154 0
M  V30 3545 H 346.766 -0.28461 0.698222 0
M  V30 3546 H 349.417 -0.00561272 1.83499 0
M  V30 3547 H 347.799 -2.1836 3.30356 0
M  V30 3548 H 348.973 0.367977 4.59328 0
M  V30 3549 H 347.288 0.174592 4.16034 0
M  V30 3550 H 349.885 -2.55437 4.6974 0
M  V30 3551 H 350.228 -2.87117 3.01445 0
M  V30 3552 H 350.761 -1.33808 3.7462 0
M  V30 3553 H 347.5 -0.275614 6.5492 0
M  V30 3554 H 347.02 -1.7786 5.72823 0
M  V30 3555 H 348.699 -1.55715 6.27982 0
M  V30 3556 N 348.832 -1.54138 -0.328536 0
M  V30 3557 C 349.795 -1.82462 -1.38709 0
M  V30 3558 C 350.795 -0.696229 -1.44946 0
M  V30 3559 O 351.985 -0.964535 -1.4506 0
M  V30 3560 C 349.117 -1.98018 -2.77492 0
M  V30 3561 H 350.31 -2.77037 -1.14851 0
M  V30 3562 H 347.863 -1.45779 -0.563751 0
M  V30 3563 H 348.598 -1.05637 -3.06613 0
M  V30 3564 H 348.383 -2.80124 -2.74359 0
M  V30 3565 H 349.873 -2.21396 -3.54081 0
M  V30 3566 N 350.31 0.590341 -1.46126 0
M  V30 3567 C 351.557 1.34882 -1.5104 0
M  V30 3568 C 351.885 1.93849 -0.159021 0
M  V30 3569 O 351.14 1.76544 0.844436 0
M  V30 3570 C 351.439 2.5032 -2.55097 0
M  V30 3571 C 351.105 2.09394 -3.99331 0
M  V30 3572 C 349.767 1.97947 -4.38601 0
M  V30 3573 C 352.119 1.77712 -4.89967 0
M  V30 3574 C 349.447 1.53065 -5.66381 0
M  V30 3575 C 351.799 1.34312 -6.18177 0
M  V30 3576 C 350.463 1.21436 -6.56361 0
M  V30 3577 H 349.733 0.493568 -0.552695 0
M  V30 3578 H 352.38 0.665539 -1.79563 0
M  V30 3579 H 350.685 3.24062 -2.20207 0
M  V30 3580 H 352.382 3.08541 -2.56132 0
M  V30 3581 H 348.972 2.19235 -3.68285 0
M  V30 3582 H 353.156 1.85445 -4.60352 0
M  V30 3583 H 348.412 1.41733 -5.94745 0
M  V30 3584 H 352.586 1.08849 -6.87841 0
M  V30 3585 H 350.213 0.864345 -7.5527 0
M  V30 3586 N 351.788 1.33704 0.83433 0
M  V30 3587 C 352.751 1.24244 1.92603 0
M  V30 3588 C 353.751 0.160383 1.59998 0
M  V30 3589 O 354.941 0.412228 1.69252 0
M  V30 3590 C 352.073 0.91555 3.28376 0
M  V30 3591 H 353.266 2.21287 2.02416 0
M  V30 3592 H 350.819 1.17827 1.02696 0
M  V30 3593 H 351.554 -0.0521886 3.24258 0
M  V30 3594 H 351.339 1.69811 3.53422 0
M  V30 3595 H 352.829 0.874231 4.08347 0
M  V30 3596 N 353.266 -1.05314 1.17247 0
M  V30 3597 C 354.213 -2.13031 0.888058 0
M  V30 3598 C 355.183 -1.65253 -0.167537 0
M  V30 3599 O 356.368 -1.90775 -0.0305974 0
M  V30 3600 C 353.508 -3.42702 0.406147 0
M  V30 3601 C 352.621 -4.04161 1.52572 0
M  V30 3602 C 351.756 -5.21744 0.997808 0
M  V30 3603 C 350.795 -5.75207 2.09291 0
M  V30 3604 N 349.932 -6.84094 1.57986 0
M  V30 3605 H 354.772 -2.36698 1.81048 0
M  V30 3606 H 352.309 -1.16121 0.903013 0
M  V30 3607 H 354.267 -4.17059 0.108305 0
M  V30 3608 H 352.897 -3.19222 -0.479313 0
M  V30 3609 H 351.949 -3.27253 1.93931 0
M  V30 3610 H 353.261 -4.39881 2.35172 0
M  V30 3611 H 352.415 -6.03168 0.653739 0
M  V30 3612 H 351.154 -4.87495 0.141232 0
M  V30 3613 H 350.159 -4.92414 2.44557 0
M  V30 3614 H 351.384 -6.11505 2.95362 0
M  V30 3615 H 349.33 -6.51745 0.74598 0
M  V30 3616 H 349.247 -7.18811 2.34195 0
M  V30 3617 H 350.515 -7.69172 1.26468 0
M  V30 3618 N 354.744 -0.972509 -1.24016 0
M  V30 3619 C 355.674 -0.525548 -2.27509 0
M  V30 3620 C 356.655 0.437262 -1.64384 0
M  V30 3621 O 357.84 0.332343 -1.91335 0
M  V30 3622 C 354.97 0.180448 -3.46831 0
M  V30 3623 C 353.924 -0.698859 -4.22256 0
M  V30 3624 C 353.25 0.138903 -5.3452 0
M  V30 3625 C 354.55 -1.98582 -4.83076 0
M  V30 3626 H 356.244 -1.39058 -2.65148 0
M  V30 3627 H 353.79 -0.67009 -1.27459 0
M  V30 3628 H 355.743 0.504387 -4.18371 0
M  V30 3629 H 354.467 1.07987 -3.08231 0
M  V30 3630 H 353.126 -1.00614 -3.52523 0
M  V30 3631 H 352.774 1.03862 -4.9216 0
M  V30 3632 H 352.474 -0.446259 -5.85903 0
M  V30 3633 H 353.998 0.457404 -6.08884 0
M  V30 3634 H 355.412 -1.72715 -5.46665 0
M  V30 3635 H 353.809 -2.5181 -5.44713 0
M  V30 3636 H 354.879 -2.67769 -4.04262 0
M  V30 3637 N 356.222 1.38976 -0.743202 0
M  V30 3638 C 357.469 2.00343 -0.294752 0
M  V30 3639 C 357.797 1.58983 1.12047 0
M  V30 3640 O 357.052 0.813809 1.77977 0
M  V30 3641 C 357.351 3.55647 -0.353517 0
M  V30 3642 C 357.017 4.16685 -1.72292 0
M  V30 3643 C 355.679 4.3307 -2.09771 0
M  V30 3644 C 358.031 4.50464 -2.62168 0
M  V30 3645 C 355.359 4.80526 -3.36618 0
M  V30 3646 C 357.711 4.99332 -3.88395 0
M  V30 3647 C 356.375 5.13924 -4.25956 0
M  V30 3648 H 355.645 0.733108 -0.107857 0
M  V30 3649 H 358.292 1.6618 -0.951651 0
M  V30 3650 H 356.597 3.89884 0.386954 0
M  V30 3651 H 358.294 4.00998 0.0117269 0
M  V30 3652 H 354.884 4.04339 -1.42155 0
M  V30 3653 H 359.068 4.37416 -2.3448 0
M  V30 3654 H 354.324 4.90008 -3.65653 0
M  V30 3655 H 358.498 5.2444 -4.58187 0
M  V30 3656 H 356.125 5.50457 -5.2431 0
M  V30 3657 N 357.7 0.491464 1.49741 0
M  V30 3658 C 358.94 -0.0549118 2.04326 0
M  V30 3659 C 359.304 -1.35148 1.36378 0
M  V30 3660 O 360.505 -1.9815 1.81631 0
M  V30 3661 C 358.776 -0.213841 3.5676 0
M  V30 3662 S 360.335 -0.715839 4.32922 0
M  V30 3663 H 357.153 -0.00630513 0.710972 0
M  V30 3664 H 359.755 0.663257 1.83905 0
M  V30 3665 H 358.459 0.73527 4.0376 0
M  V30 3666 H 357.99 -0.957529 3.81569 0
M  V30 3667 H 360.005 -1.9864 4.54705 0
M  V30 3668 N 359.178 -1.55987 0.224894 0
M  V30 3669 C 360.403 -2.03232 -0.41369 0
M  V30 3670 C 360.828 -1.10359 -1.52323 0
M  V30 3671 O 360.186 -0.092395 -1.81064 0
M  V30 3672 C 360.234 -3.48682 -0.919405 0
M  V30 3673 O 359.338 -3.58947 -2.03054 0
M  V30 3674 H 358.679 -0.657428 -0.0931903 0
M  V30 3675 H 361.209 -2.01679 0.34451 0
M  V30 3676 H 361.219 -3.8907 -1.22835 0
M  V30 3677 H 359.894 -4.15761 -0.107339 0
M  V30 3678 H 358.471 -3.30448 -1.72796 0
M  V30 3679 N 360.656 0.0484629 -1.57525 0
M  V30 3680 C 361.904 0.741657 -1.88 0
M  V30 3681 C 362.225 1.76918 -0.820054 0
M  V30 3682 O 361.495 1.95335 0.148661 0
M  V30 3683 H 360.075 0.276908 -0.69378 0
M  V30 3684 H 362.737 0.019013 -1.94891 0
M  V30 3685 H 361.833 1.24336 -2.86264 0
M  V30 3686 N 362.134 1.5431 0.320358 0
M  V30 3687 C 363.545 1.63872 0.894594 0
M  V30 3688 C 363.896 0.534847 1.88769 0
M  V30 3689 O 363.021 -0.331732 2.13842 0
M  V30 3690 C 363.616 2.97049 1.62934 0
M  V30 3691 C 362.175 3.08796 2.15226 0
M  V30 3692 C 361.322 2.59456 0.978671 0
M  V30 3693 H 364.273 1.58398 0.0978544 0
M  V30 3694 H 364.294 2.87388 2.49376 0
M  V30 3695 H 363.806 3.7737 0.906302 0
M  V30 3696 H 361.907 2.33156 2.90636 0
M  V30 3697 H 362.02 4.14649 2.40006 0
M  V30 3698 H 360.384 2.1543 1.35875 0
M  V30 3699 H 361.167 3.42237 0.269895 0
M  V30 3700 N 363.613 -0.582584 1.46437 0
M  V30 3701 C 364.859 -1.34278 1.51978 0
M  V30 3702 C 365.192 -1.93446 0.170973 0
M  V30 3703 O 364.467 -1.76481 -0.817608 0
M  V30 3704 C 364.75 -2.47203 2.61845 0
M  V30 3705 C 364.603 -1.93069 4.06257 0
M  V30 3706 C 365.922 -3.49247 2.67795 0
M  V30 3707 H 363.041 -0.486876 0.553282 0
M  V30 3708 H 365.683 -0.654437 1.78374 0
M  V30 3709 H 363.833 -3.0592 2.39469 0
M  V30 3710 H 365.505 -1.38808 4.3992 0
M  V30 3711 H 363.748 -1.23898 4.1573 0
M  V30 3712 H 364.419 -2.74586 4.7886 0
M  V30 3713 H 366.895 -3.00411 2.8791 0
M  V30 3714 H 365.771 -4.25719 3.46489 0
M  V30 3715 H 366.032 -4.06482 1.73852 0
M  V30 3716 N 365.091 -1.34144 -0.827227 0
M  V30 3717 C 366.316 -1.29476 -1.62021 0
M  V30 3718 C 366.741 0.129292 -1.87655 0
M  V30 3719 O 366.099 1.08967 -1.449 0
M  V30 3720 C 366.147 -2.08702 -2.94068 0
M  V30 3721 O 365.251 -1.45359 -3.85933 0
M  V30 3722 H 364.592 -0.444881 -0.492927 0
M  V30 3723 H 367.122 -1.76882 -1.02829 0
M  V30 3724 H 367.132 -2.19898 -3.43669 0
M  V30 3725 H 365.807 -3.12241 -2.74734 0
M  V30 3726 H 364.384 -1.42879 -3.44442 0
M  V30 3727 N 366.569 1.04691 -1.17803 0
M  V30 3728 C 367.794 1.81984 -0.994813 0
M  V30 3729 C 368.219 1.82586 0.452112 0
M  V30 3730 O 367.577 1.23854 1.324 0
M  V30 3731 C 367.625 3.2575 -1.54659 0
M  V30 3732 O 366.729 4.05267 -0.763728 0
M  V30 3733 H 366.07 0.562483 -0.352857 0
M  V30 3734 H 368.6 1.3189 -1.56417 0
M  V30 3735 H 368.61 3.76541 -1.57102 0
M  V30 3736 H 367.285 3.24627 -2.59981 0
M  V30 3737 H 365.862 3.63972 -0.811108 0
M  V30 3738 N 368.047 0.979072 1.23499 0
M  V30 3739 C 369.01 0.523244 2.23147 0
M  V30 3740 C 370.01 -0.386406 1.56088 0
M  V30 3741 O 371.2 -0.180283 1.73265 0
M  V30 3742 C 368.332 -0.240739 3.40049 0
M  V30 3743 H 369.525 1.40432 2.64989 0
M  V30 3744 H 367.078 0.764824 1.36309 0
M  V30 3745 H 367.813 -1.13841 3.03662 0
M  V30 3746 H 367.598 0.412207 3.89927 0
M  V30 3747 H 369.088 -0.548297 4.13985 0
M  V30 3748 N 369.525 -1.3858 0.750561 0
M  V30 3749 C 370.753 -2.04471 0.316098 0
M  V30 3750 C 371.168 -1.56606 -1.05452 0
M  V30 3751 O 370.525 -0.737784 -1.66922 0
M  V30 3752 C 370.576 -3.60025 0.326275 0
M  V30 3753 O 370.297 -4.06133 1.6428 0
M  V30 3754 C 371.798 -4.43131 -0.122429 0
M  V30 3755 H 369.018 -0.65717 0.135528 0
M  V30 3756 H 371.562 -1.77329 1.01857 0
M  V30 3757 H 369.717 -3.86014 -0.327431 0
M  V30 3758 H 370.131 -5.00547 1.56693 0
M  V30 3759 H 371.605 -5.51963 -0.0641473 0
M  V30 3760 H 372.082 -4.23333 -1.16988 0
M  V30 3761 H 372.688 -4.22323 0.50229 0
M  V30 3762 N 371.003 -0.499398 -1.49478 0
M  V30 3763 C 372.25 0.0456899 -2.02448 0
M  V30 3764 C 372.578 1.37142 -1.37921 0
M  V30 3765 O 371.833 1.89111 -0.503544 0
M  V30 3766 C 372.132 0.248424 -3.56536 0
M  V30 3767 C 371.798 -0.999107 -4.39692 0
M  V30 3768 C 370.46 -1.34108 -4.62135 0
M  V30 3769 C 372.812 -1.82842 -4.88076 0
M  V30 3770 C 370.14 -2.51191 -5.30208 0
M  V30 3771 C 372.492 -2.99076 -5.57437 0
M  V30 3772 C 371.156 -3.33655 -5.78127 0
M  V30 3773 H 370.426 0.0167191 -0.740811 0
M  V30 3774 H 373.073 -0.65923 -1.79795 0
M  V30 3775 H 371.378 1.03586 -3.77859 0
M  V30 3776 H 373.075 0.684605 -3.95113 0
M  V30 3777 H 369.665 -0.722729 -4.22463 0
M  V30 3778 H 373.849 -1.57737 -4.70566 0
M  V30 3779 H 369.105 -2.78221 -5.44429 0
M  V30 3780 H 373.279 -3.63664 -5.93904 0
M  V30 3781 H 370.906 -4.24483 -6.30649 0
M  V30 3782 N 372.481 1.55866 -0.233164 0
M  V30 3783 C 373.411 2.23783 0.666599 0
M  V30 3784 C 374.392 1.21343 1.19205 0
M  V30 3785 O 375.577 1.4996 1.23392 0
M  V30 3786 C 372.707 2.92671 1.86978 0
M  V30 3787 C 371.661 4.01682 1.47768 0
M  V30 3788 C 370.987 4.57926 2.76058 0
M  V30 3789 C 372.287 5.18126 0.658993 0
M  V30 3790 H 373.981 2.99232 0.100306 0
M  V30 3791 H 371.527 1.43924 0.046804 0
M  V30 3792 H 373.48 3.3888 2.50476 0
M  V30 3793 H 372.204 2.14688 2.46123 0
M  V30 3794 H 370.863 3.56222 0.866106 0
M  V30 3795 H 370.511 3.76659 3.33372 0
M  V30 3796 H 370.211 5.31505 2.50552 0
M  V30 3797 H 371.735 5.06859 3.40479 0
M  V30 3798 H 373.149 5.60644 1.19795 0
M  V30 3799 H 371.546 5.98009 0.500552 0
M  V30 3800 H 372.616 4.83763 -0.331856 0
M  V30 3801 N 373.959 -0.0401083 1.57549 0
M  V30 3802 C 374.869 -1.06133 2.0922 0
M  V30 3803 C 375.885 -1.40356 1.0284 0
M  V30 3804 O 377.061 -1.49897 1.34509 0
M  V30 3805 C 374.126 -2.34658 2.55218 0
M  V30 3806 C 373.187 -2.07117 3.76033 0
M  V30 3807 C 372.42 -3.29514 4.19829 0
M  V30 3808 O 372.643 -4.39794 3.63232 0
M  V30 3809 O 371.577 -3.15863 5.12362 0
M  V30 3810 H 375.403 -0.652244 2.96613 0
M  V30 3811 H 372.988 -0.256368 1.47184 0
M  V30 3812 H 374.87 -3.10239 2.85184 0
M  V30 3813 H 373.545 -2.74883 1.70941 0
M  V30 3814 H 372.452 -1.29139 3.51104 0
M  V30 3815 H 373.785 -1.71754 4.61261 0
M  V30 3816 N 375.437 -1.54477 -0.31217 0
M  V30 3817 C 376.662 -1.77526 -1.07235 0
M  V30 3818 C 377.087 -0.527775 -1.80544 0
M  V30 3819 O 376.445 0.52121 -1.73646 0
M  V30 3820 C 376.493 -2.97535 -2.03728 0
M  V30 3821 O 375.597 -2.69878 -3.11833 0
M  V30 3822 H 374.938 -0.58792 -0.30862 0
M  V30 3823 H 377.468 -2.01532 -0.352993 0
M  V30 3824 H 377.478 -3.25198 -2.46395 0
M  V30 3825 H 376.153 -3.87996 -1.49774 0
M  V30 3826 H 374.73 -2.53199 -2.7376 0
M  V30 3827 N 376.915 0.57481 -1.46744 0
M  V30 3828 C 378.155 1.34369 -1.54027 0
M  V30 3829 C 378.519 1.91051 -0.190642 0
M  V30 3830 O 379.72 2.68444 -0.138255 0
M  V30 3831 C 377.991 2.43706 -2.61423 0
M  V30 3832 S 379.55 3.30915 -2.88167 0
M  V30 3833 H 376.368 0.45768 -0.544105 0
M  V30 3834 H 378.97 0.659959 -1.84024 0
M  V30 3835 H 377.674 2.0047 -3.58106 0
M  V30 3836 H 377.205 3.16842 -2.33184 0
M  V30 3837 H 379.22 4.42742 -2.24039 0
M  V30 3838 N 378.394 1.34581 0.820102 0
M  V30 3839 C 379.642 1.26845 1.57336 0
M  V30 3840 C 379.963 -0.160667 1.94337 0
M  V30 3841 O 379.233 -1.09396 1.6251 0
M  V30 3842 H 377.813 0.466514 0.583415 0
M  V30 3843 H 380.475 1.68526 0.979027 0
M  V30 3844 H 379.571 1.87513 2.4949 0
M  V30 3845 N 379.872 -1.04064 1.18357 0
M  V30 3846 C 381.118 -1.77528 0.980397 0
M  V30 3847 C 381.451 -1.87948 -0.48879 0
M  V30 3848 O 380.726 -1.3876 -1.36293 0
M  V30 3849 C 381.009 -3.20797 1.63588 0
M  V30 3850 C 380.862 -3.1832 3.17793 0
M  V30 3851 C 382.181 -4.18911 1.34914 0
M  V30 3852 H 379.3 -0.644443 0.357578 0
M  V30 3853 H 381.942 -1.2156 1.46024 0
M  V30 3854 H 380.092 -3.68586 1.22788 0
M  V30 3855 H 381.764 -2.78521 3.67728 0
M  V30 3856 H 380.007 -2.56351 3.49952 0
M  V30 3857 H 380.678 -4.19489 3.58794 0
M  V30 3858 H 383.154 -3.7967 1.70265 0
M  V30 3859 H 382.03 -5.17374 1.83346 0
M  V30 3860 H 382.291 -4.41262 0.272027 0
M  V30 3861 N 381.35 -0.985608 -1.22978 0
M  V30 3862 C 382.313 -0.535071 -2.22867 0
M  V30 3863 C 383.313 0.378123 -1.56291 0
M  V30 3864 O 384.503 0.171092 -1.73358 0
M  V30 3865 C 381.635 0.222702 -3.40172 0
M  V30 3866 H 382.828 -1.41835 -2.6424 0
M  V30 3867 H 380.381 -0.772042 -1.35901 0
M  V30 3868 H 381.116 1.12229 -3.04262 0
M  V30 3869 H 380.901 -0.43288 -3.89703 0
M  V30 3870 H 382.391 0.526335 -4.1427 0
M  V30 3871 N 382.828 1.3818 -0.7579 0
M  V30 3872 C 384.105 1.94106 -0.241306 0
M  V30 3873 C 384.485 1.69282 1.26122 0
M  V30 3874 O 383.833 1.03378 2.03777 0
M  V30 3875 C 384.043 3.43809 -0.59967 0
M  V30 3876 C 385.391 4.20868 -0.561717 0
M  V30 3877 O 386.415 3.5211 -0.538222 0
M  V30 3878 O 385.274 5.43451 -0.576478 0
M  V30 3879 H 382.368 0.825376 -0.0518042 0
M  V30 3880 H 384.914 1.47548 -0.838315 0
M  V30 3881 H 383.686 3.55403 -1.6372 0
M  V30 3882 H 383.309 3.97592 0.0251197 0
M  V30 3883 N 384.306 0.507319 1.49211 0
M  V30 3884 C 385.236 -0.256939 2.32082 0
M  V30 3885 C 386.217 -0.956609 1.40652 0
M  V30 3886 O 387.402 -0.946788 1.69557 0
M  V30 3887 C 384.532 -1.31802 3.21318 0
M  V30 3888 C 383.486 -0.737855 4.21592 0
M  V30 3889 C 382.812 -1.89992 4.99807 0
M  V30 3890 C 384.112 0.275325 5.21574 0
M  V30 3891 H 385.806 0.434798 2.96226 0
M  V30 3892 H 383.352 0.210546 1.42452 0
M  V30 3893 H 385.305 -1.86045 3.78107 0
M  V30 3894 H 384.029 -2.03903 2.5513 0
M  V30 3895 H 382.688 -0.217126 3.65956 0
M  V30 3896 H 382.336 -2.60877 4.30061 0
M  V30 3897 H 382.036 -1.51777 5.6766 0
M  V30 3898 H 383.56 -2.44657 5.59442 0
M  V30 3899 H 384.974 -0.179193 5.7302 0
M  V30 3900 H 383.371 0.573649 5.97352 0
M  V30 3901 H 384.441 1.18903 4.70096 0
M  V30 3902 N 385.784 -1.5574 0.241426 0
M  V30 3903 C 387.033 -1.97986 -0.385295 0
M  V30 3904 C 387.346 -1.13267 -1.59468 0
M  V30 3905 O 388.552 -1.45501 -2.2922 0
M  V30 3906 C 387.008 -3.52275 -0.736884 0
M  V30 3907 C 386.616 -4.45726 0.450796 0
M  V30 3908 C 388.36 -4.03189 -1.3281 0
M  V30 3909 C 386.267 -5.91352 0.0756662 0
M  V30 3910 H 385.197 -0.739386 -0.147731 0
M  V30 3911 H 387.848 -1.80308 0.340779 0
M  V30 3912 H 386.23 -3.65628 -1.52094 0
M  V30 3913 H 387.404 -4.44131 1.22819 0
M  V30 3914 H 385.719 -4.05264 0.956573 0
M  V30 3915 H 388.316 -5.09505 -1.62201 0
M  V30 3916 H 388.659 -3.50212 -2.25071 0
M  V30 3917 H 389.192 -3.93141 -0.607069 0
M  V30 3918 H 385.931 -6.48354 0.965272 0
M  V30 3919 H 385.451 -5.96095 -0.665635 0
M  V30 3920 H 387.13 -6.46084 -0.344075 0
M  V30 3921 N 387.262 0.0317525 -1.57568 0
M  V30 3922 C 388.49 0.734949 -1.93407 0
M  V30 3923 C 388.905 1.69036 -0.84096 0
M  V30 3924 O 388.262 1.81582 0.182836 0
M  V30 3925 C 388.313 1.49432 -3.29169 0
M  V30 3926 O 388.034 0.577261 -4.3428 0
M  V30 3927 C 389.535 2.29492 -3.79273 0
M  V30 3928 H 386.755 0.206706 -0.638368 0
M  V30 3929 H 389.299 -0.00992046 -2.04498 0
M  V30 3930 H 387.454 2.1911 -3.19483 0
M  V30 3931 H 387.868 1.10952 -5.1263 0
M  V30 3932 H 389.342 2.78172 -4.76785 0
M  V30 3933 H 389.819 3.10794 -3.10328 0
M  V30 3934 H 390.425 1.64894 -3.92033 0
M  V30 3935 N 388.74 1.54641 0.303973 0
M  V30 3936 C 389.968 1.77768 1.05858 0
M  V30 3937 C 390.383 0.535722 1.8104 0
M  V30 3938 O 389.74 -0.494337 1.75677 0
M  V30 3939 C 389.791 2.9834 2.04146 0
M  V30 3940 O 389.512 4.17736 1.32015 0
M  V30 3941 C 391.013 3.33832 2.91669 0
M  V30 3942 H 388.233 0.592961 0.314067 0
M  V30 3943 H 390.777 2.01583 0.344149 0
M  V30 3944 H 388.932 2.76742 2.71096 0
M  V30 3945 H 389.346 4.85693 1.97998 0
M  V30 3946 H 390.82 4.21448 3.56491 0
M  V30 3947 H 391.297 2.51857 3.59812 0
M  V30 3948 H 391.903 3.57579 2.30254 0
M  V30 3949 N 390.218 -0.567019 1.47046 0
M  V30 3950 C 391.458 -1.3355 1.54738 0
M  V30 3951 C 391.822 -1.90947 0.200772 0
M  V30 3952 O 393.023 -2.68367 0.152489 0
M  V30 3953 C 391.294 -2.42317 2.62712 0
M  V30 3954 S 392.853 -3.29383 2.89918 0
M  V30 3955 H 389.671 -0.454788 0.546525 0
M  V30 3956 H 392.273 -0.650191 1.84371 0
M  V30 3957 H 390.977 -1.98568 3.59164 0
M  V30 3958 H 390.508 -3.15601 2.34861 0
M  V30 3959 H 392.523 -4.41548 2.26384 0
M  V30 3960 N 391.696 -1.35014 -0.812953 0
M  V30 3961 C 392.926 -1.30841 -1.59888 0
M  V30 3962 C 393.334 0.117576 -1.88834 0
M  V30 3963 O 392.677 1.07807 -1.48739 0
M  V30 3964 C 392.739 -2.0412 -2.95931 0
M  V30 3965 C 392.403 -3.53336 -2.89832 0
M  V30 3966 C 393.4 -4.48052 -2.63714 0
M  V30 3967 C 391.085 -3.95894 -3.0915 0
M  V30 3968 C 393.079 -5.833 -2.56982 0
M  V30 3969 C 390.766 -5.31239 -3.0204 0
M  V30 3970 C 391.764 -6.24754 -2.75991 0
M  V30 3971 O 391.452 -7.57617 -2.68833 0
M  V30 3972 H 391.184 -0.451215 -0.50337 0
M  V30 3973 H 393.738 -1.78354 -1.01877 0
M  V30 3974 H 391.968 -1.51235 -3.559 0
M  V30 3975 H 393.657 -1.93107 -3.57022 0
M  V30 3976 H 394.423 -4.16492 -2.48515 0
M  V30 3977 H 390.302 -3.23495 -3.28438 0
M  V30 3978 H 393.846 -6.56263 -2.36569 0
M  V30 3979 H 389.743 -5.62415 -3.16796 0
M  V30 3980 H 390.511 -7.67469 -2.84487 0
M  V30 3981 N 393.175 1.03435 -1.18907 0
M  V30 3982 C 394.423 1.76394 -0.986382 0
M  V30 3983 C 394.744 1.88883 0.484567 0
M  V30 3984 O 394.014 1.41843 1.3512 0
M  V30 3985 H 392.594 0.65344 -0.361975 0
M  V30 3986 H 395.256 1.248 -1.49703 0
M  V30 3987 H 394.352 2.77424 -1.42978 0
M  V30 3988 N 394.653 0.992116 1.22453 0
M  V30 3989 C 395.901 0.666215 1.90804 0
M  V30 3990 C 396.222 -0.804152 1.77647 0
M  V30 3991 O 395.492 -1.57629 1.16318 0
M  V30 3992 H 394.072 0.243423 0.706225 0
M  V30 3993 H 396.734 1.25845 1.48825 0
M  V30 3994 H 395.83 0.928069 2.97982 0
M  V30 3995 N 396.131 -1.37776 0.765217 0
M  V30 3996 C 397.547 -1.53297 0.444108 0
M  V30 3997 C 397.747 -1.72515 -1.04119 0
M  V30 3998 O 396.803 -1.74278 -1.82711 0
M  V30 3999 C 398.116 -2.73328 1.25349 0
M  V30 4000 C 399.664 -2.87185 1.24473 0
M  V30 4001 C 400.139 -4.10191 2.03733 0
M  V30 4002 N 401.63 -4.17291 2.01053 0
M  V30 4003 C 402.365 -5.11488 2.59166 0
M  V30 4004 N 401.861 -6.11285 3.26041 0
M  V30 4005 N 403.654 -5.03924 2.49032 0
M  V30 4006 H 395.805 -1.23552 1.72768 0
M  V30 4007 H 398.068 -0.601103 0.733062 0
M  V30 4008 H 397.774 -2.6557 2.30577 0
M  V30 4009 H 397.648 -3.66834 0.87823 0
M  V30 4010 H 400.035 -2.94418 0.20047 0
M  V30 4011 H 400.116 -1.94657 1.65959 0
M  V30 4012 H 399.76 -4.0372 3.08176 0
M  V30 4013 H 399.69 -5.01821 1.59633 0
M  V30 4014 H 402.181 -3.45825 1.5236 0
M  V30 4015 H 402.494 -6.79678 3.67774 0
M  V30 4016 H 400.839 -6.11583 3.30138 0
M  V30 4017 H 404.03 -4.24902 1.96407 0
M  V30 4018 H 404.203 -5.77152 2.94617 0
M  V30 4019 N 397.609 -0.515225 -1.4894 0
M  V30 4020 C 398.557 0.269115 -2.31038 0
M  V30 4021 C 399.551 0.949443 -1.40292 0
M  V30 4022 O 400.757 0.87551 -1.57273 0
M  V30 4023 H 397.132 0.10565 -0.744542 0
M  V30 4024 H 399.103 -0.443096 -2.95092 0
M  V30 4025 C 397.852 1.31213 -3.21991 0
M  V30 4026 H 397.175 0.798034 -3.91754 0
M  V30 4027 H 398.615 1.83263 -3.82349 0
M  V30 4028 C 397.074 2.33791 -2.42576 0
M  V30 4029 O 397.604 3.3995 -2.14003 0
M  V30 4030 N 395.81 2.06625 -2.0434 0
M  V30 4031 H 395.357 1.20314 -2.27777 0
M  V30 4032 H 395.315 2.75483 -1.51514 0
M  V30 4033 N 399.087 1.5561 -0.249682 0
M  V30 4034 C 400.503 1.59254 0.105103 0
M  V30 4035 C 400.703 1.26685 1.56694 0
M  V30 4036 O 399.759 1.0155 2.31179 0
M  V30 4037 C 401.072 2.99687 -0.246592 0
M  V30 4038 C 402.62 3.12416 -0.191118 0
M  V30 4039 C 403.095 4.55074 -0.516885 0
M  V30 4040 N 404.586 4.60835 -0.467489 0
M  V30 4041 C 405.321 5.69201 -0.69268 0
M  V30 4042 N 404.817 6.85817 -0.981146 0
M  V30 4043 N 406.61 5.58635 -0.623198 0
M  V30 4044 H 398.761 1.75049 -1.20298 0
M  V30 4045 H 401.024 0.815003 -0.484225 0
M  V30 4046 H 400.73 3.28267 -1.26228 0
M  V30 4047 H 400.604 3.74798 0.424962 0
M  V30 4048 H 402.991 2.83615 0.815247 0
M  V30 4049 H 403.072 2.39573 -0.896563 0
M  V30 4050 H 402.716 4.84596 -1.52082 0
M  V30 4051 H 402.646 5.26181 0.210068 0
M  V30 4052 H 405.137 3.7705 -0.253373 0
M  V30 4053 H 405.45 7.64341 -1.14032 0
M  V30 4054 H 403.795 6.87494 -1.01865 0
M  V30 4055 H 406.986 4.66406 -0.397863 0
M  V30 4056 H 407.159 6.43017 -0.802093 0
M  V30 4057 N 400.565 -0.0233959 1.57583 0
M  V30 4058 C 401.512 -1.02224 2.06927 0
M  V30 4059 C 402.482 -1.35575 0.959617 0
M  V30 4060 O 403.667 -1.45815 1.23055 0
M  V30 4061 C 400.807 -2.31636 2.5581 0
M  V30 4062 C 399.92 -2.04394 3.80588 0
M  V30 4063 C 399.055 -3.27717 4.18061 0
M  V30 4064 C 398.094 -2.96056 5.3574 0
M  V30 4065 N 397.231 -4.11847 5.68618 0
M  V30 4066 H 402.071 -0.594504 2.9201 0
M  V30 4067 H 399.608 -0.281921 1.44373 0
M  V30 4068 H 401.566 -3.07258 2.82221 0
M  V30 4069 H 400.196 -2.72122 1.73636 0
M  V30 4070 H 399.248 -1.19244 3.61227 0
M  V30 4071 H 400.56 -1.77042 4.66323 0
M  V30 4072 H 399.714 -4.11702 4.4563 0
M  V30 4073 H 398.453 -3.58188 3.30988 0
M  V30 4074 H 397.458 -2.10474 5.07918 0
M  V30 4075 H 398.683 -2.66857 6.24471 0
M  V30 4076 H 396.629 -4.42258 4.84504 0
M  V30 4077 H 396.546 -3.87938 6.48876 0
M  V30 4078 H 397.814 -4.96689 6.00766 0
M  V30 4079 N 402.043 -1.548 -0.295768 0
M  V30 4080 C 403.289 -1.74588 -1.03184 0
M  V30 4081 C 403.622 -0.532962 -1.86744 0
M  V30 4082 O 402.897 0.469872 -1.88739 0
M  V30 4083 C 403.18 -3.03791 -1.93347 0
M  V30 4084 C 403.033 -4.35392 -1.12933 0
M  V30 4085 C 404.352 -3.28892 -2.92435 0
M  V30 4086 H 401.471 -0.635221 -0.373715 0
M  V30 4087 H 404.113 -1.87519 -0.30606 0
M  V30 4088 H 402.263 -2.92898 -2.55232 0
M  V30 4089 H 403.935 -4.58211 -0.532943 0
M  V30 4090 H 402.178 -4.31642 -0.432168 0
M  V30 4091 H 402.849 -5.22074 -1.79284 0
M  V30 4092 H 405.325 -3.39429 -2.4068 0
M  V30 4093 H 404.201 -4.20603 -3.52682 0
M  V30 4094 H 404.462 -2.47437 -3.6637 0
M  V30 4095 N 403.521 0.559213 -1.47345 0
M  V30 4096 C 404.484 1.64854 -1.59235 0
M  V30 4097 C 405.484 1.53851 -0.467607 0
M  V30 4098 O 406.674 1.58045 -0.732617 0
M  V30 4099 C 403.806 3.04388 -1.53496 0
M  V30 4100 H 404.999 1.55662 -2.56339 0
M  V30 4101 H 402.552 0.778973 -1.35505 0
M  V30 4102 H 403.287 3.19115 -0.577604 0
M  V30 4103 H 403.072 3.13783 -2.35123 0
M  V30 4104 H 404.562 3.83642 -1.6495 0
M  V30 4105 N 404.999 1.35443 0.805782 0
M  V30 4106 C 405.909 1.30546 1.94923 0
M  V30 4107 C 406.925 0.210233 1.72725 0
M  V30 4108 O 408.101 0.43975 1.9654 0
M  V30 4109 C 405.166 1.07782 3.29521 0
M  V30 4110 C 404.227 2.26625 3.64609 0
M  V30 4111 C 403.46 2.04938 4.92784 0
M  V30 4112 O 403.683 1.01624 5.61274 0
M  V30 4113 O 402.617 2.9232 5.26149 0
M  V30 4114 H 406.443 2.26779 2.02002 0
M  V30 4115 H 404.028 1.15823 0.943682 0
M  V30 4116 H 405.91 0.969392 4.10098 0
M  V30 4117 H 404.585 0.146003 3.23371 0
M  V30 4118 H 403.492 2.43033 2.84404 0
M  V30 4119 H 404.825 3.18257 3.75464 0
M  V30 4120 N 406.477 -1.02803 1.19454 0
M  V30 4121 C 407.44 -2.09264 0.934955 0
M  V30 4122 C 408.44 -1.60576 -0.0849015 0
M  V30 4123 O 409.63 -1.73554 0.149933 0
M  V30 4124 C 406.762 -3.38482 0.40531 0
M  V30 4125 H 407.955 -2.33726 1.87916 0
M  V30 4126 H 405.508 -1.19426 1.00832 0
M  V30 4127 H 406.243 -3.19689 -0.544899 0
M  V30 4128 H 406.028 -3.75142 1.14065 0
M  V30 4129 H 407.518 -4.16894 0.242806 0
M  V30 4130 N 407.956 -0.998596 -1.21925 0
M  V30 4131 C 409.203 -0.677663 -1.90824 0
M  V30 4132 C 409.531 0.790905 -1.77693 0
M  V30 4133 O 408.786 1.58817 -1.14349 0
M  V30 4134 C 409.085 -1.03648 -3.42041 0
M  V30 4135 C 408.751 -2.49825 -3.75364 0
M  V30 4136 C 407.413 -2.8977 -3.8417 0
M  V30 4137 C 409.765 -3.44545 -3.91073 0
M  V30 4138 C 407.093 -4.23412 -4.06127 0
M  V30 4139 C 409.445 -4.77853 -4.14535 0
M  V30 4140 C 408.109 -5.17531 -4.21566 0
M  V30 4141 H 407.379 -0.247975 -0.698276 0
M  V30 4142 H 410.026 -1.25584 -1.44571 0
M  V30 4143 H 408.331 -0.376457 -3.89987 0
M  V30 4144 H 410.028 -0.766113 -3.93614 0
M  V30 4145 H 406.618 -2.17866 -3.69097 0
M  V30 4146 H 410.802 -3.14853 -3.83642 0
M  V30 4147 H 406.058 -4.53734 -4.09799 0
M  V30 4148 H 410.232 -5.51189 -4.25633 0
M  V30 4149 H 407.859 -6.21102 -4.38333 0
M  V30 4150 N 409.434 1.37368 -0.772513 0
M  V30 4151 C 410.397 2.28601 -0.165541 0
M  V30 4152 C 411.397 1.48062 0.627238 0
M  V30 4153 O 412.587 1.68268 0.450715 0
M  V30 4154 C 409.719 3.32023 0.772897 0
M  V30 4155 H 410.912 2.83787 -0.969787 0
M  V30 4156 H 408.465 1.46647 -0.540775 0
M  V30 4157 H 409.2 2.81962 1.60212 0
M  V30 4158 H 408.985 3.91555 0.206585 0
M  V30 4159 H 410.475 4.00197 1.19298 0
M  V30 4160 N 410.912 0.523116 1.48665 0
M  V30 4161 C 412.328 0.180511 1.58576 0
M  V30 4162 C 412.528 -1.31597 1.52592 0
M  V30 4163 O 411.584 -2.0937 1.4114 0
M  V30 4164 C 412.897 0.776949 2.90489 0
M  V30 4165 C 414.445 0.745058 3.04003 0
M  V30 4166 C 414.92 1.31995 4.38567 0
M  V30 4167 N 416.411 1.28162 4.45117 0
M  V30 4168 C 417.146 1.6964 5.47731 0
M  V30 4169 N 416.642 2.18816 6.57337 0
M  V30 4170 N 418.435 1.6092 5.38573 0
M  V30 4171 H 410.586 1.4958 1.50797 0
M  V30 4172 H 412.849 0.621772 0.715614 0
M  V30 4173 H 412.555 1.82732 3.00503 0
M  V30 4174 H 412.429 0.25007 3.7637 0
M  V30 4175 H 414.816 -0.296532 2.93606 0
M  V30 4176 H 414.897 1.30933 2.1975 0
M  V30 4177 H 414.541 2.36043 4.49718 0
M  V30 4178 H 414.471 0.731418 5.21496 0
M  V30 4179 H 416.962 0.92155 3.66491 0
M  V30 4180 H 417.275 2.48478 7.31764 0
M  V30 4181 H 415.62 2.22805 6.58318 0
M  V30 4182 H 418.811 1.22304 4.5184 0
M  V30 4183 H 418.984 1.93567 6.18414 0
M  V30 4184 N 412.39 -1.55475 0.257931 0
M  V30 4185 C 413.618 -2.03609 -0.367559 0
M  V30 4186 C 414.033 -1.13687 -1.50734 0
M  V30 4187 O 413.39 -0.153479 -1.81853 0
M  V30 4188 C 413.441 -3.51001 -0.864908 0
M  V30 4189 O 413.162 -4.37499 0.229465 0
M  V30 4190 C 414.663 -4.14946 -1.55997 0
M  V30 4191 H 411.883 -0.665459 -0.0860521 0
M  V30 4192 H 414.427 -2.00843 0.385014 0
M  V30 4193 H 412.582 -3.54266 -1.56762 0
M  V30 4194 H 412.996 -5.24286 -0.14998 0
M  V30 4195 H 414.47 -5.19735 -1.85956 0
M  V30 4196 H 414.947 -3.6209 -2.4857 0
M  V30 4197 H 415.553 -4.15635 -0.901543 0
M  V30 4198 N 413.868 0.0150385 -1.57593 0
M  V30 4199 C 415.116 0.701613 -1.8953 0
M  V30 4200 C 415.437 1.75139 -0.857396 0
M  V30 4201 O 414.707 1.95607 0.107194 0
M  V30 4202 H 413.287 0.26213 -0.699498 0
M  V30 4203 H 415.949 -0.0223304 -1.94887 0
M  V30 4204 H 415.045 1.18236 -2.88837 0
M  V30 4205 N 415.346 1.54954 0.287554 0
M  V30 4206 C 416.293 1.86834 1.35505 0
M  V30 4207 C 417.263 0.718452 1.49758 0
M  V30 4208 O 418.448 0.968358 1.644 0
M  V30 4209 C 415.588 2.13303 2.71286 0
M  V30 4210 C 414.701 3.40883 2.65373 0
M  V30 4211 C 413.836 3.57125 3.93236 0
M  V30 4212 C 412.875 4.78449 3.81776 0
M  V30 4213 N 412.012 4.91426 5.01443 0
M  V30 4214 H 416.852 2.77889 1.07619 0
M  V30 4215 H 414.389 1.37593 0.520241 0
M  V30 4216 H 416.347 2.26646 3.50267 0
M  V30 4217 H 414.977 1.25499 2.97405 0
M  V30 4218 H 414.029 3.36088 1.78182 0
M  V30 4219 H 415.341 4.29993 2.52799 0
M  V30 4220 H 414.495 3.70207 4.80658 0
M  V30 4221 H 413.234 2.66173 4.0866 0
M  V30 4222 H 412.239 4.65386 2.92738 0
M  V30 4223 H 413.464 5.70822 3.67884 0
M  V30 4224 H 411.41 4.03401 5.17304 0
M  V30 4225 H 411.327 5.74559 4.91343 0
M  V30 4226 H 412.595 5.08879 5.90477 0
M  V30 4227 N 416.824 -0.551391 1.4764 0
M  V30 4228 C 418.049 -1.33837 1.58437 0
M  V30 4229 C 418.474 -1.866 0.237063 0
M  V30 4230 O 417.832 -1.6328 -0.787994 0
M  V30 4231 C 417.88 -2.48014 2.61766 0
M  V30 4232 O 416.984 -3.50419 2.1744 0
M  V30 4233 H 416.325 -0.397299 0.532024 0
M  V30 4234 H 418.855 -0.665759 1.93465 0
M  V30 4235 H 418.865 -2.94503 2.82369 0
M  V30 4236 H 417.54 -2.08969 3.5959 0
M  V30 4237 H 416.117 -3.10196 2.06961 0
M  V30 4238 N 418.302 -1.35869 -0.798587 0
M  V30 4239 C 419.551 -1.28921 -1.5512 0
M  V30 4240 C 419.864 0.13208 -1.95154 0
M  V30 4241 O 421.07 0.323879 -2.69561 0
M  V30 4242 C 419.526 -2.26141 -2.79979 0
M  V30 4243 C 419.134 -3.73658 -2.47151 0
M  V30 4244 C 420.878 -2.28152 -3.57976 0
M  V30 4245 C 418.785 -4.62679 -3.6835 0
M  V30 4246 H 417.715 -0.479031 -0.582276 0
M  V30 4247 H 420.366 -1.61179 -0.877125 0
M  V30 4248 H 418.748 -1.86865 -3.49138 0
M  V30 4249 H 419.922 -4.21616 -1.85947 0
M  V30 4250 H 418.237 -3.74333 -1.82383 0
M  V30 4251 H 420.834 -2.91875 -4.4801 0
M  V30 4252 H 421.177 -1.28748 -3.95891 0
M  V30 4253 H 421.71 -2.65998 -2.95787 0
M  V30 4254 H 418.449 -5.63111 -3.35538 0
M  V30 4255 H 417.969 -4.19442 -4.28752 0
M  V30 4256 H 419.648 -4.78498 -4.35487 0
M  V30 4257 N 419.78 1.02168 -1.19998 0
M  V30 4258 C 420.69 2.14069 -0.959774 0
M  V30 4259 C 421.706 1.73804 0.082655 0
M  V30 4260 O 422.882 2.01133 -0.103633 0
M  V30 4261 C 419.947 3.42936 -0.509459 0
M  V30 4262 C 419.008 3.97474 -1.62213 0
M  V30 4263 C 418.241 5.2019 -1.19321 0
M  V30 4264 O 418.464 5.70369 -0.0597726 0
M  V30 4265 O 417.398 5.67749 -1.99863 0
M  V30 4266 H 421.224 2.37199 -1.89658 0
M  V30 4267 H 418.809 1.12469 -0.983411 0
M  V30 4268 H 420.691 4.20551 -0.267322 0
M  V30 4269 H 419.366 3.21234 0.398821 0
M  V30 4270 H 418.273 3.21161 -1.9185 0
M  V30 4271 H 419.606 4.23555 -2.50723 0
M  V30 4272 N 421.258 1.00505 1.21394 0
M  V30 4273 C 422.19 0.52372 2.23136 0
M  V30 4274 C 423.203 -0.387714 1.58116 0
M  V30 4275 O 424.392 -0.187905 1.77508 0
M  V30 4276 C 421.492 -0.258885 3.3791 0
M  V30 4277 C 420.665 0.651634 4.32519 0
M  V30 4278 C 419.724 -0.0813705 5.26137 0
M  V30 4279 O 418.75 0.537295 5.66658 0
M  V30 4280 N 419.952 -1.35992 5.64346 0
M  V30 4281 H 422.717 1.39865 2.65062 0
M  V30 4282 H 420.278 0.881196 1.35818 0
M  V30 4283 H 422.27 -0.758208 3.97534 0
M  V30 4284 H 420.84 -1.035 2.94968 0
M  V30 4285 H 420.06 1.33145 3.71034 0
M  V30 4286 H 421.348 1.27129 4.92662 0
M  V30 4287 H 420.746 -1.88368 5.33417 0
M  V30 4288 H 419.303 -1.8042 6.26332 0
M  V30 4289 N 422.737 -1.36956 0.779787 0
M  V30 4290 C 423.667 -2.32761 0.185651 0
M  V30 4291 C 424.648 -1.56177 -0.673989 0
M  V30 4292 O 425.833 -1.84378 -0.609797 0
M  V30 4293 C 422.963 -3.40418 -0.687964 0
M  V30 4294 C 421.917 -4.27941 0.0710102 0
M  V30 4295 C 421.243 -5.26681 -0.922573 0
M  V30 4296 C 422.543 -5.07006 1.25467 0
M  V30 4297 H 424.237 -2.82698 0.986008 0
M  V30 4298 H 421.783 -1.3592 0.475592 0
M  V30 4299 H 423.736 -4.06423 -1.11348 0
M  V30 4300 H 422.46 -2.89025 -1.52093 0
M  V30 4301 H 421.119 -3.63478 0.47739 0
M  V30 4302 H 420.767 -4.71565 -1.7503 0
M  V30 4303 H 420.467 -5.86103 -0.419237 0
M  V30 4304 H 421.991 -5.9556 -1.34686 0
M  V30 4305 H 423.405 -5.66105 0.905401 0
M  V30 4306 H 421.802 -5.75793 1.69063 0
M  V30 4307 H 422.872 -4.3921 2.05481 0
M  V30 4308 N 424.215 -0.530993 -1.48385 0
M  V30 4309 C 425.125 0.23503 -2.3342 0
M  V30 4310 C 426.141 0.93801 -1.46552 0
M  V30 4311 O 427.317 0.912745 -1.7953 0
M  V30 4312 C 424.382 1.26778 -3.22689 0
M  V30 4313 C 423.443 0.575038 -4.25431 0
M  V30 4314 C 422.676 1.55858 -5.10435 0
M  V30 4315 O 422.899 2.79129 -4.97437 0
M  V30 4316 O 421.833 1.09742 -5.91811 0
M  V30 4317 H 425.659 -0.461794 -3.00169 0
M  V30 4318 H 423.244 -0.291903 -1.46521 0
M  V30 4319 H 425.126 1.86457 -3.77904 0
M  V30 4320 H 423.801 1.94699 -2.586 0
M  V30 4321 H 422.708 -0.0622782 -3.74048 0
M  V30 4322 H 424.041 -0.062253 -4.92161 0
M  V30 4323 N 425.693 1.55336 -0.266172 0
M  V30 4324 C 426.64 2.22172 0.625165 0
M  V30 4325 C 427.61 1.19211 1.15663 0
M  V30 4326 O 428.795 1.47723 1.20758 0
M  V30 4327 C 425.935 2.93972 1.8076 0
M  V30 4328 C 425.048 4.11632 1.31084 0
M  V30 4329 C 424.183 4.71099 2.45436 0
M  V30 4330 C 423.222 5.8097 1.92718 0
M  V30 4331 N 422.359 6.34538 3.00509 0
M  V30 4332 H 427.199 2.9796 0.0485582 0
M  V30 4333 H 424.736 1.47095 0.0122024 0
M  V30 4334 H 426.694 3.33811 2.50251 0
M  V30 4335 H 425.324 2.20623 2.35638 0
M  V30 4336 H 424.376 3.76975 0.509326 0
M  V30 4337 H 425.688 4.90893 0.884633 0
M  V30 4338 H 424.842 5.13612 3.22936 0
M  V30 4339 H 423.581 3.91096 2.91368 0
M  V30 4340 H 422.586 5.37916 1.13695 0
M  V30 4341 H 423.811 6.62836 1.47733 0
M  V30 4342 H 421.757 5.57433 3.45839 0
M  V30 4343 H 421.674 7.09046 2.62279 0
M  V30 4344 H 422.942 6.81709 3.78011 0
M  V30 4345 N 427.171 -0.0066808 1.57599 0
M  V30 4346 C 428.081 -1.01671 2.11424 0
M  V30 4347 C 429.097 -1.38143 1.05795 0
M  V30 4348 O 430.273 -1.47011 1.37658 0
M  V30 4349 C 427.338 -2.29192 2.60139 0
M  V30 4350 C 426.399 -1.99094 3.80342 0
M  V30 4351 C 425.632 -3.20535 4.26724 0
M  V30 4352 O 425.855 -4.3199 3.72479 0
M  V30 4353 O 424.789 -3.04924 5.18946 0
M  V30 4354 H 428.615 -0.589181 2.9793 0
M  V30 4355 H 426.2 -0.225091 1.47695 0
M  V30 4356 H 428.082 -3.0412 2.917 0
M  V30 4357 H 426.757 -2.71195 1.76733 0
M  V30 4358 H 425.664 -1.21663 3.53764 0
M  V30 4359 H 426.997 -1.61931 4.648 0
M  V30 4360 N 428.649 -1.55105 -0.279332 0
M  V30 4361 C 429.579 -1.90557 -1.34945 0
M  V30 4362 C 430.56 -0.766738 -1.51839 0
M  V30 4363 O 431.745 -1.02434 -1.64988 0
M  V30 4364 C 428.875 -2.17193 -2.71006 0
M  V30 4365 C 427.829 -3.33021 -2.68851 0
M  V30 4366 C 427.155 -3.45123 -4.08405 0
M  V30 4367 C 428.455 -4.69578 -2.28678 0
M  V30 4368 H 430.149 -2.80188 -1.05522 0
M  V30 4369 H 427.695 -1.34811 -0.506173 0
M  V30 4370 H 429.648 -2.40581 -3.45975 0
M  V30 4371 H 428.372 -1.24355 -3.01999 0
M  V30 4372 H 427.031 -3.0959 -1.9634 0
M  V30 4373 H 426.679 -2.49762 -4.3661 0
M  V30 4374 H 426.379 -4.22995 -4.07859 0
M  V30 4375 H 427.903 -3.70796 -4.85121 0
M  V30 4376 H 429.317 -4.92553 -2.93368 0
M  V30 4377 H 427.714 -5.5032 -2.39306 0
M  V30 4378 H 428.784 -4.68828 -1.23807 0
M  V30 4379 N 430.127 0.543554 -1.4793 0
M  V30 4380 C 431.057 1.65888 -1.64327 0
M  V30 4381 C 432.038 1.62818 -0.492383 0
M  V30 4382 O 433.223 1.80226 -0.723338 0
M  V30 4383 C 430.353 3.04506 -1.67013 0
M  V30 4384 C 429.307 3.2243 -2.81466 0
M  V30 4385 C 428.633 4.61972 -2.69233 0
M  V30 4386 C 429.933 3.06496 -4.22915 0
M  V30 4387 H 431.627 1.52421 -2.57698 0
M  V30 4388 H 429.173 0.731849 -1.24016 0
M  V30 4389 H 431.126 3.82391 -1.77074 0
M  V30 4390 H 429.85 3.18964 -0.70212 0
M  V30 4391 H 428.509 2.46957 -2.70938 0
M  V30 4392 H 428.157 4.73247 -1.7043 0
M  V30 4393 H 427.857 4.74911 -3.46025 0
M  V30 4394 H 429.381 5.41974 -2.81242 0
M  V30 4395 H 430.795 3.74186 -4.34348 0
M  V30 4396 H 429.192 3.30938 -5.006 0
M  V30 4397 H 430.262 2.03077 -4.40327 0
M  V30 4398 N 431.605 1.3629 0.791371 0
M  V30 4399 C 432.553 1.30514 1.92533 0
M  V30 4400 C 433.547 0.197285 1.68247 0
M  V30 4401 O 434.753 0.364176 1.76278 0
M  V30 4402 H 431.128 0.406263 0.632815 0
M  V30 4403 H 433.099 2.26282 1.94523 0
M  V30 4404 C 431.848 1.10933 3.29529 0
M  V30 4405 H 431.171 1.95427 3.48781 0
M  V30 4406 H 432.611 1.10937 4.0923 0
M  V30 4407 C 431.07 -0.186123 3.36385 0
M  V30 4408 O 431.6 -1.17664 3.84081 0
M  V30 4409 N 429.806 -0.230128 2.89687 0
M  V30 4410 H 429.353 0.576545 2.51065 0
M  V30 4411 H 429.311 -1.09658 2.94657 0
M  V30 4412 N 433.083 -1.0153 1.20538 0
M  V30 4413 C 434.331 -1.74803 1.01432 0
M  V30 4414 C 434.652 -1.8963 -0.454456 0
M  V30 4415 O 433.922 -1.43975 -1.32846 0
M  V30 4416 H 432.502 -0.647598 0.372324 0
M  V30 4417 H 435.164 -1.22402 1.5167 0
M  V30 4418 H 434.26 -2.75114 1.47373 0
M  V30 4419 N 434.561 -1.01147 -1.20859 0
M  V30 4420 C 435.493 -0.535546 -2.22855 0
M  V30 4421 C 436.506 0.379323 -1.58319 0
M  V30 4422 O 437.695 0.178489 -1.77605 0
M  V30 4423 C 434.795 0.240962 -3.38042 0
M  V30 4424 C 433.968 -0.674562 -4.32167 0
M  V30 4425 C 433.027 0.053467 -5.26173 0
M  V30 4426 O 432.053 -0.567339 -5.66366 0
M  V30 4427 N 433.255 1.32997 -5.65059 0
M  V30 4428 H 436.02 -1.41268 -2.64317 0
M  V30 4429 H 433.581 -0.888386 -1.35349 0
M  V30 4430 H 435.573 0.737115 -3.97931 0
M  V30 4431 H 434.143 1.01935 -2.95513 0
M  V30 4432 H 433.363 -1.35111 -3.70322 0
M  V30 4433 H 434.651 -1.2974 -4.91981 0
M  V30 4434 H 434.049 1.85536 -5.34409 0
M  V30 4435 H 432.606 1.77095 -6.2728 0
M  V30 4436 N 436.039 1.36541 -0.78704 0
M  V30 4437 C 436.986 2.30082 -0.181901 0
M  V30 4438 C 437.956 1.5186 0.672896 0
M  V30 4439 O 439.141 1.80374 0.622072 0
M  V30 4440 C 436.281 3.3835 0.679197 0
M  V30 4441 C 435.394 4.31565 -0.193882 0
M  V30 4442 C 434.529 5.26915 0.673364 0
M  V30 4443 C 433.568 6.11769 -0.201315 0
M  V30 4444 N 432.705 6.99315 0.624777 0
M  V30 4445 H 437.545 2.81248 -0.985064 0
M  V30 4446 H 435.082 1.38437 -0.497342 0
M  V30 4447 H 437.04 3.99767 1.19341 0
M  V30 4448 H 435.67 2.8851 1.44781 0
M  V30 4449 H 434.722 3.71323 -0.826044 0
M  V30 4450 H 436.034 4.91191 -0.867937 0
M  V30 4451 H 435.188 5.9361 1.25348 0
M  V30 4452 H 433.927 4.67737 1.38105 0
M  V30 4453 H 432.932 5.44039 -0.793849 0
M  V30 4454 H 434.157 6.73022 -0.906568 0
M  V30 4455 H 432.103 6.42648 1.3168 0
M  V30 4456 H 432.02 7.56 0.00835237 0
M  V30 4457 H 433.288 7.70382 1.18879 0
M  V30 4458 N 437.518 0.538854 1.48102 0
M  V30 4459 C 438.448 -0.207654 2.32575 0
M  V30 4460 C 439.429 -0.926559 1.4265 0
M  V30 4461 O 440.614 -0.91061 1.71527 0
M  V30 4462 C 437.744 -1.24957 3.24042 0
M  V30 4463 C 436.698 -0.648263 4.23062 0
M  V30 4464 C 436.024 -1.79348 5.03725 0
M  V30 4465 C 437.324 0.385897 5.20872 0
M  V30 4466 H 439.018 0.497534 2.95237 0
M  V30 4467 H 436.564 0.240715 1.41974 0
M  V30 4468 H 438.517 -1.77983 3.81969 0
M  V30 4469 H 437.241 -1.98446 2.59397 0
M  V30 4470 H 435.9 -0.139452 3.66335 0
M  V30 4471 H 435.548 -2.51696 4.35498 0
M  V30 4472 H 435.248 -1.39702 5.70751 0
M  V30 4473 H 436.772 -2.32735 5.64506 0
M  V30 4474 H 438.186 -0.057607 5.73271 0
M  V30 4475 H 436.583 0.700227 5.96001 0
M  V30 4476 H 437.653 1.28848 4.67468 0
M  V30 4477 N 438.996 -1.55193 0.274407 0
M  V30 4478 C 439.928 -2.1989 -0.646595 0
M  V30 4479 C 440.941 -1.1834 -1.11801 0
M  V30 4480 O 442.13 -1.4507 -1.04004 0
M  V30 4481 C 439.23 -2.8104 -1.89393 0
M  V30 4482 C 438.403 -4.08274 -1.56943 0
M  V30 4483 C 437.462 -4.53478 -2.66916 0
M  V30 4484 O 436.488 -5.19267 -2.33132 0
M  V30 4485 N 437.69 -4.2356 -3.9696 0
M  V30 4486 H 440.455 -2.99556 -0.0928686 0
M  V30 4487 H 438.016 -1.61618 0.0954783 0
M  V30 4488 H 440.008 -3.08226 -2.62257 0
M  V30 4489 H 438.578 -2.05372 -2.35672 0
M  V30 4490 H 437.798 -3.88384 -0.674655 0
M  V30 4491 H 439.086 -4.91173 -1.32764 0
M  V30 4492 H 438.484 -3.70799 -4.27229 0
M  V30 4493 H 437.041 -4.55518 -4.66205 0
M  V30 4494 N 440.474 -0.00167713 -1.576 0
M  V30 4495 C 441.722 0.681471 -1.90264 0
M  V30 4496 C 442.043 1.7422 -0.875924 0
M  V30 4497 O 441.313 1.95709 0.0864412 0
M  V30 4498 H 439.893 0.254696 -0.702239 0
M  V30 4499 H 442.555 -0.0429996 -1.94853 0
M  V30 4500 H 441.651 1.15166 -2.90075 0
M  V30 4501 N 441.952 1.55251 0.271103 0
M  V30 4502 C 443.363 1.66635 0.842007 0
M  V30 4503 C 443.714 0.594631 1.86972 0
M  V30 4504 O 442.839 -0.263532 2.14789 0
M  V30 4505 C 443.434 3.02082 1.53401 0
M  V30 4506 C 441.993 3.15487 2.05293 0
M  V30 4507 C 441.14 2.62438 0.895631 0
M  V30 4508 H 444.091 1.58629 0.0474117 0
M  V30 4509 H 444.112 2.95176 2.40107 0
M  V30 4510 H 443.624 3.80062 0.785786 0
M  V30 4511 H 441.725 2.42284 2.83071 0
M  V30 4512 H 441.838 4.22075 2.26693 0
M  V30 4513 H 440.202 2.19644 1.28953 0
M  V30 4514 H 440.985 3.42923 0.160878 0
M  V30 4515 N 443.43 -0.535701 1.48216 0
M  V30 4516 C 444.34 -1.66785 1.64985 0
M  V30 4517 C 445.356 -1.65654 0.532414 0
M  V30 4518 O 446.532 -1.8471 0.80275 0
M  V30 4519 C 443.597 -3.0326 1.68031 0
M  V30 4520 C 442.658 -3.1529 2.9136 0
M  V30 4521 C 441.891 -4.45255 2.94252 0
M  V30 4522 O 442.114 -5.32011 2.05719 0
M  V30 4523 O 441.048 -4.6153 3.86359 0
M  V30 4524 H 444.874 -1.55576 2.60825 0
M  V30 4525 H 442.459 -0.70815 1.31551 0
M  V30 4526 H 444.341 -3.84436 1.72589 0
M  V30 4527 H 443.016 -3.14805 0.753628 0
M  V30 4528 H 441.923 -2.3343 2.92337 0
M  V30 4529 H 443.256 -3.08658 3.83394 0
M  V30 4530 N 444.908 -1.36708 -0.784132 0
M  V30 4531 C 446.136 -1.34398 -1.57305 0
M  V30 4532 C 446.551 0.0735577 -1.88657 0
M  V30 4533 O 445.908 1.03193 -1.50524 0
M  V30 4534 C 445.959 -2.17053 -2.89085 0
M  V30 4535 O 445.68 -3.53281 -2.59083 0
M  V30 4536 C 447.181 -2.22583 -3.83369 0
M  V30 4537 H 444.401 -0.460819 -0.487736 0
M  V30 4538 H 446.945 -1.79879 -0.972819 0
M  V30 4539 H 445.1 -1.75113 -3.45564 0
M  V30 4540 H 445.514 -3.9647 -3.43383 0
M  V30 4541 H 446.988 -2.84763 -4.72878 0
M  V30 4542 H 447.465 -1.23075 -4.21603 0
M  V30 4543 H 448.071 -2.64781 -3.32823 0
M  V30 4544 N 446.386 1.0089 -1.21074 0
M  V30 4545 C 447.349 2.0775 -0.968129 0
M  V30 4546 C 448.349 1.6069 0.0593445 0
M  V30 4547 O 449.539 1.73293 -0.177525 0
M  V30 4548 C 446.671 3.37794 -0.459108 0
M  V30 4549 H 447.864 2.30707 -1.9161 0
M  V30 4550 H 445.417 1.17807 -1.02719 0
M  V30 4551 H 446.152 3.20516 0.49397 0
M  V30 4552 H 445.937 3.7328 -1.20019 0
M  V30 4553 H 447.427 4.16454 -0.309099 0
M  V30 4554 N 447.864 1.01787 1.20321 0
M  V30 4555 C 449.28 0.732951 1.41774 0
M  V30 4556 C 449.48 -0.686883 1.89431 0
M  V30 4557 O 448.536 -1.45446 2.06402 0
M  V30 4558 C 449.849 1.75973 2.43832 0
M  V30 4559 C 451.397 1.77802 2.57596 0
M  V30 4560 C 451.872 2.7941 3.62897 0
M  V30 4561 N 453.363 2.78157 3.70382 0
M  V30 4562 C 454.098 3.53434 4.51521 0
M  V30 4563 N 453.594 4.38392 5.36455 0
M  V30 4564 N 455.387 3.42026 4.46066 0
M  V30 4565 H 447.538 1.93447 0.877035 0
M  V30 4566 H 449.801 0.835712 0.447536 0
M  V30 4567 H 449.507 2.77699 2.15815 0
M  V30 4568 H 449.381 1.57292 3.4284 0
M  V30 4569 H 451.768 0.767602 2.84942 0
M  V30 4570 H 451.849 2.00557 1.58779 0
M  V30 4571 H 451.493 3.80616 3.36295 0
M  V30 4572 H 451.423 2.53916 4.61339 0
M  V30 4573 H 453.914 2.16531 3.09714 0
M  V30 4574 H 454.227 4.92596 5.95457 0
M  V30 4575 H 452.572 4.4247 5.35953 0
M  V30 4576 H 455.763 2.75075 3.78749 0
M  V30 4577 H 455.936 4.00946 5.09064 0
M  V30 4578 N 449.342 -1.36122 0.79427 0
M  V30 4579 C 450.252 -2.33769 0.197296 0
M  V30 4580 C 451.268 -1.61276 -0.653153 0
M  V30 4581 O 452.444 -1.9323 -0.5678 0
M  V30 4582 C 449.509 -3.40474 -0.654098 0
M  V30 4583 C 448.57 -4.28759 0.215411 0
M  V30 4584 C 447.803 -5.30368 -0.595443 0
M  V30 4585 O 448.026 -5.40211 -1.83107 0
M  V30 4586 O 446.96 -6.019 0.00721351 0
M  V30 4587 H 450.786 -2.86597 1.00478 0
M  V30 4588 H 448.371 -1.38676 0.555818 0
M  V30 4589 H 450.253 -4.05703 -1.13944 0
M  V30 4590 H 448.928 -2.89937 -1.43938 0
M  V30 4591 H 447.835 -3.66554 0.747615 0
M  V30 4592 H 449.168 -4.82661 0.964332 0
M  V30 4593 N 450.82 -0.546701 -1.47814 0
M  V30 4594 C 451.75 0.195317 -2.32682 0
M  V30 4595 C 452.731 0.918981 -1.43139 0
M  V30 4596 O 453.916 0.901501 -1.72008 0
M  V30 4597 C 451.046 1.23237 -3.247 0
M  V30 4598 C 450 0.625818 -4.234 0
M  V30 4599 C 449.326 1.76674 -5.04669 0
M  V30 4600 C 450.626 -0.413515 -5.2066 0
M  V30 4601 H 452.32 -0.513184 -2.94969 0
M  V30 4602 H 449.866 -0.248241 -1.41844 0
M  V30 4603 H 451.819 1.75955 -3.82907 0
M  V30 4604 H 450.543 1.97067 -2.60446 0
M  V30 4605 H 449.202 0.120023 -3.66403 0
M  V30 4606 H 448.85 2.49383 -4.36826 0
M  V30 4607 H 448.55 1.36673 -5.71484 0
M  V30 4608 H 450.074 2.29738 -5.65732 0
M  V30 4609 H 451.488 0.0272042 -5.73294 0
M  V30 4610 H 449.885 -0.731825 -5.95621 0
M  V30 4611 H 450.955 -1.31325 -4.66778 0
M  V30 4612 N 452.299 1.55045 -0.282633 0
M  V30 4613 C 453.529 2.03872 0.334635 0
M  V30 4614 C 453.937 1.16018 1.49454 0
M  V30 4615 O 453.28 0.174449 1.8287 0
M  V30 4616 C 453.342 3.48791 0.870905 0
M  V30 4617 C 453.006 4.56715 -0.161338 0
M  V30 4618 C 454.003 5.10513 -0.983466 0
M  V30 4619 C 451.688 5.01417 -0.297745 0
M  V30 4620 C 453.682 6.07538 -1.92811 0
M  V30 4621 C 451.369 5.98265 -1.24586 0
M  V30 4622 C 452.367 6.51208 -2.05954 0
M  V30 4623 O 452.055 7.46162 -2.99162 0
M  V30 4624 H 451.787 0.671324 0.0793742 0
M  V30 4625 H 454.341 2.01169 -0.41473 0
M  V30 4626 H 452.571 3.48758 1.67047 0
M  V30 4627 H 454.26 3.80916 1.40207 0
M  V30 4628 H 455.026 4.76785 -0.888856 0
M  V30 4629 H 450.905 4.59849 0.325604 0
M  V30 4630 H 454.449 6.48787 -2.56363 0
M  V30 4631 H 450.346 6.31412 -1.34126 0
M  V30 4632 H 451.114 7.63903 -2.93929 0
M  V30 4633 N 453.777 0.010035 1.57597 0
M  V30 4634 C 455.002 -0.687021 1.95691 0
M  V30 4635 C 455.427 -1.65952 0.885519 0
M  V30 4636 O 454.785 -1.80633 -0.15543 0
M  V30 4637 C 454.833 -1.3864 3.32884 0
M  V30 4638 O 453.937 -2.50115 3.27897 0
M  V30 4639 H 453.278 -0.181989 0.638573 0
M  V30 4640 H 455.808 0.0662122 2.04493 0
M  V30 4641 H 455.818 -1.74754 3.6868 0
M  V30 4642 H 454.493 -0.673411 4.10412 0
M  V30 4643 H 453.07 -2.16253 3.03791 0
M  V30 4644 N 455.255 -1.55392 -0.262866 0
M  V30 4645 C 456.504 -1.75679 -0.990943 0
M  V30 4646 C 456.817 -0.57097 -1.87081 0
M  V30 4647 O 458.023 -0.656486 -2.63444 0
M  V30 4648 C 456.479 -3.10964 -1.81188 0
M  V30 4649 C 456.087 -4.37146 -0.980188 0
M  V30 4650 C 457.831 -3.40597 -2.53365 0
M  V30 4651 C 455.738 -5.63466 -1.7961 0
M  V30 4652 H 454.668 -0.654868 -0.373716 0
M  V30 4653 H 457.319 -1.81841 -0.246203 0
M  V30 4654 H 455.701 -2.98867 -2.59797 0
M  V30 4655 H 456.875 -4.60187 -0.237558 0
M  V30 4656 H 455.19 -4.14731 -0.372497 0
M  V30 4657 H 457.787 -4.32186 -3.14833 0
M  V30 4658 H 458.13 -2.6119 -3.24169 0
M  V30 4659 H 458.663 -3.53838 -1.81779 0
M  V30 4660 H 455.402 -6.4565 -1.13209 0
M  V30 4661 H 454.922 -5.44552 -2.51443 0
M  V30 4662 H 456.601 -6.02139 -2.36723 0
M  V30 4663 N 456.733 0.527833 -1.48498 0
M  V30 4664 C 457.663 1.64136 -1.66077 0
M  V30 4665 C 458.644 1.62286 -0.509625 0
M  V30 4666 O 459.829 1.79449 -0.742413 0
M  V30 4667 C 456.959 3.02717 -1.70234 0
M  V30 4668 C 455.913 3.19426 -2.8487 0
M  V30 4669 C 455.239 4.5909 -2.74118 0
M  V30 4670 C 456.539 3.01993 -4.26142 0
M  V30 4671 H 458.233 1.4968 -2.593 0
M  V30 4672 H 455.779 0.718654 -1.24785 0
M  V30 4673 H 457.732 3.80491 -1.8112 0
M  V30 4674 H 456.456 3.18201 -0.735911 0
M  V30 4675 H 455.115 2.4407 -2.73542 0
M  V30 4676 H 454.763 4.71413 -1.7544 0
M  V30 4677 H 454.463 4.71214 -3.51042 0
M  V30 4678 H 455.987 5.3896 -2.86974 0
M  V30 4679 H 457.401 3.69558 -4.38292 0
M  V30 4680 H 455.798 3.2561 -5.04082 0
M  V30 4681 H 456.868 1.98396 -4.42456 0
M  V30 4682 N 458.211 1.37122 0.776871 0
M  V30 4683 C 459.143 1.28342 1.89897 0
M  V30 4684 C 460.156 0.200277 1.61563 0
M  V30 4685 O 461.345 0.456012 1.72577 0
M  V30 4686 C 458.445 0.960427 3.25006 0
M  V30 4687 C 457.618 2.148 3.81025 0
M  V30 4688 C 456.677 1.79608 4.94598 0
M  V30 4689 O 455.703 2.51845 5.10454 0
M  V30 4690 N 456.905 0.737171 5.758 0
M  V30 4691 H 459.67 2.25027 1.97947 0
M  V30 4692 H 457.231 1.3068 0.955739 0
M  V30 4693 H 459.223 0.705942 3.98495 0
M  V30 4694 H 457.793 0.0823066 3.12492 0
M  V30 4695 H 457.013 2.56454 2.99374 0
M  V30 4696 H 458.301 2.9411 4.15183 0
M  V30 4697 H 457.699 0.137637 5.65533 0
M  V30 4698 H 456.256 0.542534 6.49538 0
M  V30 4699 N 459.689 -1.00246 1.21608 0
M  V30 4700 C 460.639 -2.07492 0.945051 0
M  V30 4701 C 461.623 -1.60585 -0.100675 0
M  V30 4702 O 462.815 -1.76667 0.10859 0
M  V30 4703 C 459.944 -3.39425 0.514342 0
M  V30 4704 C 459.03 -3.92993 1.59428 0
M  V30 4705 N 459.421 -4.19898 2.81991 0
M  V30 4706 C 457.719 -4.21297 1.46374 0
M  V30 4707 C 458.42 -4.63297 3.51754 0
M  V30 4708 N 457.396 -4.66421 2.79199 0
M  V30 4709 H 461.198 -2.26222 1.87619 0
M  V30 4710 H 458.712 -1.18339 1.11219 0
M  V30 4711 H 460.709 -4.15808 0.301527 0
M  V30 4712 H 459.369 -3.22101 -0.410008 0
M  V30 4713 H 460.38 -4.08377 3.1851 0
M  V30 4714 H 457.057 -4.13095 0.604863 0
M  V30 4715 H 458.447 -4.92816 4.56708 0
M  V30 4716 N 461.167 -1.02423 -1.1978 0
M  V30 4717 C 462.114 -0.601023 -2.22837 0
M  V30 4718 C 463.084 0.382801 -1.61629 0
M  V30 4719 O 464.269 0.280514 -1.88727 0
M  V30 4720 C 461.409 0.0467755 -3.45068 0
M  V30 4721 C 460.522 -0.98253 -4.20678 0
M  V30 4722 C 459.657 -0.304982 -5.30324 0
M  V30 4723 C 458.696 -1.32052 -5.97686 0
M  V30 4724 N 457.833 -0.669105 -6.98904 0
M  V30 4725 H 462.673 -1.48444 -2.58396 0
M  V30 4726 H 460.21 -0.742936 -1.2696 0
M  V30 4727 H 462.168 0.439556 -4.14878 0
M  V30 4728 H 460.798 0.893796 -3.10179 0
M  V30 4729 H 459.85 -1.49341 -3.49859 0
M  V30 4730 H 461.162 -1.75455 -4.66923 0
M  V30 4731 H 460.316 0.142893 -6.06532 0
M  V30 4732 H 459.055 0.499283 -4.85138 0
M  V30 4733 H 458.06 -1.7787 -5.20233 0
M  V30 4734 H 459.285 -2.1262 -6.44957 0
M  V30 4735 H 457.231 0.115152 -6.55899 0
M  V30 4736 H 457.148 -1.37908 -7.43315 0
M  V30 4737 H 458.416 -0.245076 -7.79115 0
M  V30 4738 N 462.645 1.35699 -0.801477 0
M  V30 4739 C 463.893 1.9852 -0.37871 0
M  V30 4740 C 464.214 1.63907 1.05638 0
M  V30 4741 O 463.484 0.919013 1.73006 0
M  V30 4742 H 462.064 0.734322 -0.137042 0
M  V30 4743 H 464.726 1.65697 -1.02619 0
M  V30 4744 H 463.822 3.08382 -0.480284 0
M  V30 4745 N 464.123 0.554532 1.47522 0
M  V30 4746 C 465.053 -0.182974 2.32782 0
M  V30 4747 C 466.034 -0.911377 1.43624 0
M  V30 4748 O 467.219 -0.892366 1.72483 0
M  V30 4749 C 464.349 -1.21513 3.25349 0
M  V30 4750 C 463.303 -0.603355 4.23726 0
M  V30 4751 C 462.629 -1.73995 5.05598 0
M  V30 4752 C 463.929 0.441121 5.20434 0
M  V30 4753 H 465.623 0.52882 2.94693 0
M  V30 4754 H 463.169 0.255759 1.41711 0
M  V30 4755 H 465.122 -1.73922 3.83835 0
M  V30 4756 H 463.846 -1.95683 2.61487 0
M  V30 4757 H 462.505 -0.10059 3.66462 0
M  V30 4758 H 462.153 -2.47063 4.38143 0
M  V30 4759 H 461.853 -1.3364 5.72201 0
M  V30 4760 H 463.377 -2.26735 5.66942 0
M  V30 4761 H 464.791 0.00319931 5.733 0
M  V30 4762 H 463.188 0.763402 5.95224 0
M  V30 4763 H 464.258 1.33799 4.66075 0
M  V30 4764 N 465.601 -1.54893 0.290851 0
M  V30 4765 C 466.847 -2.0023 -0.321867 0
M  V30 4766 C 467.18 -1.179 -1.54316 0
M  V30 4767 O 466.455 -0.25293 -1.92848 0
M  V30 4768 C 466.738 -3.53456 -0.688515 0
M  V30 4769 C 466.591 -4.46532 0.541209 0
M  V30 4770 C 467.91 -4.13057 -1.51895 0
M  V30 4771 H 465.029 -0.727891 -0.115515 0
M  V30 4772 H 467.671 -1.85722 0.400931 0
M  V30 4773 H 465.821 -3.6595 -1.30433 0
M  V30 4774 H 467.493 -4.4596 1.17973 0
M  V30 4775 H 465.736 -4.17545 1.17636 0
M  V30 4776 H 466.407 -5.51475 0.240675 0
M  V30 4777 H 468.883 -4.03937 -0.99872 0
M  V30 4778 H 467.759 -5.20448 -1.74429 0
M  V30 4779 H 468.02 -3.64284 -2.50498 0
M  V30 4780 N 467.08 -0.0183926 -1.57589 0
M  V30 4781 C 468.357 0.700621 -1.82622 0
M  V30 4782 C 468.737 1.90951 -0.90005 0
M  V30 4783 O 468.085 2.28452 0.0469145 0
M  V30 4784 C 468.295 1.08899 -3.31575 0
M  V30 4785 C 469.643 1.48514 -3.9778 0
M  V30 4786 O 470.667 1.18227 -3.36007 0
M  V30 4787 O 469.526 2.04903 -5.06633 0
M  V30 4788 H 466.62 0.342743 -0.752633 0
M  V30 4789 H 469.166 -0.0452548 -1.6964 0
M  V30 4790 H 467.938 0.228113 -3.90635 0
M  V30 4791 H 467.561 1.89338 -3.49624 0
M  V30 4792 N 468.558 1.5553 0.254621 0
M  V30 4793 C 469.505 1.89666 1.31512 0
M  V30 4794 C 470.475 0.750057 1.482 0
M  V30 4795 O 471.66 1.00301 1.62309 0
M  V30 4796 C 468.8 2.19009 2.667 0
M  V30 4797 C 467.913 3.46435 2.58083 0
M  V30 4798 C 467.048 3.65386 3.85573 0
M  V30 4799 C 466.087 4.8644 3.71541 0
M  V30 4800 N 465.224 5.01952 4.90906 0
M  V30 4801 H 470.064 2.80109 1.017 0
M  V30 4802 H 467.601 1.38666 0.490938 0
M  V30 4803 H 469.559 2.34025 3.45381 0
M  V30 4804 H 468.189 1.31779 2.94676 0
M  V30 4805 H 467.241 3.39792 1.71013 0
M  V30 4806 H 468.553 4.35258 2.43622 0
M  V30 4807 H 467.707 3.80319 4.72697 0
M  V30 4808 H 466.446 2.74781 4.02922 0
M  V30 4809 H 465.451 4.71491 2.82801 0
M  V30 4810 H 466.676 5.78497 3.55694 0
M  V30 4811 H 464.622 4.14283 5.08631 0
M  V30 4812 H 464.539 5.84851 4.79046 0
M  V30 4813 H 465.807 5.21289 5.7955 0
M  V30 4814 N 470.036 -0.519951 1.48776 0
M  V30 4815 C 471.283 -1.27522 1.57303 0
M  V30 4816 C 471.611 -1.92869 0.251328 0
M  V30 4817 O 470.866 -1.80372 -0.759243 0
M  V30 4818 C 471.165 -2.37864 2.6675 0
M  V30 4819 C 470.831 -1.90103 4.08867 0
M  V30 4820 C 469.493 -1.76795 4.47546 0
M  V30 4821 C 471.845 -1.54133 4.97888 0
M  V30 4822 C 469.173 -1.25868 5.73039 0
M  V30 4823 C 471.525 -1.04665 6.23881 0
M  V30 4824 C 470.189 -0.899823 6.61407 0
M  V30 4825 H 469.459 -0.466636 0.575614 0
M  V30 4826 H 472.106 -0.579109 1.82534 0
M  V30 4827 H 470.411 -3.13186 2.35418 0
M  V30 4828 H 472.108 -2.95969 2.70561 0
M  V30 4829 H 468.698 -2.01414 3.78326 0
M  V30 4830 H 472.882 -1.6327 4.68675 0
M  V30 4831 H 468.138 -1.13196 6.0083 0
M  V30 4832 H 472.312 -0.759074 6.92251 0
M  V30 4833 H 469.939 -0.503011 7.58534 0
M  V30 4834 N 471.514 -1.37532 -0.769588 0
M  V30 4835 C 472.925 -1.29382 -1.346 0
M  V30 4836 C 473.276 0.0576039 -1.96115 0
M  V30 4837 O 472.401 0.95947 -1.93967 0
M  V30 4838 C 472.996 -2.34298 -2.44724 0
M  V30 4839 C 471.555 -2.29776 -2.98128 0
M  V30 4840 C 470.702 -2.18013 -1.71364 0
M  V30 4841 H 473.653 -1.48123 -0.56968 0
M  V30 4842 H 473.674 -1.99089 -3.24259 0
M  V30 4843 H 473.186 -3.32645 -1.99922 0
M  V30 4844 H 471.287 -1.34959 -3.47299 0
M  V30 4845 H 471.4 -3.23276 -3.53595 0
M  V30 4846 H 469.764 -1.64595 -1.94372 0
M  V30 4847 H 470.547 -3.18278 -1.28662 0
M  V30 4848 N 472.992 0.995999 -1.22138 0
M  V30 4849 C 473.922 2.10387 -1.01289 0
M  V30 4850 C 474.903 1.69975 0.0651454 0
M  V30 4851 O 476.088 1.9396 -0.0964628 0
M  V30 4852 C 473.218 3.42312 -0.586517 0
M  V30 4853 C 472.172 3.96558 -1.61014 0
M  V30 4854 C 471.498 5.24494 -1.0397 0
M  V30 4855 C 472.798 4.27595 -2.99933 0
M  V30 4856 H 474.492 2.28086 -1.93951 0
M  V30 4857 H 472.038 1.09607 -0.933928 0
M  V30 4858 H 473.991 4.19223 -0.427793 0
M  V30 4859 H 472.715 3.24431 0.375761 0
M  V30 4860 H 471.374 3.21776 -1.75658 0
M  V30 4861 H 471.022 5.02953 -0.0688703 0
M  V30 4862 H 470.722 5.61755 -1.72352 0
M  V30 4863 H 472.246 6.04042 -0.892494 0
M  V30 4864 H 473.66 4.95315 -2.8868 0
M  V30 4865 H 472.057 4.76021 -3.6541 0
M  V30 4866 H 473.127 3.35498 -3.50099 0
M  V30 4867 N 474.47 1.03057 1.19235 0
M  V30 4868 C 475.717 0.728019 1.88961 0
M  V30 4869 C 476.045 -0.743515 1.79728 0
M  V30 4870 O 475.3 -1.55729 1.1852 0
M  V30 4871 C 475.599 1.1268 3.39172 0
M  V30 4872 C 475.265 2.5969 3.68608 0
M  V30 4873 C 473.927 2.99854 3.76352 0
M  V30 4874 C 476.279 3.54793 3.81801 0
M  V30 4875 C 473.607 4.34031 3.94758 0
M  V30 4876 C 475.959 4.88675 4.0172 0
M  V30 4877 C 474.623 5.28526 4.07697 0
M  V30 4878 H 473.893 0.266401 0.691456 0
M  V30 4879 H 476.54 1.29373 1.41191 0
M  V30 4880 H 474.845 0.479722 3.88852 0
M  V30 4881 H 476.542 0.870203 3.91444 0
M  V30 4882 H 473.132 2.27575 3.63191 0
M  V30 4883 H 477.316 3.24914 3.7516 0
M  V30 4884 H 472.572 4.6444 3.97625 0
M  V30 4885 H 476.746 5.6228 4.1087 0
M  V30 4886 H 474.373 6.32506 4.21712 0
M  V30 4887 N 475.948 -1.35272 0.808662 0
M  V30 4888 C 476.881 -2.27595 0.165994 0
M  V30 4889 C 477.859 -1.48189 -0.669241 0
M  V30 4890 O 479.043 -1.77444 -0.636073 0
M  V30 4891 C 476.17 -3.29843 -0.769505 0
M  V30 4892 C 475.216 -4.26498 -0.0136267 0
M  V30 4893 S 476.049 -5.18878 1.32384 0
M  V30 4894 C 477.205 -6.24666 0.392838 0
M  V30 4895 H 477.438 -2.81755 0.948756 0
M  V30 4896 H 474.971 -1.42103 0.603828 0
M  V30 4897 H 476.929 -3.89247 -1.30374 0
M  V30 4898 H 475.59 -2.74558 -1.52567 0
M  V30 4899 H 474.783 -4.98769 -0.724227 0
M  V30 4900 H 474.385 -3.71274 0.450713 0
M  V30 4901 H 476.677 -6.7619 -0.4211 0
M  V30 4902 H 477.62 -6.99741 1.0848 0
M  V30 4903 H 478.028 -5.64499 -0.0123908 0
M  V30 4904 N 477.426 -0.562348 -1.47226 0
M  V30 4905 C 478.389 0.172056 -2.28553 0
M  V30 4906 C 479.389 0.837928 -1.37242 0
M  V30 4907 O 480.579 0.693001 -1.59822 0
M  V30 4908 C 477.711 1.25223 -3.17068 0
M  V30 4909 H 478.904 -0.542401 -2.94954 0
M  V30 4910 H 476.457 -0.319493 -1.53 0
M  V30 4911 H 477.192 1.99892 -2.55369 0
M  V30 4912 H 476.977 0.779515 -3.84273 0
M  V30 4913 H 478.467 1.76791 -3.78332 0
M  V30 4914 N 478.904 1.54736 -0.299062 0
M  V30 4915 C 480.15 2.00397 0.311244 0
M  V30 4916 C 480.483 1.18716 1.53688 0
M  V30 4917 O 479.758 0.263154 1.92712 0
M  V30 4918 C 480.041 3.53817 0.669761 0
M  V30 4919 C 479.894 4.46239 -0.564882 0
M  V30 4920 C 481.213 4.13856 1.49702 0
M  V30 4921 H 478.332 0.728493 0.111653 0
M  V30 4922 H 480.974 1.85506 -0.410774 0
M  V30 4923 H 479.124 3.66637 1.28491 0
M  V30 4924 H 480.796 4.45328 -1.20337 0
M  V30 4925 H 479.039 4.16916 -1.19849 0
M  V30 4926 H 479.71 5.5134 -0.269918 0
M  V30 4927 H 482.186 4.04461 0.977284 0
M  V30 4928 H 481.062 5.21365 1.71666 0
M  V30 4929 H 481.323 3.65608 2.48563 0
M  V30 4930 N 480.382 0.0267497 1.57577 0
M  V30 4931 C 481.612 -0.6617 1.95717 0
M  V30 4932 C 482.02 -1.66331 0.901706 0
M  V30 4933 O 481.363 -1.83273 -0.125241 0
M  V30 4934 C 481.425 -1.42649 3.29987 0
M  V30 4935 C 481.089 -0.583482 4.5326 0
M  V30 4936 C 482.086 0.140221 5.19711 0
M  V30 4937 C 479.771 -0.521581 4.99585 0
M  V30 4938 C 481.765 0.914523 6.30805 0
M  V30 4939 C 479.452 0.256428 6.10562 0
M  V30 4940 C 480.45 0.973189 6.76031 0
M  V30 4941 O 480.138 1.73845 7.84878 0
M  V30 4942 H 479.87 -0.187483 0.649481 0
M  V30 4943 H 482.424 0.0820847 2.05236 0
M  V30 4944 H 480.654 -2.21536 3.16952 0
M  V30 4945 H 482.343 -2.00282 3.53047 0
M  V30 4946 H 483.109 0.101716 4.84893 0
M  V30 4947 H 478.988 -1.06904 4.48433 0
M  V30 4948 H 482.532 1.4745 6.81839 0
M  V30 4949 H 478.429 0.296657 6.44818 0
M  V30 4950 H 479.197 1.65797 8.01532 0
M  V30 4951 N 481.861 -1.55662 -0.24637 0
M  V30 4952 C 482.808 -1.90361 -1.30504 0
M  V30 4953 C 483.778 -0.757905 -1.47801 0
M  V30 4954 O 484.963 -1.01161 -1.61775 0
M  V30 4955 C 482.103 -2.2042 -2.65535 0
M  V30 4956 C 481.216 -3.47799 -2.56242 0
M  V30 4957 C 480.351 -3.67426 -3.8363 0
M  V30 4958 C 479.39 -4.88403 -3.68956 0
M  V30 4959 N 478.527 -5.04548 -4.88237 0
M  V30 4960 H 483.367 -2.80645 -1.00213 0
M  V30 4961 H 480.904 -1.38924 -0.483577 0
M  V30 4962 H 482.862 -2.35853 -3.44135 0
M  V30 4963 H 481.492 -1.3334 -2.93973 0
M  V30 4964 H 480.544 -3.40694 -1.69208 0
M  V30 4965 H 481.856 -4.36544 -2.4131 0
M  V30 4966 H 481.01 -3.82821 -4.70673 0
M  V30 4967 H 479.749 -2.76914 -4.01459 0
M  V30 4968 H 478.754 -4.72984 -2.80296 0
M  V30 4969 H 479.979 -5.80375 -3.52621 0
M  V30 4970 H 477.925 -4.16974 -5.06427 0
M  V30 4971 H 477.842 -5.87384 -4.75937 0
M  V30 4972 H 479.11 -5.24355 -5.76777 0
M  V30 4973 N 483.339 0.512053 -1.4905 0
M  V30 4974 C 484.585 1.26874 -1.58212 0
M  V30 4975 C 484.918 1.9241 -0.263073 0
M  V30 4976 O 484.193 1.80181 0.732476 0
M  V30 4977 C 484.476 2.34428 -2.73341 0
M  V30 4978 C 484.329 1.73466 -4.15006 0
M  V30 4979 C 485.648 3.36073 -2.84154 0
M  V30 4980 H 482.767 0.459924 -0.575881 0
M  V30 4981 H 485.409 0.568587 -1.81293 0
M  V30 4982 H 483.559 2.94146 -2.53792 0
M  V30 4983 H 485.231 1.17661 -4.46042 0
M  V30 4984 H 483.474 1.03921 -4.21168 0
M  V30 4985 H 484.145 2.51426 -4.91415 0
M  V30 4986 H 486.621 2.86332 -3.01916 0
M  V30 4987 H 485.497 4.08703 -3.66406 0
M  V30 4988 H 485.758 3.97725 -1.93048 0
M  V30 4989 N 484.817 1.37938 0.762283 0
M  V30 4990 C 486.057 1.35076 1.53407 0
M  V30 4991 C 486.421 -0.061546 1.91901 0
M  V30 4992 O 487.622 -0.214973 2.67939 0
M  V30 4993 C 485.893 2.27206 2.75884 0
M  V30 4994 S 487.452 2.42283 3.65848 0
M  V30 4995 H 484.27 0.479387 0.52508 0
M  V30 4996 H 486.872 1.7378 0.895586 0
M  V30 4997 H 485.576 3.28724 2.457 0
M  V30 4998 H 485.107 1.8962 3.44685 0
M  V30 4999 H 487.122 1.64044 4.68299 0
M  V30 5000 N 486.295 -0.989507 1.22664 0
M  V30 5001 C 487.525 -1.7624 1.0781 0
M  V30 5002 C 487.933 -1.85466 -0.374036 0
M  V30 5003 O 487.276 -1.32645 -1.27087 0
M  V30 5004 C 487.338 -3.21007 1.61849 0
M  V30 5005 C 487.002 -3.35316 3.10503 0
M  V30 5006 C 487.999 -3.22362 4.07896 0
M  V30 5007 C 485.684 -3.60258 3.50028 0
M  V30 5008 C 487.678 -3.34139 5.42798 0
M  V30 5009 C 485.365 -3.71676 4.85078 0
M  V30 5010 C 486.363 -3.58625 5.81272 0
M  V30 5011 O 486.051 -3.69655 7.1387 0
M  V30 5012 H 485.783 -0.560209 0.378341 0
M  V30 5013 H 488.337 -1.25252 1.62792 0
M  V30 5014 H 486.567 -3.73202 1.01279 0
M  V30 5015 H 488.256 -3.80024 1.42606 0
M  V30 5016 H 489.022 -3.03 3.78703 0
M  V30 5017 H 484.901 -3.69492 2.75675 0
M  V30 5018 H 488.445 -3.23869 6.17863 0
M  V30 5019 H 484.342 -3.90545 5.1395 0
M  V30 5020 H 485.11 -3.86507 7.21495 0
M  V30 5021 N 487.773 -1.03688 -1.18687 0
M  V30 5022 C 488.683 -0.634908 -2.25845 0
M  V30 5023 C 489.699 0.337065 -1.70704 0
M  V30 5024 O 490.875 0.192943 -2.00474 0
M  V30 5025 C 487.94 -0.000180054 -3.467 0
M  V30 5026 C 487.001 -1.02067 -4.1699 0
M  V30 5027 C 486.234 -0.41614 -5.32075 0
M  V30 5028 O 486.457 0.778712 -5.65059 0
M  V30 5029 O 485.391 -1.14296 -5.90948 0
M  V30 5030 H 489.217 -1.52757 -2.62486 0
M  V30 5031 H 486.802 -0.807533 -1.25695 0
M  V30 5032 H 488.684 0.353342 -4.19916 0
M  V30 5033 H 487.359 0.866367 -3.11891 0
M  V30 5034 H 486.266 -1.42592 -3.45859 0
M  V30 5035 H 487.599 -1.85786 -4.5579 0
M  V30 5036 N 489.251 1.34841 -0.815825 0
M  V30 5037 C 490.499 1.98107 -0.399744 0
M  V30 5038 C 490.82 1.65019 1.03894 0
M  V30 5039 O 490.09 0.937311 1.72021 0
M  V30 5040 H 488.67 0.732827 -0.144823 0
M  V30 5041 H 491.332 1.64599 -1.0437 0
M  V30 5042 H 490.428 3.07856 -0.512965 0
M  V30 5043 N 490.729 0.570148 1.46925 0
M  V30 5044 C 491.661 -0.207909 2.28255 0
M  V30 5045 C 492.674 -0.867301 1.37774 0
M  V30 5046 O 493.863 -0.738976 1.62485 0
M  V30 5047 C 490.963 -1.31298 3.12433 0
M  V30 5048 C 490.136 -0.747915 4.30958 0
M  V30 5049 C 489.195 -1.7391 4.9663 0
M  V30 5050 O 488.221 -1.2801 5.54619 0
M  V30 5051 N 489.423 -3.07288 4.92498 0
M  V30 5052 H 492.188 0.489794 2.95671 0
M  V30 5053 H 489.749 0.407076 1.56699 0
M  V30 5054 H 491.741 -1.97507 3.53232 0
M  V30 5055 H 490.311 -1.91373 2.47175 0
M  V30 5056 H 489.531 0.0913066 3.94094 0
M  V30 5057 H 490.819 -0.349958 5.07595 0
M  V30 5058 H 490.217 -3.47213 4.46609 0
M  V30 5059 H 488.774 -3.69021 5.37277 0
M  V30 5060 N 492.207 -1.54576 0.307264 0
M  V30 5061 C 493.618 -1.8579 -0.184121 0
M  V30 5062 C 493.969 -1.22914 -1.52927 0
M  V30 5063 O 493.094 -0.529126 -2.09831 0
M  V30 5064 C 493.689 -3.37081 -0.340862 0
M  V30 5065 C 492.248 -3.68304 -0.776465 0
M  V30 5066 C 491.395 -2.77076 0.111503 0
M  V30 5067 H 494.346 -1.49656 0.528078 0
M  V30 5068 H 494.367 -3.61922 -1.17443 0
M  V30 5069 H 493.879 -3.82815 0.638309 0
M  V30 5070 H 491.98 -3.28092 -1.76596 0
M  V30 5071 H 492.093 -4.75434 -0.591512 0
M  V30 5072 H 490.457 -2.51374 -0.410256 0
M  V30 5073 H 491.24 -3.25632 1.08714 0
M  V30 5074 N 493.685 -0.035106 -1.57561 0
M  V30 5075 C 494.931 0.64318 -1.92331 0
M  V30 5076 C 495.264 1.71434 -0.912368 0
M  V30 5077 O 494.539 1.94395 0.0640303 0
M  V30 5078 C 494.822 1.25411 -3.37556 0
M  V30 5079 C 494.675 0.192109 -4.4939 0
M  V30 5080 C 495.994 2.17041 -3.82859 0
M  V30 5081 H 493.113 0.232341 -0.699419 0
M  V30 5082 H 495.755 -0.0935889 -1.89769 0
M  V30 5083 H 493.905 1.88205 -3.39869 0
M  V30 5084 H 495.577 -0.438849 -4.59208 0
M  V30 5085 H 493.82 -0.481725 -4.31117 0
M  V30 5086 H 494.491 0.659292 -5.48049 0
M  V30 5087 H 496.967 1.64228 -3.8232 0
M  V30 5088 H 495.843 2.56738 -4.85157 0
M  V30 5089 H 496.104 3.06401 -3.18702 0
M  V30 5090 N 495.163 1.55791 0.238111 0
M  V30 5091 C 496.411 1.77681 0.963001 0
M  V30 5092 C 496.732 0.600674 1.85518 0
M  V30 5093 O 496.002 -0.383182 1.92116 0
M  V30 5094 H 494.582 0.655315 0.358568 0
M  V30 5095 H 497.244 1.93239 0.253945 0
M  V30 5096 H 496.34 2.69177 1.57956 0
M  V30 5097 N 496.642 -0.504142 1.49319 0
M  V30 5098 C 497.552 -1.63248 1.68486 0
M  V30 5099 C 498.568 -1.64488 0.567432 0
M  V30 5100 O 499.744 -1.82966 0.841749 0
M  V30 5101 C 496.809 -2.99627 1.74426 0
M  V30 5102 C 495.87 -3.09039 2.97982 0
M  V30 5103 C 495.103 -4.38913 3.0363 0
M  V30 5104 O 495.326 -5.27528 2.16958 0
M  V30 5105 O 494.26 -4.53231 3.96062 0
M  V30 5106 H 498.086 -1.50008 2.64067 0
M  V30 5107 H 495.671 -0.680086 1.33023 0
M  V30 5108 H 497.553 -3.80689 1.80705 0
M  V30 5109 H 496.228 -3.13136 0.820233 0
M  V30 5110 H 495.135 -2.27177 2.97223 0
M  V30 5111 H 496.468 -3.00456 3.89855 0
M  V30 5112 N 498.12 -1.38341 -0.754957 0
M  V30 5113 C 499.367 -1.34473 -1.51404 0
M  V30 5114 C 499.695 0.0656458 -1.94389 0
M  V30 5115 O 498.95 1.04244 -1.65625 0
M  V30 5116 C 499.249 -2.2452 -2.78075 0
M  V30 5117 C 498.915 -3.72512 -2.54059 0
M  V30 5118 C 497.577 -4.1284 -2.47218 0
M  V30 5119 C 499.929 -4.66197 -2.33044 0
M  V30 5120 C 497.257 -5.44945 -2.17376 0
M  V30 5121 C 499.609 -5.98558 -2.04723 0
M  V30 5122 C 498.273 -6.37972 -1.96337 0
M  V30 5123 H 497.543 -0.492072 -0.554027 0
M  V30 5124 H 500.19 -1.70687 -0.868223 0
M  V30 5125 H 498.495 -1.81357 -3.473 0
M  V30 5126 H 500.192 -2.18832 -3.36026 0
M  V30 5127 H 496.782 -3.40538 -2.60253 0
M  V30 5128 H 500.966 -4.35888 -2.37309 0
M  V30 5129 H 496.222 -5.74426 -2.09391 0
M  V30 5130 H 500.396 -6.70693 -1.87465 0
M  V30 5131 H 498.023 -7.40258 -1.72978 0
M  V30 5132 N 499.598 0.982988 -1.23187 0
M  V30 5133 C 500.847 1.71817 -1.05649 0
M  V30 5134 C 501.16 1.91315 0.407176 0
M  V30 5135 O 502.366 2.62256 0.702436 0
M  V30 5136 C 500.822 3.09188 -1.84203 0
M  V30 5137 C 500.43 2.97586 -3.34882 0
M  V30 5138 C 502.174 3.86684 -1.75146 0
M  V30 5139 C 500.081 4.30173 -4.05839 0
M  V30 5140 H 499.011 0.644258 -0.391724 0
M  V30 5141 H 501.662 1.09659 -1.4713 0
M  V30 5142 H 500.044 3.72087 -1.35527 0
M  V30 5143 H 501.218 2.43793 -3.91026 0
M  V30 5144 H 499.533 2.33567 -3.44725 0
M  V30 5145 H 502.13 4.84836 -2.25473 0
M  V30 5146 H 502.473 4.10136 -0.713737 0
M  V30 5147 H 503.006 3.30482 -2.21419 0
M  V30 5148 H 499.745 4.11918 -5.09906 0
M  V30 5149 H 499.265 4.83841 -3.54482 0
M  V30 5150 H 500.944 4.98873 -4.11989 0
M  V30 5151 N 501.076 1.04316 1.18135 0
M  V30 5152 C 502.026 0.606731 2.19779 0
M  V30 5153 C 503.01 -0.352144 1.56999 0
M  V30 5154 O 504.202 -0.170795 1.76174 0
M  V30 5155 C 501.331 -0.0262443 3.4329 0
M  V30 5156 C 500.417 0.955928 4.13186 0
M  V30 5157 N 500.808 2.12395 4.59045 0
M  V30 5158 C 499.106 0.782473 4.39082 0
M  V30 5159 C 499.807 2.74458 5.12882 0
M  V30 5160 N 498.783 2.02316 5.04548 0
M  V30 5161 H 502.585 1.49679 2.5293 0
M  V30 5162 H 500.099 0.912088 1.34368 0
M  V30 5163 H 502.096 -0.356617 4.15372 0
M  V30 5164 H 500.756 -0.911811 3.11635 0
M  V30 5165 H 501.767 2.50272 4.53414 0
M  V30 5166 H 498.444 -0.0527906 4.17467 0
M  V30 5167 H 499.834 3.73459 5.5855 0
M  V30 5168 N 502.554 -1.34406 0.822964 0
M  V30 5169 C 503.794 -2.00103 0.416915 0
M  V30 5170 C 504.158 -1.63826 -1.00125 0
M  V30 5171 O 505.359 -2.22367 -1.51018 0
M  V30 5172 C 503.63 -3.52101 0.613151 0
M  V30 5173 S 505.189 -4.37774 0.299956 0
M  V30 5174 H 502.007 -0.69333 0.157527 0
M  V30 5175 H 504.609 -1.63698 1.06879 0
M  V30 5176 H 503.313 -3.75991 1.64496 0
M  V30 5177 H 502.844 -3.93364 -0.0534554 0
M  V30 5178 H 504.859 -4.8822 -0.886336 0
M  V30 5179 N 504.032 -0.577932 -1.46621 0
M  V30 5180 C 504.962 0.145917 -2.33044 0
M  V30 5181 C 505.943 0.888412 -1.45056 0
M  V30 5182 O 507.128 0.864812 -1.73881 0
M  V30 5183 C 504.258 1.16322 -3.27241 0
M  V30 5184 C 503.212 0.535868 -4.24632 0
M  V30 5185 C 502.538 1.65929 -5.08303 0
M  V30 5186 C 503.838 -0.523861 -5.19666 0
M  V30 5187 H 505.532 -0.575636 -2.93814 0
M  V30 5188 H 503.078 -0.278272 -1.41286 0
M  V30 5189 H 505.031 1.67793 -3.86553 0
M  V30 5190 H 503.755 1.91498 -2.64567 0
M  V30 5191 H 502.414 0.0422759 -3.66576 0
M  V30 5192 H 502.062 2.40061 -4.42018 0
M  V30 5193 H 501.762 1.2452 -5.74255 0
M  V30 5194 H 503.286 2.17686 -5.70478 0
M  V30 5195 H 504.7 -0.0944059 -5.73222 0
M  V30 5196 H 503.097 -0.858 -5.93935 0
M  V30 5197 H 504.167 -1.41197 -4.63887 0
M  V30 5198 N 505.51 1.54411 -0.315457 0
M  V30 5199 C 506.442 2.21527 0.588067 0
M  V30 5200 C 507.455 1.21263 1.08624 0
M  V30 5201 O 508.644 1.47777 1.00121 0
M  V30 5202 C 505.744 2.85963 1.81875 0
M  V30 5203 C 504.917 4.12291 1.46063 0
M  V30 5204 C 503.976 4.60396 2.54799 0
M  V30 5205 O 503.002 5.25265 2.19283 0
M  V30 5206 N 504.204 4.33935 3.85591 0
M  V30 5207 H 506.969 2.99697 0.013414 0
M  V30 5208 H 504.53 1.61308 -0.138295 0
M  V30 5209 H 506.522 3.15071 2.53993 0
M  V30 5210 H 505.092 2.11548 2.30144 0
M  V30 5211 H 504.312 3.90036 0.571445 0
M  V30 5212 H 505.6 4.9452 1.19695 0
M  V30 5213 H 504.998 3.81996 4.17248 0
M  V30 5214 H 503.555 4.67718 4.53964 0
M  V30 5215 N 506.988 0.0434614 1.5754 0
M  V30 5216 C 507.936 -0.951465 2.1225 0
M  V30 5217 C 508.93 -1.3274 1.05245 0
M  V30 5218 O 510.136 -1.30795 1.23663 0
M  V30 5219 H 506.511 -0.324667 0.678303 0
M  V30 5220 H 508.482 -0.464855 2.94757 0
M  V30 5221 C 507.231 -2.21972 2.67626 0
M  V30 5222 H 506.554 -1.93923 3.4962 0
M  V30 5223 H 507.994 -2.89765 3.09536 0
M  V30 5224 C 506.453 -2.95919 1.61038 0
M  V30 5225 O 506.983 -3.8857 1.01862 0
M  V30 5226 N 505.189 -2.58511 1.32741 0
M  V30 5227 H 504.736 -1.83244 1.81051 0
M  V30 5228 H 504.694 -3.08296 0.616531 0
M  V30 5229 N 508.466 -1.55915 -0.229846 0
M  V30 5230 C 509.416 -1.8813 -1.28807 0
M  V30 5231 C 510.4 -0.743621 -1.42685 0
M  V30 5232 O 511.592 -1.00588 -1.4564 0
M  V30 5233 C 508.721 -2.19431 -2.64017 0
M  V30 5234 C 507.807 -3.39569 -2.54074 0
M  V30 5235 N 508.198 -4.58404 -2.13774 0
M  V30 5236 C 506.496 -3.43019 -2.85051 0
M  V30 5237 C 507.197 -5.40557 -2.1488 0
M  V30 5238 N 506.173 -4.80054 -2.55047 0
M  V30 5239 H 509.975 -2.77527 -0.967261 0
M  V30 5240 H 507.489 -1.5637 -0.438433 0
M  V30 5241 H 509.486 -2.40681 -3.40409 0
M  V30 5242 H 508.146 -1.31341 -2.9695 0
M  V30 5243 H 509.157 -4.83716 -1.8504 0
M  V30 5244 H 505.834 -2.65249 -3.22411 0
M  V30 5245 H 507.224 -6.45666 -1.85918 0
M  V30 5246 N 509.944 0.496216 -1.49584 0
M  V30 5247 C 511.355 1.07765 -1.52459 0
M  V30 5248 C 511.706 1.93679 -0.31353 0
M  V30 5249 O 510.831 2.08588 0.576186 0
M  V30 5250 C 511.426 1.96111 -2.76271 0
M  V30 5251 C 509.985 2.49409 -2.81908 0
M  V30 5252 C 509.132 1.27142 -2.46435 0
M  V30 5253 H 512.083 0.279914 -1.56212 0
M  V30 5254 H 512.104 2.80862 -2.56704 0
M  V30 5255 H 511.616 1.33555 -3.64396 0
M  V30 5256 H 509.717 3.1559 -1.98074 0
M  V30 5257 H 509.83 2.86234 -3.84196 0
M  V30 5258 H 508.194 1.59818 -1.98319 0
M  V30 5259 H 508.977 0.662866 -3.3684 0
M  V30 5260 N 511.423 1.38739 0.74761 0
M  V30 5261 C 512.333 1.38696 1.89211 0
M  V30 5262 C 513.349 0.283303 1.71678 0
M  V30 5263 O 514.525 0.522713 1.94498 0
M  V30 5264 C 511.59 1.21662 3.24653 0
M  V30 5265 C 510.651 2.41886 3.54669 0
M  V30 5266 C 509.884 2.25655 4.83648 0
M  V30 5267 O 510.107 1.25339 5.56459 0
M  V30 5268 O 509.041 3.14372 5.13277 0
M  V30 5269 H 512.867 2.35143 1.92202 0
M  V30 5270 H 510.452 1.19721 0.893708 0
M  V30 5271 H 512.334 1.14246 4.05618 0
M  V30 5272 H 511.009 0.283024 3.2246 0
M  V30 5273 H 509.916 2.54877 2.73841 0
M  V30 5274 H 511.249 3.33895 3.61628 0
M  V30 5275 N 512.901 -0.976442 1.23707 0
M  V30 5276 C 513.851 -2.0544 0.988851 0
M  V30 5277 C 514.835 -1.60762 -0.0665901 0
M  V30 5278 O 516.027 -1.76396 0.14604 0
M  V30 5279 C 513.156 -3.38258 0.586223 0
M  V30 5280 C 512.242 -3.89523 1.67728 0
M  V30 5281 N 512.633 -4.13823 2.90834 0
M  V30 5282 C 510.931 -4.18097 1.55277 0
M  V30 5283 C 511.632 -4.55731 3.61502 0
M  V30 5284 N 510.608 -4.60394 2.8903 0
M  V30 5285 H 514.41 -2.22191 1.92376 0
M  V30 5286 H 511.924 -1.15954 1.13704 0
M  V30 5287 H 513.921 -4.15075 0.389658 0
M  V30 5288 H 512.581 -3.22898 -0.341594 0
M  V30 5289 H 513.592 -4.01529 3.271 0
M  V30 5290 H 510.269 -4.11719 0.692351 0
M  V30 5291 H 511.659 -4.83018 4.67059 0
M  V30 5292 N 514.379 -1.04941 -1.1758 0
M  V30 5293 C 515.312 -0.592518 -2.20373 0
M  V30 5294 C 516.29 0.377561 -1.58156 0
M  V30 5295 O 517.474 0.28978 -1.86259 0
M  V30 5296 C 514.601 0.133215 -3.38438 0
M  V30 5297 C 513.647 -0.791484 -4.19092 0
M  V30 5298 S 514.48 -2.27925 -4.84572 0
M  V30 5299 C 515.636 -1.56462 -6.06028 0
M  V30 5300 H 515.869 -1.46342 -2.58788 0
M  V30 5301 H 513.402 -0.861148 -1.28155 0
M  V30 5302 H 515.36 0.545746 -4.06856 0
M  V30 5303 H 514.021 0.980124 -2.98416 0
M  V30 5304 H 513.214 -0.230039 -5.03475 0
M  V30 5305 H 512.816 -1.14326 -3.56098 0
M  V30 5306 H 515.108 -0.862539 -6.71987 0
M  V30 5307 H 516.051 -2.38583 -6.66696 0
M  V30 5308 H 516.459 -1.05313 -5.5459 0
M  V30 5309 O 515.896 1.29495 -0.96506 0
M  V30 5310 H 516.587 1.84082 -0.602793 0
M  V30 END ATOM
M  V30 BEGIN BOND
M  V30 END BOND
M  V30 END CTAB
M  END
$$$$
