drugbank_target|P80372 30S ribosomal protein S3 (DB08185)
 OpenBabel12092120483D

  0  0  0     0  0            999 V3000
M  V30 BEGIN CTAB
M  V30 COUNTS 3864 3893 0 0 0
M  V30 BEGIN ATOM
M  V30 1 H -0.908 1.98254 -0.117106 0
M  V30 2 N 0 1.576 0 0
M  V30 3 C 0.933 2.03868 1.02534 0
M  V30 4 C 1.911 0.928543 1.3348 0
M  V30 5 O 3.095 1.19667 1.45644 0
M  V30 6 C 0.222 2.43627 2.35294 0
M  V30 7 C -0.732 3.65373 2.2001 0
M  V30 8 S 0.101 5.13292 1.52614 0
M  V30 9 C 1.257 5.56322 2.86805 0
M  V30 10 H 1.49 2.90518 0.631377 0
M  V30 11 H -0.977 1.52953 0.210867 0
M  V30 12 H 0.981 2.67203 3.11629 0
M  V30 13 H -0.358 1.57376 2.7183 0
M  V30 14 H -1.165 3.90944 3.18086 0
M  V30 15 H -1.563 3.418 1.51819 0
M  V30 16 H 0.729 5.58782 3.83104 0
M  V30 17 H 1.672 6.56266 2.65933 0
M  V30 18 H 2.08 4.83886 2.90714 0
M  V30 19 N 1.4781 -0.272755 1.55222 0
M  V30 20 C 2.7261 -1.00234 1.75492 0
M  V30 21 C 3.0471 -1.8681 0.5592 0
M  V30 22 O 2.3171 -1.91215 -0.425882 0
M  V30 23 H 0.8971 -0.373076 0.647166 0
M  V30 24 H 3.5591 -0.296926 1.92625 0
M  V30 25 H 2.6551 -1.63913 2.65592 0
M  V30 26 N 2.9562 -1.48159 -0.537278 0
M  V30 27 C 3.9042 -1.62573 -1.66352 0
M  V30 28 C 4.8982 -0.492366 -1.62087 0
M  V30 29 O 6.1042 -0.670847 -1.67032 0
M  V30 30 H 2.4792 -0.511992 -0.550789 0
M  V30 31 H 4.4502 -2.57176 -1.51337 0
M  V30 32 C 3.1992 -1.67583 -3.04649 0
M  V30 33 H 2.5222 -2.54151 -3.08622 0
M  V30 34 H 3.9622 -1.81713 -3.83088 0
M  V30 35 C 2.4212 -0.413039 -3.34358 0
M  V30 36 O 2.9512 0.477259 -3.98855 0
M  V30 37 N 1.1572 -0.286961 -2.8918 0
M  V30 38 H 0.7042 -1.01241 -2.36871 0
M  V30 39 H 0.6622 0.556963 -3.09427 0
M  V30 40 N 4.4343 0.785586 -1.36625 0
M  V30 41 C 5.3813 1.89838 -1.31264 0
M  V30 42 C 6.3513 1.65115 -0.180633 0
M  V30 43 O 7.5363 1.87222 -0.36777 0
M  V30 44 C 4.6763 3.26706 -1.11163 0
M  V30 45 C 3.7893 3.63476 -2.33472 0
M  V30 46 C 2.9243 4.89481 -2.06353 0
M  V30 47 C 1.9633 5.18941 -3.24602 0
M  V30 48 N 1.1003 6.36131 -2.97123 0
M  V30 49 H 5.9403 1.93756 -2.26413 0
M  V30 50 H 3.4773 0.947454 -1.12524 0
M  V30 51 H 5.4353 4.05639 -0.975337 0
M  V30 52 H 4.0653 3.222 -0.196674 0
M  V30 53 H 3.1173 2.79636 -2.57891 0
M  V30 54 H 4.4293 3.81193 -3.21704 0
M  V30 55 H 3.5833 5.76288 -1.89675 0
M  V30 56 H 2.3223 4.73841 -1.15437 0
M  V30 57 H 1.3273 4.30615 -3.41834 0
M  V30 58 H 2.5523 5.36498 -4.16349 0
M  V30 59 H 0.4983 6.21875 -2.08823 0
M  V30 60 H 0.4153 6.54198 -3.78894 0
M  V30 61 H 1.6833 7.2591 -2.84033 0
M  V30 62 N 5.9124 1.20967 1.01018 0
M  V30 63 C 7.1614 1.01796 1.74128 0
M  V30 64 C 7.4744 -0.449691 1.90361 0
M  V30 65 O 8.6804 -0.76068 2.60626 0
M  V30 66 C 7.1364 1.7727 3.13215 0
M  V30 67 C 6.7444 3.28171 3.04972 0
M  V30 68 C 8.4884 1.66489 3.90489 0
M  V30 69 C 6.3954 3.96156 4.39107 0
M  V30 70 H 5.3254 0.377276 0.652824 0
M  V30 71 H 7.9764 1.44651 1.12909 0
M  V30 72 H 6.3584 1.27205 3.75013 0
M  V30 73 H 7.5324 3.85499 2.52443 0
M  V30 74 H 5.8474 3.39437 2.41188 0
M  V30 75 H 8.4444 2.14617 4.89738 0
M  V30 76 H 8.7874 0.6222 4.11624 0
M  V30 77 H 9.3204 2.14003 3.35332 0
M  V30 78 H 6.0594 5.00604 4.23174 0
M  V30 79 H 5.5794 3.43617 4.91617 0
M  V30 80 H 7.2584 4.00774 5.07926 0
M  V30 81 N 7.3905 -1.2043 1.01659 0
M  V30 82 C 8.3405 -2.21076 0.557623 0
M  V30 83 C 9.3245 -1.56176 -0.387029 0
M  V30 84 O 10.5165 -1.7575 -0.209996 0
M  V30 85 C 7.6455 -3.43146 -0.102707 0
M  V30 86 C 6.7315 -4.15213 0.863652 0
M  V30 87 N 7.1225 -4.63662 2.02117 0
M  V30 88 C 5.4205 -4.40716 0.684472 0
M  V30 89 C 6.1215 -5.18868 2.62966 0
M  V30 90 N 5.0975 -5.0893 1.91027 0
M  V30 91 H 8.8995 -2.56201 1.44008 0
M  V30 92 H 6.4135 -1.36366 0.881931 0
M  V30 93 H 8.4105 -4.14475 -0.449054 0
M  V30 94 H 7.0705 -3.09526 -0.981003 0
M  V30 95 H 8.0815 -4.58877 2.40109 0
M  V30 96 H 4.7585 -4.17245 -0.14577 0
M  V30 97 H 6.1485 -5.6673 3.60924 0
M  V30 98 N 8.8686 -0.792821 -1.36206 0
M  V30 99 C 10.2796 -0.429513 -1.81692 0
M  V30 100 C 10.6306 1.04695 -1.65932 0
M  V30 101 O 9.7556 1.81256 -1.18218 0
M  V30 102 C 10.3506 -0.772831 -3.29868 0
M  V30 103 C 8.9096 -0.462307 -3.7355 0
M  V30 104 C 8.0566 -1.00569 -2.5842 0
M  V30 105 H 11.0076 -0.985672 -1.24379 0
M  V30 106 H 11.0286 -0.0651928 -3.80444 0
M  V30 107 H 10.5406 -1.84747 -3.41307 0
M  V30 108 H 8.6416 0.604158 -3.67669 0
M  V30 109 H 8.7546 -0.985299 -4.68859 0
M  V30 110 H 7.1186 -0.428734 -2.51066 0
M  V30 111 H 7.9016 -2.08616 -2.72643 0
M  V30 112 N 10.3467 1.47872 -0.545128 0
M  V30 113 C 11.5957 2.01695 -0.0145033 0
M  V30 114 C 11.9087 1.42609 1.33873 0
M  V30 115 O 13.1147 1.88021 1.95858 0
M  V30 116 C 11.5707 3.59892 0.0245068 0
M  V30 117 C 11.1787 4.27966 -1.32475 0
M  V30 118 C 12.9227 4.21507 0.50316 0
M  V30 119 C 10.8297 5.78136 -1.2455 0
M  V30 120 H 9.7597 0.753998 -0.00165172 0
M  V30 121 H 12.4107 1.69985 -0.691175 0
M  V30 122 H 10.7927 3.88509 0.766575 0
M  V30 123 H 11.9667 4.11003 -2.08357 0
M  V30 124 H 10.2817 3.78286 -1.74036 0
M  V30 125 H 12.8787 5.31538 0.580656 0
M  V30 126 H 13.2217 3.87855 1.51243 0
M  V30 127 H 13.7547 3.97376 -0.183681 0
M  V30 128 H 10.4937 6.16388 -2.23039 0
M  V30 129 H 10.0137 5.97469 -0.528282 0
M  V30 130 H 11.6927 6.40099 -0.942488 0
M  V30 131 N 11.8248 0.280983 1.55075 0
M  V30 132 C 13.0728 -0.333455 1.9933 0
M  V30 133 C 13.3938 -1.55937 1.17085 0
M  V30 134 O 12.6638 -1.94143 0.261805 0
M  V30 135 H 11.2438 -0.126197 0.736263 0
M  V30 136 H 13.9058 0.387678 1.91005 0
M  V30 137 H 13.0018 -0.619292 3.05894 0
M  V30 138 N 13.3029 -1.57598 0.00835791 0
M  V30 139 C 14.5499 -1.90928 -0.674732 0
M  V30 140 C 14.8779 -0.88277 -1.73313 0
M  V30 141 O 14.1329 0.111294 -1.95383 0
M  V30 142 C 14.4319 -3.3101 -1.34787 0
M  V30 143 C 14.0979 -4.48922 -0.421861 0
M  V30 144 C 12.7599 -4.8091 -0.166927 0
M  V30 145 C 15.1119 -5.20755 0.215211 0
M  V30 146 C 12.4399 -5.821 0.733232 0
M  V30 147 C 14.7919 -6.22905 1.1033 0
M  V30 148 C 13.4559 -6.53346 1.36733 0
M  V30 149 H 12.7259 -0.698656 -0.246902 0
M  V30 150 H 15.3729 -1.91387 0.0656779 0
M  V30 151 H 13.6779 -3.26714 -2.16253 0
M  V30 152 H 15.3749 -3.54061 -1.8826 0
M  V30 153 H 11.9649 -4.23934 -0.630729 0
M  V30 154 H 16.1489 -4.9629 0.0312829 0
M  V30 155 H 11.4049 -6.04042 0.945712 0
M  V30 156 H 15.5789 -6.77694 1.60325 0
M  V30 157 H 13.2059 -7.31573 2.06652 0
M  V30 158 N 14.781 0.264519 -1.55364 0
M  V30 159 C 16.197 0.61215 -1.47394 0
M  V30 160 C 16.397 1.89134 -0.695018 0
M  V30 161 O 15.453 2.51563 -0.217275 0
M  V30 162 C 16.766 0.731235 -2.91674 0
M  V30 163 C 18.314 0.82473 -3.01939 0
M  V30 164 C 18.789 0.975522 -4.4749 0
M  V30 165 N 20.28 1.04083 -4.51354 0
M  V30 166 C 21.015 1.17646 -5.61201 0
M  V30 167 N 20.511 1.27874 -6.80896 0
M  V30 168 N 22.304 1.20823 -5.48961 0
M  V30 169 H 14.455 -0.575456 -2.04456 0
M  V30 170 H 16.718 -0.196099 -0.927496 0
M  V30 171 H 16.424 -0.138392 -3.51428 0
M  V30 172 H 16.298 1.60883 -3.41169 0
M  V30 173 H 18.685 1.68482 -2.42276 0
M  V30 174 H 18.766 -0.0776479 -2.55682 0
M  V30 175 H 18.41 0.120058 -5.07758 0
M  V30 176 H 18.34 1.89268 -4.91412 0
M  V30 177 H 20.831 0.973846 -3.65136 0
M  V30 178 H 21.144 1.38081 -7.60364 0
M  V30 179 H 19.489 1.24863 -6.83692 0
M  V30 180 H 22.68 1.12469 -4.54388 0
M  V30 181 H 22.853 1.31049 -6.3461 0
M  V30 182 N 16.2591 1.48442 0.529413 0
M  V30 183 C 17.1891 1.65902 1.64313 0
M  V30 184 C 18.1701 0.507897 1.6234 0
M  V30 185 O 19.3551 0.740503 1.79528 0
M  V30 186 C 16.4851 1.69911 3.02898 0
M  V30 187 C 15.4391 2.8453 3.19729 0
M  V30 188 C 14.7651 2.73629 4.59381 0
M  V30 189 C 16.0651 4.25821 3.02447 0
M  V30 190 H 17.7591 2.5914 1.49955 0
M  V30 191 H 15.3051 1.24709 0.719982 0
M  V30 192 H 17.2581 1.80715 3.80684 0
M  V30 193 H 15.9821 0.732524 3.18279 0
M  V30 194 H 14.6411 2.73283 2.44361 0
M  V30 195 H 14.2891 1.74938 4.71599 0
M  V30 196 H 13.9891 3.50541 4.71588 0
M  V30 197 H 15.5131 2.86401 5.39265 0
M  V30 198 H 16.9271 4.37898 3.70024 0
M  V30 199 H 15.3241 5.03735 3.26146 0
M  V30 200 H 16.3941 4.42244 1.98867 0
M  V30 201 N 17.7372 -0.778329 1.37039 0
M  V30 202 C 18.9852 -1.53361 1.31623 0
M  V30 203 C 19.3062 -1.94739 -0.100831 0
M  V30 204 O 18.5762 -1.65797 -1.04347 0
M  V30 205 H 17.1562 -0.568794 0.484234 0
M  V30 206 H 19.8182 -0.926742 1.71457 0
M  V30 207 H 18.9142 -2.43606 1.95096 0
M  V30 208 N 19.2153 -1.21501 -1.00376 0
M  V30 209 C 20.4643 -1.02718 -1.73586 0
M  V30 210 C 20.7773 0.439589 -1.90596 0
M  V30 211 O 21.9833 0.746848 -2.61026 0
M  V30 212 C 20.4393 -1.78929 -3.1227 0
M  V30 213 C 20.0473 -3.29783 -3.03228 0
M  V30 214 C 21.7913 -1.68557 -3.89601 0
M  V30 215 C 19.6983 -3.98479 -4.36999 0
M  V30 216 H 18.6283 -0.380733 -0.650814 0
M  V30 217 H 21.2793 -1.45248 -1.1214 0
M  V30 218 H 19.6613 -1.29192 -3.74333 0
M  V30 219 H 20.8353 -3.86832 -2.50395 0
M  V30 220 H 19.1503 -3.40711 -2.39385 0
M  V30 221 H 21.7473 -2.17211 -4.88593 0
M  V30 222 H 22.0903 -0.644021 -4.11288 0
M  V30 223 H 22.6233 -2.15778 -3.34193 0
M  V30 224 H 19.3623 -5.02841 -4.20513 0
M  V30 225 H 18.8823 -3.46219 -4.89788 0
M  V30 226 H 20.5613 -4.03462 -5.05794 0
M  V30 227 N 20.6934 1.19889 -1.02296 0
M  V30 228 C 21.9214 1.9339 -0.735399 0
M  V30 229 C 22.3364 1.75148 0.704887 0
M  V30 230 O 21.6934 1.06954 1.47875 0
M  V30 231 C 21.7444 3.45313 -1.06962 0
M  V30 232 O 21.4654 3.62964 -2.45334 0
M  V30 233 C 22.9664 4.35948 -0.804021 0
M  V30 234 H 20.1864 0.61448 -0.269546 0
M  V30 235 H 22.7304 1.522 -1.36585 0
M  V30 236 H 20.8854 3.84359 -0.484455 0
M  V30 237 H 21.2994 4.56886 -2.57595 0
M  V30 238 H 22.7734 5.41174 -1.0879 0
M  V30 239 H 23.2504 4.3842 0.261691 0
M  V30 240 H 23.8564 4.02574 -1.37164 0
M  V30 241 N 22.1715 0.800033 1.35784 0
M  V30 242 C 23.5875 0.482977 1.52117 0
M  V30 243 C 23.7875 -0.996948 1.75109 0
M  V30 244 O 22.8435 -1.78216 1.78872 0
M  V30 245 C 24.1565 1.32264 2.70049 0
M  V30 246 C 25.7045 1.31742 2.83924 0
M  V30 247 C 26.1795 2.14106 4.04874 0
M  V30 248 N 27.6705 2.11607 4.12039 0
M  V30 249 C 28.4055 2.72099 5.04727 0
M  V30 250 N 27.9015 3.41492 6.02789 0
M  V30 251 N 29.6945 2.61776 4.97423 0
M  V30 252 H 21.8455 1.75856 1.19115 0
M  V30 253 H 24.1085 0.748122 0.582252 0
M  V30 254 H 23.8145 2.37261 2.59616 0
M  V30 255 H 23.6885 0.971303 3.6448 0
M  V30 256 H 26.0755 0.275333 2.93813 0
M  V30 257 H 26.1565 1.70859 1.9037 0
M  V30 258 H 25.8005 3.18351 3.95746 0
M  V30 259 H 25.7305 1.72353 4.97596 0
M  V30 260 H 28.2215 1.61112 3.41835 0
M  V30 261 H 28.5345 3.84953 6.70098 0
M  V30 262 H 26.8795 3.45596 6.02983 0
M  V30 263 H 30.0705 2.07157 4.19766 0
M  V30 264 H 30.2435 3.0921 5.69468 0
M  V30 265 N 23.6496 -1.47581 0.552962 0
M  V30 266 C 24.9266 -1.95563 -0.0381515 0
M  V30 267 C 25.3066 -1.49552 -1.48988 0
M  V30 268 O 24.6546 -0.732414 -2.16444 0
M  V30 269 C 24.8646 -3.48848 0.102919 0
M  V30 270 C 26.2126 -4.24577 -0.0446082 0
M  V30 271 O 27.2366 -3.56187 0.0302548 0
M  V30 272 O 26.0956 -5.46116 -0.204923 0
M  V30 273 H 23.1896 -0.824321 -0.0665067 0
M  V30 274 H 25.7356 -1.58001 0.619186 0
M  V30 275 H 24.5076 -3.75129 1.11328 0
M  V30 276 H 24.1306 -3.93165 -0.592224 0
M  V30 277 N 25.1277 -0.289203 -1.54924 0
M  V30 278 C 26.3737 0.316922 -2.00916 0
M  V30 279 C 26.7287 1.52424 -1.17408 0
M  V30 280 O 26.0217 1.90097 -0.239536 0
M  V30 281 C 26.2157 0.736119 -3.49737 0
M  V30 282 C 26.0447 -0.429036 -4.47649 0
M  V30 283 C 24.8147 -0.917311 -4.96904 0
M  V30 284 C 27.0127 -1.27016 -4.98369 0
M  V30 285 N 24.9947 -2.05046 -5.78644 0
M  V30 286 C 26.3657 -2.25097 -5.77695 0
M  V30 287 C 28.4207 -1.30188 -4.80578 0
M  V30 288 C 27.1237 -3.26114 -6.41126 0
M  V30 289 C 29.1497 -2.30057 -5.44819 0
M  V30 290 C 28.5117 -3.2687 -6.23968 0
M  V30 291 H 24.6107 0.0807535 -0.777819 0
M  V30 292 H 27.1947 -0.416434 -1.90194 0
M  V30 293 H 25.3657 1.43867 -3.60773 0
M  V30 294 H 27.0977 1.32078 -3.82541 0
M  V30 295 H 23.8527 -0.494248 -4.71014 0
M  V30 296 H 24.2767 -2.62108 -6.24202 0
M  V30 297 H 28.9187 -0.567163 -4.18979 0
M  V30 298 H 26.6367 -4.00512 -7.01866 0
M  V30 299 H 30.2227 -2.33271 -5.32988 0
M  V30 300 H 29.1027 -4.02883 -6.72796 0
M  V30 301 N 26.6058 1.57591 -0.0167156 0
M  V30 302 C 27.5158 2.1291 0.98521 0
M  V30 303 C 28.5318 1.07834 1.36557 0
M  V30 304 O 29.7078 1.39826 1.44951 0
M  V30 305 C 26.7728 2.63512 2.25305 0
M  V30 306 C 25.8338 3.83256 1.93426 0
M  V30 307 C 25.0668 4.31435 3.14165 0
M  V30 308 O 25.2898 3.78851 4.26413 0
M  V30 309 O 24.2238 5.23416 2.97186 0
M  V30 310 H 28.0498 2.98772 0.544888 0
M  V30 311 H 25.6348 1.48012 0.203141 0
M  V30 312 H 27.5168 2.96183 2.99756 0
M  V30 313 H 26.1918 1.8074 2.68542 0
M  V30 314 H 25.0988 3.55531 1.16398 0
M  V30 315 H 26.4318 4.67153 1.55013 0
M  V30 316 N 28.0839 -0.256276 1.55502 0
M  V30 317 C 29.3089 -1.00766 1.81276 0
M  V30 318 C 29.7339 -1.78524 0.59252 0
M  V30 319 O 29.0919 -1.75413 -0.45827 0
M  V30 320 C 29.1399 -1.92869 3.04687 0
M  V30 321 O 28.2439 -3.019 2.80945 0
M  V30 322 H 27.5849 -0.287224 0.598664 0
M  V30 323 H 30.1149 -0.280109 2.02674 0
M  V30 324 H 30.1249 -2.34511 3.33869 0
M  V30 325 H 28.7999 -1.35689 3.93143 0
M  V30 326 H 27.3769 -2.64454 2.62904 0
M  V30 327 N 29.562 -1.4872 -0.521534 0
M  V30 328 C 30.978 -1.35028 -0.850855 0
M  V30 329 C 31.178 -0.367712 -1.98116 0
M  V30 330 O 30.234 0.208037 -2.51642 0
M  V30 331 C 31.547 -2.75263 -1.21041 0
M  V30 332 C 33.095 -2.83813 -1.31981 0
M  V30 333 C 33.57 -4.24769 -1.71276 0
M  V30 334 N 35.061 -4.27482 -1.78363 0
M  V30 335 C 35.796 -5.33494 -2.1017 0
M  V30 336 N 35.292 -6.49775 -2.40343 0
M  V30 337 N 37.085 -5.20894 -2.11248 0
M  V30 338 H 29.236 -2.11214 0.22413 0
M  V30 339 H 31.499 -0.947252 0.0376439 0
M  V30 340 H 31.205 -3.48765 -0.453415 0
M  V30 341 H 31.079 -3.09327 -2.15863 0
M  V30 342 H 33.466 -2.10561 -2.06756 0
M  V30 343 H 33.547 -2.53358 -0.352596 0
M  V30 344 H 33.191 -4.9854 -0.970588 0
M  V30 345 H 33.121 -4.52673 -2.69062 0
M  V30 346 H 35.612 -3.43611 -1.57288 0
M  V30 347 H 35.925 -7.26402 -2.63743 0
M  V30 348 H 34.27 -6.53035 -2.37844 0
M  V30 349 H 37.461 -4.29065 -1.87139 0
M  V30 350 H 37.634 -6.03612 -2.35704 0
M  V30 351 N 31.0401 0.771051 -1.3745 0
M  V30 352 C 32.2861 1.53109 -1.339 0
M  V30 353 C 32.6411 1.9225 0.0758401 0
M  V30 354 O 31.9341 1.61264 1.03463 0
M  V30 355 C 32.1281 2.80676 -2.2126 0
M  V30 356 C 31.9571 2.54003 -3.71096 0
M  V30 357 C 30.7271 2.48097 -4.402 0
M  V30 358 C 32.9251 2.21953 -4.63941 0
M  V30 359 N 30.9071 2.13515 -5.75573 0
M  V30 360 C 32.2781 1.97516 -5.87697 0
M  V30 361 C 34.3331 2.08114 -4.5232 0
M  V30 362 C 33.0361 1.60638 -7.01133 0
M  V30 363 C 35.0621 1.72636 -5.65642 0
M  V30 364 C 34.4241 1.4906 -6.88448 0
M  V30 365 H 30.5231 0.56055 -0.54526 0
M  V30 366 H 33.1071 0.899472 -1.72678 0
M  V30 367 H 31.2781 3.41674 -1.84698 0
M  V30 368 H 33.0101 3.46578 -2.08963 0
M  V30 369 H 29.7651 2.63974 -3.93211 0
M  V30 370 H 30.1891 1.98919 -6.47117 0
M  V30 371 H 34.8311 2.25024 -3.57944 0
M  V30 372 H 32.5491 1.42467 -7.95443 0
M  V30 373 H 36.1351 1.62586 -5.58621 0
M  V30 374 H 35.0151 1.22014 -7.7465 0
M  V30 375 N 32.5182 1.22032 0.997298 0
M  V30 376 C 33.7482 1.06686 1.76923 0
M  V30 377 C 34.1562 -0.385838 1.85224 0
M  V30 378 O 33.4992 -1.27929 1.31833 0
M  V30 379 C 33.5612 1.59802 3.22031 0
M  V30 380 C 33.2252 3.08362 3.37286 0
M  V30 381 C 34.2222 4.05835 3.24952 0
M  V30 382 C 31.9072 3.47727 3.6248 0
M  V30 383 C 33.9012 5.4066 3.37588 0
M  V30 384 C 31.5882 4.82701 3.74757 0
M  V30 385 C 32.5862 5.78977 3.62319 0
M  V30 386 O 32.2742 7.11502 3.74193 0
M  V30 387 H 32.0062 0.374767 0.562606 0
M  V30 388 H 34.5602 1.61991 1.26286 0
M  V30 389 H 32.7902 0.989003 3.73839 0
M  V30 390 H 34.4792 1.40184 3.80924 0
M  V30 391 H 35.2452 3.76766 3.05405 0
M  V30 392 H 31.1242 2.73317 3.7124 0
M  V30 393 H 34.6682 6.15788 3.27796 0
M  V30 394 H 30.5652 5.11453 3.9381 0
M  V30 395 H 31.3332 7.19019 3.91093 0
M  V30 396 N 33.9963 -1.19345 1.0293 0
M  V30 397 C 34.9593 -2.20793 0.615069 0
M  V30 398 C 35.9593 -1.57553 -0.321533 0
M  V30 399 O 37.1493 -1.73862 -0.108483 0
M  V30 400 C 34.2813 -3.40754 -0.0999222 0
M  V30 401 H 35.4743 -2.58955 1.51269 0
M  V30 402 H 33.0273 -1.3303 0.820534 0
M  V30 403 H 33.7623 -3.0811 -1.01187 0
M  V30 404 H 33.5473 -3.87889 0.57309 0
M  V30 405 H 35.0373 -4.15898 -0.376645 0
M  V30 406 N 35.4744 -0.807222 -1.35358 0
M  V30 407 C 36.7224 -0.387122 -1.98358 0
M  V30 408 C 37.0434 1.04942 -1.64354 0
M  V30 409 O 36.3134 1.72615 -0.926339 0
M  V30 410 H 34.8934 -0.140154 -0.733734 0
M  V30 411 H 37.5554 -1.0332 -1.6526 0
M  V30 412 H 36.6514 -0.493352 -3.08176 0
M  V30 413 N 36.9525 1.47285 -0.560781 0
M  V30 414 C 37.8995 2.30058 0.18491 0
M  V30 415 C 38.8695 1.39281 0.904986 0
M  V30 416 O 40.0545 1.68241 0.899979 0
M  V30 417 C 37.1945 3.23317 1.20666 0
M  V30 418 C 36.3075 4.29186 0.492285 0
M  V30 419 C 35.4425 5.09592 1.49964 0
M  V30 420 C 34.4815 6.07232 0.770439 0
M  V30 421 N 33.6185 6.80584 1.72479 0
M  V30 422 H 38.4585 2.93302 -0.527048 0
M  V30 423 H 35.9955 1.44568 -0.271738 0
M  V30 424 H 37.9535 3.75811 1.81168 0
M  V30 425 H 36.5835 2.61929 1.88661 0
M  V30 426 H 35.6355 3.7972 -0.227333 0
M  V30 427 H 36.9475 4.98738 -0.0787929 0
M  V30 428 H 36.1015 5.66254 2.17809 0
M  V30 429 H 34.8405 4.3995 2.10464 0
M  V30 430 H 33.8455 5.49745 0.0780846 0
M  V30 431 H 35.0705 6.78884 0.171134 0
M  V30 432 H 33.0165 6.1367 2.3183 0
M  V30 433 H 32.9335 7.46319 1.20596 0
M  V30 434 H 34.2015 7.41818 2.39428 0
M  V30 435 N 38.4306 0.297415 1.54768 0
M  V30 436 C 39.3776 -0.580276 2.23386 0
M  V30 437 C 40.3476 -1.13238 1.21517 0
M  V30 438 O 41.5326 -1.17757 1.50126 0
M  V30 439 C 38.6726 -1.74801 2.97555 0
M  V30 440 C 37.7856 -1.22764 4.1419 0
M  V30 441 C 36.9206 -2.35895 4.75949 0
M  V30 442 C 35.9596 -1.80974 5.84735 0
M  V30 443 N 35.0966 -2.87664 6.40464 0
M  V30 444 H 39.9366 0.0114833 2.97998 0
M  V30 445 H 37.4736 0.0174361 1.4709 0
M  V30 446 H 39.4316 -2.43475 3.38786 0
M  V30 447 H 38.0616 -2.31145 2.25326 0
M  V30 448 H 37.1136 -0.433271 3.77924 0
M  V30 449 H 38.4256 -0.785551 4.92575 0
M  V30 450 H 37.5796 -3.12523 5.20014 0
M  V30 451 H 36.3186 -2.83429 3.96887 0
M  V30 452 H 35.3236 -1.02834 5.40097 0
M  V30 453 H 36.5486 -1.34348 6.65678 0
M  V30 454 H 34.4946 -3.34538 5.64287 0
M  V30 455 H 34.4116 -2.4794 7.14186 0
M  V30 456 H 35.6796 -3.642 6.89187 0
M  V30 457 N 39.9087 -1.5758 0.0250728 0
M  V30 458 C 40.8407 -2.06869 -0.986796 0
M  V30 459 C 41.8537 -0.991332 -1.29137 0
M  V30 460 O 43.0427 -1.26761 -1.25674 0
M  V30 461 C 40.1427 -2.47486 -2.31525 0
M  V30 462 C 39.3157 -3.78253 -2.19643 0
M  V30 463 C 38.3747 -4.05464 -3.35388 0
M  V30 464 O 37.4007 -4.75774 -3.12454 0
M  V30 465 N 38.6027 -3.55321 -4.59051 0
M  V30 466 H 41.3677 -2.94302 -0.566276 0
M  V30 467 H 38.9287 -1.6109 -0.161776 0
M  V30 468 H 40.9207 -2.62785 -3.07776 0
M  V30 469 H 39.4907 -1.65441 -2.65232 0
M  V30 470 H 38.7107 -3.7279 -1.28144 0
M  V30 471 H 39.9987 -4.63936 -2.08903 0
M  V30 472 H 39.3967 -2.98431 -4.80578 0
M  V30 473 H 37.9537 -3.75905 -5.32483 0
M  V30 474 N 41.3868 0.248026 -1.55636 0
M  V30 475 C 42.6168 0.992367 -1.81206 0
M  V30 476 C 43.0248 1.7949 -0.598324 0
M  V30 477 O 42.3678 1.78292 0.442434 0
M  V30 478 C 42.4298 1.97926 -3.00109 0
M  V30 479 C 42.0938 1.36377 -4.36177 0
M  V30 480 C 43.0908 0.76682 -5.14214 0
M  V30 481 C 40.7758 1.38347 -4.82872 0
M  V30 482 C 42.7698 0.197778 -6.37093 0
M  V30 483 C 40.4568 0.810574 -6.057 0
M  V30 484 C 41.4548 0.218754 -6.8265 0
M  V30 485 O 41.1428 -0.345298 -8.03158 0
M  V30 486 H 40.8748 0.297704 -0.606917 0
M  V30 487 H 43.4288 0.276517 -2.0353 0
M  V30 488 H 41.6588 2.73339 -2.73538 0
M  V30 489 H 43.3478 2.58694 -3.12781 0
M  V30 490 H 44.1138 0.744114 -4.79258 0
M  V30 491 H 39.9928 1.8335 -4.2297 0
M  V30 492 H 43.5368 -0.264788 -6.97097 0
M  V30 493 H 39.4338 0.830604 -6.40134 0
M  V30 494 H 40.2018 -0.237055 -8.18157 0
M  V30 495 N 42.8649 1.48995 0.513639 0
M  V30 496 C 44.2809 1.35478 0.843682 0
M  V30 497 C 44.4809 0.378213 1.97919 0
M  V30 498 O 43.5369 -0.194689 2.51748 0
M  V30 499 C 44.8499 2.75901 1.1958 0
M  V30 500 C 46.3979 2.84509 1.30474 0
M  V30 501 C 46.8729 4.25671 1.69021 0
M  V30 502 N 48.3639 4.28422 1.76094 0
M  V30 503 C 49.0989 5.34601 2.07338 0
M  V30 504 N 48.5949 6.5104 2.36894 0
M  V30 505 N 50.3879 5.22007 2.08483 0
M  V30 506 H 42.5389 2.11092 -0.235328 0
M  V30 507 H 44.8019 0.947039 -0.0426669 0
M  V30 508 H 44.5079 3.49001 0.434913 0
M  V30 509 H 44.3819 3.10467 2.1422 0
M  V30 510 H 46.7689 2.11655 2.05637 0
M  V30 511 H 46.8499 2.53542 0.339155 0
M  V30 512 H 46.4939 4.99048 0.944135 0
M  V30 513 H 46.4239 4.54094 2.66658 0
M  V30 514 H 48.9149 3.44441 1.55464 0
M  V30 515 H 49.2279 7.2779 2.59887 0
M  V30 516 H 47.5729 6.54287 2.34378 0
M  V30 517 H 50.7639 4.30051 1.84861 0
M  V30 518 H 50.9369 6.04854 2.325 0
M  V30 519 N 44.343 -0.763751 1.37857 0
M  V30 520 C 45.293 -1.86765 1.30777 0
M  V30 521 C 46.277 -1.59726 0.194015 0
M  V30 522 O 47.469 -1.7172 0.42911 0
M  V30 523 C 44.598 -3.24343 1.12502 0
M  V30 524 C 43.684 -3.57307 2.28456 0
M  V30 525 N 44.075 -3.61398 3.53871 0
M  V30 526 C 42.373 -3.87517 2.20786 0
M  V30 527 C 43.074 -3.91339 4.30382 0
M  V30 528 N 42.05 -4.07649 3.59615 0
M  V30 529 H 45.852 -1.88191 2.25746 0
M  V30 530 H 43.366 -0.9606 1.30944 0
M  V30 531 H 45.363 -4.03327 1.05514 0
M  V30 532 H 44.023 -3.24175 0.184574 0
M  V30 533 H 45.034 -3.43407 3.87675 0
M  V30 534 H 41.711 -3.95125 1.34844 0
M  V30 535 H 43.101 -4.01213 5.3896 0
M  V30 536 N 45.8211 -1.22559 -0.990812 0
M  V30 537 C 46.7511 -1.0218 -2.09956 0
M  V30 538 C 47.7321 0.0579394 -1.70001 0
M  V30 539 O 48.9171 -0.104684 -1.93918 0
M  V30 540 C 46.0471 -0.601023 -3.4206 0
M  V30 541 C 45.0011 -1.62694 -3.95872 0
M  V30 542 C 44.3271 -1.06193 -5.24049 0
M  V30 543 C 45.6271 -3.01743 -4.2632 0
M  V30 544 H 47.3211 -1.94916 -2.27262 0
M  V30 545 H 44.8671 -0.938566 -1.09211 0
M  V30 546 H 46.8201 -0.445561 -4.19038 0
M  V30 547 H 45.5441 0.362005 -3.24588 0
M  V30 548 H 44.2031 -1.77021 -3.21028 0
M  V30 549 H 43.8511 -0.0901903 -5.02919 0
M  V30 550 H 43.5511 -1.74732 -5.61019 0
M  V30 551 H 45.0751 -0.918092 -6.03658 0
M  V30 552 H 46.4891 -2.90777 -4.94087 0
M  V30 553 H 44.8861 -3.67425 -4.74467 0
M  V30 554 H 45.9561 -3.51518 -3.34011 0
M  V30 555 N 47.2992 1.18797 -1.03562 0
M  V30 556 C 48.2292 2.24472 -0.643019 0
M  V30 557 C 49.2102 1.66433 0.351283 0
M  V30 558 O 50.3952 1.92803 0.232505 0
M  V30 559 C 47.5252 3.473 4.24935e-05 0
M  V30 560 C 46.4792 4.18055 -0.917257 0
M  V30 561 C 45.8052 5.34519 -0.138941 0
M  V30 562 C 47.1052 4.72109 -2.23407 0
M  V30 563 H 48.7992 2.57566 -1.52643 0
M  V30 564 H 46.3452 1.23806 -0.735394 0
M  V30 565 H 48.2982 4.20426 0.286383 0
M  V30 566 H 47.0222 3.13424 0.918299 0
M  V30 567 H 45.6812 3.46821 -1.1879 0
M  V30 568 H 45.3292 4.96891 0.781562 0
M  V30 569 H 45.0292 5.82794 -0.750005 0
M  V30 570 H 46.5532 6.10438 0.1405 0
M  V30 571 H 47.9672 5.36955 -2.00879 0
M  V30 572 H 46.3642 5.30897 -2.79765 0
M  V30 573 H 47.4342 3.89807 -2.88407 0
M  V30 574 N 48.7773 0.814389 1.34928 0
M  V30 575 C 49.7073 0.244827 2.32213 0
M  V30 576 C 50.6883 -0.634024 1.57842 0
M  V30 577 O 51.8733 -0.562676 1.8587 0
M  V30 578 C 49.0033 -0.601106 3.42058 0
M  V30 579 C 47.9573 0.179896 4.27622 0
M  V30 580 C 47.2833 -0.788237 5.28858 0
M  V30 581 C 48.5833 1.38329 5.03649 0
M  V30 582 H 50.2773 1.05763 2.80097 0
M  V30 583 H 47.8233 0.510029 1.34665 0
M  V30 584 H 49.7763 -1.00968 4.09125 0
M  V30 585 H 48.5003 -1.44688 2.92802 0
M  V30 586 H 47.1593 0.569739 3.62146 0
M  V30 587 H 46.8073 -1.62973 4.75866 0
M  V30 588 H 46.5073 -0.269942 5.8698 0
M  V30 589 H 48.0313 -1.19485 5.98795 0
M  V30 590 H 49.4453 1.04918 5.63618 0
M  V30 591 H 47.8423 1.83662 5.71304 0
M  V30 592 H 48.9123 2.16592 4.33839 0
M  V30 593 N 50.2554 -1.46986 0.568584 0
M  V30 594 C 51.1654 -2.33942 -0.17555 0
M  V30 595 C 52.1814 -1.48891 -0.90041 0
M  V30 596 O 53.3574 -1.81794 -0.86676 0
M  V30 597 C 50.4224 -3.25811 -1.18524 0
M  V30 598 C 49.4834 -4.26757 -0.466582 0
M  V30 599 C 48.7164 -5.14236 -1.42817 0
M  V30 600 O 48.9394 -5.04379 -2.66379 0
M  V30 601 O 47.8734 -5.94412 -0.946453 0
M  V30 602 H 51.6994 -2.98896 0.538036 0
M  V30 603 H 49.2844 -1.4573 0.329097 0
M  V30 604 H 51.1664 -3.82527 -1.76779 0
M  V30 605 H 49.8414 -2.63471 -1.88055 0
M  V30 606 H 48.7484 -3.73769 0.157451 0
M  V30 607 H 50.0814 -4.91843 0.187485 0
M  V30 608 N 51.7335 -0.305618 -1.54608 0
M  V30 609 C 53.0105 0.355652 -1.92339 0
M  V30 610 C 53.3905 1.71324 -1.23335 0
M  V30 611 O 52.7385 2.25473 -0.370702 0
M  V30 612 C 52.9485 0.46572 -3.45879 0
M  V30 613 C 54.2965 0.734426 -4.182 0
M  V30 614 O 55.3205 0.54935 -3.51938 0
M  V30 615 O 54.1795 1.09024 -5.35515 0
M  V30 616 H 51.2735 0.199666 -0.802535 0
M  V30 617 H 53.8195 -0.354017 -1.65966 0
M  V30 618 H 52.5915 -0.488461 -3.88239 0
M  V30 619 H 52.2145 1.22367 -3.78301 0
M  V30 620 N 53.2116 1.57565 -0.0334293 0
M  V30 621 C 54.1436 2.0739 0.975811 0
M  V30 622 C 55.1566 0.998166 1.2861 0
M  V30 623 O 56.3456 1.27426 1.25 0
M  V30 624 C 53.4456 2.4871 2.30209 0
M  V30 625 C 52.6186 3.79413 2.17634 0
M  V30 626 C 51.6776 4.07237 3.33233 0
M  V30 627 O 50.7036 4.77425 3.09927 0
M  V30 628 N 51.9056 3.5775 4.5716 0
M  V30 629 H 54.6706 2.94598 0.55066 0
M  V30 630 H 52.2316 1.61173 0.15323 0
M  V30 631 H 54.2236 2.64413 3.06378 0
M  V30 632 H 52.7936 1.66845 2.64351 0
M  V30 633 H 52.0136 3.73465 1.26165 0
M  V30 634 H 53.3016 4.65038 2.0644 0
M  V30 635 H 52.6996 3.00976 4.78989 0
M  V30 636 H 51.2566 3.78724 5.30482 0
M  V30 637 N 54.6897 -0.239769 1.55765 0
M  V30 638 C 56.1057 -0.588624 1.48349 0
M  V30 639 C 56.3057 -1.88005 0.72502 0
M  V30 640 O 55.3617 -2.51186 0.257269 0
M  V30 641 C 56.6747 -0.68474 2.928 0
M  V30 642 C 58.2227 -0.77659 3.03213 0
M  V30 643 C 58.6977 -0.904207 4.48986 0
M  V30 644 N 60.1887 -0.968896 4.52953 0
M  V30 645 C 60.9237 -1.08703 5.63002 0
M  V30 646 N 60.4197 -1.17026 6.82845 0
M  V30 647 N 62.2127 -1.12074 5.50814 0
M  V30 648 H 54.3637 0.607911 2.03515 0
M  V30 649 H 56.6267 0.21083 0.924259 0
M  V30 650 H 56.3327 0.194284 3.51163 0
M  V30 651 H 56.2067 -1.55435 3.43686 0
M  V30 652 H 58.5937 -1.64606 2.44926 0
M  V30 653 H 58.6747 0.118315 2.55526 0
M  V30 654 H 58.3187 -0.0392633 5.07885 0
M  V30 655 H 58.2487 -1.81426 4.9436 0
M  V30 656 H 60.7397 -0.915633 3.6664 0
M  V30 657 H 61.0527 -1.25966 7.62465 0
M  V30 658 H 59.3977 -1.13971 6.85591 0
M  V30 659 H 62.5887 -1.05226 4.5612 0
M  V30 660 H 62.7617 -1.20936 6.36615 0
M  V30 661 N 56.1678 -1.49265 -0.50573 0
M  V30 662 C 57.4168 -1.57761 -1.25675 0
M  V30 663 C 57.7298 -0.267371 -1.93764 0
M  V30 664 O 58.9358 -0.230827 -2.70517 0
M  V30 665 C 57.3918 -2.78332 -2.28165 0
M  V30 666 C 56.9998 -4.16096 -1.66037 0
M  V30 667 C 58.7438 -2.96155 -3.04125 0
M  V30 668 C 56.6508 -5.27895 -2.6661 0
M  V30 669 H 55.5808 -0.587391 -0.472745 0
M  V30 670 H 58.2318 -1.75644 -0.53118 0
M  V30 671 H 56.6138 -2.53934 -3.03865 0
M  V30 672 H 57.7878 -4.50612 -0.963622 0
M  V30 673 H 56.1028 -4.03591 -1.02484 0
M  V30 674 H 58.6998 -3.76849 -3.79327 0
M  V30 675 H 59.0428 -2.06534 -3.61455 0
M  V30 676 H 59.5758 -3.2057 -2.35541 0
M  V30 677 H 56.3148 -6.1956 -2.14068 0
M  V30 678 H 55.8348 -4.97839 -3.34539 0
M  V30 679 H 57.5138 -5.57031 -3.29129 0
M  V30 680 N 57.6459 0.756429 -1.3826 0
M  V30 681 C 59.0619 1.0591 -1.19395 0
M  V30 682 C 59.2619 2.01459 -0.0406567 0
M  V30 683 O 58.3179 2.44909 0.614467 0
M  V30 684 C 59.6309 1.64191 -2.51916 0
M  V30 685 C 61.1789 1.76376 -2.58574 0
M  V30 686 C 61.6539 2.38069 -3.91264 0
M  V30 687 N 63.1449 2.45503 -3.92788 0
M  V30 688 C 63.8799 2.94126 -4.92217 0
M  V30 689 N 63.3759 3.42805 -6.02043 0
M  V30 690 N 65.1689 2.9314 -4.7961 0
M  V30 691 H 57.3199 0.122313 -2.12048 0
M  V30 692 H 59.5829 0.116892 -0.940766 0
M  V30 693 H 59.2889 1.01451 -3.3675 0
M  V30 694 H 59.1629 2.6329 -2.70108 0
M  V30 695 H 61.5499 2.38244 -1.74137 0
M  V30 696 H 61.6309 0.759894 -2.44252 0
M  V30 697 H 61.2749 1.76835 -4.76121 0
M  V30 698 H 61.2049 3.39091 -4.02895 0
M  V30 699 H 63.6959 2.1107 -3.13461 0
M  V30 700 H 64.0089 3.78354 -6.73846 0
M  V30 701 H 62.3539 3.4087 -6.05667 0
M  V30 702 H 65.5449 2.54419 -3.92923 0
M  V30 703 H 65.7179 3.30721 -5.5725 0
M  V30 704 N 59.124 1.23083 0.984299 0
M  V30 705 C 60.372 1.05848 1.72165 0
M  V30 706 C 60.693 -0.406049 1.90726 0
M  V30 707 O 59.963 -1.29139 1.47309 0
M  V30 708 H 58.543 0.388685 0.637913 0
M  V30 709 H 61.205 1.54736 1.18503 0
M  V30 710 H 60.301 1.54327 2.71274 0
M  V30 711 N 60.6021 -1.18246 1.0419 0
M  V30 712 C 61.5321 -2.24127 0.654914 0
M  V30 713 C 62.5131 -1.66617 -0.342451 0
M  V30 714 O 63.6981 -1.92924 -0.222277 0
M  V30 715 C 60.8281 -3.47295 0.0183757 0
M  V30 716 C 59.7821 -4.17563 0.939414 0
M  V30 717 C 59.1081 -5.34438 0.167286 0
M  V30 718 C 60.4081 -4.70917 2.25908 0
M  V30 719 H 62.1021 -2.56753 1.54007 0
M  V30 720 H 59.6481 -1.23414 0.74195 0
M  V30 721 H 61.6011 -4.20572 -0.264082 0
M  V30 722 H 60.3251 -3.13907 -0.901664 0
M  V30 723 H 58.9841 -3.46186 1.20628 0
M  V30 724 H 58.6321 -4.97298 -0.7552 0
M  V30 725 H 58.3321 -5.82388 0.780901 0
M  V30 726 H 59.8561 -6.10504 -0.108125 0
M  V30 727 H 61.2701 -5.35882 2.03724 0
M  V30 728 H 59.6671 -5.29406 2.82577 0
M  V30 729 H 60.7371 -3.88272 2.9047 0
M  V30 730 N 62.0802 -0.821533 -1.34494 0
M  V30 731 C 63.0102 -0.257138 -2.3208 0
M  V30 732 C 63.9912 0.625645 -1.58176 0
M  V30 733 O 65.1762 0.552811 -1.86166 0
M  V30 734 C 62.3062 0.582958 -3.42372 0
M  V30 735 C 61.2602 -0.202571 -4.2752 0
M  V30 736 C 60.5862 0.760179 -5.29269 0
M  V30 737 C 61.8862 -1.40998 -5.02908 0
M  V30 738 H 63.5802 -1.07247 -2.79532 0
M  V30 739 H 61.1262 -0.517163 -1.34393 0
M  V30 740 H 63.0792 0.987972 -4.09655 0
M  V30 741 H 61.8032 1.43133 -2.93565 0
M  V30 742 H 60.4622 -0.588936 -3.61838 0
M  V30 743 H 60.1102 1.60447 -4.76724 0
M  V30 744 H 59.8102 0.238809 -5.87115 0
M  V30 745 H 61.3342 1.16308 -5.9942 0
M  V30 746 H 62.7482 -1.07905 -5.63054 0
M  V30 747 H 61.1452 -1.86689 -5.70322 0
M  V30 748 H 62.2152 -2.1889 -4.32684 0
M  V30 749 N 63.5583 1.46682 -0.576371 0
M  V30 750 C 64.4683 2.34032 0.163141 0
M  V30 751 C 65.4843 1.49367 0.892501 0
M  V30 752 O 66.6603 1.82252 0.857106 0
M  V30 753 C 63.7253 3.26435 1.16795 0
M  V30 754 C 62.7863 4.26998 0.443944 0
M  V30 755 C 62.0193 5.14986 1.40088 0
M  V30 756 O 62.2423 5.05785 2.637 0
M  V30 757 O 61.1763 5.94906 0.914917 0
M  V30 758 H 65.0023 2.98607 -0.55388 0
M  V30 759 H 62.5873 1.45554 -0.336821 0
M  V30 760 H 64.4693 3.83459 1.74748 0
M  V30 761 H 63.1443 2.64465 1.86655 0
M  V30 762 H 62.0513 3.7368 -0.177271 0
M  V30 763 H 63.3843 4.91736 -0.213566 0
M  V30 764 N 65.0364 0.313813 1.54444 0
M  V30 765 C 65.9834 -0.55655 2.23989 0
M  V30 766 C 66.9534 -1.11943 1.22711 0
M  V30 767 O 68.1384 -1.16158 1.51367 0
M  V30 768 C 65.2784 -1.71635 2.99392 0
M  V30 769 C 64.3914 -1.18364 4.15468 0
M  V30 770 C 63.5264 -2.30834 4.78424 0
M  V30 771 C 62.5654 -1.74762 5.86622 0
M  V30 772 N 61.7024 -2.80855 6.43479 0
M  V30 773 H 66.5424 0.0430893 2.97969 0
M  V30 774 H 64.0794 0.0330359 1.47063 0
M  V30 775 H 66.0374 -2.39868 3.41349 0
M  V30 776 H 64.6674 -2.28742 2.27765 0
M  V30 777 H 63.7194 -0.393163 3.78363 0
M  V30 778 H 65.0314 -0.733262 4.93381 0
M  V30 779 H 64.1854 -3.0699 5.23299 0
M  V30 780 H 62.9244 -2.79204 3.99871 0
M  V30 781 H 61.9294 -0.970995 5.41158 0
M  V30 782 H 63.1544 -1.2728 6.67066 0
M  V30 783 H 61.1004 -3.28535 5.67804 0
M  V30 784 H 61.0174 -2.40351 7.16776 0
M  V30 785 H 62.2854 -3.5687 6.93011 0
M  V30 786 N 66.5145 -1.57545 0.0417849 0
M  V30 787 C 67.4245 -2.14451 -0.951213 0
M  V30 788 C 68.4405 -1.09992 -1.34825 0
M  V30 789 O 69.6165 -1.42114 -1.42708 0
M  V30 790 C 66.6815 -2.67063 -2.21084 0
M  V30 791 C 65.7425 -3.86284 -1.87304 0
M  V30 792 C 64.9755 -4.36378 -3.07261 0
M  V30 793 O 65.1985 -3.85587 -4.20332 0
M  V30 794 O 64.1325 -5.28077 -2.88822 0
M  V30 795 H 67.9585 -2.99601 -0.497287 0
M  V30 796 H 65.5435 -1.48317 -0.179567 0
M  V30 797 H 67.4255 -3.00914 -2.95006 0
M  V30 798 H 66.1005 -1.84989 -2.65633 0
M  V30 799 H 65.0075 -3.57338 -1.10727 0
M  V30 800 H 66.3405 -4.6956 -1.47562 0
M  V30 801 N 67.9926 0.231505 -1.5589 0
M  V30 802 C 68.9226 1.29022 -1.94617 0
M  V30 803 C 69.9036 1.4941 -0.813067 0
M  V30 804 O 71.0886 1.6176 -1.07459 0
M  V30 805 C 68.2186 2.64199 -2.25424 0
M  V30 806 C 67.1726 2.58484 -3.41131 0
M  V30 807 C 66.4986 3.97599 -3.57518 0
M  V30 808 C 67.7986 2.1413 -4.76388 0
M  V30 809 H 69.4926 0.968563 -2.83301 0
M  V30 810 H 67.0386 0.464479 -1.36303 0
M  V30 811 H 68.9916 3.38413 -2.51107 0
M  V30 812 H 67.7156 2.98032 -1.33583 0
M  V30 813 H 66.3746 1.86727 -3.15481 0
M  V30 814 H 66.0226 4.28723 -2.6307 0
M  V30 815 H 65.7226 3.94659 -4.35337 0
M  V30 816 H 67.2466 4.7349 -3.85538 0
M  V30 817 H 68.6606 2.78083 -5.01341 0
M  V30 818 H 67.0576 2.2227 -5.57419 0
M  V30 819 H 68.1276 1.09331 -4.72414 0
M  V30 820 N 69.4707 1.49531 0.497807 0
M  V30 821 C 70.7007 1.62657 1.27382 0
M  V30 822 C 71.1087 0.298488 1.86831 0
M  V30 823 O 70.4517 -0.72647 1.68725 0
M  V30 824 C 70.5137 2.6393 2.44093 0
M  V30 825 C 70.1777 4.08195 2.05489 0
M  V30 826 C 71.1747 4.949 1.59279 0
M  V30 827 C 68.8597 4.53948 2.15026 0
M  V30 828 C 70.8537 6.25397 1.23113 0
M  V30 829 C 68.5407 5.84458 1.78473 0
M  V30 830 C 69.5387 6.70006 1.32591 0
M  V30 831 O 69.2267 7.98083 0.965327 0
M  V30 832 H 68.9587 0.550429 0.392434 0
M  V30 833 H 71.5127 1.96325 0.603801 0
M  V30 834 H 69.7427 2.25449 3.14181 0
M  V30 835 H 71.4317 2.66552 3.06113 0
M  V30 836 H 72.1977 4.60779 1.51354 0
M  V30 837 H 68.0767 3.87525 2.4969 0
M  V30 838 H 71.6207 6.92125 0.872299 0
M  V30 839 H 67.5177 6.18107 1.86048 0
M  V30 840 H 68.2857 8.11122 1.09652 0
M  V30 841 N 70.9488 -0.749086 1.3866 0
M  V30 842 C 72.1738 -1.54344 1.38538 0
M  V30 843 C 72.5988 -1.88088 -0.0216655 0
M  V30 844 O 71.9568 -1.50899 -1.00494 0
M  V30 845 C 72.0048 -2.8164 2.25192 0
M  V30 846 O 71.1088 -3.7698 1.67212 0
M  V30 847 H 70.4498 -0.466654 0.472367 0
M  V30 848 H 72.9798 -0.925355 1.82478 0
M  V30 849 H 72.9898 -3.30519 2.3921 0
M  V30 850 H 71.6648 -2.56411 3.27454 0
M  V30 851 H 70.2418 -3.35699 1.6236 0
M  V30 852 N 72.4269 -1.23603 -0.977757 0
M  V30 853 C 73.3899 -1.02069 -2.05218 0
M  V30 854 C 74.3899 0.0184305 -1.60789 0
M  V30 855 O 75.5799 -0.221569 -1.72785 0
M  V30 856 C 72.7119 -0.544926 -3.36517 0
M  V30 857 H 73.9049 -1.9742 -2.25755 0
M  V30 858 H 71.4579 -1.05684 -1.15155 0
M  V30 859 H 72.1929 0.412241 -3.21669 0
M  V30 860 H 71.9779 -1.2948 -3.70105 0
M  V30 861 H 73.4679 -0.414985 -4.15533 0
M  V30 862 N 73.905 1.17692 -1.04816 0
M  V30 863 C 75.153 1.87488 -0.754497 0
M  V30 864 C 75.474 1.81205 0.720407 0
M  V30 865 O 74.744 1.23544 1.52032 0
M  V30 866 H 73.324 0.694101 -0.276102 0
M  V30 867 H 75.986 1.42793 -1.32651 0
M  V30 868 H 75.082 2.93328 -1.06606 0
M  V30 869 N 75.3831 0.828654 1.34056 0
M  V30 870 C 76.3131 0.269443 2.3194 0
M  V30 871 C 77.2941 -0.617247 1.58506 0
M  V30 872 O 78.4791 -0.542931 1.86456 0
M  V30 873 C 75.6091 -0.564793 3.42677 0
M  V30 874 C 74.5631 0.225241 4.27407 0
M  V30 875 C 73.8891 -0.7321 5.29664 0
M  V30 876 C 75.1891 1.43663 5.02154 0
M  V30 877 H 76.8831 1.08728 2.7896 0
M  V30 878 H 74.4291 0.524283 1.34117 0
M  V30 879 H 76.3821 -0.966233 4.10173 0
M  V30 880 H 75.1061 -1.41574 2.9432 0
M  V30 881 H 73.7651 0.608117 3.61521 0
M  V30 882 H 73.4131 -1.57916 4.77568 0
M  V30 883 H 73.1131 -0.20767 5.87233 0
M  V30 884 H 74.6371 -1.13128 6.00029 0
M  V30 885 H 76.0511 1.1089 5.62473 0
M  V30 886 H 74.4481 1.89711 5.69324 0
M  V30 887 H 75.5181 2.21181 4.31517 0
M  V30 888 N 76.8612 -1.46375 0.584142 0
M  V30 889 C 77.8242 -2.28784 -0.138108 0
M  V30 890 C 78.8242 -1.38471 -0.817462 0
M  V30 891 O 80.0142 -1.60833 -0.669199 0
M  V30 892 C 77.1462 -3.18892 -1.20503 0
M  V30 893 H 78.3392 -2.94117 0.586127 0
M  V30 894 H 75.8922 -1.52509 0.342171 0
M  V30 895 H 76.6272 -2.58309 -1.96079 0
M  V30 896 H 76.4122 -3.85388 -0.722384 0
M  V30 897 H 77.9022 -3.80914 -1.71155 0
M  V30 898 N 78.3393 -0.321999 -1.54275 0
M  V30 899 C 79.7553 0.0306999 -1.5957 0
M  V30 900 C 79.9553 1.50614 -1.33857 0
M  V30 901 O 79.0113 2.2619 -1.12223 0
M  V30 902 C 80.3243 -0.386122 -2.98211 0
M  V30 903 C 81.8723 -0.336647 -3.11184 0
M  V30 904 C 82.3473 -0.728607 -4.52167 0
M  V30 905 N 83.8383 -0.681952 -4.58152 0
M  V30 906 C 84.5733 -0.957449 -5.6535 0
M  V30 907 N 84.0693 -1.3 -6.80494 0
M  V30 908 N 85.8623 -0.883113 -5.55119 0
M  V30 909 H 78.0133 -1.28332 -1.69247 0
M  V30 910 H 80.2763 -0.521716 -0.791528 0
M  V30 911 H 79.9823 -1.41404 -3.22022 0
M  V30 912 H 79.8563 0.249662 -3.76373 0
M  V30 913 H 82.2433 0.682058 -2.8711 0
M  V30 914 H 82.3243 -1.00734 -2.3513 0
M  V30 915 H 81.9683 -1.74522 -4.76974 0
M  V30 916 H 81.8983 -0.0356152 -5.26588 0
M  V30 917 H 84.3893 -0.428985 -3.75457 0
M  V30 918 H 84.7023 -1.49563 -7.58189 0
M  V30 919 H 83.0473 -1.33824 -6.81994 0
M  V30 920 H 86.2383 -0.615001 -4.64042 0
M  V30 921 H 86.4113 -1.10118 -6.38575 0
M  V30 922 N 79.8174 1.5752 -0.0501392 0
M  V30 923 C 81.0634 1.92936 0.624798 0
M  V30 924 C 81.3964 0.928685 1.70555 0
M  V30 925 O 80.6714 -0.0454779 1.94447 0
M  V30 926 C 80.9544 3.38737 1.22185 0
M  V30 927 C 80.8074 4.49552 0.149218 0
M  V30 928 C 82.1264 3.84913 2.13378 0
M  V30 929 H 79.2454 0.701604 0.225657 0
M  V30 930 H 81.8874 1.89671 -0.111693 0
M  V30 931 H 80.0374 3.4165 1.84953 0
M  V30 932 H 81.7094 4.58768 -0.482648 0
M  V30 933 H 79.9524 4.30638 -0.522841 0
M  V30 934 H 80.6234 5.48653 0.606966 0
M  V30 935 H 83.0994 3.8387 1.60572 0
M  V30 936 H 81.9754 4.87584 2.52097 0
M  V30 937 H 82.2364 3.21611 3.03346 0
M  V30 938 N 81.2955 -0.223234 1.56011 0
M  V30 939 C 82.5725 -0.972108 1.69733 0
M  V30 940 C 82.9525 -2.02485 0.59691 0
M  V30 941 O 82.3005 -2.25037 -0.396324 0
M  V30 942 C 82.5105 -1.58407 3.10979 0
M  V30 943 C 83.8585 -2.07696 3.70334 0
M  V30 944 O 84.8825 -1.68304 3.1393 0
M  V30 945 O 83.7415 -2.80096 4.69264 0
M  V30 946 H 80.8355 -0.453993 0.691245 0
M  V30 947 H 83.3815 -0.215149 1.68331 0
M  V30 948 H 82.1535 -0.823831 3.82529 0
M  V30 949 H 81.7765 -2.40661 3.16493 0
M  V30 950 N 82.7736 -1.49793 -0.48987 0
M  V30 951 C 84.0226 -1.59085 -1.23995 0
M  V30 952 C 84.3356 -0.287907 -1.9347 0
M  V30 953 O 85.5416 -0.259506 -2.70257 0
M  V30 954 C 83.9976 -2.80736 -2.252 0
M  V30 955 C 83.6056 -4.17833 -1.61614 0
M  V30 956 C 85.3496 -2.99364 -3.00967 0
M  V30 957 C 83.2566 -5.30693 -2.60996 0
M  V30 958 H 82.1866 -0.592372 -0.466488 0
M  V30 959 H 84.8376 -1.76197 -0.51252 0
M  V30 960 H 83.2196 -2.57142 -3.01154 0
M  V30 961 H 84.3936 -4.51608 -0.915774 0
M  V30 962 H 82.7086 -4.04656 -0.981977 0
M  V30 963 H 85.3056 -3.80851 -3.75308 0
M  V30 964 H 85.6486 -2.10356 -3.59244 0
M  V30 965 H 86.1816 -3.2305 -2.32128 0
M  V30 966 H 82.9206 -6.21796 -2.07485 0
M  V30 967 H 82.4406 -5.01359 -3.2924 0
M  V30 968 H 84.1196 -5.6049 -3.23202 0
M  V30 969 N 84.2517 0.741722 -1.39055 0
M  V30 970 C 85.1617 1.88621 -1.39496 0
M  V30 971 C 86.1777 1.71557 -0.290578 0
M  V30 972 O 87.3537 1.94275 -0.530954 0
M  V30 973 C 84.4187 3.24134 -1.23037 0
M  V30 974 C 83.4797 3.5364 -2.43387 0
M  V30 975 C 82.7127 4.82687 -2.27703 0
M  V30 976 O 82.9357 5.55922 -1.27696 0
M  V30 977 O 81.8697 5.1194 -3.16545 0
M  V30 978 H 85.6957 1.91203 -2.35956 0
M  V30 979 H 83.2807 0.888625 -1.20099 0
M  V30 980 H 85.1627 4.0513 -1.15964 0
M  V30 981 H 83.8377 3.22337 -0.296691 0
M  V30 982 H 82.7447 2.72758 -2.56035 0
M  V30 983 H 84.0777 3.60209 -3.35425 0
M  V30 984 N 85.7298 1.2412 0.971189 0
M  V30 985 C 87.1458 1.00584 1.23916 0
M  V30 986 C 87.3458 -0.287481 1.99439 0
M  V30 987 O 86.4018 -1.00454 2.31658 0
M  V30 988 C 87.7148 2.21864 2.0297 0
M  V30 989 C 89.2628 2.26452 2.16076 0
M  V30 990 C 89.7378 3.47343 2.98524 0
M  V30 991 N 91.2288 3.47639 3.06107 0
M  V30 992 C 91.9638 4.37837 3.70251 0
M  V30 993 N 91.4598 5.38286 4.36142 0
M  V30 994 N 93.2528 4.25558 3.67228 0
M  V30 995 H 85.4038 2.07236 0.465499 0
M  V30 996 H 87.6668 0.909236 0.268315 0
M  V30 997 H 87.3728 3.15771 1.54861 0
M  V30 998 H 87.2468 2.23698 3.03709 0
M  V30 999 H 89.6338 1.33078 2.6339 0
M  V30 1000 H 89.7148 2.28645 1.14696 0
M  V30 1001 H 89.3588 4.41029 2.51905 0
M  V30 1002 H 89.2888 3.42393 4.00093 0
M  V30 1003 H 91.7798 2.74966 2.59233 0
M  V30 1004 H 92.0928 6.03352 4.82894 0
M  V30 1005 H 90.4378 5.42176 4.34822 0
M  V30 1006 H 93.6288 3.46322 3.14927 0
M  V30 1007 H 93.8018 4.96054 4.16935 0
M  V30 1008 N 87.2079 -1.17134 1.05439 0
M  V30 1009 C 88.1709 -2.19439 0.661764 0
M  V30 1010 C 89.1709 -1.58199 -0.288042 0
M  V30 1011 O 90.3609 -1.74053 -0.0715803 0
M  V30 1012 C 87.4929 -3.40889 -0.0276209 0
M  V30 1013 H 88.6859 -2.55688 1.56728 0
M  V30 1014 H 86.2389 -1.31259 0.848567 0
M  V30 1015 H 86.9739 -3.10187 -0.94629 0
M  V30 1016 H 86.7589 -3.86586 0.655238 0
M  V30 1017 H 88.2489 -4.16603 -0.288342 0
M  V30 1018 N 88.686 -0.835752 -1.33615 0
M  V30 1019 C 89.649 -0.272 -2.2758 0
M  V30 1020 C 90.649 0.557487 -1.50827 0
M  V30 1021 O 91.839 0.37173 -1.70188 0
M  V30 1022 C 88.971 0.617173 -3.35267 0
M  V30 1023 H 90.164 -1.10111 -2.78954 0
M  V30 1024 H 87.717 -0.608594 -1.43965 0
M  V30 1025 H 88.452 1.46884 -2.89129 0
M  V30 1026 H 88.237 0.0237066 -3.92093 0
M  V30 1027 H 89.727 1.005 -4.05326 0
M  V30 1028 N 90.1641 1.46063 -0.591896 0
M  V30 1029 C 91.4411 1.95595 -0.0137119 0
M  V30 1030 C 91.8211 1.5345 1.4497 0
M  V30 1031 O 91.1691 0.789543 2.14426 0
M  V30 1032 C 91.3791 3.48453 -0.195373 0
M  V30 1033 C 92.7271 4.24546 -0.0679765 0
M  V30 1034 O 93.7511 3.55982 -0.124681 0
M  V30 1035 O 92.6101 5.46467 0.0600579 0
M  V30 1036 H 89.7041 0.825795 0.0446279 0
M  V30 1037 H 92.2501 1.56303 -0.660859 0
M  V30 1038 H 91.0221 3.72045 -1.21235 0
M  V30 1039 H 90.6451 3.94597 0.487775 0
M  V30 1040 N 91.6422 0.330177 1.54103 0
M  V30 1041 C 92.5902 -0.548226 2.26047 0
M  V30 1042 C 93.5842 -1.11309 1.27698 0
M  V30 1043 O 94.7902 -1.06036 1.45452 0
M  V30 1044 H 91.1652 -0.195456 0.726155 0
M  V30 1045 H 93.1362 0.0807567 2.98291 0
M  V30 1046 C 91.8852 -1.69415 3.03634 0
M  V30 1047 H 91.2082 -1.26876 3.79134 0
M  V30 1048 H 92.6482 -2.28423 3.5721 0
M  V30 1049 C 91.1072 -2.61569 2.12328 0
M  V30 1050 O 91.6372 -3.63462 1.7105 0
M  V30 1051 N 89.8432 -2.29952 1.77681 0
M  V30 1052 H 89.3902 -1.47134 2.11446 0
M  V30 1053 H 89.3482 -2.91871 1.16869 0
M  V30 1054 N 93.1203 -1.57491 0.0584922 0
M  V30 1055 C 94.3663 -1.93264 -0.614558 0
M  V30 1056 C 94.6993 -0.937717 -1.7006 0
M  V30 1057 O 93.9743 0.0351652 -1.94468 0
M  V30 1058 C 94.2573 -3.3938 -1.20386 0
M  V30 1059 C 94.1103 -4.49625 -0.125375 0
M  V30 1060 C 95.4293 -3.86039 -2.11334 0
M  V30 1061 H 92.5483 -0.702791 -0.221933 0
M  V30 1062 H 95.1903 -1.8961 0.12175 0
M  V30 1063 H 93.3403 -3.42626 -1.83139 0
M  V30 1064 H 95.0123 -4.58506 0.506971 0
M  V30 1065 H 93.2553 -4.30354 0.545672 0
M  V30 1066 H 93.9263 -5.48967 -0.577861 0
M  V30 1067 H 96.4023 -3.84716 -1.58534 0
M  V30 1068 H 95.2783 -4.88914 -2.49507 0
M  V30 1069 H 95.5393 -3.23215 -3.01636 0
M  V30 1070 N 94.5984 0.214957 -1.56127 0
M  V30 1071 C 95.5614 1.24997 -1.92116 0
M  V30 1072 C 96.5614 1.39467 -0.800344 0
M  V30 1073 O 97.7514 1.37619 -1.06802 0
M  V30 1074 C 94.8834 2.62271 -2.17777 0
M  V30 1075 H 96.0764 0.942875 -2.84693 0
M  V30 1076 H 93.6294 0.455654 -1.49511 0
M  V30 1077 H 94.3644 2.98068 -1.27773 0
M  V30 1078 H 94.1494 2.53143 -2.99434 0
M  V30 1079 H 95.6394 3.36946 -2.46693 0
M  V30 1080 N 96.0765 1.50051 0.48192 0
M  V30 1081 C 97.3225 1.60736 1.2366 0
M  V30 1082 C 97.6555 0.301786 1.91841 0
M  V30 1083 O 96.9305 -0.696025 1.8162 0
M  V30 1084 C 97.2135 2.78009 2.28874 0
M  V30 1085 C 97.0665 4.18416 1.65069 0
M  V30 1086 C 98.3855 2.90867 3.30279 0
M  V30 1087 H 95.5045 0.585031 0.448228 0
M  V30 1088 H 98.1465 1.82402 0.531946 0
M  V30 1089 H 96.2965 2.59667 2.88973 0
M  V30 1090 H 97.9685 4.48322 1.0865 0
M  V30 1091 H 96.2115 4.23177 0.954148 0
M  V30 1092 H 96.8825 4.96381 2.41474 0
M  V30 1093 H 99.3585 3.07623 2.80191 0
M  V30 1094 H 98.2345 3.74566 4.01238 0
M  V30 1095 H 98.4955 2.01021 3.93755 0
M  V30 1096 N 97.5546 -0.734337 1.39446 0
M  V30 1097 C 98.7826 -1.52358 1.39981 0
M  V30 1098 C 99.1976 -1.88799 -0.0054975 0
M  V30 1099 O 98.5546 -1.54146 -0.976998 0
M  V30 1100 C 98.6056 -2.81072 2.27333 0
M  V30 1101 O 98.3266 -2.46178 3.62392 0
M  V30 1102 C 99.8276 -3.75096 2.36259 0
M  V30 1103 H 97.0476 -0.470806 0.478103 0
M  V30 1104 H 99.5916 -0.907339 1.83269 0
M  V30 1105 H 97.7466 -3.39026 1.87457 0
M  V30 1106 H 98.1606 -3.28866 4.08592 0
M  V30 1107 H 99.6346 -4.62305 3.01626 0
M  V30 1108 H 100.112 -4.16892 1.38194 0
M  V30 1109 H 100.718 -3.23061 2.76608 0
M  V30 1110 N 99.0327 -1.24633 -0.964593 0
M  V30 1111 C 100.279 -1.08949 -1.71049 0
M  V30 1112 C 100.612 0.370302 -1.90637 0
M  V30 1113 O 99.8867 1.27349 -1.47011 0
M  V30 1114 C 100.17 -1.83329 -3.0994 0
M  V30 1115 C 100.023 -3.37077 -2.97824 0
M  V30 1116 C 101.342 -1.60846 -4.09654 0
M  V30 1117 H 98.4607 -0.397178 -0.620821 0
M  V30 1118 H 101.103 -1.5334 -1.12191 0
M  V30 1119 H 99.2527 -1.45597 -3.60186 0
M  V30 1120 H 100.925 -3.84425 -2.5498 0
M  V30 1121 H 99.1677 -3.65298 -2.33965 0
M  V30 1122 H 99.8387 -3.84324 -3.96231 0
M  V30 1123 H 102.315 -1.93674 -3.68279 0
M  V30 1124 H 101.191 -2.1534 -5.04896 0
M  V30 1125 H 101.452 -0.547434 -4.38698 0
M  V30 1126 N 100.511 1.16574 -1.06058 0
M  V30 1127 C 101.461 2.18854 -0.63929 0
M  V30 1128 C 102.445 1.57505 0.328798 0
M  V30 1129 O 103.637 1.76408 0.144623 0
M  V30 1130 C 100.766 3.43291 -0.0247203 0
M  V30 1131 C 99.8518 4.11722 -1.01716 0
M  V30 1132 N 100.243 4.55841 -2.19186 0
M  V30 1133 C 98.5408 4.37872 -0.847569 0
M  V30 1134 C 99.2418 5.08751 -2.82042 0
M  V30 1135 N 98.2178 5.01489 -2.09784 0
M  V30 1136 H 102.02 2.5068 -1.53417 0
M  V30 1137 H 99.5338 1.32999 -0.931935 0
M  V30 1138 H 101.531 4.15856 0.294915 0
M  V30 1139 H 100.191 3.12954 0.865448 0
M  V30 1140 H 101.202 4.49649 -2.56975 0
M  V30 1141 H 97.8788 4.17499 -0.00918848 0
M  V30 1142 H 99.2688 5.52944 -3.81709 0
M  V30 1143 N 101.989 0.842826 1.3317 0
M  V30 1144 C 103.235 0.441099 1.97945 0
M  V30 1145 C 103.568 -0.998024 1.66593 0
M  V30 1146 O 102.843 -1.69839 0.947898 0
M  V30 1147 C 103.126 0.666841 3.53872 0
M  V30 1148 C 102.979 2.15352 3.94897 0
M  V30 1149 C 104.298 0.115544 4.39948 0
M  V30 1150 H 101.417 0.161739 0.719034 0
M  V30 1151 H 104.059 1.05907 1.57746 0
M  V30 1152 H 102.209 0.140828 3.88245 0
M  V30 1153 H 103.881 2.7447 3.70761 0
M  V30 1154 H 102.124 2.63653 3.44484 0
M  V30 1155 H 102.795 2.26221 5.03516 0
M  V30 1156 H 105.271 0.565213 4.12243 0
M  V30 1157 H 104.147 0.303152 5.48062 0
M  V30 1158 H 104.408 -0.980935 4.3108 0
M  V30 1159 N 103.467 -1.45747 0.599634 0
M  V30 1160 C 104.43 -2.28917 -0.113835 0
M  V30 1161 C 105.43 -1.3933 -0.802729 0
M  V30 1162 O 106.62 -1.61534 -0.652103 0
M  V30 1163 C 103.752 -3.20152 -1.17114 0
M  V30 1164 H 104.945 -2.93478 0.617289 0
M  V30 1165 H 102.498 -1.52137 0.358327 0
M  V30 1166 H 103.233 -2.60374 -1.93329 0
M  V30 1167 H 103.018 -3.86133 -0.681468 0
M  V30 1168 H 104.508 -3.82708 -1.67105 0
M  V30 1169 N 104.945 -0.338344 -1.53925 0
M  V30 1170 C 105.892 0.520845 -2.24846 0
M  V30 1171 C 106.862 1.09976 -1.24477 0
M  V30 1172 O 108.047 1.13735 -1.53196 0
M  V30 1173 C 105.187 1.6685 -3.02084 0
M  V30 1174 C 104.3 1.11739 -4.17299 0
M  V30 1175 C 103.435 2.23193 -4.82036 0
M  V30 1176 C 102.474 1.65407 -5.89328 0
M  V30 1177 N 101.611 2.70582 -6.47866 0
M  V30 1178 H 106.451 -0.0904881 -2.97863 0
M  V30 1179 H 103.988 -0.0564282 -1.46992 0
M  V30 1180 H 105.946 2.34407 -3.45122 0
M  V30 1181 H 104.576 2.2509 -2.31375 0
M  V30 1182 H 103.628 0.332919 -3.7894 0
M  V30 1183 H 104.94 0.654677 -4.94485 0
M  V30 1184 H 104.094 2.98626 -5.28117 0
M  V30 1185 H 102.833 2.72807 -4.04262 0
M  V30 1186 H 101.838 0.884779 -5.42634 0
M  V30 1187 H 103.063 1.16652 -6.69006 0
M  V30 1188 H 101.009 3.1946 -5.72959 0
M  V30 1189 H 100.926 2.28917 -7.20509 0
M  V30 1190 H 102.194 3.45799 -6.98601 0
M  V30 1191 N 106.423 1.57458 -0.0668435 0
M  V30 1192 C 107.834 1.80776 0.466558 0
M  V30 1193 C 108.185 0.980361 1.69951 0
M  V30 1194 O 107.31 0.201441 2.1546 0
M  V30 1195 C 107.905 3.27881 0.85321 0
M  V30 1196 C 106.464 3.52062 1.3315 0
M  V30 1197 C 105.611 2.75513 0.314264 0
M  V30 1198 H 108.562 1.5598 -0.292588 0
M  V30 1199 H 108.583 3.39659 1.715 0
M  V30 1200 H 108.095 3.88075 -0.0443439 0
M  V30 1201 H 106.196 2.97167 2.24772 0
M  V30 1202 H 106.309 4.60762 1.31285 0
M  V30 1203 H 104.673 2.42123 0.790492 0
M  V30 1204 H 105.456 3.38442 -0.575477 0
M  V30 1205 N 107.901 -0.206675 1.56239 0
M  V30 1206 C 109.149 -0.927007 1.79586 0
M  V30 1207 C 109.47 -1.8427 0.637929 0
M  V30 1208 O 108.74 -1.92849 -0.344398 0
M  V30 1209 H 107.32 -0.345292 0.662407 0
M  V30 1210 H 109.982 -0.21496 1.93711 0
M  V30 1211 H 109.078 -1.52501 2.72305 0
M  V30 1212 N 109.379 -1.50304 -0.473955 0
M  V30 1213 C 110.625 -1.61389 -1.22806 0
M  V30 1214 C 110.958 -0.311955 -1.91678 0
M  V30 1215 O 110.233 0.686384 -1.81986 0
M  V30 1216 C 110.516 -2.79219 -2.27396 0
M  V30 1217 C 110.369 -4.19286 -1.62848 0
M  V30 1218 C 111.688 -2.92614 -3.28732 0
M  V30 1219 H 108.807 -0.587399 -0.445119 0
M  V30 1220 H 111.449 -1.82681 -0.522265 0
M  V30 1221 H 109.599 -2.61195 -2.87592 0
M  V30 1222 H 111.271 -4.48892 -1.06271 0
M  V30 1223 H 109.514 -4.23677 -0.931693 0
M  V30 1224 H 110.185 -4.97655 -2.38838 0
M  V30 1225 H 112.661 -3.09105 -2.78556 0
M  V30 1226 H 111.537 -3.76688 -3.99246 0
M  V30 1227 H 111.798 -2.03107 -3.92683 0
M  V30 1228 N 110.857 0.726932 -1.39834 0
M  V30 1229 C 112.103 1.48884 -1.377 0
M  V30 1230 C 112.436 1.94185 0.0244852 0
M  V30 1231 O 111.711 1.67361 0.990986 0
M  V30 1232 C 111.994 2.72288 -2.3565 0
M  V30 1233 C 111.847 2.32956 -3.84775 0
M  V30 1234 C 113.166 3.74414 -2.31306 0
M  V30 1235 H 110.285 0.540062 -0.5015 0
M  V30 1236 H 112.927 0.830547 -1.70886 0
M  V30 1237 H 111.077 3.28457 -2.07481 0
M  V30 1238 H 112.749 1.82356 -4.23726 0
M  V30 1239 H 110.992 1.65088 -4.01159 0
M  V30 1240 H 111.663 3.21362 -4.4881 0
M  V30 1241 H 114.139 3.27849 -2.56231 0
M  V30 1242 H 113.015 4.58414 -3.01907 0
M  V30 1243 H 113.276 4.21909 -1.32081 0
M  V30 1244 N 112.336 1.25143 0.95797 0
M  V30 1245 C 113.585 1.0909 1.69654 0
M  V30 1246 C 113.898 -0.368548 1.92097 0
M  V30 1247 O 115.104 -0.649455 2.63618 0
M  V30 1248 C 113.56 1.90395 3.05414 0
M  V30 1249 C 113.168 3.4081 2.90779 0
M  V30 1250 C 114.912 1.82901 3.83076 0
M  V30 1251 C 112.819 4.14423 4.21909 0
M  V30 1252 H 111.749 0.404625 0.636235 0
M  V30 1253 H 114.4 1.4931 1.06672 0
M  V30 1254 H 112.782 1.42996 3.69281 0
M  V30 1255 H 113.956 3.95859 2.35865 0
M  V30 1256 H 112.271 3.49361 2.26575 0
M  V30 1257 H 114.868 2.35196 4.80195 0
M  V30 1258 H 115.211 0.796224 4.08615 0
M  V30 1259 H 115.744 2.28033 3.25954 0
M  V30 1260 H 112.483 5.18102 4.01561 0
M  V30 1261 H 112.003 3.64159 4.76601 0
M  V30 1262 H 113.682 4.21956 4.90471 0
M  V30 1263 N 113.814 -1.1601 1.06675 0
M  V30 1264 C 115.062 -1.86264 0.784229 0
M  V30 1265 C 115.383 -1.82328 -0.691488 0
M  V30 1266 O 114.653 -1.25947 -1.50047 0
M  V30 1267 H 113.233 -0.689621 0.28711 0
M  V30 1268 H 115.895 -1.40664 1.34906 0
M  V30 1269 H 114.991 -2.91595 1.11259 0
M  V30 1270 N 115.292 -0.849877 -1.32721 0
M  V30 1271 C 116.708 -0.539102 -1.50219 0
M  V30 1272 C 116.908 0.931271 -1.78689 0
M  V30 1273 O 115.964 1.71455 -1.85363 0
M  V30 1274 C 117.277 -1.42196 -2.64954 0
M  V30 1275 C 118.825 -1.42189 -2.78839 0
M  V30 1276 C 119.3 -2.28985 -3.96648 0
M  V30 1277 N 120.791 -2.26754 -4.03902 0
M  V30 1278 C 121.526 -2.90644 -4.94281 0
M  V30 1279 N 121.022 -3.63629 -5.897 0
M  V30 1280 N 122.815 -2.80057 -4.87365 0
M  V30 1281 H 114.966 -1.80156 -1.12506 0
M  V30 1282 H 117.229 -0.769217 -0.554085 0
M  V30 1283 H 116.935 -2.46733 -2.50631 0
M  V30 1284 H 116.809 -1.10591 -3.60624 0
M  V30 1285 H 119.196 -0.38419 -2.92588 0
M  V30 1286 H 119.277 -1.77807 -1.83898 0
M  V30 1287 H 118.921 -3.32819 -3.83658 0
M  V30 1288 H 118.851 -1.90702 -4.90857 0
M  V30 1289 H 121.342 -1.73688 -3.3562 0
M  V30 1290 H 121.655 -4.09558 -6.55349 0
M  V30 1291 H 120 -3.67737 -5.89741 0
M  V30 1292 H 123.191 -2.22593 -4.11789 0
M  V30 1293 H 123.364 -3.30132 -5.57599 0
M  V30 1294 N 116.77 1.45427 -0.607355 0
M  V30 1295 C 118.018 2.01841 -0.102253 0
M  V30 1296 C 118.339 1.47832 1.27164 0
M  V30 1297 O 117.609 0.672497 1.83995 0
M  V30 1298 H 116.189 0.746188 -0.0348101 0
M  V30 1299 H 118.851 1.78229 -0.7887 0
M  V30 1300 H 117.947 3.12057 -0.0518585 0
M  V30 1301 N 118.248 0.346503 1.53744 0
M  V30 1302 C 119.496 -0.248612 2.00565 0
M  V30 1303 C 119.817 -1.5083 1.23593 0
M  V30 1304 O 119.087 -1.92858 0.343912 0
M  V30 1305 H 117.667 -0.0948564 0.740953 0
M  V30 1306 H 120.329 0.468341 1.89189 0
M  V30 1307 H 119.425 -0.488994 3.08245 0
M  V30 1308 N 119.726 -1.57421 0.075193 0
M  V30 1309 C 120.636 -2.1642 -0.905511 0
M  V30 1310 C 121.652 -1.12828 -1.32461 0
M  V30 1311 O 122.828 -1.45109 -1.39661 0
M  V30 1312 C 119.893 -2.71693 -2.15369 0
M  V30 1313 C 118.954 -3.90171 -1.79068 0
M  V30 1314 C 118.187 -4.42798 -2.97936 0
M  V30 1315 O 118.41 -3.94416 -4.12058 0
M  V30 1316 O 117.344 -5.34085 -2.77555 0
M  V30 1317 H 121.17 -3.00588 -0.433626 0
M  V30 1318 H 118.755 -1.48664 -0.148067 0
M  V30 1319 H 120.637 -3.07104 -2.88557 0
M  V30 1320 H 119.312 -1.90582 -2.61649 0
M  V30 1321 H 118.219 -3.59606 -1.03122 0
M  V30 1322 H 119.552 -4.72584 -1.37569 0
M  V30 1323 N 121.204 0.198386 -1.56346 0
M  V30 1324 C 122.62 0.549085 -1.49857 0
M  V30 1325 C 122.82 1.86016 -0.774611 0
M  V30 1326 O 121.876 2.50416 -0.323776 0
M  V30 1327 C 123.189 0.606868 -2.94512 0
M  V30 1328 C 124.737 0.695925 -3.05165 0
M  V30 1329 C 125.212 0.784848 -4.51225 0
M  V30 1330 N 126.703 0.848463 -4.55363 0
M  V30 1331 C 127.438 0.937378 -5.65686 0
M  V30 1332 N 126.934 0.9888 -6.85707 0
M  V30 1333 N 128.727 0.974312 -5.53592 0
M  V30 1334 H 120.878 -0.661655 -2.01831 0
M  V30 1335 H 123.141 -0.235261 -0.918344 0
M  V30 1336 H 122.847 -0.28732 -3.50524 0
M  V30 1337 H 122.721 1.46268 -3.47686 0
M  V30 1338 H 125.108 1.58055 -2.49204 0
M  V30 1339 H 125.189 -0.186022 -2.55123 0
M  V30 1340 H 124.833 -0.0954072 -5.0781 0
M  V30 1341 H 124.763 1.68255 -4.98997 0
M  V30 1342 H 127.254 0.818103 -3.68938 0
M  V30 1343 H 127.567 1.05707 -7.65536 0
M  V30 1344 H 125.912 0.957534 -6.88372 0
M  V30 1345 H 129.103 0.930954 -4.58749 0
M  V30 1346 H 129.276 1.04015 -6.39597 0
M  V30 1347 N 122.682 1.50554 0.465978 0
M  V30 1348 C 123.931 1.61038 1.21448 0
M  V30 1349 C 124.244 0.31865 1.92987 0
M  V30 1350 O 125.45 0.302469 2.6981 0
M  V30 1351 C 123.906 2.84283 2.20706 0
M  V30 1352 C 123.514 4.20352 1.54946 0
M  V30 1353 C 125.258 3.04115 2.96166 0
M  V30 1354 C 123.165 5.34778 2.5252 0
M  V30 1355 H 122.095 0.599718 0.457005 0
M  V30 1356 H 124.746 1.7699 0.484424 0
M  V30 1357 H 123.128 2.61901 2.97025 0
M  V30 1358 H 124.302 4.53008 0.843811 0
M  V30 1359 H 122.617 4.06167 0.917475 0
M  V30 1360 H 125.214 3.86774 3.69202 0
M  V30 1361 H 125.557 2.16045 3.55852 0
M  V30 1362 H 126.09 3.26702 2.26959 0
M  V30 1363 H 122.829 6.25018 1.97566 0
M  V30 1364 H 122.349 5.06534 3.21222 0
M  V30 1365 H 124.028 5.65561 3.14245 0
M  V30 1366 N 124.16 -0.719506 1.40217 0
M  V30 1367 C 125.576 -1.02707 1.22161 0
M  V30 1368 C 125.776 -2.0128 0.0940557 0
M  V30 1369 O 124.832 -2.46452 -0.549318 0
M  V30 1370 C 126.145 -1.57454 2.56181 0
M  V30 1371 C 127.693 -1.69458 2.63159 0
M  V30 1372 C 128.168 -2.27611 3.97438 0
M  V30 1373 N 129.659 -2.35002 3.99159 0
M  V30 1374 C 130.394 -2.80972 4.99842 0
M  V30 1375 N 129.89 -3.26723 6.10921 0
M  V30 1376 N 131.683 -2.80321 4.87213 0
M  V30 1377 H 123.834 -0.0660492 2.12297 0
M  V30 1378 H 126.097 -0.0919077 0.943534 0
M  V30 1379 H 125.803 -0.924873 3.39321 0
M  V30 1380 H 125.677 -2.56036 2.76993 0
M  V30 1381 H 128.064 -2.33543 1.80393 0
M  V30 1382 H 128.145 -0.694867 2.46181 0
M  V30 1383 H 127.789 -1.6415 4.80643 0
M  V30 1384 H 127.719 -3.2829 4.11744 0
M  V30 1385 H 130.21 -2.02685 3.18947 0
M  V30 1386 H 130.523 -3.60355 6.8364 0
M  V30 1387 H 128.868 -3.24692 6.14492 0
M  V30 1388 H 132.059 -2.43912 3.9953 0
M  V30 1389 H 132.232 -3.15831 5.65822 0
M  V30 1390 N 125.638 -1.25649 -0.95132 0
M  V30 1391 C 126.884 -1.10757 -1.69884 0
M  V30 1392 C 127.217 0.350061 -1.91019 0
M  V30 1393 O 126.492 1.25783 -1.48354 0
M  V30 1394 C 126.775 -1.86606 -3.07978 0
M  V30 1395 C 126.628 -3.40217 -2.94232 0
M  V30 1396 C 127.947 -1.65182 -4.07925 0
M  V30 1397 H 125.066 -0.40374 -0.616574 0
M  V30 1398 H 127.708 -1.54521 -1.10558 0
M  V30 1399 H 125.858 -1.49409 -3.58621 0
M  V30 1400 H 127.53 -3.87108 -2.50889 0
M  V30 1401 H 125.773 -3.67759 -2.30078 0
M  V30 1402 H 126.444 -3.88505 -3.92133 0
M  V30 1403 H 128.92 -1.9757 -3.66204 0
M  V30 1404 H 127.796 -2.20683 -5.02583 0
M  V30 1405 H 128.057 -0.593933 -4.38092 0
M  V30 1406 N 127.117 1.15442 -1.07289 0
M  V30 1407 C 128.047 2.22312 -0.714107 0
M  V30 1408 C 129.028 1.67467 0.298155 0
M  V30 1409 O 130.213 1.93445 0.171048 0
M  V30 1410 C 127.343 3.47124 -0.110448 0
M  V30 1411 C 126.297 4.14926 -1.04979 0
M  V30 1412 C 125.623 5.33807 -0.308924 0
M  V30 1413 C 126.923 4.64762 -2.38314 0
M  V30 1414 H 128.617 2.5258 -1.6076 0
M  V30 1415 H 126.163 1.21404 -0.77441 0
M  V30 1416 H 128.116 4.21124 0.152482 0
M  V30 1417 H 126.84 3.16187 0.81812 0
M  V30 1418 H 125.499 3.42866 -1.29764 0
M  V30 1419 H 125.147 4.99126 0.623084 0
M  V30 1420 H 124.847 5.80113 -0.935036 0
M  V30 1421 H 126.371 6.10576 -0.0537771 0
M  V30 1422 H 127.785 5.30292 -2.1786 0
M  V30 1423 H 126.182 5.21728 -2.96514 0
M  V30 1424 H 127.252 3.80434 -3.00663 0
M  V30 1425 N 128.595 0.856903 1.32268 0
M  V30 1426 C 130.011 0.547061 1.49931 0
M  V30 1427 C 130.211 -0.921781 1.7918 0
M  V30 1428 O 129.267 -1.70469 1.8627 0
M  V30 1429 C 130.58 1.43599 2.64196 0
M  V30 1430 C 132.128 1.43665 2.78081 0
M  V30 1431 C 132.603 2.31085 3.95428 0
M  V30 1432 N 134.094 2.28893 4.02694 0
M  V30 1433 C 134.829 2.93262 4.92732 0
M  V30 1434 N 134.325 3.66751 5.87763 0
M  V30 1435 N 136.118 2.82638 4.85873 0
M  V30 1436 H 128.269 1.8075 1.11549 0
M  V30 1437 H 130.532 0.772144 0.549997 0
M  V30 1438 H 130.238 2.48058 2.49319 0
M  V30 1439 H 130.112 1.12502 3.60032 0
M  V30 1440 H 132.499 0.399701 2.92381 0
M  V30 1441 H 132.58 1.7878 1.82952 0
M  V30 1442 H 132.224 3.34849 3.81888 0
M  V30 1443 H 132.154 1.93302 4.89839 0
M  V30 1444 H 134.645 1.75466 3.34694 0
M  V30 1445 H 134.958 4.13027 6.53168 0
M  V30 1446 H 133.303 3.70859 5.87783 0
M  V30 1447 H 136.494 2.24774 4.10602 0
M  V30 1448 H 136.667 3.33084 5.55841 0
M  V30 1449 N 130.073 -1.45103 0.615059 0
M  V30 1450 C 130.983 -2.34382 -0.101034 0
M  V30 1451 C 131.999 -1.51681 -0.852585 0
M  V30 1452 O 133.175 -1.8446 -0.808484 0
M  V30 1453 C 130.24 -3.29417 -1.08099 0
M  V30 1454 C 129.301 -4.28025 -0.330577 0
M  V30 1455 C 128.534 -5.1852 -1.26385 0
M  V30 1456 O 128.757 -5.12598 -2.50198 0
M  V30 1457 O 127.691 -5.97122 -0.756866 0
M  V30 1458 H 131.517 -2.97033 0.632855 0
M  V30 1459 H 129.102 -1.4461 0.375293 0
M  V30 1460 H 130.984 -3.87958 -1.6452 0
M  V30 1461 H 129.659 -2.69321 -1.79577 0
M  V30 1462 H 128.566 -3.73078 0.276283 0
M  V30 1463 H 129.899 -4.90997 0.343866 0
M  V30 1464 N 131.551 -0.354651 -1.53558 0
M  V30 1465 C 132.461 0.50515 -2.29097 0
M  V30 1466 C 133.477 1.10223 -1.34636 0
M  V30 1467 O 134.653 1.11553 -1.67684 0
M  V30 1468 C 131.718 1.63479 -3.05738 0
M  V30 1469 C 130.779 1.06636 -4.15845 0
M  V30 1470 C 130.012 2.14217 -4.88822 0
M  V30 1471 O 130.235 3.35137 -4.61562 0
M  V30 1472 O 129.169 1.77887 -5.75013 0
M  V30 1473 H 132.995 -0.109237 -3.03503 0
M  V30 1474 H 130.58 -0.119357 -1.48922 0
M  V30 1475 H 132.462 2.2918 -3.5363 0
M  V30 1476 H 131.137 2.23478 -2.34178 0
M  V30 1477 H 130.044 0.373565 -3.7223 0
M  V30 1478 H 131.377 0.511081 -4.89539 0
M  V30 1479 N 133.029 1.57378 -0.0835403 0
M  V30 1480 C 133.959 2.1641 0.87686 0
M  V30 1481 C 134.94 1.09429 1.30228 0
M  V30 1482 O 136.125 1.37516 1.37124 0
M  V30 1483 C 133.255 2.73517 2.14022 0
M  V30 1484 C 132.209 3.85769 1.85381 0
M  V30 1485 C 131.535 4.29529 3.18448 0
M  V30 1486 C 132.835 5.09486 1.14984 0
M  V30 1487 H 134.529 2.96914 0.385059 0
M  V30 1488 H 132.075 1.42823 0.18377 0
M  V30 1489 H 134.028 3.13463 2.81636 0
M  V30 1490 H 132.752 1.90252 2.65465 0
M  V30 1491 H 131.411 3.46345 1.20169 0
M  V30 1492 H 131.059 3.43169 3.67755 0
M  V30 1493 H 130.759 5.05204 3.00071 0
M  V30 1494 H 132.283 4.72099 3.8724 0
M  V30 1495 H 133.697 5.46674 1.72687 0
M  V30 1496 H 132.094 5.90515 1.06826 0
M  V30 1497 H 133.164 4.84724 0.130749 0
M  V30 1498 N 134.507 -0.190092 1.56449 0
M  V30 1499 C 135.47 -1.21925 1.9408 0
M  V30 1500 C 136.47 -1.38176 0.822431 0
M  V30 1501 O 137.66 -1.35903 1.08977 0
M  V30 1502 C 134.792 -2.58773 2.21922 0
M  V30 1503 H 135.985 -0.897464 2.86157 0
M  V30 1504 H 133.538 -0.43181 1.50217 0
M  V30 1505 H 134.273 -2.95998 1.32499 0
M  V30 1506 H 134.058 -2.48348 3.03424 0
M  V30 1507 H 135.548 -3.32978 2.52022 0
M  V30 1508 N 135.985 -1.50799 -0.457987 0
M  V30 1509 C 136.932 -1.70617 -1.5543 0
M  V30 1510 C 137.902 -0.547562 -1.56815 0
M  V30 1511 O 139.087 -0.779647 -1.74144 0
M  V30 1512 C 136.227 -1.81831 -2.93311 0
M  V30 1513 C 135.34 -3.09278 -3.01615 0
M  V30 1514 C 134.475 -3.11209 -4.30491 0
M  V30 1515 C 133.514 -4.33055 -4.32585 0
M  V30 1516 N 132.651 -4.32652 -5.52952 0
M  V30 1517 H 137.491 -2.64207 -1.37836 0
M  V30 1518 H 135.028 -1.30959 -0.669937 0
M  V30 1519 H 136.986 -1.86314 -3.73287 0
M  V30 1520 H 135.616 -0.916685 -3.0951 0
M  V30 1521 H 134.668 -3.14203 -2.1443 0
M  V30 1522 H 135.98 -3.99233 -2.99022 0
M  V30 1523 H 135.134 -3.14494 -5.18824 0
M  V30 1524 H 133.873 -2.19106 -4.35711 0
M  V30 1525 H 132.878 -4.29969 -3.42647 0
M  V30 1526 H 134.103 -5.264 -4.29046 0
M  V30 1527 H 132.049 -3.43409 -5.58933 0
M  V30 1528 H 131.966 -5.16392 -5.52155 0
M  V30 1529 H 133.234 -4.40101 -6.43375 0
M  V30 1530 N 137.463 0.71206 -1.40597 0
M  V30 1531 C 138.393 1.83889 -1.43899 0
M  V30 1532 C 139.374 1.67442 -0.299504 0
M  V30 1533 O 140.559 1.87421 -0.508624 0
M  V30 1534 C 137.689 3.21877 -1.30431 0
M  V30 1535 C 136.643 3.53002 -2.42019 0
M  V30 1536 C 135.969 4.90172 -2.13626 0
M  V30 1537 C 137.269 3.53643 -3.84362 0
M  V30 1538 H 138.963 1.81383 -2.38203 0
M  V30 1539 H 136.509 0.871237 -1.14654 0
M  V30 1540 H 138.462 4.00404 -1.31357 0
M  V30 1541 H 137.186 3.24968 -0.326049 0
M  V30 1542 H 135.845 2.76818 -2.40349 0
M  V30 1543 H 135.493 4.89869 -1.14182 0
M  V30 1544 H 135.193 5.11962 -2.88389 0
M  V30 1545 H 136.717 5.71028 -2.1624 0
M  V30 1546 H 138.131 4.22203 -3.87837 0
M  V30 1547 H 136.528 3.86961 -4.58673 0
M  V30 1548 H 137.598 2.52954 -4.13693 0
M  V30 1549 N 138.941 1.26152 0.944643 0
M  V30 1550 C 140.169 1.14259 1.72489 0
M  V30 1551 C 140.584 -0.302555 1.8636 0
M  V30 1552 O 139.941 -1.20741 1.36849 0
M  V30 1553 C 139.992 1.80266 3.13347 0
M  V30 1554 O 139.713 3.19133 3.00143 0
M  V30 1555 C 141.214 1.74283 4.07603 0
M  V30 1556 H 138.434 0.398051 0.540181 0
M  V30 1557 H 140.978 1.66706 1.18446 0
M  V30 1558 H 139.133 1.31766 3.64303 0
M  V30 1559 H 139.547 3.51744 3.89071 0
M  V30 1560 H 141.021 2.25111 5.04013 0
M  V30 1561 H 141.498 0.708631 4.33446 0
M  V30 1562 H 142.104 2.22319 3.62567 0
M  V30 1563 N 140.419 -1.14872 1.07899 0
M  V30 1564 C 141.667 -1.85422 0.803941 0
M  V30 1565 C 141.988 -1.83051 -0.67211 0
M  V30 1566 O 141.258 -1.27532 -1.48703 0
M  V30 1567 H 139.838 -0.686537 0.294408 0
M  V30 1568 H 142.5 -1.39226 1.3639 0
M  V30 1569 H 141.596 -2.90399 1.14346 0
M  V30 1570 N 141.898 -0.863906 -1.31812 0
M  V30 1571 C 142.845 -0.313303 -2.28664 0
M  V30 1572 C 143.815 0.584868 -1.55462 0
M  V30 1573 O 145 0.517805 -1.83639 0
M  V30 1574 C 142.14 0.48441 -3.41683 0
M  V30 1575 C 141.253 -0.440594 -4.29747 0
M  V30 1576 C 140.388 0.370652 -5.29905 0
M  V30 1577 C 139.427 -0.551164 -6.09613 0
M  V30 1578 N 138.564 0.223462 -7.01744 0
M  V30 1579 H 143.404 -1.14444 -2.75148 0
M  V30 1580 H 140.941 -0.575769 -1.35364 0
M  V30 1581 H 142.899 0.962627 -4.05943 0
M  V30 1582 H 141.529 1.28029 -2.96325 0
M  V30 1583 H 140.581 -1.03724 -3.65986 0
M  V30 1584 H 141.893 -1.14767 -4.85417 0
M  V30 1585 H 141.047 0.911638 -5.99812 0
M  V30 1586 H 139.786 1.11105 -4.74876 0
M  V30 1587 H 138.791 -1.10396 -5.38603 0
M  V30 1588 H 140.016 -1.29032 -6.66729 0
M  V30 1589 H 137.962 0.946787 -6.49132 0
M  V30 1590 H 137.879 -0.424399 -7.54808 0
M  V30 1591 H 139.147 0.745876 -7.75923 0
M  V30 1592 N 143.376 1.44774 -0.622745 0
M  V30 1593 C 144.324 2.32387 0.0994683 0
M  V30 1594 C 145.318 1.46859 0.844326 0
M  V30 1595 O 146.524 1.63254 0.758174 0
M  V30 1596 H 142.899 0.750273 0.0509291 0
M  V30 1597 H 144.87 2.91062 -0.65767 0
M  V30 1598 C 143.619 3.30723 1.07319 0
M  V30 1599 H 142.942 3.96541 0.509462 0
M  V30 1600 H 144.382 3.94725 1.54817 0
M  V30 1601 C 142.841 2.59021 2.15429 0
M  V30 1602 O 143.371 2.38286 3.23393 0
M  V30 1603 N 141.577 2.189 1.91131 0
M  V30 1604 H 141.124 2.35964 1.03337 0
M  V30 1605 H 141.082 1.71251 2.63668 0
M  V30 1606 N 144.854 0.36279 1.53368 0
M  V30 1607 C 146.1 -0.228113 2.01513 0
M  V30 1608 C 146.433 -1.48648 1.2497 0
M  V30 1609 O 145.708 -1.91459 0.342616 0
M  V30 1610 C 145.991 -0.522884 3.56284 0
M  V30 1611 C 145.844 0.74892 4.43521 0
M  V30 1612 C 147.163 -1.32461 4.19693 0
M  V30 1613 H 144.282 -0.0814343 0.732487 0
M  V30 1614 H 146.924 0.48713 1.83649 0
M  V30 1615 H 145.074 -1.1322 3.71636 0
M  V30 1616 H 146.746 1.38648 4.39971 0
M  V30 1617 H 144.989 1.36986 4.11603 0
M  V30 1618 H 145.66 0.497667 5.49752 0
M  V30 1619 H 148.136 -0.809203 4.08156 0
M  V30 1620 H 147.012 -1.49961 5.28018 0
M  V30 1621 H 147.273 -2.33232 3.75573 0
M  V30 1622 N 146.332 -1.57332 0.0918853 0
M  V30 1623 C 147.295 -2.12708 -0.85369 0
M  V30 1624 C 148.295 -1.05561 -1.213 0
M  V30 1625 O 149.485 -1.31461 -1.14296 0
M  V30 1626 C 146.617 -2.64503 -2.15061 0
M  V30 1627 H 147.81 -2.97573 -0.3729 0
M  V30 1628 H 145.363 -1.55509 -0.157072 0
M  V30 1629 H 146.098 -1.83149 -2.67632 0
M  V30 1630 H 145.883 -3.4284 -1.90272 0
M  V30 1631 H 147.373 -3.07351 -2.82711 0
M  V30 1632 N 147.81 0.181792 -1.56548 0
M  V30 1633 C 148.74 1.22765 -1.98623 0
M  V30 1634 C 149.721 1.46747 -0.860189 0
M  V30 1635 O 150.906 1.58259 -1.12551 0
M  V30 1636 C 148.036 2.56894 -2.33715 0
M  V30 1637 C 146.99 2.475 -3.49182 0
M  V30 1638 C 146.316 3.86023 -3.69986 0
M  V30 1639 C 147.616 1.98866 -4.82959 0
M  V30 1640 H 149.31 0.877942 -2.86239 0
M  V30 1641 H 146.856 0.42088 -1.37712 0
M  V30 1642 H 148.809 3.30253 -2.61746 0
M  V30 1643 H 147.533 2.93632 -1.42997 0
M  V30 1644 H 146.192 1.76596 -3.21262 0
M  V30 1645 H 145.84 4.20136 -2.76576 0
M  V30 1646 H 145.54 3.80609 -4.47672 0
M  V30 1647 H 147.064 4.60984 -4.00407 0
M  V30 1648 H 148.478 2.61992 -5.09934 0
M  V30 1649 H 146.875 2.04424 -5.64208 0
M  V30 1650 H 147.945 0.942465 -4.75653 0
M  V30 1651 N 149.288 1.51039 0.449983 0
M  V30 1652 C 150.236 1.71995 1.5659 0
M  V30 1653 C 151.23 0.586029 1.5894 0
M  V30 1654 O 152.436 0.76709 1.62837 0
M  V30 1655 H 148.811 0.543233 0.520001 0
M  V30 1656 H 150.782 2.65562 1.36085 0
M  V30 1657 C 149.531 1.8506 2.9436 0
M  V30 1658 H 148.854 2.71712 2.93279 0
M  V30 1659 H 150.294 2.0374 3.71842 0
M  V30 1660 C 148.753 0.607277 3.31382 0
M  V30 1661 O 149.283 -0.243903 4.00959 0
M  V30 1662 N 147.489 0.455073 2.87015 0
M  V30 1663 H 147.036 1.14879 2.30566 0
M  V30 1664 H 146.994 -0.375611 3.12148 0
M  V30 1665 N 150.766 -0.704594 1.40972 0
M  V30 1666 C 152.012 -1.46675 1.40051 0
M  V30 1667 C 152.345 -1.94199 0.00641102 0
M  V30 1668 O 151.62 -1.68916 -0.964235 0
M  V30 1669 C 151.903 -2.68505 2.39952 0
M  V30 1670 C 151.756 -2.26805 3.88432 0
M  V30 1671 C 153.075 -3.70686 2.37233 0
M  V30 1672 H 150.194 -0.532015 0.510028 0
M  V30 1673 H 152.836 -0.803255 1.72185 0
M  V30 1674 H 150.986 -3.25114 2.1268 0
M  V30 1675 H 152.658 -1.75592 4.26574 0
M  V30 1676 H 150.901 -1.58685 4.03734 0
M  V30 1677 H 151.572 -3.14181 4.53866 0
M  V30 1678 H 154.048 -3.23731 2.61415 0
M  V30 1679 H 152.924 -4.53553 3.09162 0
M  V30 1680 H 153.185 -4.19754 1.38777 0
M  V30 1681 N 152.244 -1.26651 -0.937939 0
M  V30 1682 C 153.176 -1.04283 -2.04102 0
M  V30 1683 C 154.189 -0.00221014 -1.628 0
M  V30 1684 O 155.378 -0.242645 -1.76843 0
M  V30 1685 C 152.478 -0.557846 -3.34277 0
M  V30 1686 C 151.651 -1.66843 -4.04329 0
M  V30 1687 C 150.71 -1.18095 -5.12777 0
M  V30 1688 O 149.736 -1.87865 -5.37304 0
M  V30 1689 N 150.938 -0.0311006 -5.80492 0
M  V30 1690 H 153.703 -1.9927 -2.23856 0
M  V30 1691 H 151.264 -1.1808 -1.10764 0
M  V30 1692 H 153.256 -0.215836 -4.04124 0
M  V30 1693 H 151.826 0.298523 -3.11171 0
M  V30 1694 H 151.046 -2.18123 -3.28353 0
M  V30 1695 H 152.334 -2.41408 -4.47883 0
M  V30 1696 H 151.732 0.551486 -5.63005 0
M  V30 1697 H 150.289 0.251809 -6.51313 0
M  V30 1698 N 153.722 1.14298 -1.08507 0
M  V30 1699 C 154.632 2.23027 -0.727753 0
M  V30 1700 C 155.648 1.71952 0.26619 0
M  V30 1701 O 156.824 2.011 0.109882 0
M  V30 1702 C 153.889 3.46403 -0.143541 0
M  V30 1703 C 152.95 4.12413 -1.19223 0
M  V30 1704 C 152.183 5.29899 -0.635798 0
M  V30 1705 O 152.406 5.67796 0.544393 0
M  V30 1706 O 151.34 5.85717 -1.38634 0
M  V30 1707 H 155.166 2.55945 -1.63481 0
M  V30 1708 H 152.751 1.22248 -0.858817 0
M  V30 1709 H 154.633 4.21018 0.179404 0
M  V30 1710 H 153.308 3.15206 0.736659 0
M  V30 1711 H 152.215 3.39667 -1.56772 0
M  V30 1712 H 153.548 4.47718 -2.04474 0
M  V30 1713 N 155.201 0.870884 1.31352 0
M  V30 1714 C 156.447 0.482987 1.96965 0
M  V30 1715 C 156.78 -0.962462 1.68672 0
M  V30 1716 O 156.055 -1.6779 0.98371 0
M  V30 1717 C 156.338 0.741752 3.52378 0
M  V30 1718 C 156.191 2.2368 3.9024 0
M  V30 1719 C 157.51 0.208838 4.39604 0
M  V30 1720 H 154.629 0.176955 0.715441 0
M  V30 1721 H 157.271 1.09229 1.55464 0
M  V30 1722 H 155.421 0.223149 3.87859 0
M  V30 1723 H 157.093 2.82273 3.64856 0
M  V30 1724 H 155.336 2.70901 3.38814 0
M  V30 1725 H 156.007 2.3685 4.98604 0
M  V30 1726 H 158.483 0.652529 4.10952 0
M  V30 1727 H 157.359 0.419336 5.47296 0
M  V30 1728 H 157.62 -0.889275 4.33064 0
M  V30 1729 N 156.679 -1.44442 0.630414 0
M  V30 1730 C 157.611 -2.2892 -0.113347 0
M  V30 1731 C 158.624 -1.41243 -0.80959 0
M  V30 1732 O 159.813 -1.65402 -0.671156 0
M  V30 1733 C 156.913 -3.17594 -1.18266 0
M  V30 1734 C 156.086 -4.33682 -0.569073 0
M  V30 1735 C 155.145 -5.03397 -1.53226 0
M  V30 1736 O 154.171 -5.59438 -1.04967 0
M  V30 1737 N 155.373 -5.04783 -2.86661 0
M  V30 1738 H 158.138 -2.93392 0.611636 0
M  V30 1739 H 155.699 -1.54881 0.471523 0
M  V30 1740 H 157.691 -3.61097 -1.82732 0
M  V30 1741 H 156.261 -2.54876 -1.80988 0
M  V30 1742 H 155.481 -3.9338 0.254187 0
M  V30 1743 H 156.769 -5.08608 -0.139767 0
M  V30 1744 H 156.167 -4.60584 -3.28449 0
M  V30 1745 H 154.724 -5.52077 -3.46489 0
M  V30 1746 N 158.157 -0.370918 -1.53173 0
M  V30 1747 C 159.105 0.488101 -2.27421 0
M  V30 1748 C 160.099 1.07884 -1.30604 0
M  V30 1749 O 161.305 1.02143 -1.48212 0
M  V30 1750 H 157.68 0.176134 -0.731082 0
M  V30 1751 H 159.651 -0.159815 -2.97972 0
M  V30 1752 C 158.4 1.61306 -3.08019 0
M  V30 1753 H 157.723 1.1678 -3.82364 0
M  V30 1754 H 159.163 2.18872 -3.63141 0
M  V30 1755 C 157.622 2.55848 -2.19188 0
M  V30 1756 O 158.152 3.58799 -1.80626 0
M  V30 1757 N 156.358 2.2516 -1.83715 0
M  V30 1758 H 155.905 1.41476 -2.15273 0
M  V30 1759 H 155.863 2.8867 -1.24567 0
M  V30 1760 N 159.635 1.57281 -0.100228 0
M  V30 1761 C 161.046 1.81725 0.428107 0
M  V30 1762 C 161.397 1.01619 1.67833 0
M  V30 1763 O 160.522 0.247098 2.14985 0
M  V30 1764 C 161.117 3.29617 0.78347 0
M  V30 1765 C 159.676 3.54808 1.25653 0
M  V30 1766 C 158.823 2.76118 0.255752 0
M  V30 1767 H 161.774 1.55324 -0.325608 0
M  V30 1768 H 161.795 3.4322 1.64256 0
M  V30 1769 H 161.307 3.87893 -0.12665 0
M  V30 1770 H 159.408 3.01868 2.18418 0
M  V30 1771 H 159.521 4.63443 1.21482 0
M  V30 1772 H 157.885 2.43745 0.738956 0
M  V30 1773 H 158.668 3.37145 -0.647136 0
M  V30 1774 N 161.113 -0.173488 1.56642 0
M  V30 1775 C 162.061 -1.23417 1.97157 0
M  V30 1776 C 163.055 -1.45946 0.860013 0
M  V30 1777 O 164.261 -1.46551 1.04512 0
M  V30 1778 H 160.636 -0.414818 0.62724 0
M  V30 1779 H 162.607 -0.865582 2.8557 0
M  V30 1780 C 161.356 -2.5665 2.34576 0
M  V30 1781 H 160.679 -2.40137 3.19647 0
M  V30 1782 H 162.119 -3.2956 2.6677 0
M  V30 1783 C 160.578 -3.15245 1.18836 0
M  V30 1784 O 161.108 -3.98883 0.474869 0
M  V30 1785 N 159.314 -2.74303 0.959497 0
M  V30 1786 H 158.861 -2.0639 1.54146 0
M  V30 1787 H 158.819 -3.13844 0.186932 0
M  V30 1788 N 162.591 -1.51276 -0.441967 0
M  V30 1789 C 163.521 -1.752 -1.54361 0
M  V30 1790 C 164.502 -0.601682 -1.59103 0
M  V30 1791 O 165.687 -0.843913 -1.74905 0
M  V30 1792 C 162.817 -1.87282 -2.92477 0
M  V30 1793 C 161.771 -3.02687 -3.02596 0
M  V30 1794 C 161.097 -2.99947 -4.42647 0
M  V30 1795 C 162.397 -4.4273 -2.77106 0
M  V30 1796 H 164.091 -2.67442 -1.34592 0
M  V30 1797 H 161.637 -1.28694 -0.646048 0
M  V30 1798 H 163.59 -2.02602 -3.695 0
M  V30 1799 H 162.314 -0.916844 -3.13467 0
M  V30 1800 H 160.973 -2.87065 -2.28012 0
M  V30 1801 H 160.621 -2.02136 -4.60597 0
M  V30 1802 H 160.321 -3.77439 -4.50348 0
M  V30 1803 H 161.845 -3.17354 -5.2165 0
M  V30 1804 H 163.259 -4.58727 -3.43864 0
M  V30 1805 H 161.656 -5.21893 -2.96222 0
M  V30 1806 H 162.726 -4.53087 -1.72744 0
M  V30 1807 N 164.069 0.697108 -1.41344 0
M  V30 1808 C 165.294 1.49096 -1.44171 0
M  V30 1809 C 165.719 1.88038 -0.0481568 0
M  V30 1810 O 165.077 1.54525 0.948243 0
M  V30 1811 C 165.125 2.73088 -2.3549 0
M  V30 1812 O 164.229 3.70514 -1.81088 0
M  V30 1813 H 163.57 0.448801 -0.489361 0
M  V30 1814 H 166.1 0.856992 -1.85787 0
M  V30 1815 H 166.11 3.21413 -2.51312 0
M  V30 1816 H 164.785 2.44081 -3.36745 0
M  V30 1817 H 163.362 3.29441 -1.74708 0
M  V30 1818 N 165.547 1.27147 0.931209 0
M  V30 1819 C 166.51 1.09615 2.01289 0
M  V30 1820 C 167.51 0.0412581 1.60747 0
M  V30 1821 O 168.7 0.285545 1.71844 0
M  V30 1822 C 165.832 0.669447 3.34262 0
M  V30 1823 H 167.025 2.05662 2.18273 0
M  V30 1824 H 164.578 1.09885 1.11153 0
M  V30 1825 H 165.313 -0.292572 3.22978 0
M  V30 1826 H 165.098 1.43127 3.65044 0
M  V30 1827 H 166.588 0.568921 4.13706 0
M  V30 1828 N 167.025 -1.13721 1.09112 0
M  V30 1829 C 168.436 -1.6648 0.845068 0
M  V30 1830 C 168.787 -1.85911 -0.62701 0
M  V30 1831 O 167.912 -1.57556 -1.48341 0
M  V30 1832 C 168.507 -3.02413 1.52748 0
M  V30 1833 C 167.066 -3.52176 1.32849 0
M  V30 1834 C 166.213 -2.27492 1.58564 0
M  V30 1835 H 169.164 -0.976872 1.25072 0
M  V30 1836 H 169.185 -3.68223 0.958752 0
M  V30 1837 H 168.697 -2.88238 2.59885 0
M  V30 1838 H 166.798 -3.7156 0.278137 0
M  V30 1839 H 166.911 -4.32499 2.0611 0
M  V30 1840 H 165.275 -2.33923 1.00758 0
M  V30 1841 H 166.058 -2.15886 2.66924 0
M  V30 1842 N 168.503 -0.877838 -1.30888 0
M  V30 1843 C 169.433 -0.35534 -2.3078 0
M  V30 1844 C 170.414 0.557994 -1.60687 0
M  V30 1845 O 171.599 0.473355 -1.88343 0
M  V30 1846 C 168.729 0.437221 -3.44537 0
M  V30 1847 C 167.683 -0.383715 -4.26276 0
M  V30 1848 C 167.009 0.535014 -5.32017 0
M  V30 1849 C 168.309 -1.62201 -4.96476 0
M  V30 1850 H 170.003 -1.19007 -2.74732 0
M  V30 1851 H 167.549 -0.573698 -1.32078 0
M  V30 1852 H 169.502 0.813334 -4.13477 0
M  V30 1853 H 168.226 1.30553 -2.99372 0
M  V30 1854 H 166.885 -0.741874 -3.59015 0
M  V30 1855 H 166.533 1.40083 -4.831 0
M  V30 1856 H 166.233 -0.0104211 -5.87599 0
M  V30 1857 H 167.757 0.907799 -6.03814 0
M  V30 1858 H 169.171 -1.31689 -5.5797 0
M  V30 1859 H 167.568 -2.10711 -5.61891 0
M  V30 1860 H 168.638 -2.37044 -4.23011 0
M  V30 1861 N 169.982 1.44106 -0.638065 0
M  V30 1862 C 171.228 2.02277 -0.145546 0
M  V30 1863 C 171.561 1.50125 1.23191 0
M  V30 1864 O 170.836 0.688133 1.8192 0
M  V30 1865 C 171.119 3.59829 -0.139791 0
M  V30 1866 C 170.972 4.22247 -1.55008 0
M  V30 1867 C 172.291 4.36873 0.531966 0
M  V30 1868 H 169.41 0.734992 -0.0543632 0
M  V30 1869 H 172.052 1.71592 -0.815863 0
M  V30 1870 H 170.202 3.86102 0.431007 0
M  V30 1871 H 171.874 4.07057 -2.1703 0
M  V30 1872 H 170.117 3.79476 -2.10191 0
M  V30 1873 H 170.788 5.31284 -1.49804 0
M  V30 1874 H 173.264 4.16074 0.0464781 0
M  V30 1875 H 172.14 5.4657 0.505206 0
M  V30 1876 H 172.401 4.11995 1.60352 0
M  V30 1877 N 171.46 0.379036 1.52974 0
M  V30 1878 C 172.423 -0.448865 2.24762 0
M  V30 1879 C 173.423 -0.998689 1.26027 0
M  V30 1880 O 174.613 -0.882313 1.50203 0
M  V30 1881 C 171.745 -1.62872 2.99476 0
M  V30 1882 H 172.938 0.179491 2.99362 0
M  V30 1883 H 170.491 0.13096 1.5575 0
M  V30 1884 H 171.226 -2.29479 2.29151 0
M  V30 1885 H 171.011 -1.24128 3.71934 0
M  V30 1886 H 172.501 -2.2151 3.5401 0
M  V30 1887 N 172.938 -1.57226 0.108567 0
M  V30 1888 C 173.87 -2.11809 -0.875752 0
M  V30 1889 C 174.883 -1.05839 -1.23701 0
M  V30 1890 O 176.072 -1.33245 -1.18778 0
M  V30 1891 C 173.172 -2.59411 -2.18081 0
M  V30 1892 C 172.345 -3.89364 -1.99284 0
M  V30 1893 C 171.404 -4.22672 -3.13424 0
M  V30 1894 O 170.43 -4.91668 -2.86795 0
M  V30 1895 N 171.632 -3.79154 -4.3957 0
M  V30 1896 H 174.397 -2.9689 -0.409477 0
M  V30 1897 H 171.958 -1.61721 -0.076158 0
M  V30 1898 H 173.95 -2.7873 -2.93414 0
M  V30 1899 H 172.52 -1.79268 -2.5609 0
M  V30 1900 H 171.74 -3.79059 -1.08203 0
M  V30 1901 H 173.028 -4.74358 -1.84017 0
M  V30 1902 H 172.426 -3.23486 -4.64083 0
M  V30 1903 H 170.983 -4.03602 -5.11809 0
M  V30 1904 N 174.416 0.165178 -1.56732 0
M  V30 1905 C 175.832 0.517174 -1.50988 0
M  V30 1906 C 176.032 1.84331 -0.813894 0
M  V30 1907 O 175.088 2.49672 -0.37682 0
M  V30 1908 C 176.401 0.544261 -2.95733 0
M  V30 1909 C 177.949 0.631039 -3.06573 0
M  V30 1910 C 178.424 0.68896 -4.52788 0
M  V30 1911 N 179.915 0.751683 -4.5706 0
M  V30 1912 C 180.65 0.817177 -5.67547 0
M  V30 1913 N 180.146 0.843129 -6.8765 0
M  V30 1914 N 181.939 0.856668 -5.55534 0
M  V30 1915 H 174.09 -0.704318 -2.00382 0
M  V30 1916 H 176.353 -0.254687 -0.913148 0
M  V30 1917 H 176.059 -0.361607 -3.49836 0
M  V30 1918 H 175.933 1.3886 -3.5071 0
M  V30 1919 H 178.32 1.52733 -2.52501 0
M  V30 1920 H 178.401 -0.240095 -2.54671 0
M  V30 1921 H 178.045 -0.2031 -5.07494 0
M  V30 1922 H 177.975 1.57633 -5.02454 0
M  V30 1923 H 180.466 0.739661 -3.70591 0
M  V30 1924 H 180.779 0.894448 -7.67606 0
M  V30 1925 H 179.124 0.811304 -6.90248 0
M  V30 1926 H 182.315 0.833437 -4.60621 0
M  V30 1927 H 182.488 0.904247 -6.4166 0
M  V30 1928 N 175.894 1.51508 0.433938 0
M  V30 1929 C 177.14 1.64588 1.18484 0
M  V30 1930 C 177.473 0.362666 1.90784 0
M  V30 1931 O 176.748 -0.637892 1.83742 0
M  V30 1932 C 177.031 2.85149 2.19913 0
M  V30 1933 C 176.884 4.23456 1.51674 0
M  V30 1934 C 178.203 3.01227 3.20858 0
M  V30 1935 H 175.322 0.598994 0.429389 0
M  V30 1936 H 177.964 1.84002 0.473647 0
M  V30 1937 H 176.114 2.68729 2.80566 0
M  V30 1938 H 177.786 4.51552 0.943322 0
M  V30 1939 H 176.029 4.25998 0.819035 0
M  V30 1940 H 176.7 5.03812 2.2556 0
M  V30 1941 H 179.176 3.16382 2.70263 0
M  V30 1942 H 178.052 3.87141 3.89118 0
M  V30 1943 H 178.313 2.13447 3.8716 0
M  V30 1944 N 177.372 -0.689602 1.41712 0
M  V30 1945 C 178.335 -1.78521 1.43746 0
M  V30 1946 C 179.335 -1.57436 0.327191 0
M  V30 1947 O 180.525 -1.64 0.587348 0
M  V30 1948 C 177.657 -3.16971 1.25467 0
M  V30 1949 H 178.85 -1.78108 2.41283 0
M  V30 1950 H 176.403 -0.89781 1.27942 0
M  V30 1951 H 177.138 -3.23019 0.287948 0
M  V30 1952 H 176.923 -3.33678 2.05917 0
M  V30 1953 H 178.413 -3.96935 1.2974 0
M  V30 1954 N 178.85 -1.27639 -0.924453 0
M  V30 1955 C 179.76 -1.12466 -2.05885 0
M  V30 1956 C 180.776 -0.053869 -1.73917 0
M  V30 1957 O 181.952 -0.261012 -1.99702 0
M  V30 1958 C 179.017 -0.776768 -3.37886 0
M  V30 1959 C 178.078 -1.92878 -3.83532 0
M  V30 1960 C 177.311 -1.59739 -5.09234 0
M  V30 1961 O 177.534 -0.506782 -5.68144 0
M  V30 1962 O 176.468 -2.43761 -5.50331 0
M  V30 1963 H 180.294 -2.07671 -2.21599 0
M  V30 1964 H 177.879 -1.06857 -1.04413 0
M  V30 1965 H 179.761 -0.596229 -4.17161 0
M  V30 1966 H 178.436 0.145732 -3.23372 0
M  V30 1967 H 177.343 -2.1644 -3.0513 0
M  V30 1968 H 178.676 -2.8316 -4.02593 0
M  V30 1969 N 180.328 1.1314 -1.09713 0
M  V30 1970 C 181.26 2.18343 -0.697056 0
M  V30 1971 C 182.273 1.60669 0.262551 0
M  V30 1972 O 183.462 1.78435 0.0481527 0
M  V30 1973 C 180.562 3.38899 -0.00684728 0
M  V30 1974 C 179.735 4.26078 -0.988741 0
M  V30 1975 C 178.794 5.25155 -0.331394 0
M  V30 1976 O 177.82 5.60701 -0.979926 0
M  V30 1977 N 179.022 5.73271 0.913261 0
M  V30 1978 H 181.787 2.5328 -1.60216 0
M  V30 1979 H 179.348 1.28491 -0.984971 0
M  V30 1980 H 181.34 4.02255 0.444191 0
M  V30 1981 H 179.91 3.02175 0.800551 0
M  V30 1982 H 179.13 3.59453 -1.61826 0
M  V30 1983 H 180.418 4.81178 -1.65364 0
M  V30 1984 H 179.816 5.46544 1.45966 0
M  V30 1985 H 178.373 6.3855 1.30757 0
M  V30 1986 N 181.806 0.884767 1.30421 0
M  V30 1987 C 183.055 0.499164 1.95426 0
M  V30 1988 C 183.368 -0.95645 1.70621 0
M  V30 1989 O 184.574 -1.44889 2.29607 0
M  V30 1990 C 183.03 0.84177 3.49917 0
M  V30 1991 C 182.638 2.31514 3.83543 0
M  V30 1992 C 184.382 0.525355 4.21237 0
M  V30 1993 C 182.289 2.59939 5.31212 0
M  V30 1994 H 181.219 0.182944 0.73147 0
M  V30 1995 H 183.87 1.07971 1.48373 0
M  V30 1996 H 182.252 0.190311 3.95542 0
M  V30 1997 H 183.426 3.0109 3.48829 0
M  V30 1998 H 181.741 2.59907 3.25326 0
M  V30 1999 H 184.338 0.714762 5.29901 0
M  V30 2000 H 184.681 -0.535222 4.12845 0
M  V30 2001 H 185.214 1.134 3.81294 0
M  V30 2002 H 181.953 3.64736 5.44654 0
M  V30 2003 H 181.473 1.94972 5.67227 0
M  V30 2004 H 183.152 2.45429 5.98643 0
M  V30 2005 N 183.284 -1.43765 0.645699 0
M  V30 2006 C 184.194 -2.34544 -0.0512957 0
M  V30 2007 C 185.21 -1.53455 -0.82022 0
M  V30 2008 O 186.386 -1.86133 -0.769176 0
M  V30 2009 C 183.451 -3.31636 -1.01087 0
M  V30 2010 C 182.512 -4.2863 -0.239712 0
M  V30 2011 C 181.745 -5.21084 -1.15358 0
M  V30 2012 O 181.968 -5.1779 -2.39269 0
M  V30 2013 O 180.902 -5.98593 -0.630038 0
M  V30 2014 H 184.728 -2.95624 0.695718 0
M  V30 2015 H 182.313 -1.43781 0.405882 0
M  V30 2016 H 184.195 -3.9136 -1.56254 0
M  V30 2017 H 182.87 -2.73069 -1.73824 0
M  V30 2018 H 181.777 -3.72408 0.355356 0
M  V30 2019 H 183.11 -4.90157 0.447936 0
M  V30 2020 N 184.763 -0.387143 -1.52771 0
M  V30 2021 C 186.179 -0.037007 -1.59557 0
M  V30 2022 C 186.379 1.44801 -1.40124 0
M  V30 2023 O 185.435 2.21227 -1.21716 0
M  V30 2024 C 186.748 -0.512256 -2.96305 0
M  V30 2025 C 188.296 -0.468328 -3.09476 0
M  V30 2026 C 188.771 -0.919731 -4.4867 0
M  V30 2027 N 190.262 -0.875656 -4.54848 0
M  V30 2028 C 190.997 -1.19637 -5.6078 0
M  V30 2029 N 190.493 -1.58745 -6.74368 0
M  V30 2030 N 192.286 -1.11776 -5.50874 0
M  V30 2031 H 184.437 -1.35395 -1.63652 0
M  V30 2032 H 186.7 -0.554818 -0.768688 0
M  V30 2033 H 186.406 -1.54935 -3.15734 0
M  V30 2034 H 186.28 0.089805 -3.77093 0
M  V30 2035 H 188.667 0.559671 -2.89744 0
M  V30 2036 H 188.748 -1.10616 -2.30646 0
M  V30 2037 H 188.392 -1.94595 -4.69143 0
M  V30 2038 H 188.322 -0.258927 -5.25963 0
M  V30 2039 H 190.813 -0.587843 -3.733 0
M  V30 2040 H 191.126 -1.81586 -7.51163 0
M  V30 2041 H 189.471 -1.6263 -6.75705 0
M  V30 2042 H 192.662 -0.811264 -4.61016 0
M  V30 2043 H 192.835 -1.37103 -6.3333 0
M  V30 2044 N 186.241 1.57166 -0.116904 0
M  V30 2045 C 187.657 1.5779 0.239693 0
M  V30 2046 C 187.857 1.1295 1.66867 0
M  V30 2047 O 186.913 0.81592 2.38954 0
M  V30 2048 C 188.226 3.00699 0.00828202 0
M  V30 2049 C 189.774 3.12912 0.0743438 0
M  V30 2050 C 190.249 4.57817 -0.129348 0
M  V30 2051 N 191.74 4.63139 -0.075247 0
M  V30 2052 C 192.475 5.73023 -0.207788 0
M  V30 2053 N 191.971 6.91665 -0.396382 0
M  V30 2054 N 193.764 5.61906 -0.14751 0
M  V30 2055 H 185.915 1.84615 -1.05029 0
M  V30 2056 H 188.178 0.85311 -0.41341 0
M  V30 2057 H 187.884 3.37784 -0.979531 0
M  V30 2058 H 187.758 3.69848 0.741077 0
M  V30 2059 H 190.145 2.75686 1.05268 0
M  V30 2060 H 190.226 2.4631 -0.690297 0
M  V30 2061 H 189.87 4.95742 -1.10465 0
M  V30 2062 H 189.8 5.22507 0.655253 0
M  V30 2063 H 192.291 3.7784 0.0670898 0
M  V30 2064 H 192.604 7.71255 -0.488437 0
M  V30 2065 H 190.949 6.93654 -0.432329 0
M  V30 2066 H 194.14 4.681 -0.00115036 0
M  V30 2067 H 194.313 6.47501 -0.254247 0
M  V30 2068 N 187.719 -0.156864 1.56817 0
M  V30 2069 C 188.966 -0.871125 1.82805 0
M  V30 2070 C 189.294 -1.81611 0.696262 0
M  V30 2071 O 188.549 -1.93141 -0.315459 0
M  V30 2072 C 188.848 -1.68737 3.1506 0
M  V30 2073 C 188.514 -0.890045 4.42028 0
M  V30 2074 C 187.176 -0.670042 4.76512 0
M  V30 2075 C 189.528 -0.331769 5.20143 0
M  V30 2076 C 186.856 0.119104 5.86579 0
M  V30 2077 C 189.208 0.444365 6.31037 0
M  V30 2078 C 187.872 0.675035 6.64078 0
M  V30 2079 H 187.142 -0.318767 0.668931 0
M  V30 2080 H 189.789 -0.135274 1.91022 0
M  V30 2081 H 188.094 -2.49304 3.0225 0
M  V30 2082 H 189.791 -2.24331 3.3238 0
M  V30 2083 H 186.381 -1.07157 4.14988 0
M  V30 2084 H 190.565 -0.489043 4.93885 0
M  V30 2085 H 185.821 0.307417 6.10627 0
M  V30 2086 H 189.995 0.884139 6.90765 0
M  V30 2087 H 187.622 1.28839 7.49203 0
M  V30 2088 N 189.197 -1.51736 -0.425897 0
M  V30 2089 C 190.16 -1.73271 -1.50032 0
M  V30 2090 C 191.16 -0.602639 -1.4908 0
M  V30 2091 O 192.35 -0.87033 -1.509 0
M  V30 2092 C 189.482 -1.79969 -2.89523 0
M  V30 2093 H 190.675 -2.69172 -1.32237 0
M  V30 2094 H 188.228 -1.41899 -0.65532 0
M  V30 2095 H 188.963 -0.859241 -3.1271 0
M  V30 2096 H 188.748 -2.62109 -2.91619 0
M  V30 2097 H 190.238 -1.9843 -3.67444 0
M  V30 2098 N 190.675 0.682077 -1.42076 0
M  V30 2099 C 191.921 1.44428 -1.42367 0
M  V30 2100 C 192.254 1.94164 -0.0373056 0
M  V30 2101 O 191.529 1.70429 0.937239 0
M  V30 2102 C 191.812 2.64654 -2.44194 0
M  V30 2103 C 191.665 2.20596 -3.91991 0
M  V30 2104 C 192.984 3.66865 -2.431 0
M  V30 2105 H 190.103 0.523834 -0.518428 0
M  V30 2106 H 192.745 0.77576 -1.73442 0
M  V30 2107 H 190.895 3.2169 -2.17826 0
M  V30 2108 H 192.567 1.68783 -4.29313 0
M  V30 2109 H 190.81 1.52242 -4.06208 0
M  V30 2110 H 191.481 3.06921 -4.58807 0
M  V30 2111 H 193.957 3.19531 -2.66532 0
M  V30 2112 H 192.833 4.48577 -3.16339 0
M  V30 2113 H 193.094 4.17493 -1.45437 0
M  V30 2114 N 192.153 1.28127 0.917671 0
M  V30 2115 C 193.569 1.05749 1.19538 0
M  V30 2116 C 193.769 -0.202633 2.00479 0
M  V30 2117 O 192.825 -0.905382 2.3571 0
M  V30 2118 C 194.138 2.30273 1.93378 0
M  V30 2119 C 195.686 2.35412 2.06277 0
M  V30 2120 C 196.161 3.59692 2.83524 0
M  V30 2121 N 197.652 3.60309 2.91087 0
M  V30 2122 C 198.387 4.53147 3.51348 0
M  V30 2123 N 197.883 5.563 4.12919 0
M  V30 2124 N 199.676 4.40751 3.48849 0
M  V30 2125 H 191.827 2.09024 0.377184 0
M  V30 2126 H 194.09 0.919798 0.22951 0
M  V30 2127 H 193.796 3.22055 1.41328 0
M  V30 2128 H 193.67 2.36378 2.93947 0
M  V30 2129 H 196.057 1.4413 2.57508 0
M  V30 2130 H 196.138 2.33304 1.04895 0
M  V30 2131 H 195.782 4.51316 2.32973 0
M  V30 2132 H 195.712 3.59054 3.85211 0
M  V30 2133 H 198.203 2.85714 2.47338 0
M  V30 2134 H 198.516 6.2329 4.56869 0
M  V30 2135 H 196.861 5.60131 4.11435 0
M  V30 2136 H 200.052 3.59367 2.99955 0
M  V30 2137 H 200.225 5.13291 3.9552 0
M  V30 2138 N 193.631 -1.12557 1.10312 0
M  V30 2139 C 195.047 -1.36036 0.834649 0
M  V30 2140 C 195.247 -1.93946 -0.546539 0
M  V30 2141 O 194.303 -2.16484 -1.29966 0
M  V30 2142 C 195.616 -2.30312 1.9333 0
M  V30 2143 C 197.164 -2.43906 1.9616 0
M  V30 2144 C 197.639 -3.41496 3.05195 0
M  V30 2145 N 199.13 -3.49053 3.04494 0
M  V30 2146 C 199.865 -4.24471 3.85502 0
M  V30 2147 N 199.361 -5.02966 4.76442 0
M  V30 2148 N 201.154 -4.19864 3.73725 0
M  V30 2149 H 193.305 -0.733246 1.99342 0
M  V30 2150 H 195.568 -0.385234 0.866198 0
M  V30 2151 H 195.274 -1.94933 2.92735 0
M  V30 2152 H 195.148 -3.30421 1.81939 0
M  V30 2153 H 197.535 -2.78567 0.973886 0
M  V30 2154 H 197.616 -1.4369 2.11629 0
M  V30 2155 H 197.26 -3.07565 4.04186 0
M  V30 2156 H 197.19 -4.41539 2.86968 0
M  V30 2157 H 199.681 -2.93053 2.38596 0
M  V30 2158 H 199.994 -5.57846 5.34815 0
M  V30 2159 H 198.339 -5.02167 4.80472 0
M  V30 2160 H 201.53 -3.57623 3.02032 0
M  V30 2161 H 201.703 -4.78386 4.37093 0
M  V30 2162 N 195.109 -0.891671 -1.2995 0
M  V30 2163 C 196.072 -0.36828 -2.26222 0
M  V30 2164 C 197.072 0.493014 -1.53056 0
M  V30 2165 O 198.262 0.299213 -1.71611 0
M  V30 2166 C 195.394 0.47442 -3.37583 0
M  V30 2167 H 196.587 -1.21844 -2.74033 0
M  V30 2168 H 194.14 -0.669107 -1.41254 0
M  V30 2169 H 194.875 1.34489 -2.95099 0
M  V30 2170 H 194.66 -0.142615 -3.91841 0
M  V30 2171 H 196.15 0.83218 -4.09224 0
M  V30 2172 N 196.587 1.43421 -0.653314 0
M  V30 2173 C 197.836 2.01032 -0.164076 0
M  V30 2174 C 198.149 1.52147 1.22926 0
M  V30 2175 O 199.355 2.02031 1.81371 0
M  V30 2176 C 197.811 3.59082 -0.24252 0
M  V30 2177 C 197.419 4.1696 -1.63855 0
M  V30 2178 C 199.163 4.24079 0.18911 0
M  V30 2179 C 197.07 5.67304 -1.67092 0
M  V30 2180 H 196 0.751798 -0.0575769 0
M  V30 2181 H 198.651 1.6439 -0.815362 0
M  V30 2182 H 197.033 3.93125 0.476276 0
M  V30 2183 H 198.207 3.94416 -2.38271 0
M  V30 2184 H 196.522 3.64335 -2.01616 0
M  V30 2185 H 199.119 5.34381 0.184775 0
M  V30 2186 H 199.462 3.98005 1.22056 0
M  V30 2187 H 199.995 3.94918 -0.477938 0
M  V30 2188 H 196.734 5.98145 -2.68146 0
M  V30 2189 H 196.254 5.91904 -0.970014 0
M  V30 2190 H 197.933 6.31344 -1.4147 0
M  V30 2191 N 198.065 0.39524 1.52563 0
M  V30 2192 C 199.012 -0.437036 2.26624 0
M  V30 2193 C 199.982 -1.05281 1.28472 0
M  V30 2194 O 201.167 -1.07971 1.57311 0
M  V30 2195 C 198.307 -1.55524 3.08069 0
M  V30 2196 C 197.42 -0.961745 4.21158 0
M  V30 2197 C 196.555 -2.05149 4.89987 0
M  V30 2198 C 195.594 -1.4342 5.95061 0
M  V30 2199 N 194.731 -2.46351 6.57462 0
M  V30 2200 H 199.571 0.200976 2.97322 0
M  V30 2201 H 197.108 0.110944 1.46681 0
M  V30 2202 H 199.066 -2.21437 3.53584 0
M  V30 2203 H 197.696 -2.16348 2.3957 0
M  V30 2204 H 196.748 -0.192048 3.79915 0
M  V30 2205 H 198.06 -0.470701 4.96574 0
M  V30 2206 H 197.214 -2.78819 5.38837 0
M  V30 2207 H 195.953 -2.57615 4.14109 0
M  V30 2208 H 194.958 -0.682774 5.45544 0
M  V30 2209 H 196.183 -0.917416 6.72875 0
M  V30 2210 H 194.129 -2.97975 5.8442 0
M  V30 2211 H 194.046 -2.02019 7.28508 0
M  V30 2212 H 195.314 -3.19633 7.10954 0
M  V30 2213 N 199.544 -1.57102 0.125237 0
M  V30 2214 C 200.476 -2.12726 -0.853237 0
M  V30 2215 C 201.489 -1.07145 -1.22571 0
M  V30 2216 O 202.678 -1.34497 -1.17358 0
M  V30 2217 C 199.778 -2.61709 -2.15317 0
M  V30 2218 C 198.951 -3.91456 -1.95143 0
M  V30 2219 C 198.01 -4.25973 -3.08923 0
M  V30 2220 O 197.036 -4.94682 -2.81564 0
M  V30 2221 N 198.238 -3.83795 -4.35524 0
M  V30 2222 H 201.003 -2.97307 -0.377964 0
M  V30 2223 H 198.564 -1.61792 -0.0590011 0
M  V30 2224 H 200.556 -2.81826 -2.90441 0
M  V30 2225 H 199.126 -1.81974 -2.54174 0
M  V30 2226 H 198.346 -3.80185 -1.04177 0
M  V30 2227 H 199.634 -4.76283 -1.78976 0
M  V30 2228 H 199.032 -3.2839 -4.60626 0
M  V30 2229 H 197.589 -4.09008 -5.07499 0
M  V30 2230 N 201.022 0.148545 -1.56898 0
M  V30 2231 C 201.985 1.16736 -1.97244 0
M  V30 2232 C 202.985 1.35947 -0.858777 0
M  V30 2233 O 204.175 1.32966 -1.12542 0
M  V30 2234 C 201.307 2.52798 -2.28705 0
M  V30 2235 H 202.5 0.821279 -2.88435 0
M  V30 2236 H 200.053 0.391831 -1.51309 0
M  V30 2237 H 200.788 2.92381 -1.403 0
M  V30 2238 H 200.573 2.40216 -3.09901 0
M  V30 2239 H 202.063 3.26179 -2.60762 0
M  V30 2240 N 202.5 1.5196 0.417844 0
M  V30 2241 C 203.746 1.65836 1.16732 0
M  V30 2242 C 204.079 0.382881 1.90388 0
M  V30 2243 O 203.354 -0.618368 1.84408 0
M  V30 2244 C 203.637 2.87466 2.16876 0
M  V30 2245 C 203.49 4.25041 1.47174 0
M  V30 2246 C 204.809 3.04613 3.17646 0
M  V30 2247 H 201.928 0.603515 0.423011 0
M  V30 2248 H 204.57 1.84494 0.454105 0
M  V30 2249 H 202.72 2.71689 2.777 0
M  V30 2250 H 204.392 4.52527 0.895376 0
M  V30 2251 H 202.635 4.26843 0.773806 0
M  V30 2252 H 203.306 5.06176 2.20204 0
M  V30 2253 H 205.782 3.1923 2.66892 0
M  V30 2254 H 204.658 3.91247 3.8499 0
M  V30 2255 H 204.919 2.17541 3.84874 0
M  V30 2256 N 203.978 -0.674533 1.42435 0
M  V30 2257 C 204.91 -1.80005 1.41883 0
M  V30 2258 C 205.923 -1.59667 0.31787 0
M  V30 2259 O 207.112 -1.68781 0.580973 0
M  V30 2260 C 204.212 -3.17114 1.19549 0
M  V30 2261 C 203.385 -3.64299 2.42084 0
M  V30 2262 C 202.444 -4.80142 2.15291 0
M  V30 2263 O 201.47 -4.90673 2.88493 0
M  V30 2264 N 202.672 -5.68869 1.1562 0
M  V30 2265 H 205.437 -1.80964 2.38898 0
M  V30 2266 H 202.998 -0.857633 1.37318 0
M  V30 2267 H 204.99 -3.92267 0.995417 0
M  V30 2268 H 203.56 -3.11053 0.310569 0
M  V30 2269 H 202.78 -2.79822 2.77657 0
M  V30 2270 H 204.068 -3.92567 3.23679 0
M  V30 2271 H 203.466 -5.63012 0.550765 0
M  V30 2272 H 202.023 -6.43833 1.016 0
M  V30 2273 N 205.456 -1.28612 -0.910864 0
M  V30 2274 C 206.872 -1.06381 -1.18976 0
M  V30 2275 C 207.072 0.191998 -2.00583 0
M  V30 2276 O 206.128 0.892869 -2.36187 0
M  V30 2277 C 207.441 -2.31295 -1.92154 0
M  V30 2278 C 208.989 -2.36503 -2.05025 0
M  V30 2279 C 209.464 -3.61191 -2.81612 0
M  V30 2280 N 210.955 -3.61847 -2.89172 0
M  V30 2281 C 211.69 -4.55004 -3.4894 0
M  V30 2282 N 211.186 -5.58482 -4.09963 0
M  V30 2283 N 212.979 -4.42594 -3.46506 0
M  V30 2284 H 205.13 -2.09221 -0.366094 0
M  V30 2285 H 207.393 -0.921003 -0.224629 0
M  V30 2286 H 207.099 -3.228 -1.39618 0
M  V30 2287 H 206.973 -2.37934 -2.9269 0
M  V30 2288 H 209.36 -1.45494 -2.5674 0
M  V30 2289 H 209.441 -2.33857 -1.03657 0
M  V30 2290 H 209.085 -4.52545 -2.30576 0
M  V30 2291 H 209.015 -3.61092 -3.83302 0
M  V30 2292 H 211.506 -2.87022 -2.45819 0
M  V30 2293 H 211.819 -6.25704 -4.53557 0
M  V30 2294 H 210.164 -5.62305 -4.08459 0
M  V30 2295 H 213.355 -3.60953 -2.98045 0
M  V30 2296 H 213.528 -5.15381 -3.92793 0
M  V30 2297 N 206.934 1.1197 -1.10907 0
M  V30 2298 C 208.18 1.8386 -0.855773 0
M  V30 2299 C 208.513 1.84134 0.617103 0
M  V30 2300 O 207.788 1.29041 1.45529 0
M  V30 2301 C 208.071 3.31305 -1.411 0
M  V30 2302 C 207.924 3.39456 -2.9511 0
M  V30 2303 C 209.243 4.2721 -1.05736 0
M  V30 2304 H 206.362 0.667545 -0.312334 0
M  V30 2305 H 209.004 1.31331 -1.37303 0
M  V30 2306 H 207.154 3.76169 -0.97105 0
M  V30 2307 H 208.826 3.03191 -3.47668 0
M  V30 2308 H 207.069 2.79849 -3.31462 0
M  V30 2309 H 207.74 4.43209 -3.29044 0
M  V30 2310 H 210.216 3.90497 -1.43706 0
M  V30 2311 H 209.092 5.28775 -1.47269 0
M  V30 2312 H 209.353 4.42088 0.0325958 0
M  V30 2313 N 208.412 0.89855 1.29475 0
M  V30 2314 C 209.345 0.319981 2.25945 0
M  V30 2315 C 210.323 -0.567189 1.52387 0
M  V30 2316 O 211.507 -0.514254 1.8135 0
M  V30 2317 C 208.634 -0.544013 3.34303 0
M  V30 2318 C 207.68 0.275682 4.25608 0
M  V30 2319 S 208.513 1.67272 5.08704 0
M  V30 2320 C 209.669 0.815621 6.20563 0
M  V30 2321 H 209.902 1.13767 2.74671 0
M  V30 2322 H 207.435 0.69882 1.3768 0
M  V30 2323 H 209.393 -1.03673 3.97193 0
M  V30 2324 H 208.054 -1.33593 2.84274 0
M  V30 2325 H 207.247 -0.384263 5.02533 0
M  V30 2326 H 206.849 0.701496 3.67362 0
M  V30 2327 H 209.141 0.0385042 6.77489 0
M  V30 2328 H 210.084 1.55691 6.90772 0
M  V30 2329 H 210.492 0.370516 5.63283 0
M  V30 2330 N 209.89 -1.43072 0.660911 0
M  V30 2331 C 210.8 -2.34585 -0.0264163 0
M  V30 2332 C 211.816 -1.54316 -0.803898 0
M  V30 2333 O 212.992 -1.86939 -0.749391 0
M  V30 2334 C 210.057 -3.32689 -0.975639 0
M  V30 2335 C 209.118 -4.2886 -0.194236 0
M  V30 2336 C 208.351 -5.22278 -1.09825 0
M  V30 2337 O 208.574 -5.20299 -2.33763 0
M  V30 2338 O 207.508 -5.99228 -0.566513 0
M  V30 2339 H 211.334 -2.94869 0.727034 0
M  V30 2340 H 208.919 -1.43342 0.42111 0
M  V30 2341 H 210.801 -3.92995 -1.52094 0
M  V30 2342 H 209.476 -2.74898 -1.70918 0
M  V30 2343 H 208.383 -3.72011 0.394835 0
M  V30 2344 H 209.716 -4.89655 0.499899 0
M  V30 2345 N 211.368 -0.403325 -1.52352 0
M  V30 2346 C 212.593 0.176499 -2.06648 0
M  V30 2347 C 213.018 1.38577 -1.27193 0
M  V30 2348 O 212.376 1.7879 -0.300637 0
M  V30 2349 C 212.424 0.511061 -3.5696 0
M  V30 2350 O 211.528 1.60294 -3.79973 0
M  V30 2351 H 210.869 0.0167337 -0.663789 0
M  V30 2352 H 213.399 -0.574848 -1.96359 0
M  V30 2353 H 213.409 0.771362 -4.00642 0
M  V30 2354 H 212.084 -0.37296 -4.14224 0
M  V30 2355 H 210.661 1.33526 -3.48174 0
M  V30 2356 N 212.846 1.57033 -0.133567 0
M  V30 2357 C 214.094 1.953 0.519848 0
M  V30 2358 C 214.415 1.01866 1.66278 0
M  V30 2359 O 213.685 0.0776513 1.95746 0
M  V30 2360 H 212.265 0.721091 0.195032 0
M  V30 2361 H 214.927 1.93809 -0.205921 0
M  V30 2362 H 214.023 2.98695 0.904854 0
M  V30 2363 N 214.325 -0.140222 1.56975 0
M  V30 2364 C 215.288 -1.15689 1.97861 0
M  V30 2365 C 216.288 -1.3549 0.865974 0
M  V30 2366 O 217.478 -1.32367 1.13246 0
M  V30 2367 C 214.61 -2.51582 2.30042 0
M  V30 2368 H 215.803 -0.805971 2.88867 0
M  V30 2369 H 213.356 -0.383801 1.51515 0
M  V30 2370 H 214.091 -2.91632 1.41849 0
M  V30 2371 H 213.876 -2.38569 3.11171 0
M  V30 2372 H 215.366 -3.24792 2.62488 0
M  V30 2373 N 215.803 -1.52179 -0.40978 0
M  V30 2374 C 216.75 -1.75475 -1.49924 0
M  V30 2375 C 217.72 -0.597175 -1.54994 0
M  V30 2376 O 218.905 -0.834655 -1.71575 0
M  V30 2377 C 216.045 -1.9107 -2.87378 0
M  V30 2378 C 215.158 -3.18717 -2.91622 0
M  V30 2379 C 214.293 -3.24747 -4.20372 0
M  V30 2380 C 213.332 -4.46598 -4.18588 0
M  V30 2381 N 212.469 -4.50025 -5.38908 0
M  V30 2382 H 217.309 -2.68458 -1.29361 0
M  V30 2383 H 214.846 -1.33024 -0.627934 0
M  V30 2384 H 216.804 -1.98096 -3.6717 0
M  V30 2385 H 215.434 -1.01469 -3.06437 0
M  V30 2386 H 214.486 -3.20866 -2.04326 0
M  V30 2387 H 215.798 -4.08544 -2.86169 0
M  V30 2388 H 214.952 -3.30841 -5.08556 0
M  V30 2389 H 213.691 -2.32857 -4.28519 0
M  V30 2390 H 212.696 -4.40652 -3.28794 0
M  V30 2391 H 213.921 -5.39783 -4.12081 0
M  V30 2392 H 211.867 -3.61017 -5.47725 0
M  V30 2393 H 211.784 -5.33697 -5.35447 0
M  V30 2394 H 213.052 -4.60347 -6.29048 0
M  V30 2395 N 217.281 0.66697 -1.42791 0
M  V30 2396 C 218.529 1.42417 -1.43394 0
M  V30 2397 C 218.85 1.94925 -0.0542373 0
M  V30 2398 O 218.12 1.73564 0.908415 0
M  V30 2399 H 216.7 0.528515 -0.527902 0
M  V30 2400 H 219.362 0.787562 -1.78279 0
M  V30 2401 H 218.458 2.27333 -2.13837 0
M  V30 2402 N 218.759 1.29093 0.90403 0
M  V30 2403 C 219.722 1.1386 1.98919 0
M  V30 2404 C 220.722 0.0753457 1.60623 0
M  V30 2405 O 221.912 0.321931 1.71199 0
M  V30 2406 C 219.044 0.740198 3.32767 0
M  V30 2407 H 220.237 2.10246 2.13861 0
M  V30 2408 H 217.79 1.12218 1.08797 0
M  V30 2409 H 218.525 -0.223997 3.23525 0
M  V30 2410 H 218.31 1.50838 3.61926 0
M  V30 2411 H 219.8 0.656546 4.12407 0
M  V30 2412 N 220.237 -1.11381 1.11499 0
M  V30 2413 C 221.184 -2.17439 0.773887 0
M  V30 2414 C 222.154 -1.64132 -0.254899 0
M  V30 2415 O 223.339 -1.90345 -0.13168 0
M  V30 2416 C 220.479 -3.44373 0.223917 0
M  V30 2417 C 219.592 -4.1168 1.30934 0
M  V30 2418 C 218.727 -5.263 0.71984 0
M  V30 2419 C 217.766 -5.85493 1.78507 0
M  V30 2420 N 216.903 -6.91507 1.21502 0
M  V30 2421 H 221.743 -2.45962 1.68246 0
M  V30 2422 H 219.28 -1.20744 0.840191 0
M  V30 2423 H 221.238 -4.17047 -0.112921 0
M  V30 2424 H 219.868 -3.16232 -0.647851 0
M  V30 2425 H 218.92 -3.37073 1.76312 0
M  V30 2426 H 220.232 -4.51729 2.11524 0
M  V30 2427 H 219.386 -6.05785 0.333094 0
M  V30 2428 H 218.125 -4.87559 -0.117377 0
M  V30 2429 H 217.13 -5.04686 2.18111 0
M  V30 2430 H 218.355 -6.26301 2.62533 0
M  V30 2431 H 216.301 -6.54783 0.399455 0
M  V30 2432 H 216.218 -7.30214 1.95763 0
M  V30 2433 H 217.486 -7.74795 0.855181 0
M  V30 2434 N 221.715 -0.905404 -1.28997 0
M  V30 2435 C 222.961 -0.535039 -1.95615 0
M  V30 2436 C 223.294 0.917404 -1.71165 0
M  V30 2437 O 222.569 1.65123 -1.02785 0
M  V30 2438 C 222.852 -0.834918 -3.50287 0
M  V30 2439 C 222.705 -2.33948 -3.84172 0
M  V30 2440 C 224.024 -0.325318 -4.38896 0
M  V30 2441 H 221.143 -0.195861 -0.710498 0
M  V30 2442 H 223.785 -1.13313 -1.52513 0
M  V30 2443 H 221.935 -0.325904 -3.87131 0
M  V30 2444 H 223.607 -2.91847 -3.57243 0
M  V30 2445 H 221.85 -2.79789 -3.31513 0
M  V30 2446 H 222.521 -2.49987 -4.92149 0
M  V30 2447 H 224.997 -0.761256 -4.09077 0
M  V30 2448 H 223.873 -0.564295 -5.45992 0
M  V30 2449 H 224.134 0.774144 -4.35269 0
M  V30 2450 N 223.193 1.4272 -0.668489 0
M  V30 2451 C 224.442 2.00846 -0.185389 0
M  V30 2452 C 224.755 1.53442 1.21305 0
M  V30 2453 O 225.961 2.03944 1.79218 0
M  V30 2454 C 224.417 3.58805 -0.280591 0
M  V30 2455 C 224.025 4.15198 -1.68268 0
M  V30 2456 C 225.769 4.24255 0.14412 0
M  V30 2457 C 223.676 5.655 -1.73099 0
M  V30 2458 H 222.606 0.751145 -0.0655475 0
M  V30 2459 H 225.257 1.63516 -0.832752 0
M  V30 2460 H 223.639 3.93608 0.434553 0
M  V30 2461 H 224.813 3.91866 -2.42441 0
M  V30 2462 H 223.128 3.62176 -2.05469 0
M  V30 2463 H 225.725 5.34547 0.128086 0
M  V30 2464 H 226.068 3.99277 1.17827 0
M  V30 2465 H 226.601 3.94389 -0.519798 0
M  V30 2466 H 223.34 5.95268 -2.74475 0
M  V30 2467 H 222.86 5.90842 -1.03274 0
M  V30 2468 H 224.539 6.29808 -1.48158 0
M  V30 2469 N 224.671 0.411399 1.52136 0
M  V30 2470 C 225.917 -0.163888 2.02137 0
M  V30 2471 C 226.25 -1.44597 1.29636 0
M  V30 2472 O 225.525 -1.90272 0.403353 0
M  V30 2473 C 225.808 -0.40927 3.57767 0
M  V30 2474 C 225.661 0.889643 4.40914 0
M  V30 2475 C 226.98 -1.19042 4.23694 0
M  V30 2476 H 224.099 -0.0580896 0.734707 0
M  V30 2477 H 226.741 0.54531 1.82007 0
M  V30 2478 H 224.891 -1.0134 3.7505 0
M  V30 2479 H 226.563 1.52575 4.35337 0
M  V30 2480 H 224.806 1.50011 4.07037 0
M  V30 2481 H 225.477 0.672314 5.4789 0
M  V30 2482 H 227.953 -0.678942 4.10524 0
M  V30 2483 H 226.829 -1.33086 5.32522 0
M  V30 2484 H 227.09 -2.21166 3.82803 0
M  V30 2485 N 226.149 -1.5696 0.141893 0
M  V30 2486 C 227.374 -2.00754 -0.520838 0
M  V30 2487 C 227.799 -1.0213 -1.57959 0
M  V30 2488 O 227.157 0.00371324 -1.813 0
M  V30 2489 C 227.205 -3.43318 -1.10294 0
M  V30 2490 O 226.309 -3.47679 -2.21795 0
M  V30 2491 H 225.65 -0.651564 -0.127908 0
M  V30 2492 H 228.18 -2.03221 0.23712 0
M  V30 2493 H 228.19 -3.82012 -1.43287 0
M  V30 2494 H 226.865 -4.14608 -0.327574 0
M  V30 2495 H 225.442 -3.20824 -1.9007 0
M  V30 2496 N 227.627 0.131896 -1.57047 0
M  V30 2497 C 228.875 0.840269 -1.83804 0
M  V30 2498 C 229.196 1.81017 -0.72512 0
M  V30 2499 O 228.466 1.94272 0.251995 0
M  V30 2500 H 227.046 0.313294 -0.678127 0
M  V30 2501 H 229.708 0.122294 -1.94516 0
M  V30 2502 H 228.804 1.39335 -2.79271 0
M  V30 2503 N 229.106 1.52395 0.401703 0
M  V30 2504 C 230.522 1.41363 0.740864 0
M  V30 2505 C 230.722 0.523982 1.94568 0
M  V30 2506 O 229.778 -0.00741204 2.52499 0
M  V30 2507 C 231.091 2.84011 0.987847 0
M  V30 2508 C 232.639 2.93404 1.09011 0
M  V30 2509 C 233.114 4.37036 1.3698 0
M  V30 2510 N 234.605 4.40304 1.43829 0
M  V30 2511 C 235.34 5.48508 1.67112 0
M  V30 2512 N 234.836 6.66819 1.87949 0
M  V30 2513 N 236.629 5.36034 1.69187 0
M  V30 2514 H 228.78 2.08765 -0.391262 0
M  V30 2515 H 231.043 0.941265 -0.112798 0
M  V30 2516 H 230.749 3.51265 0.174835 0
M  V30 2517 H 230.623 3.25502 1.906 0
M  V30 2518 H 233.01 2.26325 1.8937 0
M  V30 2519 H 233.091 2.55359 0.15015 0
M  V30 2520 H 232.735 5.04676 0.571353 0
M  V30 2521 H 232.665 4.72623 2.3224 0
M  V30 2522 H 235.156 3.55024 1.29486 0
M  V30 2523 H 235.469 7.45063 2.05185 0
M  V30 2524 H 233.814 6.6987 1.85199 0
M  V30 2525 H 237.005 4.42579 1.52451 0
M  V30 2526 H 237.178 6.20434 1.86993 0
M  V30 2527 N 230.584 -0.659388 1.43143 0
M  V30 2528 C 231.833 -1.41518 1.43721 0
M  V30 2529 C 232.146 -1.95499 0.0628176 0
M  V30 2530 O 233.352 -2.71446 -0.0539683 0
M  V30 2531 C 231.808 -2.5608 2.52885 0
M  V30 2532 C 231.416 -2.08733 3.96402 0
M  V30 2533 C 233.16 -3.3349 2.62649 0
M  V30 2534 C 231.067 -3.20469 4.97045 0
M  V30 2535 H 229.997 -0.531705 0.534608 0
M  V30 2536 H 232.648 -0.712343 1.69109 0
M  V30 2537 H 231.03 -3.28805 2.20688 0
M  V30 2538 H 232.204 -1.43059 4.3803 0
M  V30 2539 H 230.519 -1.44219 3.90627 0
M  V30 2540 H 233.116 -4.16734 3.35017 0
M  V30 2541 H 233.459 -3.8111 1.67513 0
M  V30 2542 H 233.992 -2.67842 2.94118 0
M  V30 2543 H 230.731 -2.77824 5.93712 0
M  V30 2544 H 230.251 -3.84874 4.60034 0
M  V30 2545 H 231.93 -3.85698 5.19467 0
M  V30 2546 N 232.062 -1.29571 -0.897171 0
M  V30 2547 C 233.31 -1.17456 -1.64464 0
M  V30 2548 C 233.631 0.273698 -1.9307 0
M  V30 2549 O 232.901 1.18684 -1.55855 0
M  V30 2550 H 231.481 -0.431706 -0.609622 0
M  V30 2551 H 234.143 -1.62531 -1.07562 0
M  V30 2552 H 233.239 -1.72648 -2.59998 0
M  V30 2553 N 233.54 1.10788 -1.12088 0
M  V30 2554 C 234.788 1.8231 -0.872205 0
M  V30 2555 C 235.109 1.85419 0.603709 0
M  V30 2556 O 234.379 1.32963 1.43867 0
M  V30 2557 H 232.959 0.675137 -0.319686 0
M  V30 2558 H 235.621 1.34068 -1.41463 0
M  V30 2559 H 234.717 2.85955 -1.25045 0
M  V30 2560 N 235.018 0.912232 1.28515 0
M  V30 2561 C 235.981 0.404223 2.25607 0
M  V30 2562 C 236.981 -0.468602 1.53821 0
M  V30 2563 O 238.171 -0.271873 1.72065 0
M  V30 2564 C 235.303 -0.420653 3.38295 0
M  V30 2565 H 236.496 1.26188 2.7206 0
M  V30 2566 H 234.049 0.691495 1.40171 0
M  V30 2567 H 234.784 -1.29777 2.97201 0
M  V30 2568 H 234.569 0.204935 3.91564 0
M  V30 2569 H 236.059 -0.766971 4.10496 0
M  V30 2570 N 236.496 -1.42363 0.676048 0
M  V30 2571 C 237.406 -2.346 -0.00153389 0
M  V30 2572 C 238.422 -1.5516 -0.787485 0
M  V30 2573 O 239.598 -1.87723 -0.729521 0
M  V30 2574 C 236.663 -3.33705 -0.940298 0
M  V30 2575 C 235.724 -4.29042 -0.148739 0
M  V30 2576 C 234.957 -5.23413 -1.04279 0
M  V30 2577 O 235.18 -5.22749 -2.28232 0
M  V30 2578 O 234.114 -5.99795 -0.502925 0
M  V30 2579 H 237.94 -2.94082 0.758268 0
M  V30 2580 H 235.525 -1.42888 0.436289 0
M  V30 2581 H 237.407 -3.94586 -1.47917 0
M  V30 2582 H 236.082 -2.76695 -1.67993 0
M  V30 2583 H 234.989 -3.71571 0.43427 0
M  V30 2584 H 236.322 -4.89097 0.551805 0
M  V30 2585 N 237.974 -0.419461 -1.51915 0
M  V30 2586 C 238.906 0.43646 -2.25006 0
M  V30 2587 C 239.919 1.00149 -1.28351 0
M  V30 2588 O 241.108 0.898674 -1.54227 0
M  V30 2589 C 238.208 1.6206 -2.9764 0
M  V30 2590 C 237.381 1.17763 -4.21249 0
M  V30 2591 C 236.44 2.22985 -4.76617 0
M  V30 2592 O 235.466 1.83151 -5.38929 0
M  V30 2593 N 236.668 3.55271 -4.59089 0
M  V30 2594 H 239.433 -0.18989 -2.99098 0
M  V30 2595 H 236.994 -0.247386 -1.59999 0
M  V30 2596 H 238.986 2.32038 -3.31573 0
M  V30 2597 H 237.556 2.15266 -2.2667 0
M  V30 2598 H 236.776 0.305582 -3.93014 0
M  V30 2599 H 238.064 0.858781 -5.015 0
M  V30 2600 H 237.462 3.90377 -4.09417 0
M  V30 2601 H 236.019 4.21195 -4.97432 0
M  V30 2602 N 239.452 1.56882 -0.150215 0
M  V30 2603 C 240.415 2.1573 0.774157 0
M  V30 2604 C 241.415 1.0999 1.17298 0
M  V30 2605 O 242.605 1.35613 1.09338 0
M  V30 2606 C 239.737 2.72302 2.05096 0
M  V30 2607 H 240.93 2.98752 0.262201 0
M  V30 2608 H 238.483 1.55985 0.099248 0
M  V30 2609 H 239.218 1.92956 2.6065 0
M  V30 2610 H 239.003 3.49665 1.77416 0
M  V30 2611 H 240.493 3.17632 2.71109 0
M  V30 2612 N 240.93 -0.123565 1.57115 0
M  V30 2613 C 242.346 -0.476961 1.52306 0
M  V30 2614 C 242.546 -1.82109 0.86248 0
M  V30 2615 O 241.602 -2.48586 0.442884 0
M  V30 2616 C 242.915 -0.465661 2.97073 0
M  V30 2617 C 244.463 -0.549534 3.08138 0
M  V30 2618 C 244.938 -0.568669 4.54456 0
M  V30 2619 N 246.429 -0.630237 4.58892 0
M  V30 2620 C 247.164 -0.666415 5.69514 0
M  V30 2621 N 246.66 -0.660514 6.89644 0
M  V30 2622 N 248.453 -0.709077 5.5761 0
M  V30 2623 H 240.604 0.757198 1.98445 0
M  V30 2624 H 242.867 0.278808 0.906074 0
M  V30 2625 H 242.573 0.454232 3.48754 0
M  V30 2626 H 242.447 -1.29513 3.54269 0
M  V30 2627 H 244.834 -1.45985 2.56461 0
M  V30 2628 H 244.915 0.307532 2.53945 0
M  V30 2629 H 244.559 0.337581 5.06777 0
M  V30 2630 H 244.489 -1.44256 5.06456 0
M  V30 2631 H 246.98 -0.641146 3.72421 0
M  V30 2632 H 247.293 -0.690616 7.69708 0
M  V30 2633 H 245.638 -0.628012 6.92157 0
M  V30 2634 H 248.829 -0.711019 4.62668 0
M  V30 2635 H 249.002 -0.733804 6.43832 0
M  V30 2636 N 242.408 -1.52605 -0.393616 0
M  V30 2637 C 243.636 -1.71294 -1.16043 0
M  V30 2638 C 244.051 -0.429259 -1.83855 0
M  V30 2639 O 243.408 0.595921 -1.72496 0
M  V30 2640 C 243.459 -2.8593 -2.21193 0
M  V30 2641 O 243.18 -4.09329 -1.56146 0
M  V30 2642 C 244.681 -3.16259 -3.10636 0
M  V30 2643 H 241.901 -0.573641 -0.348104 0
M  V30 2644 H 244.445 -1.99234 -0.461092 0
M  V30 2645 H 242.6 -2.60465 -2.86769 0
M  V30 2646 H 243.014 -4.73323 -2.25978 0
M  V30 2647 H 244.488 -3.99946 -3.80456 0
M  V30 2648 H 244.965 -2.3045 -3.73884 0
M  V30 2649 H 245.571 -3.43547 -2.50711 0
M  V30 2650 N 243.887 0.651787 -1.4349 0
M  V30 2651 C 244.797 1.79368 -1.5121 0
M  V30 2652 C 245.813 1.69361 -0.399093 0
M  V30 2653 O 246.989 1.90505 -0.653431 0
M  V30 2654 C 244.054 3.15653 -1.43401 0
M  V30 2655 C 243.115 3.37446 -2.65384 0
M  V30 2656 C 242.348 4.67229 -2.57939 0
M  V30 2657 O 242.571 5.46676 -1.62792 0
M  V30 2658 O 241.505 4.90773 -3.48462 0
M  V30 2659 H 245.331 1.7581 -2.47638 0
M  V30 2660 H 242.916 0.810447 -1.25507 0
M  V30 2661 H 244.798 3.96935 -1.41494 0
M  V30 2662 H 243.473 3.19798 -0.501085 0
M  V30 2663 H 242.38 2.55923 -2.72863 0
M  V30 2664 H 243.713 3.38148 -3.57654 0
M  V30 2665 N 245.365 1.30045 0.890287 0
M  V30 2666 C 246.611 1.19747 1.64415 0
M  V30 2667 C 246.966 -0.246591 1.90813 0
M  V30 2668 O 246.259 -1.174 1.51419 0
M  V30 2669 C 246.453 1.95409 2.99249 0
M  V30 2670 C 246.282 3.47025 2.86013 0
M  V30 2671 C 245.052 4.1638 2.86279 0
M  V30 2672 C 247.25 4.42353 2.62351 0
M  V30 2673 N 245.232 5.54293 2.63879 0
M  V30 2674 C 246.603 5.67792 2.49022 0
M  V30 2675 C 248.658 4.32009 2.47533 0
M  V30 2676 C 247.361 6.8406 2.22383 0
M  V30 2677 C 249.387 5.48038 2.22279 0
M  V30 2678 C 248.749 6.72455 2.09722 0
M  V30 2679 H 244.848 0.493223 0.60684 0
M  V30 2680 H 247.432 1.6399 1.04954 0
M  V30 2681 H 245.603 1.53565 3.56752 0
M  V30 2682 H 247.335 1.77298 3.63796 0
M  V30 2683 H 244.09 3.68164 2.97913 0
M  V30 2684 H 244.514 6.26852 2.55706 0
M  V30 2685 H 249.156 3.36503 2.55979 0
M  V30 2686 H 246.874 7.79612 2.12675 0
M  V30 2687 H 250.46 5.41939 2.11643 0
M  V30 2688 H 249.34 7.60722 1.90453 0
M  V30 2689 N 246.843 -1.10192 1.12674 0
M  V30 2690 C 247.806 -2.14786 0.799979 0
M  V30 2691 C 248.806 -1.59711 -0.18685 0
M  V30 2692 O 249.996 -1.74156 0.0392558 0
M  V30 2693 C 247.128 -3.40374 0.189228 0
M  V30 2694 H 248.321 -2.45203 1.72671 0
M  V30 2695 H 245.874 -1.25597 0.930326 0
M  V30 2696 H 246.609 -3.15577 -0.747107 0
M  V30 2697 H 246.394 -3.81637 0.899766 0
M  V30 2698 H 247.884 -4.17594 -0.0228143 0
M  V30 2699 N 248.321 -0.919034 -1.28029 0
M  V30 2700 C 249.284 -0.416182 -2.2539 0
M  V30 2701 C 250.284 0.460438 -1.54067 0
M  V30 2702 O 251.474 0.262744 -1.72207 0
M  V30 2703 C 248.606 0.402707 -3.38513 0
M  V30 2704 H 249.799 -1.27629 -2.71387 0
M  V30 2705 H 247.352 -0.698919 -1.39803 0
M  V30 2706 H 248.087 1.282 -2.97885 0
M  V30 2707 H 247.872 -0.225698 -3.9145 0
M  V30 2708 H 249.362 0.745191 -4.10897 0
M  V30 2709 N 249.799 1.42003 -0.683588 0
M  V30 2710 C 250.731 2.29183 0.0283068 0
M  V30 2711 C 251.744 1.4415 0.756611 0
M  V30 2712 O 252.933 1.67779 0.609306 0
M  V30 2713 C 250.033 3.21765 1.06398 0
M  V30 2714 C 249.206 4.35496 0.407723 0
M  V30 2715 C 248.265 5.08737 1.34437 0
M  V30 2716 O 247.291 5.62948 0.841318 0
M  V30 2717 N 248.493 5.15075 2.67728 0
M  V30 2718 H 251.258 2.9092 -0.720105 0
M  V30 2719 H 248.819 1.53025 -0.528682 0
M  V30 2720 H 250.811 3.6763 1.69204 0
M  V30 2721 H 249.381 2.61418 1.71404 0
M  V30 2722 H 248.601 3.92165 -0.400012 0
M  V30 2723 H 249.889 5.08776 -0.0490956 0
M  V30 2724 H 249.287 4.72457 3.11129 0
M  V30 2725 H 247.844 5.64556 3.2576 0
M  V30 2726 N 251.277 0.427512 1.51691 0
M  V30 2727 C 252.525 -0.141948 2.01601 0
M  V30 2728 C 252.846 -1.44067 1.31414 0
M  V30 2729 O 252.116 -1.90763 0.445658 0
M  V30 2730 H 250.696 -0.0554468 0.744939 0
M  V30 2731 H 253.358 0.567968 1.86441 0
M  V30 2732 H 252.454 -0.324913 3.10404 0
M  V30 2733 N 252.755 -1.56801 0.158532 0
M  V30 2734 C 254.171 -1.5837 -0.197774 0
M  V30 2735 C 254.371 -1.17334 -1.63814 0
M  V30 2736 O 253.427 -0.878988 -2.36707 0
M  V30 2737 C 254.74 -3.00615 0.0714459 0
M  V30 2738 C 256.288 -3.12999 0.00864533 0
M  V30 2739 C 256.763 -4.57313 0.250685 0
M  V30 2740 N 258.254 -4.62777 0.198014 0
M  V30 2741 C 258.989 -5.72271 0.359642 0
M  V30 2742 N 258.485 -6.90371 0.579625 0
M  V30 2743 N 260.278 -5.61318 0.296438 0
M  V30 2744 H 252.429 -1.81765 1.09887 0
M  V30 2745 H 254.692 -0.841849 0.435884 0
M  V30 2746 H 254.398 -3.35068 1.06874 0
M  V30 2747 H 254.272 -3.71683 -0.642757 0
M  V30 2748 H 256.659 -2.7838 -0.979217 0
M  V30 2749 H 256.74 -2.44393 0.755359 0
M  V30 2750 H 256.384 -4.92639 1.2357 0
M  V30 2751 H 256.314 -5.24061 -0.516489 0
M  V30 2752 H 258.805 -3.77885 0.0331115 0
M  V30 2753 H 259.118 -7.69689 0.69275 0
M  V30 2754 H 257.463 -6.92264 0.616087 0
M  V30 2755 H 260.654 -4.67932 0.125258 0
M  V30 2756 H 260.827 -6.46599 0.425831 0
M  V30 2757 N 254.233 0.115231 -1.57178 0
M  V30 2758 C 255.479 0.82357 -1.85325 0
M  V30 2759 C 255.812 1.79349 -0.744814 0
M  V30 2760 O 255.087 1.92899 0.249024 0
M  V30 2761 C 255.37 1.57014 -3.24066 0
M  V30 2762 C 255.223 0.619565 -4.45513 0
M  V30 2763 C 256.542 2.52545 -3.60429 0
M  V30 2764 H 253.661 0.297948 -0.674089 0
M  V30 2765 H 256.303 0.0877138 -1.89797 0
M  V30 2766 H 254.453 2.19742 -3.20383 0
M  V30 2767 H 256.125 0.000837639 -4.613 0
M  V30 2768 H 254.368 -0.0686174 -4.33746 0
M  V30 2769 H 255.039 1.17866 -5.3927 0
M  V30 2770 H 257.515 1.9992 -3.64926 0
M  V30 2771 H 256.391 3.01811 -4.58477 0
M  V30 2772 H 256.652 3.35383 -2.88047 0
M  V30 2773 N 255.711 1.52812 0.385517 0
M  V30 2774 C 257.122 1.5993 0.963293 0
M  V30 2775 C 257.473 0.454302 1.90868 0
M  V30 2776 O 256.598 -0.422132 2.12243 0
M  V30 2777 C 257.193 2.89871 1.75387 0
M  V30 2778 C 255.752 2.99389 2.28129 0
M  V30 2779 C 254.899 2.55071 1.08783 0
M  V30 2780 H 257.85 1.5784 0.164948 0
M  V30 2781 H 257.871 2.76553 2.61341 0
M  V30 2782 H 257.383 3.73186 1.06554 0
M  V30 2783 H 255.484 2.20619 3.00263 0
M  V30 2784 H 255.597 4.04096 2.57377 0
M  V30 2785 H 253.961 2.09473 1.4489 0
M  V30 2786 H 254.744 3.40785 0.414807 0
M  V30 2787 N 257.189 -0.644168 1.43834 0
M  V30 2788 C 258.119 -1.76814 1.52509 0
M  V30 2789 C 259.1 -1.65823 0.379052 0
M  V30 2790 O 260.285 -1.84781 0.597466 0
M  V30 2791 C 257.415 -3.15288 1.4564 0
M  V30 2792 C 256.369 -3.41053 2.58586 0
M  V30 2793 C 255.695 -4.79421 2.36769 0
M  V30 2794 C 256.995 -3.34902 4.00797 0
M  V30 2795 H 258.689 -1.69812 2.46586 0
M  V30 2796 H 256.235 -0.815542 1.1868 0
M  V30 2797 H 258.188 -3.93681 1.50311 0
M  V30 2798 H 256.912 -3.23043 0.480725 0
M  V30 2799 H 255.571 -2.65035 2.53282 0
M  V30 2800 H 255.219 -4.83863 1.37424 0
M  V30 2801 H 254.919 -4.9762 3.12487 0
M  V30 2802 H 256.443 -5.6006 2.43238 0
M  V30 2803 H 257.857 -4.03218 4.07539 0
M  V30 2804 H 256.254 -3.64637 4.76613 0
M  V30 2805 H 257.324 -2.32928 4.25291 0
M  V30 2806 N 258.668 -1.30515 -0.883378 0
M  V30 2807 C 259.618 -1.13641 -1.9766 0
M  V30 2808 C 260.602 -0.0511314 -1.60819 0
M  V30 2809 O 261.794 -0.274623 -1.74857 0
M  V30 2810 C 258.923 -0.831976 -3.33066 0
M  V30 2811 C 258.009 -1.95759 -3.76217 0
M  V30 2812 N 258.4 -3.20313 -3.9145 0
M  V30 2813 C 256.698 -1.85431 -4.05625 0
M  V30 2814 C 257.399 -3.93856 -4.2808 0
M  V30 2815 N 256.375 -3.21919 -4.38029 0
M  V30 2816 H 260.177 -2.08106 -2.07531 0
M  V30 2817 H 257.691 -1.21877 -1.0733 0
M  V30 2818 H 259.688 -0.692102 -4.11115 0
M  V30 2819 H 258.348 0.104588 -3.24532 0
M  V30 2820 H 259.359 -3.55583 -3.76538 0
M  V30 2821 H 256.036 -0.991531 -4.05555 0
M  V30 2822 H 257.426 -5.01125 -4.47575 0
M  V30 2823 N 260.146 1.09593 -1.13257 0
M  V30 2824 C 261.374 1.855 -0.916378 0
M  V30 2825 C 261.789 1.81069 0.534738 0
M  V30 2826 O 261.146 1.20562 1.37007 0
M  V30 2827 C 261.197 3.33546 -1.39388 0
M  V30 2828 O 260.918 3.37927 -2.78813 0
M  V30 2829 C 262.419 4.26299 -1.21588 0
M  V30 2830 H 259.639 0.585991 -0.326887 0
M  V30 2831 H 262.183 1.38488 -1.5047 0
M  V30 2832 H 260.338 3.77992 -0.848597 0
M  V30 2833 H 260.752 4.30254 -2.9997 0
M  V30 2834 H 262.226 5.28341 -1.59876 0
M  V30 2835 H 262.703 4.38918 -0.157376 0
M  V30 2836 H 263.309 3.87668 -1.7491 0
M  V30 2837 N 261.624 0.925811 1.2754 0
M  V30 2838 C 262.554 0.440748 2.29303 0
M  V30 2839 C 263.535 -0.497971 1.62648 0
M  V30 2840 O 264.72 -0.403126 1.8997 0
M  V30 2841 C 261.85 -0.309048 3.45922 0
M  V30 2842 C 260.804 0.54166 4.24559 0
M  V30 2843 C 260.13 -0.337191 5.33636 0
M  V30 2844 C 261.43 1.80516 4.90114 0
M  V30 2845 H 263.124 1.29121 2.70126 0
M  V30 2846 H 260.67 0.622323 1.29858 0
M  V30 2847 H 262.623 -0.659315 4.1621 0
M  V30 2848 H 261.347 -1.19352 3.04011 0
M  V30 2849 H 260.006 0.874609 3.56014 0
M  V30 2850 H 259.654 -1.22056 4.87966 0
M  V30 2851 H 259.354 0.228497 5.87156 0
M  V30 2852 H 260.878 -0.683072 6.06767 0
M  V30 2853 H 262.292 1.52307 5.52698 0
M  V30 2854 H 260.689 2.3142 5.53683 0
M  V30 2855 H 261.759 2.52581 4.13921 0
M  V30 2856 N 263.102 -1.41638 0.69111 0
M  V30 2857 C 264.518 -1.55435 0.362224 0
M  V30 2858 C 264.718 -1.66754 -1.13117 0
M  V30 2859 O 263.774 -1.64348 -1.91692 0
M  V30 2860 C 265.087 -2.79588 1.10684 0
M  V30 2861 C 266.635 -2.9338 1.09075 0
M  V30 2862 C 267.11 -4.20414 1.81703 0
M  V30 2863 N 268.601 -4.27362 1.7865 0
M  V30 2864 C 269.336 -5.24507 2.31689 0
M  V30 2865 N 268.832 -6.27708 2.93179 0
M  V30 2866 N 270.625 -5.16416 2.2197 0
M  V30 2867 H 262.776 -1.32536 1.65976 0
M  V30 2868 H 265.039 -0.639115 0.700168 0
M  V30 2869 H 264.745 -2.77419 2.16175 0
M  V30 2870 H 264.619 -3.70973 0.682545 0
M  V30 2871 H 267.006 -2.95067 0.0441238 0
M  V30 2872 H 267.087 -2.0318 1.55407 0
M  V30 2873 H 266.731 -4.19488 2.86343 0
M  V30 2874 H 266.661 -5.09578 1.32808 0
M  V30 2875 H 269.152 -3.53415 1.33815 0
M  V30 2876 H 269.465 -6.98217 3.31229 0
M  V30 2877 H 267.81 -6.28223 2.97255 0
M  V30 2878 H 271.001 -4.34716 1.73607 0
M  V30 2879 H 271.174 -5.91958 2.63609 0
M  V30 2880 N 264.58 -0.43555 -1.51462 0
M  V30 2881 C 265.543 0.365137 -2.26273 0
M  V30 2882 C 266.543 0.951227 -1.29647 0
M  V30 2883 O 267.733 0.825958 -1.53374 0
M  V30 2884 C 264.865 1.51645 -3.05314 0
M  V30 2885 H 266.058 -0.290474 -2.9849 0
M  V30 2886 H 263.611 -0.188676 -1.55157 0
M  V30 2887 H 264.346 2.20816 -2.3751 0
M  V30 2888 H 264.131 1.10238 -3.76284 0
M  V30 2889 H 265.621 2.08218 -3.61987 0
M  V30 2890 N 266.058 1.56714 -0.166846 0
M  V30 2891 C 267.006 2.19056 0.782123 0
M  V30 2892 C 268 1.15328 1.24079 0
M  V30 2893 O 269.206 1.33537 1.20697 0
M  V30 2894 H 265.581 0.70167 0.270486 0
M  V30 2895 H 267.552 2.97494 0.232322 0
M  V30 2896 C 266.301 2.84206 2.00306 0
M  V30 2897 H 265.624 3.63748 1.65914 0
M  V30 2898 H 267.064 3.31302 2.64604 0
M  V30 2899 C 265.523 1.83744 2.82382 0
M  V30 2900 O 266.053 1.32014 3.79388 0
M  V30 2901 N 264.259 1.52601 2.47308 0
M  V30 2902 H 263.806 1.9486 1.68485 0
M  V30 2903 H 263.764 0.856351 3.02513 0
M  V30 2904 N 267.536 -0.106894 1.57237 0
M  V30 2905 C 268.785 -0.811163 1.8467 0
M  V30 2906 C 269.098 -1.80469 0.754342 0
M  V30 2907 O 270.304 -2.55601 0.915439 0
M  V30 2908 C 268.76 -1.49337 3.27454 0
M  V30 2909 C 268.368 -0.540217 4.44731 0
M  V30 2910 C 270.112 -2.18206 3.64124 0
M  V30 2911 C 268.019 -1.22634 5.78545 0
M  V30 2912 H 266.949 -0.306679 0.688813 0
M  V30 2913 H 269.6 -0.0639887 1.83388 0
M  V30 2914 H 267.982 -2.2876 3.23241 0
M  V30 2915 H 269.156 0.221659 4.60267 0
M  V30 2916 H 267.471 0.042146 4.16379 0
M  V30 2917 H 270.068 -2.70253 4.61376 0
M  V30 2918 H 270.411 -2.96562 2.92158 0
M  V30 2919 H 270.944 -1.45658 3.70174 0
M  V30 2920 H 267.683 -0.483832 6.53712 0
M  V30 2921 H 267.203 -1.95993 5.66874 0
M  V30 2922 H 268.882 -1.75615 6.2271 0
M  V30 2923 N 269.014 -1.53014 -0.377408 0
M  V30 2924 C 270.291 -1.59215 -1.13622 0
M  V30 2925 C 270.671 -0.392407 -2.07421 0
M  V30 2926 O 270.019 0.618342 -2.19975 0
M  V30 2927 C 270.229 -2.93669 -1.88573 0
M  V30 2928 C 271.577 -3.47822 -2.43526 0
M  V30 2929 O 272.601 -2.9562 -1.98715 0
M  V30 2930 O 271.46 -4.39055 -3.25412 0
M  V30 2931 H 268.554 -0.642625 -0.52054 0
M  V30 2932 H 271.1 -1.65353 -0.381625 0
M  V30 2933 H 269.872 -3.7243 -1.20048 0
M  V30 2934 H 269.495 -2.90968 -2.70968 0
M  V30 2935 N 270.492 0.636531 -1.44174 0
M  V30 2936 C 271.722 1.42146 -1.49927 0
M  V30 2937 C 272.13 1.88812 -0.121063 0
M  V30 2938 O 271.473 1.61126 0.882267 0
M  V30 2939 C 271.535 2.67883 -2.39748 0
M  V30 2940 C 271.199 2.43048 -3.8701 0
M  V30 2941 C 272.196 2.05216 -4.77684 0
M  V30 2942 C 269.881 2.56856 -4.3166 0
M  V30 2943 C 271.875 1.81512 -6.11009 0
M  V30 2944 C 269.562 2.32766 -5.65034 0
M  V30 2945 C 270.56 1.95152 -6.54526 0
M  V30 2946 O 270.248 1.71326 -7.85431 0
M  V30 2947 H 269.98 0.442567 -0.51099 0
M  V30 2948 H 272.534 0.786158 -1.8976 0
M  V30 2949 H 270.764 3.34032 -1.94832 0
M  V30 2950 H 272.453 3.29874 -2.36513 0
M  V30 2951 H 273.219 1.94111 -4.44462 0
M  V30 2952 H 269.098 2.85104 -3.62266 0
M  V30 2953 H 272.642 1.52077 -6.80822 0
M  V30 2954 H 268.539 2.43479 -5.97819 0
M  V30 2955 H 269.307 1.85616 -7.97176 0
M  V30 2956 N 271.97 1.30982 0.876444 0
M  V30 2957 C 273.218 1.20058 1.62575 0
M  V30 2958 C 273.539 -0.242947 1.93481 0
M  V30 2959 O 272.809 -1.1619 1.57724 0
M  V30 2960 H 271.389 0.44135 0.602677 0
M  V30 2961 H 274.051 1.64222 1.04962 0
M  V30 2962 H 273.147 1.76762 2.57219 0
M  V30 2963 N 273.449 -1.08991 1.13837 0
M  V30 2964 C 274.696 -1.81258 0.902882 0
M  V30 2965 C 275.024 -1.85936 -0.570803 0
M  V30 2966 O 274.279 -1.3267 -1.43865 0
M  V30 2967 C 274.578 -3.27042 1.44147 0
M  V30 2968 C 274.244 -3.4249 2.93276 0
M  V30 2969 C 272.906 -3.46414 3.33992 0
M  V30 2970 C 275.258 -3.4666 3.892 0
M  V30 2971 C 272.586 -3.52091 4.69307 0
M  V30 2972 C 274.938 -3.53872 5.24364 0
M  V30 2973 C 273.602 -3.56066 5.646 0
M  V30 2974 H 272.872 -0.663268 0.330388 0
M  V30 2975 H 275.519 -1.28368 1.42105 0
M  V30 2976 H 273.824 -3.82599 0.844097 0
M  V30 2977 H 275.521 -3.81499 1.23528 0
M  V30 2978 H 272.111 -3.40124 2.60794 0
M  V30 2979 H 276.295 -3.42865 3.58828 0
M  V30 2980 H 271.551 -3.52079 4.9985 0
M  V30 2981 H 275.725 -3.56043 5.98503 0
M  V30 2982 H 273.352 -3.60218 6.69438 0
M  V30 2983 N 274.927 -0.932562 -1.27047 0
M  V30 2984 C 275.89 -0.440064 -2.24936 0
M  V30 2985 C 276.89 0.444071 -1.54547 0
M  V30 2986 O 278.08 0.244465 -1.72476 0
M  V30 2987 C 275.212 0.36678 -3.38921 0
M  V30 2988 H 276.405 -1.305 -2.70018 0
M  V30 2989 H 273.958 -0.713707 -1.39054 0
M  V30 2990 H 274.693 1.25033 -2.99228 0
M  V30 2991 H 274.478 -0.267204 -3.91188 0
M  V30 2992 H 275.968 0.701567 -4.11665 0
M  V30 2993 N 276.405 1.4127 -0.698611 0
M  V30 2994 C 277.335 2.33447 -0.049629 0
M  V30 2995 C 278.316 1.51982 0.763898 0
M  V30 2996 O 279.501 1.80509 0.716257 0
M  V30 2997 C 276.631 3.35828 0.885267 0
M  V30 2998 C 275.585 4.27627 0.178613 0
M  V30 2999 C 274.911 5.20406 1.22807 0
M  V30 3000 C 276.211 5.13459 -0.956933 0
M  V30 3001 H 277.905 2.87966 -0.81951 0
M  V30 3002 H 275.451 1.38461 -0.395538 0
M  V30 3003 H 277.404 3.9924 1.34854 0
M  V30 3004 H 276.128 2.79666 1.68685 0
M  V30 3005 H 274.787 3.65643 -0.26466 0
M  V30 3006 H 274.435 4.60558 2.02226 0
M  V30 3007 H 274.135 5.82661 0.760239 0
M  V30 3008 H 275.659 5.86695 1.69179 0
M  V30 3009 H 277.073 5.70421 -0.573805 0
M  V30 3010 H 275.47 5.8467 -1.35205 0
M  V30 3011 H 276.54 4.50443 -1.79524 0
M  V30 3012 N 277.883 0.443576 1.51229 0
M  V30 3013 C 278.846 -0.353132 2.26463 0
M  V30 3014 C 279.846 -0.944338 1.3015 0
M  V30 3015 O 281.036 -0.817813 1.5381 0
M  V30 3016 C 278.168 -1.50023 3.06114 0
M  V30 3017 H 279.361 0.3063 2.98332 0
M  V30 3018 H 276.914 0.196902 1.55055 0
M  V30 3019 H 277.649 -2.19553 2.38677 0
M  V30 3020 H 277.434 -1.08241 3.76864 0
M  V30 3021 H 278.924 -2.06296 3.63087 0
M  V30 3022 N 279.361 -1.56624 0.175154 0
M  V30 3023 C 280.777 -1.58571 -0.180966 0
M  V30 3024 C 280.977 -1.19065 -1.6256 0
M  V30 3025 O 280.033 -0.904044 -2.35761 0
M  V30 3026 C 281.346 -3.00522 0.103326 0
M  V30 3027 C 282.894 -3.12972 0.0418426 0
M  V30 3028 C 283.369 -4.57022 0.299175 0
M  V30 3029 N 284.86 -4.62541 0.247086 0
M  V30 3030 C 285.595 -5.71857 0.420318 0
M  V30 3031 N 285.091 -6.89717 0.652816 0
M  V30 3032 N 286.884 -5.60972 0.355957 0
M  V30 3033 H 279.035 -1.80589 1.11809 0
M  V30 3034 H 281.298 -0.837178 0.444788 0
M  V30 3035 H 281.004 -3.33916 1.10422 0
M  V30 3036 H 280.878 -3.72344 -0.603299 0
M  V30 3037 H 283.265 -2.79403 -0.949636 0
M  V30 3038 H 283.346 -2.43578 0.781238 0
M  V30 3039 H 282.99 -4.913 1.28788 0
M  V30 3040 H 282.92 -5.24579 -0.460876 0
M  V30 3041 H 285.411 -3.77829 0.0731895 0
M  V30 3042 H 285.724 -7.68911 0.774347 0
M  V30 3043 H 284.069 -6.91572 0.689476 0
M  V30 3044 H 287.26 -4.67773 0.174882 0
M  V30 3045 H 287.433 -6.46111 0.494388 0
M  V30 3046 N 280.839 0.0985539 -1.57292 0
M  V30 3047 C 282.067 0.816318 -1.90115 0
M  V30 3048 C 282.482 1.72451 -0.768509 0
M  V30 3049 O 281.839 1.80643 0.259687 0
M  V30 3050 C 281.89 1.63259 -3.22535 0
M  V30 3051 O 281.611 0.760934 -4.31441 0
M  V30 3052 C 283.112 2.45372 -3.69199 0
M  V30 3053 H 280.332 0.233595 -0.629027 0
M  V30 3054 H 282.876 0.0768229 -2.04356 0
M  V30 3055 H 281.031 2.32463 -3.09903 0
M  V30 3056 H 281.445 1.32595 -5.07463 0
M  V30 3057 H 282.919 2.98144 -4.64558 0
M  V30 3058 H 283.396 3.23677 -2.96867 0
M  V30 3059 H 284.002 1.81373 -3.84687 0
M  V30 3060 N 282.317 1.53212 0.369288 0
M  V30 3061 C 283.545 1.73119 1.13303 0
M  V30 3062 C 283.96 0.458455 1.83149 0
M  V30 3063 O 283.317 -0.568403 1.73423 0
M  V30 3064 C 283.368 2.89413 2.16616 0
M  V30 3065 O 283.089 4.11761 1.49614 0
M  V30 3066 C 284.59 3.21161 3.05566 0
M  V30 3067 H 281.81 0.579107 0.338934 0
M  V30 3068 H 284.354 1.99942 0.429338 0
M  V30 3069 H 282.509 2.64994 2.82589 0
M  V30 3070 H 282.923 4.76858 2.18419 0
M  V30 3071 H 284.397 4.05949 3.74045 0
M  V30 3072 H 284.874 2.36369 3.70171 0
M  V30 3073 H 285.48 3.47492 2.45213 0
M  V30 3074 N 283.795 -0.628877 1.44509 0
M  V30 3075 C 285.025 -1.41349 1.50678 0
M  V30 3076 C 285.433 -1.88745 0.131075 0
M  V30 3077 O 284.776 -1.61592 -0.87371 0
M  V30 3078 C 284.838 -2.66608 2.41165 0
M  V30 3079 C 284.502 -2.40993 3.88293 0
M  V30 3080 C 285.499 -2.0268 4.78766 0
M  V30 3081 C 283.184 -2.54563 4.33016 0
M  V30 3082 C 285.178 -1.78269 6.11963 0
M  V30 3083 C 282.865 -2.29766 5.6626 0
M  V30 3084 C 283.863 -1.91678 6.55552 0
M  V30 3085 O 283.551 -1.67158 7.86329 0
M  V30 3086 H 283.283 -0.439851 0.51333 0
M  V30 3087 H 285.837 -0.776084 1.90174 0
M  V30 3088 H 284.067 -3.32994 1.96601 0
M  V30 3089 H 285.756 -3.28615 2.38259 0
M  V30 3090 H 286.522 -1.91751 4.45485 0
M  V30 3091 H 282.401 -2.83179 3.63773 0
M  V30 3092 H 285.945 -1.48465 6.81619 0
M  V30 3093 H 281.842 -2.40306 5.99102 0
M  V30 3094 H 282.61 -1.81386 7.98149 0
M  V30 3095 N 285.273 -1.31445 -0.869486 0
M  V30 3096 C 286.521 -1.20918 -1.61936 0
M  V30 3097 C 286.842 0.232683 -1.93607 0
M  V30 3098 O 286.112 1.15352 -1.58338 0
M  V30 3099 H 284.692 -0.44454 -0.600328 0
M  V30 3100 H 287.354 -1.64776 -1.0409 0
M  V30 3101 H 286.45 -1.78124 -2.56278 0
M  V30 3102 N 286.751 1.08385 -1.14413 0
M  V30 3103 C 287.997 1.81044 -0.913834 0
M  V30 3104 C 288.33 1.86004 0.558209 0
M  V30 3105 O 287.605 1.33606 1.4135 0
M  V30 3106 C 287.888 3.26648 -1.51569 0
M  V30 3107 C 287.741 3.29895 -3.0576 0
M  V30 3108 C 289.06 4.23629 -1.19273 0
M  V30 3109 H 286.179 0.65727 -0.333414 0
M  V30 3110 H 288.821 1.26896 -1.41412 0
M  V30 3111 H 286.971 3.72889 -1.09023 0
M  V30 3112 H 288.643 2.91977 -3.57137 0
M  V30 3113 H 286.886 2.69163 -3.40197 0
M  V30 3114 H 287.557 4.32516 -3.42977 0
M  V30 3115 H 290.033 3.85727 -1.56057 0
M  V30 3116 H 288.909 5.23822 -1.64017 0
M  V30 3117 H 289.17 4.41968 -0.108068 0
M  V30 3118 N 288.23 0.939286 1.26551 0
M  V30 3119 C 289.16 0.465044 2.28822 0
M  V30 3120 C 290.141 -0.480692 1.63167 0
M  V30 3121 O 291.326 -0.382955 1.90387 0
M  V30 3122 C 288.456 -0.27234 3.46231 0
M  V30 3123 C 287.41 0.58666 4.2396 0
M  V30 3124 C 286.736 -0.280573 5.33963 0
M  V30 3125 C 288.036 1.85704 4.88171 0
M  V30 3126 H 289.73 1.31979 2.68741 0
M  V30 3127 H 287.276 0.636061 1.29191 0
M  V30 3128 H 289.229 -0.615133 4.16886 0
M  V30 3129 H 287.953 -1.16121 3.0526 0
M  V30 3130 H 286.612 0.91232 3.55067 0
M  V30 3131 H 286.26 -1.16874 4.89234 0
M  V30 3132 H 285.96 0.29076 5.8688 0
M  V30 3133 H 287.484 -0.618678 6.07458 0
M  V30 3134 H 288.898 1.58161 5.51052 0
M  V30 3135 H 287.295 2.37279 5.51197 0
M  V30 3136 H 288.365 2.56957 4.11219 0
M  V30 3137 N 289.708 -1.40897 0.706093 0
M  V30 3138 C 290.956 -2.00657 0.241054 0
M  V30 3139 C 291.277 -1.56241 -1.16678 0
M  V30 3140 O 290.547 -0.79765 -1.78926 0
M  V30 3141 H 289.127 -0.742018 0.0861308 0
M  V30 3142 H 291.789 -1.72372 0.909604 0
M  V30 3143 H 290.885 -3.10958 0.266705 0
M  V30 3144 N 291.186 -0.45159 -1.50991 0
M  V30 3145 C 292.432 0.110237 -2.025 0
M  V30 3146 C 292.765 1.41109 -1.33424 0
M  V30 3147 O 292.04 1.89135 -0.453659 0
M  V30 3148 C 292.323 0.314271 -3.58726 0
M  V30 3149 C 292.176 -1.00623 -4.38401 0
M  V30 3150 C 293.495 1.07767 -4.26702 0
M  V30 3151 H 290.614 0.0385897 -0.735989 0
M  V30 3152 H 293.256 -0.593374 -1.80497 0
M  V30 3153 H 291.406 0.913601 -3.77605 0
M  V30 3154 H 293.078 -1.64064 -4.31139 0
M  V30 3155 H 291.321 -1.6075 -4.02917 0
M  V30 3156 H 291.992 -0.817341 -5.45915 0
M  V30 3157 H 294.468 0.56986 -4.12179 0
M  V30 3158 H 293.344 1.18921 -5.35863 0
M  V30 3159 H 293.605 2.10939 -3.88532 0
M  V30 3160 N 292.664 1.56529 -0.183458 0
M  V30 3161 C 293.611 2.18546 0.742055 0
M  V30 3162 C 294.581 1.12912 1.2182 0
M  V30 3163 O 295.766 1.41115 1.28418 0
M  V30 3164 C 292.906 2.83977 1.96089 0
M  V30 3165 C 292.019 4.04105 1.52719 0
M  V30 3166 C 291.154 4.57427 2.70063 0
M  V30 3167 C 290.193 5.69938 2.23243 0
M  V30 3168 N 289.33 6.17717 3.33722 0
M  V30 3169 H 294.17 2.97284 0.206432 0
M  V30 3170 H 291.707 1.46823 0.0901571 0
M  V30 3171 H 293.665 3.20077 2.67594 0
M  V30 3172 H 292.295 2.07822 2.47002 0
M  V30 3173 H 291.347 3.73745 0.708436 0
M  V30 3174 H 292.659 4.85513 1.1436 0
M  V30 3175 H 291.813 4.95772 3.49708 0
M  V30 3176 H 290.552 3.75101 3.11689 0
M  V30 3177 H 289.557 5.31133 1.42048 0
M  V30 3178 H 290.782 6.54073 1.82661 0
M  V30 3179 H 288.728 5.38317 3.74902 0
M  V30 3180 H 288.645 6.94146 2.99495 0
M  V30 3181 H 289.913 6.60713 4.13616 0
M  V30 3182 N 294.142 -0.090211 1.57342 0
M  V30 3183 C 295.105 -1.09335 2.01441 0
M  V30 3184 C 296.105 -1.32666 0.908641 0
M  V30 3185 O 297.295 -1.28697 1.174 0
M  V30 3186 C 294.427 -2.44136 2.3793 0
M  V30 3187 H 295.62 -0.713662 2.91285 0
M  V30 3188 H 293.173 -0.335404 1.52659 0
M  V30 3189 H 293.908 -2.86972 1.51055 0
M  V30 3190 H 293.693 -2.28548 3.18603 0
M  V30 3191 H 295.183 -3.16277 2.72688 0
M  V30 3192 N 295.62 -1.53406 -0.361157 0
M  V30 3193 C 296.85 -1.73465 -1.1222 0
M  V30 3194 C 297.258 -0.465486 -1.83384 0
M  V30 3195 O 296.601 0.571611 -1.7458 0
M  V30 3196 C 296.663 -2.84834 -2.19339 0
M  V30 3197 C 296.327 -4.25038 -1.67903 0
M  V30 3198 C 297.324 -5.07231 -1.14074 0
M  V30 3199 C 295.009 -4.71464 -1.73282 0
M  V30 3200 C 297.003 -6.33942 -0.663068 0
M  V30 3201 C 294.69 -5.98153 -1.25127 0
M  V30 3202 C 295.688 -6.79223 -0.717296 0
M  V30 3203 O 295.376 -8.03533 -0.242865 0
M  V30 3204 H 295.108 -0.583526 -0.341283 0
M  V30 3205 H 297.662 -2.00964 -0.424591 0
M  V30 3206 H 295.892 -2.5282 -2.92607 0
M  V30 3207 H 297.581 -2.9303 -2.80871 0
M  V30 3208 H 298.347 -4.72534 -1.09254 0
M  V30 3209 H 294.226 -4.08432 -2.13786 0
M  V30 3210 H 297.77 -6.97167 -0.245612 0
M  V30 3211 H 293.667 -6.32347 -1.29642 0
M  V30 3212 H 294.435 -8.177 -0.361786 0
M  V30 3213 N 297.098 0.621204 -1.44841 0
M  V30 3214 C 298.347 1.37658 -1.47422 0
M  V30 3215 C 298.66 1.95264 -0.114629 0
M  V30 3216 O 299.866 2.71494 -0.0180199 0
M  V30 3217 C 298.322 2.49285 -2.59586 0
M  V30 3218 C 297.93 1.98149 -4.01797 0
M  V30 3219 C 299.674 3.26409 -2.71399 0
M  V30 3220 C 297.581 3.07178 -5.05367 0
M  V30 3221 H 296.511 0.517344 -0.548517 0
M  V30 3222 H 299.162 0.667257 -1.70938 0
M  V30 3223 H 297.544 3.22839 -2.29328 0
M  V30 3224 H 298.718 1.31395 -4.41669 0
M  V30 3225 H 297.033 1.33812 -3.94314 0
M  V30 3226 H 299.63 4.07706 -3.45948 0
M  V30 3227 H 299.973 3.76535 -1.77559 0
M  V30 3228 H 300.506 2.5995 -3.01116 0
M  V30 3229 H 297.245 2.61985 -6.00869 0
M  V30 3230 H 296.765 3.72542 -4.70077 0
M  V30 3231 H 298.444 3.71789 -5.29511 0
M  V30 3232 N 298.576 1.31904 0.862503 0
M  V30 3233 C 299.823 1.22017 1.61611 0
M  V30 3234 C 300.151 -0.21991 1.93253 0
M  V30 3235 O 299.406 -1.17076 1.56817 0
M  V30 3236 C 299.705 2.01713 2.95037 0
M  V30 3237 C 299.371 3.51145 2.82857 0
M  V30 3238 C 298.033 3.91889 2.79243 0
M  V30 3239 C 300.385 4.46204 2.69353 0
M  V30 3240 C 297.713 5.25947 2.59993 0
M  V30 3241 C 300.065 5.80397 2.5164 0
M  V30 3242 C 298.729 6.20352 2.46413 0
M  V30 3243 H 297.999 0.44649 0.591378 0
M  V30 3244 H 300.646 1.63248 1.00111 0
M  V30 3245 H 298.951 1.53185 3.60613 0
M  V30 3246 H 300.648 1.91437 3.52353 0
M  V30 3247 H 297.238 3.1878 2.86491 0
M  V30 3248 H 301.422 4.15652 2.71196 0
M  V30 3249 H 296.678 5.5597 2.54376 0
M  V30 3250 H 300.852 6.53676 2.40169 0
M  V30 3251 H 298.479 7.24172 2.31256 0
M  V30 3252 N 300.054 -1.07777 1.14986 0
M  V30 3253 C 300.984 -2.16865 0.865557 0
M  V30 3254 C 301.965 -1.69123 -0.182083 0
M  V30 3255 O 303.15 -1.94164 -0.0373815 0
M  V30 3256 C 300.28 -3.45539 0.349313 0
M  V30 3257 C 299.234 -4.06708 1.33313 0
M  V30 3258 C 298.56 -5.30411 0.675918 0
M  V30 3259 C 299.86 -4.47241 2.69764 0
M  V30 3260 H 301.554 -2.40905 1.77778 0
M  V30 3261 H 299.1 -1.15781 0.856203 0
M  V30 3262 H 301.053 -4.21174 0.137983 0
M  V30 3263 H 299.777 -3.21072 -0.598362 0
M  V30 3264 H 298.436 -3.33112 1.53075 0
M  V30 3265 H 298.084 -5.02232 -0.277767 0
M  V30 3266 H 297.784 -5.72293 1.33244 0
M  V30 3267 H 299.308 -6.08755 0.474262 0
M  V30 3268 H 300.722 -5.14025 2.53873 0
M  V30 3269 H 299.119 -5.00062 3.3175 0
M  V30 3270 H 300.189 -3.58818 3.26156 0
M  V30 3271 N 301.532 -0.945985 -1.26051 0
M  V30 3272 C 302.78 -0.594941 -1.93145 0
M  V30 3273 C 303.101 0.86953 -1.7454 0
M  V30 3274 O 302.371 1.61838 -1.10387 0
M  V30 3275 H 300.951 -0.217044 -0.714773 0
M  V30 3276 H 303.613 -1.20235 -1.53393 0
M  V30 3277 H 302.709 -0.816835 -3.01221 0
M  V30 3278 N 303.011 1.40521 -0.713556 0
M  V30 3279 C 303.921 2.34522 -0.0606667 0
M  V30 3280 C 304.937 1.57193 0.74607 0
M  V30 3281 O 306.113 1.89591 0.679493 0
M  V30 3282 C 303.178 3.36081 0.851491 0
M  V30 3283 C 302.239 4.29286 0.0349339 0
M  V30 3284 C 301.472 5.25994 0.903649 0
M  V30 3285 O 301.695 5.28616 2.14292 0
M  V30 3286 O 300.629 6.00918 0.343723 0
M  V30 3287 H 304.455 2.91968 -0.835972 0
M  V30 3288 H 302.04 1.41681 -0.47402 0
M  V30 3289 H 303.922 3.98369 1.37404 0
M  V30 3290 H 302.597 2.81052 1.60598 0
M  V30 3291 H 301.504 3.70289 -0.532633 0
M  V30 3292 H 302.837 4.87462 -0.681287 0
M  V30 3293 N 304.489 0.459591 1.5075 0
M  V30 3294 C 305.735 -0.0994966 2.02556 0
M  V30 3295 C 306.068 -1.40399 1.3417 0
M  V30 3296 O 305.343 -1.88892 0.463683 0
M  V30 3297 C 305.626 -0.295242 3.58888 0
M  V30 3298 C 305.479 1.02947 4.37861 0
M  V30 3299 C 306.798 -1.05502 4.27267 0
M  V30 3300 H 303.917 -0.034686 0.736183 0
M  V30 3301 H 306.559 0.602938 1.8018 0
M  V30 3302 H 304.709 -0.893563 3.78084 0
M  V30 3303 H 306.381 1.66348 4.30263 0
M  V30 3304 H 304.624 1.62885 4.02058 0
M  V30 3305 H 305.295 0.846281 5.45474 0
M  V30 3306 H 307.771 -0.547993 4.12476 0
M  V30 3307 H 306.647 -1.16077 5.36486 0
M  V30 3308 H 306.908 -2.08875 3.89645 0
M  V30 3309 N 305.967 -1.56429 0.191757 0
M  V30 3310 C 307.216 -1.9666 -0.448088 0
M  V30 3311 C 307.529 -1.08136 -1.62991 0
M  V30 3312 O 308.735 -1.38135 -2.33733 0
M  V30 3313 C 307.191 -3.49753 -0.848585 0
M  V30 3314 C 306.799 -4.46935 0.308764 0
M  V30 3315 C 308.543 -3.9876 -1.4557 0
M  V30 3316 C 306.45 -5.91293 -0.112506 0
M  V30 3317 H 305.38 -0.734312 -0.171179 0
M  V30 3318 H 308.031 -1.81301 0.283242 0
M  V30 3319 H 306.413 -3.60604 -1.63649 0
M  V30 3320 H 307.587 -4.47813 1.08627 0
M  V30 3321 H 305.902 -4.08102 0.827158 0
M  V30 3322 H 308.499 -5.04086 -1.78328 0
M  V30 3323 H 308.842 -3.42875 -2.36099 0
M  V30 3324 H 309.375 -3.9101 -0.731836 0
M  V30 3325 H 306.114 -6.51097 0.758514 0
M  V30 3326 H 305.634 -5.93676 -0.854941 0
M  V30 3327 H 307.313 -6.44663 -0.549448 0
M  V30 3328 N 307.445 0.0818655 -1.57387 0
M  V30 3329 C 308.693 0.781368 -1.86384 0
M  V30 3330 C 309.014 1.78618 -0.782342 0
M  V30 3331 O 308.284 1.94976 0.190061 0
M  V30 3332 H 306.864 0.291562 -0.687751 0
M  V30 3333 H 309.526 0.060348 -1.94807 0
M  V30 3334 H 308.622 1.3038 -2.83562 0
M  V30 3335 N 308.923 1.53595 0.353017 0
M  V30 3336 C 310.171 1.70049 1.09215 0
M  V30 3337 C 310.492 0.461406 1.89463 0
M  V30 3338 O 309.762 -0.524633 1.88744 0
M  V30 3339 H 308.342 0.626912 0.40619 0
M  V30 3340 H 311.004 1.90822 0.396585 0
M  V30 3341 H 310.1 2.56718 1.77488 0
M  V30 3342 N 310.401 -0.613514 1.45168 0
M  V30 3343 C 311.333 -1.73825 1.4939 0
M  V30 3344 C 312.346 -1.58175 0.385304 0
M  V30 3345 O 313.535 -1.66165 0.652036 0
M  V30 3346 C 310.635 -3.11758 1.32891 0
M  V30 3347 C 309.808 -3.53704 2.57317 0
M  V30 3348 C 308.867 -4.70579 2.35462 0
M  V30 3349 O 307.893 -4.77996 3.09044 0
M  V30 3350 N 309.095 -5.63454 1.39644 0
M  V30 3351 H 311.86 -1.70669 2.46358 0
M  V30 3352 H 309.421 -0.79862 1.40832 0
M  V30 3353 H 311.413 -3.87692 1.1609 0
M  V30 3354 H 309.983 -3.09456 0.442218 0
M  V30 3355 H 309.203 -2.67794 2.89275 0
M  V30 3356 H 310.491 -3.78486 3.40038 0
M  V30 3357 H 309.889 -5.6017 0.789062 0
M  V30 3358 H 308.446 -6.38944 1.28816 0
M  V30 3359 N 311.879 -1.3236 -0.855495 0
M  V30 3360 C 312.826 -1.21225 -1.964 0
M  V30 3361 C 313.796 -0.0946204 -1.6583 0
M  V30 3362 O 314.981 -0.27002 -1.8888 0
M  V30 3363 C 312.121 -0.940419 -3.32039 0
M  V30 3364 C 311.234 -2.14276 -3.75113 0
M  V30 3365 C 310.369 -1.80648 -4.9954 0
M  V30 3366 C 309.408 -2.97208 -5.35102 0
M  V30 3367 N 308.545 -2.63678 -6.50706 0
M  V30 3368 H 313.385 -2.16042 -2.05255 0
M  V30 3369 H 310.922 -1.07451 -1.00463 0
M  V30 3370 H 312.88 -0.763311 -4.10158 0
M  V30 3371 H 311.51 -0.0290413 -3.22787 0
M  V30 3372 H 310.562 -2.43017 -2.92655 0
M  V30 3373 H 311.874 -3.01468 -3.97389 0
M  V30 3374 H 311.028 -1.59484 -5.85363 0
M  V30 3375 H 309.767 -0.906678 -4.79198 0
M  V30 3376 H 308.772 -3.19004 -4.47791 0
M  V30 3377 H 309.997 -3.87918 -5.57401 0
M  V30 3378 H 307.943 -1.76238 -6.31883 0
M  V30 3379 H 307.86 -3.444 -6.72997 0
M  V30 3380 H 309.128 -2.45942 -7.39684 0
M  V30 3381 N 313.357 1.07166 -1.15556 0
M  V30 3382 C 314.768 1.6127 -0.940693 0
M  V30 3383 C 315.119 1.89251 0.517551 0
M  V30 3384 O 314.244 1.65937 1.38903 0
M  V30 3385 C 314.839 2.92993 -1.7012 0
M  V30 3386 C 313.398 3.43832 -1.53156 0
M  V30 3387 C 312.545 2.1786 -1.71558 0
M  V30 3388 H 315.496 0.90229 -1.30554 0
M  V30 3389 H 315.517 3.62007 -1.17181 0
M  V30 3390 H 315.029 2.72596 -2.76248 0
M  V30 3391 H 313.13 3.69307 -0.494294 0
M  V30 3392 H 313.243 4.19747 -2.30975 0
M  V30 3393 H 311.607 2.2765 -1.14225 0
M  V30 3394 H 312.39 1.99956 -2.79056 0
M  V30 3395 N 314.835 0.952656 1.25548 0
M  V30 3396 C 315.782 0.47008 2.25962 0
M  V30 3397 C 316.752 -0.476384 1.59122 0
M  V30 3398 O 317.937 -0.39007 1.8677 0
M  V30 3399 C 315.077 -0.247881 3.44209 0
M  V30 3400 C 314.19 0.735591 4.25691 0
M  V30 3401 C 313.325 -0.0047306 5.312 0
M  V30 3402 C 312.364 0.969805 6.04368 0
M  V30 3403 N 311.501 0.260486 7.01617 0
M  V30 3404 H 316.341 1.33126 2.66611 0
M  V30 3405 H 313.878 0.66765 1.31076 0
M  V30 3406 H 315.836 -0.680695 4.1161 0
M  V30 3407 H 314.466 -1.07312 3.0444 0
M  V30 3408 H 313.518 1.28689 3.57971 0
M  V30 3409 H 314.83 1.47934 4.76358 0
M  V30 3410 H 313.984 -0.496275 6.04667 0
M  V30 3411 H 312.723 -0.781282 4.81401 0
M  V30 3412 H 311.728 1.47237 5.29718 0
M  V30 3413 H 312.953 1.74655 6.56256 0
M  V30 3414 H 310.899 -0.497364 6.54112 0
M  V30 3415 H 310.816 0.943362 7.50091 0
M  V30 3416 H 312.084 -0.209587 7.79218 0
M  V30 3417 N 316.313 -1.40141 0.720998 0
M  V30 3418 C 317.276 -2.29058 0.0805834 0
M  V30 3419 C 318.276 -1.45632 -0.681758 0
M  V30 3420 O 319.466 -1.6648 -0.512856 0
M  V30 3421 C 316.598 -3.28925 -0.895593 0
M  V30 3422 H 317.791 -2.87191 0.863793 0
M  V30 3423 H 315.344 -1.48553 0.485975 0
M  V30 3424 H 316.079 -2.75822 -1.70566 0
M  V30 3425 H 315.864 -3.90519 -0.351766 0
M  V30 3426 H 317.354 -3.95494 -1.34069 0
M  V30 3427 N 317.792 -0.46758 -1.50504 0
M  V30 3428 C 319.208 -0.121533 -1.59137 0
M  V30 3429 C 319.408 1.3717 -1.47603 0
M  V30 3430 O 318.464 2.14464 -1.33272 0
M  V30 3431 C 319.777 -0.6686 -2.93173 0
M  V30 3432 C 321.325 -0.631716 -3.06559 0
M  V30 3433 C 321.8 -1.15627 -4.43164 0
M  V30 3434 N 323.291 -1.11553 -4.49567 0
M  V30 3435 C 324.026 -1.49195 -5.5365 0
M  V30 3436 N 323.522 -1.94269 -6.65005 0
M  V30 3437 N 325.315 -1.4082 -5.44175 0
M  V30 3438 H 317.466 -1.4388 -1.56245 0
M  V30 3439 H 319.729 -0.594784 -0.738198 0
M  V30 3440 H 319.435 -1.71453 -3.07078 0
M  V30 3441 H 319.309 -0.11021 -3.77039 0
M  V30 3442 H 321.696 0.405297 -2.92304 0
M  V30 3443 H 321.777 -1.22687 -2.24458 0
M  V30 3444 H 321.421 -2.1919 -4.58168 0
M  V30 3445 H 321.351 -0.537365 -5.23851 0
M  V30 3446 H 323.842 -0.784895 -3.69659 0
M  V30 3447 H 324.155 -2.21148 -7.40482 0
M  V30 3448 H 322.5 -1.98219 -6.66134 0
M  V30 3449 H 325.691 -1.0545 -4.56068 0
M  V30 3450 H 325.864 -1.70481 -6.25172 0
M  V30 3451 N 319.27 1.56325 -0.20005 0
M  V30 3452 C 320.681 1.8408 0.31167 0
M  V30 3453 C 321.032 1.12087 1.61031 0
M  V30 3454 O 320.157 0.38332 2.12978 0
M  V30 3455 C 320.752 3.33932 0.57226 0
M  V30 3456 C 319.311 3.6208 1.02834 0
M  V30 3457 C 318.458 2.77186 0.079634 0
M  V30 3458 H 321.409 1.52939 -0.423729 0
M  V30 3459 H 321.43 3.52971 1.42096 0
M  V30 3460 H 320.942 3.86303 -0.37308 0
M  V30 3461 H 319.043 3.15147 1.98778 0
M  V30 3462 H 319.156 4.7023 0.917624 0
M  V30 3463 H 317.52 2.47951 0.582448 0
M  V30 3464 H 318.303 3.32347 -0.860238 0
M  V30 3465 N 320.748 -0.0735177 1.57428 0
M  V30 3466 C 321.658 -1.10547 2.06922 0
M  V30 3467 C 322.674 -1.42506 0.998402 0
M  V30 3468 O 323.85 -1.52717 1.31299 0
M  V30 3469 C 320.915 -2.40019 2.50184 0
M  V30 3470 C 319.976 -2.15046 3.71556 0
M  V30 3471 C 319.209 -3.38345 4.12745 0
M  V30 3472 O 319.432 -4.47399 3.53822 0
M  V30 3473 O 318.366 -3.2666 5.05546 0
M  V30 3474 H 322.192 -0.715013 2.95163 0
M  V30 3475 H 319.777 -0.287531 1.46607 0
M  V30 3476 H 321.659 -3.16218 2.78539 0
M  V30 3477 H 320.334 -2.78447 1.65072 0
M  V30 3478 H 319.241 -1.36558 3.48285 0
M  V30 3479 H 320.574 -1.81499 4.57514 0
M  V30 3480 N 322.226 -1.5378 -0.344866 0
M  V30 3481 C 323.156 -1.84662 -1.42906 0
M  V30 3482 C 324.137 -0.701648 -1.54955 0
M  V30 3483 O 325.322 -0.953438 -1.69184 0
M  V30 3484 C 322.452 -2.05503 -2.79974 0
M  V30 3485 C 321.406 -3.21318 -2.82734 0
M  V30 3486 C 320.732 -3.2749 -4.22675 0
M  V30 3487 C 322.032 -4.59456 -2.48389 0
M  V30 3488 H 323.726 -2.75461 -1.17311 0
M  V30 3489 H 321.272 -1.32542 -0.562896 0
M  V30 3490 H 323.225 -2.25691 -3.55867 0
M  V30 3491 H 321.949 -1.11434 -3.07002 0
M  V30 3492 H 320.608 -3.00984 -2.09294 0
M  V30 3493 H 320.256 -2.31019 -4.4681 0
M  V30 3494 H 319.956 -4.05316 -4.25433 0
M  V30 3495 H 321.48 -3.49887 -5.00412 0
M  V30 3496 H 322.894 -4.79667 -3.13995 0
M  V30 3497 H 321.291 -5.39675 -2.62432 0
M  V30 3498 H 322.361 -4.63155 -1.4358 0
M  V30 3499 N 323.704 0.605807 -1.45491 0
M  V30 3500 C 325.115 1.18777 -1.44045 0
M  V30 3501 C 325.466 1.95471 -0.169001 0
M  V30 3502 O 324.591 2.0374 0.729324 0
M  V30 3503 C 325.186 2.16064 -2.60963 0
M  V30 3504 C 323.745 2.69633 -2.62631 0
M  V30 3505 C 322.892 1.45072 -2.36325 0
M  V30 3506 H 325.843 0.395017 -1.53705 0
M  V30 3507 H 325.864 2.9913 -2.35163 0
M  V30 3508 H 325.376 1.60217 -3.53486 0
M  V30 3509 H 323.477 3.29414 -1.74119 0
M  V30 3510 H 323.59 3.13944 -3.61906 0
M  V30 3511 H 321.954 1.74089 -1.85917 0
M  V30 3512 H 322.737 0.910899 -3.30995 0
M  V30 3513 N 325.182 1.32811 0.848464 0
M  V30 3514 C 326.129 1.22265 1.95755 0
M  V30 3515 C 327.099 0.103413 1.65778 0
M  V30 3516 O 328.284 0.280033 1.88734 0
M  V30 3517 C 325.424 0.958014 3.31536 0
M  V30 3518 C 324.537 2.16262 3.73971 0
M  V30 3519 C 323.672 1.83295 4.98575 0
M  V30 3520 C 322.711 3.00041 5.33518 0
M  V30 3521 N 321.848 2.67125 6.49299 0
M  V30 3522 H 326.688 2.17128 2.04107 0
M  V30 3523 H 324.225 1.07982 0.998913 0
M  V30 3524 H 326.183 0.785052 4.09747 0
M  V30 3525 H 324.813 0.046159 3.22767 0
M  V30 3526 H 323.865 2.44565 2.91362 0
M  V30 3527 H 325.177 3.03572 3.95785 0
M  V30 3528 H 324.331 1.62586 5.84509 0
M  V30 3529 H 323.07 0.932078 4.7871 0
M  V30 3530 H 322.075 3.21374 4.46093 0
M  V30 3531 H 323.3 3.90869 5.55336 0
M  V30 3532 H 321.246 1.79586 6.3094 0
M  V30 3533 H 321.163 3.47965 6.71161 0
M  V30 3534 H 322.431 2.49861 7.3837 0
M  V30 3535 N 326.66 -1.06551 1.16123 0
M  V30 3536 C 327.623 -2.12132 0.867906 0
M  V30 3537 C 328.623 -1.60224 -0.135944 0
M  V30 3538 O 329.813 -1.73943 0.0946422 0
M  V30 3539 C 326.945 -3.396 0.297419 0
M  V30 3540 H 328.138 -2.39586 1.80385 0
M  V30 3541 H 325.691 -1.22574 0.969812 0
M  V30 3542 H 326.426 -3.17794 -0.64633 0
M  V30 3543 H 326.211 -3.78581 1.02073 0
M  V30 3544 H 327.701 -4.17455 0.110052 0
M  V30 3545 N 328.138 -0.959301 -1.25041 0
M  V30 3546 C 329.048 -0.489994 -2.29426 0
M  V30 3547 C 330.064 0.444944 -1.68215 0
M  V30 3548 O 331.24 0.320046 -1.98841 0
M  V30 3549 C 328.305 0.220309 -3.45999 0
M  V30 3550 C 327.366 -0.753418 -4.22637 0
M  V30 3551 C 326.599 -0.076918 -5.33645 0
M  V30 3552 O 326.822 1.13649 -5.58963 0
M  V30 3553 O 325.756 -0.764824 -5.97021 0
M  V30 3554 H 329.582 -1.35755 -2.71669 0
M  V30 3555 H 327.167 -0.725961 -1.30576 0
M  V30 3556 H 329.049 0.619677 -4.16819 0
M  V30 3557 H 327.724 1.06296 -3.0575 0
M  V30 3558 H 326.631 -1.20308 -3.54227 0
M  V30 3559 H 327.964 -1.56423 -4.66683 0
M  V30 3560 N 329.616 1.39756 -0.72842 0
M  V30 3561 C 330.526 2.34444 -0.0855374 0
M  V30 3562 C 331.542 1.57976 0.729356 0
M  V30 3563 O 332.718 1.90301 0.659346 0
M  V30 3564 C 329.783 3.36965 0.815798 0
M  V30 3565 C 328.844 4.29299 -0.0105996 0
M  V30 3566 C 328.077 5.26923 0.84781 0
M  V30 3567 O 328.3 5.30859 2.08673 0
M  V30 3568 O 327.234 6.01249 0.279969 0
M  V30 3569 H 331.06 2.91065 -0.866892 0
M  V30 3570 H 328.645 1.4117 -0.48902 0
M  V30 3571 H 330.527 3.99804 1.33171 0
M  V30 3572 H 329.202 2.82739 1.57608 0
M  V30 3573 H 328.109 3.69703 -0.571877 0
M  V30 3574 H 329.442 4.86712 -0.73295 0
M  V30 3575 N 331.094 0.475555 1.50254 0
M  V30 3576 C 332.51 0.12997 1.5907 0
M  V30 3577 C 332.71 -1.36385 1.48328 0
M  V30 3578 O 331.766 -2.13754 1.34407 0
M  V30 3579 C 333.079 0.684139 2.92814 0
M  V30 3580 C 334.627 0.647965 3.0622 0
M  V30 3581 C 335.102 1.17975 4.42545 0
M  V30 3582 N 336.593 1.13936 4.48969 0
M  V30 3583 C 337.328 1.52129 5.52851 0
M  V30 3584 N 336.824 1.97793 6.63965 0
M  V30 3585 N 338.617 1.43704 5.4342 0
M  V30 3586 H 330.768 1.44706 1.55479 0
M  V30 3587 H 333.031 0.598691 0.735033 0
M  V30 3588 H 332.737 1.73079 3.06164 0
M  V30 3589 H 332.611 0.130204 3.76975 0
M  V30 3590 H 334.998 -0.38979 2.92514 0
M  V30 3591 H 335.079 1.23876 2.23805 0
M  V30 3592 H 334.723 2.21616 4.57 0
M  V30 3593 H 334.653 0.565138 5.23559 0
M  V30 3594 H 337.144 0.804488 3.69238 0
M  V30 3595 H 337.457 2.25072 7.39299 0
M  V30 3596 H 335.802 2.01749 6.65073 0
M  V30 3597 H 338.993 1.07867 4.55502 0
M  V30 3598 H 339.166 1.73794 6.24259 0
M  V30 3599 N 332.573 -1.56217 0.208337 0
M  V30 3600 C 333.984 -1.84243 -0.301904 0
M  V30 3601 C 334.335 -1.12939 -1.60434 0
M  V30 3602 O 333.46 -0.39461 -2.12772 0
M  V30 3603 C 334.055 -3.34231 -0.554543 0
M  V30 3604 C 332.614 -3.62621 -1.00912 0
M  V30 3605 C 331.761 -2.77224 -0.064933 0
M  V30 3606 H 334.712 -1.52712 0.431833 0
M  V30 3607 H 334.733 -3.5372 -1.40223 0
M  V30 3608 H 334.245 -3.86099 0.393561 0
M  V30 3609 H 332.346 -3.16197 -1.97104 0
M  V30 3610 H 332.459 -4.7071 -0.892674 0
M  V30 3611 H 330.823 -2.48256 -0.56929 0
M  V30 3612 H 331.606 -3.31887 0.877851 0
M  V30 3613 N 334.051 0.0651679 -1.57465 0
M  V30 3614 C 335.467 0.420105 -1.53972 0
M  V30 3615 C 335.667 1.78782 -0.929474 0
M  V30 3616 O 334.723 2.46771 -0.534839 0
M  V30 3617 C 336.036 0.355084 -2.98596 0
M  V30 3618 C 337.584 0.434792 -3.09965 0
M  V30 3619 C 338.059 0.399609 -4.56253 0
M  V30 3620 N 339.55 0.459488 -4.60915 0
M  V30 3621 C 340.285 0.454584 -5.71595 0
M  V30 3622 N 339.781 0.404102 -6.9162 0
M  V30 3623 N 341.574 0.501635 -5.59857 0
M  V30 3624 H 333.725 -0.830328 -1.95498 0
M  V30 3625 H 335.988 -0.312244 -0.895102 0
M  V30 3626 H 335.694 -0.583357 -3.46828 0
M  V30 3627 H 335.568 1.16275 -3.58831 0
M  V30 3628 H 337.955 1.36366 -2.61703 0
M  V30 3629 H 338.036 -0.40157 -2.52628 0
M  V30 3630 H 337.68 -0.525436 -5.05175 0
M  V30 3631 H 337.61 1.25359 -5.11461 0
M  V30 3632 H 340.101 0.502482 -3.74544 0
M  V30 3633 H 340.414 0.404468 -7.71741 0
M  V30 3634 H 338.759 0.37069 -6.94011 0
M  V30 3635 H 341.95 0.538812 -4.64989 0
M  V30 3636 H 342.123 0.494345 -6.46112 0
M  V30 3637 N 335.529 1.53961 0.336706 0
M  V30 3638 C 336.945 1.44378 0.680241 0
M  V30 3639 C 337.145 0.606034 1.9217 0
M  V30 3640 O 336.201 0.099688 2.52303 0
M  V30 3641 C 337.514 2.87945 0.8665 0
M  V30 3642 C 339.062 2.97763 0.964682 0
M  V30 3643 C 339.537 4.42453 1.18321 0
M  V30 3644 N 341.028 4.46008 1.25025 0
M  V30 3645 C 341.763 5.55102 1.43697 0
M  V30 3646 N 341.259 6.7419 1.59498 0
M  V30 3647 N 343.052 5.42727 1.463 0
M  V30 3648 H 335.203 2.06918 -0.479455 0
M  V30 3649 H 337.466 0.935634 -0.152619 0
M  V30 3650 H 337.172 3.51691 0.0256937 0
M  V30 3651 H 337.046 3.33293 1.76623 0
M  V30 3652 H 339.433 2.34153 1.796 0
M  V30 3653 H 339.514 2.55766 0.041708 0
M  V30 3654 H 339.158 5.06645 0.356788 0
M  V30 3655 H 339.088 4.82048 2.11985 0
M  V30 3656 H 341.579 3.60196 1.14312 0
M  V30 3657 H 341.892 7.53095 1.734 0
M  V30 3658 H 340.237 6.77123 1.56621 0
M  V30 3659 H 343.428 4.48647 1.33543 0
M  V30 3660 H 343.601 6.27806 1.6051 0
M  V30 3661 N 337.007 -0.598083 1.45811 0
M  V30 3662 C 338.423 -0.919847 1.30426 0
M  V30 3663 C 338.623 -1.99759 0.264303 0
M  V30 3664 O 337.679 -2.50221 -0.338472 0
M  V30 3665 C 338.992 -1.35176 2.68603 0
M  V30 3666 C 340.54 -1.46546 2.76574 0
M  V30 3667 C 341.015 -1.9311 4.15298 0
M  V30 3668 N 342.506 -2.00328 4.1764 0
M  V30 3669 C 343.241 -2.37599 5.21856 0
M  V30 3670 N 342.737 -2.73771 6.36413 0
M  V30 3671 N 344.53 -2.38021 5.09218 0
M  V30 3672 H 336.681 0.114111 2.12093 0
M  V30 3673 H 338.944 -0.0116121 0.947929 0
M  V30 3674 H 338.65 -0.633969 3.45939 0
M  V30 3675 H 338.524 -2.3164 2.97696 0
M  V30 3676 H 340.911 -2.17415 1.99537 0
M  V30 3677 H 340.992 -0.483727 2.51185 0
M  V30 3678 H 340.636 -1.22824 4.92825 0
M  V30 3679 H 340.566 -2.92213 4.38086 0
M  V30 3680 H 343.057 -1.74925 3.34977 0
M  V30 3681 H 343.37 -3.0112 7.11721 0
M  V30 3682 H 341.715 -2.71445 6.39799 0
M  V30 3683 H 344.906 -2.09174 4.18765 0
M  V30 3684 H 345.079 -2.66741 5.90554 0
M  V30 3685 N 338.485 -1.33259 -0.841409 0
M  V30 3686 C 339.901 -1.12538 -1.13169 0
M  V30 3687 C 340.101 0.0854037 -2.01319 0
M  V30 3688 O 339.157 0.766417 -2.40587 0
M  V30 3689 C 340.47 -2.41156 -1.79623 0
M  V30 3690 C 342.018 -2.47038 -1.922 0
M  V30 3691 C 342.493 -3.7561 -2.6207 0
M  V30 3692 N 343.984 -3.76667 -2.69585 0
M  V30 3693 C 344.719 -4.72861 -3.2433 0
M  V30 3694 N 344.215 -5.79428 -3.79783 0
M  V30 3695 N 346.008 -4.6034 -3.22558 0
M  V30 3696 H 338.159 -2.10868 -0.254676 0
M  V30 3697 H 340.422 -0.931615 -0.175493 0
M  V30 3698 H 340.128 -3.29747 -1.22311 0
M  V30 3699 H 340.002 -2.53114 -2.79666 0
M  V30 3700 H 342.389 -1.58898 -2.48667 0
M  V30 3701 H 342.47 -2.39022 -0.911148 0
M  V30 3702 H 342.114 -4.64131 -2.06263 0
M  V30 3703 H 342.044 -3.80902 -3.63622 0
M  V30 3704 H 344.535 -2.99648 -2.30259 0
M  V30 3705 H 344.848 -6.48867 -4.19752 0
M  V30 3706 H 343.193 -5.83166 -3.78078 0
M  V30 3707 H 346.384 -3.76244 -2.78492 0
M  V30 3708 H 346.557 -5.35478 -3.64921 0
M  V30 3709 N 339.963 1.05934 -1.16686 0
M  V30 3710 C 341.374 1.60263 -0.957745 0
M  V30 3711 C 341.725 1.89789 0.49745 0
M  V30 3712 O 340.85 1.67401 1.37135 0
M  V30 3713 C 341.445 2.91172 -1.73218 0
M  V30 3714 C 340.004 3.42188 -1.56794 0
M  V30 3715 C 339.151 2.16028 -1.73859 0
M  V30 3716 H 342.102 0.888392 -1.31504 0
M  V30 3717 H 342.123 3.60744 -1.21014 0
M  V30 3718 H 341.635 2.6965 -2.79124 0
M  V30 3719 H 339.736 3.68762 -0.533437 0
M  V30 3720 H 339.849 4.17273 -2.35414 0
M  V30 3721 H 338.213 2.26426 -1.16633 0
M  V30 3722 H 338.996 1.96985 -2.81161 0
M  V30 3723 N 341.441 0.965919 1.2453 0
M  V30 3724 C 342.404 0.499547 2.2369 0
M  V30 3725 C 343.404 -0.40294 1.5567 0
M  V30 3726 O 344.594 -0.19865 1.73064 0
M  V30 3727 C 341.726 -0.276792 3.39774 0
M  V30 3728 H 342.919 1.37613 2.66463 0
M  V30 3729 H 340.472 0.750324 1.37112 0
M  V30 3730 H 341.207 -1.17055 3.02438 0
M  V30 3731 H 340.992 0.370826 3.90343 0
M  V30 3732 H 342.482 -0.592175 4.1338 0
M  V30 3733 N 342.919 -1.39368 0.735821 0
M  V30 3734 C 344.165 -2.00794 0.284544 0
M  V30 3735 C 344.498 -1.58255 -1.12557 0
M  V30 3736 O 343.773 -0.811819 -1.76748 0
M  V30 3737 C 344.056 -3.58011 0.387337 0
M  V30 3738 C 343.909 -4.10566 1.83728 0
M  V30 3739 C 345.228 -4.395 -0.22975 0
M  V30 3740 H 342.347 -0.729501 0.104866 0
M  V30 3741 H 344.989 -1.65564 0.93213 0
M  V30 3742 H 343.139 -3.88154 -0.164006 0
M  V30 3743 H 344.811 -3.91139 2.44556 0
M  V30 3744 H 343.054 -3.64095 2.35833 0
M  V30 3745 H 343.725 -5.19702 1.86047 0
M  V30 3746 H 346.201 -4.15406 0.240257 0
M  V30 3747 H 345.077 -5.48752 -0.127485 0
M  V30 3748 H 345.338 -4.22062 -1.3159 0
M  V30 3749 N 344.397 -0.483516 -1.5 0
M  V30 3750 C 345.813 -0.138404 -1.58999 0
M  V30 3751 C 346.013 1.35597 -1.4905 0
M  V30 3752 O 345.069 2.13039 -1.35539 0
M  V30 3753 C 346.382 -0.699658 -2.92447 0
M  V30 3754 C 347.93 -0.664195 -3.05872 0
M  V30 3755 C 348.405 -1.20321 -4.41913 0
M  V30 3756 N 349.896 -1.16315 -4.48358 0
M  V30 3757 C 350.631 -1.55058 -5.52037 0
M  V30 3758 N 350.127 -2.01311 -6.62907 0
M  V30 3759 N 351.92 -1.46584 -5.42651 0
M  V30 3760 H 344.071 -1.45529 -1.5471 0
M  V30 3761 H 346.334 -0.60258 -0.731848 0
M  V30 3762 H 346.04 -1.747 -3.05242 0
M  V30 3763 H 345.914 -0.150194 -3.76901 0
M  V30 3764 H 348.301 0.374272 -2.92717 0
M  V30 3765 H 348.382 -1.25061 -2.23144 0
M  V30 3766 H 348.026 -2.24037 -4.55818 0
M  V30 3767 H 347.956 -0.592896 -5.23252 0
M  V30 3768 H 350.447 -0.824058 -3.68806 0
M  V30 3769 H 350.76 -2.2899 -7.38095 0
M  V30 3770 H 349.105 -2.05273 -6.63994 0
M  V30 3771 H 352.296 -1.10281 -4.54924 0
M  V30 3772 H 352.469 -1.77103 -6.23329 0
M  V30 3773 N 345.875 1.56104 -0.216619 0
M  V30 3774 C 347.121 1.98466 0.417033 0
M  V30 3775 C 347.454 1.10403 1.59765 0
M  V30 3776 O 346.729 0.160632 1.93836 0
M  V30 3777 C 347.012 3.49769 0.85637 0
M  V30 3778 C 346.865 4.48606 -0.327546 0
M  V30 3779 C 348.184 4.05339 1.7143 0
M  V30 3780 H 345.303 0.721551 0.150112 0
M  V30 3781 H 347.945 1.87423 -0.311864 0
M  V30 3782 H 346.095 3.5931 1.47745 0
M  V30 3783 H 347.767 4.5108 -0.965618 0
M  V30 3784 H 346.01 4.22682 -0.975805 0
M  V30 3785 H 346.681 5.51995 0.0227149 0
M  V30 3786 H 349.157 3.98712 1.19031 0
M  V30 3787 H 348.033 5.11533 1.99061 0
M  V30 3788 H 348.294 3.51918 2.67593 0
M  V30 3789 N 347.353 -0.0568162 1.57498 0
M  V30 3790 C 348.3 -1.06591 2.04712 0
M  V30 3791 C 349.27 -1.3758 0.930644 0
M  V30 3792 O 350.455 -1.48392 1.19935 0
M  V30 3793 C 347.595 -2.3701 2.50839 0
M  V30 3794 C 346.708 -2.12421 3.76167 0
M  V30 3795 C 345.843 -3.36511 4.11015 0
M  V30 3796 C 344.882 -3.07353 5.2934 0
M  V30 3797 N 344.019 -4.23816 5.59754 0
M  V30 3798 H 348.859 -0.65631 2.90683 0
M  V30 3799 H 346.396 -0.312481 1.43743 0
M  V30 3800 H 348.354 -3.13175 2.7564 0
M  V30 3801 H 346.984 -2.75744 1.67825 0
M  V30 3802 H 346.036 -1.2688 3.58616 0
M  V30 3803 H 347.348 -1.86894 4.62463 0
M  V30 3804 H 346.502 -4.21062 4.36797 0
M  V30 3805 H 345.241 -3.65128 3.23315 0
M  V30 3806 H 344.246 -2.212 5.03339 0
M  V30 3807 H 345.471 -2.80043 6.1867 0
M  V30 3808 H 343.417 -4.52436 4.75014 0
M  V30 3809 H 343.334 -4.01614 6.40501 0
M  V30 3810 H 344.602 -5.0932 5.90096 0
M  V30 3811 N 348.832 -1.54138 -0.328536 0
M  V30 3812 C 349.779 -1.83176 -1.40411 0
M  V30 3813 C 350.749 -0.678494 -1.5161 0
M  V30 3814 O 351.934 -0.92443 -1.6691 0
M  V30 3815 C 349.074 -2.06035 -2.76846 0
M  V30 3816 C 348.187 -3.33727 -2.74318 0
M  V30 3817 C 347.322 -3.46574 -4.02567 0
M  V30 3818 C 346.361 -4.68159 -3.94327 0
M  V30 3819 N 345.498 -4.77959 -5.14296 0
M  V30 3820 H 350.338 -2.74938 -1.14948 0
M  V30 3821 H 347.875 -1.36166 -0.556538 0
M  V30 3822 H 349.833 -2.1728 -3.56153 0
M  V30 3823 H 348.463 -1.1757 -3.00628 0
M  V30 3824 H 347.515 -3.31246 -1.8703 0
M  V30 3825 H 348.827 -4.23139 -2.64111 0
M  V30 3826 H 347.981 -3.57333 -4.90304 0
M  V30 3827 H 346.72 -2.55245 -4.15574 0
M  V30 3828 H 345.725 -4.57461 -3.04974 0
M  V30 3829 H 346.95 -5.60868 -3.82889 0
M  V30 3830 H 344.896 -3.89544 -5.27818 0
M  V30 3831 H 344.813 -5.6133 -5.06404 0
M  V30 3832 H 346.081 -4.93044 -6.03761 0
M  V30 3833 N 350.31 0.590341 -1.46126 0
M  V30 3834 C 351.22 1.72793 -1.58681 0
M  V30 3835 C 352.236 1.67516 -0.470566 0
M  V30 3836 O 353.412 1.87562 -0.733642 0
M  V30 3837 C 350.477 3.09287 -1.5666 0
M  V30 3838 C 349.538 3.25886 -2.79458 0
M  V30 3839 C 348.771 4.55869 -2.77524 0
M  V30 3840 O 348.994 5.3928 -1.85832 0
M  V30 3841 O 347.928 4.75552 -3.68964 0
M  V30 3842 H 351.754 1.65149 -2.54872 0
M  V30 3843 H 349.339 0.756486 -1.28832 0
M  V30 3844 H 351.221 3.90577 -1.58202 0
M  V30 3845 H 349.896 3.17385 -0.636271 0
M  V30 3846 H 348.803 2.44119 -2.83472 0
M  V30 3847 H 350.136 3.22675 -3.71674 0
M  V30 3848 N 351.788 1.33704 0.83433 0
M  V30 3849 C 352.698 1.26382 1.97648 0
M  V30 3850 C 353.714 0.173548 1.73132 0
M  V30 3851 O 354.89 0.397962 1.97429 0
M  V30 3852 C 351.955 1.00769 3.31733 0
M  V30 3853 C 351.016 2.1884 3.69334 0
M  V30 3854 C 350.249 1.9444 4.9702 0
M  V30 3855 O 350.472 0.896961 5.63303 0
M  V30 3856 O 349.406 2.81093 5.32231 0
M  V30 3857 H 353.232 2.22444 2.06767 0
M  V30 3858 H 350.817 1.13795 0.968037 0
M  V30 3859 H 352.699 0.882186 4.12062 0
M  V30 3860 H 351.374 0.0773783 3.23608 0
M  V30 3861 H 350.281 2.36946 2.89495 0
M  V30 3862 H 351.614 3.10221 3.82131 0
M  V30 3863 O 353.305 -0.972346 1.28948 0
M  V30 3864 H 353.996 -1.59791 1.09484 0
M  V30 END ATOM
M  V30 BEGIN BOND
M  V30 END BOND
M  V30 END CTAB
M  END
$$$$
