drugbank_target|P63261 Actin, cytoplasmic 2 (DB09130; DB11638)
 OpenBabel12092121013D

  0  0  0     0  0            999 V3000
M  V30 BEGIN CTAB
M  V30 COUNTS 5828 5891 0 0 0
M  V30 BEGIN ATOM
M  V30 1 H -0.908 1.98254 -0.117106 0
M  V30 2 N 0 1.576 0 0
M  V30 3 C 0.933 2.03868 1.02534 0
M  V30 4 C 1.911 0.928543 1.3348 0
M  V30 5 O 3.095 1.19667 1.45644 0
M  V30 6 C 0.222 2.43627 2.35294 0
M  V30 7 C -0.732 3.65373 2.2001 0
M  V30 8 S 0.101 5.13292 1.52614 0
M  V30 9 C 1.257 5.56322 2.86805 0
M  V30 10 H 1.49 2.90518 0.631377 0
M  V30 11 H -0.977 1.52953 0.210867 0
M  V30 12 H 0.981 2.67203 3.11629 0
M  V30 13 H -0.358 1.57376 2.7183 0
M  V30 14 H -1.165 3.90944 3.18086 0
M  V30 15 H -1.563 3.418 1.51819 0
M  V30 16 H 0.729 5.58782 3.83104 0
M  V30 17 H 1.672 6.56266 2.65933 0
M  V30 18 H 2.08 4.83886 2.90714 0
M  V30 19 N 1.4781 -0.272755 1.55222 0
M  V30 20 C 2.3881 -1.35918 1.91216 0
M  V30 21 C 3.4041 -1.54026 0.809436 0
M  V30 22 O 4.5801 -1.68148 1.10852 0
M  V30 23 C 1.6451 -2.69834 2.17693 0
M  V30 24 C 0.7061 -2.6047 3.41253 0
M  V30 25 C -0.0609 -3.88 3.66458 0
M  V30 26 O 0.1621 -4.88693 2.94169 0
M  V30 27 O -0.9039 -3.88189 4.59992 0
M  V30 28 H 2.9221 -1.0839 2.83699 0
M  V30 29 H 0.5071 -0.471301 1.41771 0
M  V30 30 H 2.3891 -3.49017 2.36147 0
M  V30 31 H 1.0641 -2.97148 1.28392 0
M  V30 32 H -0.0289 -1.79663 3.28134 0
M  V30 33 H 1.3041 -2.38106 4.30774 0
M  V30 34 N 2.9562 -1.48159 -0.537278 0
M  V30 35 C 3.8662 -1.64807 -1.6696 0
M  V30 36 C 4.8822 -0.530651 -1.65711 0
M  V30 37 O 6.0582 -0.800784 -1.84796 0
M  V30 38 C 3.1232 -1.67708 -3.03438 0
M  V30 39 C 2.1842 -2.91025 -3.156 0
M  V30 40 C 1.4172 -2.93778 -4.45567 0
M  V30 41 O 1.6402 -2.05153 -5.3223 0
M  V30 42 O 0.5742 -3.85868 -4.61941 0
M  V30 43 H 4.4002 -2.6066 -1.55853 0
M  V30 44 H 1.9852 -1.31475 -0.709549 0
M  V30 45 H 3.8672 -1.7218 -3.84619 0
M  V30 46 H 2.5422 -0.750278 -3.14885 0
M  V30 47 H 1.4492 -2.92089 -2.33741 0
M  V30 48 H 2.7822 -3.83065 -3.09066 0
M  V30 49 N 4.4343 0.785586 -1.36625 0
M  V30 50 C 5.3443 1.92964 -1.33425 0
M  V30 51 C 6.3603 1.72394 -0.235851 0
M  V30 52 O 7.5363 1.95866 -0.468878 0
M  V30 53 C 4.6013 3.27884 -1.12662 0
M  V30 54 C 3.6623 3.61204 -2.32013 0
M  V30 55 C 2.8953 4.89687 -2.12231 0
M  V30 56 O 3.1183 5.59704 -1.09945 0
M  V30 57 O 2.0523 5.21752 -3.00098 0
M  V30 58 H 5.8783 1.98613 -2.29753 0
M  V30 59 H 3.4633 0.926384 -1.17211 0
M  V30 60 H 5.3453 4.08614 -1.03016 0
M  V30 61 H 4.0203 3.23118 -0.193991 0
M  V30 62 H 2.9273 2.80765 -2.47228 0
M  V30 63 H 4.2603 3.70698 -3.23796 0
M  V30 64 N 5.9124 1.20967 1.01018 0
M  V30 65 C 7.1614 1.01796 1.74128 0
M  V30 66 C 7.4744 -0.449691 1.90361 0
M  V30 67 O 8.6804 -0.76068 2.60626 0
M  V30 68 C 7.1364 1.7727 3.13215 0
M  V30 69 C 6.7444 3.28171 3.04972 0
M  V30 70 C 8.4884 1.66489 3.90489 0
M  V30 71 C 6.3954 3.96156 4.39107 0
M  V30 72 H 5.3254 0.377276 0.652824 0
M  V30 73 H 7.9764 1.44651 1.12909 0
M  V30 74 H 6.3584 1.27205 3.75013 0
M  V30 75 H 7.5324 3.85499 2.52443 0
M  V30 76 H 5.8474 3.39437 2.41188 0
M  V30 77 H 8.4444 2.14617 4.89738 0
M  V30 78 H 8.7874 0.6222 4.11624 0
M  V30 79 H 9.3204 2.14003 3.35332 0
M  V30 80 H 6.0594 5.00604 4.23174 0
M  V30 81 H 5.5794 3.43617 4.91617 0
M  V30 82 H 7.2584 4.00774 5.07926 0
M  V30 83 N 7.3905 -1.2043 1.01659 0
M  V30 84 C 8.3535 -2.21433 0.591616 0
M  V30 85 C 9.3535 -1.57203 -0.338226 0
M  V30 86 O 10.5435 -1.73737 -0.126918 0
M  V30 87 C 7.6755 -3.40628 -0.136058 0
M  V30 88 H 8.8685 -2.60545 1.48514 0
M  V30 89 H 6.4215 -1.33893 0.806379 0
M  V30 90 H 7.1565 -3.07019 -1.04449 0
M  V30 91 H 6.9415 -3.88475 0.531917 0
M  V30 92 H 8.4315 -4.15475 -0.420735 0
M  V30 93 N 8.8686 -0.792821 -1.36206 0
M  V30 94 C 9.8316 -0.199459 -2.2833 0
M  V30 95 C 10.8316 0.605189 -1.48977 0
M  V30 96 O 12.0216 0.425685 -1.68919 0
M  V30 97 C 9.1536 0.723523 -3.33134 0
M  V30 98 H 10.3466 -1.01181 -2.82316 0
M  V30 99 H 7.8996 -0.562485 -1.45828 0
M  V30 100 H 8.6346 1.56008 -2.84309 0
M  V30 101 H 8.4196 0.148436 -3.91819 0
M  V30 102 H 9.9096 1.13344 -4.01924 0
M  V30 103 N 10.3467 1.47872 -0.545128 0
M  V30 104 C 11.2767 2.32661 0.197793 0
M  V30 105 C 12.2577 1.43041 0.920504 0
M  V30 106 O 13.4427 1.71912 0.90333 0
M  V30 107 C 10.5727 3.24569 1.23582 0
M  V30 108 C 9.5267 4.23333 0.630323 0
M  V30 109 C 8.8527 5.0448 1.77211 0
M  V30 110 C 10.1527 5.20704 -0.407974 0
M  V30 111 H 11.8467 2.95024 -0.510045 0
M  V30 112 H 9.3927 1.4187 -0.246731 0
M  V30 113 H 11.3457 3.8272 1.76362 0
M  V30 114 H 10.0697 2.60236 1.97344 0
M  V30 115 H 8.7287 3.6639 0.123922 0
M  V30 116 H 8.3767 4.36561 2.49847 0
M  V30 117 H 8.0767 5.71339 1.37281 0
M  V30 118 H 9.6007 5.65487 2.3034 0
M  V30 119 H 11.0147 5.7329 0.033305 0
M  V30 120 H 9.4117 5.95699 -0.725486 0
M  V30 121 H 10.4817 4.66917 -1.30828 0
M  V30 122 N 11.8248 0.280983 1.55075 0
M  V30 123 C 13.0708 -0.33461 2.00021 0
M  V30 124 C 13.4038 -1.55063 1.16915 0
M  V30 125 O 12.6788 -1.93006 0.240646 0
M  V30 126 C 12.9618 -0.711007 3.53011 0
M  V30 127 C 12.8148 0.512766 4.46868 0
M  V30 128 C 14.1338 -1.54522 4.12081 0
M  V30 129 H 11.2528 -0.120147 0.727141 0
M  V30 130 H 13.8948 0.389097 1.85973 0
M  V30 131 H 12.0448 -1.32761 3.65112 0
M  V30 132 H 13.7168 1.15131 4.46702 0
M  V30 133 H 11.9598 1.14975 4.18286 0
M  V30 134 H 12.6308 0.205556 5.51617 0
M  V30 135 H 15.1068 -1.02442 4.03293 0
M  V30 136 H 13.9828 -1.77739 5.19327 0
M  V30 137 H 14.2438 -2.52813 3.62682 0
M  V30 138 N 13.3029 -1.57598 0.00835791 0
M  V30 139 C 14.5519 -1.90107 -0.673968 0
M  V30 140 C 14.8649 -0.884275 -1.7447 0
M  V30 141 O 16.0709 -1.09987 -2.48224 0
M  V30 142 C 14.5269 -3.37497 -1.24995 0
M  V30 143 C 14.1349 -4.47491 -0.2136 0
M  V30 144 C 15.8789 -3.79104 -1.90999 0
M  V30 145 C 13.7859 -5.85963 -0.80005 0
M  V30 146 H 12.7159 -0.709393 -0.255495 0
M  V30 147 H 15.3669 -1.83365 0.0702693 0
M  V30 148 H 13.7489 -3.39102 -2.04513 0
M  V30 149 H 14.9229 -4.57414 0.557596 0
M  V30 150 H 13.2379 -4.14956 0.346474 0
M  V30 151 H 15.8349 -4.79901 -2.35795 0
M  V30 152 H 16.1779 -3.1306 -2.74407 0
M  V30 153 H 16.7109 -3.79833 -1.18203 0
M  V30 154 H 13.4499 -6.555 -0.00456708 0
M  V30 155 H 12.9699 -5.79687 -1.54021 0
M  V30 156 H 14.6489 -6.33884 -1.29615 0
M  V30 157 N 14.781 0.264519 -1.55364 0
M  V30 158 C 16.058 1.01677 -1.67096 0
M  V30 159 C 16.438 2.03996 -0.543015 0
M  V30 160 O 15.786 2.23907 0.45585 0
M  V30 161 C 15.996 1.66596 -3.0667 0
M  V30 162 C 17.344 2.17442 -3.64697 0
M  V30 163 O 18.368 1.76568 -3.09358 0
M  V30 164 O 17.227 2.92439 -4.61673 0
M  V30 165 H 14.321 0.472161 -0.678965 0
M  V30 166 H 16.867 0.259703 -1.67701 0
M  V30 167 H 15.639 0.924962 -3.80211 0
M  V30 168 H 15.262 2.48968 -3.10001 0
M  V30 169 N 16.2591 1.48442 0.529413 0
M  V30 170 C 17.2071 1.63452 1.65487 0
M  V30 171 C 18.2011 0.500955 1.61823 0
M  V30 172 O 19.4071 0.679695 1.66674 0
M  V30 173 H 15.7821 0.514905 0.548066 0
M  V30 174 H 17.7531 2.57975 1.49971 0
M  V30 175 C 16.5021 1.69196 3.03756 0
M  V30 176 H 15.8251 2.55784 3.07269 0
M  V30 177 H 17.2651 1.83743 3.82119 0
M  V30 178 C 15.7241 0.430765 3.34135 0
M  V30 179 O 16.2541 -0.4561 3.99102 0
M  V30 180 N 14.4601 0.302293 2.89023 0
M  V30 181 H 14.0071 1.02496 2.36331 0
M  V30 182 H 13.9651 -0.540546 3.09718 0
M  V30 183 N 17.7372 -0.778329 1.37039 0
M  V30 184 C 18.9852 -1.53361 1.31623 0
M  V30 185 C 19.3062 -1.94739 -0.100831 0
M  V30 186 O 18.5762 -1.65797 -1.04347 0
M  V30 187 H 17.1562 -0.568794 0.484234 0
M  V30 188 H 19.8182 -0.926742 1.71457 0
M  V30 189 H 18.9142 -2.43606 1.95096 0
M  V30 190 N 19.2153 -1.21501 -1.00376 0
M  V30 191 C 20.4403 -1.05977 -1.78279 0
M  V30 192 C 20.8653 0.385994 -1.84097 0
M  V30 193 O 20.2233 1.27849 -1.28547 0
M  V30 194 C 20.2713 -1.66302 -3.19963 0
M  V30 195 O 19.3753 -0.909333 -4.0225 0
M  V30 196 H 18.7163 -0.372906 -0.549397 0
M  V30 197 H 21.2463 -1.6107 -1.26165 0
M  V30 198 H 21.2563 -1.70574 -3.70632 0
M  V30 199 H 19.9313 -2.71515 -3.15043 0
M  V30 200 H 18.5083 -0.941795 -3.60811 0
M  V30 201 N 20.6934 1.19889 -1.02296 0
M  V30 202 C 21.9414 1.89046 -0.714558 0
M  V30 203 C 22.2624 1.79636 0.758681 0
M  V30 204 O 21.5324 1.20292 1.54618 0
M  V30 205 H 20.1124 0.699802 -0.261317 0
M  V30 206 H 22.7744 1.45574 -1.29592 0
M  V30 207 H 21.8704 2.95524 -1.0036 0
M  V30 208 N 22.1715 0.800033 1.35784 0
M  V30 209 C 23.1045 0.151499 2.27697 0
M  V30 210 C 24.0825 -0.678663 1.4776 0
M  V30 211 O 25.2665 -0.647358 1.77035 0
M  V30 212 C 22.3935 -0.790492 3.29346 0
M  V30 213 C 21.4395 -0.0407832 4.26481 0
M  V30 214 S 22.2725 1.29077 5.19711 0
M  V30 215 C 23.4285 0.353055 6.24903 0
M  V30 216 H 23.6615 0.930796 2.82353 0
M  V30 217 H 21.1945 0.594767 1.42485 0
M  V30 218 H 23.1525 -1.3285 3.88409 0
M  V30 219 H 21.8135 -1.54312 2.73581 0
M  V30 220 H 21.0065 -0.755971 4.98298 0
M  V30 221 H 20.6085 0.427063 3.71554 0
M  V30 222 H 22.9005 -0.464147 6.75908 0
M  V30 223 H 23.8435 1.04023 7.00418 0
M  V30 224 H 24.2515 -0.0483344 5.64479 0
M  V30 225 N 23.6496 -1.47581 0.552962 0
M  V30 226 C 24.8896 -2.04379 0.0296245 0
M  V30 227 C 25.2536 -1.4185 -1.29393 0
M  V30 228 O 26.4546 -1.89669 -1.90471 0
M  V30 229 C 24.7256 -3.57339 -0.0661371 0
M  V30 230 S 26.2846 -4.35511 -0.536213 0
M  V30 231 H 23.1026 -0.710625 0.0230991 0
M  V30 232 H 25.7046 -1.81005 0.738734 0
M  V30 233 H 24.4086 -4.00374 0.901596 0
M  V30 234 H 23.9396 -3.85202 -0.798931 0
M  V30 235 H 25.9546 -4.6253 -1.79668 0
M  V30 236 N 25.1277 -0.289203 -1.54924 0
M  V30 237 C 26.0747 0.592115 -2.23075 0
M  V30 238 C 27.0447 1.13881 -1.20915 0
M  V30 239 O 28.2297 1.18551 -1.495 0
M  V30 240 C 25.3697 1.76376 -2.96623 0
M  V30 241 C 24.4827 1.24959 -4.13533 0
M  V30 242 C 23.6177 2.38416 -4.74691 0
M  V30 243 C 22.6567 1.84072 -5.83767 0
M  V30 244 N 21.7937 2.91057 -6.38929 0
M  V30 245 H 26.6337 0.00432038 -2.98 0
M  V30 246 H 24.1707 -0.00963529 -1.47097 0
M  V30 247 H 26.1287 2.45268 -3.3749 0
M  V30 248 H 24.7587 2.32337 -2.24097 0
M  V30 249 H 23.8107 0.453307 -3.77689 0
M  V30 250 H 25.1227 0.811662 -4.92152 0
M  V30 251 H 24.2767 3.15276 -5.18349 0
M  V30 252 H 23.0157 2.8553 -3.95378 0
M  V30 253 H 22.0207 1.05697 -5.39545 0
M  V30 254 H 23.2457 1.37877 -6.64956 0
M  V30 255 H 21.1917 3.37526 -5.62505 0
M  V30 256 H 21.1087 2.51724 -7.12861 0
M  V30 257 H 22.3767 3.6785 -6.87246 0
M  V30 258 N 26.6058 1.57591 -0.0167156 0
M  V30 259 C 27.5688 2.08393 0.954204 0
M  V30 260 C 28.5688 0.996531 1.26198 0
M  V30 261 O 29.7588 1.25858 1.20438 0
M  V30 262 C 26.8908 2.5394 2.27436 0
M  V30 263 H 28.0838 2.95455 0.514451 0
M  V30 264 H 25.6368 1.54582 0.231089 0
M  V30 265 H 26.3718 1.70171 2.76066 0
M  V30 266 H 26.1568 3.33371 2.06412 0
M  V30 267 H 27.6468 2.93512 2.97053 0
M  V30 268 N 28.0839 -0.256276 1.55502 0
M  V30 269 C 29.3319 -0.983672 1.76545 0
M  V30 270 C 29.6529 -1.86206 0.578982 0
M  V30 271 O 28.9229 -1.91656 -0.405577 0
M  V30 272 H 27.5029 -0.366191 0.651086 0
M  V30 273 H 30.1649 -0.276479 1.92929 0
M  V30 274 H 29.2609 -1.61087 2.67315 0
M  V30 275 N 29.562 -1.4872 -0.521534 0
M  V30 276 C 30.809 -1.57168 -1.27689 0
M  V30 277 C 31.137 -0.249275 -1.92896 0
M  V30 278 O 30.392 0.761162 -1.80291 0
M  V30 279 C 30.691 -2.66497 -2.38148 0
M  V30 280 C 30.357 -4.08664 -1.90538 0
M  V30 281 C 29.019 -4.47357 -1.77271 0
M  V30 282 C 31.371 -4.97724 -1.54663 0
M  V30 283 C 28.699 -5.72905 -1.26478 0
M  V30 284 C 31.051 -6.2377 -1.05329 0
M  V30 285 C 29.715 -6.61311 -0.906861 0
M  V30 286 H 28.985 -0.575117 -0.467249 0
M  V30 287 H 31.632 -1.82472 -0.581051 0
M  V30 288 H 29.937 -2.35085 -3.13437 0
M  V30 289 H 31.634 -2.70246 -2.96257 0
M  V30 290 H 28.224 -3.78111 -2.01816 0
M  V30 291 H 32.408 -4.68501 -1.63768 0
M  V30 292 H 27.664 -6.00709 -1.13835 0
M  V30 293 H 31.838 -6.9217 -0.76644 0
M  V30 294 H 29.465 -7.5848 -0.511083 0
M  V30 295 N 31.0401 0.771051 -1.3745 0
M  V30 296 C 32.0031 1.86598 -1.33093 0
M  V30 297 C 33.0031 1.59076 -0.234845 0
M  V30 298 O 34.1931 1.67145 -0.490732 0
M  V30 299 C 31.3251 3.23747 -1.06773 0
M  V30 300 H 32.5181 1.91873 -2.30488 0
M  V30 301 H 30.0711 0.970876 -1.2249 0
M  V30 302 H 30.8061 3.24148 -0.099129 0
M  V30 303 H 30.5911 3.45115 -1.86112 0
M  V30 304 H 32.0811 4.03824 -1.06377 0
M  V30 305 N 32.5182 1.22032 0.997298 0
M  V30 306 C 33.7662 1.04016 1.73278 0
M  V30 307 C 34.0872 -0.426255 1.90284 0
M  V30 308 O 33.3572 -1.30694 1.45931 0
M  V30 309 H 31.9372 0.381897 0.642 0
M  V30 310 H 34.5992 1.5347 1.20137 0
M  V30 311 H 33.6952 1.51441 2.72896 0
M  V30 312 N 33.9963 -1.19345 1.0293 0
M  V30 313 C 35.2733 -1.84811 0.640642 0
M  V30 314 C 35.6533 -1.91855 -0.88062 0
M  V30 315 O 35.0013 -1.43587 -1.7775 0
M  V30 316 C 35.2113 -3.23755 1.30321 0
M  V30 317 C 36.5593 -3.99912 1.42673 0
M  V30 318 O 37.5833 -3.33155 1.26041 0
M  V30 319 O 36.4423 -5.19494 1.6967 0
M  V30 320 H 33.5363 -0.796443 0.222726 0
M  V30 321 H 36.0823 -1.26831 1.12748 0
M  V30 322 H 34.8543 -3.13466 2.34211 0
M  V30 323 H 34.4773 -3.89381 0.804261 0
M  V30 324 N 35.4744 -0.807222 -1.35358 0
M  V30 325 C 36.7514 -0.311126 -1.9311 0
M  V30 326 C 37.1314 1.19937 -1.73719 0
M  V30 327 O 36.4794 1.99918 -1.10657 0
M  V30 328 C 36.6894 -0.723226 -3.41424 0
M  V30 329 C 38.0374 -0.713078 -4.18569 0
M  V30 330 O 39.0614 -0.664811 -3.49941 0
M  V30 331 O 37.9204 -0.772022 -5.41019 0
M  V30 332 H 35.0144 -0.081526 -0.822972 0
M  V30 333 H 37.5604 -0.890962 -1.4443 0
M  V30 334 H 36.3324 -1.76426 -3.4927 0
M  V30 335 H 35.9554 -0.118232 -3.97424 0
M  V30 336 N 36.9525 1.47285 -0.560781 0
M  V30 337 C 37.9155 2.28535 0.174488 0
M  V30 338 C 38.9155 1.37153 0.839388 0
M  V30 339 O 40.1055 1.59748 0.694702 0
M  V30 340 C 37.2375 3.16934 1.25561 0
M  V30 341 H 38.4305 2.95012 -0.539262 0
M  V30 342 H 35.9835 1.53034 -0.317865 0
M  V30 343 H 36.7185 2.55157 2.00164 0
M  V30 344 H 36.5035 3.8419 0.783604 0
M  V30 345 H 37.9935 3.78143 1.77193 0
M  V30 346 N 38.4306 0.297415 1.54768 0
M  V30 347 C 39.8416 -0.195947 1.85669 0
M  V30 348 C 40.1926 -1.53707 1.21937 0
M  V30 349 O 39.3176 -2.10164 0.515754 0
M  V30 350 C 39.9126 -0.362318 3.36857 0
M  V30 351 C 38.4716 -0.799901 3.67802 0
M  V30 352 C 37.6186 0.0938578 2.77141 0
M  V30 353 H 40.5696 0.518538 1.4999 0
M  V30 354 H 40.5906 -1.19745 3.61167 0
M  V30 355 H 40.1026 0.613921 3.83214 0
M  V30 356 H 38.2036 -1.78682 3.26961 0
M  V30 357 H 38.3166 -0.621773 4.75048 0
M  V30 358 H 36.6806 -0.426254 2.51108 0
M  V30 359 H 37.4636 1.06639 3.26318 0
M  V30 360 N 39.9087 -1.5758 0.0250728 0
M  V30 361 C 41.3247 -1.56124 -0.331282 0
M  V30 362 C 41.5247 -1.03029 -1.73169 0
M  V30 363 O 40.5807 -0.675215 -2.43305 0
M  V30 364 C 41.8937 -3.00139 -0.183584 0
M  V30 365 C 43.4417 -3.11946 -0.256654 0
M  V30 366 C 43.9167 -4.57793 -0.137792 0
M  V30 367 N 45.4077 -4.6279 -0.194904 0
M  V30 368 C 46.1427 -5.7326 -0.126655 0
M  V30 369 N 45.6387 -6.928 -0.00755288 0
M  V30 370 N 47.4317 -5.61811 -0.180348 0
M  V30 371 H 39.5827 -1.90424 0.94087 0
M  V30 372 H 41.8457 -0.875761 0.362968 0
M  V30 373 H 41.5517 -3.4292 0.780927 0
M  V30 374 H 41.4257 -3.64899 -0.955448 0
M  V30 375 H 43.8127 -2.69079 -1.21162 0
M  V30 376 H 43.8937 -2.49915 0.545517 0
M  V30 377 H 43.5377 -5.01339 0.813739 0
M  V30 378 H 43.4677 -5.17798 -0.958775 0
M  V30 379 H 45.9587 -3.76807 -0.287267 0
M  V30 380 H 46.2717 -7.72791 0.0379428 0
M  V30 381 H 44.6167 -6.94995 0.0271731 0
M  V30 382 H 47.8077 -4.6731 -0.271767 0
M  V30 383 H 47.9807 -6.47882 -0.123697 0
M  V30 384 N 41.3868 0.248026 -1.55636 0
M  V30 385 C 42.3498 1.29044 -1.89421 0
M  V30 386 C 43.3498 1.41134 -0.770581 0
M  V30 387 O 44.5398 1.39854 -1.03858 0
M  V30 388 C 41.6718 2.66831 -2.12165 0
M  V30 389 H 42.8648 1.00305 -2.82629 0
M  V30 390 H 40.4178 0.487265 -1.48511 0
M  V30 391 H 41.1528 3.00711 -1.21422 0
M  V30 392 H 40.9378 2.59438 -2.93997 0
M  V30 393 H 42.4278 3.42103 -2.3949 0
M  V30 394 N 42.8649 1.48995 0.513639 0
M  V30 395 C 44.1109 1.58076 1.27042 0
M  V30 396 C 44.4439 0.261026 1.92438 0
M  V30 397 O 43.7189 -0.734393 1.80103 0
M  V30 398 C 44.0019 2.73091 2.34719 0
M  V30 399 C 43.8549 4.14821 1.73907 0
M  V30 400 C 45.1739 2.83796 3.36375 0
M  V30 401 H 42.2929 0.575391 0.460536 0
M  V30 402 H 44.9349 1.81232 0.570516 0
M  V30 403 H 43.0849 2.53479 2.94416 0
M  V30 404 H 44.7569 4.45917 1.18135 0
M  V30 405 H 42.9999 4.21058 1.0437 0
M  V30 406 H 43.6709 4.91147 2.51949 0
M  V30 407 H 46.1469 3.01611 2.86653 0
M  V30 408 H 45.0229 3.65971 4.09093 0
M  V30 409 H 45.2839 1.92624 3.9793 0
M  V30 410 N 44.343 -0.763751 1.37857 0
M  V30 411 C 45.59 -1.52257 1.33506 0
M  V30 412 C 45.918 -1.94343 -0.078022 0
M  V30 413 O 45.173 -1.64958 -1.05297 0
M  V30 414 C 45.472 -2.79499 2.22745 0
M  V30 415 C 45.138 -2.56426 3.70886 0
M  V30 416 C 43.8 -2.49842 4.11257 0
M  V30 417 C 46.152 -2.36008 4.64704 0
M  V30 418 C 43.48 -2.20841 5.43549 0
M  V30 419 C 45.832 -2.0853 5.97242 0
M  V30 420 C 44.496 -2.00396 6.36709 0
M  V30 421 H 43.766 -0.557149 0.488534 0
M  V30 422 H 46.413 -0.879073 1.70131 0
M  V30 423 H 44.718 -3.48447 1.79142 0
M  V30 424 H 46.415 -3.37413 2.16688 0
M  V30 425 H 43.005 -2.62416 3.38874 0
M  V30 426 H 47.189 -2.40079 4.34368 0
M  V30 427 H 42.445 -2.13045 5.73081 0
M  V30 428 H 46.619 -1.91732 6.69486 0
M  V30 429 H 44.246 -1.77688 7.39142 0
M  V30 430 N 45.8211 -1.22559 -0.990812 0
M  V30 431 C 47.2321 -1.04791 -1.54518 0
M  V30 432 C 47.5831 0.387998 -1.92325 0
M  V30 433 O 46.7081 1.27328 -1.74976 0
M  V30 434 C 47.3031 -1.896 -2.80779 0
M  V30 435 C 45.8621 -1.76124 -3.32652 0
M  V30 436 C 45.0091 -1.8594 -2.05722 0
M  V30 437 H 47.9601 -1.36374 -0.811662 0
M  V30 438 H 47.9811 -1.41464 -3.53225 0
M  V30 439 H 47.4931 -2.94101 -2.53231 0
M  V30 440 H 45.5941 -0.743643 -3.65104 0
M  V30 441 H 45.7071 -2.58913 -4.03114 0
M  V30 442 H 44.0711 -1.29403 -2.19379 0
M  V30 443 H 44.8541 -2.91976 -1.80568 0
M  V30 444 N 47.2992 1.18797 -1.03562 0
M  V30 445 C 48.5242 1.9314 -0.755764 0
M  V30 446 C 48.9492 1.7537 0.68022 0
M  V30 447 O 48.3072 1.06046 1.47051 0
M  V30 448 C 48.3552 3.42747 -1.12058 0
M  V30 449 O 47.4592 4.11683 -0.243124 0
M  V30 450 H 46.8002 0.602724 -0.278604 0
M  V30 451 H 49.3302 1.50678 -1.3841 0
M  V30 452 H 49.3402 3.93437 -1.08035 0
M  V30 453 H 48.0152 3.55002 -2.16672 0
M  V30 454 H 46.5922 3.71323 -0.342539 0
M  V30 455 N 48.7773 0.814389 1.34928 0
M  V30 456 C 50.0263 0.394871 1.97797 0
M  V30 457 C 50.3393 -1.04555 1.65311 0
M  V30 458 O 51.5453 -1.56856 2.21604 0
M  V30 459 C 50.0013 0.655103 3.53888 0
M  V30 460 C 49.6093 2.10858 3.95276 0
M  V30 461 C 51.3533 0.301329 4.23429 0
M  V30 462 C 49.2603 2.31415 5.44244 0
M  V30 463 H 48.1903 0.143913 0.740139 0
M  V30 464 H 50.8413 0.999544 1.53888 0
M  V30 465 H 49.2233 -0.0196253 3.95995 0
M  V30 466 H 50.3973 2.82176 3.64298 0
M  V30 467 H 48.7123 2.42297 3.38646 0
M  V30 468 H 51.3093 0.432869 5.32945 0
M  V30 469 H 51.6523 -0.75331 4.09428 0
M  V30 470 H 52.1853 0.930288 3.86769 0
M  V30 471 H 48.9243 3.35353 5.63222 0
M  V30 472 H 48.4443 1.6463 5.76764 0
M  V30 473 H 50.1233 2.13352 6.10811 0
M  V30 474 N 50.2554 -1.46986 0.568584 0
M  V30 475 C 51.5014 -2.02741 0.0488709 0
M  V30 476 C 51.8344 -1.44077 -1.30214 0
M  V30 477 O 51.1094 -0.600552 -1.84996 0
M  V30 478 C 51.3924 -3.60086 -0.032047 0
M  V30 479 C 51.2454 -4.29162 1.34686 0
M  V30 480 C 52.5644 -4.33838 -0.739798 0
M  V30 481 H 49.6834 -0.736749 0.0192338 0
M  V30 482 H 52.3254 -1.75289 0.733065 0
M  V30 483 H 50.4754 -3.83606 -0.61473 0
M  V30 484 H 52.1474 -4.16948 1.97362 0
M  V30 485 H 50.3904 -3.89073 1.91846 0
M  V30 486 H 51.0614 -5.37826 1.24285 0
M  V30 487 H 53.5374 -4.15378 -0.244939 0
M  V30 488 H 52.4134 -5.43537 -0.765406 0
M  V30 489 H 52.6744 -4.03875 -1.79827 0
M  V30 490 N 51.7335 -0.305618 -1.54608 0
M  V30 491 C 52.9815 0.301701 -1.99835 0
M  V30 492 C 53.3025 1.54054 -1.19551 0
M  V30 493 O 52.5725 1.93702 -0.292658 0
M  V30 494 H 51.1525 0.114468 -0.738178 0
M  V30 495 H 53.8145 -0.418016 -1.90364 0
M  V30 496 H 52.9105 0.570548 -3.06841 0
M  V30 497 N 53.2116 1.57565 -0.0334293 0
M  V30 498 C 54.6276 1.56297 0.322997 0
M  V30 499 C 54.8276 1.03945 1.7262 0
M  V30 500 O 53.8836 0.688109 2.42943 0
M  V30 501 C 55.1966 3.00232 0.167664 0
M  V30 502 C 56.7446 3.12078 0.240107 0
M  V30 503 C 57.2196 4.57859 0.113513 0
M  V30 504 N 58.7106 4.62887 0.170359 0
M  V30 505 C 59.4456 5.73319 0.0962517 0
M  V30 506 N 58.9416 6.92794 -0.0291881 0
M  V30 507 N 60.7346 5.61898 0.150551 0
M  V30 508 H 52.8856 1.89923 -0.950956 0
M  V30 509 H 55.1486 0.873824 -0.367608 0
M  V30 510 H 54.8546 3.42501 -0.799102 0
M  V30 511 H 54.7286 3.654 0.936083 0
M  V30 512 H 57.1156 2.69718 1.19733 0
M  V30 513 H 57.1966 2.49623 -0.558763 0
M  V30 514 H 56.8406 5.009 -0.840314 0
M  V30 515 H 56.7706 5.18299 0.931302 0
M  V30 516 H 59.2616 3.76954 0.26728 0
M  V30 517 H 59.5746 7.7276 -0.0789252 0
M  V30 518 H 57.9196 6.94971 -0.0640299 0
M  V30 519 H 61.1106 4.67448 0.246981 0
M  V30 520 H 61.2836 6.47938 0.0893365 0
M  V30 521 N 54.6897 -0.239769 1.55765 0
M  V30 522 C 56.1007 -0.808263 1.68297 0
M  V30 523 C 56.4517 -1.85736 0.632181 0
M  V30 524 O 55.5767 -2.15277 -0.220204 0
M  V30 525 C 56.1717 -1.47284 3.05111 0
M  V30 526 C 54.7307 -1.98895 3.19559 0
M  V30 527 C 53.8777 -0.842575 2.64189 0
M  V30 528 H 56.8287 -0.0154422 1.58692 0
M  V30 529 H 56.8497 -2.34111 2.99954 0
M  V30 530 H 56.3617 -0.709053 3.81568 0
M  V30 531 H 54.4627 -2.78132 2.47938 0
M  V30 532 H 54.5757 -2.18143 4.26556 0
M  V30 533 H 52.9397 -1.24501 2.22197 0
M  V30 534 H 53.7227 -0.0917552 3.43177 0
M  V30 535 N 56.1678 -1.49265 -0.50573 0
M  V30 536 C 57.5838 -1.35923 -0.836486 0
M  V30 537 C 57.7838 -0.388704 -1.97715 0
M  V30 538 O 56.8398 0.181336 -2.51848 0
M  V30 539 C 58.1528 -2.76531 -1.18115 0
M  V30 540 C 59.7008 -2.85197 -1.28964 0
M  V30 541 C 60.1758 -4.26561 -1.66761 0
M  V30 542 N 61.6668 -4.2935 -1.73819 0
M  V30 543 C 62.4018 -5.35693 -2.045 0
M  V30 544 N 61.8978 -6.52287 -2.33438 0
M  V30 545 N 63.6908 -5.23105 -2.05711 0
M  V30 546 H 55.8418 -2.10965 0.246519 0
M  V30 547 H 58.1048 -0.9468 0.0476887 0
M  V30 548 H 57.8108 -3.49226 -0.416398 0
M  V30 549 H 57.6848 -3.11599 -2.1257 0
M  V30 550 H 60.0718 -2.12742 -2.04511 0
M  V30 551 H 60.1528 -2.53718 -0.325704 0
M  V30 552 H 59.7968 -4.99541 -0.917656 0
M  V30 553 H 59.7268 -4.55502 -2.64246 0
M  V30 554 H 62.2178 -3.4526 -1.53635 0
M  V30 555 H 62.5308 -7.29158 -2.56024 0
M  V30 556 H 60.8758 -6.55521 -2.30905 0
M  V30 557 H 64.0668 -4.31026 -1.82577 0
M  V30 558 H 64.2398 -6.06078 -2.29289 0
M  V30 559 N 57.6459 0.756429 -1.3826 0
M  V30 560 C 58.5959 1.86069 -1.31766 0
M  V30 561 C 59.5799 1.59621 -0.202483 0
M  V30 562 O 60.7719 1.7149 -0.438211 0
M  V30 563 C 57.9009 3.23742 -1.1422 0
M  V30 564 C 56.9869 3.56091 -2.30348 0
M  V30 565 N 57.3779 3.59517 -3.55783 0
M  V30 566 C 55.6759 3.86341 -2.22838 0
M  V30 567 C 56.3769 3.89052 -4.32451 0
M  V30 568 N 55.3529 4.05736 -3.61772 0
M  V30 569 H 59.1549 1.86992 -2.26741 0
M  V30 570 H 56.6689 0.953643 -1.31451 0
M  V30 571 H 58.6659 4.02761 -1.07652 0
M  V30 572 H 57.3259 3.24073 -0.201763 0
M  V30 573 H 58.3369 3.41347 -3.89491 0
M  V30 574 H 55.0139 3.94404 -1.36937 0
M  V30 575 H 56.4039 3.98349 -5.4108 0
M  V30 576 N 59.124 1.23083 0.984299 0
M  V30 577 C 60.056 0.96636 2.07832 0
M  V30 578 C 61.069 -0.0582135 1.62696 0
M  V30 579 O 62.258 0.176843 1.77622 0
M  V30 580 C 59.358 0.433397 3.36117 0
M  V30 581 C 58.531 1.51722 4.10243 0
M  V30 582 C 57.59 0.989821 5.16807 0
M  V30 583 O 56.616 1.67794 5.43906 0
M  V30 584 N 57.818 -0.184367 5.80207 0
M  V30 585 H 60.583 1.90824 2.31098 0
M  V30 586 H 58.144 1.13888 1.1507 0
M  V30 587 H 60.136 0.065699 4.04647 0
M  V30 588 H 58.706 -0.413806 3.09849 0
M  V30 589 H 57.926 2.05786 3.36223 0
M  V30 590 H 59.214 2.24619 4.56534 0
M  V30 591 H 58.612 -0.760062 5.60571 0
M  V30 592 H 57.169 -0.493366 6.4993 0
M  V30 593 N 60.6021 -1.18246 1.0419 0
M  V30 594 C 61.8501 -1.87886 0.744543 0
M  V30 595 C 62.1711 -1.8082 -0.730006 0
M  V30 596 O 61.4411 -1.22736 -1.52685 0
M  V30 597 H 60.0211 -0.695556 0.272417 0
M  V30 598 H 62.6831 -1.43494 1.31892 0
M  V30 599 H 61.7791 -2.9389 1.05049 0
M  V30 600 N 62.0802 -0.821533 -1.34494 0
M  V30 601 C 63.3262 -0.409552 -1.98622 0
M  V30 602 C 63.6592 1.0244 -1.64984 0
M  V30 603 O 62.9342 1.71325 -0.920758 0
M  V30 604 C 63.2172 -0.610458 -3.54888 0
M  V30 605 C 63.0702 -2.09043 -3.98273 0
M  V30 606 C 64.3892 -0.0455379 -4.40076 0
M  V30 607 H 61.5082 -0.15028 -0.721516 0
M  V30 608 H 64.1502 -1.03384 -1.59411 0
M  V30 609 H 62.3002 -0.079044 -3.8842 0
M  V30 610 H 63.9722 -2.68537 -3.75081 0
M  V30 611 H 62.2152 -2.58139 -3.48635 0
M  V30 612 H 62.8862 -2.18182 -5.07051 0
M  V30 613 H 65.3622 -0.499557 -4.1309 0
M  V30 614 H 64.2382 -0.215922 -5.48475 0
M  V30 615 H 64.4992 1.04939 -4.29465 0
M  V30 616 N 63.5583 1.46682 -0.576371 0
M  V30 617 C 64.4913 2.27243 0.208731 0
M  V30 618 C 65.4693 1.35238 0.902746 0
M  V30 619 O 66.6533 1.64641 0.917904 0
M  V30 620 C 63.7803 3.12802 1.29896 0
M  V30 621 C 62.8263 4.20524 0.711457 0
M  V30 622 S 63.6593 5.33548 -0.456781 0
M  V30 623 C 64.8153 6.22673 0.634798 0
M  V30 624 H 65.0483 2.93484 -0.474838 0
M  V30 625 H 62.5813 1.50069 -0.363118 0
M  V30 626 H 64.5393 3.62661 1.92321 0
M  V30 627 H 63.2003 2.45887 1.95444 0
M  V30 628 H 62.3933 4.80191 1.53076 0
M  V30 629 H 61.9953 3.73645 0.162999 0
M  V30 630 H 64.2873 6.60181 1.52209 0
M  V30 631 H 65.2303 7.0806 0.0750311 0
M  V30 632 H 65.6383 5.56684 0.936092 0
M  V30 633 N 65.0364 0.313813 1.54444 0
M  V30 634 C 66.2824 -0.292108 2.00685 0
M  V30 635 C 66.6154 -1.52548 1.20177 0
M  V30 636 O 65.8904 -1.92452 0.281531 0
M  V30 637 C 66.1734 -0.635968 3.5444 0
M  V30 638 C 66.0264 0.607437 4.4568 0
M  V30 639 C 67.3454 -1.45747 4.15266 0
M  V30 640 H 64.4644 -0.104697 0.729526 0
M  V30 641 H 67.1064 0.428457 1.85106 0
M  V30 642 H 65.2564 -1.24986 3.67846 0
M  V30 643 H 66.9284 1.24581 4.44159 0
M  V30 644 H 65.1714 1.23822 4.15753 0
M  V30 645 H 65.8424 0.322515 5.51057 0
M  V30 646 H 68.3184 -0.938645 4.05375 0
M  V30 647 H 67.1944 -1.66683 5.2298 0
M  V30 648 H 67.4554 -2.45063 3.67963 0
M  V30 649 N 66.5145 -1.57545 0.0417849 0
M  V30 650 C 67.7625 -1.91937 -0.632829 0
M  V30 651 C 68.0835 -0.919978 -1.71934 0
M  V30 652 O 67.3535 0.0366064 -1.95866 0
M  V30 653 H 65.9335 -0.708493 -0.236742 0
M  V30 654 H 68.5955 -1.9468 0.0925745 0
M  V30 655 H 67.6915 -2.92912 -1.07746 0
M  V30 656 N 67.9926 0.231505 -1.5589 0
M  V30 657 C 68.9256 1.31369 -1.86595 0
M  V30 658 C 69.9036 1.45671 -0.722397 0
M  V30 659 O 71.0876 1.61642 -0.969743 0
M  V30 660 C 68.2146 2.68529 -2.06421 0
M  V30 661 C 67.2606 2.71295 -3.29092 0
M  V30 662 S 68.0936 2.26358 -4.85306 0
M  V30 663 C 69.2496 3.65414 -5.08157 0
M  V30 664 H 69.4826 1.05128 -2.78092 0
M  V30 665 H 67.0156 0.433259 -1.48197 0
M  V30 666 H 68.9736 3.47499 -2.18528 0
M  V30 667 H 67.6346 2.91999 -1.15738 0
M  V30 668 H 66.8276 3.72063 -3.39978 0
M  V30 669 H 66.4296 2.0038 -3.15791 0
M  V30 670 H 68.7216 4.6103 -4.96445 0
M  V30 671 H 69.6646 3.5945 -6.10083 0
M  V30 672 H 70.0726 3.5864 -4.35933 0
M  V30 673 N 69.4707 1.49531 0.497807 0
M  V30 674 C 70.7187 1.58865 1.24926 0
M  V30 675 C 71.0397 0.278721 1.92998 0
M  V30 676 O 70.3097 -0.702144 1.82885 0
M  V30 677 H 68.8897 0.585343 0.464094 0
M  V30 678 H 71.5517 1.86174 0.57666 0
M  V30 679 H 70.6477 2.38633 2.01149 0
M  V30 680 N 70.9488 -0.749086 1.3866 0
M  V30 681 C 71.8808 -1.87273 1.32142 0
M  V30 682 C 72.8938 -1.61127 0.232787 0
M  V30 683 O 74.0828 -1.71623 0.49069 0
M  V30 684 C 71.1828 -3.23005 1.02571 0
M  V30 685 C 70.3558 -3.7662 2.22433 0
M  V30 686 C 69.4148 -4.90879 1.89537 0
M  V30 687 O 68.4408 -5.05276 2.62078 0
M  V30 688 N 69.6428 -5.74198 0.853031 0
M  V30 689 H 72.4078 -1.93373 2.28969 0
M  V30 690 H 69.9688 -0.929216 1.32579 0
M  V30 691 H 71.9608 -3.96992 0.786085 0
M  V30 692 H 70.5308 -3.12262 0.145249 0
M  V30 693 H 69.7508 -2.94147 2.62434 0
M  V30 694 H 71.0388 -4.09173 3.02415 0
M  V30 695 H 70.4368 -5.6514 0.25155 0
M  V30 696 H 68.9938 -6.48313 0.67329 0
M  V30 697 N 72.4269 -1.23603 -0.977757 0
M  V30 698 C 73.3739 -1.01954 -2.07061 0
M  V30 699 C 74.3439 0.0638697 -1.65977 0
M  V30 700 O 75.5289 -0.0887624 -1.90593 0
M  V30 701 C 72.6689 -0.619658 -3.39491 0
M  V30 702 C 71.7819 -1.77547 -3.93829 0
M  V30 703 C 70.9169 -1.32212 -5.14484 0
M  V30 704 C 69.9559 -2.44852 -5.60994 0
M  V30 705 N 69.0929 -2.00456 -6.72876 0
M  V30 706 H 73.9329 -1.95495 -2.24913 0
M  V30 707 H 71.4699 -0.973861 -1.10247 0
M  V30 708 H 73.4279 -0.368898 -4.15566 0
M  V30 709 H 72.0579 0.278752 -3.21594 0
M  V30 710 H 71.1099 -2.14016 -3.14486 0
M  V30 711 H 72.4219 -2.62219 -4.24314 0
M  V30 712 H 71.5759 -1.02965 -5.97899 0
M  V30 713 H 70.3149 -0.445808 -4.85658 0
M  V30 714 H 69.3199 -2.74871 -4.76157 0
M  V30 715 H 70.5449 -3.33024 -5.91837 0
M  V30 716 H 68.4909 -1.15208 -6.45804 0
M  V30 717 H 68.4079 -2.78687 -7.02759 0
M  V30 718 H 69.6759 -1.7432 -7.59758 0
M  V30 719 N 73.905 1.17692 -1.04816 0
M  V30 720 C 75.182 1.83768 -0.669963 0
M  V30 721 C 75.562 1.93232 0.849986 0
M  V30 722 O 74.91 1.46397 1.75443 0
M  V30 723 C 75.12 3.21641 -1.35455 0
M  V30 724 C 76.468 3.97592 -1.49017 0
M  V30 725 O 77.492 3.31107 -1.31326 0
M  V30 726 O 76.351 5.16729 -1.77914 0
M  V30 727 H 73.445 0.792799 -0.235368 0
M  V30 728 H 75.991 1.25021 -1.14751 0
M  V30 729 H 74.763 3.097 -2.39168 0
M  V30 730 H 74.386 3.88052 -0.866107 0
M  V30 731 N 75.3831 0.828654 1.34056 0
M  V30 732 C 76.6081 0.431637 2.02859 0
M  V30 733 C 77.0331 -0.956339 1.61975 0
M  V30 734 O 76.3911 -1.62338 0.807228 0
M  V30 735 C 76.4391 0.548323 3.56407 0
M  V30 736 O 75.5431 -0.429556 4.10157 0
M  V30 737 H 74.8841 0.176886 0.640006 0
M  V30 738 H 77.4141 1.12066 1.71179 0
M  V30 739 H 77.4241 0.426196 4.05768 0
M  V30 740 H 76.0991 1.5606 3.8551 0
M  V30 741 H 74.6761 -0.265836 3.71951 0
M  V30 742 N 76.8612 -1.46375 0.584142 0
M  V30 743 C 78.0912 -2.06461 0.0758195 0
M  V30 744 C 78.4992 -1.43322 -1.23512 0
M  V30 745 O 77.8422 -0.533216 -1.75791 0
M  V30 746 C 77.9042 -3.59131 -0.162773 0
M  V30 747 C 77.5682 -4.4447 1.06279 0
M  V30 748 C 78.5652 -4.80918 1.97519 0
M  V30 749 C 76.2502 -4.85584 1.28504 0
M  V30 750 C 78.2442 -5.57309 3.09331 0
M  V30 751 C 75.9312 -5.61734 2.4062 0
M  V30 752 C 76.9292 -5.9751 3.30863 0
M  V30 753 O 76.6172 -6.72121 4.41032 0
M  V30 754 H 76.3492 -0.673745 0.0551725 0
M  V30 755 H 78.9032 -1.88969 0.804984 0
M  V30 756 H 77.1332 -3.74936 -0.946565 0
M  V30 757 H 78.8222 -4.0114 -0.619782 0
M  V30 758 H 79.5882 -4.49732 1.81565 0
M  V30 759 H 75.4672 -4.57187 0.591702 0
M  V30 760 H 79.0112 -5.85152 3.79793 0
M  V30 761 H 74.9082 -5.92334 2.56537 0
M  V30 762 H 75.6762 -6.90547 4.39417 0
M  V30 763 N 78.3393 -0.321999 -1.54275 0
M  V30 764 C 79.5853 0.281461 -2.00837 0
M  V30 765 C 79.9183 1.51909 -1.20985 0
M  V30 766 O 79.1933 1.923 -0.291733 0
M  V30 767 C 79.4763 0.617162 -3.54772 0
M  V30 768 C 79.3293 -0.631064 -4.45351 0
M  V30 769 C 80.6483 1.43542 -4.16033 0
M  V30 770 H 77.7673 0.100826 -0.730071 0
M  V30 771 H 80.4093 -0.438268 -1.84876 0
M  V30 772 H 78.5593 1.23034 -3.68504 0
M  V30 773 H 80.2313 -1.26934 -4.43492 0
M  V30 774 H 78.4743 -1.26025 -4.15091 0
M  V30 775 H 79.1453 -0.351735 -5.50878 0
M  V30 776 H 81.6213 0.917134 -4.05867 0
M  V30 777 H 80.4973 1.63907 -5.23856 0
M  V30 778 H 80.7583 2.43108 -3.69257 0
M  V30 779 N 79.8174 1.5752 -0.0501392 0
M  V30 780 C 81.0654 1.9227 0.622642 0
M  V30 781 C 81.3864 0.929083 1.71444 0
M  V30 782 O 80.6564 -0.0262186 1.95882 0
M  V30 783 H 79.2364 0.709739 0.232981 0
M  V30 784 H 81.8984 1.94628 -0.102898 0
M  V30 785 H 80.9944 2.93479 1.06191 0
M  V30 786 N 81.2955 -0.223234 1.56011 0
M  V30 787 C 82.5725 -0.972108 1.69733 0
M  V30 788 C 82.9525 -2.02485 0.59691 0
M  V30 789 O 82.3005 -2.25037 -0.396324 0
M  V30 790 C 82.5105 -1.58407 3.10979 0
M  V30 791 C 83.8585 -2.07696 3.70334 0
M  V30 792 O 84.8825 -1.68304 3.1393 0
M  V30 793 O 83.7415 -2.80096 4.69264 0
M  V30 794 H 80.8355 -0.453993 0.691245 0
M  V30 795 H 83.3815 -0.215149 1.68331 0
M  V30 796 H 82.1535 -0.823831 3.82529 0
M  V30 797 H 81.7765 -2.40661 3.16493 0
M  V30 798 N 82.7736 -1.49793 -0.48987 0
M  V30 799 C 83.6836 -1.70036 -1.61632 0
M  V30 800 C 84.6996 -0.583102 -1.63939 0
M  V30 801 O 85.8756 -0.859169 -1.82154 0
M  V30 802 C 82.9406 -1.77277 -2.97949 0
M  V30 803 C 82.0016 -3.00918 -3.06181 0
M  V30 804 C 81.2346 -3.07804 -4.35996 0
M  V30 805 O 81.4576 -2.21982 -5.25433 0
M  V30 806 O 80.3916 -4.00369 -4.49431 0
M  V30 807 H 84.2176 -2.65486 -1.47482 0
M  V30 808 H 81.8026 -1.33666 -0.667362 0
M  V30 809 H 83.6846 -1.84329 -3.78947 0
M  V30 810 H 82.3596 -0.850076 -3.12339 0
M  V30 811 H 81.2666 -2.99377 -2.2433 0
M  V30 812 H 82.5996 -3.92704 -2.96723 0
M  V30 813 N 84.2517 0.741722 -1.39055 0
M  V30 814 C 85.2147 1.83733 -1.37021 0
M  V30 815 C 86.2147 1.58542 -0.268534 0
M  V30 816 O 87.4047 1.66067 -0.526076 0
M  V30 817 C 84.5367 3.2141 -1.13617 0
M  V30 818 H 85.7297 1.86941 -2.34506 0
M  V30 819 H 83.2827 0.944676 -1.24521 0
M  V30 820 H 84.0177 3.23865 -0.167863 0
M  V30 821 H 83.8027 3.4109 -1.93391 0
M  V30 822 H 85.2927 4.01477 -1.14918 0
M  V30 823 N 85.7298 1.2412 0.971189 0
M  V30 824 C 86.6618 0.988349 2.06795 0
M  V30 825 C 87.6748 -0.0409541 1.62748 0
M  V30 826 O 88.8638 0.195673 1.77424 0
M  V30 827 C 85.9638 0.469023 3.35639 0
M  V30 828 C 85.1368 1.56065 4.08611 0
M  V30 829 C 84.1958 1.04458 5.15728 0
M  V30 830 O 83.2218 1.73553 5.42096 0
M  V30 831 N 84.4238 -0.122817 5.8037 0
M  V30 832 H 87.1888 1.93265 2.29061 0
M  V30 833 H 84.7498 1.15102 1.13856 0
M  V30 834 H 86.7418 0.108613 4.04554 0
M  V30 835 H 85.3118 -0.380919 3.1027 0
M  V30 836 H 84.5318 2.09341 3.34021 0
M  V30 837 H 85.8198 2.29449 4.54126 0
M  V30 838 H 85.2178 -0.700563 5.61345 0
M  V30 839 H 83.7748 -0.424404 6.50417 0
M  V30 840 N 87.2079 -1.17134 1.05439 0
M  V30 841 C 88.4329 -1.91913 0.786396 0
M  V30 842 C 88.8579 -1.7643 -0.652234 0
M  V30 843 O 88.2159 -1.08372 -1.45345 0
M  V30 844 C 88.2639 -3.40921 1.17497 0
M  V30 845 O 87.3679 -4.11244 0.308589 0
M  V30 846 H 86.7089 -0.598215 0.288158 0
M  V30 847 H 89.2389 -1.48457 1.4079 0
M  V30 848 H 89.2489 -3.91668 1.14281 0
M  V30 849 H 87.9239 -3.5151 2.22292 0
M  V30 850 H 86.5009 -3.70731 0.40157 0
M  V30 851 N 88.686 -0.835752 -1.33615 0
M  V30 852 C 89.633 -0.26473 -2.29277 0
M  V30 853 C 90.603 0.617712 -1.54187 0
M  V30 854 O 91.788 0.556641 -1.825 0
M  V30 855 C 88.928 0.556777 -3.40579 0
M  V30 856 C 88.041 -0.349339 -4.30585 0
M  V30 857 C 87.176 0.482969 -5.29 0
M  V30 858 C 86.215 -0.421732 -6.10645 0
M  V30 859 N 85.352 0.372262 -7.01112 0
M  V30 860 H 90.192 -1.08582 -2.77514 0
M  V30 861 H 87.729 -0.546927 -1.36554 0
M  V30 862 H 89.687 1.04852 -4.03809 0
M  V30 863 H 88.317 1.34286 -2.93542 0
M  V30 864 H 87.369 -0.959372 -3.68104 0
M  V30 865 H 88.681 -1.04445 -4.87742 0
M  V30 866 H 87.835 1.03866 -5.97743 0
M  V30 867 H 86.574 1.21153 -4.72412 0
M  V30 868 H 85.579 -0.989464 -5.40823 0
M  V30 869 H 86.804 -1.14861 -6.69316 0
M  V30 870 H 84.75 1.08426 -6.46977 0
M  V30 871 H 84.667 -0.264198 -7.55538 0
M  V30 872 H 85.935 0.910293 -7.74167 0
M  V30 873 N 90.1641 1.46063 -0.591896 0
M  V30 874 C 91.5801 1.57561 -0.254288 0
M  V30 875 C 91.7801 1.58565 1.24336 0
M  V30 876 O 90.8361 1.50753 2.02558 0
M  V30 877 C 92.1491 2.86549 -0.911611 0
M  V30 878 C 93.6971 3.00197 -0.886059 0
M  V30 879 C 94.1721 4.31933 -1.5231 0
M  V30 880 N 95.6631 4.38654 -1.48786 0
M  V30 881 C 96.3981 5.39222 -1.95006 0
M  V30 882 N 95.8941 6.46414 -2.49241 0
M  V30 883 N 97.6871 5.3048 -1.85868 0
M  V30 884 H 89.8381 1.43655 -1.56451 0
M  V30 885 H 92.1011 0.68583 -0.654478 0
M  V30 886 H 91.8071 2.91651 -1.96551 0
M  V30 887 H 91.6811 3.74794 -0.425368 0
M  V30 888 H 94.0681 2.9467 0.159246 0
M  V30 889 H 94.1491 2.13403 -1.41041 0
M  V30 890 H 93.7931 4.38217 -2.56765 0
M  V30 891 H 93.7231 5.17516 -0.973891 0
M  V30 892 H 96.2141 3.61793 -1.09151 0
M  V30 893 H 96.5271 7.19376 -2.82344 0
M  V30 894 H 94.8721 6.47208 -2.53272 0
M  V30 895 H 98.0631 4.45643 -1.43248 0
M  V30 896 H 98.2361 6.08711 -2.22204 0
M  V30 897 N 91.6422 0.330177 1.54103 0
M  V30 898 C 92.8902 -0.269871 2.0029 0
M  V30 899 C 93.2112 -1.52133 1.21986 0
M  V30 900 O 92.4812 -1.93212 0.323438 0
M  V30 901 H 91.0612 -0.10271 0.739905 0
M  V30 902 H 93.7232 0.448249 1.89675 0
M  V30 903 H 92.8192 -0.52166 3.07709 0
M  V30 904 N 93.1203 -1.57491 0.0584922 0
M  V30 905 C 94.3693 -1.92155 -0.613146 0
M  V30 906 C 94.6823 -0.939334 -1.71569 0
M  V30 907 O 95.8883 -1.17829 -2.44599 0
M  V30 908 C 94.3443 -3.41303 -1.14195 0
M  V30 909 C 93.9523 -4.47944 -0.0711265 0
M  V30 910 C 95.6963 -3.84988 -1.78841 0
M  V30 911 C 93.6033 -5.88212 -0.613225 0
M  V30 912 H 92.5333 -0.717162 -0.232796 0
M  V30 913 H 95.1843 -1.83049 0.12857 0
M  V30 914 H 93.5663 -3.45437 -1.93621 0
M  V30 915 H 94.7403 -4.55408 0.702836 0
M  V30 916 H 93.0553 -4.13644 0.478313 0
M  V30 917 H 95.6523 -4.87159 -2.20408 0
M  V30 918 H 95.9953 -3.21632 -2.64308 0
M  V30 919 H 96.5283 -3.83401 -1.06059 0
M  V30 920 H 93.2673 -6.55183 0.203978 0
M  V30 921 H 92.7873 -5.84294 -1.35501 0
M  V30 922 H 94.4663 -6.37687 -1.09383 0
M  V30 923 N 94.5984 0.214957 -1.56127 0
M  V30 924 C 95.5284 1.2695 -1.95974 0
M  V30 925 C 96.5094 1.48539 -0.828868 0
M  V30 926 O 97.6944 1.60611 -1.09168 0
M  V30 927 C 94.8244 2.61794 -2.28214 0
M  V30 928 C 93.7784 2.54851 -3.43853 0
M  V30 929 C 93.1044 3.93785 -3.61715 0
M  V30 930 C 94.4044 2.09065 -4.78632 0
M  V30 931 H 96.0984 0.93846 -2.84312 0
M  V30 932 H 93.6444 0.449996 -1.36788 0
M  V30 933 H 95.5974 3.35731 -2.54682 0
M  V30 934 H 94.3214 2.96599 -1.36736 0
M  V30 935 H 92.9804 1.8337 -3.17444 0
M  V30 936 H 92.6284 4.25908 -2.67602 0
M  V30 937 H 92.3284 3.90019 -4.39498 0
M  V30 938 H 93.8524 4.69374 -3.90539 0
M  V30 939 H 95.2664 2.7275 -5.04262 0
M  V30 940 H 93.6634 2.16346 -5.59745 0
M  V30 941 H 94.7334 1.04315 -4.73547 0
M  V30 942 N 96.0765 1.50051 0.48192 0
M  V30 943 C 97.3045 1.64237 1.25832 0
M  V30 944 C 97.7195 0.321336 1.86045 0
M  V30 945 O 97.0765 -0.695478 1.68729 0
M  V30 946 C 97.1275 2.72548 2.37487 0
M  V30 947 O 96.8485 3.99529 1.79745 0
M  V30 948 C 98.3495 2.9761 3.28547 0
M  V30 949 H 95.5695 0.55237 0.380957 0
M  V30 950 H 98.1135 1.96207 0.576467 0
M  V30 951 H 96.2685 2.43303 3.01467 0
M  V30 952 H 96.6825 4.59342 2.5319 0
M  V30 953 H 98.1565 3.77084 4.03127 0
M  V30 954 H 98.6335 2.0826 3.86684 0
M  V30 955 H 99.2395 3.28345 2.70314 0
M  V30 956 N 97.5546 -0.734337 1.39446 0
M  V30 957 C 98.4846 -1.86155 1.40955 0
M  V30 958 C 99.4656 -1.67898 0.272827 0
M  V30 959 O 100.651 -1.88207 0.478743 0
M  V30 960 C 97.7806 -3.23912 1.25294 0
M  V30 961 C 96.7346 -3.56808 2.36373 0
M  V30 962 C 96.0606 -4.93508 2.058 0
M  V30 963 C 97.3606 -3.59713 3.78687 0
M  V30 964 H 99.0546 -1.8515 2.35287 0
M  V30 965 H 96.6006 -0.889367 1.13253 0
M  V30 966 H 98.5536 -4.02443 1.2497 0
M  V30 967 H 97.2776 -3.25446 0.274308 0
M  V30 968 H 95.9366 -2.80606 2.35914 0
M  V30 969 H 95.5846 -4.91623 1.06374 0
M  V30 970 H 95.2846 -5.16486 2.80208 0
M  V30 971 H 96.8086 -5.74396 2.07128 0
M  V30 972 H 98.2226 -4.2832 3.81071 0
M  V30 973 H 96.6196 -3.94209 4.52459 0
M  V30 974 H 97.6896 -2.59504 4.09617 0
M  V30 975 N 99.0327 -1.24633 -0.964593 0
M  V30 976 C 99.9797 -1.04144 -2.05968 0
M  V30 977 C 100.95 0.046262 -1.66036 0
M  V30 978 O 102.135 -0.108972 -1.90489 0
M  V30 979 C 99.2747 -0.65563 -3.38815 0
M  V30 980 C 98.3877 -1.81714 -3.91923 0
M  V30 981 C 97.5227 -1.37662 -5.13052 0
M  V30 982 C 96.5617 -2.50788 -5.58365 0
M  V30 983 N 95.6987 -2.07582 -6.70712 0
M  V30 984 H 100.539 -1.9787 -2.22827 0
M  V30 985 H 98.0757 -0.9855 -1.09208 0
M  V30 986 H 100.034 -0.412954 -4.15151 0
M  V30 987 H 98.6637 0.244627 -3.21872 0
M  V30 988 H 97.7157 -2.1734 -3.12198 0
M  V30 989 H 99.0277 -2.66705 -4.21509 0
M  V30 990 H 98.1817 -1.093 -5.96773 0
M  V30 991 H 96.9207 -0.497293 -4.85158 0
M  V30 992 H 95.9257 -2.79906 -4.73215 0
M  V30 993 H 97.1507 -3.39283 -5.88272 0
M  V30 994 H 95.0967 -1.22051 -6.44546 0
M  V30 995 H 95.0137 -2.86125 -6.99763 0
M  V30 996 H 96.2817 -1.82369 -7.57867 0
M  V30 997 N 100.511 1.16574 -1.06058 0
M  V30 998 C 101.741 1.90675 -0.795397 0
M  V30 999 C 102.149 1.77547 0.653735 0
M  V30 1000 O 101.492 1.11611 1.45907 0
M  V30 1001 C 101.554 3.42011 -1.10764 0
M  V30 1002 C 101.218 3.78924 -2.55471 0
M  V30 1003 C 102.215 3.81042 -3.53699 0
M  V30 1004 C 99.8998 4.09626 -2.90708 0
M  V30 1005 C 101.894 4.13346 -4.85205 0
M  V30 1006 C 99.5808 4.41597 -4.22416 0
M  V30 1007 C 100.579 4.43436 -5.19474 0
M  V30 1008 O 100.267 4.74649 -6.48817 0
M  V30 1009 H 99.9988 0.611554 -0.288058 0
M  V30 1010 H 102.553 1.48711 -1.41683 0
M  V30 1011 H 100.783 3.84312 -0.429128 0
M  V30 1012 H 102.472 3.97384 -0.827077 0
M  V30 1013 H 103.238 3.57437 -3.27817 0
M  V30 1014 H 99.1168 4.07361 -2.15819 0
M  V30 1015 H 102.661 4.14696 -5.60957 0
M  V30 1016 H 98.5578 4.64667 -4.48056 0
M  V30 1017 H 99.3258 4.9247 -6.5377 0
M  V30 1018 N 101.989 0.842826 1.3317 0
M  V30 1019 C 103.4 0.496651 1.79973 0
M  V30 1020 C 103.751 -0.984641 1.69703 0
M  V30 1021 O 102.876 -1.76743 1.24863 0
M  V30 1022 C 103.471 0.894727 3.26772 0
M  V30 1023 C 102.03 0.600629 3.71577 0
M  V30 1024 C 101.177 1.10091 2.5451 0
M  V30 1025 H 104.128 1.03116 1.20635 0
M  V30 1026 H 104.149 0.206347 3.7994 0
M  V30 1027 H 103.661 1.97287 3.34215 0
M  V30 1028 H 101.762 -0.467284 3.69658 0
M  V30 1029 H 101.875 1.15863 4.64879 0
M  V30 1030 H 100.239 0.52162 2.49301 0
M  V30 1031 H 101.022 2.18591 2.64713 0
M  V30 1032 N 103.467 -1.45747 0.599634 0
M  V30 1033 C 104.716 -2.01502 0.0893511 0
M  V30 1034 C 105.029 -1.4748 -1.28488 0
M  V30 1035 O 106.235 -1.95161 -1.88745 0
M  V30 1036 C 104.691 -3.59735 0.109082 0
M  V30 1037 C 104.299 -4.22754 1.48267 0
M  V30 1038 C 106.043 -4.23085 -0.346374 0
M  V30 1039 C 103.95 -5.73115 1.45921 0
M  V30 1040 H 102.88 -0.753417 0.0296347 0
M  V30 1041 H 105.531 -1.67303 0.753788 0
M  V30 1042 H 103.913 -3.91087 -0.621854 0
M  V30 1043 H 105.087 -4.02987 2.23468 0
M  V30 1044 H 103.402 -3.71567 1.87955 0
M  V30 1045 H 105.999 -5.33327 -0.38298 0
M  V30 1046 H 106.342 -3.93201 -1.36743 0
M  V30 1047 H 106.875 -3.9642 0.331038 0
M  V30 1048 H 103.614 -6.07685 2.45762 0
M  V30 1049 H 103.134 -5.95097 0.749665 0
M  V30 1050 H 104.813 -6.3616 1.17941 0
M  V30 1051 N 104.945 -0.338344 -1.53925 0
M  V30 1052 C 105.855 0.529421 -2.28548 0
M  V30 1053 C 106.871 1.11645 -1.3346 0
M  V30 1054 O 108.047 1.13325 -1.66492 0
M  V30 1055 C 105.112 1.66713 -3.03987 0
M  V30 1056 C 104.173 1.11041 -4.14691 0
M  V30 1057 C 103.406 2.19389 -4.86522 0
M  V30 1058 O 103.629 3.40013 -4.57982 0
M  V30 1059 O 102.563 1.83976 -5.73094 0
M  V30 1060 H 106.389 -0.0770399 -3.03602 0
M  V30 1061 H 103.974 -0.103555 -1.49041 0
M  V30 1062 H 105.856 2.32918 -3.5118 0
M  V30 1063 H 104.531 2.25949 -2.31794 0
M  V30 1064 H 103.438 0.413024 -3.71813 0
M  V30 1065 H 104.771 0.562975 -4.8897 0
M  V30 1066 N 106.423 1.57458 -0.0668435 0
M  V30 1067 C 107.373 2.0896 0.912119 0
M  V30 1068 C 108.357 0.998186 1.26195 0
M  V30 1069 O 109.549 1.26133 1.24175 0
M  V30 1070 C 106.678 2.6508 2.18145 0
M  V30 1071 C 105.764 3.81218 1.85832 0
M  V30 1072 N 106.155 4.90378 1.23948 0
M  V30 1073 C 104.453 3.9042 2.15612 0
M  V30 1074 C 105.154 5.71279 1.09616 0
M  V30 1075 N 104.13 5.19389 1.60423 0
M  V30 1076 H 107.932 2.90749 0.42924 0
M  V30 1077 H 105.446 1.6182 0.137184 0
M  V30 1078 H 107.443 3.0029 2.89192 0
M  V30 1079 H 106.103 1.84736 2.67025 0
M  V30 1080 H 107.114 5.09847 0.909731 0
M  V30 1081 H 103.791 3.21043 2.66903 0
M  V30 1082 H 105.181 6.69085 0.614425 0
M  V30 1083 N 107.901 -0.206675 1.56239 0
M  V30 1084 C 109.149 -0.927007 1.79586 0
M  V30 1085 C 109.47 -1.8427 0.637929 0
M  V30 1086 O 108.74 -1.92849 -0.344398 0
M  V30 1087 H 107.32 -0.345292 0.662407 0
M  V30 1088 H 109.982 -0.21496 1.93711 0
M  V30 1089 H 109.078 -1.52501 2.72305 0
M  V30 1090 N 109.379 -1.50304 -0.473955 0
M  V30 1091 C 110.628 -1.60392 -1.22301 0
M  V30 1092 C 110.941 -0.308411 -1.93153 0
M  V30 1093 O 112.147 -0.288156 -2.69966 0
M  V30 1094 C 110.603 -2.83109 -2.2221 0
M  V30 1095 C 110.211 -4.19524 -1.57173 0
M  V30 1096 C 111.955 -3.0254 -2.97775 0
M  V30 1097 C 109.862 -5.33431 -2.55353 0
M  V30 1098 H 108.792 -0.597286 -0.460179 0
M  V30 1099 H 111.443 -1.76731 -0.493803 0
M  V30 1100 H 109.825 -2.60322 -2.9841 0
M  V30 1101 H 110.999 -4.52554 -0.867824 0
M  V30 1102 H 109.314 -4.05674 -0.939002 0
M  V30 1103 H 111.911 -3.84811 -3.71248 0
M  V30 1104 H 112.254 -2.14154 -3.56992 0
M  V30 1105 H 112.787 -3.25494 -2.28688 0
M  V30 1106 H 109.526 -6.23962 -2.00878 0
M  V30 1107 H 109.046 -5.04823 -3.23904 0
M  V30 1108 H 110.725 -5.63887 -3.17239 0
M  V30 1109 N 110.857 0.726932 -1.39834 0
M  V30 1110 C 112.103 1.48884 -1.377 0
M  V30 1111 C 112.436 1.94185 0.0244852 0
M  V30 1112 O 111.711 1.67361 0.990986 0
M  V30 1113 C 111.994 2.72288 -2.3565 0
M  V30 1114 C 111.847 2.32956 -3.84775 0
M  V30 1115 C 113.166 3.74414 -2.31306 0
M  V30 1116 H 110.285 0.540062 -0.5015 0
M  V30 1117 H 112.927 0.830547 -1.70886 0
M  V30 1118 H 111.077 3.28457 -2.07481 0
M  V30 1119 H 112.749 1.82356 -4.23726 0
M  V30 1120 H 110.992 1.65088 -4.01159 0
M  V30 1121 H 111.663 3.21362 -4.4881 0
M  V30 1122 H 114.139 3.27849 -2.56231 0
M  V30 1123 H 113.015 4.58414 -3.01907 0
M  V30 1124 H 113.276 4.21909 -1.32081 0
M  V30 1125 N 112.336 1.25143 0.95797 0
M  V30 1126 C 113.564 1.12424 1.73691 0
M  V30 1127 C 113.979 -0.322304 1.86029 0
M  V30 1128 O 113.336 -1.22186 1.35561 0
M  V30 1129 C 113.387 1.76933 3.15241 0
M  V30 1130 O 113.108 3.15932 3.03511 0
M  V30 1131 C 114.609 1.6995 4.09429 0
M  V30 1132 H 111.829 0.3923 0.544373 0
M  V30 1133 H 114.373 1.6544 1.20207 0
M  V30 1134 H 112.528 1.27895 3.6568 0
M  V30 1135 H 112.942 3.47598 3.9278 0
M  V30 1136 H 114.416 2.19753 5.06372 0
M  V30 1137 H 114.893 0.662619 4.34173 0
M  V30 1138 H 115.499 2.18461 3.64904 0
M  V30 1139 N 113.814 -1.1601 1.06675 0
M  V30 1140 C 114.762 -2.22586 0.675157 0
M  V30 1141 C 115.756 -1.66525 -0.310766 0
M  V30 1142 O 116.962 -1.79145 -0.175215 0
M  V30 1143 H 113.337 -0.724855 0.200223 0
M  V30 1144 H 115.308 -2.52899 1.58381 0
M  V30 1145 C 114.057 -3.47604 0.0817162 0
M  V30 1146 H 113.38 -3.91058 0.831484 0
M  V30 1147 H 114.82 -4.23718 -0.154708 0
M  V30 1148 C 113.279 -3.15718 -1.17576 0
M  V30 1149 O 113.809 -3.31878 -2.26318 0
M  V30 1150 N 112.015 -2.69816 -1.07923 0
M  V30 1151 H 111.562 -2.56866 -0.194293 0
M  V30 1152 H 111.52 -2.48855 -1.92141 0
M  V30 1153 N 115.292 -0.849877 -1.32721 0
M  V30 1154 C 116.538 -0.460855 -1.9811 0
M  V30 1155 C 116.893 0.971716 -1.66059 0
M  V30 1156 O 116.186 1.67184 -0.935944 0
M  V30 1157 C 116.38 -0.631272 -3.51781 0
M  V30 1158 C 116.209 -2.07886 -3.98765 0
M  V30 1159 C 114.979 -2.71637 -4.26077 0
M  V30 1160 C 117.177 -3.04889 -4.14182 0
M  V30 1161 N 115.159 -4.07356 -4.59276 0
M  V30 1162 C 116.53 -4.25583 -4.50865 0
M  V30 1163 C 118.585 -3.01148 -3.96503 0
M  V30 1164 C 117.288 -5.43027 -4.71714 0
M  V30 1165 C 119.314 -4.17832 -4.18533 0
M  V30 1166 C 118.676 -5.37284 -4.55528 0
M  V30 1167 H 114.775 -0.217283 -0.751207 0
M  V30 1168 H 117.359 -1.10026 -1.60631 0
M  V30 1169 H 115.53 -0.0215966 -3.88394 0
M  V30 1170 H 117.262 -0.212614 -4.04141 0
M  V30 1171 H 114.017 -2.22705 -4.17971 0
M  V30 1172 H 114.441 -4.77351 -4.80068 0
M  V30 1173 H 119.083 -2.0992 -3.67006 0
M  V30 1174 H 116.801 -6.34791 -5.00066 0
M  V30 1175 H 120.387 -4.16368 -4.06361 0
M  V30 1176 H 119.267 -6.26071 -4.72234 0
M  V30 1177 N 116.77 1.45427 -0.607355 0
M  V30 1178 C 118.047 1.9557 -0.0344566 0
M  V30 1179 C 118.427 1.54979 1.43334 0
M  V30 1180 O 117.775 0.812241 2.13576 0
M  V30 1181 C 117.985 3.48226 -0.232321 0
M  V30 1182 C 119.333 4.2445 -0.113001 0
M  V30 1183 O 120.357 3.55829 -0.162431 0
M  V30 1184 O 119.216 5.465 0.00209442 0
M  V30 1185 H 116.31 0.826222 0.0358667 0
M  V30 1186 H 118.856 1.55594 -0.6774 0
M  V30 1187 H 117.628 3.70739 -1.25174 0
M  V30 1188 H 117.251 3.95092 0.445896 0
M  V30 1189 N 118.248 0.346503 1.53744 0
M  V30 1190 C 119.525 -0.304532 1.93215 0
M  V30 1191 C 119.905 -1.67993 1.27834 0
M  V30 1192 O 119.253 -2.24411 0.430352 0
M  V30 1193 C 119.463 -0.373852 3.46992 0
M  V30 1194 C 120.811 -0.62329 4.2 0
M  V30 1195 O 121.835 -0.455847 3.53271 0
M  V30 1196 O 120.694 -0.947879 5.38217 0
M  V30 1197 H 117.788 -0.178318 0.807547 0
M  V30 1198 H 120.334 0.397895 1.64969 0
M  V30 1199 H 119.106 0.591224 3.86808 0
M  V30 1200 H 118.729 -1.12294 3.81413 0
M  V30 1201 N 119.726 -1.57421 0.075193 0
M  V30 1202 C 120.659 -2.08528 -0.926904 0
M  V30 1203 C 121.637 -0.991171 -1.28898 0
M  V30 1204 O 122.821 -1.26479 -1.39769 0
M  V30 1205 C 119.948 -2.54576 -2.23402 0
M  V30 1206 C 118.994 -3.75454 -2.02327 0
M  V30 1207 S 119.827 -5.19989 -1.27951 0
M  V30 1208 C 120.983 -5.69372 -2.59935 0
M  V30 1209 H 121.216 -2.932 -0.492048 0
M  V30 1210 H 118.749 -1.53785 -0.137651 0
M  V30 1211 H 120.707 -2.81767 -2.98526 0
M  V30 1212 H 119.368 -1.70166 -2.64012 0
M  V30 1213 H 118.561 -4.05675 -2.99071 0
M  V30 1214 H 118.163 -3.48654 -1.35339 0
M  V30 1215 H 120.455 -5.76424 -3.56008 0
M  V30 1216 H 121.398 -6.68207 -2.34319 0
M  V30 1217 H 121.806 -4.97205 -2.67296 0
M  V30 1218 N 121.204 0.198386 -1.56346 0
M  V30 1219 C 122.114 1.2664 -1.97483 0
M  V30 1220 C 123.13 1.49989 -0.882002 0
M  V30 1221 O 124.306 1.62668 -1.18748 0
M  V30 1222 C 121.371 2.59141 -2.30319 0
M  V30 1223 C 120.432 2.43892 -3.53292 0
M  V30 1224 C 119.665 3.70074 -3.84553 0
M  V30 1225 O 119.888 4.74101 -3.1715 0
M  V30 1226 O 118.822 3.658 -4.7799 0
M  V30 1227 H 122.648 0.947304 -2.88548 0
M  V30 1228 H 120.233 0.403123 -1.43859 0
M  V30 1229 H 122.115 3.37352 -2.5253 0
M  V30 1230 H 120.79 2.90684 -1.42423 0
M  V30 1231 H 119.697 1.63803 -3.36332 0
M  V30 1232 H 121.03 2.17282 -4.41644 0
M  V30 1233 N 122.682 1.50554 0.465978 0
M  V30 1234 C 123.629 1.6979 1.56333 0
M  V30 1235 C 124.599 0.539239 1.57103 0
M  V30 1236 O 125.784 0.770401 1.74555 0
M  V30 1237 C 122.924 1.80273 2.94271 0
M  V30 1238 C 122.037 3.07674 3.0325 0
M  V30 1239 C 121.172 3.08922 4.32135 0
M  V30 1240 C 120.211 4.30755 4.34875 0
M  V30 1241 N 119.348 4.29714 5.55239 0
M  V30 1242 H 124.188 2.63472 1.39235 0
M  V30 1243 H 121.725 1.30602 0.676873 0
M  V30 1244 H 123.683 1.84332 3.74269 0
M  V30 1245 H 122.313 0.900258 3.09992 0
M  V30 1246 H 121.365 3.13062 2.16094 0
M  V30 1247 H 122.677 3.97642 3.01135 0
M  V30 1248 H 121.831 3.11738 5.20485 0
M  V30 1249 H 120.57 2.16792 4.36866 0
M  V30 1250 H 119.575 4.28146 3.44922 0
M  V30 1251 H 120.8 5.24117 4.31831 0
M  V30 1252 H 118.746 3.4044 5.60746 0
M  V30 1253 H 118.663 5.13456 5.54886 0
M  V30 1254 H 119.931 4.36683 6.457 0
M  V30 1255 N 124.16 -0.719506 1.40217 0
M  V30 1256 C 125.409 -1.47486 1.37589 0
M  V30 1257 C 125.722 -1.9559 -0.0201568 0
M  V30 1258 O 126.928 -2.70973 -0.169049 0
M  V30 1259 C 125.384 -2.66575 2.41796 0
M  V30 1260 C 124.992 -2.25358 3.87192 0
M  V30 1261 C 126.736 -3.4433 2.48269 0
M  V30 1262 C 124.643 -3.41262 4.83005 0
M  V30 1263 H 123.573 -0.553901 0.511576 0
M  V30 1264 H 126.224 -0.783427 1.65936 0
M  V30 1265 H 124.606 -3.3787 2.06543 0
M  V30 1266 H 125.78 -1.61509 4.31569 0
M  V30 1267 H 124.095 -1.60657 3.84159 0
M  V30 1268 H 126.692 -4.30569 3.17041 0
M  V30 1269 H 127.035 -3.87872 1.51198 0
M  V30 1270 H 127.568 -2.80076 2.82493 0
M  V30 1271 H 124.307 -3.02755 5.81394 0
M  V30 1272 H 123.827 -4.0404 4.43297 0
M  V30 1273 H 125.506 -4.07383 5.02641 0
M  V30 1274 N 125.638 -1.25649 -0.95132 0
M  V30 1275 C 126.884 -1.11766 -1.69941 0
M  V30 1276 C 127.239 0.33735 -1.89419 0
M  V30 1277 O 126.532 1.24491 -1.45645 0
M  V30 1278 C 126.726 -1.80909 -3.08231 0
M  V30 1279 C 126.555 -3.32984 -3.02245 0
M  V30 1280 C 125.325 -4.02247 -3.05819 0
M  V30 1281 C 127.523 -4.29332 -2.83157 0
M  V30 1282 N 125.505 -5.41072 -2.90024 0
M  V30 1283 C 126.876 -5.55265 -2.75828 0
M  V30 1284 C 128.931 -4.19707 -2.67863 0
M  V30 1285 C 127.634 -6.72671 -2.54767 0
M  V30 1286 C 129.66 -5.36809 -2.48173 0
M  V30 1287 C 129.022 -6.61683 -2.41567 0
M  V30 1288 H 125.121 -0.463708 -0.629682 0
M  V30 1289 H 127.705 -1.58796 -1.12659 0
M  V30 1290 H 125.876 -1.36369 -3.63673 0
M  V30 1291 H 127.608 -1.59739 -3.71841 0
M  V30 1292 H 124.363 -3.53531 -3.15139 0
M  V30 1293 H 124.787 -6.13938 -2.85323 0
M  V30 1294 H 129.429 -3.23907 -2.71743 0
M  V30 1295 H 127.147 -7.68577 -2.49629 0
M  V30 1296 H 130.733 -5.31224 -2.37259 0
M  V30 1297 H 129.613 -7.50768 -2.26531 0
M  V30 1298 N 127.117 1.15442 -1.07289 0
M  V30 1299 C 128.067 2.18164 -0.662467 0
M  V30 1300 C 129.051 1.57845 0.312074 0
M  V30 1301 O 130.243 1.76552 0.125905 0
M  V30 1302 C 127.372 3.43246 -0.0611295 0
M  V30 1303 C 126.458 4.1062 -1.06077 0
M  V30 1304 N 126.849 4.53491 -2.24008 0
M  V30 1305 C 125.147 4.36949 -0.893964 0
M  V30 1306 C 125.848 5.05731 -2.87422 0
M  V30 1307 N 124.824 4.99236 -2.15091 0
M  V30 1308 H 128.626 2.49038 -1.56068 0
M  V30 1309 H 126.14 1.32003 -0.945988 0
M  V30 1310 H 128.137 4.16145 0.250792 0
M  V30 1311 H 126.797 3.13854 0.832207 0
M  V30 1312 H 127.808 4.46898 -2.6173 0
M  V30 1313 H 124.485 4.17466 -0.0534693 0
M  V30 1314 H 125.875 5.48865 -3.87553 0
M  V30 1315 N 128.595 0.856903 1.32268 0
M  V30 1316 C 129.545 0.274899 2.26337 0
M  V30 1317 C 130.529 -0.580543 1.50062 0
M  V30 1318 O 131.721 -0.429559 1.71708 0
M  V30 1319 C 128.85 -0.533841 3.39124 0
M  V30 1320 C 127.936 0.334114 4.22782 0
M  V30 1321 N 128.327 1.42143 4.85416 0
M  V30 1322 C 126.625 0.124256 4.45827 0
M  V30 1323 C 127.326 1.95559 5.47843 0
M  V30 1324 N 126.302 1.25444 5.28928 0
M  V30 1325 H 130.104 1.10612 2.72291 0
M  V30 1326 H 127.618 0.703258 1.46383 0
M  V30 1327 H 129.615 -0.96722 4.05525 0
M  V30 1328 H 128.275 -1.36283 2.94715 0
M  V30 1329 H 129.286 1.80436 4.85451 0
M  V30 1330 H 125.963 -0.669837 4.12092 0
M  V30 1331 H 127.353 2.86714 6.07655 0
M  V30 1332 N 130.073 -1.45103 0.615059 0
M  V30 1333 C 131.301 -2.06553 0.11977 0
M  V30 1334 C 131.716 -1.45842 -1.19898 0
M  V30 1335 O 131.073 -0.575325 -1.73194 0
M  V30 1336 C 131.124 -3.61495 -0.018364 0
M  V30 1337 O 130.845 -4.19942 1.24822 0
M  V30 1338 C 132.346 -4.39947 -0.544237 0
M  V30 1339 H 129.566 -0.667096 0.0722739 0
M  V30 1340 H 132.11 -1.8623 0.84491 0
M  V30 1341 H 130.265 -3.81135 -0.693865 0
M  V30 1342 H 130.679 -5.13204 1.0827 0
M  V30 1343 H 132.153 -5.48838 -0.589953 0
M  V30 1344 H 132.63 -4.10255 -1.56805 0
M  V30 1345 H 133.236 -4.25188 0.0974703 0
M  V30 1346 N 131.551 -0.354651 -1.53558 0
M  V30 1347 C 132.798 0.238443 -2.01091 0
M  V30 1348 C 133.126 1.49663 -1.24222 0
M  V30 1349 O 132.381 1.93049 -0.321003 0
M  V30 1350 C 132.68 0.587121 -3.52545 0
M  V30 1351 C 132.346 -0.575472 -4.47213 0
M  V30 1352 C 131.008 -0.894497 -4.72813 0
M  V30 1353 C 133.36 -1.35489 -5.03281 0
M  V30 1354 C 130.688 -1.99511 -5.51736 0
M  V30 1355 C 133.04 -2.44583 -5.83405 0
M  V30 1356 C 131.704 -2.77033 -6.07296 0
M  V30 1357 H 130.974 0.0872526 -0.735845 0
M  V30 1358 H 133.621 -0.484859 -1.8526 0
M  V30 1359 H 131.926 1.39129 -3.66265 0
M  V30 1360 H 133.623 1.05809 -3.86789 0
M  V30 1361 H 130.213 -0.316774 -4.27428 0
M  V30 1362 H 134.397 -1.12167 -4.83459 0
M  V30 1363 H 129.653 -2.25063 -5.68469 0
M  V30 1364 H 133.827 -3.05401 -6.25862 0
M  V30 1365 H 131.454 -3.6244 -6.68237 0
M  V30 1366 N 133.029 1.57378 -0.0835403 0
M  V30 1367 C 134.259 1.97975 0.590713 0
M  V30 1368 C 134.667 0.961083 1.62972 0
M  V30 1369 O 134.01 -0.0590879 1.83605 0
M  V30 1370 C 134.072 3.34915 1.3066 0
M  V30 1371 C 133.736 4.55069 0.419698 0
M  V30 1372 C 134.733 5.18868 -0.32749 0
M  V30 1373 C 132.418 5.0114 0.341137 0
M  V30 1374 C 134.412 6.27098 -1.14134 0
M  V30 1375 C 132.099 6.0924 -0.476374 0
M  V30 1376 C 133.097 6.72083 -1.21627 0
M  V30 1377 O 132.785 7.781 -2.02028 0
M  V30 1378 H 132.517 0.655818 0.163947 0
M  V30 1379 H 135.071 2.04807 -0.156021 0
M  V30 1380 H 133.301 3.24733 2.09966 0
M  V30 1381 H 134.99 3.60037 1.87424 0
M  V30 1382 H 135.756 4.84211 -0.276459 0
M  V30 1383 H 131.635 4.51996 0.90668 0
M  V30 1384 H 135.179 6.7608 -1.71935 0
M  V30 1385 H 131.076 6.43329 -0.528927 0
M  V30 1386 H 131.844 7.95034 -1.94586 0
M  V30 1387 N 134.507 -0.190092 1.56449 0
M  V30 1388 C 135.455 -1.25501 1.95837 0
M  V30 1389 C 136.449 -1.4685 0.844485 0
M  V30 1390 O 137.655 -1.47651 1.02952 0
M  V30 1391 H 134.03 -0.421447 0.622805 0
M  V30 1392 H 136.001 -0.895821 2.84636 0
M  V30 1393 C 134.75 -2.59124 2.31841 0
M  V30 1394 H 134.073 -2.43514 3.17082 0
M  V30 1395 H 135.513 -3.32371 2.6326 0
M  V30 1396 C 133.972 -3.16488 1.15486 0
M  V30 1397 O 134.502 -3.99365 0.432535 0
M  V30 1398 N 132.708 -2.75305 0.930349 0
M  V30 1399 H 132.255 -2.08013 1.51948 0
M  V30 1400 H 132.213 -3.14024 0.153634 0
M  V30 1401 N 135.985 -1.50799 -0.457987 0
M  V30 1402 C 136.895 -1.73426 -1.57989 0
M  V30 1403 C 137.911 -0.617745 -1.62665 0
M  V30 1404 O 139.087 -0.897614 -1.80291 0
M  V30 1405 C 136.152 -1.83557 -2.94122 0
M  V30 1406 C 135.213 -3.07345 -2.99729 0
M  V30 1407 C 134.446 -3.16983 -4.29368 0
M  V30 1408 O 134.669 -2.33077 -5.20607 0
M  V30 1409 O 133.603 -4.09812 -4.40837 0
M  V30 1410 H 137.429 -2.68555 -1.41817 0
M  V30 1411 H 135.014 -1.35052 -0.638859 0
M  V30 1412 H 136.896 -1.92326 -3.74952 0
M  V30 1413 H 135.571 -0.916137 -3.10465 0
M  V30 1414 H 134.478 -3.04068 -2.1793 0
M  V30 1415 H 135.811 -3.9891 -2.88326 0
M  V30 1416 N 137.463 0.71206 -1.40597 0
M  V30 1417 C 138.393 1.83889 -1.43899 0
M  V30 1418 C 139.374 1.67442 -0.299504 0
M  V30 1419 O 140.559 1.87421 -0.508624 0
M  V30 1420 C 137.689 3.21877 -1.30431 0
M  V30 1421 C 136.643 3.53002 -2.42019 0
M  V30 1422 C 135.969 4.90172 -2.13626 0
M  V30 1423 C 137.269 3.53643 -3.84362 0
M  V30 1424 H 138.963 1.81383 -2.38203 0
M  V30 1425 H 136.509 0.871237 -1.14654 0
M  V30 1426 H 138.462 4.00404 -1.31357 0
M  V30 1427 H 137.186 3.24968 -0.326049 0
M  V30 1428 H 135.845 2.76818 -2.40349 0
M  V30 1429 H 135.493 4.89869 -1.14182 0
M  V30 1430 H 135.193 5.11962 -2.88389 0
M  V30 1431 H 136.717 5.71028 -2.1624 0
M  V30 1432 H 138.131 4.22203 -3.87837 0
M  V30 1433 H 136.528 3.86961 -4.58673 0
M  V30 1434 H 137.598 2.52954 -4.13693 0
M  V30 1435 N 138.941 1.26152 0.944643 0
M  V30 1436 C 140.357 1.03189 1.21754 0
M  V30 1437 C 140.557 -0.245112 2.00004 0
M  V30 1438 O 139.613 -0.955176 2.33736 0
M  V30 1439 C 140.926 2.26119 1.98219 0
M  V30 1440 C 142.474 2.30984 2.11224 0
M  V30 1441 C 142.949 3.53597 2.91089 0
M  V30 1442 N 144.44 3.54053 2.98664 0
M  V30 1443 C 145.175 4.45593 3.60881 0
M  V30 1444 N 144.671 5.47416 4.24626 0
M  V30 1445 N 146.464 4.33252 3.58119 0
M  V30 1446 H 138.615 2.08177 0.421437 0
M  V30 1447 H 140.878 0.914723 0.248969 0
M  V30 1448 H 140.584 3.18984 1.48128 0
M  V30 1449 H 140.458 2.3009 2.98895 0
M  V30 1450 H 142.845 1.38635 2.60508 0
M  V30 1451 H 142.926 2.31026 1.09821 0
M  V30 1452 H 142.57 4.46273 2.42493 0
M  V30 1453 H 142.5 3.50802 3.92741 0
M  V30 1454 H 144.991 2.80403 2.53343 0
M  V30 1455 H 145.304 6.13459 4.69987 0
M  V30 1456 H 143.649 5.51278 4.23223 0
M  V30 1457 H 146.84 3.52924 3.0751 0
M  V30 1458 H 147.013 5.04786 4.06319 0
M  V30 1459 N 140.419 -1.14872 1.07899 0
M  V30 1460 C 141.665 -1.86064 0.806725 0
M  V30 1461 C 141.998 -1.82434 -0.665706 0
M  V30 1462 O 141.273 -1.25138 -1.48899 0
M  V30 1463 C 141.556 -3.34929 1.32267 0
M  V30 1464 C 141.409 -3.47161 2.86006 0
M  V30 1465 C 142.728 -4.29863 0.943717 0
M  V30 1466 H 139.847 -0.675591 0.294526 0
M  V30 1467 H 142.489 -1.34925 1.33773 0
M  V30 1468 H 140.639 -3.78611 0.870974 0
M  V30 1469 H 142.311 -3.12302 3.39507 0
M  V30 1470 H 140.554 -2.88539 3.23925 0
M  V30 1471 H 141.225 -4.51777 3.17177 0
M  V30 1472 H 143.701 -3.9417 1.33302 0
M  V30 1473 H 142.577 -5.32494 1.33198 0
M  V30 1474 H 142.838 -4.41846 -0.149796 0
M  V30 1475 N 141.898 -0.863906 -1.31812 0
M  V30 1476 C 142.861 -0.320212 -2.26952 0
M  V30 1477 C 143.861 0.525369 -1.51975 0
M  V30 1478 O 145.051 0.335547 -1.70938 0
M  V30 1479 C 142.183 0.545919 -3.365 0
M  V30 1480 H 143.376 -1.16004 -2.76556 0
M  V30 1481 H 140.929 -0.638995 -1.42641 0
M  V30 1482 H 141.664 1.40718 -2.92179 0
M  V30 1483 H 141.449 -0.0594674 -3.92055 0
M  V30 1484 H 142.939 0.918796 -4.07367 0
M  V30 1485 N 143.376 1.44774 -0.622745 0
M  V30 1486 C 144.787 1.85546 -0.207226 0
M  V30 1487 C 145.138 1.52093 1.23944 0
M  V30 1488 O 144.263 0.95492 1.94191 0
M  V30 1489 C 144.858 3.36781 -0.369313 0
M  V30 1490 C 143.417 3.76399 -0.00836847 0
M  V30 1491 C 142.564 2.68664 -0.686651 0
M  V30 1492 H 145.515 1.3536 -0.828454 0
M  V30 1493 H 145.536 3.78453 0.394162 0
M  V30 1494 H 145.048 3.61098 -1.42231 0
M  V30 1495 H 143.149 3.57698 1.04322 0
M  V30 1496 H 143.262 4.7732 -0.412584 0
M  V30 1497 H 141.626 2.54404 -0.122777 0
M  V30 1498 H 142.409 2.95815 -1.74208 0
M  V30 1499 N 144.854 0.36279 1.53368 0
M  V30 1500 C 145.764 -0.492994 2.29362 0
M  V30 1501 C 146.78 -1.09507 1.35219 0
M  V30 1502 O 147.956 -1.10662 1.68273 0
M  V30 1503 C 145.021 -1.61855 3.066 0
M  V30 1504 C 144.082 -1.04429 4.16405 0
M  V30 1505 C 143.315 -2.11621 4.89951 0
M  V30 1506 O 143.538 -3.32684 4.63333 0
M  V30 1507 O 142.472 -1.74835 5.75948 0
M  V30 1508 H 146.298 0.125331 3.03441 0
M  V30 1509 H 143.883 0.127253 1.48857 0
M  V30 1510 H 145.765 -2.27302 3.54841 0
M  V30 1511 H 144.44 -2.22233 2.3536 0
M  V30 1512 H 143.347 -0.353819 3.72423 0
M  V30 1513 H 144.68 -0.485113 4.89804 0
M  V30 1514 N 146.332 -1.57332 0.0918853 0
M  V30 1515 C 147.242 -2.17368 -0.882505 0
M  V30 1516 C 148.258 -1.14226 -1.31257 0
M  V30 1517 O 149.434 -1.46582 -1.38115 0
M  V30 1518 C 146.499 -2.73962 -2.12476 0
M  V30 1519 C 145.56 -3.92048 -1.7492 0
M  V30 1520 C 144.793 -4.45933 -2.93223 0
M  V30 1521 O 145.016 -3.98764 -4.07852 0
M  V30 1522 O 143.95 -5.36999 -2.71875 0
M  V30 1523 H 147.776 -3.01031 -0.40172 0
M  V30 1524 H 145.361 -1.48813 -0.132291 0
M  V30 1525 H 147.243 -3.10147 -2.85283 0
M  V30 1526 H 145.918 -1.93347 -2.59613 0
M  V30 1527 H 144.825 -3.6068 -0.993025 0
M  V30 1528 H 146.158 -4.74017 -1.32548 0
M  V30 1529 N 147.81 0.181792 -1.56548 0
M  V30 1530 C 148.76 1.22961 -1.92002 0
M  V30 1531 C 149.744 1.40331 -0.787146 0
M  V30 1532 O 150.936 1.42478 -1.05019 0
M  V30 1533 C 148.065 2.57144 -2.27446 0
M  V30 1534 C 147.151 2.43512 -3.47222 0
M  V30 1535 N 147.542 1.99577 -4.64761 0
M  V30 1536 C 145.84 2.74368 -3.51622 0
M  V30 1537 C 146.541 1.98156 -5.46909 0
M  V30 1538 N 145.517 2.40164 -4.8767 0
M  V30 1539 H 149.319 0.881462 -2.8037 0
M  V30 1540 H 146.833 0.390141 -1.57644 0
M  V30 1541 H 148.83 3.32847 -2.51035 0
M  V30 1542 H 147.49 2.92771 -1.40411 0
M  V30 1543 H 148.501 1.70078 -4.89177 0
M  V30 1544 H 145.178 3.14102 -2.75038 0
M  V30 1545 H 146.568 1.65975 -6.51077 0
M  V30 1546 N 149.288 1.51039 0.449983 0
M  V30 1547 C 150.699 1.557 1.03026 0
M  V30 1548 C 151.05 0.372939 1.92623 0
M  V30 1549 O 150.175 -0.511771 2.10261 0
M  V30 1550 C 150.77 2.82171 1.87523 0
M  V30 1551 C 149.329 2.89444 2.40622 0
M  V30 1552 C 148.476 2.50228 1.19504 0
M  V30 1553 H 151.427 1.56999 0.231745 0
M  V30 1554 H 151.448 2.65219 2.72835 0
M  V30 1555 H 150.96 3.68331 1.22286 0
M  V30 1556 H 149.061 2.07685 3.0935 0
M  V30 1557 H 149.174 3.92816 2.74285 0
M  V30 1558 H 147.538 2.03139 1.53644 0
M  V30 1559 H 148.321 3.38719 0.558972 0
M  V30 1560 N 150.766 -0.704594 1.40972 0
M  V30 1561 C 152.012 -1.46675 1.40051 0
M  V30 1562 C 152.345 -1.94199 0.00641102 0
M  V30 1563 O 151.62 -1.68916 -0.964235 0
M  V30 1564 C 151.903 -2.68505 2.39952 0
M  V30 1565 C 151.756 -2.26805 3.88432 0
M  V30 1566 C 153.075 -3.70686 2.37233 0
M  V30 1567 H 150.194 -0.532015 0.510028 0
M  V30 1568 H 152.836 -0.803255 1.72185 0
M  V30 1569 H 150.986 -3.25114 2.1268 0
M  V30 1570 H 152.658 -1.75592 4.26574 0
M  V30 1571 H 150.901 -1.58685 4.03734 0
M  V30 1572 H 151.572 -3.14181 4.53866 0
M  V30 1573 H 154.048 -3.23731 2.61415 0
M  V30 1574 H 152.924 -4.53553 3.09162 0
M  V30 1575 H 153.185 -4.19754 1.38777 0
M  V30 1576 N 152.244 -1.26651 -0.937939 0
M  V30 1577 C 153.174 -1.10993 -2.05433 0
M  V30 1578 C 154.155 -0.0142161 -1.70094 0
M  V30 1579 O 155.34 -0.186837 -1.93299 0
M  V30 1580 C 152.47 -0.745561 -3.39203 0
M  V30 1581 C 151.424 -1.79337 -3.88616 0
M  V30 1582 C 150.75 -1.28324 -5.19073 0
M  V30 1583 C 152.05 -3.19553 -4.13138 0
M  V30 1584 H 153.744 -2.0438 -2.1879 0
M  V30 1585 H 151.29 -0.984041 -1.05131 0
M  V30 1586 H 153.243 -0.622888 -4.16771 0
M  V30 1587 H 151.967 0.22401 -3.25831 0
M  V30 1588 H 150.626 -1.90477 -3.13231 0
M  V30 1589 H 150.274 -0.303414 -5.02084 0
M  V30 1590 H 149.974 -1.98369 -5.53103 0
M  V30 1591 H 151.498 -1.1733 -5.99221 0
M  V30 1592 H 152.912 -3.11471 -4.81309 0
M  V30 1593 H 151.309 -3.87218 -4.58457 0
M  V30 1594 H 152.379 -3.65368 -3.18801 0
M  V30 1595 N 153.722 1.14298 -1.08507 0
M  V30 1596 C 154.652 2.21542 -0.737646 0
M  V30 1597 C 155.633 1.67773 0.280377 0
M  V30 1598 O 156.818 1.93616 0.150521 0
M  V30 1599 C 153.948 3.46988 -0.147259 0
M  V30 1600 C 152.902 4.13789 -1.09374 0
M  V30 1601 C 152.228 5.33449 -0.365524 0
M  V30 1602 C 153.528 4.62208 -2.4323 0
M  V30 1603 H 155.222 2.5086 -1.6343 0
M  V30 1604 H 152.768 1.20576 -0.787243 0
M  V30 1605 H 154.721 4.21262 0.107808 0
M  V30 1606 H 153.445 3.17037 0.784538 0
M  V30 1607 H 152.104 3.4147 -1.33393 0
M  V30 1608 H 151.752 4.99759 0.57011 0
M  V30 1609 H 151.452 5.79088 -0.996512 0
M  V30 1610 H 152.976 6.10485 -0.118534 0
M  V30 1611 H 154.39 5.27952 -2.23472 0
M  V30 1612 H 152.787 5.18553 -3.02031 0
M  V30 1613 H 153.857 3.77224 -3.04681 0
M  V30 1614 N 155.201 0.870884 1.31352 0
M  V30 1615 C 156.429 0.49677 2.00848 0
M  V30 1616 C 156.844 -0.910998 1.65367 0
M  V30 1617 O 156.201 -1.59696 0.883374 0
M  V30 1618 C 156.252 0.645308 3.55694 0
M  V30 1619 O 155.973 1.99764 3.89905 0
M  V30 1620 C 157.474 0.272326 4.42463 0
M  V30 1621 H 154.694 0.193462 0.642506 0
M  V30 1622 H 157.238 1.1723 1.67563 0
M  V30 1623 H 155.393 0.0173176 3.87396 0
M  V30 1624 H 155.807 2.00607 4.84621 0
M  V30 1625 H 157.281 0.427208 5.50344 0
M  V30 1626 H 157.758 -0.788587 4.32062 0
M  V30 1627 H 158.364 0.876054 4.1618 0
M  V30 1628 N 156.679 -1.44442 0.630414 0
M  V30 1629 C 157.589 -2.34476 -0.0761693 0
M  V30 1630 C 158.605 -1.52576 -0.836449 0
M  V30 1631 O 159.781 -1.85307 -0.788874 0
M  V30 1632 C 156.846 -3.30545 -1.04599 0
M  V30 1633 C 155.907 -4.28352 -0.28516 0
M  V30 1634 C 155.14 -5.19831 -1.20878 0
M  V30 1635 O 155.363 -5.15223 -2.44747 0
M  V30 1636 O 154.297 -5.97892 -0.693491 0
M  V30 1637 H 158.123 -2.96345 0.664324 0
M  V30 1638 H 155.708 -1.44203 0.39061 0
M  V30 1639 H 157.59 -3.89681 -1.60396 0
M  V30 1640 H 156.265 -2.7121 -1.76711 0
M  V30 1641 H 155.172 -3.72764 0.315837 0
M  V30 1642 H 156.505 -4.90605 0.395924 0
M  V30 1643 N 158.157 -0.370918 -1.53173 0
M  V30 1644 C 159.12 0.460778 -2.24521 0
M  V30 1645 C 160.12 1.00536 -1.25496 0
M  V30 1646 O 161.31 0.890266 -1.49733 0
M  V30 1647 C 158.442 1.64457 -2.98608 0
M  V30 1648 H 159.635 -0.163613 -2.99453 0
M  V30 1649 H 157.188 -0.122699 -1.55818 0
M  V30 1650 H 157.923 2.30691 -2.2793 0
M  V30 1651 H 157.708 1.26099 -3.7127 0
M  V30 1652 H 159.198 2.23384 -3.5283 0
M  V30 1653 N 159.635 1.57281 -0.100228 0
M  V30 1654 C 161.046 1.81725 0.428107 0
M  V30 1655 C 161.397 1.01619 1.67833 0
M  V30 1656 O 160.522 0.247098 2.14985 0
M  V30 1657 C 161.117 3.29617 0.78347 0
M  V30 1658 C 159.676 3.54808 1.25653 0
M  V30 1659 C 158.823 2.76118 0.255752 0
M  V30 1660 H 161.774 1.55324 -0.325608 0
M  V30 1661 H 161.795 3.4322 1.64256 0
M  V30 1662 H 161.307 3.87893 -0.12665 0
M  V30 1663 H 159.408 3.01868 2.18418 0
M  V30 1664 H 159.521 4.63443 1.21482 0
M  V30 1665 H 157.885 2.43745 0.738956 0
M  V30 1666 H 158.668 3.37145 -0.647136 0
M  V30 1667 N 161.113 -0.173488 1.56642 0
M  V30 1668 C 162.043 -1.2171 1.99271 0
M  V30 1669 C 163.024 -1.46289 0.867959 0
M  V30 1670 O 164.209 -1.5766 1.13388 0
M  V30 1671 C 161.339 -2.55651 2.35074 0
M  V30 1672 C 160.293 -2.45645 3.50489 0
M  V30 1673 C 159.619 -3.84056 3.72028 0
M  V30 1674 C 160.919 -1.96302 4.84007 0
M  V30 1675 H 162.613 -0.86275 2.867 0
M  V30 1676 H 160.159 -0.413571 1.37933 0
M  V30 1677 H 162.112 -3.2886 2.63494 0
M  V30 1678 H 160.836 -2.92869 1.44552 0
M  V30 1679 H 159.495 -1.7489 3.22194 0
M  V30 1680 H 159.143 -4.18664 2.788 0
M  V30 1681 H 158.843 -3.7823 4.49684 0
M  V30 1682 H 160.367 -4.58854 4.02846 0
M  V30 1683 H 161.781 -2.59284 5.11317 0
M  V30 1684 H 160.178 -2.01429 5.65284 0
M  V30 1685 H 161.248 -0.917226 4.76146 0
M  V30 1686 N 162.591 -1.51276 -0.441967 0
M  V30 1687 C 163.539 -1.72823 -1.55676 0
M  V30 1688 C 164.533 -0.59445 -1.58627 0
M  V30 1689 O 165.739 -0.775715 -1.62427 0
M  V30 1690 H 162.114 -0.545983 -0.517113 0
M  V30 1691 H 164.085 -2.6628 -1.34675 0
M  V30 1692 C 162.834 -1.86619 -2.93375 0
M  V30 1693 H 162.157 -2.73264 -2.91834 0
M  V30 1694 H 163.597 -2.05709 -3.70756 0
M  V30 1695 C 162.056 -0.624842 -3.31055 0
M  V30 1696 O 162.586 0.222636 -4.01083 0
M  V30 1697 N 160.792 -0.470288 -2.86769 0
M  V30 1698 H 160.339 -1.161 -2.29953 0
M  V30 1699 H 160.297 0.359051 -3.12343 0
M  V30 1700 N 164.069 0.697108 -1.41344 0
M  V30 1701 C 165.48 1.27697 -1.36199 0
M  V30 1702 C 165.831 1.9615 -0.0443463 0
M  V30 1703 O 164.956 1.98689 0.857419 0
M  V30 1704 C 165.551 2.32223 -2.46694 0
M  V30 1705 C 164.11 2.8579 -2.44952 0
M  V30 1706 C 163.257 1.59807 -2.26621 0
M  V30 1707 H 166.208 0.491968 -1.50882 0
M  V30 1708 H 166.229 3.1348 -2.15664 0
M  V30 1709 H 165.741 1.82373 -3.42581 0
M  V30 1710 H 163.842 3.3982 -1.52817 0
M  V30 1711 H 163.955 3.36325 -3.41207 0
M  V30 1712 H 162.319 1.8556 -1.7447 0
M  V30 1713 H 163.102 1.11956 -3.24532 0
M  V30 1714 N 165.547 1.27147 0.931209 0
M  V30 1715 C 166.494 1.09568 2.03134 0
M  V30 1716 C 167.464 -0.00222433 1.661 0
M  V30 1717 O 168.649 0.159439 1.90133 0
M  V30 1718 C 165.789 0.745231 3.36957 0
M  V30 1719 C 164.902 1.92041 3.86968 0
M  V30 1720 C 164.037 1.51216 5.09222 0
M  V30 1721 C 163.076 2.65504 5.5152 0
M  V30 1722 N 162.213 2.25291 6.64972 0
M  V30 1723 H 167.053 2.03708 2.17502 0
M  V30 1724 H 164.59 1.01411 1.06556 0
M  V30 1725 H 166.548 0.522878 4.1391 0
M  V30 1726 H 165.178 -0.159202 3.22407 0
M  V30 1727 H 164.23 2.25541 3.06326 0
M  V30 1728 H 165.542 2.77787 4.1429 0
M  V30 1729 H 164.696 1.25084 5.93666 0
M  V30 1730 H 163.435 0.625749 4.83669 0
M  V30 1731 H 162.44 2.92354 4.65628 0
M  V30 1732 H 163.665 3.54761 5.7907 0
M  V30 1733 H 161.611 1.39098 6.41083 0
M  V30 1734 H 161.528 3.04577 6.91931 0
M  V30 1735 H 162.796 2.02398 7.52765 0
M  V30 1736 N 167.025 -1.13721 1.09112 0
M  V30 1737 C 167.988 -2.17222 0.731241 0
M  V30 1738 C 168.988 -1.59035 -0.237566 0
M  V30 1739 O 170.178 -1.74192 -0.0161704 0
M  V30 1740 C 167.31 -3.40804 0.0808443 0
M  V30 1741 H 168.503 -2.50573 1.64783 0
M  V30 1742 H 166.056 -1.28493 0.889897 0
M  V30 1743 H 166.791 -3.1304 -0.847127 0
M  V30 1744 H 166.576 -3.84306 0.777896 0
M  V30 1745 H 168.066 -4.1731 -0.155657 0
M  V30 1746 N 168.503 -0.877838 -1.30888 0
M  V30 1747 C 169.451 -0.328662 -2.30266 0
M  V30 1748 C 170.445 0.560496 -1.59859 0
M  V30 1749 O 171.651 0.445722 -1.74394 0
M  V30 1750 H 168.026 -0.0876142 -0.746879 0
M  V30 1751 H 169.997 -1.18061 -2.74051 0
M  V30 1752 C 168.746 0.448071 -3.44801 0
M  V30 1753 H 168.069 -0.226859 -3.99156 0
M  V30 1754 H 169.509 0.797541 -4.16432 0
M  V30 1755 C 167.968 1.64239 -2.94155 0
M  V30 1756 O 168.498 2.74175 -2.93583 0
M  V30 1757 N 166.704 1.47716 -2.50256 0
M  V30 1758 H 166.251 0.582821 -2.5092 0
M  V30 1759 H 166.209 2.27765 -2.16727 0
M  V30 1760 N 169.982 1.44106 -0.638065 0
M  V30 1761 C 171.398 1.56672 -0.304286 0
M  V30 1762 C 171.598 1.6244 1.19228 0
M  V30 1763 O 170.654 1.57121 1.9766 0
M  V30 1764 C 171.967 2.83503 -1.00231 0
M  V30 1765 C 173.515 2.97226 -0.981116 0
M  V30 1766 C 173.99 4.26868 -1.65974 0
M  V30 1767 N 175.481 4.33698 -1.62666 0
M  V30 1768 C 176.216 5.32745 -2.12063 0
M  V30 1769 N 175.712 6.38157 -2.6968 0
M  V30 1770 N 177.505 5.24299 -2.02651 0
M  V30 1771 H 169.656 1.38605 -1.60942 0
M  V30 1772 H 171.919 0.664661 -0.675965 0
M  V30 1773 H 171.625 2.85251 -2.0573 0
M  V30 1774 H 171.499 3.73251 -0.54439 0
M  V30 1775 H 173.886 2.95027 0.0654188 0
M  V30 1776 H 173.967 2.08808 -1.47759 0
M  V30 1777 H 173.611 4.29826 -2.70576 0
M  V30 1778 H 173.541 5.14156 -1.13804 0
M  V30 1779 H 176.032 3.58138 -1.20606 0
M  V30 1780 H 176.345 7.10029 -3.05087 0
M  V30 1781 H 174.69 6.38823 -2.73734 0
M  V30 1782 H 177.881 4.4086 -1.57353 0
M  V30 1783 H 178.054 6.01334 -2.41457 0
M  V30 1784 N 171.46 0.379036 1.52974 0
M  V30 1785 C 172.37 -0.468639 2.29872 0
M  V30 1786 C 173.386 -1.08067 1.36373 0
M  V30 1787 O 174.562 -1.08871 1.69438 0
M  V30 1788 C 171.627 -1.58594 3.083 0
M  V30 1789 C 170.688 -1.00007 4.17489 0
M  V30 1790 C 169.921 -2.06413 4.92168 0
M  V30 1791 O 170.144 -3.27751 4.66835 0
M  V30 1792 O 169.078 -1.68717 5.7777 0
M  V30 1793 H 172.904 0.157508 3.03291 0
M  V30 1794 H 170.489 0.143035 1.48714 0
M  V30 1795 H 172.371 -2.23525 3.57232 0
M  V30 1796 H 171.046 -2.19724 2.37703 0
M  V30 1797 H 169.953 -0.314299 3.72777 0
M  V30 1798 H 171.286 -0.433135 4.90291 0
M  V30 1799 N 172.938 -1.57226 0.108567 0
M  V30 1800 C 173.885 -2.14756 -0.845481 0
M  V30 1801 C 174.855 -1.06971 -1.27068 0
M  V30 1802 O 176.04 -1.34827 -1.35005 0
M  V30 1803 C 173.18 -2.74298 -2.09415 0
M  V30 1804 C 172.293 -3.96358 -1.71826 0
M  V30 1805 C 171.428 -4.44021 -2.9158 0
M  V30 1806 C 170.467 -5.58637 -2.50181 0
M  V30 1807 N 169.604 -6.01091 -3.62814 0
M  V30 1808 H 174.444 -2.95961 -0.348035 0
M  V30 1809 H 171.981 -1.46226 -0.160106 0
M  V30 1810 H 173.939 -3.06945 -2.82561 0
M  V30 1811 H 172.569 -1.95801 -2.56636 0
M  V30 1812 H 171.621 -3.69939 -0.885947 0
M  V30 1813 H 172.933 -4.79504 -1.37394 0
M  V30 1814 H 172.087 -4.78522 -3.72963 0
M  V30 1815 H 170.826 -3.59803 -3.29231 0
M  V30 1816 H 169.831 -5.23751 -1.67228 0
M  V30 1817 H 171.056 -6.44613 -2.13659 0
M  V30 1818 H 169.002 -5.19817 -4.00158 0
M  V30 1819 H 168.919 -6.79066 -3.32273 0
M  V30 1820 H 170.187 -6.40227 -4.44668 0
M  V30 1821 N 174.416 0.165178 -1.56732 0
M  V30 1822 C 175.349 1.23336 -1.91998 0
M  V30 1823 C 176.327 1.42476 -0.783531 0
M  V30 1824 O 177.511 1.57384 -1.03743 0
M  V30 1825 C 174.638 2.59533 -2.17625 0
M  V30 1826 C 173.684 2.57093 -3.40302 0
M  V30 1827 S 174.517 2.05571 -4.9447 0
M  V30 1828 C 175.673 3.43532 -5.23198 0
M  V30 1829 H 175.906 0.932387 -2.82301 0
M  V30 1830 H 173.439 0.370013 -1.49901 0
M  V30 1831 H 175.397 3.37918 -2.3307 0
M  V30 1832 H 174.058 2.86827 -1.28019 0
M  V30 1833 H 173.251 3.57308 -3.55453 0
M  V30 1834 H 172.853 1.86806 -3.24005 0
M  V30 1835 H 175.145 4.39559 -5.15552 0
M  V30 1836 H 176.088 3.33251 -6.2478 0
M  V30 1837 H 176.496 3.39828 -4.50752 0
M  V30 1838 N 175.894 1.51508 0.433938 0
M  V30 1839 C 177.122 1.68157 1.20543 0
M  V30 1840 C 177.537 0.380362 1.84929 0
M  V30 1841 O 176.894 -0.641446 1.70856 0
M  V30 1842 C 176.945 2.79965 2.28696 0
M  V30 1843 O 176.666 4.05045 1.66943 0
M  V30 1844 C 178.167 3.07912 3.18912 0
M  V30 1845 H 175.387 0.56421 0.363191 0
M  V30 1846 H 177.931 1.97941 0.513754 0
M  V30 1847 H 176.086 2.5277 2.93574 0
M  V30 1848 H 176.5 4.67165 2.38448 0
M  V30 1849 H 177.974 3.89719 3.90926 0
M  V30 1850 H 178.451 2.20456 3.79863 0
M  V30 1851 H 179.057 3.36779 2.59731 0
M  V30 1852 N 177.372 -0.689602 1.41712 0
M  V30 1853 C 178.304 -1.815 1.39966 0
M  V30 1854 C 179.317 -1.59995 0.300917 0
M  V30 1855 O 180.506 -1.69387 0.563039 0
M  V30 1856 C 177.606 -3.18364 1.16179 0
M  V30 1857 C 176.779 -3.66847 2.38206 0
M  V30 1858 C 175.838 -4.82398 2.10186 0
M  V30 1859 O 174.864 -4.93706 2.83272 0
M  V30 1860 N 176.066 -5.70064 1.0958 0
M  V30 1861 H 178.831 -1.83488 2.36965 0
M  V30 1862 H 176.392 -0.872149 1.36401 0
M  V30 1863 H 178.384 -3.93301 0.953756 0
M  V30 1864 H 176.954 -3.11365 0.27756 0
M  V30 1865 H 176.174 -2.82751 2.74673 0
M  V30 1866 H 177.462 -3.95978 3.19498 0
M  V30 1867 H 176.86 -5.63565 0.491019 0
M  V30 1868 H 175.417 -6.44874 0.947656 0
M  V30 1869 N 178.85 -1.27639 -0.924453 0
M  V30 1870 C 180.099 -1.13549 -1.66702 0
M  V30 1871 C 180.412 0.317487 -1.93006 0
M  V30 1872 O 181.618 0.579333 -2.65247 0
M  V30 1873 C 180.074 -1.98426 -3.00259 0
M  V30 1874 C 179.682 -3.484 -2.81641 0
M  V30 1875 C 181.426 -1.92993 -3.78092 0
M  V30 1876 C 179.333 -4.25464 -4.10773 0
M  V30 1877 H 178.263 -0.421351 -0.625283 0
M  V30 1878 H 180.914 -1.52085 -1.02676 0
M  V30 1879 H 179.296 -1.52736 -3.6536 0
M  V30 1880 H 180.47 -4.01973 -2.25287 0
M  V30 1881 H 178.785 -3.55245 -2.17232 0
M  V30 1882 H 181.382 -2.47844 -4.7379 0
M  V30 1883 H 181.725 -0.904281 -4.0636 0
M  V30 1884 H 182.258 -2.36595 -3.19793 0
M  V30 1885 H 178.997 -5.28566 -3.87683 0
M  V30 1886 H 178.517 -3.76667 -4.66779 0
M  V30 1887 H 180.196 -4.34812 -4.79111 0
M  V30 1888 N 180.328 1.1314 -1.09713 0
M  V30 1889 C 181.261 2.17735 -0.683137 0
M  V30 1890 C 182.239 1.59582 0.311841 0
M  V30 1891 O 183.423 1.87298 0.212514 0
M  V30 1892 C 180.55 3.38699 -0.00684324 0
M  V30 1893 C 179.596 4.1546 -0.964102 0
M  V30 1894 S 180.429 4.74733 -2.47767 0
M  V30 1895 C 181.585 5.9904 -1.81387 0
M  V30 1896 H 181.818 2.52515 -1.56918 0
M  V30 1897 H 179.351 1.24484 -0.913404 0
M  V30 1898 H 181.309 4.08765 0.377044 0
M  V30 1899 H 179.97 3.02214 0.85589 0
M  V30 1900 H 179.163 5.02093 -0.43803 0
M  V30 1901 H 178.765 3.51066 -1.28953 0
M  V30 1902 H 181.057 6.67846 -1.13967 0
M  V30 1903 H 182 6.56261 -2.65947 0
M  V30 1904 H 182.408 5.4976 -1.28155 0
M  V30 1905 N 181.806 0.884767 1.30421 0
M  V30 1906 C 183.053 0.503105 1.96151 0
M  V30 1907 C 183.381 -0.947676 1.69851 0
M  V30 1908 O 182.636 -1.68467 0.995861 0
M  V30 1909 C 182.935 0.724318 3.49983 0
M  V30 1910 C 182.601 2.15015 3.96332 0
M  V30 1911 C 181.263 2.54005 4.08699 0
M  V30 1912 C 183.615 3.07936 4.20505 0
M  V30 1913 C 180.943 3.85128 4.42599 0
M  V30 1914 C 183.295 4.3859 4.55874 0
M  V30 1915 C 181.959 4.77474 4.66449 0
M  V30 1916 H 181.229 0.184099 0.717766 0
M  V30 1917 H 183.876 1.12058 1.55291 0
M  V30 1918 H 182.181 0.0238086 3.91793 0
M  V30 1919 H 183.878 0.408617 3.98913 0
M  V30 1920 H 180.468 1.8375 3.87213 0
M  V30 1921 H 184.652 2.79033 4.10431 0
M  V30 1922 H 179.908 4.14996 4.48986 0
M  V30 1923 H 184.082 5.10629 4.7353 0
M  V30 1924 H 181.709 5.79115 4.92473 0
M  V30 1925 N 183.284 -1.43765 0.645699 0
M  V30 1926 C 184.194 -2.34544 -0.0512957 0
M  V30 1927 C 185.21 -1.53455 -0.82022 0
M  V30 1928 O 186.386 -1.86133 -0.769176 0
M  V30 1929 C 183.451 -3.31636 -1.01087 0
M  V30 1930 C 182.512 -4.2863 -0.239712 0
M  V30 1931 C 181.745 -5.21084 -1.15358 0
M  V30 1932 O 181.968 -5.1779 -2.39269 0
M  V30 1933 O 180.902 -5.98593 -0.630038 0
M  V30 1934 H 184.728 -2.95624 0.695718 0
M  V30 1935 H 182.313 -1.43781 0.405882 0
M  V30 1936 H 184.195 -3.9136 -1.56254 0
M  V30 1937 H 182.87 -2.73069 -1.73824 0
M  V30 1938 H 181.777 -3.72408 0.355356 0
M  V30 1939 H 183.11 -4.90157 0.447936 0
M  V30 1940 N 184.763 -0.387143 -1.52771 0
M  V30 1941 C 185.991 0.195869 -2.05971 0
M  V30 1942 C 186.406 1.40691 -1.25903 0
M  V30 1943 O 185.763 1.79931 -0.305134 0
M  V30 1944 C 185.814 0.56812 -3.57008 0
M  V30 1945 O 185.535 -0.594803 -4.34043 0
M  V30 1946 C 187.036 1.20723 -4.26545 0
M  V30 1947 H 184.256 0.0300578 -0.670326 0
M  V30 1948 H 186.8 -0.551749 -1.96916 0
M  V30 1949 H 184.955 1.26564 -3.66143 0
M  V30 1950 H 185.369 -0.289322 -5.23701 0
M  V30 1951 H 186.843 1.41807 -5.33474 0
M  V30 1952 H 187.32 2.17395 -3.81623 0
M  V30 1953 H 187.926 0.550535 -4.21722 0
M  V30 1954 N 186.241 1.57166 -0.116904 0
M  V30 1955 C 187.488 1.95123 0.541603 0
M  V30 1956 C 187.816 1.00006 1.6682 0
M  V30 1957 O 187.071 0.0235658 1.95686 0
M  V30 1958 C 187.37 3.39508 1.11664 0
M  V30 1959 C 187.036 4.50762 0.111606 0
M  V30 1960 C 185.698 4.80918 -0.164758 0
M  V30 1961 C 188.05 5.18036 -0.573438 0
M  V30 1962 C 185.378 5.75666 -1.13249 0
M  V30 1963 C 187.73 6.13824 -1.52978 0
M  V30 1964 C 186.394 6.42374 -1.81415 0
M  V30 1965 H 185.664 0.714005 0.198187 0
M  V30 1966 H 188.311 1.9048 -0.197365 0
M  V30 1967 H 186.616 3.40835 1.93232 0
M  V30 1968 H 188.313 3.66189 1.63422 0
M  V30 1969 H 184.903 4.27272 0.337192 0
M  V30 1970 H 189.087 4.94896 -0.373092 0
M  V30 1971 H 184.343 5.96092 -1.35958 0
M  V30 1972 H 188.517 6.65039 -2.06629 0
M  V30 1973 H 186.144 7.15599 -2.56557 0
M  V30 1974 N 187.719 -0.156864 1.56817 0
M  V30 1975 C 188.667 -1.21319 1.98455 0
M  V30 1976 C 189.661 -1.45025 0.875444 0
M  V30 1977 O 190.867 -1.45435 1.0606 0
M  V30 1978 H 187.242 -0.408142 0.631605 0
M  V30 1979 H 189.213 -0.835244 2.86472 0
M  V30 1980 C 187.962 -2.54148 2.37285 0
M  V30 1981 H 187.285 -2.36733 3.22176 0
M  V30 1982 H 188.725 -3.26712 2.70251 0
M  V30 1983 C 187.184 -3.13967 1.22173 0
M  V30 1984 O 187.714 -3.98357 0.517149 0
M  V30 1985 N 185.92 -2.7327 0.988536 0
M  V30 1986 H 185.467 -2.04744 1.56326 0
M  V30 1987 H 185.425 -3.13628 0.220209 0
M  V30 1988 N 189.197 -1.51736 -0.425897 0
M  V30 1989 C 190.425 -1.68794 -1.1965 0
M  V30 1990 C 190.84 -0.390164 -1.84725 0
M  V30 1991 O 190.197 0.632376 -1.71194 0
M  V30 1992 C 190.248 -2.81174 -2.27208 0
M  V30 1993 O 189.969 -4.05925 -1.64793 0
M  V30 1994 C 191.47 -3.09599 -3.17275 0
M  V30 1995 H 188.69 -0.566128 -0.360194 0
M  V30 1996 H 191.234 -1.98211 -0.503249 0
M  V30 1997 H 189.389 -2.54324 -2.9223 0
M  V30 1998 H 189.803 -4.68423 -2.35967 0
M  V30 1999 H 191.277 -3.91786 -3.88854 0
M  V30 2000 H 191.754 -2.22468 -3.78688 0
M  V30 2001 H 192.36 -3.38151 -2.57941 0
M  V30 2002 N 190.675 0.682077 -1.42076 0
M  V30 2003 C 192.086 1.26246 -1.37546 0
M  V30 2004 C 192.437 1.96092 -0.0651481 0
M  V30 2005 O 191.562 1.99587 0.836297 0
M  V30 2006 C 192.157 2.29594 -2.49143 0
M  V30 2007 C 190.716 2.83175 -2.47969 0
M  V30 2008 C 189.863 1.57395 -2.28303 0
M  V30 2009 H 192.814 0.475937 -1.51395 0
M  V30 2010 H 192.835 3.11175 -2.18976 0
M  V30 2011 H 192.347 1.78729 -3.44496 0
M  V30 2012 H 190.448 3.3818 -1.56413 0
M  V30 2013 H 190.561 3.32687 -3.44755 0
M  V30 2014 H 188.925 1.83699 -1.76428 0
M  V30 2015 H 189.708 1.08507 -3.25701 0
M  V30 2016 N 192.153 1.28127 0.917671 0
M  V30 2017 C 193.116 1.11744 2.00115 0
M  V30 2018 C 194.116 0.0583052 1.60694 0
M  V30 2019 O 195.306 0.303755 1.71531 0
M  V30 2020 C 192.438 0.704862 3.33533 0
M  V30 2021 H 193.631 2.07966 2.16079 0
M  V30 2022 H 191.184 1.11058 1.09981 0
M  V30 2023 H 191.919 -0.258299 3.2327 0
M  V30 2024 H 191.704 1.4699 3.63505 0
M  V30 2025 H 193.194 0.612768 4.1308 0
M  V30 2026 N 193.631 -1.12557 1.10312 0
M  V30 2027 C 194.564 -2.1737 0.694674 0
M  V30 2028 C 195.542 -1.59745 -0.303373 0
M  V30 2029 O 196.726 -1.87408 -0.202578 0
M  V30 2030 C 193.853 -3.38691 0.0248052 0
M  V30 2031 C 192.899 -4.14943 0.986121 0
M  V30 2032 S 193.732 -4.73413 2.50281 0
M  V30 2033 C 194.888 -5.9807 1.84562 0
M  V30 2034 H 195.121 -2.5168 1.58255 0
M  V30 2035 H 192.654 -1.23998 0.919992 0
M  V30 2036 H 194.612 -4.08959 -0.355361 0
M  V30 2037 H 193.273 -3.02664 -0.839851 0
M  V30 2038 H 192.466 -5.01854 0.464651 0
M  V30 2039 H 192.068 -3.50377 1.30813 0
M  V30 2040 H 194.36 -6.67232 1.17507 0
M  V30 2041 H 195.303 -6.54841 2.69423 0
M  V30 2042 H 195.711 -5.49073 1.31069 0
M  V30 2043 N 195.109 -0.891671 -1.2995 0
M  V30 2044 C 196.339 -0.527893 -1.99742 0
M  V30 2045 C 196.747 0.88979 -1.66971 0
M  V30 2046 O 196.09 1.59766 -0.906667 0
M  V30 2047 C 196.152 -0.630804 -3.53922 0
M  V30 2048 C 195.816 -2.01401 -4.10228 0
M  V30 2049 C 196.813 -2.98422 -4.25724 0
M  V30 2050 C 194.498 -2.32121 -4.45449 0
M  V30 2051 C 196.492 -4.24293 -4.75662 0
M  V30 2052 C 194.179 -3.58237 -4.95086 0
M  V30 2053 C 195.177 -4.54137 -5.10146 0
M  V30 2054 O 194.865 -5.78014 -5.58708 0
M  V30 2055 H 194.597 -0.201953 -0.645129 0
M  V30 2056 H 197.151 -1.20076 -1.66646 0
M  V30 2057 H 195.381 0.0990616 -3.86573 0
M  V30 2058 H 197.07 -0.277338 -4.04951 0
M  V30 2059 H 197.836 -2.76001 -3.98809 0
M  V30 2060 H 193.715 -1.5824 -4.32991 0
M  V30 2061 H 197.259 -4.99153 -4.87332 0
M  V30 2062 H 193.156 -3.80491 -5.21437 0
M  V30 2063 H 193.924 -5.8049 -5.77039 0
M  V30 2064 N 196.587 1.43421 -0.653314 0
M  V30 2065 C 197.833 2.02111 -0.166992 0
M  V30 2066 C 198.166 1.51423 1.21592 0
M  V30 2067 O 197.441 0.707389 1.8118 0
M  V30 2068 C 197.724 3.5966 -0.177948 0
M  V30 2069 C 197.577 4.20579 -1.59478 0
M  V30 2070 C 198.896 4.37413 0.4856 0
M  V30 2071 H 196.015 0.734374 -0.0621557 0
M  V30 2072 H 198.657 1.70717 -0.834016 0
M  V30 2073 H 196.807 3.86537 0.390032 0
M  V30 2074 H 198.479 4.04732 -2.21336 0
M  V30 2075 H 196.722 3.77226 -2.14204 0
M  V30 2076 H 197.393 5.29665 -1.5543 0
M  V30 2077 H 199.869 4.161 0.00234528 0
M  V30 2078 H 198.745 5.47075 0.447207 0
M  V30 2079 H 199.006 4.13672 1.55974 0
M  V30 2080 N 198.065 0.39524 1.52563 0
M  V30 2081 C 199.028 -0.425001 2.25225 0
M  V30 2082 C 200.028 -0.985266 1.27079 0
M  V30 2083 O 201.218 -0.866332 1.5113 0
M  V30 2084 C 198.35 -1.59686 3.01186 0
M  V30 2085 H 199.543 0.211233 2.99155 0
M  V30 2086 H 197.096 0.147472 1.55603 0
M  V30 2087 H 197.831 -2.27035 2.31572 0
M  V30 2088 H 197.616 -1.20176 3.73229 0
M  V30 2089 H 199.106 -2.17743 3.5634 0
M  V30 2090 N 199.544 -1.57102 0.125237 0
M  V30 2091 C 200.793 -1.94582 -0.531095 0
M  V30 2092 C 201.106 -1.01126 -1.6743 0
M  V30 2093 O 202.312 -1.28097 -2.39381 0
M  V30 2094 C 200.768 -3.45839 -0.996164 0
M  V30 2095 C 200.376 -4.47842 0.118926 0
M  V30 2096 C 202.12 -3.92227 -1.62352 0
M  V30 2097 C 200.027 -5.90284 -0.363192 0
M  V30 2098 H 198.957 -0.726391 -0.20217 0
M  V30 2099 H 201.608 -1.82339 0.206092 0
M  V30 2100 H 199.99 -3.53338 -1.78796 0
M  V30 2101 H 201.164 -4.52018 0.895358 0
M  V30 2102 H 199.479 -4.11243 0.653324 0
M  V30 2103 H 202.076 -4.96069 -1.99548 0
M  V30 2104 H 202.419 -3.32552 -2.50429 0
M  V30 2105 H 202.952 -3.87554 -0.897019 0
M  V30 2106 H 199.691 -6.53728 0.481679 0
M  V30 2107 H 199.211 -5.89515 -1.10597 0
M  V30 2108 H 200.89 -6.41752 -0.822377 0
M  V30 2109 N 201.022 0.148545 -1.56898 0
M  V30 2110 C 201.954 1.20852 -1.9475 0
M  V30 2111 C 202.967 1.39265 -0.843152 0
M  V30 2112 O 204.156 1.38864 -1.12156 0
M  V30 2113 C 201.256 2.57362 -2.20495 0
M  V30 2114 C 200.429 2.59947 -3.51776 0
M  V30 2115 C 199.488 3.77984 -3.6608 0
M  V30 2116 O 198.514 3.62929 -4.38487 0
M  V30 2117 N 199.716 4.95375 -3.02629 0
M  V30 2118 H 202.481 0.886804 -2.86279 0
M  V30 2119 H 200.042 0.338121 -1.5833 0
M  V30 2120 H 202.034 3.34833 -2.27307 0
M  V30 2121 H 200.604 2.81832 -1.35238 0
M  V30 2122 H 199.824 1.68403 -3.56419 0
M  V30 2123 H 201.112 2.58704 -4.38121 0
M  V30 2124 H 200.51 5.10509 -2.43715 0
M  V30 2125 H 199.067 5.70627 -3.15004 0
M  V30 2126 N 202.5 1.5196 0.417844 0
M  V30 2127 C 203.463 1.74065 1.49111 0
M  V30 2128 C 204.463 0.610537 1.48758 0
M  V30 2129 O 205.653 0.87832 1.50437 0
M  V30 2130 C 202.785 1.81502 2.88565 0
M  V30 2131 H 203.978 2.69869 1.30807 0
M  V30 2132 H 201.531 1.42244 0.647785 0
M  V30 2133 H 202.266 0.875813 3.1225 0
M  V30 2134 H 202.051 2.63651 2.90225 0
M  V30 2135 H 203.541 2.00376 3.66387 0
M  V30 2136 N 203.978 -0.674533 1.42435 0
M  V30 2137 C 205.224 -1.43671 1.43131 0
M  V30 2138 C 205.557 -1.94142 0.0476021 0
M  V30 2139 O 204.832 -1.70924 -0.928188 0
M  V30 2140 C 205.115 -2.63355 2.45594 0
M  V30 2141 C 204.968 -2.18514 3.93156 0
M  V30 2142 C 206.287 -3.65571 2.45043 0
M  V30 2143 H 203.406 -0.521077 0.521198 0
M  V30 2144 H 206.048 -0.766551 1.7385 0
M  V30 2145 H 204.198 -3.2053 2.19528 0
M  V30 2146 H 205.87 -1.66504 4.30202 0
M  V30 2147 H 204.113 -1.50086 4.07009 0
M  V30 2148 H 204.784 -3.04484 4.60428 0
M  V30 2149 H 207.26 -3.18113 2.68223 0
M  V30 2150 H 206.136 -4.46893 3.18713 0
M  V30 2151 H 206.397 -4.16716 1.47649 0
M  V30 2152 N 205.456 -1.28612 -0.910864 0
M  V30 2153 C 206.386 -1.15326 -2.03032 0
M  V30 2154 C 207.367 -0.0502924 -1.70026 0
M  V30 2155 O 208.552 -0.227797 -1.92859 0
M  V30 2156 C 205.682 -0.817343 -3.37545 0
M  V30 2157 C 204.636 -1.8754 -3.84724 0
M  V30 2158 C 203.962 -1.39305 -5.16235 0
M  V30 2159 C 205.262 -3.28244 -4.06267 0
M  V30 2160 H 206.956 -2.08975 -2.14406 0
M  V30 2161 H 204.502 -1.00612 -1.03021 0
M  V30 2162 H 206.455 -0.711151 -4.15356 0
M  V30 2163 H 205.179 0.154846 -3.26233 0
M  V30 2164 H 203.838 -1.97079 -3.09121 0
M  V30 2165 H 203.486 -0.409846 -5.01328 0
M  V30 2166 H 203.186 -2.10057 -5.48771 0
M  V30 2167 H 204.71 -1.30014 -5.96598 0
M  V30 2168 H 206.124 -3.21611 -4.74594 0
M  V30 2169 H 204.521 -3.96855 -4.5014 0
M  V30 2170 H 205.591 -3.72048 -3.10979 0
M  V30 2171 N 206.934 1.1197 -1.10907 0
M  V30 2172 C 208.159 1.87942 -0.877064 0
M  V30 2173 C 208.584 1.79341 0.567314 0
M  V30 2174 O 207.942 1.15184 1.40009 0
M  V30 2175 C 207.99 3.34926 -1.33629 0
M  V30 2176 O 207.094 4.09303 -0.504447 0
M  V30 2177 H 206.435 0.583785 -0.316371 0
M  V30 2178 H 208.965 1.4157 -1.47712 0
M  V30 2179 H 208.975 3.8577 -1.32837 0
M  V30 2180 H 207.65 3.40504 -2.3881 0
M  V30 2181 H 206.227 3.68393 -0.577993 0
M  V30 2182 N 208.412 0.89855 1.29475 0
M  V30 2183 C 209.342 0.39201 2.30186 0
M  V30 2184 C 210.323 -0.532359 1.61555 0
M  V30 2185 O 211.508 -0.443331 1.89072 0
M  V30 2186 C 208.638 -0.382353 3.45189 0
M  V30 2187 C 207.592 0.451483 4.25612 0
M  V30 2188 C 206.918 -0.450307 5.328 0
M  V30 2189 C 208.218 1.70079 4.93832 0
M  V30 2190 H 209.912 1.23362 2.72804 0
M  V30 2191 H 207.458 0.594638 1.31149 0
M  V30 2192 H 209.411 -0.747451 4.14718 0
M  V30 2193 H 208.135 -1.25774 3.01411 0
M  V30 2194 H 206.794 0.798897 3.57789 0
M  V30 2195 H 206.442 -1.32379 4.85268 0
M  V30 2196 H 206.142 0.103902 5.87508 0
M  V30 2197 H 207.666 -0.811623 6.05182 0
M  V30 2198 H 209.08 1.40549 5.55805 0
M  V30 2199 H 207.477 2.19623 5.58467 0
M  V30 2200 H 208.547 2.43744 4.19186 0
M  V30 2201 N 209.89 -1.43072 0.660911 0
M  V30 2202 C 211.12 -2.05769 0.185153 0
M  V30 2203 C 211.528 -1.49668 -1.15742 0
M  V30 2204 O 210.871 -0.625649 -1.72717 0
M  V30 2205 C 210.933 -3.59489 0.0278237 0
M  V30 2206 C 210.597 -4.38212 1.2969 0
M  V30 2207 C 211.594 -4.69772 2.22734 0
M  V30 2208 C 209.279 -4.7809 1.54063 0
M  V30 2209 C 211.273 -5.40129 3.38437 0
M  V30 2210 C 208.96 -5.4819 2.70058 0
M  V30 2211 C 209.958 -5.79132 3.62071 0
M  V30 2212 O 209.646 -6.47798 4.76039 0
M  V30 2213 H 209.378 -0.669873 0.0908086 0
M  V30 2214 H 211.932 -1.84436 0.90402 0
M  V30 2215 H 210.162 -3.79426 -0.746489 0
M  V30 2216 H 211.851 -4.03862 -0.406275 0
M  V30 2217 H 212.617 -4.39476 2.05149 0
M  V30 2218 H 208.496 -4.53408 0.833215 0
M  V30 2219 H 212.04 -5.64198 4.10277 0
M  V30 2220 H 207.937 -5.77902 2.87574 0
M  V30 2221 H 208.705 -6.66283 4.75404 0
M  V30 2222 N 211.368 -0.403325 -1.52352 0
M  V30 2223 C 212.331 0.413051 -2.25447 0
M  V30 2224 C 213.331 0.978513 -1.276 0
M  V30 2225 O 214.521 0.858305 -1.51587 0
M  V30 2226 C 211.653 1.58087 -3.02029 0
M  V30 2227 H 212.846 -0.227094 -2.99039 0
M  V30 2228 H 210.399 -0.155722 -1.55522 0
M  V30 2229 H 211.134 2.25804 -2.32772 0
M  V30 2230 H 210.919 1.18195 -3.73861 0
M  V30 2231 H 212.409 2.1585 -3.57489 0
M  V30 2232 N 212.846 1.57033 -0.133567 0
M  V30 2233 C 214.071 2.00475 0.531477 0
M  V30 2234 C 214.496 1.01291 1.58499 0
M  V30 2235 O 213.854 -0.0133279 1.81295 0
M  V30 2236 C 213.902 3.42729 1.12113 0
M  V30 2237 O 213.006 3.46498 2.23636 0
M  V30 2238 H 212.347 0.650876 0.131362 0
M  V30 2239 H 214.877 2.03344 -0.22634 0
M  V30 2240 H 214.887 3.81246 1.4531 0
M  V30 2241 H 213.562 4.14428 0.349557 0
M  V30 2242 H 212.139 3.19811 1.91769 0
M  V30 2243 N 214.325 -0.140222 1.56975 0
M  V30 2244 C 215.573 -0.850005 1.83356 0
M  V30 2245 C 215.894 -1.81399 0.71551 0
M  V30 2246 O 215.164 -1.94136 -0.262294 0
M  V30 2247 H 213.744 -0.316886 0.676456 0
M  V30 2248 H 216.406 -0.132608 1.94448 0
M  V30 2249 H 215.502 -1.40814 2.78528 0
M  V30 2250 N 215.803 -1.52179 -0.40978 0
M  V30 2251 C 217.219 -1.40968 -0.74835 0
M  V30 2252 C 217.419 -0.513657 -1.94843 0
M  V30 2253 O 216.475 0.0208026 -2.52491 0
M  V30 2254 C 217.788 -2.83483 -1.0029 0
M  V30 2255 C 219.336 -2.92821 -1.10565 0
M  V30 2256 C 219.811 -4.36303 -1.39296 0
M  V30 2257 N 221.302 -4.39535 -1.46162 0
M  V30 2258 C 222.037 -5.47614 -1.70018 0
M  V30 2259 N 221.533 -6.65812 -1.91483 0
M  V30 2260 N 223.326 -5.35129 -1.72027 0
M  V30 2261 H 215.477 -2.0897 0.380186 0
M  V30 2262 H 217.74 -0.94185 0.107805 0
M  V30 2263 H 217.446 -3.51168 -0.193461 0
M  V30 2264 H 217.32 -3.24487 -1.92323 0
M  V30 2265 H 219.707 -2.25318 -1.90568 0
M  V30 2266 H 219.788 -2.55276 -0.16369 0
M  V30 2267 H 219.432 -5.04366 -0.598109 0
M  V30 2268 H 219.362 -4.71385 -2.34743 0
M  V30 2269 H 221.853 -3.54332 -1.31367 0
M  V30 2270 H 222.166 -7.43964 -2.09134 0
M  V30 2271 H 220.511 -6.68879 -1.88749 0
M  V30 2272 H 223.702 -4.41764 -1.54796 0
M  V30 2273 H 223.875 -6.19433 -1.9028 0
M  V30 2274 N 217.281 0.66697 -1.42791 0
M  V30 2275 C 218.509 1.45505 -1.47091 0
M  V30 2276 C 218.924 1.8861 -0.0845873 0
M  V30 2277 O 218.281 1.58632 0.90234 0
M  V30 2278 C 218.332 2.69906 -2.40485 0
M  V30 2279 O 218.053 2.28608 -3.73725 0
M  V30 2280 C 219.554 3.63396 -2.53886 0
M  V30 2281 H 216.774 0.447459 -0.500022 0
M  V30 2282 H 219.318 0.818866 -1.8739 0
M  V30 2283 H 217.473 3.29696 -2.03419 0
M  V30 2284 H 217.887 3.08997 -4.23817 0
M  V30 2285 H 219.361 4.47387 -3.2334 0
M  V30 2286 H 219.838 4.09824 -1.57927 0
M  V30 2287 H 220.444 3.09495 -2.91706 0
M  V30 2288 N 218.759 1.29093 0.90403 0
M  V30 2289 C 219.987 1.19689 1.68766 0
M  V30 2290 C 220.402 -0.243113 1.87228 0
M  V30 2291 O 219.759 -1.16326 1.40621 0
M  V30 2292 C 219.81 1.90144 3.07453 0
M  V30 2293 O 219.531 3.2852 2.89838 0
M  V30 2294 C 221.032 1.87162 4.01852 0
M  V30 2295 H 218.252 0.415035 0.527244 0
M  V30 2296 H 220.796 1.7039 1.13082 0
M  V30 2297 H 218.951 1.43289 3.59926 0
M  V30 2298 H 219.365 3.63944 3.77684 0
M  V30 2299 H 220.839 2.41032 4.96596 0
M  V30 2300 H 221.316 0.84617 4.30972 0
M  V30 2301 H 221.922 2.33741 3.5531 0
M  V30 2302 N 220.237 -1.11381 1.11499 0
M  V30 2303 C 221.485 -1.8277 0.862524 0
M  V30 2304 C 221.806 -1.85097 -0.613534 0
M  V30 2305 O 221.076 -1.32198 -1.4457 0
M  V30 2306 H 219.656 -0.676823 0.316101 0
M  V30 2307 H 222.318 -1.34816 1.4075 0
M  V30 2308 H 221.414 -2.86614 1.23527 0
M  V30 2309 N 221.715 -0.905404 -1.28997 0
M  V30 2310 C 222.964 -0.530191 -1.94607 0
M  V30 2311 C 223.277 0.929185 -1.72121 0
M  V30 2312 O 224.483 1.41218 -2.31883 0
M  V30 2313 C 222.939 -0.897333 -3.48534 0
M  V30 2314 C 222.547 -2.37587 -3.79811 0
M  V30 2315 C 224.291 -0.592304 -4.20347 0
M  V30 2316 C 222.198 -2.68357 -5.27009 0
M  V30 2317 H 221.128 -0.194558 -0.728466 0
M  V30 2318 H 223.779 -1.10318 -1.46636 0
M  V30 2319 H 222.161 -0.253214 -3.9519 0
M  V30 2320 H 223.335 -3.06602 -3.43994 0
M  V30 2321 H 221.65 -2.6505 -3.2115 0
M  V30 2322 H 224.247 -0.798975 -5.28697 0
M  V30 2323 H 224.59 0.469474 -4.13644 0
M  V30 2324 H 225.123 -1.19452 -3.79442 0
M  V30 2325 H 221.862 -3.73355 -5.38782 0
M  V30 2326 H 221.382 -2.03971 -5.64053 0
M  V30 2327 H 223.061 -2.54922 -5.94663 0
M  V30 2328 N 223.193 1.4272 -0.668489 0
M  V30 2329 C 224.439 2.01923 -0.188419 0
M  V30 2330 C 224.772 1.52704 1.19979 0
M  V30 2331 O 224.047 0.726566 1.8042 0
M  V30 2332 C 224.33 3.59451 -0.216085 0
M  V30 2333 C 224.183 4.18864 -1.6393 0
M  V30 2334 C 225.502 4.37903 0.439179 0
M  V30 2335 H 222.621 0.733674 -0.0699412 0
M  V30 2336 H 225.263 1.69822 -0.852076 0
M  V30 2337 H 223.413 3.86929 0.349012 0
M  V30 2338 H 225.085 4.02362 -2.25616 0
M  V30 2339 H 223.328 3.74933 -2.18193 0
M  V30 2340 H 223.999 5.27987 -1.61039 0
M  V30 2341 H 226.475 4.16079 -0.0417878 0
M  V30 2342 H 225.351 5.47519 0.389157 0
M  V30 2343 H 225.612 4.15303 1.51577 0
M  V30 2344 N 224.671 0.411399 1.52136 0
M  V30 2345 C 225.604 -0.457614 2.23565 0
M  V30 2346 C 226.582 -1.04613 1.24478 0
M  V30 2347 O 227.766 -1.09356 1.53536 0
M  V30 2348 C 224.893 -1.6354 2.96602 0
M  V30 2349 C 223.939 -1.17005 4.10137 0
M  V30 2350 S 224.772 -0.13333 5.35334 0
M  V30 2351 C 225.928 -1.31638 6.119 0
M  V30 2352 H 226.161 0.148883 2.96927 0
M  V30 2353 H 223.694 0.195713 1.53155 0
M  V30 2354 H 225.652 -2.31074 3.39286 0
M  V30 2355 H 224.313 -2.21324 2.22878 0
M  V30 2356 H 223.506 -2.05005 4.60422 0
M  V30 2357 H 223.108 -0.573319 3.6958 0
M  V30 2358 H 225.4 -2.23957 6.39413 0
M  V30 2359 H 226.343 -0.854014 7.02931 0
M  V30 2360 H 226.751 -1.54321 5.42997 0
M  V30 2361 N 226.149 -1.5696 0.141893 0
M  V30 2362 C 227.426 -1.87553 -0.555281 0
M  V30 2363 C 227.806 -1.04699 -1.83306 0
M  V30 2364 O 227.154 -0.132346 -2.28116 0
M  V30 2365 C 227.364 -3.39093 -0.825664 0
M  V30 2366 C 228.712 -4.08199 -1.16869 0
M  V30 2367 O 229.736 -3.44242 -0.915185 0
M  V30 2368 O 228.595 -5.21139 -1.6455 0
M  V30 2369 H 225.689 -0.777188 -0.282679 0
M  V30 2370 H 228.235 -1.68763 0.17812 0
M  V30 2371 H 227.007 -3.91221 0.0788633 0
M  V30 2372 H 226.63 -3.63393 -1.61343 0
M  V30 2373 N 227.627 0.131896 -1.57047 0
M  V30 2374 C 228.852 0.860418 -1.8871 0
M  V30 2375 C 229.277 1.73251 -0.73251 0
M  V30 2376 O 228.635 1.785 0.317429 0
M  V30 2377 C 228.683 1.68047 -3.19049 0
M  V30 2378 O 227.787 2.7862 -3.04047 0
M  V30 2379 H 227.128 0.238743 -0.619595 0
M  V30 2380 H 229.658 0.118169 -2.04258 0
M  V30 2381 H 229.668 2.07238 -3.51449 0
M  V30 2382 H 228.343 1.04018 -4.02682 0
M  V30 2383 H 226.92 2.42726 -2.83088 0
M  V30 2384 N 229.106 1.52395 0.401703 0
M  V30 2385 C 230.354 1.66488 1.14569 0
M  V30 2386 C 230.675 0.400897 1.90835 0
M  V30 2387 O 229.945 -0.584415 1.8698 0
M  V30 2388 H 228.525 0.613672 0.425929 0
M  V30 2389 H 231.187 1.89464 0.457093 0
M  V30 2390 H 230.283 2.50942 1.85566 0
M  V30 2391 N 230.584 -0.659388 1.43143 0
M  V30 2392 C 231.861 -1.41627 1.34912 0
M  V30 2393 C 232.241 -2.11099 -0.00607785 0
M  V30 2394 O 231.589 -2.04353 -1.02236 0
M  V30 2395 C 231.799 -2.40604 2.52805 0
M  V30 2396 C 233.147 -3.04789 2.95616 0
M  V30 2397 O 234.171 -2.50932 2.52807 0
M  V30 2398 O 233.03 -4.02421 3.69756 0
M  V30 2399 H 230.124 -0.63246 0.532844 0
M  V30 2400 H 232.67 -0.686814 1.5518 0
M  V30 2401 H 231.442 -1.88174 3.43083 0
M  V30 2402 H 231.065 -3.21009 2.34604 0
M  V30 2403 N 232.062 -1.29571 -0.897171 0
M  V30 2404 C 233.31 -1.17456 -1.64464 0
M  V30 2405 C 233.631 0.273698 -1.9307 0
M  V30 2406 O 232.901 1.18684 -1.55855 0
M  V30 2407 H 231.481 -0.431706 -0.609622 0
M  V30 2408 H 234.143 -1.62531 -1.07562 0
M  V30 2409 H 233.239 -1.72648 -2.59998 0
M  V30 2410 N 233.54 1.10788 -1.12088 0
M  V30 2411 C 234.786 1.82942 -0.875226 0
M  V30 2412 C 235.119 1.84779 0.597538 0
M  V30 2413 O 234.394 1.30578 1.44152 0
M  V30 2414 C 234.677 3.29789 -1.44606 0
M  V30 2415 C 234.53 3.36307 -2.98693 0
M  V30 2416 C 235.849 4.26064 -1.10261 0
M  V30 2417 H 232.968 0.664195 -0.319397 0
M  V30 2418 H 235.61 1.29867 -1.38689 0
M  V30 2419 H 233.76 3.75118 -1.01089 0
M  V30 2420 H 235.432 2.99487 -3.50864 0
M  V30 2421 H 233.675 2.76318 -3.34411 0
M  V30 2422 H 234.346 4.39694 -3.33726 0
M  V30 2423 H 236.822 3.88951 -1.4784 0
M  V30 2424 H 235.698 5.27183 -1.52869 0
M  V30 2425 H 235.959 4.42098 -0.0142953 0
M  V30 2426 N 235.018 0.912232 1.28515 0
M  V30 2427 C 236.246 0.560416 1.99166 0
M  V30 2428 C 236.661 -0.857927 1.68182 0
M  V30 2429 O 236.018 -1.56805 0.933733 0
M  V30 2430 C 236.069 0.758142 3.53461 0
M  V30 2431 O 235.79 2.12067 3.83352 0
M  V30 2432 C 237.291 0.412954 4.41372 0
M  V30 2433 H 234.511 0.213805 0.636026 0
M  V30 2434 H 237.055 1.22502 1.63749 0
M  V30 2435 H 235.21 0.140556 3.87145 0
M  V30 2436 H 235.624 2.15923 4.77993 0
M  V30 2437 H 237.098 0.60208 5.48707 0
M  V30 2438 H 237.575 -0.65073 4.34353 0
M  V30 2439 H 238.181 1.00802 4.13182 0
M  V30 2440 N 236.496 -1.42363 0.676048 0
M  V30 2441 C 237.446 -2.27987 -0.0242903 0
M  V30 2442 C 238.43 -1.41153 -0.772319 0
M  V30 2443 O 239.622 -1.64592 -0.651025 0
M  V30 2444 C 236.751 -3.29195 -0.973953 0
M  V30 2445 C 235.837 -4.23512 -0.223202 0
M  V30 2446 N 236.228 -4.99865 0.772589 0
M  V30 2447 C 234.526 -4.43606 -0.461469 0
M  V30 2448 C 235.227 -5.68757 1.22027 0
M  V30 2449 N 234.203 -5.40811 0.549975 0
M  V30 2450 H 238.005 -2.84445 0.73949 0
M  V30 2451 H 235.519 -1.54341 0.50522 0
M  V30 2452 H 237.516 -3.89339 -1.49067 0
M  V30 2453 H 236.176 -2.74298 -1.73755 0
M  V30 2454 H 237.187 -5.04921 1.15217 0
M  V30 2455 H 233.864 -3.99749 -1.20446 0
M  V30 2456 H 235.254 -6.40007 2.0455 0
M  V30 2457 N 237.974 -0.419461 -1.51915 0
M  V30 2458 C 239.202 0.152136 -2.0634 0
M  V30 2459 C 239.617 1.37988 -1.28859 0
M  V30 2460 O 238.974 1.79243 -0.343232 0
M  V30 2461 C 239.025 0.492266 -3.58133 0
M  V30 2462 O 238.746 -0.686736 -4.32684 0
M  V30 2463 C 240.247 1.11648 -4.2901 0
M  V30 2464 H 237.467 0.0158325 -0.670813 0
M  V30 2465 H 240.011 -0.593394 -1.95702 0
M  V30 2466 H 238.166 1.18769 -3.68745 0
M  V30 2467 H 238.58 -0.400341 -5.2297 0
M  V30 2468 H 240.054 1.3046 -5.36362 0
M  V30 2469 H 240.531 2.09251 -3.86148 0
M  V30 2470 H 241.137 0.460958 -4.22795 0
M  V30 2471 N 239.452 1.56882 -0.150215 0
M  V30 2472 C 240.698 1.96518 0.500834 0
M  V30 2473 C 241.031 1.03527 1.64304 0
M  V30 2474 O 240.306 0.0782751 1.94342 0
M  V30 2475 C 240.589 3.45822 1.00395 0
M  V30 2476 C 240.442 4.49591 -0.136983 0
M  V30 2477 C 241.761 3.97704 1.88467 0
M  V30 2478 H 238.88 0.714535 0.18058 0
M  V30 2479 H 241.522 1.88577 -0.232091 0
M  V30 2480 H 239.672 3.5272 1.62851 0
M  V30 2481 H 241.344 4.5477 -0.77343 0
M  V30 2482 H 239.587 4.26441 -0.795652 0
M  V30 2483 H 240.258 5.51402 0.256815 0
M  V30 2484 H 242.734 3.93304 1.35834 0
M  V30 2485 H 241.61 5.0263 2.20578 0
M  V30 2486 H 241.871 3.40252 2.82279 0
M  V30 2487 N 240.93 -0.123565 1.57115 0
M  V30 2488 C 242.341 -0.681198 1.73829 0
M  V30 2489 C 242.692 -1.80535 0.768214 0
M  V30 2490 O 241.817 -2.16317 -0.0599103 0
M  V30 2491 C 242.412 -1.24246 3.15196 0
M  V30 2492 C 240.971 -1.74643 3.33432 0
M  V30 2493 C 240.118 -0.644284 2.69711 0
M  V30 2494 H 243.069 0.102315 1.5837 0
M  V30 2495 H 243.09 -2.11216 3.16493 0
M  V30 2496 H 242.602 -0.424062 3.85776 0
M  V30 2497 H 240.703 -2.58974 2.67886 0
M  V30 2498 H 240.816 -1.85902 4.41562 0
M  V30 2499 H 239.18 -1.07676 2.3082 0
M  V30 2500 H 239.963 0.163058 3.42913 0
M  V30 2501 N 242.408 -1.52605 -0.393616 0
M  V30 2502 C 243.657 -1.66649 -1.13627 0
M  V30 2503 C 243.97 -0.410364 -1.91247 0
M  V30 2504 O 245.176 -0.430854 -2.68059 0
M  V30 2505 C 243.632 -2.9449 -2.06891 0
M  V30 2506 C 243.24 -4.27266 -1.34714 0
M  V30 2507 C 244.984 -3.17899 -2.81319 0
M  V30 2508 C 242.891 -5.46217 -2.26717 0
M  V30 2509 H 241.821 -0.62084 -0.427871 0
M  V30 2510 H 244.472 -1.791 -0.399428 0
M  V30 2511 H 242.854 -2.75774 -2.84191 0
M  V30 2512 H 244.028 -4.56518 -0.626714 0
M  V30 2513 H 242.343 -4.10081 -0.722643 0
M  V30 2514 H 244.94 -4.03949 -3.50328 0
M  V30 2515 H 245.283 -2.32777 -3.45139 0
M  V30 2516 H 245.816 -3.37159 -2.11113 0
M  V30 2517 H 242.555 -6.33733 -1.67521 0
M  V30 2518 H 242.075 -5.21283 -2.96689 0
M  V30 2519 H 243.754 -5.7991 -2.86903 0
M  V30 2520 N 243.887 0.651787 -1.4349 0
M  V30 2521 C 245.117 1.43728 -1.48411 0
M  V30 2522 C 245.525 1.8893 -0.10103 0
M  V30 2523 O 244.868 1.60182 0.899307 0
M  V30 2524 C 244.93 2.70411 -2.36893 0
M  V30 2525 C 244.594 2.4714 -3.8441 0
M  V30 2526 C 245.591 2.10271 -4.75481 0
M  V30 2527 C 243.276 2.6142 -4.28912 0
M  V30 2528 C 245.27 1.87982 -6.0905 0
M  V30 2529 C 242.957 2.38746 -5.62533 0
M  V30 2530 C 243.955 2.02083 -6.5242 0
M  V30 2531 O 243.643 1.79647 -7.8357 0
M  V30 2532 H 243.375 0.447962 -0.506267 0
M  V30 2533 H 245.929 0.80624 -1.88915 0
M  V30 2534 H 244.159 3.36079 -1.91278 0
M  V30 2535 H 245.848 3.32364 -2.33 0
M  V30 2536 H 246.614 1.98814 -4.42378 0
M  V30 2537 H 242.493 2.88931 -3.59222 0
M  V30 2538 H 246.037 1.5929 -6.7917 0
M  V30 2539 H 241.934 2.49806 -5.95203 0
M  V30 2540 H 242.702 1.9406 -7.95162 0
M  V30 2541 N 245.365 1.30045 0.890287 0
M  V30 2542 C 246.275 1.17885 2.02831 0
M  V30 2543 C 247.291 0.0999609 1.73713 0
M  V30 2544 O 248.467 0.313867 1.98939 0
M  V30 2545 C 245.532 0.866079 3.35708 0
M  V30 2546 C 244.593 2.02979 3.78283 0
M  V30 2547 C 243.826 1.73184 5.0482 0
M  V30 2548 O 244.049 0.657237 5.66601 0
M  V30 2549 O 242.983 2.58267 5.43674 0
M  V30 2550 H 246.809 2.13474 2.16015 0
M  V30 2551 H 244.394 1.09587 1.01543 0
M  V30 2552 H 246.276 0.706623 4.15433 0
M  V30 2553 H 244.951 -0.0599443 3.23644 0
M  V30 2554 H 243.858 2.24454 2.99285 0
M  V30 2555 H 245.191 2.93734 3.94944 0
M  V30 2556 N 246.843 -1.10192 1.12674 0
M  V30 2557 C 248.091 -1.81845 0.881861 0
M  V30 2558 C 248.412 -1.85737 -0.593867 0
M  V30 2559 O 247.682 -1.33724 -1.4316 0
M  V30 2560 H 246.262 -0.673432 0.323261 0
M  V30 2561 H 248.924 -1.33316 1.42172 0
M  V30 2562 H 248.02 -2.85288 1.2656 0
M  V30 2563 N 248.321 -0.919034 -1.28029 0
M  V30 2564 C 249.551 -0.570143 -1.98577 0
M  V30 2565 C 249.959 0.854172 -1.68821 0
M  V30 2566 O 249.302 1.57807 -0.940351 0
M  V30 2567 C 249.364 -0.705734 -3.52505 0
M  V30 2568 C 249.028 -2.10057 -4.05863 0
M  V30 2569 C 250.025 -3.07385 -4.19298 0
M  V30 2570 C 247.71 -2.41517 -4.40426 0
M  V30 2571 C 249.704 -4.34287 -4.66555 0
M  V30 2572 C 247.391 -3.68657 -4.87376 0
M  V30 2573 C 248.389 -4.64856 -5.00398 0
M  V30 2574 O 248.077 -5.89735 -5.46322 0
M  V30 2575 H 247.809 -0.215592 -0.6407 0
M  V30 2576 H 250.363 -1.23583 -1.64062 0
M  V30 2577 H 248.593 0.0170414 -3.86696 0
M  V30 2578 H 250.282 -0.363172 -4.04272 0
M  V30 2579 H 251.048 -2.84398 -3.92865 0
M  V30 2580 H 246.927 -1.67389 -4.29537 0
M  V30 2581 H 250.471 -5.09377 -4.76635 0
M  V30 2582 H 246.368 -3.91466 -5.13249 0
M  V30 2583 H 247.136 -5.92599 -5.64596 0
M  V30 2584 N 249.799 1.42003 -0.683588 0
M  V30 2585 C 250.762 2.29191 -0.0198243 0
M  V30 2586 C 251.762 1.43773 0.72013 0
M  V30 2587 O 252.952 1.65061 0.556815 0
M  V30 2588 C 250.084 3.26435 0.982487 0
M  V30 2589 H 251.277 2.8938 -0.787345 0
M  V30 2590 H 248.83 1.49789 -0.446418 0
M  V30 2591 H 249.565 2.71203 1.77819 0
M  V30 2592 H 249.35 3.89449 0.455182 0
M  V30 2593 H 250.84 3.918 1.44508 0
M  V30 2594 N 251.277 0.427512 1.51691 0
M  V30 2595 C 252.207 -0.3796 2.30394 0
M  V30 2596 C 253.188 -1.02982 1.35384 0
M  V30 2597 O 254.373 -1.03534 1.643 0
M  V30 2598 C 251.503 -1.48649 3.1388 0
M  V30 2599 C 250.457 -0.960294 4.17088 0
M  V30 2600 C 249.783 -2.16219 4.89033 0
M  V30 2601 C 251.083 -0.00153679 5.223 0
M  V30 2602 H 252.777 0.277164 2.98114 0
M  V30 2603 H 250.323 0.134739 1.43368 0
M  V30 2604 H 252.276 -2.05826 3.67714 0
M  V30 2605 H 251 -2.1714 2.43962 0
M  V30 2606 H 249.659 -0.410806 3.64291 0
M  V30 2607 H 249.307 -2.83307 4.15628 0
M  V30 2608 H 249.007 -1.81654 5.58816 0
M  V30 2609 H 250.531 -2.73968 5.45687 0
M  V30 2610 H 251.945 -0.482687 5.71264 0
M  V30 2611 H 250.342 0.256199 5.99553 0
M  V30 2612 H 251.412 0.938174 4.75738 0
M  V30 2613 N 252.755 -1.56801 0.158532 0
M  V30 2614 C 254.166 -1.83189 -0.360366 0
M  V30 2615 C 254.517 -1.07778 -1.63946 0
M  V30 2616 O 253.642 -0.326718 -2.13919 0
M  V30 2617 C 254.237 -3.32297 -0.660595 0
M  V30 2618 C 252.796 -3.59227 -1.12398 0
M  V30 2619 C 251.943 -2.76877 -0.153097 0
M  V30 2620 H 254.894 -1.54008 0.383031 0
M  V30 2621 H 254.915 -3.4908 -1.51405 0
M  V30 2622 H 254.427 -3.87156 0.270527 0
M  V30 2623 H 252.528 -3.09766 -2.07064 0
M  V30 2624 H 252.641 -4.67632 -1.04197 0
M  V30 2625 H 251.005 -2.46319 -0.647983 0
M  V30 2626 H 251.788 -3.34511 0.77182 0
M  V30 2627 N 254.233 0.115231 -1.57178 0
M  V30 2628 C 255.183 1.14707 -1.97044 0
M  V30 2629 C 256.167 1.36866 -0.845957 0
M  V30 2630 O 257.359 1.37895 -1.10968 0
M  V30 2631 C 254.488 2.47266 -2.38148 0
M  V30 2632 C 253.574 2.28566 -3.57237 0
M  V30 2633 N 253.965 1.79685 -4.72807 0
M  V30 2634 C 252.263 2.59208 -3.62943 0
M  V30 2635 C 252.964 1.74781 -5.54821 0
M  V30 2636 N 251.94 2.19264 -4.97417 0
M  V30 2637 H 255.742 0.761754 -2.83857 0
M  V30 2638 H 253.256 0.322928 -1.59157 0
M  V30 2639 H 255.253 3.219 -2.64927 0
M  V30 2640 H 253.913 2.86552 -1.52702 0
M  V30 2641 H 254.924 1.49177 -4.9595 0
M  V30 2642 H 251.601 3.02154 -2.88113 0
M  V30 2643 H 252.991 1.38212 -6.57531 0
M  V30 2644 N 255.711 1.52812 0.385517 0
M  V30 2645 C 256.674 1.77188 1.45386 0
M  V30 2646 C 257.674 0.641953 1.4743 0
M  V30 2647 O 258.864 0.910033 1.4854 0
M  V30 2648 C 255.996 1.87582 2.8465 0
M  V30 2649 H 257.189 2.72583 1.25054 0
M  V30 2650 H 254.742 1.43586 0.617467 0
M  V30 2651 H 255.477 0.941849 3.10322 0
M  V30 2652 H 255.262 2.69748 2.84567 0
M  V30 2653 H 256.752 2.08102 3.62054 0
M  V30 2654 N 257.189 -0.644168 1.43834 0
M  V30 2655 C 258.438 -1.39985 1.45214 0
M  V30 2656 C 258.751 -1.95421 0.0835494 0
M  V30 2657 O 259.957 -2.71488 -0.0251748 0
M  V30 2658 C 258.413 -2.53384 2.55587 0
M  V30 2659 C 258.021 -2.04517 3.98594 0
M  V30 2660 C 259.765 -3.30685 2.66172 0
M  V30 2661 C 257.672 -3.1518 5.00416 0
M  V30 2662 H 256.602 -0.526005 0.540218 0
M  V30 2663 H 259.253 -0.694367 1.69855 0
M  V30 2664 H 257.635 -3.26446 2.24163 0
M  V30 2665 H 258.809 -1.38405 4.39523 0
M  V30 2666 H 257.124 -1.40068 3.92135 0
M  V30 2667 H 259.721 -4.13158 3.39418 0
M  V30 2668 H 260.064 -3.79312 1.71546 0
M  V30 2669 H 260.597 -2.64708 2.96942 0
M  V30 2670 H 257.336 -2.71511 5.96625 0
M  V30 2671 H 256.856 -3.79974 4.64091 0
M  V30 2672 H 258.535 -3.80166 5.23529 0
M  V30 2673 N 258.668 -1.30515 -0.883378 0
M  V30 2674 C 259.598 -1.19607 -2.00541 0
M  V30 2675 C 260.579 -0.086346 -1.69881 0
M  V30 2676 O 261.764 -0.268654 -1.92333 0
M  V30 2677 C 258.894 -0.888758 -3.35736 0
M  V30 2678 C 257.848 -1.95659 -3.8066 0
M  V30 2679 C 257.174 -1.50224 -5.13164 0
M  V30 2680 C 258.474 -3.36788 -3.99213 0
M  V30 2681 H 260.168 -2.13476 -2.09925 0
M  V30 2682 H 257.714 -1.02775 -1.00863 0
M  V30 2683 H 259.667 -0.799094 -4.13754 0
M  V30 2684 H 258.391 0.0856125 -3.26488 0
M  V30 2685 H 257.05 -2.03591 -3.04871 0
M  V30 2686 H 256.698 -0.516092 -5.00345 0
M  V30 2687 H 256.398 -2.2165 -5.44192 0
M  V30 2688 H 257.922 -1.42639 -5.93706 0
M  V30 2689 H 259.336 -3.31605 -4.67665 0
M  V30 2690 H 257.733 -4.06314 -4.41621 0
M  V30 2691 H 258.803 -3.78561 -3.03017 0
M  V30 2692 N 260.146 1.09593 -1.13257 0
M  V30 2693 C 261.562 1.33775 -0.870423 0
M  V30 2694 C 261.762 1.95327 0.494926 0
M  V30 2695 O 260.818 2.19853 1.2418 0
M  V30 2696 C 262.131 2.25106 -1.99369 0
M  V30 2697 C 263.679 2.3862 -2.02558 0
M  V30 2698 C 264.154 3.33285 -3.14142 0
M  V30 2699 N 265.645 3.40857 -3.13641 0
M  V30 2700 C 266.38 4.14101 -3.96621 0
M  V30 2701 N 265.876 4.90157 -4.8961 0
M  V30 2702 N 267.669 4.09808 -3.84726 0
M  V30 2703 H 259.82 0.680136 -2.01216 0
M  V30 2704 H 262.083 0.362133 -0.876107 0
M  V30 2705 H 261.789 1.87103 -2.97801 0
M  V30 2706 H 261.663 3.25481 -1.90635 0
M  V30 2707 H 264.05 2.75887 -1.0474 0
M  V30 2708 H 264.131 1.38028 -2.15364 0
M  V30 2709 H 263.775 2.96741 -4.12198 0
M  V30 2710 H 263.705 4.33776 -2.98574 0
M  V30 2711 H 266.196 2.86624 -2.46282 0
M  V30 2712 H 266.509 5.4347 -5.49418 0
M  V30 2713 H 264.854 4.89251 -4.93617 0
M  V30 2714 H 268.045 3.4949 -3.11408 0
M  V30 2715 H 268.218 4.66629 -4.49623 0
M  V30 2716 N 261.624 0.925811 1.2754 0
M  V30 2717 C 262.554 0.440748 2.29303 0
M  V30 2718 C 263.535 -0.497971 1.62648 0
M  V30 2719 O 264.72 -0.403126 1.8997 0
M  V30 2720 C 261.85 -0.309048 3.45922 0
M  V30 2721 C 260.804 0.54166 4.24559 0
M  V30 2722 C 260.13 -0.337191 5.33636 0
M  V30 2723 C 261.43 1.80516 4.90114 0
M  V30 2724 H 263.124 1.29121 2.70126 0
M  V30 2725 H 260.67 0.622323 1.29858 0
M  V30 2726 H 262.623 -0.659315 4.1621 0
M  V30 2727 H 261.347 -1.19352 3.04011 0
M  V30 2728 H 260.006 0.874609 3.56014 0
M  V30 2729 H 259.654 -1.22056 4.87966 0
M  V30 2730 H 259.354 0.228497 5.87156 0
M  V30 2731 H 260.878 -0.683072 6.06767 0
M  V30 2732 H 262.292 1.52307 5.52698 0
M  V30 2733 H 260.689 2.3142 5.53683 0
M  V30 2734 H 261.759 2.52581 4.13921 0
M  V30 2735 N 263.102 -1.41638 0.69111 0
M  V30 2736 C 264.379 -1.95036 0.148421 0
M  V30 2737 C 264.759 -1.63072 -1.34055 0
M  V30 2738 O 264.107 -0.93538 -2.08478 0
M  V30 2739 C 264.317 -3.46279 0.434951 0
M  V30 2740 C 265.665 -4.23069 0.360275 0
M  V30 2741 O 266.689 -3.54277 0.369613 0
M  V30 2742 O 265.548 -5.45583 0.316534 0
M  V30 2743 H 262.642 -0.826908 0.0123654 0
M  V30 2744 H 265.188 -1.5138 0.766963 0
M  V30 2745 H 263.96 -3.6281 1.46576 0
M  V30 2746 H 263.583 -3.97019 -0.214787 0
M  V30 2747 N 264.58 -0.43555 -1.51462 0
M  V30 2748 C 265.51 0.367376 -2.30592 0
M  V30 2749 C 266.491 1.02263 -1.35928 0
M  V30 2750 O 267.676 1.02661 -1.64847 0
M  V30 2751 C 264.806 1.46983 -3.14664 0
M  V30 2752 C 263.76 0.938161 -4.17591 0
M  V30 2753 C 263.086 2.13622 -4.90173 0
M  V30 2754 C 264.386 -0.0261621 -5.22293 0
M  V30 2755 H 266.08 -0.292969 -2.97963 0
M  V30 2756 H 263.626 -0.14234 -1.43295 0
M  V30 2757 H 265.579 2.03873 -3.688 0
M  V30 2758 H 264.303 2.15843 -2.4511 0
M  V30 2759 H 262.962 0.391481 -3.64504 0
M  V30 2760 H 262.61 2.81098 -4.17124 0
M  V30 2761 H 262.31 1.78688 -5.59772 0
M  V30 2762 H 263.834 2.7107 -5.47132 0
M  V30 2763 H 265.248 0.452384 -5.71512 0
M  V30 2764 H 263.645 -0.287992 -5.99409 0
M  V30 2765 H 264.715 -0.963391 -4.75233 0
M  V30 2766 N 266.058 1.56714 -0.166846 0
M  V30 2767 C 267.021 2.16539 0.751232 0
M  V30 2768 C 268.021 1.11228 1.16125 0
M  V30 2769 O 269.211 1.36765 1.07894 0
M  V30 2770 C 266.343 2.74462 2.02196 0
M  V30 2771 H 267.536 2.99013 0.230499 0
M  V30 2772 H 265.089 1.56081 0.0826982 0
M  V30 2773 H 265.824 1.95709 2.58589 0
M  V30 2774 H 265.609 3.51527 1.73698 0
M  V30 2775 H 267.099 3.20489 2.67725 0
M  V30 2776 N 267.536 -0.106894 1.57237 0
M  V30 2777 C 268.784 -0.810921 1.85117 0
M  V30 2778 C 269.105 -1.7984 0.753827 0
M  V30 2779 O 268.375 -1.94649 -0.221056 0
M  V30 2780 H 266.955 -0.302466 0.683025 0
M  V30 2781 H 269.617 -0.0913324 1.94686 0
M  V30 2782 H 268.713 -1.34875 2.81452 0
M  V30 2783 N 269.014 -1.53014 -0.377408 0
M  V30 2784 C 270.43 -1.42523 -0.718281 0
M  V30 2785 C 270.63 -0.55487 -1.9371 0
M  V30 2786 O 269.686 -0.0327593 -2.52479 0
M  V30 2787 C 270.999 -2.85546 -0.942539 0
M  V30 2788 C 272.547 -2.95101 -1.04329 0
M  V30 2789 C 273.022 -4.3916 -1.3001 0
M  V30 2790 N 274.513 -4.42536 -1.36806 0
M  V30 2791 C 275.248 -5.51097 -1.58364 0
M  V30 2792 N 274.744 -6.69724 -1.77317 0
M  V30 2793 N 276.537 -5.38657 -1.60638 0
M  V30 2794 H 268.688 -2.08116 0.424426 0
M  V30 2795 H 270.951 -0.939352 0.127759 0
M  V30 2796 H 270.657 -3.51499 -0.118929 0
M  V30 2797 H 270.531 -3.28493 -1.85397 0
M  V30 2798 H 272.918 -2.29309 -1.85745 0
M  V30 2799 H 272.999 -2.55566 -0.109505 0
M  V30 2800 H 272.643 -5.05521 -0.490991 0
M  V30 2801 H 272.573 -4.76258 -2.24691 0
M  V30 2802 H 275.064 -3.57039 -1.23821 0
M  V30 2803 H 275.377 -7.48233 -1.93306 0
M  V30 2804 H 273.722 -6.72732 -1.74518 0
M  V30 2805 H 276.913 -4.44948 -1.45391 0
M  V30 2806 H 277.086 -6.2333 -1.77098 0
M  V30 2807 N 270.492 0.636531 -1.44174 0
M  V30 2808 C 271.769 1.39463 -1.37148 0
M  V30 2809 C 272.149 2.11082 -0.027507 0
M  V30 2810 O 271.497 2.05954 0.989716 0
M  V30 2811 C 271.707 2.36552 -2.56601 0
M  V30 2812 C 273.055 3.00048 -3.00427 0
M  V30 2813 O 274.079 2.46878 -2.56767 0
M  V30 2814 O 272.938 3.96488 -3.76111 0
M  V30 2815 H 270.032 0.623903 -0.542839 0
M  V30 2816 H 272.578 0.662039 -1.56253 0
M  V30 2817 H 271.35 1.82692 -3.46034 0
M  V30 2818 H 270.973 3.17236 -2.39681 0
M  V30 2819 N 271.97 1.30982 0.876444 0
M  V30 2820 C 272.9 1.20668 1.99903 0
M  V30 2821 C 273.881 0.095354 1.69833 0
M  V30 2822 O 275.066 0.27885 1.92188 0
M  V30 2823 C 272.196 0.90655 3.3526 0
M  V30 2824 C 271.15 1.97675 3.79617 0
M  V30 2825 C 270.476 1.52943 5.1236 0
M  V30 2826 C 271.776 3.389 3.97422 0
M  V30 2827 H 273.47 2.14586 2.0879 0
M  V30 2828 H 271.016 1.03308 1.00317 0
M  V30 2829 H 272.969 0.821025 4.13324 0
M  V30 2830 H 271.693 -0.0682969 3.26529 0
M  V30 2831 H 270.352 2.05205 3.03787 0
M  V30 2832 H 270 0.54262 5.00065 0
M  V30 2833 H 269.7 2.24532 5.43009 0
M  V30 2834 H 271.224 1.45786 5.92941 0
M  V30 2835 H 272.638 3.34081 4.659 0
M  V30 2836 H 271.035 4.0865 4.3946 0
M  V30 2837 H 272.105 3.80163 3.01006 0
M  V30 2838 N 273.449 -1.08991 1.13837 0
M  V30 2839 C 274.677 -1.85011 0.926202 0
M  V30 2840 C 275.092 -1.8135 -0.525127 0
M  V30 2841 O 274.449 -1.21287 -1.36366 0
M  V30 2842 C 274.5 -3.32802 1.41155 0
M  V30 2843 O 274.221 -3.36444 2.80601 0
M  V30 2844 C 275.722 -4.25649 1.23847 0
M  V30 2845 H 272.942 -0.584249 0.32999 0
M  V30 2846 H 275.486 -1.37688 1.51202 0
M  V30 2847 H 273.641 -3.77536 0.868631 0
M  V30 2848 H 274.055 -4.28657 3.02248 0
M  V30 2849 H 275.529 -5.27485 1.62675 0
M  V30 2850 H 276.006 -4.38828 0.18065 0
M  V30 2851 H 276.612 -3.86735 1.76964 0
M  V30 2852 N 274.927 -0.932562 -1.27047 0
M  V30 2853 C 276.204 -0.49377 -1.89265 0
M  V30 2854 C 276.584 1.02833 -1.8436 0
M  V30 2855 O 275.932 1.88461 -1.29209 0
M  V30 2856 C 276.142 -1.04536 -3.32976 0
M  V30 2857 C 277.49 -1.10879 -4.09867 0
M  V30 2858 O 278.514 -0.995327 -3.42011 0
M  V30 2859 O 277.373 -1.28417 -5.31198 0
M  V30 2860 H 274.467 -0.159596 -0.811454 0
M  V30 2861 H 277.013 -1.02457 -1.3528 0
M  V30 2862 H 275.785 -2.08913 -3.30864 0
M  V30 2863 H 275.408 -0.496494 -3.94488 0
M  V30 2864 N 276.405 1.4127 -0.698611 0
M  V30 2865 C 277.635 2.05205 -0.239644 0
M  V30 2866 C 278.043 1.52684 1.11733 0
M  V30 2867 O 277.386 0.671222 1.70998 0
M  V30 2868 C 277.448 3.59289 -0.123126 0
M  V30 2869 C 277.112 4.34619 -1.41263 0
M  V30 2870 C 278.109 4.63701 -2.35111 0
M  V30 2871 C 275.794 4.73837 -1.66684 0
M  V30 2872 C 277.788 5.30966 -3.52639 0
M  V30 2873 C 275.475 5.40837 -2.84498 0
M  V30 2874 C 276.473 5.69329 -3.77298 0
M  V30 2875 O 276.161 6.34949 -4.93047 0
M  V30 2876 H 275.893 0.66723 -0.108537 0
M  V30 2877 H 278.447 1.81974 -0.952602 0
M  V30 2878 H 276.677 3.81272 0.645628 0
M  V30 2879 H 278.366 4.04797 0.299056 0
M  V30 2880 H 279.132 4.33882 -2.16729 0
M  V30 2881 H 275.011 4.51039 -0.953135 0
M  V30 2882 H 278.555 5.53121 -4.25091 0
M  V30 2883 H 274.452 5.70075 -3.02795 0
M  V30 2884 H 275.22 6.53445 -4.92902 0
M  V30 2885 N 277.883 0.443576 1.51229 0
M  V30 2886 C 278.813 -0.355142 2.30783 0
M  V30 2887 C 279.794 -1.0154 1.36468 0
M  V30 2888 O 280.979 -1.01785 1.65389 0
M  V30 2889 C 278.109 -1.45312 3.15439 0
M  V30 2890 C 277.063 -0.916002 4.18083 0
M  V30 2891 C 276.389 -2.1102 4.91299 0
M  V30 2892 C 277.689 0.0538602 5.22272 0
M  V30 2893 H 279.383 0.308767 2.97804 0
M  V30 2894 H 276.929 0.149937 1.43217 0
M  V30 2895 H 278.882 -2.01914 3.69876 0
M  V30 2896 H 277.606 -2.14541 2.46252 0
M  V30 2897 H 276.265 -0.372145 3.64706 0
M  V30 2898 H 275.913 -2.78882 4.18609 0
M  V30 2899 H 275.613 -1.75717 5.60712 0
M  V30 2900 H 277.137 -2.68164 5.48562 0
M  V30 2901 H 278.551 -0.422069 5.71744 0
M  V30 2902 H 276.948 0.319776 5.99247 0
M  V30 2903 H 278.018 0.98858 4.74716 0
M  V30 2904 N 279.361 -1.56624 0.175154 0
M  V30 2905 C 280.294 -2.14 -0.792412 0
M  V30 2906 C 281.272 -1.07114 -1.22333 0
M  V30 2907 O 282.456 -1.35112 -1.31442 0
M  V30 2908 C 279.583 -2.68268 -2.0676 0
M  V30 2909 C 278.629 -3.87562 -1.7804 0
M  V30 2910 S 279.462 -5.27074 -0.946222 0
M  V30 2911 C 280.618 -5.8475 -2.23199 0
M  V30 2912 H 280.851 -2.95736 -0.304588 0
M  V30 2913 H 278.384 -1.54349 -0.0395705 0
M  V30 2914 H 280.342 -3.00182 -2.80002 0
M  V30 2915 H 279.003 -1.86612 -2.52656 0
M  V30 2916 H 278.196 -4.23874 -2.72666 0
M  V30 2917 H 277.798 -3.56555 -1.12891 0
M  V30 2918 H 280.09 -5.97898 -3.18629 0
M  V30 2919 H 281.033 -6.81756 -1.91349 0
M  V30 2920 H 281.441 -5.13198 -2.35134 0
M  V30 2921 N 280.839 0.0985539 -1.57292 0
M  V30 2922 C 281.786 1.11981 -2.01814 0
M  V30 2923 C 282.756 1.39999 -0.89384 0
M  V30 2924 O 283.941 1.5152 -1.15958 0
M  V30 2925 C 281.081 2.43577 -2.44467 0
M  V30 2926 C 280.194 2.2232 -3.70402 0
M  V30 2927 C 279.329 3.4729 -4.01949 0
M  V30 2928 C 278.368 3.2128 -5.21005 0
M  V30 2929 N 277.505 4.38507 -5.48321 0
M  V30 2930 H 282.345 0.733149 -2.88841 0
M  V30 2931 H 279.882 0.350482 -1.42864 0
M  V30 2932 H 281.84 3.20373 -2.6724 0
M  V30 2933 H 280.47 2.80097 -1.60455 0
M  V30 2934 H 279.522 1.36343 -3.55126 0
M  V30 2935 H 280.834 1.99089 -4.57345 0
M  V30 2936 H 279.988 4.32495 -4.25479 0
M  V30 2937 H 278.727 3.73572 -3.13521 0
M  V30 2938 H 277.732 2.34468 -4.97298 0
M  V30 2939 H 278.957 2.96348 -6.11028 0
M  V30 2940 H 276.903 4.64871 -4.62851 0
M  V30 2941 H 276.82 4.18455 -6.29628 0
M  V30 2942 H 278.088 5.24787 -5.76385 0
M  V30 2943 N 282.317 1.53212 0.369288 0
M  V30 2944 C 283.566 1.68436 1.10961 0
M  V30 2945 C 283.879 0.440738 1.9057 0
M  V30 2946 O 285.085 0.473446 2.6734 0
M  V30 2947 C 283.541 2.97744 2.0218 0
M  V30 2948 C 283.149 4.29355 1.279 0
M  V30 2949 C 284.893 3.22334 2.76226 0
M  V30 2950 C 282.8 5.49755 2.17999 0
M  V30 2951 H 281.73 0.627568 0.41794 0
M  V30 2952 H 284.381 1.79713 0.370884 0
M  V30 2953 H 282.763 2.8026 2.79768 0
M  V30 2954 H 283.937 4.57458 0.554007 0
M  V30 2955 H 282.252 4.11179 0.657311 0
M  V30 2956 H 284.849 4.09471 3.43857 0
M  V30 2957 H 285.192 2.38238 3.41392 0
M  V30 2958 H 285.725 3.40475 2.05723 0
M  V30 2959 H 282.464 6.36318 1.57417 0
M  V30 2960 H 281.984 5.25937 2.88359 0
M  V30 2961 H 283.663 5.84401 2.77641 0
M  V30 2962 N 283.795 -0.628877 1.44509 0
M  V30 2963 C 284.725 -1.75187 1.54376 0
M  V30 2964 C 285.706 -1.65411 0.396618 0
M  V30 2965 O 286.891 -1.84137 0.617031 0
M  V30 2966 C 284.021 -3.13725 1.48976 0
M  V30 2967 C 282.975 -3.38291 2.62189 0
M  V30 2968 C 282.301 -4.76883 2.41841 0
M  V30 2969 C 283.601 -3.30632 4.04326 0
M  V30 2970 H 285.295 -1.67187 2.48373 0
M  V30 2971 H 282.841 -0.802909 1.19538 0
M  V30 2972 H 284.794 -3.92064 1.54478 0
M  V30 2973 H 283.518 -3.22515 0.514961 0
M  V30 2974 H 282.177 -2.62334 2.56079 0
M  V30 2975 H 281.825 -4.82378 1.42548 0
M  V30 2976 H 281.525 -4.94278 3.17747 0
M  V30 2977 H 283.049 -5.57449 2.49165 0
M  V30 2978 H 284.463 -3.98873 4.11793 0
M  V30 2979 H 282.86 -3.59561 4.80454 0
M  V30 2980 H 283.93 -2.28404 4.27738 0
M  V30 2981 N 285.273 -1.31445 -0.869486 0
M  V30 2982 C 286.501 -1.24122 -1.65534 0
M  V30 2983 C 286.916 0.193387 -1.87807 0
M  V30 2984 O 286.273 1.12557 -1.43656 0
M  V30 2985 C 286.324 -1.98229 -3.02304 0
M  V30 2986 O 286.045 -3.3609 -2.81026 0
M  V30 2987 C 287.546 -1.97751 -3.96749 0
M  V30 2988 H 284.766 -0.428868 -0.516055 0
M  V30 2989 H 287.31 -1.73328 -1.08525 0
M  V30 2990 H 285.465 -1.52782 -3.56001 0
M  V30 2991 H 285.879 -3.7383 -3.67902 0
M  V30 2992 H 287.353 -2.54114 -4.90031 0
M  V30 2993 H 287.83 -0.960137 -4.28577 0
M  V30 2994 H 288.436 -2.43079 -3.48988 0
M  V30 2995 N 286.751 1.08385 -1.14413 0
M  V30 2996 C 287.661 2.18856 -0.844951 0
M  V30 2997 C 288.677 1.73121 0.174668 0
M  V30 2998 O 289.853 2.014 0.00312857 0
M  V30 2999 C 286.918 3.45155 -0.32696 0
M  V30 3000 C 285.979 4.05513 -1.40916 0
M  V30 3001 C 285.212 5.25784 -0.915793 0
M  V30 3002 O 285.435 5.69884 0.242651 0
M  V30 3003 O 284.369 5.77545 -1.69487 0
M  V30 3004 H 288.195 2.46919 -1.76818 0
M  V30 3005 H 285.78 1.17524 -0.922411 0
M  V30 3006 H 287.662 4.21377 -0.0440211 0
M  V30 3007 H 286.337 3.18668 0.568539 0
M  V30 3008 H 285.244 3.30879 -1.74556 0
M  V30 3009 H 286.577 4.3625 -2.27919 0
M  V30 3010 N 288.23 0.939286 1.26551 0
M  V30 3011 C 289.646 0.641304 1.46149 0
M  V30 3012 C 289.846 -0.805964 1.84679 0
M  V30 3013 O 288.902 -1.58278 1.96734 0
M  V30 3014 C 290.215 1.6011 2.54529 0
M  V30 3015 C 291.763 1.6106 2.68382 0
M  V30 3016 C 292.238 2.55765 3.79932 0
M  V30 3017 N 293.729 2.5404 3.87322 0
M  V30 3018 C 294.464 3.24004 4.73085 0
M  V30 3019 N 293.96 4.03388 5.63249 0
M  V30 3020 N 295.753 3.12965 4.66914 0
M  V30 3021 H 287.904 1.87478 0.998285 0
M  V30 3022 H 290.167 0.805559 0.499779 0
M  V30 3023 H 289.873 2.63412 2.33039 0
M  V30 3024 H 289.747 1.35171 3.52149 0
M  V30 3025 H 292.134 0.584835 2.89247 0
M  V30 3026 H 292.215 1.90053 1.71212 0
M  V30 3027 H 291.859 3.58458 3.5982 0
M  V30 3028 H 291.789 2.24063 4.76554 0
M  V30 3029 H 294.28 1.96396 3.22858 0
M  V30 3030 H 294.593 4.5373 6.25579 0
M  V30 3031 H 292.938 4.07489 5.63008 0
M  V30 3032 H 296.129 2.50432 3.95476 0
M  V30 3033 H 296.302 3.67759 5.33533 0
M  V30 3034 N 289.708 -1.40897 0.706093 0
M  V30 3035 C 290.956 -2.00657 0.241054 0
M  V30 3036 C 291.277 -1.56241 -1.16678 0
M  V30 3037 O 290.547 -0.79765 -1.78926 0
M  V30 3038 H 289.127 -0.742018 0.0861308 0
M  V30 3039 H 291.789 -1.72372 0.909604 0
M  V30 3040 H 290.885 -3.10958 0.266705 0
M  V30 3041 N 291.186 -0.45159 -1.50991 0
M  V30 3042 C 292.416 0.108177 -2.06317 0
M  V30 3043 C 292.824 1.35774 -1.31765 0
M  V30 3044 O 292.167 1.79838 -0.374694 0
M  V30 3045 C 292.229 0.481659 -3.56259 0
M  V30 3046 C 291.893 -0.663114 -4.52163 0
M  V30 3047 C 292.89 -1.53947 -4.96585 0
M  V30 3048 C 290.575 -0.8479 -4.95092 0
M  V30 3049 C 292.569 -2.58518 -5.82621 0
M  V30 3050 C 290.256 -1.89686 -5.80915 0
M  V30 3051 C 291.254 -2.76388 -6.24579 0
M  V30 3052 O 290.942 -3.79482 -7.08695 0
M  V30 3053 H 290.674 0.00499183 -0.675982 0
M  V30 3054 H 293.228 -0.633659 -1.95381 0
M  V30 3055 H 291.458 1.27641 -3.65027 0
M  V30 3056 H 293.147 0.974233 -3.94035 0
M  V30 3057 H 293.913 -1.4083 -4.64103 0
M  V30 3058 H 289.792 -0.18258 -4.60638 0
M  V30 3059 H 293.336 -3.26224 -6.16623 0
M  V30 3060 H 289.233 -2.02817 -6.12809 0
M  V30 3061 H 290.001 -3.76234 -7.26905 0
M  V30 3062 N 292.664 1.56529 -0.183458 0
M  V30 3063 C 293.889 2.02064 0.467428 0
M  V30 3064 C 294.314 1.06282 1.55196 0
M  V30 3065 O 293.672 0.0443565 1.81246 0
M  V30 3066 C 293.72 3.46122 1.01153 0
M  V30 3067 O 292.824 3.53437 2.12499 0
M  V30 3068 H 292.165 0.654726 0.110588 0
M  V30 3069 H 294.695 2.02521 -0.290917 0
M  V30 3070 H 294.705 3.85676 1.33108 0
M  V30 3071 H 293.38 4.15331 0.217533 0
M  V30 3072 H 291.957 3.2575 1.81497 0
M  V30 3073 N 294.142 -0.090211 1.57342 0
M  V30 3074 C 295.389 -0.792807 1.86335 0
M  V30 3075 C 295.717 -1.78494 0.772662 0
M  V30 3076 O 294.972 -1.94305 -0.233258 0
M  V30 3077 C 295.271 -1.55222 3.21933 0
M  V30 3078 C 294.937 -0.701765 4.45406 0
M  V30 3079 C 293.599 -0.467334 4.78925 0
M  V30 3080 C 295.951 -0.11086 5.21082 0
M  V30 3081 C 293.279 0.367785 5.85546 0
M  V30 3082 C 295.631 0.711609 6.28585 0
M  V30 3083 C 294.295 0.956086 6.60617 0
M  V30 3084 H 293.565 -0.290109 0.681849 0
M  V30 3085 H 296.212 -0.0541332 1.91423 0
M  V30 3086 H 294.517 -2.3626 3.12551 0
M  V30 3087 H 296.214 -2.10032 3.41595 0
M  V30 3088 H 292.804 -0.894598 4.1916 0
M  V30 3089 H 296.988 -0.279129 4.95514 0
M  V30 3090 H 292.244 0.566128 6.08773 0
M  V30 3091 H 296.418 1.17632 6.86393 0
M  V30 3092 H 294.045 1.60499 7.43064 0
M  V30 3093 N 295.62 -1.53406 -0.361157 0
M  V30 3094 C 296.848 -1.73717 -1.12383 0
M  V30 3095 C 297.263 -0.468161 -1.82904 0
M  V30 3096 O 296.62 0.559198 -1.73722 0
M  V30 3097 C 296.671 -2.90558 -2.15078 0
M  V30 3098 O 296.392 -4.12549 -1.47428 0
M  V30 3099 C 297.893 -3.22777 -3.03858 0
M  V30 3100 H 295.113 -0.580896 -0.335858 0
M  V30 3101 H 297.657 -2.00167 -0.418728 0
M  V30 3102 H 295.812 -2.66489 -2.8118 0
M  V30 3103 H 296.226 -4.78009 -2.15887 0
M  V30 3104 H 297.7 -4.07927 -3.71887 0
M  V30 3105 H 298.177 -2.38329 -3.68912 0
M  V30 3106 H 298.783 -3.48787 -2.43367 0
M  V30 3107 N 297.098 0.621204 -1.44841 0
M  V30 3108 C 298.326 1.40752 -1.51646 0
M  V30 3109 C 298.741 1.88246 -0.144549 0
M  V30 3110 O 298.098 1.61422 0.851416 0
M  V30 3111 C 298.149 2.62119 -2.4895 0
M  V30 3112 O 297.87 2.16602 -3.80808 0
M  V30 3113 C 299.371 3.55135 -2.65319 0
M  V30 3114 H 296.591 0.431325 -0.514004 0
M  V30 3115 H 299.135 0.758835 -1.899 0
M  V30 3116 H 297.29 3.23058 -2.13805 0
M  V30 3117 H 297.704 2.95358 -4.33433 0
M  V30 3118 H 299.178 4.36874 -3.37409 0
M  V30 3119 H 299.655 4.04592 -1.70886 0
M  V30 3120 H 300.261 3.00058 -3.01405 0
M  V30 3121 N 298.576 1.31904 0.862503 0
M  V30 3122 C 299.804 1.24998 1.64873 0
M  V30 3123 C 300.219 -0.183425 1.87907 0
M  V30 3124 O 299.576 -1.11794 1.44251 0
M  V30 3125 C 299.627 1.99829 3.01248 0
M  V30 3126 O 299.348 3.37575 2.79239 0
M  V30 3127 C 300.849 1.99852 3.95694 0
M  V30 3128 H 298.069 0.431599 0.513773 0
M  V30 3129 H 300.613 1.73901 1.07604 0
M  V30 3130 H 298.768 1.54668 3.55185 0
M  V30 3131 H 299.182 3.75776 3.65914 0
M  V30 3132 H 300.656 2.56709 4.88676 0
M  V30 3133 H 301.133 0.982852 4.28062 0
M  V30 3134 H 301.739 2.44926 3.47694 0
M  V30 3135 N 300.054 -1.07777 1.14986 0
M  V30 3136 C 301.017 -2.13041 0.845358 0
M  V30 3137 C 302.017 -1.60071 -0.152931 0
M  V30 3138 O 303.207 -1.74033 0.0761879 0
M  V30 3139 C 300.339 -3.39896 0.261383 0
M  V30 3140 H 301.532 -2.41485 1.77834 0
M  V30 3141 H 299.085 -1.23595 0.956757 0
M  V30 3142 H 299.82 -3.17091 -0.68 0
M  V30 3143 H 299.605 -3.79642 0.980514 0
M  V30 3144 H 301.095 -4.17548 0.0657687 0
M  V30 3145 N 301.532 -0.945985 -1.26051 0
M  V30 3146 C 302.442 -0.465633 -2.29933 0
M  V30 3147 C 303.458 0.462761 -1.67733 0
M  V30 3148 O 304.634 0.341118 -1.9849 0
M  V30 3149 C 301.699 0.256994 -3.45746 0
M  V30 3150 C 300.76 -0.708549 -4.23412 0
M  V30 3151 C 299.993 -0.0203135 -5.33696 0
M  V30 3152 O 300.216 1.19571 -5.57726 0
M  V30 3153 O 299.15 -0.701459 -5.97799 0
M  V30 3154 H 302.976 -1.32866 -2.73094 0
M  V30 3155 H 300.561 -0.712071 -1.31339 0
M  V30 3156 H 302.443 0.663852 -4.16138 0
M  V30 3157 H 301.118 1.09533 -3.04605 0
M  V30 3158 H 300.025 -1.16545 -3.55483 0
M  V30 3159 H 301.358 -1.51465 -4.68315 0
M  V30 3160 N 303.011 1.40521 -0.713556 0
M  V30 3161 C 304.427 1.54839 -0.386907 0
M  V30 3162 C 304.627 1.68532 1.1045 0
M  V30 3163 O 303.683 1.67377 1.89053 0
M  V30 3164 C 304.996 2.77792 -1.15118 0
M  V30 3165 C 306.544 2.91607 -1.13729 0
M  V30 3166 C 307.019 4.1747 -1.88368 0
M  V30 3167 N 308.51 4.24466 -1.85427 0
M  V30 3168 C 309.245 5.20755 -2.40004 0
M  V30 3169 N 308.741 6.22965 -3.03129 0
M  V30 3170 N 310.534 5.1282 -2.30158 0
M  V30 3171 H 302.685 1.29879 -1.68063 0
M  V30 3172 H 304.948 0.627896 -0.710247 0
M  V30 3173 H 304.654 2.73944 -2.20561 0
M  V30 3174 H 304.528 3.6984 -0.741477 0
M  V30 3175 H 306.915 2.94959 -0.0910608 0
M  V30 3176 H 306.996 2.00682 -1.5862 0
M  V30 3177 H 306.64 4.1488 -2.9298 0
M  V30 3178 H 306.57 5.074 -1.40898 0
M  V30 3179 H 309.061 3.51241 -1.3942 0
M  V30 3180 H 309.374 6.92859 -3.42295 0
M  V30 3181 H 307.719 6.23415 -3.07212 0
M  V30 3182 H 310.91 4.31899 -1.80501 0
M  V30 3183 H 311.083 5.87689 -2.72993 0
M  V30 3184 N 304.489 0.459591 1.5075 0
M  V30 3185 C 305.399 -0.34613 2.32033 0
M  V30 3186 C 306.415 -1.00686 1.41909 0
M  V30 3187 O 307.591 -0.997361 1.7497 0
M  V30 3188 C 304.656 -1.42029 3.16273 0
M  V30 3189 C 303.717 -0.777362 4.22203 0
M  V30 3190 C 302.95 -1.80034 5.02418 0
M  V30 3191 O 303.173 -3.02544 4.83553 0
M  V30 3192 O 302.107 -1.37853 5.85901 0
M  V30 3193 H 305.933 0.318054 3.0203 0
M  V30 3194 H 303.518 0.221663 1.47746 0
M  V30 3195 H 305.4 -2.04275 3.68578 0
M  V30 3196 H 304.075 -2.06815 2.49016 0
M  V30 3197 H 302.982 -0.116256 3.73919 0
M  V30 3198 H 304.315 -0.172634 4.91897 0
M  V30 3199 N 305.967 -1.56429 0.191757 0
M  V30 3200 C 307.216 -1.9666 -0.448088 0
M  V30 3201 C 307.529 -1.08136 -1.62991 0
M  V30 3202 O 308.735 -1.38135 -2.33733 0
M  V30 3203 C 307.191 -3.49753 -0.848585 0
M  V30 3204 C 306.799 -4.46935 0.308764 0
M  V30 3205 C 308.543 -3.9876 -1.4557 0
M  V30 3206 C 306.45 -5.91293 -0.112506 0
M  V30 3207 H 305.38 -0.734312 -0.171179 0
M  V30 3208 H 308.031 -1.81301 0.283242 0
M  V30 3209 H 306.413 -3.60604 -1.63649 0
M  V30 3210 H 307.587 -4.47813 1.08627 0
M  V30 3211 H 305.902 -4.08102 0.827158 0
M  V30 3212 H 308.499 -5.04086 -1.78328 0
M  V30 3213 H 308.842 -3.42875 -2.36099 0
M  V30 3214 H 309.375 -3.9101 -0.731836 0
M  V30 3215 H 306.114 -6.51097 0.758514 0
M  V30 3216 H 305.634 -5.93676 -0.854941 0
M  V30 3217 H 307.313 -6.44663 -0.549448 0
M  V30 3218 N 307.445 0.0818655 -1.57387 0
M  V30 3219 C 308.691 0.784074 -1.8703 0
M  V30 3220 C 309.024 1.77729 -0.782689 0
M  V30 3221 O 308.299 1.93384 0.208051 0
M  V30 3222 C 308.582 1.50105 -3.27323 0
M  V30 3223 C 308.435 0.524925 -4.46727 0
M  V30 3224 C 309.754 2.44843 -3.65705 0
M  V30 3225 H 306.873 0.283582 -0.680257 0
M  V30 3226 H 309.515 0.0474352 -1.89941 0
M  V30 3227 H 307.665 2.12897 -3.24972 0
M  V30 3228 H 309.337 -0.0970111 -4.61198 0
M  V30 3229 H 307.58 -0.160606 -4.33503 0
M  V30 3230 H 308.251 1.064 -5.41648 0
M  V30 3231 H 310.727 1.92135 -3.69085 0
M  V30 3232 H 309.603 2.92018 -4.64776 0
M  V30 3233 H 309.864 3.29197 -2.95096 0
M  V30 3234 N 308.923 1.53595 0.353017 0
M  V30 3235 C 310.339 1.43648 0.695516 0
M  V30 3236 C 310.539 0.585617 1.92802 0
M  V30 3237 O 309.595 0.0729223 2.52395 0
M  V30 3238 C 310.908 2.8701 0.896991 0
M  V30 3239 C 312.456 2.96723 0.996209 0
M  V30 3240 C 312.931 4.41173 1.23007 0
M  V30 3241 N 314.422 4.44657 1.29749 0
M  V30 3242 C 315.157 5.53547 1.49577 0
M  V30 3243 N 314.653 6.72461 1.66639 0
M  V30 3244 N 316.446 5.41145 1.52048 0
M  V30 3245 H 308.597 2.07415 -0.457481 0
M  V30 3246 H 310.86 0.9372 -0.142687 0
M  V30 3247 H 310.566 3.51644 0.0629938 0
M  V30 3248 H 310.44 3.31401 1.80148 0
M  V30 3249 H 312.827 2.32235 1.82074 0
M  V30 3250 H 312.908 2.55707 0.0688331 0
M  V30 3251 H 312.552 5.06238 0.410505 0
M  V30 3252 H 312.482 4.79772 2.17086 0
M  V30 3253 H 314.973 3.58963 1.18126 0
M  V30 3254 H 315.286 7.51214 1.81378 0
M  V30 3255 H 313.631 6.75423 1.63794 0
M  V30 3256 H 316.822 4.47205 1.38294 0
M  V30 3257 H 316.995 6.26068 1.67159 0
M  V30 3258 N 310.401 -0.613514 1.45168 0
M  V30 3259 C 311.678 -1.37263 1.39349 0
M  V30 3260 C 312.058 -2.11012 0.0610848 0
M  V30 3261 O 311.406 -2.07502 -0.956825 0
M  V30 3262 C 311.616 -2.3244 2.60332 0
M  V30 3263 C 312.964 -2.9523 3.05163 0
M  V30 3264 O 313.988 -2.42762 2.60663 0
M  V30 3265 O 312.847 -3.90454 3.82372 0
M  V30 3266 H 309.941 -0.615188 0.552696 0
M  V30 3267 H 312.487 -0.637097 1.57287 0
M  V30 3268 H 311.259 -1.77164 3.48896 0
M  V30 3269 H 310.882 -3.13383 2.44698 0
M  V30 3270 N 311.879 -1.3236 -0.855495 0
M  V30 3271 C 313.128 -1.22226 -1.60448 0
M  V30 3272 C 313.441 0.214733 -1.94418 0
M  V30 3273 O 314.647 0.437917 -2.67945 0
M  V30 3274 C 313.103 -2.14063 -2.89318 0
M  V30 3275 C 312.711 -3.62839 -2.62777 0
M  V30 3276 C 314.455 -2.12764 -3.67331 0
M  V30 3277 C 312.362 -4.4664 -3.87643 0
M  V30 3278 H 311.292 -0.453904 -0.602069 0
M  V30 3279 H 313.943 -1.57314 -0.944698 0
M  V30 3280 H 312.325 -1.71889 -3.5675 0
M  V30 3281 H 313.499 -4.1335 -2.03662 0
M  V30 3282 H 311.814 -3.66261 -1.98096 0
M  V30 3283 H 314.411 -2.72611 -4.59987 0
M  V30 3284 H 314.754 -1.11841 -4.00995 0
M  V30 3285 H 315.287 -2.53214 -3.06802 0
M  V30 3286 H 312.026 -5.48373 -3.5912 0
M  V30 3287 H 311.546 -4.0088 -4.46156 0
M  V30 3288 H 313.225 -4.59597 -4.55389 0
M  V30 3289 N 313.357 1.07166 -1.15556 0
M  V30 3290 C 314.304 2.14417 -0.854055 0
M  V30 3291 C 315.274 1.64965 0.193806 0
M  V30 3292 O 316.459 1.90703 0.0609443 0
M  V30 3293 C 313.599 3.43304 -0.351574 0
M  V30 3294 C 312.712 4.06537 -1.46123 0
M  V30 3295 C 311.847 5.23266 -0.914677 0
M  V30 3296 C 310.886 5.78464 -2.00114 0
M  V30 3297 N 310.023 6.86521 -1.47083 0
M  V30 3298 H 314.863 2.39548 -1.77259 0
M  V30 3299 H 312.4 1.17543 -0.884425 0
M  V30 3300 H 314.358 4.17179 -0.0419409 0
M  V30 3301 H 312.988 3.18419 0.530037 0
M  V30 3302 H 312.04 3.30297 -1.88701 0
M  V30 3303 H 313.352 4.43567 -2.28144 0
M  V30 3304 H 312.506 6.04131 -0.557698 0
M  V30 3305 H 311.245 4.87658 -0.0636583 0
M  V30 3306 H 310.25 4.96243 -2.36692 0
M  V30 3307 H 311.475 6.16126 -2.85597 0
M  V30 3308 H 309.421 6.52849 -0.642198 0
M  V30 3309 H 309.338 7.22446 -2.22729 0
M  V30 3310 H 310.606 7.71087 -1.14215 0
M  V30 3311 N 314.835 0.952656 1.25548 0
M  V30 3312 C 315.745 0.47782 2.29682 0
M  V30 3313 C 316.761 -0.453859 1.67977 0
M  V30 3314 O 317.937 -0.330587 1.98668 0
M  V30 3315 C 315.002 -0.238655 3.45878 0
M  V30 3316 C 314.063 0.730994 4.23031 0
M  V30 3317 C 313.296 0.0486165 5.33678 0
M  V30 3318 O 313.519 -1.16612 5.58353 0
M  V30 3319 O 312.453 0.733152 5.97418 0
M  V30 3320 H 316.279 1.34312 2.72386 0
M  V30 3321 H 313.864 0.719026 1.30959 0
M  V30 3322 H 315.746 -0.641774 4.16484 0
M  V30 3323 H 314.421 -1.07916 3.05181 0
M  V30 3324 H 313.328 1.18428 3.5486 0
M  V30 3325 H 314.661 1.53946 4.67506 0
M  V30 3326 N 316.313 -1.40141 0.720998 0
M  V30 3327 C 317.26 -2.30688 0.071919 0
M  V30 3328 C 318.23 -1.48476 -0.744584 0
M  V30 3329 O 319.415 -1.77201 -0.707423 0
M  V30 3330 C 316.555 -3.34724 -0.839855 0
M  V30 3331 C 315.668 -4.31998 -0.0122438 0
M  V30 3332 C 314.803 -5.23102 -0.923995 0
M  V30 3333 C 313.842 -6.12033 -0.0907969 0
M  V30 3334 N 312.979 -6.95537 -0.957718 0
M  V30 3335 H 317.819 -2.85628 0.849755 0
M  V30 3336 H 315.356 -1.40653 0.430726 0
M  V30 3337 H 317.314 -3.93618 -1.38279 0
M  V30 3338 H 315.944 -2.81274 -1.58381 0
M  V30 3339 H 314.996 -3.74841 0.64794 0
M  V30 3340 H 316.308 -4.94772 0.632595 0
M  V30 3341 H 315.462 -5.86953 -1.53527 0
M  V30 3342 H 314.201 -4.60615 -1.60264 0
M  V30 3343 H 313.206 -5.47207 0.533377 0
M  V30 3344 H 314.431 -6.76581 0.584428 0
M  V30 3345 H 312.377 -6.35633 -1.62192 0
M  V30 3346 H 312.294 -7.55099 -0.36904 0
M  V30 3347 H 313.562 -7.63832 -1.555 0
M  V30 3348 N 317.792 -0.46758 -1.50504 0
M  V30 3349 C 318.722 0.318381 -2.31319 0
M  V30 3350 C 319.703 0.993564 -1.38066 0
M  V30 3351 O 320.888 0.991411 -1.66987 0
M  V30 3352 C 318.018 1.40275 -3.17711 0
M  V30 3353 C 316.972 0.849373 -4.19487 0
M  V30 3354 C 316.298 2.03177 -4.94594 0
M  V30 3355 C 317.598 -0.136942 -5.2212 0
M  V30 3356 H 319.292 -0.356106 -2.97275 0
M  V30 3357 H 316.838 -0.172703 -1.42961 0
M  V30 3358 H 318.791 1.96004 -3.73042 0
M  V30 3359 H 317.515 2.10596 -2.49634 0
M  V30 3360 H 316.174 0.314076 -3.65252 0
M  V30 3361 H 315.822 2.72187 -4.22993 0
M  V30 3362 H 315.522 1.66774 -5.63436 0
M  V30 3363 H 317.046 2.59403 -5.52759 0
M  V30 3364 H 318.46 0.331056 -5.72343 0
M  V30 3365 H 316.857 -0.41507 -5.98663 0
M  V30 3366 H 317.927 -1.06398 -4.73083 0
M  V30 3367 N 319.27 1.56325 -0.20005 0
M  V30 3368 C 320.51 1.99619 0.439519 0
M  V30 3369 C 320.874 1.08423 1.58456 0
M  V30 3370 O 322.075 1.40973 2.28867 0
M  V30 3371 C 320.346 3.46314 0.883258 0
M  V30 3372 S 321.905 4.11634 1.51997 0
M  V30 3373 H 318.723 0.697007 0.140363 0
M  V30 3374 H 321.325 1.93118 -0.304282 0
M  V30 3375 H 320.029 4.10381 0.0398967 0
M  V30 3376 H 319.56 3.56643 1.6604 0
M  V30 3377 H 321.575 4.09049 2.8088 0
M  V30 3378 N 320.748 -0.0735177 1.57428 0
M  V30 3379 C 321.978 -0.78483 1.91112 0
M  V30 3380 C 322.386 -1.71729 0.7941 0
M  V30 3381 O 321.729 -1.82105 -0.241542 0
M  V30 3382 C 321.791 -1.63346 3.20247 0
M  V30 3383 C 321.455 -0.870557 4.48632 0
M  V30 3384 C 322.452 -0.19058 5.19551 0
M  V30 3385 C 320.137 -0.838242 4.95256 0
M  V30 3386 C 322.131 0.511503 6.35344 0
M  V30 3387 C 319.818 -0.132386 6.10957 0
M  V30 3388 C 320.816 0.541288 6.80852 0
M  V30 3389 O 320.504 1.23578 7.94345 0
M  V30 3390 H 320.236 -0.228408 0.636244 0
M  V30 3391 H 322.79 -0.0486039 2.05342 0
M  V30 3392 H 321.02 -2.41245 3.02222 0
M  V30 3393 H 322.709 -2.22329 3.39595 0
M  V30 3394 H 323.475 -0.206864 4.84559 0
M  V30 3395 H 319.354 -1.35206 4.40727 0
M  V30 3396 H 322.898 1.03789 6.89836 0
M  V30 3397 H 318.795 -0.114023 6.45399 0
M  V30 3398 H 319.563 1.14487 8.10454 0
M  V30 3399 N 322.226 -1.5378 -0.344866 0
M  V30 3400 C 323.472 -1.71216 -1.08687 0
M  V30 3401 C 323.805 -0.473281 -1.88345 0
M  V30 3402 O 323.08 0.52968 -1.87149 0
M  V30 3403 C 323.363 -2.97486 -2.02914 0
M  V30 3404 C 323.216 -4.31579 -1.26727 0
M  V30 3405 C 324.535 -3.19422 -3.0275 0
M  V30 3406 H 321.654 -0.62301 -0.393735 0
M  V30 3407 H 324.296 -1.8645 -0.365563 0
M  V30 3408 H 322.446 -2.84629 -2.64421 0
M  V30 3409 H 324.118 -4.56284 -0.67845 0
M  V30 3410 H 322.361 -4.30049 -0.569273 0
M  V30 3411 H 323.032 -5.16106 -1.95803 0
M  V30 3412 H 325.508 -3.316 -2.51357 0
M  V30 3413 H 324.384 -4.09169 -3.65885 0
M  V30 3414 H 324.645 -2.35656 -3.74057 0
M  V30 3415 N 323.704 0.605807 -1.45491 0
M  V30 3416 C 324.667 1.69836 -1.5391 0
M  V30 3417 C 325.667 1.55261 -0.418424 0
M  V30 3418 O 326.857 1.60296 -0.681965 0
M  V30 3419 C 323.989 3.09117 -1.43734 0
M  V30 3420 H 325.182 1.63738 -2.51257 0
M  V30 3421 H 322.735 0.821689 -1.32959 0
M  V30 3422 H 323.47 3.20791 -0.475788 0
M  V30 3423 H 323.255 3.21104 -2.25021 0
M  V30 3424 H 324.745 3.88696 -1.52661 0
M  V30 3425 N 325.182 1.32811 0.848464 0
M  V30 3426 C 326.112 1.24882 1.97299 0
M  V30 3427 C 327.093 0.131357 1.69592 0
M  V30 3428 O 328.278 0.319553 1.91553 0
M  V30 3429 C 325.408 0.97746 3.33261 0
M  V30 3430 C 324.362 2.05682 3.75338 0
M  V30 3431 C 323.688 1.63777 5.09 0
M  V30 3432 C 324.988 3.47254 3.90144 0
M  V30 3433 H 326.682 2.18966 2.04191 0
M  V30 3434 H 324.228 1.05413 0.981029 0
M  V30 3435 H 326.181 0.908513 4.1149 0
M  V30 3436 H 324.905 0.000980011 3.266 0
M  V30 3437 H 323.564 2.11603 2.99366 0
M  V30 3438 H 323.212 0.648569 4.98801 0
M  V30 3439 H 322.912 2.36 5.38124 0
M  V30 3440 H 324.436 1.5833 5.89715 0
M  V30 3441 H 325.85 3.43888 4.58709 0
M  V30 3442 H 324.247 4.1788 4.30693 0
M  V30 3443 H 325.317 3.86462 2.92874 0
M  V30 3444 N 326.66 -1.06551 1.16123 0
M  V30 3445 C 327.937 -1.76097 0.85142 0
M  V30 3446 C 328.317 -2.00802 -0.6513 0
M  V30 3447 O 327.665 -1.63302 -1.59827 0
M  V30 3448 C 327.875 -3.06384 1.67122 0
M  V30 3449 C 329.223 -3.80585 1.88255 0
M  V30 3450 O 330.247 -3.16218 1.63966 0
M  V30 3451 O 329.106 -4.96212 2.2899 0
M  V30 3452 H 326.2 -0.765102 0.313923 0
M  V30 3453 H 328.746 -1.12844 1.26745 0
M  V30 3454 H 327.518 -2.84071 2.69108 0
M  V30 3455 H 327.141 -3.77371 1.25206 0
M  V30 3456 N 328.138 -0.959301 -1.25041 0
M  V30 3457 C 329.385 -0.616611 -1.92884 0
M  V30 3458 C 329.713 0.847036 -1.75087 0
M  V30 3459 O 328.968 1.62374 -1.09239 0
M  V30 3460 C 329.267 -0.927136 -3.45165 0
M  V30 3461 C 328.933 -2.37757 -3.83122 0
M  V30 3462 C 327.595 -2.77402 -3.93194 0
M  V30 3463 C 329.947 -3.31929 -4.01836 0
M  V30 3464 C 327.275 -4.10277 -4.19392 0
M  V30 3465 C 329.627 -4.64423 -4.29528 0
M  V30 3466 C 328.291 -5.03857 -4.37818 0
M  V30 3467 H 327.561 -0.225634 -0.705812 0
M  V30 3468 H 330.208 -1.20921 -1.48493 0
M  V30 3469 H 328.513 -0.252195 -3.90987 0
M  V30 3470 H 330.21 -0.6405 -3.95852 0
M  V30 3471 H 326.8 -2.06013 -3.75841 0
M  V30 3472 H 330.984 -3.02488 -3.93465 0
M  V30 3473 H 326.24 -4.40467 -4.24027 0
M  V30 3474 H 330.414 -5.37369 -4.42953 0
M  V30 3475 H 328.041 -6.06843 -4.57871 0
M  V30 3476 N 329.616 1.39756 -0.72842 0
M  V30 3477 C 330.526 2.34444 -0.0855374 0
M  V30 3478 C 331.542 1.57976 0.729356 0
M  V30 3479 O 332.718 1.90301 0.659346 0
M  V30 3480 C 329.783 3.36965 0.815798 0
M  V30 3481 C 328.844 4.29299 -0.0105996 0
M  V30 3482 C 328.077 5.26923 0.84781 0
M  V30 3483 O 328.3 5.30859 2.08673 0
M  V30 3484 O 327.234 6.01249 0.279969 0
M  V30 3485 H 331.06 2.91065 -0.866892 0
M  V30 3486 H 328.645 1.4117 -0.48902 0
M  V30 3487 H 330.527 3.99804 1.33171 0
M  V30 3488 H 329.202 2.82739 1.57608 0
M  V30 3489 H 328.109 3.69703 -0.571877 0
M  V30 3490 H 329.442 4.86712 -0.73295 0
M  V30 3491 N 331.094 0.475555 1.50254 0
M  V30 3492 C 332.026 -0.352649 2.26471 0
M  V30 3493 C 333.039 -0.953165 1.3198 0
M  V30 3494 O 334.228 -0.840815 1.57457 0
M  V30 3495 C 331.328 -1.50902 3.0345 0
M  V30 3496 C 330.501 -1.02047 4.25329 0
M  V30 3497 C 329.56 -2.05142 4.84565 0
M  V30 3498 O 328.586 -1.63023 5.45355 0
M  V30 3499 N 329.788 -3.37987 4.71959 0
M  V30 3500 H 332.553 0.300767 2.98187 0
M  V30 3501 H 330.114 0.306598 1.5897 0
M  V30 3502 H 332.106 -2.19572 3.39956 0
M  V30 3503 H 330.676 -2.06705 2.34504 0
M  V30 3504 H 329.896 -0.159507 3.93877 0
M  V30 3505 H 331.184 -0.672061 5.04342 0
M  V30 3506 H 330.582 -3.74913 4.23623 0
M  V30 3507 H 329.139 -4.02443 5.12721 0
M  V30 3508 N 332.573 -1.56217 0.208337 0
M  V30 3509 C 333.483 -2.23316 -0.718836 0
M  V30 3510 C 334.499 -1.23648 -1.22422 0
M  V30 3511 O 335.675 -1.56423 -1.26861 0
M  V30 3512 C 332.74 -2.88968 -1.91568 0
M  V30 3513 C 331.801 -4.03943 -1.45357 0
M  V30 3514 C 331.034 -4.66455 -2.59337 0
M  V30 3515 O 331.257 -4.27919 -3.77149 0
M  V30 3516 O 330.191 -5.55686 -2.31293 0
M  V30 3517 H 334.017 -3.03182 -0.177315 0
M  V30 3518 H 331.602 -1.49384 -0.0215402 0
M  V30 3519 H 333.484 -3.30455 -2.61491 0
M  V30 3520 H 332.159 -2.12071 -2.44556 0
M  V30 3521 H 331.066 -3.67052 -0.722746 0
M  V30 3522 H 332.399 -4.82543 -0.970219 0
M  V30 3523 N 334.051 0.0651679 -1.57465 0
M  V30 3524 C 334.984 1.10876 -1.99453 0
M  V30 3525 C 335.962 1.37205 -0.872555 0
M  V30 3526 O 337.146 1.50468 -1.13542 0
M  V30 3527 C 334.273 2.45167 -2.3369 0
M  V30 3528 C 333.319 2.3493 -3.55964 0
M  V30 3529 S 334.152 1.73708 -5.06543 0
M  V30 3530 C 335.308 3.09563 -5.43987 0
M  V30 3531 H 335.541 0.750967 -2.87659 0
M  V30 3532 H 333.074 0.273933 -1.51951 0
M  V30 3533 H 335.032 3.22412 -2.54088 0
M  V30 3534 H 333.693 2.78105 -1.46001 0
M  V30 3535 H 332.886 3.3398 -3.77457 0
M  V30 3536 H 332.488 1.65823 -3.3523 0
M  V30 3537 H 334.78 4.05882 -5.42463 0
M  V30 3538 H 335.723 2.92843 -6.44708 0
M  V30 3539 H 336.131 3.10474 -4.71451 0
M  V30 3540 N 335.529 1.53961 0.336706 0
M  V30 3541 C 336.492 1.81724 1.39675 0
M  V30 3542 C 337.492 0.688532 1.45313 0
M  V30 3543 O 338.682 0.956829 1.45569 0
M  V30 3544 C 335.814 1.96543 2.78538 0
M  V30 3545 H 337.007 2.76424 1.16318 0
M  V30 3546 H 334.56 1.45478 0.571474 0
M  V30 3547 H 335.295 1.0401 3.07168 0
M  V30 3548 H 335.08 2.78665 2.75841 0
M  V30 3549 H 336.57 2.19516 3.5525 0
M  V30 3550 N 337.007 -0.598083 1.45811 0
M  V30 3551 C 338.235 -1.38322 1.53866 0
M  V30 3552 C 338.65 -1.87992 0.174479 0
M  V30 3553 O 338.007 -1.62756 -0.825627 0
M  V30 3554 C 338.058 -2.58125 2.53089 0
M  V30 3555 O 337.779 -2.10516 3.84206 0
M  V30 3556 C 339.28 -3.50869 2.70935 0
M  V30 3557 H 336.5 -0.423093 0.520801 0
M  V30 3558 H 339.044 -0.728527 1.91083 0
M  V30 3559 H 337.199 -3.19615 2.18917 0
M  V30 3560 H 337.613 -2.88425 4.38077 0
M  V30 3561 H 339.087 -4.31451 3.44317 0
M  V30 3562 H 339.564 -4.01822 1.77301 0
M  V30 3563 H 340.17 -2.95225 3.06141 0
M  V30 3564 N 338.485 -1.33259 -0.841409 0
M  V30 3565 C 339.448 -1.23221 -1.9326 0
M  V30 3566 C 340.448 -0.151895 -1.60081 0
M  V30 3567 O 341.638 -0.403246 -1.69468 0
M  V30 3568 C 338.77 -0.898123 -3.28856 0
M  V30 3569 H 339.963 -2.2021 -2.03587 0
M  V30 3570 H 337.516 -1.17281 -1.03319 0
M  V30 3571 H 338.251 0.0693841 -3.24226 0
M  V30 3572 H 338.036 -1.67934 -3.54317 0
M  V30 3573 H 339.526 -0.852563 -4.08805 0
M  V30 3574 N 339.963 1.05934 -1.16686 0
M  V30 3575 C 340.926 2.11669 -0.879144 0
M  V30 3576 C 341.926 1.60294 0.127445 0
M  V30 3577 O 343.116 1.7389 -0.103865 0
M  V30 3578 C 340.248 3.39438 -0.315425 0
M  V30 3579 H 341.441 2.38626 -1.81653 0
M  V30 3580 H 338.994 1.22058 -0.976299 0
M  V30 3581 H 339.729 3.18132 0.629468 0
M  V30 3582 H 339.514 3.78034 -1.04079 0
M  V30 3583 H 341.004 4.17391 -0.132189 0
M  V30 3584 N 341.441 0.965919 1.2453 0
M  V30 3585 C 342.666 0.643971 1.97149 0
M  V30 3586 C 343.091 -0.779487 1.71189 0
M  V30 3587 O 342.449 -1.5288 0.974553 0
M  V30 3588 C 342.497 0.922557 3.48599 0
M  V30 3589 O 341.601 0.00707672 4.12399 0
M  V30 3590 H 340.942 0.243647 0.617683 0
M  V30 3591 H 343.472 1.29558 1.58353 0
M  V30 3592 H 343.482 0.853373 3.98976 0
M  V30 3593 H 342.157 1.95996 3.66822 0
M  V30 3594 H 340.734 0.12943 3.72675 0
M  V30 3595 N 342.919 -1.39368 0.735821 0
M  V30 3596 C 344.144 -2.05319 0.293052 0
M  V30 3597 C 344.569 -1.55115 -1.064 0
M  V30 3598 O 343.927 -0.695261 -1.67439 0
M  V30 3599 C 343.975 -3.59305 0.305323 0
M  V30 3600 O 343.079 -4.06299 -0.706761 0
M  V30 3601 H 342.42 -0.650529 0.13307 0
M  V30 3602 H 344.95 -1.78386 1.00197 0
M  V30 3603 H 344.96 -4.07724 0.149997 0
M  V30 3604 H 343.635 -3.95207 1.29553 0
M  V30 3605 H 342.212 -3.69292 -0.517504 0
M  V30 3606 N 344.397 -0.483516 -1.5 0
M  V30 3607 C 345.622 0.0667119 -2.07293 0
M  V30 3608 C 346.047 1.3164 -1.3436 0
M  V30 3609 O 345.405 1.76945 -0.394987 0
M  V30 3610 C 345.453 0.321126 -3.59167 0
M  V30 3611 O 344.557 1.39927 -3.87936 0
M  V30 3612 H 343.898 -0.0184758 -0.663743 0
M  V30 3613 H 346.428 -0.678125 -1.93035 0
M  V30 3614 H 346.438 0.557906 -4.04168 0
M  V30 3615 H 345.113 -0.592007 -4.11665 0
M  V30 3616 H 343.69 1.14882 -3.54763 0
M  V30 3617 N 345.875 1.56104 -0.216619 0
M  V30 3618 C 347.1 2.0301 0.424462 0
M  V30 3619 C 347.525 1.0955 1.52907 0
M  V30 3620 O 346.883 0.0827914 1.81111 0
M  V30 3621 C 346.931 3.4819 0.937883 0
M  V30 3622 O 346.035 3.57865 2.04955 0
M  V30 3623 H 345.376 0.656925 0.0966755 0
M  V30 3624 H 347.906 2.01859 -0.33381 0
M  V30 3625 H 347.916 3.88413 1.24897 0
M  V30 3626 H 346.591 4.15699 0.129387 0
M  V30 3627 H 345.168 3.29527 1.74546 0
M  V30 3628 N 347.353 -0.0568162 1.57498 0
M  V30 3629 C 348.283 -1.06593 2.0775 0
M  V30 3630 C 349.264 -1.39448 0.974082 0
M  V30 3631 O 350.449 -1.48815 1.24771 0
M  V30 3632 C 347.579 -2.37509 2.5339 0
M  V30 3633 C 346.533 -2.1897 3.67745 0
M  V30 3634 C 345.859 -3.55402 3.99492 0
M  V30 3635 C 347.159 -1.59859 4.97235 0
M  V30 3636 H 348.853 -0.647706 2.9231 0
M  V30 3637 H 346.399 -0.310116 1.40621 0
M  V30 3638 H 348.352 -3.08409 2.87162 0
M  V30 3639 H 347.076 -2.8134 1.65878 0
M  V30 3640 H 345.735 -1.50508 3.3428 0
M  V30 3641 H 345.383 -3.9683 3.09088 0
M  V30 3642 H 345.083 -3.43831 4.76502 0
M  V30 3643 H 346.607 -4.27708 4.35773 0
M  V30 3644 H 348.021 -2.20642 5.29141 0
M  V30 3645 H 346.418 -1.58942 5.78669 0
M  V30 3646 H 347.488 -0.561506 4.81638 0
M  V30 3647 N 348.832 -1.54138 -0.328536 0
M  V30 3648 C 349.742 -1.86192 -1.42723 0
M  V30 3649 C 350.758 -0.753382 -1.56844 0
M  V30 3650 O 351.934 -1.04718 -1.72035 0
M  V30 3651 C 348.999 -2.07824 -2.77507 0
M  V30 3652 C 348.06 -3.31641 -2.72603 0
M  V30 3653 C 347.293 -3.52232 -4.00959 0
M  V30 3654 O 347.516 -2.7636 -4.9898 0
M  V30 3655 O 346.45 -4.45699 -4.0452 0
M  V30 3656 H 350.276 -2.79608 -1.18547 0
M  V30 3657 H 347.861 -1.3998 -0.522104 0
M  V30 3658 H 349.743 -2.23411 -3.57303 0
M  V30 3659 H 348.418 -1.17596 -3.01584 0
M  V30 3660 H 347.325 -3.21444 -1.91376 0
M  V30 3661 H 348.658 -4.2191 -2.53481 0
M  V30 3662 N 350.31 0.590341 -1.46126 0
M  V30 3663 C 351.257 1.69994 -1.56111 0
M  V30 3664 C 352.227 1.61065 -0.405867 0
M  V30 3665 O 353.412 1.8039 -0.621613 0
M  V30 3666 C 350.552 3.08326 -1.55013 0
M  V30 3667 C 349.665 3.27936 -2.81215 0
M  V30 3668 C 348.8 4.56473 -2.71673 0
M  V30 3669 C 347.839 4.694 -3.92849 0
M  V30 3670 N 346.976 5.89254 -3.81738 0
M  V30 3671 H 351.816 1.60797 -2.50895 0
M  V30 3672 H 349.353 0.783799 -1.24479 0
M  V30 3673 H 351.311 3.88383 -1.52362 0
M  V30 3674 H 349.941 3.16439 -0.637667 0
M  V30 3675 H 348.993 2.41536 -2.93879 0
M  V30 3676 H 350.305 3.33357 -3.71045 0
M  V30 3677 H 349.459 5.44748 -2.67085 0
M  V30 3678 H 348.198 4.53477 -1.7947 0
M  V30 3679 H 347.203 3.79544 -3.97777 0
M  V30 3680 H 348.428 4.7418 -4.86138 0
M  V30 3681 H 346.374 5.87271 -2.92317 0
M  V30 3682 H 346.291 5.95911 -4.65217 0
M  V30 3683 H 347.559 6.79981 -3.81112 0
M  V30 3684 N 351.788 1.33704 0.83433 0
M  V30 3685 C 353.013 1.28615 1.62705 0
M  V30 3686 C 353.438 -0.139242 1.87584 0
M  V30 3687 O 352.796 -1.09734 1.4432 0
M  V30 3688 C 352.844 2.07139 2.95171 0
M  V30 3689 O 351.948 1.4331 3.86699 0
M  V30 3690 H 351.289 0.44226 0.49528 0
M  V30 3691 H 353.819 1.76335 1.03766 0
M  V30 3692 H 353.829 2.18073 3.44831 0
M  V30 3693 H 352.504 3.10779 2.76386 0
M  V30 3694 H 351.081 1.4105 3.45195 0
M  V30 3695 N 353.266 -1.05314 1.17247 0
M  V30 3696 C 354.496 -1.81707 0.983166 0
M  V30 3697 C 354.904 -1.83222 -0.471822 0
M  V30 3698 O 354.247 -1.25721 -1.3394 0
M  V30 3699 C 354.309 -3.29134 1.44606 0
M  V30 3700 C 353.973 -3.51304 2.92292 0
M  V30 3701 C 354.97 -3.4353 3.90235 0
M  V30 3702 C 352.655 -3.78306 3.30439 0
M  V30 3703 C 354.649 -3.62442 5.24323 0
M  V30 3704 C 352.336 -3.96866 4.64694 0
M  V30 3705 C 353.334 -3.88933 5.61445 0
M  V30 3706 O 353.022 -4.06976 6.93272 0
M  V30 3707 H 352.754 -0.579476 0.348114 0
M  V30 3708 H 355.308 -1.33705 1.55924 0
M  V30 3709 H 353.538 -3.78046 0.813537 0
M  V30 3710 H 355.227 -3.87049 1.22262 0
M  V30 3711 H 355.993 -3.22648 3.62109 0
M  V30 3712 H 351.872 -3.83585 2.55702 0
M  V30 3713 H 355.416 -3.56165 5.99827 0
M  V30 3714 H 351.313 -4.1724 4.92525 0
M  V30 3715 H 352.081 -4.24209 6.99992 0
M  V30 3716 N 354.744 -0.972509 -1.24016 0
M  V30 3717 C 355.654 -0.5143 -2.28893 0
M  V30 3718 C 356.67 0.427078 -1.68677 0
M  V30 3719 O 357.846 0.298939 -1.99169 0
M  V30 3720 C 354.911 0.183598 -3.46214 0
M  V30 3721 C 353.972 -0.798202 -4.21814 0
M  V30 3722 C 353.205 -0.133514 -5.33533 0
M  V30 3723 O 353.428 1.07714 -5.60137 0
M  V30 3724 O 352.362 -0.828103 -5.96176 0
M  V30 3725 H 356.188 -1.38629 -2.70214 0
M  V30 3726 H 353.773 -0.739769 -1.29799 0
M  V30 3727 H 355.655 0.575433 -4.17453 0
M  V30 3728 H 354.33 1.03048 -3.0686 0
M  V30 3729 H 353.237 -1.24059 -3.52931 0
M  V30 3730 H 354.57 -1.61364 -4.64997 0
M  V30 3731 N 356.222 1.38976 -0.743202 0
M  V30 3732 C 357.152 2.33171 -0.123873 0
M  V30 3733 C 358.133 1.54336 0.71516 0
M  V30 3734 O 359.318 1.82696 0.658467 0
M  V30 3735 C 356.448 3.38474 0.777978 0
M  V30 3736 C 355.402 4.27979 0.0424758 0
M  V30 3737 C 354.728 5.2405 1.06189 0
M  V30 3738 C 356.028 5.10155 -1.1198 0
M  V30 3739 H 357.722 2.85213 -0.910709 0
M  V30 3740 H 355.268 1.37133 -0.439388 0
M  V30 3741 H 357.221 4.03328 1.22084 0
M  V30 3742 H 355.945 2.84891 1.59702 0
M  V30 3743 H 354.604 3.64616 -0.380853 0
M  V30 3744 H 354.252 4.66758 1.87472 0
M  V30 3745 H 353.952 5.84785 0.574485 0
M  V30 3746 H 355.476 5.9178 1.50428 0
M  V30 3747 H 356.89 5.68307 -0.75499 0
M  V30 3748 H 355.287 5.80073 -1.53738 0
M  V30 3749 H 356.357 4.44504 -1.93764 0
M  V30 3750 N 357.7 0.491464 1.49741 0
M  V30 3751 C 359.111 0.0413169 1.86654 0
M  V30 3752 C 359.462 -1.36985 1.40462 0
M  V30 3753 O 358.587 -2.01917 0.778354 0
M  V30 3754 C 359.182 0.0682023 3.38731 0
M  V30 3755 C 357.741 -0.32656 3.74981 0
M  V30 3756 C 356.888 0.444888 2.73708 0
M  V30 3757 H 359.839 0.704733 1.42194 0
M  V30 3758 H 359.86 -0.729322 3.73445 0
M  V30 3759 H 359.372 1.09539 3.72321 0
M  V30 3760 H 357.473 -1.35734 3.46997 0
M  V30 3761 H 357.586 -0.013741 4.79098 0
M  V30 3762 H 355.95 -0.104062 2.54487 0
M  V30 3763 H 356.733 1.47197 3.10142 0
M  V30 3764 N 359.178 -1.55987 0.224894 0
M  V30 3765 C 360.455 -1.90232 -0.455083 0
M  V30 3766 C 360.835 -1.14269 -1.77499 0
M  V30 3767 O 360.183 -0.253079 -2.27094 0
M  V30 3768 C 360.393 -3.42993 -0.644758 0
M  V30 3769 C 361.741 -4.13821 -0.950669 0
M  V30 3770 O 362.765 -3.4861 -0.731423 0
M  V30 3771 O 361.624 -5.29128 -1.36695 0
M  V30 3772 H 358.718 -0.79108 -0.241084 0
M  V30 3773 H 361.264 -1.67581 0.267327 0
M  V30 3774 H 360.036 -3.90252 0.28613 0
M  V30 3775 H 359.659 -3.71434 -1.41853 0
M  V30 3776 N 360.656 0.0484629 -1.57525 0
M  V30 3777 C 361.904 0.741657 -1.88 0
M  V30 3778 C 362.225 1.76918 -0.820054 0
M  V30 3779 O 361.495 1.95335 0.148661 0
M  V30 3780 H 360.075 0.276908 -0.69378 0
M  V30 3781 H 362.737 0.019013 -1.94891 0
M  V30 3782 H 361.833 1.24336 -2.86264 0
M  V30 3783 N 362.134 1.5431 0.320358 0
M  V30 3784 C 363.066 1.80262 1.41556 0
M  V30 3785 C 364.079 0.684723 1.477 0
M  V30 3786 O 365.268 0.961886 1.50366 0
M  V30 3787 C 362.368 1.90825 2.8007 0
M  V30 3788 C 361.541 3.21023 2.97091 0
M  V30 3789 C 360.6 3.22247 4.15985 0
M  V30 3790 O 359.626 3.95871 4.08992 0
M  V30 3791 N 360.828 2.46258 5.25678 0
M  V30 3792 H 363.593 2.74778 1.19655 0
M  V30 3793 H 361.154 1.53646 0.510358 0
M  V30 3794 H 363.146 1.89067 3.57821 0
M  V30 3795 H 361.716 1.03392 2.95006 0
M  V30 3796 H 360.936 3.35715 2.06614 0
M  V30 3797 H 362.224 4.0698 3.05361 0
M  V30 3798 H 361.622 1.86037 5.34235 0
M  V30 3799 H 360.179 2.50275 6.01835 0
M  V30 3800 N 363.613 -0.582584 1.46437 0
M  V30 3801 C 364.859 -1.34278 1.51978 0
M  V30 3802 C 365.192 -1.93446 0.170973 0
M  V30 3803 O 364.467 -1.76481 -0.817608 0
M  V30 3804 C 364.75 -2.47203 2.61845 0
M  V30 3805 C 364.603 -1.93069 4.06257 0
M  V30 3806 C 365.922 -3.49247 2.67795 0
M  V30 3807 H 363.041 -0.486876 0.553282 0
M  V30 3808 H 365.683 -0.654437 1.78374 0
M  V30 3809 H 363.833 -3.0592 2.39469 0
M  V30 3810 H 365.505 -1.38808 4.3992 0
M  V30 3811 H 363.748 -1.23898 4.1573 0
M  V30 3812 H 364.419 -2.74586 4.7886 0
M  V30 3813 H 366.895 -3.00411 2.8791 0
M  V30 3814 H 365.771 -4.25719 3.46489 0
M  V30 3815 H 366.032 -4.06482 1.73852 0
M  V30 3816 N 365.091 -1.34144 -0.827227 0
M  V30 3817 C 366.34 -1.25602 -1.5782 0
M  V30 3818 C 366.653 0.173445 -1.94829 0
M  V30 3819 O 367.859 0.380984 -2.68814 0
M  V30 3820 C 366.315 -2.20151 -2.84713 0
M  V30 3821 C 365.923 -3.68331 -2.55021 0
M  V30 3822 C 367.667 -2.20508 -3.62735 0
M  V30 3823 C 365.574 -4.54762 -3.78082 0
M  V30 3824 H 364.504 -0.466573 -0.592306 0
M  V30 3825 H 367.155 -1.59283 -0.911116 0
M  V30 3826 H 365.537 -1.79417 -3.53023 0
M  V30 3827 H 366.711 -4.17577 -1.94849 0
M  V30 3828 H 365.026 -3.7038 -1.90283 0
M  V30 3829 H 367.623 -2.82306 -4.54101 0
M  V30 3830 H 367.966 -1.20322 -3.98533 0
M  V30 3831 H 368.499 -2.59664 -3.01362 0
M  V30 3832 H 365.238 -5.55867 -3.47407 0
M  V30 3833 H 364.758 -4.10254 -4.37552 0
M  V30 3834 H 366.437 -4.69153 -4.45538 0
M  V30 3835 N 366.569 1.04691 -1.17803 0
M  V30 3836 C 367.797 1.81446 -0.99423 0
M  V30 3837 C 368.212 1.83174 0.457459 0
M  V30 3838 O 367.569 1.26265 1.31771 0
M  V30 3839 C 367.62 3.27334 -1.5341 0
M  V30 3840 O 367.341 3.25798 -2.92895 0
M  V30 3841 C 368.842 4.20759 -1.39559 0
M  V30 3842 H 366.062 0.571599 -0.351447 0
M  V30 3843 H 368.606 1.31982 -1.56208 0
M  V30 3844 H 366.761 3.74052 -1.00815 0
M  V30 3845 H 367.175 4.17144 -3.17949 0
M  V30 3846 H 368.649 5.21084 -1.82141 0
M  V30 3847 H 369.126 4.37856 -0.343394 0
M  V30 3848 H 369.732 3.79901 -1.91195 0
M  V30 3849 N 368.047 0.979072 1.23499 0
M  V30 3850 C 369.296 0.642751 1.91185 0
M  V30 3851 C 369.609 -0.827253 1.77245 0
M  V30 3852 O 370.815 -1.27458 2.39722 0
M  V30 3853 C 369.271 1.09901 3.42709 0
M  V30 3854 C 368.879 2.59327 3.65313 0
M  V30 3855 C 370.623 0.836371 4.16179 0
M  V30 3856 C 368.53 2.98627 5.10467 0
M  V30 3857 H 367.46 0.236698 0.715884 0
M  V30 3858 H 370.111 1.1868 1.39955 0
M  V30 3859 H 368.493 0.48319 3.93041 0
M  V30 3860 H 369.667 3.26136 3.25533 0
M  V30 3861 H 367.982 2.83323 3.05151 0
M  V30 3862 H 370.579 1.10586 5.23139 0
M  V30 3863 H 370.922 -0.227509 4.15678 0
M  V30 3864 H 371.455 1.41371 3.71832 0
M  V30 3865 H 368.194 4.04133 5.16098 0
M  V30 3866 H 367.714 2.3651 5.51201 0
M  V30 3867 H 369.393 2.89159 5.78788 0
M  V30 3868 N 369.525 -1.3858 0.750561 0
M  V30 3869 C 370.773 -1.99789 0.30477 0
M  V30 3870 C 371.094 -1.59874 -1.11649 0
M  V30 3871 O 370.364 -0.85417 -1.76297 0
M  V30 3872 H 368.944 -0.738902 0.109694 0
M  V30 3873 H 371.606 -1.69391 0.963983 0
M  V30 3874 H 370.702 -3.09952 0.365499 0
M  V30 3875 N 371.003 -0.499398 -1.49478 0
M  V30 3876 C 371.951 0.293604 -2.3074 0
M  V30 3877 C 372.945 0.96427 -1.39277 0
M  V30 3878 O 374.151 0.892141 -1.56336 0
M  V30 3879 H 370.526 0.113541 -0.743379 0
M  V30 3880 H 372.497 -0.411772 -2.95545 0
M  V30 3881 C 371.246 1.3462 -3.20582 0
M  V30 3882 H 370.569 0.83954 -3.90886 0
M  V30 3883 H 372.009 1.87308 -3.80384 0
M  V30 3884 C 370.468 2.36351 -2.40083 0
M  V30 3885 O 370.998 3.422 -2.10385 0
M  V30 3886 N 369.204 2.0878 -2.02137 0
M  V30 3887 H 368.751 1.22723 -2.26488 0
M  V30 3888 H 368.709 2.77075 -1.48583 0
M  V30 3889 N 372.481 1.55866 -0.233164 0
M  V30 3890 C 373.391 2.24431 0.683217 0
M  V30 3891 C 374.407 1.2558 1.2044 0
M  V30 3892 O 375.583 1.58422 1.24356 0
M  V30 3893 C 372.648 2.91979 1.86947 0
M  V30 3894 C 371.709 4.06204 1.38912 0
M  V30 3895 C 370.942 4.70522 2.51883 0
M  V30 3896 O 371.165 4.33865 3.70293 0
M  V30 3897 O 370.099 5.59296 2.22423 0
M  V30 3898 H 373.925 3.03426 0.129059 0
M  V30 3899 H 371.51 1.494 -0.0022283 0
M  V30 3900 H 373.392 3.34573 2.56201 0
M  V30 3901 H 372.067 2.15935 2.41151 0
M  V30 3902 H 370.974 3.68155 0.664259 0
M  V30 3903 H 372.307 4.84025 0.893328 0
M  V30 3904 N 373.959 -0.0401083 1.57549 0
M  V30 3905 C 375.375 -0.395556 1.54621 0
M  V30 3906 C 375.575 -1.77281 0.957799 0
M  V30 3907 O 374.631 -2.45888 0.574031 0
M  V30 3908 C 375.944 -0.307535 2.99123 0
M  V30 3909 C 377.492 -0.385425 3.10618 0
M  V30 3910 C 377.967 -0.326973 4.56831 0
M  V30 3911 N 379.458 -0.386102 4.61588 0
M  V30 3912 C 380.193 -0.363591 5.72246 0
M  V30 3913 N 379.689 -0.29402 6.92176 0
M  V30 3914 N 381.482 -0.412503 5.60584 0
M  V30 3915 H 373.633 0.861325 1.94152 0
M  V30 3916 H 375.896 0.326445 0.890021 0
M  V30 3917 H 375.602 0.638461 3.45856 0
M  V30 3918 H 375.476 -1.10552 3.60636 0
M  V30 3919 H 377.863 -1.32185 2.63839 0
M  V30 3920 H 377.944 0.44171 2.51957 0
M  V30 3921 H 377.588 0.605738 5.04275 0
M  V30 3922 H 377.518 -1.17207 5.13391 0
M  V30 3923 H 380.009 -0.442832 3.75296 0
M  V30 3924 H 380.322 -0.28164 7.72287 0
M  V30 3925 H 378.667 -0.260232 6.94513 0
M  V30 3926 H 381.858 -0.464769 4.65787 0
M  V30 3927 H 382.031 -0.391492 6.46816 0
M  V30 3928 N 375.437 -1.54477 -0.31217 0
M  V30 3929 C 376.684 -1.73227 -1.04875 0
M  V30 3930 C 377.012 -0.512042 -1.87639 0
M  V30 3931 O 376.267 0.506131 -1.89042 0
M  V30 3932 C 376.566 -2.967 -1.99258 0
M  V30 3933 C 376.232 -4.30974 -1.32559 0
M  V30 3934 C 374.894 -4.67477 -1.141 0
M  V30 3935 C 377.246 -5.14258 -0.847835 0
M  V30 3936 C 374.574 -5.84852 -0.465326 0
M  V30 3937 C 376.926 -6.32327 -0.185931 0
M  V30 3938 C 375.59 -6.67499 0.0107077 0
M  V30 3939 H 374.86 -0.633881 -0.383765 0
M  V30 3940 H 377.507 -1.88727 -0.324731 0
M  V30 3941 H 375.812 -2.75935 -2.7815 0
M  V30 3942 H 377.509 -3.08401 -2.563 0
M  V30 3943 H 374.099 -4.02262 -1.4793 0
M  V30 3944 H 378.283 -4.86565 -0.978192 0
M  V30 3945 H 373.539 -6.10654 -0.301883 0
M  V30 3946 H 377.713 -6.96135 0.192211 0
M  V30 3947 H 375.34 -7.58306 0.536287 0
M  V30 3948 N 376.915 0.57481 -1.46744 0
M  V30 3949 C 378.331 0.898981 -1.31873 0
M  V30 3950 C 378.531 1.99313 -0.29605 0
M  V30 3951 O 377.587 2.50728 0.298621 0
M  V30 3952 C 378.9 1.30886 -2.7072 0
M  V30 3953 C 380.448 1.42127 -2.78871 0
M  V30 3954 C 380.923 1.86478 -4.18318 0
M  V30 3955 N 382.414 1.93658 -4.20774 0
M  V30 3956 C 383.149 2.29267 -5.2557 0
M  V30 3957 N 382.645 2.63612 -6.40688 0
M  V30 3958 N 384.438 2.29889 -5.1294 0
M  V30 3959 H 376.589 -0.147839 -2.11885 0
M  V30 3960 H 378.852 -0.00347013 -0.947994 0
M  V30 3961 H 378.558 0.578853 -3.46904 0
M  V30 3962 H 378.432 2.26874 -3.01343 0
M  V30 3963 H 380.819 2.14213 -2.0297 0
M  V30 3964 H 380.9 0.443705 -2.51922 0
M  V30 3965 H 380.544 1.14968 -4.94717 0
M  V30 3966 H 380.474 2.85207 -4.42679 0
M  V30 3967 H 382.965 1.69574 -3.37718 0
M  V30 3968 H 383.278 2.89759 -7.16421 0
M  V30 3969 H 381.623 2.61232 -6.44036 0
M  V30 3970 H 384.814 2.02485 -4.22039 0
M  V30 3971 H 384.987 2.57312 -5.94722 0
M  V30 3972 N 378.394 1.34581 0.820102 0
M  V30 3973 C 379.634 1.28448 1.58998 0
M  V30 3974 C 379.998 -0.142883 1.91468 0
M  V30 3975 O 381.199 -0.328422 2.66786 0
M  V30 3976 C 379.47 2.153 2.85273 0
M  V30 3977 S 381.029 2.26548 3.75794 0
M  V30 3978 H 377.847 0.456685 0.54494 0
M  V30 3979 H 380.449 1.69825 0.968487 0
M  V30 3980 H 379.153 3.18008 2.59421 0
M  V30 3981 H 378.684 1.7483 3.52417 0
M  V30 3982 H 380.699 1.44034 4.74835 0
M  V30 3983 N 379.872 -1.04064 1.18357 0
M  V30 3984 C 381.283 -1.58719 0.98312 0
M  V30 3985 C 381.634 -1.90556 -0.467193 0
M  V30 3986 O 380.759 -1.69561 -1.34454 0
M  V30 3987 C 381.354 -2.88379 1.77828 0
M  V30 3988 C 379.913 -3.3965 1.62218 0
M  V30 3989 C 379.06 -2.13235 1.77274 0
M  V30 3990 H 382.011 -0.867359 1.32901 0
M  V30 3991 H 382.032 -3.58773 1.26737 0
M  V30 3992 H 381.544 -2.65176 2.83379 0
M  V30 3993 H 379.645 -3.67866 0.592036 0
M  V30 3994 H 379.758 -4.13475 2.42023 0
M  V30 3995 H 378.122 -2.24542 1.20221 0
M  V30 3996 H 378.905 -1.92487 2.8426 0
M  V30 3997 N 381.35 -0.985608 -1.22978 0
M  V30 3998 C 382.26 -0.538548 -2.28335 0
M  V30 3999 C 383.276 0.409163 -1.69121 0
M  V30 4000 O 384.452 0.277797 -1.99475 0
M  V30 4001 C 381.517 0.146867 -3.46389 0
M  V30 4002 C 380.578 -0.842896 -4.20944 0
M  V30 4003 C 379.811 -0.190095 -5.33361 0
M  V30 4004 O 380.034 1.01767 -5.61248 0
M  V30 4005 O 378.968 -0.891289 -5.95264 0
M  V30 4006 H 382.794 -1.41487 -2.68729 0
M  V30 4007 H 380.379 -0.753495 -1.29007 0
M  V30 4008 H 382.261 0.531125 -4.1804 0
M  V30 4009 H 380.936 0.997871 -3.07935 0
M  V30 4010 H 379.843 -1.27795 -3.51595 0
M  V30 4011 H 381.176 -1.66287 -4.6326 0
M  V30 4012 N 382.828 1.3818 -0.7579 0
M  V30 4013 C 383.791 2.28764 -0.141286 0
M  V30 4014 C 384.791 1.47388 0.642907 0
M  V30 4015 O 385.981 1.67781 0.468536 0
M  V30 4016 C 383.113 3.31184 0.808069 0
M  V30 4017 H 384.306 2.848 -0.939633 0
M  V30 4018 H 381.859 1.47212 -0.525191 0
M  V30 4019 H 382.594 2.80247 1.63193 0
M  V30 4020 H 382.379 3.91314 0.248104 0
M  V30 4021 H 383.869 3.98909 1.23536 0
M  V30 4022 N 384.306 0.507319 1.49211 0
M  V30 4023 C 385.236 -0.256939 2.32082 0
M  V30 4024 C 386.217 -0.956609 1.40652 0
M  V30 4025 O 387.402 -0.946788 1.69557 0
M  V30 4026 C 384.532 -1.31802 3.21318 0
M  V30 4027 C 383.486 -0.737855 4.21592 0
M  V30 4028 C 382.812 -1.89992 4.99807 0
M  V30 4029 C 384.112 0.275325 5.21574 0
M  V30 4030 H 385.806 0.434798 2.96226 0
M  V30 4031 H 383.352 0.210546 1.42452 0
M  V30 4032 H 385.305 -1.86045 3.78107 0
M  V30 4033 H 384.029 -2.03903 2.5513 0
M  V30 4034 H 382.688 -0.217126 3.65956 0
M  V30 4035 H 382.336 -2.60877 4.30061 0
M  V30 4036 H 382.036 -1.51777 5.6766 0
M  V30 4037 H 383.56 -2.44657 5.59442 0
M  V30 4038 H 384.974 -0.179193 5.7302 0
M  V30 4039 H 383.371 0.573649 5.97352 0
M  V30 4040 H 384.441 1.18903 4.70096 0
M  V30 4041 N 385.784 -1.5574 0.241426 0
M  V30 4042 C 387.031 -1.9881 -0.384836 0
M  V30 4043 C 387.359 -1.12947 -1.58346 0
M  V30 4044 O 386.614 -0.178993 -1.9488 0
M  V30 4045 C 386.913 -3.47308 -0.843317 0
M  V30 4046 C 386.579 -4.50223 0.246946 0
M  V30 4047 C 385.241 -4.78088 0.546399 0
M  V30 4048 C 387.593 -5.11841 0.983282 0
M  V30 4049 C 384.921 -5.64846 1.58636 0
M  V30 4050 C 387.273 -5.99727 2.01272 0
M  V30 4051 C 385.937 -6.25927 2.31888 0
M  V30 4052 H 385.207 -0.727496 -0.140821 0
M  V30 4053 H 387.854 -1.8831 0.348106 0
M  V30 4054 H 386.159 -3.55112 -1.65537 0
M  V30 4055 H 387.856 -3.78017 -1.33806 0
M  V30 4056 H 384.446 -4.286 0.00340639 0
M  V30 4057 H 388.63 -4.90366 0.765182 0
M  V30 4058 H 383.886 -5.83403 1.82896 0
M  V30 4059 H 388.06 -6.46517 2.58823 0
M  V30 4060 H 385.687 -6.92949 3.12611 0
M  V30 4061 N 387.262 0.0317525 -1.57568 0
M  V30 4062 C 388.194 1.06073 -2.03178 0
M  V30 4063 C 389.207 1.32627 -0.944132 0
M  V30 4064 O 390.396 1.30162 -1.22148 0
M  V30 4065 C 387.496 2.40297 -2.38978 0
M  V30 4066 C 386.669 2.33137 -3.70089 0
M  V30 4067 C 385.728 3.49787 -3.9311 0
M  V30 4068 O 384.754 3.29403 -4.64201 0
M  V30 4069 N 385.956 4.71562 -3.38541 0
M  V30 4070 H 388.721 0.672006 -2.92069 0
M  V30 4071 H 386.282 0.219745 -1.60402 0
M  V30 4072 H 388.274 3.1705 -2.51518 0
M  V30 4073 H 386.844 2.71024 -1.55771 0
M  V30 4074 H 386.064 1.415 -3.67928 0
M  V30 4075 H 387.352 2.25493 -4.56104 0
M  V30 4076 H 386.75 4.91024 -2.80912 0
M  V30 4077 H 385.307 5.45689 -3.56464 0
M  V30 4078 N 388.74 1.54641 0.303973 0
M  V30 4079 C 390.151 1.64811 0.877163 0
M  V30 4080 C 390.502 0.554838 1.88191 0
M  V30 4081 O 389.627 -0.309033 2.14182 0
M  V30 4082 C 390.222 2.9876 1.59775 0
M  V30 4083 C 388.781 3.11061 2.11938 0
M  V30 4084 C 387.928 2.60479 0.951097 0
M  V30 4085 H 390.879 1.58493 0.0810486 0
M  V30 4086 H 390.9 2.90017 2.46314 0
M  V30 4087 H 390.412 3.7831 0.866226 0
M  V30 4088 H 388.513 2.36225 2.88146 0
M  V30 4089 H 388.626 4.17171 2.35595 0
M  V30 4090 H 386.99 2.16859 1.33583 0
M  V30 4091 H 387.773 3.42504 0.233581 0
M  V30 4092 N 390.218 -0.567019 1.47046 0
M  V30 4093 C 391.443 -1.3551 1.57009 0
M  V30 4094 C 391.868 -1.86841 0.217259 0
M  V30 4095 O 391.226 -1.62435 -0.805268 0
M  V30 4096 C 391.274 -2.50777 2.5912 0
M  V30 4097 O 390.378 -3.52706 2.13711 0
M  V30 4098 H 389.719 -0.402919 0.52778 0
M  V30 4099 H 392.249 -0.686241 1.92748 0
M  V30 4100 H 392.259 -2.97481 2.79229 0
M  V30 4101 H 390.934 -2.12771 3.57353 0
M  V30 4102 H 389.511 -3.12374 2.03659 0
M  V30 4103 N 391.696 -1.35014 -0.812953 0
M  V30 4104 C 392.943 -1.27931 -1.56971 0
M  V30 4105 C 393.271 0.148034 -1.93936 0
M  V30 4106 O 392.526 1.11175 -1.61054 0
M  V30 4107 C 392.825 -2.12524 -2.87347 0
M  V30 4108 C 392.491 -3.61401 -2.6963 0
M  V30 4109 C 391.153 -4.01983 -2.64506 0
M  V30 4110 C 393.505 -4.55894 -2.52607 0
M  V30 4111 C 390.833 -5.35235 -2.40293 0
M  V30 4112 C 393.185 -5.89336 -2.29925 0
M  V30 4113 C 391.849 -6.2907 -2.23219 0
M  V30 4114 H 391.119 -0.468131 -0.574399 0
M  V30 4115 H 393.766 -1.66851 -0.939836 0
M  V30 4116 H 392.071 -1.66463 -3.54679 0
M  V30 4117 H 393.768 -2.04383 -3.45005 0
M  V30 4118 H 390.358 -3.29193 -2.74463 0
M  V30 4119 H 394.542 -4.25431 -2.55583 0
M  V30 4120 H 389.798 -5.65028 -2.33566 0
M  V30 4121 H 393.972 -6.62139 -2.15743 0
M  V30 4122 H 391.599 -7.32256 -2.04219 0
M  V30 4123 N 393.175 1.03435 -1.18907 0
M  V30 4124 C 394.105 2.13503 -0.945448 0
M  V30 4125 C 395.086 1.69682 0.119189 0
M  V30 4126 O 396.271 1.94169 -0.034707 0
M  V30 4127 C 393.401 3.44004 -0.477316 0
M  V30 4128 C 392.355 4.0148 -1.48316 0
M  V30 4129 C 391.681 5.27537 -0.872311 0
M  V30 4130 C 392.981 4.36921 -2.86177 0
M  V30 4131 H 394.675 2.34141 -1.86597 0
M  V30 4132 H 392.221 1.12523 -0.898584 0
M  V30 4133 H 394.174 4.20372 -0.294204 0
M  V30 4134 H 392.898 3.23072 0.478786 0
M  V30 4135 H 391.557 3.27201 -1.65332 0
M  V30 4136 H 391.205 5.02917 0.0911752 0
M  V30 4137 H 390.905 5.66954 -1.54393 0
M  V30 4138 H 392.429 6.06576 -0.699871 0
M  V30 4139 H 393.843 5.04248 -2.72776 0
M  V30 4140 H 392.24 4.87405 -3.50081 0
M  V30 4141 H 393.31 3.46466 -3.39248 0
M  V30 4142 N 394.653 0.992116 1.22453 0
M  V30 4143 C 395.901 0.666215 1.90804 0
M  V30 4144 C 396.222 -0.804152 1.77647 0
M  V30 4145 O 395.492 -1.57629 1.16318 0
M  V30 4146 H 394.072 0.243423 0.706225 0
M  V30 4147 H 396.734 1.25845 1.48825 0
M  V30 4148 H 395.83 0.928069 2.97982 0
M  V30 4149 N 396.131 -1.37776 0.765217 0
M  V30 4150 C 397.064 -2.28008 0.0935025 0
M  V30 4151 C 398.042 -1.45985 -0.716047 0
M  V30 4152 O 399.226 -1.75331 -0.692203 0
M  V30 4153 C 396.353 -3.27228 -0.874052 0
M  V30 4154 C 395.399 -4.26239 -0.149307 0
M  V30 4155 S 396.232 -5.22827 1.15809 0
M  V30 4156 C 397.388 -6.256 0.193906 0
M  V30 4157 H 397.621 -2.84631 0.858637 0
M  V30 4158 H 395.154 -1.43952 0.558313 0
M  V30 4159 H 397.112 -3.84902 -1.42691 0
M  V30 4160 H 395.773 -2.69565 -1.61225 0
M  V30 4161 H 394.966 -4.96213 -0.88254 0
M  V30 4162 H 394.568 -3.7252 0.332366 0
M  V30 4163 H 396.86 -6.74508 -0.636011 0
M  V30 4164 H 397.803 -7.02838 0.861638 0
M  V30 4165 H 398.211 -5.64173 -0.191975 0
M  V30 4166 N 397.609 -0.515225 -1.4894 0
M  V30 4167 C 398.519 0.259774 -2.33157 0
M  V30 4168 C 399.535 0.953501 -1.45548 0
M  V30 4169 O 400.711 0.931735 -1.78552 0
M  V30 4170 C 397.776 1.30193 -3.21326 0
M  V30 4171 C 396.837 0.620129 -4.24797 0
M  V30 4172 C 396.07 1.61263 -5.08753 0
M  V30 4173 O 396.293 2.84389 -4.94448 0
M  V30 4174 O 395.227 1.16013 -5.90614 0
M  V30 4175 H 399.053 -0.429932 -3.00641 0
M  V30 4176 H 396.638 -0.276346 -1.46822 0
M  V30 4177 H 398.52 1.90455 -3.75905 0
M  V30 4178 H 397.195 1.97431 -2.56521 0
M  V30 4179 H 396.102 -0.0226019 -3.74093 0
M  V30 4180 H 397.435 -0.0100493 -4.92199 0
M  V30 4181 N 399.087 1.5561 -0.249682 0
M  V30 4182 C 400.312 2.03865 0.381305 0
M  V30 4183 C 400.737 1.12769 1.50548 0
M  V30 4184 O 400.095 0.121189 1.80895 0
M  V30 4185 C 400.143 3.50101 0.863816 0
M  V30 4186 O 399.247 3.62132 1.97318 0
M  V30 4187 H 398.588 0.658827 0.0827194 0
M  V30 4188 H 401.118 2.01105 -0.376552 0
M  V30 4189 H 401.128 3.90975 1.1663 0
M  V30 4190 H 399.803 4.1588 0.0411816 0
M  V30 4191 H 398.38 3.33155 1.67517 0
M  V30 4192 N 400.565 -0.0233959 1.57583 0
M  V30 4193 C 401.805 -0.71784 1.9138 0
M  V30 4194 C 402.169 -1.72216 0.848853 0
M  V30 4195 O 403.37 -2.46527 1.07134 0
M  V30 4196 C 401.641 -1.36489 3.30311 0
M  V30 4197 S 403.2 -2.0877 3.85954 0
M  V30 4198 H 400.018 -0.237676 0.670098 0
M  V30 4199 H 402.62 0.0276709 1.9548 0
M  V30 4200 H 401.324 -0.620782 4.05678 0
M  V30 4201 H 400.855 -2.14883 3.29528 0
M  V30 4202 H 402.87 -3.35988 3.65139 0
M  V30 4203 N 402.043 -1.548 -0.295768 0
M  V30 4204 C 403.291 -1.73985 -1.02828 0
M  V30 4205 C 403.612 -0.531406 -1.87619 0
M  V30 4206 O 402.882 0.454221 -1.90561 0
M  V30 4207 H 401.462 -0.641556 -0.382642 0
M  V30 4208 H 404.124 -1.92163 -0.325489 0
M  V30 4209 H 403.22 -2.63129 -1.67838 0
M  V30 4210 N 403.521 0.559213 -1.47345 0
M  V30 4211 C 404.77 1.31281 -1.53128 0
M  V30 4212 C 405.083 1.94602 -0.197344 0
M  V30 4213 O 406.289 2.71173 -0.133154 0
M  V30 4214 C 404.745 2.38051 -2.69925 0
M  V30 4215 C 404.353 1.8093 -4.0984 0
M  V30 4216 C 406.097 3.14604 -2.84999 0
M  V30 4217 C 404.004 2.85468 -5.1794 0
M  V30 4218 H 402.934 0.493614 -0.569966 0
M  V30 4219 H 405.585 0.594155 -1.73615 0
M  V30 4220 H 403.967 3.12822 -2.42814 0
M  V30 4221 H 405.141 1.12544 -4.46845 0
M  V30 4222 H 403.456 1.16967 -3.99634 0
M  V30 4223 H 406.053 3.92666 -3.62929 0
M  V30 4224 H 406.396 3.68665 -1.93369 0
M  V30 4225 H 406.929 2.46945 -3.1187 0
M  V30 4226 H 403.668 2.36264 -6.1144 0
M  V30 4227 H 403.188 3.52269 -4.85455 0
M  V30 4228 H 404.867 3.48996 -5.44803 0
M  V30 4229 N 404.999 1.35443 0.805782 0
M  V30 4230 C 405.949 1.24972 1.90699 0
M  V30 4231 C 406.933 0.144806 1.60247 0
M  V30 4232 O 408.125 0.376102 1.72958 0
M  V30 4233 C 405.254 1.02475 3.27649 0
M  V30 4234 C 404.34 2.17361 3.64164 0
M  V30 4235 N 404.731 3.42591 3.72109 0
M  V30 4236 C 403.029 2.08765 3.94123 0
M  V30 4237 C 403.73 4.18144 4.04389 0
M  V30 4238 N 402.706 3.4691 4.18515 0
M  V30 4239 H 406.508 2.19852 1.95044 0
M  V30 4240 H 404.022 1.27928 1.00041 0
M  V30 4241 H 406.019 0.930617 4.06381 0
M  V30 4242 H 404.679 0.0848009 3.24589 0
M  V30 4243 H 405.69 3.76932 3.55166 0
M  V30 4244 H 402.367 1.22629 3.99084 0
M  V30 4245 H 403.757 5.26367 4.17597 0
M  V30 4246 N 406.477 -1.02803 1.19454 0
M  V30 4247 C 407.387 -2.14575 0.948408 0
M  V30 4248 C 408.403 -1.73757 -0.091871 0
M  V30 4249 O 409.579 -2.01185 0.0929654 0
M  V30 4250 C 406.644 -3.43202 0.491265 0
M  V30 4251 C 405.705 -3.98328 1.60103 0
M  V30 4252 C 404.938 -5.20816 1.16561 0
M  V30 4253 O 405.161 -5.70392 0.0295238 0
M  V30 4254 O 404.095 -5.68801 1.96849 0
M  V30 4255 H 407.921 -2.38202 1.88397 0
M  V30 4256 H 405.506 -1.12989 0.977433 0
M  V30 4257 H 407.388 -4.20687 0.245015 0
M  V30 4258 H 406.063 -3.21018 -0.415851 0
M  V30 4259 H 404.97 -3.22174 1.90144 0
M  V30 4260 H 406.303 -4.24879 2.48473 0
M  V30 4261 N 407.956 -0.998596 -1.21925 0
M  V30 4262 C 409.184 -0.696286 -1.94832 0
M  V30 4263 C 409.599 0.740032 -1.73692 0
M  V30 4264 O 408.956 1.5 -1.03953 0
M  V30 4265 C 409.007 -0.999833 -3.47398 0
M  V30 4266 O 408.728 -2.37972 -3.67833 0
M  V30 4267 C 410.229 -0.716025 -4.37479 0
M  V30 4268 H 407.449 -0.257111 -0.619786 0
M  V30 4269 H 409.993 -1.33491 -1.54921 0
M  V30 4270 H 408.148 -0.406918 -3.85257 0
M  V30 4271 H 408.562 -2.48338 -4.61983 0
M  V30 4272 H 410.036 -0.978642 -5.43256 0
M  V30 4273 H 410.513 0.349968 -4.37803 0
M  V30 4274 H 411.119 -1.29025 -4.05256 0
M  V30 4275 N 409.434 1.37368 -0.772513 0
M  V30 4276 C 410.662 2.03942 -0.348588 0
M  V30 4277 C 411.077 1.58264 1.02947 0
M  V30 4278 O 410.434 0.764246 1.65727 0
M  V30 4279 C 410.485 3.5946 -0.38351 0
M  V30 4280 O 410.206 4.03468 -1.70721 0
M  V30 4281 C 411.707 4.4327 0.0519152 0
M  V30 4282 H 408.927 0.654931 -0.145966 0
M  V30 4283 H 411.471 1.75686 -1.04665 0
M  V30 4284 H 409.626 3.86486 0.265978 0
M  V30 4285 H 410.04 4.97991 -1.64636 0
M  V30 4286 H 411.514 5.51995 -0.0236733 0
M  V30 4287 H 411.991 4.2514 1.10238 0
M  V30 4288 H 412.597 4.21471 -0.569415 0
M  V30 4289 N 410.912 0.523116 1.48665 0
M  V30 4290 C 412.159 -0.0134763 2.02496 0
M  V30 4291 C 412.487 -1.3493 1.40086 0
M  V30 4292 O 411.742 -1.88286 0.533567 0
M  V30 4293 C 412.041 -0.191671 3.56886 0
M  V30 4294 C 411.707 1.06893 4.38046 0
M  V30 4295 C 410.369 1.41443 4.59943 0
M  V30 4296 C 412.721 1.90584 4.85106 0
M  V30 4297 C 410.049 2.59594 5.26144 0
M  V30 4298 C 412.401 3.07907 5.52609 0
M  V30 4299 C 411.065 3.42811 5.72745 0
M  V30 4300 H 410.335 -0.00493133 0.740984 0
M  V30 4301 H 412.982 0.687751 1.78724 0
M  V30 4302 H 411.287 -0.97561 3.79459 0
M  V30 4303 H 412.984 -0.621659 3.96152 0
M  V30 4304 H 409.574 0.789848 4.21259 0
M  V30 4305 H 413.758 1.65203 4.67997 0
M  V30 4306 H 409.014 2.86847 5.39934 0
M  V30 4307 H 413.188 3.73066 5.88043 0
M  V30 4308 H 410.815 4.34462 6.23816 0
M  V30 4309 N 412.39 -1.55475 0.257931 0
M  V30 4310 C 413.338 -2.23244 -0.653076 0
M  V30 4311 C 414.332 -1.22366 -1.17144 0
M  V30 4312 O 415.538 -1.40347 -1.12706 0
M  V30 4313 H 411.913 -0.716247 -0.229117 0
M  V30 4314 H 413.884 -2.98343 -0.0584788 0
M  V30 4315 C 412.633 -2.95401 -1.83395 0
M  V30 4316 H 411.956 -3.72802 -1.44424 0
M  V30 4317 H 413.396 -3.46165 -2.44838 0
M  V30 4318 C 411.855 -1.99895 -2.71189 0
M  V30 4319 O 412.385 -1.53909 -3.71046 0
M  V30 4320 N 410.591 -1.6676 -2.3799 0
M  V30 4321 H 410.138 -2.04352 -1.56837 0
M  V30 4322 H 410.096 -1.03127 -2.97005 0
M  V30 4323 N 413.868 0.0150385 -1.57593 0
M  V30 4324 C 415.093 0.718067 -1.94573 0
M  V30 4325 C 415.518 1.6734 -0.859005 0
M  V30 4326 O 414.876 1.80362 0.184147 0
M  V30 4327 C 414.924 1.43918 -3.30636 0
M  V30 4328 O 414.028 2.55299 -3.23876 0
M  V30 4329 H 413.369 0.192125 -0.635597 0
M  V30 4330 H 415.899 -0.0336708 -2.04572 0
M  V30 4331 H 415.909 1.80598 -3.65853 0
M  V30 4332 H 414.584 0.738619 -4.09289 0
M  V30 4333 H 413.161 2.21058 -3.00312 0
M  V30 4334 N 415.346 1.54954 0.287554 0
M  V30 4335 C 416.595 1.74081 1.01877 0
M  V30 4336 C 416.908 0.541135 1.87966 0
M  V30 4337 O 418.114 0.614491 2.64455 0
M  V30 4338 C 416.57 3.08042 1.86113 0
M  V30 4339 C 416.178 4.35531 1.04961 0
M  V30 4340 C 417.922 3.36523 2.58752 0
M  V30 4341 C 415.829 5.60538 1.88551 0
M  V30 4342 H 414.759 0.64884 0.384087 0
M  V30 4343 H 417.41 1.81426 0.275101 0
M  V30 4344 H 415.792 2.94696 2.64519 0
M  V30 4345 H 416.966 4.59751 0.31074 0
M  V30 4346 H 415.281 4.14085 0.43843 0
M  V30 4347 H 417.878 4.27122 3.21668 0
M  V30 4348 H 418.221 2.56 3.28283 0
M  V30 4349 H 418.754 3.50901 1.87386 0
M  V30 4350 H 415.493 6.43767 1.23466 0
M  V30 4351 H 415.013 5.40483 2.60074 0
M  V30 4352 H 416.692 5.98297 2.46273 0
M  V30 4353 N 416.824 -0.551391 1.4764 0
M  V30 4354 C 417.757 -1.6738 1.5511 0
M  V30 4355 C 418.735 -1.5753 0.402856 0
M  V30 4356 O 419.919 -1.78307 0.611475 0
M  V30 4357 C 417.046 -3.05661 1.45908 0
M  V30 4358 C 416.092 -3.33938 2.65307 0
M  V30 4359 S 416.925 -3.22553 4.27457 0
M  V30 4360 C 418.081 -4.63317 4.20818 0
M  V30 4361 H 418.314 -1.6079 2.50068 0
M  V30 4362 H 415.847 -0.732674 1.35909 0
M  V30 4363 H 417.805 -3.8542 1.41286 0
M  V30 4364 H 416.466 -3.09711 0.523248 0
M  V30 4365 H 415.659 -4.34761 2.54948 0
M  V30 4366 H 415.261 -2.61809 2.67081 0
M  V30 4367 H 417.553 -5.54391 3.89431 0
M  V30 4368 H 418.496 -4.78732 5.21748 0
M  V30 4369 H 418.904 -4.41636 3.51593 0
M  V30 4370 N 418.302 -1.35869 -0.798587 0
M  V30 4371 C 419.249 -1.29446 -1.91082 0
M  V30 4372 C 420.219 -0.16487 -1.6528 0
M  V30 4373 O 421.404 -0.349888 -1.87564 0
M  V30 4374 C 418.544 -1.0804 -3.27752 0
M  V30 4375 C 417.657 -2.29993 -3.65687 0
M  V30 4376 C 416.792 -2.01673 -4.91428 0
M  V30 4377 C 415.831 -3.19636 -5.22015 0
M  V30 4378 N 414.968 -2.91039 -6.38937 0
M  V30 4379 H 419.808 -2.24553 -1.95907 0
M  V30 4380 H 417.345 -1.11615 -0.958148 0
M  V30 4381 H 419.303 -0.936586 -4.06551 0
M  V30 4382 H 417.933 -0.16592 -3.22373 0
M  V30 4383 H 416.985 -2.55211 -2.82085 0
M  V30 4384 H 418.297 -3.18052 -3.84245 0
M  V30 4385 H 417.451 -1.84168 -5.78072 0
M  V30 4386 H 416.19 -1.10911 -4.74921 0
M  V30 4387 H 415.195 -3.37709 -4.33858 0
M  V30 4388 H 416.42 -4.11211 -5.40447 0
M  V30 4389 H 414.366 -2.0288 -6.2384 0
M  V30 4390 H 414.283 -3.72635 -6.57784 0
M  V30 4391 H 415.551 -2.77093 -7.28587 0
M  V30 4392 N 419.78 1.02168 -1.19998 0
M  V30 4393 C 421.02 1.77232 -1.01825 0
M  V30 4394 C 421.384 1.86833 0.442428 0
M  V30 4395 O 422.585 2.58293 0.744189 0
M  V30 4396 C 420.856 3.15601 -1.67722 0
M  V30 4397 S 422.415 4.06765 -1.64584 0
M  V30 4398 H 419.233 0.610021 -0.365233 0
M  V30 4399 H 421.835 1.22368 -1.52467 0
M  V30 4400 H 420.539 3.06235 -2.73218 0
M  V30 4401 H 420.07 3.7554 -1.17189 0
M  V30 4402 H 422.085 4.91586 -0.67511 0
M  V30 4403 N 421.258 1.00505 1.21394 0
M  V30 4404 C 422.535 0.603277 1.86064 0
M  V30 4405 C 422.915 -0.919095 1.90042 0
M  V30 4406 O 422.263 -1.80607 1.39977 0
M  V30 4407 C 422.473 1.23772 3.26315 0
M  V30 4408 C 423.821 1.34586 4.02705 0
M  V30 4409 O 424.845 1.19304 3.35626 0
M  V30 4410 O 423.704 1.59169 5.22807 0
M  V30 4411 H 420.798 0.206634 0.800769 0
M  V30 4412 H 423.344 1.1017 1.29076 0
M  V30 4413 H 422.116 2.27848 3.18121 0
M  V30 4414 H 421.739 0.725648 3.90922 0
M  V30 4415 N 422.737 -1.36956 0.779787 0
M  V30 4416 C 423.983 -1.99787 0.348281 0
M  V30 4417 C 424.316 -1.61756 -1.07465 0
M  V30 4418 O 423.591 -0.867639 -1.74075 0
M  V30 4419 C 423.874 -3.56597 0.50104 0
M  V30 4420 C 423.727 -4.04513 1.96697 0
M  V30 4421 C 425.046 -4.40008 -0.0898097 0
M  V30 4422 H 422.165 -0.725796 0.128022 0
M  V30 4423 H 424.807 -1.62514 0.984331 0
M  V30 4424 H 422.957 -3.88479 -0.0404347 0
M  V30 4425 H 424.629 -3.83161 2.56876 0
M  V30 4426 H 422.872 -3.56408 2.47297 0
M  V30 4427 H 423.543 -5.1352 2.02486 0
M  V30 4428 H 426.019 -4.14431 0.372293 0
M  V30 4429 H 424.895 -5.4888 0.0471605 0
M  V30 4430 H 425.156 -4.26035 -1.18096 0
M  V30 4431 N 424.215 -0.530993 -1.48385 0
M  V30 4432 C 425.492 0.0671788 -1.95485 0
M  V30 4433 C 425.872 1.51191 -1.47324 0
M  V30 4434 O 425.22 2.17507 -0.700202 0
M  V30 4435 C 425.43 -0.0511206 -3.48963 0
M  V30 4436 C 426.778 0.107632 -4.24464 0
M  V30 4437 O 427.802 0.0226248 -3.56193 0
M  V30 4438 O 426.661 0.285972 -5.45751 0
M  V30 4439 H 423.755 0.0787365 -0.823243 0
M  V30 4440 H 426.301 -0.595662 -1.58902 0
M  V30 4441 H 425.073 -1.05747 -3.7674 0
M  V30 4442 H 424.696 0.650525 -3.92242 0
M  V30 4443 N 425.693 1.55336 -0.266172 0
M  V30 4444 C 426.942 1.98574 0.353749 0
M  V30 4445 C 427.255 1.15789 1.57646 0
M  V30 4446 O 428.461 1.49129 2.26876 0
M  V30 4447 C 426.917 3.53403 0.680747 0
M  V30 4448 C 426.525 4.44953 -0.52165 0
M  V30 4449 C 428.269 4.05251 1.26379 0
M  V30 4450 C 426.176 5.91156 -0.169736 0
M  V30 4451 H 425.106 0.741643 0.135949 0
M  V30 4452 H 427.757 1.79743 -0.369421 0
M  V30 4453 H 426.139 3.68001 1.46257 0
M  V30 4454 H 427.313 4.42121 -1.29869 0
M  V30 4455 H 425.628 4.03691 -1.02093 0
M  V30 4456 H 428.225 5.12021 1.54074 0
M  V30 4457 H 428.568 3.53749 2.19471 0
M  V30 4458 H 429.101 3.94057 0.544447 0
M  V30 4459 H 425.84 6.46736 -1.0683 0
M  V30 4460 H 425.36 5.97079 0.570717 0
M  V30 4461 H 427.039 6.4655 0.241245 0
M  V30 4462 N 427.171 -0.0066808 1.57599 0
M  V30 4463 C 428.587 -0.36267 1.55425 0
M  V30 4464 C 428.787 -1.75209 0.995187 0
M  V30 4465 O 427.843 -2.44616 0.626058 0
M  V30 4466 C 429.156 -0.244017 2.99708 0
M  V30 4467 C 430.704 -0.319451 3.11366 0
M  V30 4468 C 431.179 -0.229998 4.57422 0
M  V30 4469 N 432.67 -0.288105 4.62303 0
M  V30 4470 C 433.405 -0.242127 5.72889 0
M  V30 4471 N 432.901 -0.147133 6.92644 0
M  V30 4472 N 434.694 -0.293502 5.61333 0
M  V30 4473 H 426.845 0.902314 1.92281 0
M  V30 4474 H 429.108 0.34525 0.882896 0
M  V30 4475 H 428.814 0.711678 3.44424 0
M  V30 4476 H 428.688 -1.02877 3.629 0
M  V30 4477 H 431.075 -1.26559 2.66584 0
M  V30 4478 H 431.156 0.495055 2.50964 0
M  V30 4479 H 430.8 0.712566 5.02877 0
M  V30 4480 H 430.73 -1.0629 5.15761 0
M  V30 4481 H 433.221 -0.363126 3.76151 0
M  V30 4482 H 433.534 -0.117763 7.7271 0
M  V30 4483 H 431.879 -0.112857 6.94908 0
M  V30 4484 H 435.07 -0.365864 4.66668 0
M  V30 4485 H 435.243 -0.254204 6.47501 0
M  V30 4486 N 428.649 -1.55105 -0.279332 0
M  V30 4487 C 429.596 -1.8755 -1.34513 0
M  V30 4488 C 430.566 -0.726384 -1.49375 0
M  V30 4489 O 431.751 -0.977063 -1.63884 0
M  V30 4490 C 428.891 -2.14738 -2.70151 0
M  V30 4491 C 428.004 -3.42285 -2.63562 0
M  V30 4492 C 427.139 -3.59206 -3.91337 0
M  V30 4493 C 426.178 -4.80467 -3.79233 0
M  V30 4494 N 425.315 -4.94079 -4.98829 0
M  V30 4495 H 430.155 -2.78456 -1.06143 0
M  V30 4496 H 427.692 -1.37867 -0.512936 0
M  V30 4497 H 429.65 -2.28501 -3.49061 0
M  V30 4498 H 428.28 -1.27075 -2.96735 0
M  V30 4499 H 427.332 -3.37029 -1.76397 0
M  V30 4500 H 428.644 -4.31328 -2.50515 0
M  V30 4501 H 427.798 -3.72751 -4.78687 0
M  V30 4502 H 426.537 -2.68337 -4.07243 0
M  V30 4503 H 425.542 -4.66932 -2.90266 0
M  V30 4504 H 426.767 -5.72765 -3.64852 0
M  V30 4505 H 424.713 -4.06139 -5.15158 0
M  V30 4506 H 424.63 -5.77156 -4.8829 0
M  V30 4507 H 425.898 -5.12003 -5.8777 0
M  V30 4508 N 430.127 0.543554 -1.4793 0
M  V30 4509 C 431.404 1.30458 -1.4574 0
M  V30 4510 C 431.784 2.1048 -0.161692 0
M  V30 4511 O 431.132 2.11831 0.856734 0
M  V30 4512 C 431.342 2.19754 -2.71126 0
M  V30 4513 C 432.69 2.80334 -3.18901 0
M  V30 4514 O 433.714 2.30049 -2.71948 0
M  V30 4515 O 432.573 3.71766 -4.00565 0
M  V30 4516 H 429.667 0.588117 -0.581418 0
M  V30 4517 H 432.213 0.561328 -1.60147 0
M  V30 4518 H 430.985 1.60316 -3.56952 0
M  V30 4519 H 430.608 3.01351 -2.59371 0
M  V30 4520 N 431.605 1.3629 0.791371 0
M  V30 4521 C 432.535 1.33137 1.91825 0
M  V30 4522 C 433.516 0.203168 1.68882 0
M  V30 4523 O 434.701 0.400509 1.90025 0
M  V30 4524 C 431.831 1.11793 3.28816 0
M  V30 4525 C 430.785 2.21417 3.66277 0
M  V30 4526 C 430.111 1.85218 5.01596 0
M  V30 4527 C 431.411 3.63489 3.75064 0
M  V30 4528 H 433.105 2.2743 1.9472 0
M  V30 4529 H 430.651 1.09479 0.935437 0
M  V30 4530 H 432.604 1.08222 4.07266 0
M  V30 4531 H 431.328 0.139501 3.26302 0
M  V30 4532 H 429.987 2.2411 2.90121 0
M  V30 4533 H 429.635 0.859544 4.95602 0
M  V30 4534 H 429.335 2.58611 5.27631 0
M  V30 4535 H 430.859 1.832 5.82469 0
M  V30 4536 H 432.273 3.63034 4.43711 0
M  V30 4537 H 430.67 4.35771 4.12582 0
M  V30 4538 H 431.74 3.98536 2.76219 0
M  V30 4539 N 433.083 -1.0153 1.20538 0
M  V30 4540 C 434.313 -1.78487 1.04048 0
M  V30 4541 C 434.721 -1.84631 -0.413292 0
M  V30 4542 O 434.064 -1.29919 -1.29872 0
M  V30 4543 C 434.126 -3.24367 1.55003 0
M  V30 4544 C 433.79 -3.41827 3.0332 0
M  V30 4545 C 434.787 -3.30941 4.00966 0
M  V30 4546 C 432.472 -3.67602 3.42307 0
M  V30 4547 C 434.466 -3.45577 5.35589 0
M  V30 4548 C 432.153 -3.81881 4.77085 0
M  V30 4549 C 433.151 -3.70874 5.73534 0
M  V30 4550 O 432.839 -3.84714 7.05868 0
M  V30 4551 H 432.571 -0.568108 0.366373 0
M  V30 4552 H 435.125 -1.28677 1.60098 0
M  V30 4553 H 433.355 -3.75266 0.933397 0
M  V30 4554 H 435.044 -3.82963 1.34514 0
M  V30 4555 H 435.81 -3.10964 3.72191 0
M  V30 4556 H 431.689 -3.75256 2.67776 0
M  V30 4557 H 435.233 -3.36902 6.10854 0
M  V30 4558 H 431.13 -4.01359 5.0555 0
M  V30 4559 H 431.898 -4.01724 7.13134 0
M  V30 4560 N 434.561 -1.01147 -1.20859 0
M  V30 4561 C 435.524 -0.582224 -2.21682 0
M  V30 4562 C 436.524 0.344887 -1.57058 0
M  V30 4563 O 437.714 0.134281 -1.73682 0
M  V30 4564 C 434.846 0.150496 -3.40568 0
M  V30 4565 H 436.039 -1.47408 -2.61172 0
M  V30 4566 H 433.592 -0.800695 -1.34233 0
M  V30 4567 H 434.327 1.0575 -3.06574 0
M  V30 4568 H 434.112 -0.515444 -3.88697 0
M  V30 4569 H 435.602 0.438344 -4.15293 0
M  V30 4570 N 436.039 1.36541 -0.78704 0
M  V30 4571 C 436.987 2.31965 -0.171724 0
M  V30 4572 C 437.981 1.55689 0.667631 0
M  V30 4573 O 439.187 1.70969 0.562981 0
M  V30 4574 H 435.562 0.751101 -0.0367545 0
M  V30 4575 H 437.533 2.81428 -0.992017 0
M  V30 4576 C 436.282 3.40968 0.680904 0
M  V30 4577 H 435.605 3.99775 0.0443961 0
M  V30 4578 H 437.045 4.10063 1.07815 0
M  V30 4579 C 435.504 2.82338 1.83813 0
M  V30 4580 O 436.034 2.74311 2.93456 0
M  V30 4581 N 434.24 2.39661 1.6435 0
M  V30 4582 H 433.787 2.46389 0.751668 0
M  V30 4583 H 433.745 2.00779 2.4194 0
M  V30 4584 N 437.518 0.538854 1.48102 0
M  V30 4585 C 438.746 0.0123136 2.06896 0
M  V30 4586 C 439.161 -1.27312 1.39417 0
M  V30 4587 O 438.518 -1.75949 0.484582 0
M  V30 4588 C 438.569 -0.206118 3.60912 0
M  V30 4589 O 438.29 1.0284 4.25859 0
M  V30 4590 C 439.791 -0.772033 4.36526 0
M  V30 4591 H 437.011 0.0375239 0.66995 0
M  V30 4592 H 439.555 0.747032 1.90367 0
M  V30 4593 H 437.71 -0.89091 3.77017 0
M  V30 4594 H 438.124 0.814654 5.18135 0
M  V30 4595 H 439.598 -0.874251 5.45033 0
M  V30 4596 H 440.075 -1.77904 4.01555 0
M  V30 4597 H 440.681 -0.123526 4.25121 0
M  V30 4598 N 438.996 -1.55193 0.274407 0
M  V30 4599 C 440.242 -1.99877 -0.343086 0
M  V30 4600 C 440.575 -1.16256 -1.55558 0
M  V30 4601 O 439.85 -0.232462 -1.93106 0
M  V30 4602 C 440.133 -3.52706 -0.725965 0
M  V30 4603 C 439.986 -4.47081 0.493818 0
M  V30 4604 C 441.305 -4.11422 -1.56268 0
M  V30 4605 H 438.424 -0.726625 -0.123229 0
M  V30 4606 H 441.066 -1.86136 0.38121 0
M  V30 4607 H 439.216 -3.64546 -1.34307 0
M  V30 4608 H 440.888 -4.47186 1.13237 0
M  V30 4609 H 439.131 -4.1877 1.13201 0
M  V30 4610 H 439.802 -5.51699 0.18217 0
M  V30 4611 H 442.278 -4.02855 -1.04151 0
M  V30 4612 H 441.154 -5.18568 -1.79939 0
M  V30 4613 H 441.415 -3.61607 -2.54348 0
M  V30 4614 N 440.474 -0.00167713 -1.576 0
M  V30 4615 C 441.404 0.988091 -2.11563 0
M  V30 4616 C 442.385 1.35736 -1.02517 0
M  V30 4617 O 443.57 1.44082 -1.30208 0
M  V30 4618 C 440.7 2.27941 -2.62031 0
M  V30 4619 C 439.654 2.0517 -3.75619 0
M  V30 4620 C 438.98 3.4033 -4.12407 0
M  V30 4621 C 440.28 1.41294 -5.02825 0
M  V30 4622 H 441.974 0.538771 -2.94513 0
M  V30 4623 H 439.52 0.257712 -1.41675 0
M  V30 4624 H 441.473 2.97539 -2.9841 0
M  V30 4625 H 440.197 2.74989 -1.76205 0
M  V30 4626 H 438.856 1.37998 -3.39635 0
M  V30 4627 H 438.504 3.85085 -3.23603 0
M  V30 4628 H 438.204 3.25909 -4.88935 0
M  V30 4629 H 439.728 4.1124 -4.51347 0
M  V30 4630 H 441.142 2.00851 -5.36965 0
M  V30 4631 H 439.539 1.37356 -5.84169 0
M  V30 4632 H 440.609 0.382362 -4.8339 0
M  V30 4633 N 441.952 1.55251 0.271103 0
M  V30 4634 C 443.177 1.80306 1.02491 0
M  V30 4635 C 443.602 0.575457 1.79081 0
M  V30 4636 O 442.96 -0.474987 1.74967 0
M  V30 4637 C 443.008 3.02832 1.95768 0
M  V30 4638 O 442.112 2.78051 3.04568 0
M  V30 4639 H 441.453 0.595896 0.292923 0
M  V30 4640 H 443.983 2.02397 0.299436 0
M  V30 4641 H 443.993 3.31616 2.37686 0
M  V30 4642 H 442.668 3.9183 1.39434 0
M  V30 4643 H 441.245 2.60369 2.66951 0
M  V30 4644 N 443.43 -0.535701 1.48216 0
M  V30 4645 C 444.678 -1.28928 1.55634 0
M  V30 4646 C 444.999 -1.93645 0.229514 0
M  V30 4647 O 444.269 -1.81038 -0.74846 0
M  V30 4648 H 442.849 -0.47884 0.573342 0
M  V30 4649 H 445.511 -0.623853 1.84646 0
M  V30 4650 H 444.607 -2.07157 2.33436 0
M  V30 4651 N 444.908 -1.36708 -0.784132 0
M  V30 4652 C 446.156 -1.30972 -1.53918 0
M  V30 4653 C 446.477 0.109086 -1.94695 0
M  V30 4654 O 445.747 1.05048 -1.65353 0
M  V30 4655 H 444.327 -0.481819 -0.570841 0
M  V30 4656 H 446.989 -1.71063 -0.934002 0
M  V30 4657 H 446.085 -1.94061 -2.44431 0
M  V30 4658 N 446.386 1.0089 -1.21074 0
M  V30 4659 C 447.614 1.78191 -1.05145 0
M  V30 4660 C 448.029 1.84537 0.398952 0
M  V30 4661 O 447.386 1.30393 1.27687 0
M  V30 4662 C 447.437 3.22288 -1.63746 0
M  V30 4663 O 447.158 3.16315 -3.03111 0
M  V30 4664 C 448.659 4.16106 -1.52875 0
M  V30 4665 H 445.879 0.560129 -0.369454 0
M  V30 4666 H 448.423 1.26945 -1.60328 0
M  V30 4667 H 446.578 3.70655 -1.12664 0
M  V30 4668 H 446.992 4.06817 -3.31059 0
M  V30 4669 H 448.466 5.15026 -1.98626 0
M  V30 4670 H 448.943 4.36541 -0.482521 0
M  V30 4671 H 449.549 3.73625 -2.03185 0
M  V30 4672 N 447.864 1.01787 1.20321 0
M  V30 4673 C 449.092 0.727194 1.937 0
M  V30 4674 C 449.507 -0.712305 1.74848 0
M  V30 4675 O 448.864 -1.48327 1.06327 0
M  V30 4676 C 448.915 1.05497 3.45764 0
M  V30 4677 O 448.636 2.43794 3.64 0
M  V30 4678 C 450.137 0.785534 4.36285 0
M  V30 4679 H 447.357 0.266939 0.615617 0
M  V30 4680 H 449.901 1.35939 1.52777 0
M  V30 4681 H 448.056 0.468158 3.84561 0
M  V30 4682 H 448.47 2.55656 4.57974 0
M  V30 4683 H 449.944 1.06495 5.4163 0
M  V30 4684 H 450.421 -0.280273 4.38305 0
M  V30 4685 H 451.027 1.35456 4.03152 0
M  V30 4686 N 449.342 -1.36122 0.79427 0
M  V30 4687 C 450.275 -2.27759 0.141845 0
M  V30 4688 C 451.253 -1.47471 -0.684921 0
M  V30 4689 O 452.437 -1.76759 -0.654857 0
M  V30 4690 C 449.564 -3.29008 -0.804446 0
M  V30 4691 C 448.61 -4.26459 -0.0588617 0
M  V30 4692 S 449.443 -5.20253 1.26873 0
M  V30 4693 C 450.599 -6.25048 0.326562 0
M  V30 4694 H 450.832 -2.82746 0.918818 0
M  V30 4695 H 448.365 -1.42736 0.588722 0
M  V30 4696 H 450.323 -3.87842 -1.34495 0
M  V30 4697 H 448.984 -2.72924 -1.5547 0
M  V30 4698 H 448.177 -4.97973 -0.777087 0
M  V30 4699 H 447.779 -3.71731 0.411309 0
M  V30 4700 H 450.071 -6.75705 -0.492795 0
M  V30 4701 H 451.014 -7.00852 1.01053 0
M  V30 4702 H 451.422 -5.64454 -0.0722627 0
M  V30 4703 N 450.82 -0.546701 -1.47814 0
M  V30 4704 C 452.05 -0.0232519 -2.06587 0
M  V30 4705 C 452.458 1.2712 -1.40133 0
M  V30 4706 O 451.801 1.77091 -0.488305 0
M  V30 4707 C 451.863 0.254117 -3.58601 0
M  V30 4708 C 451.527 -0.949331 -4.47031 0
M  V30 4709 C 452.524 -1.85216 -4.85789 0
M  V30 4710 C 450.209 -1.16104 -4.88697 0
M  V30 4711 C 452.203 -2.95047 -5.65001 0
M  V30 4712 C 449.89 -2.26247 -5.67676 0
M  V30 4713 C 450.888 -3.1555 -6.05737 0
M  V30 4714 O 450.576 -4.23784 -6.83127 0
M  V30 4715 H 450.308 -0.0380082 -0.674931 0
M  V30 4716 H 452.862 -0.756631 -1.90956 0
M  V30 4717 H 451.092 1.04168 -3.72406 0
M  V30 4718 H 452.781 0.72167 -3.99433 0
M  V30 4719 H 453.547 -1.70061 -4.54207 0
M  V30 4720 H 449.426 -0.475159 -4.58545 0
M  V30 4721 H 452.97 -3.64778 -5.94628 0
M  V30 4722 H 448.867 -2.41379 -5.98671 0
M  V30 4723 H 449.635 -4.21701 -7.01506 0
M  V30 4724 N 452.299 1.55045 -0.282633 0
M  V30 4725 C 453.71 1.85473 0.213655 0
M  V30 4726 C 454.061 1.20465 1.54863 0
M  V30 4727 O 453.186 0.495676 2.10647 0
M  V30 4728 C 453.781 3.36496 0.394445 0
M  V30 4729 C 452.34 3.67022 0.834961 0
M  V30 4730 C 451.487 2.77218 -0.0674081 0
M  V30 4731 H 454.438 1.50478 -0.504202 0
M  V30 4732 H 454.459 3.60007 1.23186 0
M  V30 4733 H 453.971 3.83782 -0.577326 0
M  V30 4734 H 452.072 3.25241 1.81794 0
M  V30 4735 H 452.185 4.74433 0.667075 0
M  V30 4736 H 450.549 2.5069 0.450196 0
M  V30 4737 H 451.332 3.2732 -1.0352 0
M  V30 4738 N 453.777 0.010035 1.57597 0
M  V30 4739 C 455.025 -0.671371 1.90623 0
M  V30 4740 C 455.346 -1.73753 0.885151 0
M  V30 4741 O 454.616 -1.95752 -0.0760611 0
M  V30 4742 H 453.196 -0.250968 0.703579 0
M  V30 4743 H 455.858 0.0533325 1.94827 0
M  V30 4744 H 454.954 -1.13626 2.90681 0
M  V30 4745 N 455.255 -1.55392 -0.262866 0
M  V30 4746 C 456.504 -1.75679 -0.990943 0
M  V30 4747 C 456.817 -0.57097 -1.87081 0
M  V30 4748 O 458.023 -0.656486 -2.63444 0
M  V30 4749 C 456.479 -3.10964 -1.81188 0
M  V30 4750 C 456.087 -4.37146 -0.980188 0
M  V30 4751 C 457.831 -3.40597 -2.53365 0
M  V30 4752 C 455.738 -5.63466 -1.7961 0
M  V30 4753 H 454.668 -0.654868 -0.373716 0
M  V30 4754 H 457.319 -1.81841 -0.246203 0
M  V30 4755 H 455.701 -2.98867 -2.59797 0
M  V30 4756 H 456.875 -4.60187 -0.237558 0
M  V30 4757 H 455.19 -4.14731 -0.372497 0
M  V30 4758 H 457.787 -4.32186 -3.14833 0
M  V30 4759 H 458.13 -2.6119 -3.24169 0
M  V30 4760 H 458.663 -3.53838 -1.81779 0
M  V30 4761 H 455.402 -6.4565 -1.13209 0
M  V30 4762 H 454.922 -5.44552 -2.51443 0
M  V30 4763 H 456.601 -6.02139 -2.36723 0
M  V30 4764 N 456.733 0.527833 -1.48498 0
M  V30 4765 C 457.696 1.61439 -1.62696 0
M  V30 4766 C 458.696 1.52824 -0.500136 0
M  V30 4767 O 459.886 1.56456 -0.765976 0
M  V30 4768 C 457.018 3.01063 -1.59918 0
M  V30 4769 H 458.211 1.50189 -2.59583 0
M  V30 4770 H 455.764 0.750055 -1.37127 0
M  V30 4771 H 456.499 3.17818 -0.645163 0
M  V30 4772 H 456.284 3.08725 -2.41726 0
M  V30 4773 H 457.774 3.80057 -1.73051 0
M  V30 4774 N 458.211 1.37122 0.776871 0
M  V30 4775 C 459.488 1.22586 1.52421 0
M  V30 4776 C 459.868 -0.182726 2.10308 0
M  V30 4777 O 459.216 -1.18979 1.9508 0
M  V30 4778 C 459.426 2.31782 2.60918 0
M  V30 4779 C 460.774 2.69071 3.2846 0
M  V30 4780 O 461.798 2.3092 2.71209 0
M  V30 4781 O 460.657 3.3478 4.31954 0
M  V30 4782 H 457.751 0.478045 0.674835 0
M  V30 4783 H 460.297 1.48888 0.814275 0
M  V30 4784 H 459.069 3.26131 2.16227 0
M  V30 4785 H 458.692 2.06916 3.39517 0
M  V30 4786 N 459.689 -1.00246 1.21608 0
M  V30 4787 C 461.105 -1.26435 0.973975 0
M  V30 4788 C 461.305 -1.98642 -0.338143 0
M  V30 4789 O 460.361 -2.29026 -1.06317 0
M  V30 4790 C 461.674 -2.08551 2.16626 0
M  V30 4791 C 463.222 -2.21769 2.20879 0
M  V30 4792 C 463.697 -3.07267 3.39633 0
M  V30 4793 N 465.188 -3.14855 3.39736 0
M  V30 4794 C 465.923 -3.81274 4.28273 0
M  V30 4795 N 465.419 -4.497 5.27012 0
M  V30 4796 N 467.212 -3.7794 4.16074 0
M  V30 4797 H 459.363 -0.518089 2.05984 0
M  V30 4798 H 461.626 -0.291368 0.902113 0
M  V30 4799 H 461.332 -1.62847 3.11727 0
M  V30 4800 H 461.206 -3.09303 2.15897 0
M  V30 4801 H 463.593 -2.66691 1.26332 0
M  V30 4802 H 463.674 -1.20478 2.25652 0
M  V30 4803 H 463.318 -2.63047 4.34475 0
M  V30 4804 H 463.248 -4.08678 3.321 0
M  V30 4805 H 465.739 -2.66147 2.6828 0
M  V30 4806 H 466.052 -4.98092 5.90867 0
M  V30 4807 H 464.397 -4.48479 5.30935 0
M  V30 4808 H 467.588 -3.23638 3.38195 0
M  V30 4809 H 467.761 -4.29424 4.85282 0
M  V30 4810 N 461.167 -1.02423 -1.1978 0
M  V30 4811 C 462.1 -0.545641 -2.21581 0
M  V30 4812 C 463.078 0.411024 -1.57319 0
M  V30 4813 O 464.262 0.329223 -1.85603 0
M  V30 4814 C 461.389 0.204973 -3.38079 0
M  V30 4815 C 460.435 -0.70241 -4.20676 0
M  V30 4816 S 461.268 -2.17595 -4.89298 0
M  V30 4817 C 462.424 -1.43572 -6.09211 0
M  V30 4818 H 462.657 -1.4082 -2.61834 0
M  V30 4819 H 460.19 -0.833771 -1.29952 0
M  V30 4820 H 462.148 0.631924 -4.05607 0
M  V30 4821 H 460.809 1.0432 -2.9627 0
M  V30 4822 H 460.002 -0.123193 -5.03849 0
M  V30 4823 H 459.604 -1.06747 -3.58442 0
M  V30 4824 H 461.896 -0.719806 -6.73665 0
M  V30 4825 H 462.839 -2.24388 -6.71607 0
M  V30 4826 H 463.247 -0.935252 -5.56699 0
M  V30 4827 N 462.645 1.35699 -0.801477 0
M  V30 4828 C 463.577 2.28598 -0.166028 0
M  V30 4829 C 464.59 1.50044 0.631721 0
M  V30 4830 O 465.779 1.72339 0.464921 0
M  V30 4831 C 462.879 3.29625 0.787451 0
M  V30 4832 C 462.052 4.37384 0.037171 0
M  V30 4833 C 461.111 5.183 0.908375 0
M  V30 4834 O 460.137 5.68053 0.361189 0
M  V30 4835 N 461.339 5.35912 2.23112 0
M  V30 4836 H 464.104 2.83771 -0.964071 0
M  V30 4837 H 461.665 1.47994 -0.656469 0
M  V30 4838 H 463.657 3.80648 1.37439 0
M  V30 4839 H 462.227 2.75004 1.48632 0
M  V30 4840 H 461.447 3.87364 -0.730935 0
M  V30 4841 H 462.735 5.0653 -0.480109 0
M  V30 4842 H 462.133 4.97125 2.69968 0
M  V30 4843 H 460.69 5.90133 2.76741 0
M  V30 4844 N 464.123 0.554532 1.47522 0
M  V30 4845 C 465.07 -0.19466 2.29978 0
M  V30 4846 C 466.04 -0.910882 1.38896 0
M  V30 4847 O 467.225 -0.907102 1.67858 0
M  V30 4848 C 464.365 -1.22035 3.22802 0
M  V30 4849 C 463.478 -0.510474 4.28973 0
M  V30 4850 C 462.613 -1.52123 5.08952 0
M  V30 4851 C 461.652 -0.796173 6.069 0
M  V30 4852 N 460.789 -1.75363 6.79847 0
M  V30 4853 H 465.629 0.51461 2.93523 0
M  V30 4854 H 463.166 0.265607 1.44682 0
M  V30 4855 H 465.124 -1.8276 3.7504 0
M  V30 4856 H 463.754 -1.89769 2.61127 0
M  V30 4857 H 462.806 0.211234 3.79813 0
M  V30 4858 H 464.118 0.0576503 4.98767 0
M  V30 4859 H 463.272 -2.20207 5.65326 0
M  V30 4860 H 462.011 -2.12327 4.39054 0
M  V30 4861 H 461.016 -0.101388 5.49707 0
M  V30 4862 H 462.241 -0.199911 6.78806 0
M  V30 4863 H 460.187 -2.3443 6.12682 0
M  V30 4864 H 460.104 -1.23759 7.45801 0
M  V30 4865 H 461.372 -2.4257 7.40797 0
M  V30 4866 N 465.601 -1.54893 0.290851 0
M  V30 4867 C 466.511 -2.26812 -0.59945 0
M  V30 4868 C 467.527 -1.29963 -1.15696 0
M  V30 4869 O 468.703 -1.62928 -1.18391 0
M  V30 4870 C 465.768 -2.98716 -1.75982 0
M  V30 4871 C 464.829 -4.1108 -1.2374 0
M  V30 4872 C 464.062 -4.79546 -2.34246 0
M  V30 4873 O 464.285 -4.47309 -3.53936 0
M  V30 4874 O 463.219 -5.67165 -2.01512 0
M  V30 4875 H 467.045 -3.03696 -0.0163561 0
M  V30 4876 H 464.63 -1.49289 0.0576755 0
M  V30 4877 H 466.512 -3.43851 -2.43607 0
M  V30 4878 H 465.187 -2.24737 -2.3297 0
M  V30 4879 H 464.094 -3.70367 -0.527163 0
M  V30 4880 H 465.427 -4.87007 -0.71307 0
M  V30 4881 N 467.08 -0.0183926 -1.57589 0
M  V30 4882 C 468.329 0.66185 -1.90532 0
M  V30 4883 C 468.642 1.73904 -0.895366 0
M  V30 4884 O 469.848 2.47518 -1.11566 0
M  V30 4885 C 468.304 1.22844 -3.38286 0
M  V30 4886 C 467.912 0.185103 -4.47617 0
M  V30 4887 C 469.656 1.88581 -3.80312 0
M  V30 4888 C 467.563 0.762723 -5.86461 0
M  V30 4889 H 466.493 0.250972 -0.711006 0
M  V30 4890 H 469.144 -0.0819435 -1.83317 0
M  V30 4891 H 467.526 2.0235 -3.40398 0
M  V30 4892 H 468.7 -0.58671 -4.5705 0
M  V30 4893 H 467.015 -0.372889 -4.14727 0
M  V30 4894 H 469.612 2.32735 -4.81392 0
M  V30 4895 H 469.955 2.72408 -3.14801 0
M  V30 4896 H 470.488 1.15782 -3.80578 0
M  V30 4897 H 467.227 -0.0371713 -6.55489 0
M  V30 4898 H 466.747 1.50327 -5.80656 0
M  V30 4899 H 468.426 1.25576 -6.34697 0
M  V30 4900 N 468.558 1.5553 0.254621 0
M  V30 4901 C 469.786 1.81046 1.00149 0
M  V30 4902 C 470.201 0.593047 1.79244 0
M  V30 4903 O 469.558 -0.438196 1.77161 0
M  V30 4904 C 469.609 3.04684 1.94551 0
M  V30 4905 O 469.33 4.21725 1.18658 0
M  V30 4906 C 470.831 3.42943 2.80901 0
M  V30 4907 H 468.051 0.602653 0.295044 0
M  V30 4908 H 470.595 2.02576 0.279842 0
M  V30 4909 H 468.75 2.85226 2.62154 0
M  V30 4910 H 469.164 4.91746 1.82445 0
M  V30 4911 H 470.638 4.32576 3.42902 0
M  V30 4912 H 471.115 2.63176 3.51617 0
M  V30 4913 H 471.721 3.64724 2.18762 0
M  V30 4914 N 470.036 -0.519951 1.48776 0
M  V30 4915 C 470.999 -1.60574 1.6355 0
M  V30 4916 C 471.999 -1.52557 0.508234 0
M  V30 4917 O 473.189 -1.56047 0.774262 0
M  V30 4918 C 470.321 -3.00211 1.61512 0
M  V30 4919 H 471.514 -1.4881 2.60376 0
M  V30 4920 H 469.067 -0.742772 1.37523 0
M  V30 4921 H 469.802 -3.17471 0.662009 0
M  V30 4922 H 469.587 -3.07439 2.43359 0
M  V30 4923 H 471.077 -3.79134 1.75064 0
M  V30 4924 N 471.514 -1.37532 -0.769588 0
M  V30 4925 C 472.444 -1.36172 -1.89682 0
M  V30 4926 C 473.425 -0.23001 -1.68538 0
M  V30 4927 O 474.61 -0.43069 -1.89364 0
M  V30 4928 C 471.74 -1.1701 -3.26995 0
M  V30 4929 C 470.694 -2.27216 -3.62708 0
M  V30 4930 C 470.02 -1.93174 -4.98586 0
M  V30 4931 C 471.32 -3.6941 -3.69234 0
M  V30 4932 H 473.014 -2.30499 -1.91078 0
M  V30 4933 H 470.56 -1.10953 -0.917902 0
M  V30 4934 H 472.513 -1.14688 -4.05493 0
M  V30 4935 H 471.237 -0.191395 -3.26039 0
M  V30 4936 H 469.896 -2.28697 -2.86519 0
M  V30 4937 H 469.544 -0.938281 -4.94171 0
M  V30 4938 H 469.244 -2.66973 -5.23449 0
M  V30 4939 H 470.768 -1.92443 -5.79481 0
M  V30 4940 H 472.182 -3.70047 -4.37879 0
M  V30 4941 H 470.579 -4.4228 -4.05597 0
M  V30 4942 H 471.649 -4.0288 -2.69844 0
M  V30 4943 N 472.992 0.995999 -1.22138 0
M  V30 4944 C 473.955 2.06711 -0.990109 0
M  V30 4945 C 474.955 1.60744 0.0422978 0
M  V30 4946 O 476.145 1.73095 -0.195895 0
M  V30 4947 C 473.277 3.37288 -0.49491 0
M  V30 4948 H 474.47 2.28661 -1.94047 0
M  V30 4949 H 472.023 1.16711 -1.03963 0
M  V30 4950 H 472.758 3.21022 0.459948 0
M  V30 4951 H 472.543 3.71986 -1.23971 0
M  V30 4952 H 474.033 4.16103 -0.353253 0
M  V30 4953 N 474.47 1.03057 1.19235 0
M  V30 4954 C 475.881 0.757449 1.70645 0
M  V30 4955 C 476.232 -0.722735 1.82403 0
M  V30 4956 O 475.357 -1.56325 1.49638 0
M  V30 4957 C 475.952 1.36833 3.09939 0
M  V30 4958 C 474.511 1.14375 3.58602 0
M  V30 4959 C 473.658 1.46533 2.35422 0
M  V30 4960 H 476.609 1.19828 1.04052 0
M  V30 4961 H 476.63 0.766184 3.72706 0
M  V30 4962 H 476.142 2.44562 3.01349 0
M  V30 4963 H 474.243 0.0847542 3.72504 0
M  V30 4964 H 474.356 1.83366 4.42622 0
M  V30 4965 H 472.72 0.884712 2.38841 0
M  V30 4966 H 473.503 2.55349 2.2946 0
M  V30 4967 N 475.948 -1.35272 0.808662 0
M  V30 4968 C 477.173 -2.03477 0.401475 0
M  V30 4969 C 477.598 -1.60537 -0.980279 0
M  V30 4970 O 476.956 -0.78304 -1.63518 0
M  V30 4971 C 477.004 -3.57181 0.495354 0
M  V30 4972 O 476.108 -4.09474 -0.490397 0
M  V30 4973 H 475.449 -0.642561 0.167366 0
M  V30 4974 H 477.979 -1.72824 1.09512 0
M  V30 4975 H 477.989 -4.06356 0.365912 0
M  V30 4976 H 476.664 -3.87784 1.5032 0
M  V30 4977 H 475.241 -3.71516 -0.321023 0
M  V30 4978 N 477.426 -0.562348 -1.47226 0
M  V30 4979 C 478.654 -0.0452275 -2.06851 0
M  V30 4980 C 479.069 1.25078 -1.41424 0
M  V30 4981 O 478.426 1.75156 -0.512513 0
M  V30 4982 C 478.477 0.148674 -3.61194 0
M  V30 4983 O 478.198 -1.09602 -4.24169 0
M  V30 4984 C 479.699 0.702488 -4.37699 0
M  V30 4985 H 476.919 -0.0481775 -0.669268 0
M  V30 4986 H 479.463 -0.777223 -1.89155 0
M  V30 4987 H 477.618 0.830817 -3.78386 0
M  V30 4988 H 478.032 -0.896982 -5.16773 0
M  V30 4989 H 479.506 0.78743 -5.46355 0
M  V30 4990 H 479.983 1.71493 -4.04335 0
M  V30 4991 H 480.589 0.0558772 -4.25263 0
M  V30 4992 N 478.904 1.54736 -0.299062 0
M  V30 4993 C 479.837 2.1962 0.619851 0
M  V30 4994 C 480.815 1.16496 1.13434 0
M  V30 4995 O 481.999 1.4513 1.2029 0
M  V30 4996 C 479.126 2.8385 1.84788 0
M  V30 4997 C 478.172 4.00484 1.46679 0
M  V30 4998 S 479.005 5.32926 0.524389 0
M  V30 4999 C 480.161 6.00638 1.76026 0
M  V30 5000 H 480.394 2.97221 0.0686177 0
M  V30 5001 H 477.927 1.54176 -0.0832085 0
M  V30 5002 H 479.885 3.21483 2.55263 0
M  V30 5003 H 478.546 2.06099 2.37028 0
M  V30 5004 H 477.739 4.44201 2.38121 0
M  V30 5005 H 477.341 3.64398 0.842008 0
M  V30 5006 H 479.633 6.21327 2.70109 0
M  V30 5007 H 480.576 6.94805 1.36569 0
M  V30 5008 H 480.984 5.3026 1.93609 0
M  V30 5009 N 480.382 0.0267497 1.57577 0
M  V30 5010 C 481.329 -0.955894 2.10075 0
M  V30 5011 C 482.299 -1.32453 1.00226 0
M  V30 5012 O 483.484 -1.41826 1.27632 0
M  V30 5013 C 480.624 -2.2338 2.6305 0
M  V30 5014 C 479.737 -1.92183 3.86898 0
M  V30 5015 C 478.872 -3.14251 4.28275 0
M  V30 5016 C 477.911 -2.78862 5.44888 0
M  V30 5017 N 477.048 -3.93548 5.81433 0
M  V30 5018 H 481.888 -0.501303 2.93753 0
M  V30 5019 H 479.425 -0.235847 1.45197 0
M  V30 5020 H 481.383 -2.98124 2.91853 0
M  V30 5021 H 480.013 -2.6646 1.82205 0
M  V30 5022 H 479.065 -1.07692 3.64838 0
M  V30 5023 H 480.377 -1.62117 4.7172 0
M  V30 5024 H 479.531 -3.97317 4.58502 0
M  V30 5025 H 478.27 -3.47476 3.42215 0
M  V30 5026 H 477.275 -1.94208 5.14357 0
M  V30 5027 H 478.5 -2.46855 6.32645 0
M  V30 5028 H 476.446 -4.2662 4.98328 0
M  V30 5029 H 476.363 -3.67098 6.6089 0
M  V30 5030 H 477.631 -4.77325 6.16264 0
M  V30 5031 N 481.861 -1.55662 -0.24637 0
M  V30 5032 C 483.11 -1.7672 -0.972254 0
M  V30 5033 C 483.423 -0.59078 -1.86465 0
M  V30 5034 O 484.629 -0.684391 -2.62732 0
M  V30 5035 C 483.085 -3.12869 -1.7788 0
M  V30 5036 C 482.693 -4.38161 -0.933768 0
M  V30 5037 C 484.437 -3.43265 -2.49738 0
M  V30 5038 C 482.344 -5.6534 -1.73623 0
M  V30 5039 H 481.274 -0.658795 -0.366749 0
M  V30 5040 H 483.925 -1.82092 -0.226902 0
M  V30 5041 H 482.307 -3.01606 -2.56612 0
M  V30 5042 H 483.481 -4.60413 -0.188736 0
M  V30 5043 H 481.796 -4.15102 -0.328488 0
M  V30 5044 H 484.393 -4.35501 -3.10231 0
M  V30 5045 H 484.736 -2.64614 -3.2138 0
M  V30 5046 H 485.269 -3.55746 -1.78016 0
M  V30 5047 H 482.008 -6.46814 -1.06354 0
M  V30 5048 H 481.528 -5.47188 -2.45653 0
M  V30 5049 H 483.207 -6.04616 -2.30323 0
M  V30 5050 N 483.339 0.512053 -1.4905 0
M  V30 5051 C 484.286 1.6148 -1.64902 0
M  V30 5052 C 485.256 1.58687 -0.490673 0
M  V30 5053 O 486.441 1.76842 -0.71636 0
M  V30 5054 C 483.581 2.99676 -1.71139 0
M  V30 5055 C 482.694 3.12568 -2.98203 0
M  V30 5056 C 481.829 4.4143 -2.95487 0
M  V30 5057 C 480.868 4.47916 -4.17179 0
M  V30 5058 N 480.005 5.68191 -4.12437 0
M  V30 5059 H 484.845 1.47271 -2.59066 0
M  V30 5060 H 482.382 0.716713 -1.28459 0
M  V30 5061 H 484.34 3.79761 -1.72736 0
M  V30 5062 H 482.97 3.12614 -0.804508 0
M  V30 5063 H 482.022 2.25618 -3.06269 0
M  V30 5064 H 483.334 3.1322 -3.88194 0
M  V30 5065 H 482.488 5.29825 -2.95585 0
M  V30 5066 H 481.227 4.43326 -2.03256 0
M  V30 5067 H 480.232 3.57925 -4.17337 0
M  V30 5068 H 481.457 4.47744 -5.1059 0
M  V30 5069 H 479.403 5.7095 -3.23036 0
M  V30 5070 H 479.32 5.70413 -4.96151 0
M  V30 5071 H 480.588 6.58823 -4.16621 0
M  V30 5072 N 484.817 1.37938 0.762283 0
M  V30 5073 C 486.066 1.32989 1.51647 0
M  V30 5074 C 486.379 -0.0802922 1.95435 0
M  V30 5075 O 487.585 -0.252295 2.70325 0
M  V30 5076 C 486.041 2.33485 2.73885 0
M  V30 5077 C 485.649 3.80079 2.37157 0
M  V30 5078 C 487.393 2.37563 3.51801 0
M  V30 5079 C 485.3 4.72283 3.55954 0
M  V30 5080 H 484.23 0.494301 0.56937 0
M  V30 5081 H 486.881 1.63448 0.834083 0
M  V30 5082 H 485.263 1.96056 3.44061 0
M  V30 5083 H 486.437 4.26398 1.74704 0
M  V30 5084 H 484.752 3.79037 1.72395 0
M  V30 5085 H 487.349 3.0365 4.40114 0
M  V30 5086 H 487.692 1.39199 3.92338 0
M  V30 5087 H 488.225 2.73747 2.8863 0
M  V30 5088 H 484.964 5.7181 3.2049 0
M  V30 5089 H 484.484 4.30663 4.1748 0
M  V30 5090 H 486.163 4.89876 4.22647 0
M  V30 5091 N 486.295 -0.989507 1.22664 0
M  V30 5092 C 487.544 -1.72375 1.04737 0
M  V30 5093 C 487.857 -1.91096 -0.417316 0
M  V30 5094 O 489.063 -2.6188 -0.716334 0
M  V30 5095 C 487.519 -3.10161 1.82561 0
M  V30 5096 C 487.127 -2.99358 3.333 0
M  V30 5097 C 488.871 -3.87607 1.73093 0
M  V30 5098 C 486.778 -4.32319 4.03552 0
M  V30 5099 H 485.708 -0.646326 0.388302 0
M  V30 5100 H 488.359 -1.10437 1.46546 0
M  V30 5101 H 486.741 -3.728 1.33552 0
M  V30 5102 H 487.915 -2.45863 3.89728 0
M  V30 5103 H 486.23 -2.35392 3.43481 0
M  V30 5104 H 488.827 -4.86025 2.22899 0
M  V30 5105 H 489.17 -4.10509 0.691976 0
M  V30 5106 H 489.703 -3.31652 2.19663 0
M  V30 5107 H 486.442 -4.14616 5.07714 0
M  V30 5108 H 485.962 -4.85714 3.51911 0
M  V30 5109 H 487.641 -5.01051 4.09337 0
M  V30 5110 N 487.773 -1.03688 -1.18687 0
M  V30 5111 C 488.736 -0.629115 -2.20397 0
M  V30 5112 C 489.736 0.311495 -1.57754 0
M  V30 5113 O 490.926 0.0974107 -1.73927 0
M  V30 5114 C 488.058 0.0782231 -3.4081 0
M  V30 5115 H 489.251 -1.52915 -2.57987 0
M  V30 5116 H 486.804 -0.828988 -1.32505 0
M  V30 5117 H 487.539 0.992233 -3.08748 0
M  V30 5118 H 487.324 -0.597776 -3.87517 0
M  V30 5119 H 488.814 0.350156 -4.16129 0
M  V30 5120 N 489.251 1.34841 -0.815825 0
M  V30 5121 C 490.662 1.80937 -0.46029 0
M  V30 5122 C 491.013 1.67685 1.01863 0
M  V30 5123 O 490.138 1.21277 1.79223 0
M  V30 5124 C 490.733 3.28509 -0.828708 0
M  V30 5125 C 489.292 3.72712 -0.525644 0
M  V30 5126 C 488.439 2.56676 -1.04941 0
M  V30 5127 H 491.39 1.22688 -1.00664 0
M  V30 5128 H 491.411 3.80279 -0.129757 0
M  V30 5129 H 490.923 3.38122 -1.90513 0
M  V30 5130 H 489.024 3.68642 0.541666 0
M  V30 5131 H 489.137 4.67119 -1.06474 0
M  V30 5132 H 487.501 2.50302 -0.471286 0
M  V30 5133 H 488.284 2.69063 -2.13214 0
M  V30 5134 N 490.729 0.570148 1.46925 0
M  V30 5135 C 492.14 0.1402 1.86173 0
M  V30 5136 C 492.491 -1.29347 1.47526 0
M  V30 5137 O 491.616 -1.97508 0.884292 0
M  V30 5138 C 492.211 0.247661 3.37894 0
M  V30 5139 C 490.77 -0.127332 3.76185 0
M  V30 5140 C 489.917 0.589349 2.70965 0
M  V30 5141 H 492.868 0.779117 1.38259 0
M  V30 5142 H 492.889 -0.530341 3.76786 0
M  V30 5143 H 492.401 1.29121 3.65991 0
M  V30 5144 H 490.502 -1.17149 3.53704 0
M  V30 5145 H 490.615 0.240238 4.78497 0
M  V30 5146 H 488.979 0.0309824 2.54681 0
M  V30 5147 H 489.762 1.6343 3.01903 0
M  V30 5148 N 492.207 -1.54576 0.307264 0
M  V30 5149 C 493.117 -2.27435 -0.57536 0
M  V30 5150 C 494.133 -1.31183 -1.14311 0
M  V30 5151 O 495.309 -1.64175 -1.16656 0
M  V30 5152 C 492.374 -3.00566 -1.72803 0
M  V30 5153 C 491.435 -4.12369 -1.19373 0
M  V30 5154 C 490.668 -4.82003 -2.29147 0
M  V30 5155 O 490.891 -4.51038 -3.49171 0
M  V30 5156 O 489.825 -5.69271 -1.95485 0
M  V30 5157 H 493.651 -3.03696 0.0158558 0
M  V30 5158 H 491.236 -1.49219 0.0735064 0
M  V30 5159 H 493.118 -3.46416 -2.39946 0
M  V30 5160 H 491.793 -2.27195 -2.30574 0
M  V30 5161 H 490.7 -3.70905 -0.487851 0
M  V30 5162 H 492.033 -4.87736 -0.661376 0
M  V30 5163 N 493.685 -0.035106 -1.57561 0
M  V30 5164 C 495.101 0.321334 -1.56332 0
M  V30 5165 C 495.301 1.72509 -1.04129 0
M  V30 5166 O 494.357 2.4287 -0.690694 0
M  V30 5167 C 495.67 0.164469 -3.0025 0
M  V30 5168 C 497.218 0.236786 -3.12103 0
M  V30 5169 C 497.693 0.10864 -4.57871 0
M  V30 5170 N 499.184 0.165433 -4.62904 0
M  V30 5171 C 499.919 0.0901506 -5.73329 0
M  V30 5172 N 499.415 -0.0365606 -6.9279 0
M  V30 5173 N 501.208 0.144572 -5.61914 0
M  V30 5174 H 493.359 -0.952976 -1.89821 0
M  V30 5175 H 495.622 -0.368537 -0.873432 0
M  V30 5176 H 495.328 -0.802746 -3.42416 0
M  V30 5177 H 495.202 0.932194 -3.655 0
M  V30 5178 H 497.589 1.19446 -2.69845 0
M  V30 5179 H 497.67 -0.561419 -2.49563 0
M  V30 5180 H 497.314 -0.845644 -5.00811 0
M  V30 5181 H 497.244 0.925786 -5.18398 0
M  V30 5182 H 499.735 0.263269 -3.76982 0
M  V30 5183 H 500.048 -0.0871487 -7.72751 0
M  V30 5184 H 498.393 -0.0714256 -6.94963 0
M  V30 5185 H 501.584 0.242006 -4.67474 0
M  V30 5186 H 501.757 0.0824413 -6.47948 0
M  V30 5187 N 495.163 1.55791 0.238111 0
M  V30 5188 C 496.11 1.9105 1.29493 0
M  V30 5189 C 497.08 0.765733 1.47397 0
M  V30 5190 O 498.265 1.02017 1.61236 0
M  V30 5191 C 495.405 2.21826 2.64362 0
M  V30 5192 C 494.518 3.49153 2.54394 0
M  V30 5193 C 493.653 3.69455 3.81676 0
M  V30 5194 C 492.692 4.90353 3.66361 0
M  V30 5195 N 491.829 5.07131 4.85554 0
M  V30 5196 H 496.669 2.81172 0.987233 0
M  V30 5197 H 494.206 1.39179 0.476203 0
M  V30 5198 H 496.164 2.37675 3.4288 0
M  V30 5199 H 494.794 1.34897 2.93262 0
M  V30 5200 H 493.846 3.41587 1.67399 0
M  V30 5201 H 495.158 4.37818 2.38991 0
M  V30 5202 H 494.312 3.85311 4.68636 0
M  V30 5203 H 493.051 2.7904 3.99985 0
M  V30 5204 H 492.056 4.74464 2.77784 0
M  V30 5205 H 493.281 5.82237 3.49538 0
M  V30 5206 H 491.227 4.19654 5.04209 0
M  V30 5207 H 491.144 5.89899 4.72816 0
M  V30 5208 H 492.412 5.27407 5.73988 0
M  V30 5209 N 496.642 -0.504142 1.49319 0
M  V30 5210 C 497.872 -1.28071 1.62116 0
M  V30 5211 C 498.28 -1.86955 0.290566 0
M  V30 5212 O 497.623 -1.68415 -0.733616 0
M  V30 5213 C 497.685 -2.4521 2.62893 0
M  V30 5214 C 497.349 -2.07218 4.0732 0
M  V30 5215 C 498.346 -1.61375 4.94221 0
M  V30 5216 C 496.031 -2.16949 4.53033 0
M  V30 5217 C 498.025 -1.25763 6.2487 0
M  V30 5218 C 495.712 -1.80949 5.83696 0
M  V30 5219 C 496.71 -1.3543 6.69438 0
M  V30 5220 O 496.398 -0.99915 7.97667 0
M  V30 5221 H 496.13 -0.394763 0.54876 0
M  V30 5222 H 498.684 -0.612118 1.96067 0
M  V30 5223 H 496.914 -3.15134 2.24115 0
M  V30 5224 H 498.603 -3.0724 2.65252 0
M  V30 5225 H 499.369 -1.53306 4.60133 0
M  V30 5226 H 495.248 -2.5133 3.86463 0
M  V30 5227 H 498.792 -0.901631 6.91749 0
M  V30 5228 H 494.689 -1.88667 6.17313 0
M  V30 5229 H 495.457 -1.13089 8.1065 0
M  V30 5230 N 498.12 -1.38341 -0.754957 0
M  V30 5231 C 499.345 -1.37882 -1.5493 0
M  V30 5232 C 499.77 0.0296385 -1.88077 0
M  V30 5233 O 499.128 1.01133 -1.50472 0
M  V30 5234 C 499.176 -2.23996 -2.82592 0
M  V30 5235 O 498.28 -1.65612 -3.77686 0
M  V30 5236 H 497.621 -0.470384 -0.468652 0
M  V30 5237 H 500.151 -1.82084 -0.933082 0
M  V30 5238 H 500.161 -2.37806 -3.3153 0
M  V30 5239 H 498.836 -3.26365 -2.57796 0
M  V30 5240 H 497.413 -1.60936 -3.36384 0
M  V30 5241 N 499.598 0.982988 -1.23187 0
M  V30 5242 C 500.844 1.72648 -1.06398 0
M  V30 5243 C 501.177 1.90066 0.398561 0
M  V30 5244 O 500.452 1.45105 1.29518 0
M  V30 5245 C 500.735 3.12627 -1.78707 0
M  V30 5246 C 500.588 3.02795 -3.32618 0
M  V30 5247 C 501.907 4.11997 -1.54747 0
M  V30 5248 H 499.026 0.626649 -0.387918 0
M  V30 5249 H 501.668 1.14455 -1.51658 0
M  V30 5250 H 499.818 3.62308 -1.40234 0
M  V30 5251 H 501.49 2.60659 -3.80598 0
M  V30 5252 H 499.733 2.39362 -3.61785 0
M  V30 5253 H 500.404 4.01893 -3.78399 0
M  V30 5254 H 502.88 3.71114 -1.88186 0
M  V30 5255 H 501.756 5.08037 -2.07821 0
M  V30 5256 H 502.017 4.39462 -0.482249 0
M  V30 5257 N 501.076 1.04316 1.18135 0
M  V30 5258 C 502.322 0.758899 1.88712 0
M  V30 5259 C 502.677 -0.705863 1.78984 0
M  V30 5260 O 501.97 -1.50874 1.18101 0
M  V30 5261 C 502.164 1.16271 3.37958 0
M  V30 5262 C 501.993 2.66518 3.62213 0
M  V30 5263 C 500.763 3.33702 3.79436 0
M  V30 5264 C 502.961 3.64739 3.62588 0
M  V30 5265 N 500.943 4.72904 3.91452 0
M  V30 5266 C 502.314 4.89627 3.80348 0
M  V30 5267 C 504.369 3.58333 3.4569 0
M  V30 5268 C 503.072 6.08879 3.8296 0
M  V30 5269 C 505.098 4.77016 3.49586 0
M  V30 5270 C 504.46 6.00724 3.67845 0
M  V30 5271 H 500.559 0.329795 0.709055 0
M  V30 5272 H 503.143 1.33334 1.4188 0
M  V30 5273 H 501.314 0.616319 3.83479 0
M  V30 5274 H 503.046 0.829205 3.96114 0
M  V30 5275 H 499.801 2.84105 3.78921 0
M  V30 5276 H 500.225 5.45258 4.01277 0
M  V30 5277 H 504.867 2.63663 3.30517 0
M  V30 5278 H 502.585 7.03903 3.96921 0
M  V30 5279 H 506.171 4.73703 3.37782 0
M  V30 5280 H 505.051 6.91022 3.70753 0
M  V30 5281 N 502.554 -1.34406 0.822964 0
M  V30 5282 C 503.803 -1.97542 0.407458 0
M  V30 5283 C 504.116 -1.65973 -1.035 0
M  V30 5284 O 505.322 -2.22598 -1.55442 0
M  V30 5285 C 503.778 -3.53463 0.677623 0
M  V30 5286 C 503.386 -3.93925 2.1337 0
M  V30 5287 C 505.13 -4.23229 0.328284 0
M  V30 5288 C 503.037 -5.42759 2.34876 0
M  V30 5289 H 501.967 -0.739207 0.148623 0
M  V30 5290 H 504.618 -1.53248 1.00932 0
M  V30 5291 H 503 -3.96 0.00558965 0
M  V30 5292 H 504.174 -3.62494 2.8449 0
M  V30 5293 H 502.489 -3.37097 2.44448 0
M  V30 5294 H 505.086 -5.32659 0.466794 0
M  V30 5295 H 505.429 -4.09899 -0.727224 0
M  V30 5296 H 505.962 -3.86169 0.954896 0
M  V30 5297 H 502.701 -5.61075 3.38932 0
M  V30 5298 H 502.221 -5.75704 1.68299 0
M  V30 5299 H 503.9 -6.0944 2.17236 0
M  V30 5300 N 504.032 -0.577932 -1.46621 0
M  V30 5301 C 505.28 -0.061566 -2.02006 0
M  V30 5302 C 505.601 1.30117 -1.4524 0
M  V30 5303 O 504.871 1.85313 -0.63529 0
M  V30 5304 H 503.451 -0.0197692 -0.746738 0
M  V30 5305 H 506.113 -0.752631 -1.79782 0
M  V30 5306 H 505.209 0.0110238 -3.12098 0
M  V30 5307 N 505.51 1.54411 -0.315457 0
M  V30 5308 C 506.758 2.00023 0.288971 0
M  V30 5309 C 507.079 1.20529 1.5329 0
M  V30 5310 O 506.349 0.304986 1.93511 0
M  V30 5311 H 504.929 0.738891 0.109766 0
M  V30 5312 H 507.591 1.90094 -0.430129 0
M  V30 5313 H 506.687 3.07198 0.550999 0
M  V30 5314 N 506.988 0.0434614 1.5754 0
M  V30 5315 C 508.213 -0.645358 1.97104 0
M  V30 5316 C 508.638 -1.64037 0.920521 0
M  V30 5317 O 507.996 -1.80922 -0.11708 0
M  V30 5318 C 508.044 -1.31547 3.35749 0
M  V30 5319 O 507.148 -2.43103 3.33129 0
M  V30 5320 H 506.489 -0.168403 0.64229 0
M  V30 5321 H 509.019 0.109573 2.04306 0
M  V30 5322 H 509.029 -1.66895 3.72304 0
M  V30 5323 H 507.704 -0.586205 4.11748 0
M  V30 5324 H 506.281 -2.0976 3.0831 0
M  V30 5325 N 508.466 -1.55915 -0.229846 0
M  V30 5326 C 509.715 -1.77742 -0.953455 0
M  V30 5327 C 510.028 -0.610524 -1.85828 0
M  V30 5328 O 511.234 -0.712219 -2.61992 0
M  V30 5329 C 509.69 -3.14738 -1.74551 0
M  V30 5330 C 509.298 -4.39126 -0.887242 0
M  V30 5331 C 511.042 -3.45895 -2.46084 0
M  V30 5332 C 508.949 -5.67149 -1.67617 0
M  V30 5333 H 507.879 -0.662648 -0.359741 0
M  V30 5334 H 510.53 -1.82322 -0.207576 0
M  V30 5335 H 508.912 -3.04311 -2.53399 0
M  V30 5336 H 510.086 -4.60588 -0.139892 0
M  V30 5337 H 508.401 -4.15427 -0.284443 0
M  V30 5338 H 510.998 -4.38767 -3.05594 0
M  V30 5339 H 511.341 -2.68007 -3.18556 0
M  V30 5340 H 511.874 -3.57614 -1.74233 0
M  V30 5341 H 508.613 -6.47906 -0.994881 0
M  V30 5342 H 508.133 -5.49763 -2.39836 0
M  V30 5343 H 509.812 -6.07025 -2.23898 0
M  V30 5344 N 509.944 0.496216 -1.49584 0
M  V30 5345 C 510.874 1.60576 -1.69521 0
M  V30 5346 C 511.855 1.61169 -0.543933 0
M  V30 5347 O 513.04 1.77834 -0.78031 0
M  V30 5348 C 510.17 2.99038 -1.76616 0
M  V30 5349 C 509.124 3.13312 -2.91581 0
M  V30 5350 C 508.45 4.53172 -2.83794 0
M  V30 5351 C 509.75 2.92886 -4.32452 0
M  V30 5352 H 511.444 1.44146 -2.62416 0
M  V30 5353 H 508.99 0.692024 -1.26282 0
M  V30 5354 H 510.943 3.76564 -1.8915 0
M  V30 5355 H 509.667 3.16568 -0.80324 0
M  V30 5356 H 508.326 2.38213 -2.78658 0
M  V30 5357 H 507.974 4.67585 -1.854 0
M  V30 5358 H 507.674 4.63662 -3.60958 0
M  V30 5359 H 509.198 5.32752 -2.98342 0
M  V30 5360 H 510.612 3.60178 -4.46032 0
M  V30 5361 H 509.009 3.14844 -5.10875 0
M  V30 5362 H 510.079 1.88966 -4.46565 0
M  V30 5363 N 511.423 1.38739 0.74761 0
M  V30 5364 C 512.386 1.36241 1.84312 0
M  V30 5365 C 513.386 0.261811 1.58654 0
M  V30 5366 O 514.576 0.519031 1.66288 0
M  V30 5367 C 511.708 1.12253 3.21888 0
M  V30 5368 H 512.901 2.33712 1.87933 0
M  V30 5369 H 510.454 1.2412 0.949946 0
M  V30 5370 H 511.189 0.154133 3.23934 0
M  V30 5371 H 510.974 1.91943 3.41907 0
M  V30 5372 H 512.464 1.13215 4.0196 0
M  V30 5373 N 512.901 -0.976442 1.23707 0
M  V30 5374 C 514.126 -1.75875 1.09922 0
M  V30 5375 C 514.551 -1.84911 -0.34489 0
M  V30 5376 O 513.909 -1.31363 -1.24954 0
M  V30 5377 C 513.957 -3.16179 1.73388 0
M  V30 5378 O 513.061 -4.00124 0.99871 0
M  V30 5379 H 512.402 -0.540954 0.385052 0
M  V30 5380 H 514.932 -1.22546 1.6384 0
M  V30 5381 H 514.942 -3.66741 1.78788 0
M  V30 5382 H 513.617 -3.08917 2.78466 0
M  V30 5383 H 512.194 -3.58624 1.02193 0
M  V30 5384 N 514.379 -1.04941 -1.1758 0
M  V30 5385 C 515.309 -0.669172 -2.23706 0
M  V30 5386 C 516.29 0.331835 -1.66832 0
M  V30 5387 O 517.475 0.209988 -1.93061 0
M  V30 5388 C 514.605 -0.0404889 -3.47276 0
M  V30 5389 C 513.559 -0.965983 -4.16957 0
M  V30 5390 C 512.885 -0.201312 -5.34321 0
M  V30 5391 C 514.185 -2.28902 -4.69469 0
M  V30 5392 H 515.879 -1.55639 -2.55767 0
M  V30 5393 H 513.425 -0.749793 -1.22939 0
M  V30 5394 H 515.378 0.237298 -4.20731 0
M  V30 5395 H 514.102 0.881658 -3.14475 0
M  V30 5396 H 512.761 -1.22829 -3.45411 0
M  V30 5397 H 512.409 0.723519 -4.97769 0
M  V30 5398 H 512.109 -0.817968 -5.81879 0
M  V30 5399 H 513.633 0.0692499 -6.10561 0
M  V30 5400 H 515.047 -2.07132 -5.34574 0
M  V30 5401 H 513.444 -2.85942 -5.27596 0
M  V30 5402 H 514.514 -2.92937 -3.86414 0
M  V30 5403 N 515.857 1.33968 -0.830081 0
M  V30 5404 C 517.082 2.02813 -0.433796 0
M  V30 5405 C 517.507 1.62076 0.954614 0
M  V30 5406 O 516.865 0.808955 1.62252 0
M  V30 5407 C 516.913 3.56348 -0.552115 0
M  V30 5408 O 516.017 4.10202 0.425191 0
M  V30 5409 H 515.358 0.639817 -0.177567 0
M  V30 5410 H 517.888 1.7106 -1.12248 0
M  V30 5411 H 517.898 4.05722 -0.430513 0
M  V30 5412 H 516.573 3.85344 -1.56471 0
M  V30 5413 H 515.15 3.71979 0.261878 0
M  V30 5414 N 517.335 0.585699 1.46312 0
M  V30 5415 C 518.563 0.0781299 2.06752 0
M  V30 5416 C 518.978 -1.22812 1.43396 0
M  V30 5417 O 518.335 -1.74318 0.540314 0
M  V30 5418 C 518.386 -0.0911927 3.61385 0
M  V30 5419 O 518.107 1.16336 4.22371 0
M  V30 5420 C 519.608 -0.632765 4.38761 0
M  V30 5421 H 516.828 0.0588188 0.668417 0
M  V30 5422 H 519.372 0.807218 1.87894 0
M  V30 5423 H 517.527 -0.770514 3.7966 0
M  V30 5424 H 517.941 0.979082 5.15281 0
M  V30 5425 H 519.415 -0.70041 5.47538 0
M  V30 5426 H 519.892 -1.65039 4.07012 0
M  V30 5427 H 520.498 0.0117856 4.25298 0
M  V30 5428 N 518.813 -1.54241 0.323641 0
M  V30 5429 C 520.06 -2.0057 -0.27891 0
M  V30 5430 C 520.388 -1.21181 -1.52136 0
M  V30 5431 O 519.643 -0.282043 -1.93657 0
M  V30 5432 C 519.942 -3.5129 -0.658031 0
M  V30 5433 C 519.608 -4.48281 0.485252 0
M  V30 5434 C 518.27 -4.74519 0.799055 0
M  V30 5435 C 520.622 -5.05909 1.25322 0
M  V30 5436 C 517.95 -5.55643 1.88354 0
M  V30 5437 C 520.302 -5.88215 2.32779 0
M  V30 5438 C 518.966 -6.12755 2.64741 0
M  V30 5439 H 518.236 -0.733938 -0.10206 0
M  V30 5440 H 520.883 -1.862 0.447435 0
M  V30 5441 H 519.188 -3.63388 -1.4648 0
M  V30 5442 H 520.885 -3.84578 -1.1358 0
M  V30 5443 H 517.475 -4.27979 0.230593 0
M  V30 5444 H 521.659 -4.8562 1.02404 0
M  V30 5445 H 516.915 -5.72888 2.13564 0
M  V30 5446 H 521.089 -6.31888 2.92729 0
M  V30 5447 H 518.716 -6.75404 3.48904 0
M  V30 5448 N 520.291 -0.0518155 -1.57515 0
M  V30 5449 C 521.223 0.951542 -2.08515 0
M  V30 5450 C 522.236 1.27436 -1.01311 0
M  V30 5451 O 523.425 1.23504 -1.28876 0
M  V30 5452 C 520.525 2.27291 -2.5138 0
M  V30 5453 C 519.698 2.13191 -3.81927 0
M  V30 5454 C 518.757 3.28458 -4.11098 0
M  V30 5455 O 517.783 3.04334 -4.81009 0
M  V30 5456 N 518.985 4.52954 -3.63061 0
M  V30 5457 H 521.75 0.516242 -2.9522 0
M  V30 5458 H 519.311 0.13441 -1.61341 0
M  V30 5459 H 521.303 3.03272 -2.67971 0
M  V30 5460 H 519.873 2.62386 -1.69919 0
M  V30 5461 H 519.093 1.21798 -3.74912 0
M  V30 5462 H 520.381 2.00999 -4.67415 0
M  V30 5463 H 519.779 4.75444 -3.06545 0
M  V30 5464 H 518.336 5.26026 -3.84889 0
M  V30 5465 N 521.769 1.56035 0.221574 0
M  V30 5466 C 522.701 1.889 1.29805 0
M  V30 5467 C 523.714 0.777269 1.43047 0
M  V30 5468 O 524.903 1.05557 1.43945 0
M  V30 5469 C 522.003 2.0825 2.67367 0
M  V30 5470 C 521.176 3.39267 2.76073 0
M  V30 5471 C 520.235 3.48049 3.94649 0
M  V30 5472 O 519.261 4.2108 3.82988 0
M  V30 5473 N 520.463 2.79191 5.08953 0
M  V30 5474 H 523.228 2.81831 1.01938 0
M  V30 5475 H 520.789 1.5658 0.411612 0
M  V30 5476 H 522.781 2.11441 3.45072 0
M  V30 5477 H 521.351 1.21944 2.87834 0
M  V30 5478 H 520.571 3.48175 1.84846 0
M  V30 5479 H 521.859 4.25575 2.7886 0
M  V30 5480 H 521.257 2.19635 5.21322 0
M  V30 5481 H 519.814 2.88043 5.84701 0
M  V30 5482 N 523.247 -0.488276 1.49845 0
M  V30 5483 C 524.18 -1.60651 1.62069 0
M  V30 5484 C 525.158 -1.5568 0.469308 0
M  V30 5485 O 526.342 -1.75553 0.686551 0
M  V30 5486 C 523.469 -2.99197 1.58741 0
M  V30 5487 C 522.515 -3.22385 2.79232 0
M  V30 5488 S 523.348 -3.04133 4.40753 0
M  V30 5489 C 524.504 -4.45052 4.4009 0
M  V30 5490 H 524.737 -1.50039 2.56662 0
M  V30 5491 H 522.27 -0.674371 1.38894 0
M  V30 5492 H 524.228 -3.79081 1.57506 0
M  V30 5493 H 522.889 -3.07213 0.654136 0
M  V30 5494 H 522.082 -4.23557 2.73159 0
M  V30 5495 H 521.684 -2.50245 2.77945 0
M  V30 5496 H 523.976 -5.37375 4.12594 0
M  V30 5497 H 524.919 -4.56172 5.41583 0
M  V30 5498 H 525.327 -4.26327 3.70008 0
M  V30 5499 N 524.725 -1.39134 -0.740242 0
M  V30 5500 C 525.971 -1.37278 -1.50088 0
M  V30 5501 C 526.326 0.0329967 -1.92372 0
M  V30 5502 O 525.619 0.998447 -1.63529 0
M  V30 5503 C 525.813 -2.27457 -2.75678 0
M  V30 5504 C 525.642 -3.76662 -2.45674 0
M  V30 5505 C 524.412 -4.45617 -2.38229 0
M  V30 5506 C 526.61 -4.6877 -2.11563 0
M  V30 5507 N 524.592 -5.80187 -2.00641 0
M  V30 5508 C 525.963 -5.91951 -1.84376 0
M  V30 5509 C 528.018 -4.56843 -1.97987 0
M  V30 5510 C 526.721 -7.04538 -1.4498 0
M  V30 5511 C 528.747 -5.69347 -1.59994 0
M  V30 5512 C 528.109 -6.91597 -1.33687 0
M  V30 5513 H 524.208 -0.557611 -0.548265 0
M  V30 5514 H 526.792 -1.74638 -0.860784 0
M  V30 5515 H 524.963 -1.92263 -3.37475 0
M  V30 5516 H 526.695 -2.16631 -3.41838 0
M  V30 5517 H 523.45 -3.98993 -2.5515 0
M  V30 5518 H 523.874 -6.51387 -1.84454 0
M  V30 5519 H 528.516 -3.62868 -2.16995 0
M  V30 5520 H 526.234 -7.98419 -1.24712 0
M  V30 5521 H 529.82 -5.62104 -1.50102 0
M  V30 5522 H 528.7 -7.77176 -1.04728 0
M  V30 5523 N 526.204 0.969867 -1.24223 0
M  V30 5524 C 527.453 1.70687 -1.07466 0
M  V30 5525 C 527.766 1.91736 0.386861 0
M  V30 5526 O 528.972 2.62986 0.674581 0
M  V30 5527 C 527.428 3.07217 -1.87472 0
M  V30 5528 C 527.036 2.94018 -3.3802 0
M  V30 5529 C 528.78 3.84804 -1.79237 0
M  V30 5530 C 526.687 4.25844 -4.10379 0
M  V30 5531 H 525.617 0.640067 -0.398536 0
M  V30 5532 H 528.268 1.08092 -1.48285 0
M  V30 5533 H 526.65 3.70628 -1.39466 0
M  V30 5534 H 527.824 2.39632 -3.9359 0
M  V30 5535 H 526.139 2.29898 -3.47183 0
M  V30 5536 H 528.736 4.82417 -2.30603 0
M  V30 5537 H 529.079 4.09356 -0.757197 0
M  V30 5538 H 529.612 3.28115 -2.24912 0
M  V30 5539 H 526.351 4.06486 -5.14246 0
M  V30 5540 H 525.871 4.80054 -3.59594 0
M  V30 5541 H 527.55 4.94475 -4.17257 0
M  V30 5542 N 527.682 1.05563 1.17022 0
M  V30 5543 C 528.907 0.788437 1.91829 0
M  V30 5544 C 529.332 -0.650356 1.76499 0
M  V30 5545 O 528.69 -1.45229 1.08527 0
M  V30 5546 C 528.738 1.1786 3.40795 0
M  V30 5547 O 527.842 0.312965 4.11211 0
M  V30 5548 H 527.183 0.288794 0.597908 0
M  V30 5549 H 529.713 1.40948 1.48307 0
M  V30 5550 H 529.723 1.14697 3.91546 0
M  V30 5551 H 528.398 2.22666 3.51273 0
M  V30 5552 H 526.975 0.405515 3.70689 0
M  V30 5553 N 529.16 -1.33526 0.837174 0
M  V30 5554 C 530.107 -2.29248 0.267169 0
M  V30 5555 C 531.077 -1.54252 -0.616071 0
M  V30 5556 O 532.262 -1.82559 -0.554699 0
M  V30 5557 C 529.402 -3.40638 -0.553152 0
M  V30 5558 C 528.515 -4.30548 0.353921 0
M  V30 5559 C 527.65 -5.29051 -0.477339 0
M  V30 5560 C 526.689 -6.106 0.42823 0
M  V30 5561 N 525.826 -7.01152 -0.364801 0
M  V30 5562 H 530.666 -2.77398 1.08877 0
M  V30 5563 H 528.203 -1.36496 0.54838 0
M  V30 5564 H 530.161 -4.03921 -1.04422 0
M  V30 5565 H 528.791 -2.93685 -1.33973 0
M  V30 5566 H 527.843 -3.68001 0.963289 0
M  V30 5567 H 529.155 -4.87631 1.04964 0
M  V30 5568 H 528.309 -5.97853 -1.0323 0
M  V30 5569 H 527.048 -4.72541 -1.2065 0
M  V30 5570 H 526.053 -5.40718 0.995219 0
M  V30 5571 H 527.278 -6.69193 1.15573 0
M  V30 5572 H 525.224 -6.47092 -1.07738 0
M  V30 5573 H 525.141 -7.5551 0.272238 0
M  V30 5574 H 526.409 -7.74263 -0.902054 0
M  V30 5575 N 530.638 -0.59345 -1.46 0
M  V30 5576 C 531.57 0.171569 -2.28557 0
M  V30 5577 C 532.583 0.845273 -1.39137 0
M  V30 5578 O 533.772 0.713033 -1.6364 0
M  V30 5579 C 530.872 1.26311 -3.14482 0
M  V30 5580 C 530.045 0.679258 -4.32094 0
M  V30 5581 C 529.104 1.65987 -4.99334 0
M  V30 5582 O 528.13 1.19171 -5.56585 0
M  V30 5583 N 529.332 2.99414 -4.97324 0
M  V30 5584 H 532.097 -0.536771 -2.94854 0
M  V30 5585 H 529.658 -0.431954 -1.56031 0
M  V30 5586 H 531.65 1.91863 -3.5633 0
M  V30 5587 H 530.22 1.87416 -2.50188 0
M  V30 5588 H 529.44 -0.153992 -3.93899 0
M  V30 5589 H 530.728 0.26916 -5.08088 0
M  V30 5590 H 530.126 3.40064 -4.52076 0
M  V30 5591 H 528.683 3.60426 -5.4308 0
M  V30 5592 N 532.116 1.54067 -0.331816 0
M  V30 5593 C 533.026 2.28322 0.539104 0
M  V30 5594 C 534.042 1.32985 1.1221 0
M  V30 5595 O 535.218 1.6601 1.1403 0
M  V30 5596 C 532.283 3.03277 1.68 0
M  V30 5597 C 531.344 4.14216 1.12798 0
M  V30 5598 C 530.577 4.85588 2.2145 0
M  V30 5599 O 530.8 4.56536 3.41952 0
M  V30 5600 O 529.734 5.72309 1.86404 0
M  V30 5601 H 533.56 3.03632 -0.0641692 0
M  V30 5602 H 531.145 1.49083 -0.0972365 0
M  V30 5603 H 533.027 3.50189 2.34405 0
M  V30 5604 H 531.702 2.30834 2.2693 0
M  V30 5605 H 530.609 3.71635 0.428782 0
M  V30 5606 H 531.942 4.88727 0.583698 0
M  V30 5607 N 533.594 0.0601682 1.57485 0
M  V30 5608 C 534.824 -0.620037 1.97076 0
M  V30 5609 C 535.232 -1.64381 0.936784 0
M  V30 5610 O 534.575 -1.83497 -0.0863377 0
M  V30 5611 C 534.637 -1.35617 3.32939 0
M  V30 5612 C 534.301 -0.487208 4.54396 0
M  V30 5613 C 535.298 0.250428 5.19297 0
M  V30 5614 C 532.983 -0.415494 5.00579 0
M  V30 5615 C 534.977 1.04812 6.28723 0
M  V30 5616 C 532.664 0.385879 6.0988 0
M  V30 5617 C 533.662 1.11637 6.73815 0
M  V30 5618 O 533.35 1.90454 7.81014 0
M  V30 5619 H 533.082 -0.173664 0.653312 0
M  V30 5620 H 535.636 0.1256 2.05016 0
M  V30 5621 H 533.866 -2.14763 3.2158 0
M  V30 5622 H 535.555 -1.92749 3.57215 0
M  V30 5623 H 536.321 0.204546 4.84568 0
M  V30 5624 H 532.2 -0.973679 4.506 0
M  V30 5625 H 535.744 1.6188 6.78558 0
M  V30 5626 H 531.641 0.433366 6.44044 0
M  V30 5627 H 532.409 1.82762 7.97835 0
M  V30 5628 N 535.072 -1.5615 -0.213296 0
M  V30 5629 C 536.349 -1.70349 -0.961281 0
M  V30 5630 C 536.729 -0.609791 -2.02101 0
M  V30 5631 O 536.077 0.381987 -2.25285 0
M  V30 5632 C 536.287 -3.11982 -1.56424 0
M  V30 5633 C 537.635 -3.71649 -2.05334 0
M  V30 5634 O 538.659 -3.14995 -1.66302 0
M  V30 5635 O 537.518 -4.71038 -2.77102 0
M  V30 5636 H 534.612 -0.694121 -0.449582 0
M  V30 5637 H 537.158 -1.68464 -0.204426 0
M  V30 5638 H 535.93 -3.83046 -0.799457 0
M  V30 5639 H 535.553 -3.18019 -2.38641 0
M  V30 5640 N 536.55 0.480323 -1.50102 0
M  V30 5641 C 537.46 1.60547 -1.71061 0
M  V30 5642 C 538.476 1.63564 -0.593529 0
M  V30 5643 O 539.652 1.81604 -0.870751 0
M  V30 5644 C 536.717 2.96814 -1.79171 0
M  V30 5645 C 535.778 3.04259 -3.02861 0
M  V30 5646 C 535.011 4.34027 -3.10574 0
M  V30 5647 O 535.234 5.24009 -2.25323 0
M  V30 5648 O 534.168 4.46873 -4.03223 0
M  V30 5649 H 537.994 1.45788 -2.6642 0
M  V30 5650 H 535.579 0.658838 -1.34088 0
M  V30 5651 H 537.461 3.77765 -1.86738 0
M  V30 5652 H 536.136 3.11791 -0.869947 0
M  V30 5653 H 535.043 2.22419 -3.008 0
M  V30 5654 H 536.376 2.94216 -3.94586 0
M  V30 5655 N 538.028 1.39524 0.732853 0
M  V30 5656 C 539.253 1.40329 1.52717 0
M  V30 5657 C 539.678 0.000286574 1.881 0
M  V30 5658 O 539.036 -0.987262 1.52062 0
M  V30 5659 C 539.084 2.28464 2.78992 0
M  V30 5660 O 538.188 1.716 3.75003 0
M  V30 5661 H 537.529 0.47778 0.461109 0
M  V30 5662 H 540.059 1.83546 0.903996 0
M  V30 5663 H 540.069 2.43051 3.27705 0
M  V30 5664 H 538.744 3.30425 2.52572 0
M  V30 5665 H 537.321 1.66267 3.33781 0
M  V30 5666 N 539.506 -0.963266 1.24736 0
M  V30 5667 C 540.754 -1.70343 1.08755 0
M  V30 5668 C 541.075 -1.91387 -0.373619 0
M  V30 5669 O 540.345 -1.4948 -1.2662 0
M  V30 5670 H 538.925 -0.631224 0.399456 0
M  V30 5671 H 541.587 -1.15859 1.56725 0
M  V30 5672 H 540.683 -2.68616 1.58909 0
M  V30 5673 N 540.985 -1.06182 -1.16461 0
M  V30 5674 C 542.396 -0.802426 -1.68576 0
M  V30 5675 C 542.747 0.67412 -1.84255 0
M  V30 5676 O 541.872 1.52303 -1.5373 0
M  V30 5677 C 542.467 -1.45002 -3.06202 0
M  V30 5678 C 541.026 -1.23843 -3.55443 0
M  V30 5679 C 540.173 -1.52724 -2.31454 0
M  V30 5680 H 543.124 -1.22545 -1.00839 0
M  V30 5681 H 543.145 -0.864731 -3.70544 0
M  V30 5682 H 542.657 -2.52466 -2.94759 0
M  V30 5683 H 540.758 -0.183487 -3.72148 0
M  V30 5684 H 540.871 -1.95036 -4.37604 0
M  V30 5685 H 539.235 -0.947726 -2.36411 0
M  V30 5686 H 540.018 -2.61343 -2.22609 0
M  V30 5687 N 542.463 1.3308 -0.844243 0
M  V30 5688 C 543.688 2.02341 -0.455282 0
M  V30 5689 C 544.113 1.6308 0.93737 0
M  V30 5690 O 543.471 0.826118 1.61385 0
M  V30 5691 C 543.519 3.55743 -0.58988 0
M  V30 5692 O 542.623 4.1063 0.38166 0
M  V30 5693 H 541.964 0.637898 -0.184343 0
M  V30 5694 H 544.494 1.6986 -1.14056 0
M  V30 5695 H 544.504 4.05243 -0.473522 0
M  V30 5696 H 543.179 3.83662 -1.60549 0
M  V30 5697 H 541.756 3.72236 0.22241 0
M  V30 5698 N 543.941 0.601185 1.45683 0
M  V30 5699 C 545.19 0.0914953 2.01492 0
M  V30 5700 C 545.503 -1.28331 1.47616 0
M  V30 5701 O 546.709 -1.88537 1.95362 0
M  V30 5702 C 545.165 0.11291 3.59723 0
M  V30 5703 C 544.773 1.48717 4.22596 0
M  V30 5704 C 546.517 -0.341871 4.23121 0
M  V30 5705 C 544.424 1.46531 5.7296 0
M  V30 5706 H 543.354 0.0304365 0.753385 0
M  V30 5707 H 546.005 0.755568 1.67223 0
M  V30 5708 H 544.387 -0.617692 3.91153 0
M  V30 5709 H 545.561 2.23897 4.02749 0
M  V30 5710 H 543.876 1.88351 3.71366 0
M  V30 5711 H 546.473 -0.377304 5.33367 0
M  V30 5712 H 546.816 -1.36325 3.93346 0
M  V30 5713 H 547.349 0.335256 3.96385 0
M  V30 5714 H 544.088 2.46408 6.07423 0
M  V30 5715 H 543.608 0.755997 5.95017 0
M  V30 5716 H 545.287 1.18618 6.36034 0
M  V30 5717 N 545.419 -1.53889 0.339982 0
M  V30 5718 C 546.665 -2.01152 -0.258003 0
M  V30 5719 C 546.998 -1.22749 -1.50487 0
M  V30 5720 O 546.273 -0.314156 -1.91946 0
M  V30 5721 C 546.556 -3.55468 -0.575717 0
M  V30 5722 C 546.409 -4.44584 0.682996 0
M  V30 5723 C 547.728 -4.1768 -1.38677 0
M  V30 5724 H 544.847 -0.731198 -0.0922992 0
M  V30 5725 H 547.489 -1.84352 0.459814 0
M  V30 5726 H 545.639 -3.69914 -1.18725 0
M  V30 5727 H 547.311 -4.41981 1.32102 0
M  V30 5728 H 545.554 -4.13592 1.3086 0
M  V30 5729 H 546.225 -5.5043 0.416001 0
M  V30 5730 H 548.701 -4.0691 -0.869705 0
M  V30 5731 H 547.577 -5.25734 -1.57783 0
M  V30 5732 H 547.838 -3.72069 -2.38782 0
M  V30 5733 N 546.897 -0.0685191 -1.57451 0
M  V30 5734 C 547.847 0.909895 -2.09057 0
M  V30 5735 C 548.831 1.26088 -0.999528 0
M  V30 5736 O 550.023 1.24041 -1.26265 0
M  V30 5737 C 547.152 2.17863 -2.65312 0
M  V30 5738 C 546.238 1.85427 -3.81415 0
M  V30 5739 N 546.629 1.23426 -4.9051 0
M  V30 5740 C 544.927 2.15196 -3.90649 0
M  V30 5741 C 545.628 1.09008 -5.71395 0
M  V30 5742 N 544.604 1.59871 -5.1956 0
M  V30 5743 H 548.406 0.426145 -2.90794 0
M  V30 5744 H 545.92 0.135462 -1.61834 0
M  V30 5745 H 547.917 2.88872 -3.00597 0
M  V30 5746 H 546.577 2.66829 -1.85021 0
M  V30 5747 H 547.588 0.904305 -5.09944 0
M  V30 5748 H 544.265 2.66562 -3.21327 0
M  V30 5749 H 545.655 0.607305 -6.6915 0
M  V30 5750 N 548.375 1.56261 0.205012 0
M  V30 5751 C 549.791 1.49623 0.555433 0
M  V30 5752 C 549.991 0.766719 1.86343 0
M  V30 5753 O 549.047 0.313158 2.50551 0
M  V30 5754 C 550.36 2.94253 0.619347 0
M  V30 5755 C 551.908 3.04868 0.708855 0
M  V30 5756 C 552.383 4.50888 0.803969 0
M  V30 5757 N 553.874 4.54999 0.867758 0
M  V30 5758 C 554.609 5.65284 0.96135 0
M  V30 5759 N 554.105 6.85282 1.01786 0
M  V30 5760 N 555.898 5.53174 0.997771 0
M  V30 5761 H 548.049 2.0211 -0.653094 0
M  V30 5762 H 550.312 0.919333 -0.231366 0
M  V30 5763 H 550.018 3.50643 -0.272458 0
M  V30 5764 H 549.892 3.47063 1.47741 0
M  V30 5765 H 552.279 2.48532 1.5911 0
M  V30 5766 H 552.36 2.55199 -0.175205 0
M  V30 5767 H 552.004 5.07846 -0.0738798 0
M  V30 5768 H 551.934 4.98279 1.70369 0
M  V30 5769 H 554.425 3.68588 0.833735 0
M  V30 5770 H 554.738 7.65081 1.08951 0
M  V30 5771 H 553.083 6.8796 0.986706 0
M  V30 5772 H 556.274 4.5835 0.950392 0
M  V30 5773 H 556.447 6.39151 1.06725 0
M  V30 5774 N 549.853 -0.472356 1.50355 0
M  V30 5775 C 550.8 -1.57051 1.69126 0
M  V30 5776 C 551.77 -1.5733 0.532574 0
M  V30 5777 O 552.955 -1.7488 0.762994 0
M  V30 5778 C 550.095 -2.95033 1.79024 0
M  V30 5779 C 549.208 -3.04552 3.06386 0
M  V30 5780 C 548.343 -4.33441 3.07087 0
M  V30 5781 C 547.382 -4.36697 4.28908 0
M  V30 5782 N 546.519 -5.57056 4.27356 0
M  V30 5783 H 551.359 -1.40351 2.62879 0
M  V30 5784 H 548.896 -0.682403 1.30314 0
M  V30 5785 H 550.854 -3.75048 1.82744 0
M  V30 5786 H 549.484 -3.10371 0.887109 0
M  V30 5787 H 548.536 -2.17419 3.12143 0
M  V30 5788 H 549.848 -3.02818 3.96362 0
M  V30 5789 H 549.002 -5.21801 3.09529 0
M  V30 5790 H 547.741 -4.37782 2.14939 0
M  V30 5791 H 546.746 -3.46734 4.2668 0
M  V30 5792 H 547.971 -4.34049 5.22282 0
M  V30 5793 H 545.917 -5.62184 3.3806 0
M  V30 5794 H 545.834 -5.57058 5.111 0
M  V30 5795 H 547.102 -6.47545 4.33942 0
M  V30 5796 N 551.331 -1.39911 -0.725443 0
M  V30 5797 C 552.571 -1.39096 -1.49772 0
M  V30 5798 C 552.935 0.0106452 -1.91997 0
M  V30 5799 O 554.136 0.143859 -2.68415 0
M  V30 5800 C 552.407 -2.34441 -2.69764 0
M  V30 5801 S 553.966 -2.51898 -3.59295 0
M  V30 5802 H 550.784 -0.49314 -0.512186 0
M  V30 5803 H 553.386 -1.76093 -0.849197 0
M  V30 5804 H 552.09 -3.35123 -2.36898 0
M  V30 5805 H 551.621 -1.98692 -3.39537 0
M  V30 5806 H 553.636 -1.76402 -4.63785 0
M  V30 5807 N 552.809 0.956637 -1.25245 0
M  V30 5808 C 554.056 1.701 -1.09874 0
M  V30 5809 C 554.384 1.91128 0.36062 0
M  V30 5810 O 553.639 1.47837 1.28229 0
M  V30 5811 C 553.938 3.08996 -1.79601 0
M  V30 5812 C 553.604 3.07774 -3.29523 0
M  V30 5813 C 552.266 3.07149 -3.70423 0
M  V30 5814 C 554.618 3.01257 -4.25316 0
M  V30 5815 C 551.946 2.97752 -5.0553 0
M  V30 5816 C 554.298 2.93403 -5.60444 0
M  V30 5817 C 552.962 2.91111 -6.00675 0
M  V30 5818 H 552.232 0.62244 -0.402056 0
M  V30 5819 H 554.879 1.1178 -1.55491 0
M  V30 5820 H 553.184 3.70848 -1.26408 0
M  V30 5821 H 554.881 3.65407 -1.65162 0
M  V30 5822 H 551.471 3.09032 -2.9698 0
M  V30 5823 H 555.655 3.00861 -3.9471 0
M  V30 5824 H 550.911 2.94346 -5.35883 0
M  V30 5825 H 555.085 2.87321 -6.34366 0
M  V30 5826 H 552.712 2.83586 -7.05325 0
M  V30 5827 O 554.326 1.1921 1.08956 0
M  V30 5828 H 555.017 0.939352 1.69399 0
M  V30 END ATOM
M  V30 BEGIN BOND
M  V30 END BOND
M  V30 END CTAB
M  END
$$$$
