drugbank_target|P35557 Glucokinase (DB02379; DB07358; DB07359; DB08118; DB08210)
 OpenBabel12092119473D

  0  0  0     0  0            999 V3000
M  V30 BEGIN CTAB
M  V30 COUNTS 7230 7283 0 0 0
M  V30 BEGIN ATOM
M  V30 1 H -0.908 1.98254 -0.117106 0
M  V30 2 N 0 1.576 0 0
M  V30 3 C 0.933 2.03868 1.02534 0
M  V30 4 C 1.911 0.928543 1.3348 0
M  V30 5 O 3.095 1.19667 1.45644 0
M  V30 6 C 0.222 2.43627 2.35294 0
M  V30 7 C -0.732 3.65373 2.2001 0
M  V30 8 S 0.101 5.13292 1.52614 0
M  V30 9 C 1.257 5.56322 2.86805 0
M  V30 10 H 1.49 2.90518 0.631377 0
M  V30 11 H -0.977 1.52953 0.210867 0
M  V30 12 H 0.981 2.67203 3.11629 0
M  V30 13 H -0.358 1.57376 2.7183 0
M  V30 14 H -1.165 3.90944 3.18086 0
M  V30 15 H -1.563 3.418 1.51819 0
M  V30 16 H 0.729 5.58782 3.83104 0
M  V30 17 H 1.672 6.56266 2.65933 0
M  V30 18 H 2.08 4.83886 2.90714 0
M  V30 19 N 1.4781 -0.272755 1.55222 0
M  V30 20 C 2.4081 -1.34136 1.91127 0
M  V30 21 C 3.3891 -1.51513 0.773168 0
M  V30 22 O 4.5741 -1.64552 1.03132 0
M  V30 23 C 1.7041 -2.70083 2.1834 0
M  V30 24 C 0.6581 -2.67437 3.34158 0
M  V30 25 C -0.0159 -4.06938 3.46851 0
M  V30 26 C 1.2841 -2.26686 4.70543 0
M  V30 27 H 2.9781 -1.04333 2.80633 0
M  V30 28 H 0.5241 -0.500454 1.35024 0
M  V30 29 H 2.4771 -3.44952 2.42046 0
M  V30 30 H 1.2011 -3.01469 1.25634 0
M  V30 31 H -0.1399 -1.95026 3.1042 0
M  V30 32 H -0.4919 -4.35547 2.51611 0
M  V30 33 H -0.7919 -4.06062 4.2472 0
M  V30 34 H 0.7321 -4.83545 3.72849 0
M  V30 35 H 2.1461 -2.91277 4.93792 0
M  V30 36 H 0.5431 -2.36971 5.5133 0
M  V30 37 H 1.6131 -1.21818 4.69349 0
M  V30 38 N 2.9562 -1.48159 -0.537278 0
M  V30 39 C 4.2332 -1.46291 -1.29839 0
M  V30 40 C 4.6132 -0.170613 -2.10409 0
M  V30 41 O 3.9612 0.847746 -2.12192 0
M  V30 42 C 4.1712 -2.72055 -2.18603 0
M  V30 43 C 5.5192 -3.20087 -2.7898 0
M  V30 44 O 6.5432 -2.72921 -2.28894 0
M  V30 45 O 5.4022 -4.02138 -3.70064 0
M  V30 46 H 2.4962 -0.583906 -0.585647 0
M  V30 47 H 5.0422 -1.60384 -0.554534 0
M  V30 48 H 3.8142 -3.57628 -1.58801 0
M  V30 49 H 3.4372 -2.60646 -3.00249 0
M  V30 50 N 4.4343 0.785586 -1.36625 0
M  V30 51 C 5.7113 1.53198 -1.21613 0
M  V30 52 C 6.0913 2.10187 0.196113 0
M  V30 53 O 5.4393 1.94318 1.20219 0
M  V30 54 C 5.6493 2.62388 -2.30116 0
M  V30 55 C 6.9973 3.30167 -2.66974 0
M  V30 56 O 8.0213 2.72674 -2.29188 0
M  V30 57 O 6.8803 4.34077 -3.32023 0
M  V30 58 H 3.9743 0.677865 -0.473738 0
M  V30 59 H 6.5203 0.823739 -1.48367 0
M  V30 60 H 5.2923 2.18299 -3.24748 0
M  V30 61 H 4.9153 3.40827 -2.0475 0
M  V30 62 N 5.9124 1.20967 1.01018 0
M  V30 63 C 7.3284 0.965905 1.27053 0
M  V30 64 C 7.5284 -0.350785 1.98423 0
M  V30 65 O 6.5844 -1.07773 2.28344 0
M  V30 66 C 7.8974 2.15294 2.09926 0
M  V30 67 C 9.4454 2.19463 2.23171 0
M  V30 68 C 9.9204 3.3767 3.09424 0
M  V30 69 N 11.4114 3.37724 3.17012 0
M  V30 70 C 12.1464 4.25837 3.83993 0
M  V30 71 N 11.6424 5.24138 4.53047 0
M  V30 72 N 13.4354 4.1366 3.80581 0
M  V30 73 H 5.5864 2.0565 0.531194 0
M  V30 74 H 7.8494 0.90024 0.297106 0
M  V30 75 H 7.5554 3.10684 1.64828 0
M  V30 76 H 7.4294 2.13923 3.10672 0
M  V30 77 H 9.8164 1.24632 2.6749 0
M  V30 78 H 9.8974 2.2488 1.21912 0
M  V30 79 H 9.5414 4.32791 2.65808 0
M  V30 80 H 9.4714 3.29491 4.10784 0
M  V30 81 H 11.9624 2.6658 2.6785 0
M  V30 82 H 12.2754 5.87684 5.01844 0
M  V30 83 H 10.6204 5.28068 4.5185 0
M  V30 84 H 13.8114 3.36127 3.25785 0
M  V30 85 H 13.9844 4.82538 4.32505 0
M  V30 86 N 7.3905 -1.2043 1.01659 0
M  V30 87 C 8.3535 -2.21433 0.591616 0
M  V30 88 C 9.3535 -1.57203 -0.338226 0
M  V30 89 O 10.5435 -1.73737 -0.126918 0
M  V30 90 C 7.6755 -3.40628 -0.136058 0
M  V30 91 H 8.8685 -2.60545 1.48514 0
M  V30 92 H 6.4215 -1.33893 0.806379 0
M  V30 93 H 7.1565 -3.07019 -1.04449 0
M  V30 94 H 6.9415 -3.88475 0.531917 0
M  V30 95 H 8.4315 -4.15475 -0.420735 0
M  V30 96 N 8.8686 -0.792821 -1.36206 0
M  V30 97 C 10.2846 -0.474903 -1.52371 0
M  V30 98 C 10.4846 1.00622 -1.74578 0
M  V30 99 O 9.5406 1.79162 -1.77924 0
M  V30 100 C 10.8536 -1.3083 -2.70747 0
M  V30 101 C 12.4016 -1.30234 -2.84619 0
M  V30 102 C 12.8766 -2.11956 -4.06004 0
M  V30 103 N 14.3676 -2.09419 -4.13156 0
M  V30 104 C 15.1026 -2.69419 -5.06163 0
M  V30 105 N 14.5986 -3.3829 -6.04592 0
M  V30 106 N 16.3916 -2.59134 -4.98804 0
M  V30 107 H 8.5426 -1.75222 -1.20046 0
M  V30 108 H 10.8056 -0.745024 -0.586211 0
M  V30 109 H 10.5116 -2.35881 -2.6087 0
M  V30 110 H 10.3856 -0.95196 -3.6499 0
M  V30 111 H 12.7726 -0.259748 -2.93955 0
M  V30 112 H 12.8536 -1.69847 -1.91274 0
M  V30 113 H 12.4976 -3.16248 -3.97429 0
M  V30 114 H 12.4276 -1.69711 -4.98503 0
M  V30 115 H 14.9186 -1.59297 -3.42685 0
M  V30 116 H 15.2316 -3.81394 -6.7213 0
M  V30 117 H 13.5766 -3.42393 -6.04807 0
M  V30 118 H 16.7676 -2.04927 -4.20859 0
M  V30 119 H 16.9406 -3.06185 -5.711 0
M  V30 120 N 10.3467 1.47872 -0.545128 0
M  V30 121 C 11.2797 2.2675 0.256885 0
M  V30 122 C 12.2577 1.33293 0.931228 0
M  V30 123 O 13.4417 1.62657 0.95262 0
M  V30 124 C 10.5687 3.09976 1.36501 0
M  V30 125 C 9.6147 4.1892 0.800496 0
M  V30 126 S 10.4477 5.34397 -0.343505 0
M  V30 127 C 11.6037 6.21186 0.766733 0
M  V30 128 H 11.8367 2.94425 -0.412479 0
M  V30 129 H 9.3697 1.50806 -0.331204 0
M  V30 130 H 11.3277 3.585 1.9997 0
M  V30 131 H 9.9887 2.41686 2.00616 0
M  V30 132 H 9.1817 4.76836 1.63227 0
M  V30 133 H 8.7837 3.73215 0.242217 0
M  V30 134 H 11.0757 6.56804 1.66178 0
M  V30 135 H 12.0187 7.07742 0.225204 0
M  V30 136 H 12.4267 5.54574 1.05396 0
M  V30 137 N 11.8248 0.280983 1.55075 0
M  V30 138 C 12.7348 -0.61388 2.26426 0
M  V30 139 C 13.7508 -1.16521 1.29224 0
M  V30 140 O 14.9268 -1.19426 1.62171 0
M  V30 141 C 11.9918 -1.7788 2.9759 0
M  V30 142 C 11.0528 -1.26355 4.10284 0
M  V30 143 C 10.2858 -2.37295 4.78045 0
M  V30 144 O 10.5088 -3.56777 4.45047 0
M  V30 145 O 9.4428 -2.05119 5.65871 0
M  V30 146 H 13.2688 -0.0356932 3.03679 0
M  V30 147 H 10.8538 0.0481686 1.49322 0
M  V30 148 H 12.7358 -2.45791 3.42293 0
M  V30 149 H 11.4108 -2.34397 2.23249 0
M  V30 150 H 10.3178 -0.550735 3.70024 0
M  V30 151 H 11.6508 -0.744065 4.86543 0
M  V30 152 N 13.3029 -1.57598 0.00835791 0
M  V30 153 C 14.2659 -2.07884 -0.965242 0
M  V30 154 C 15.2659 -0.989825 -1.26725 0
M  V30 155 O 16.4559 -1.25218 -1.21104 0
M  V30 156 C 13.5879 -2.52731 -2.28779 0
M  V30 157 H 14.7809 -2.95178 -0.530112 0
M  V30 158 H 12.3339 -1.54458 -0.239283 0
M  V30 159 H 13.0689 -1.68705 -2.76964 0
M  V30 160 H 12.8539 -3.32272 -2.08177 0
M  V30 161 H 14.3439 -2.91933 -2.98605 0
M  V30 162 N 14.781 0.264519 -1.55364 0
M  V30 163 C 15.744 1.31046 -1.88042 0
M  V30 164 C 16.744 1.41943 -0.755569 0
M  V30 165 O 17.934 1.40947 -1.02369 0
M  V30 166 C 15.066 2.69067 -2.09323 0
M  V30 167 H 16.259 1.03297 -2.81549 0
M  V30 168 H 13.812 0.502989 -1.47986 0
M  V30 169 H 14.547 3.01982 -1.18226 0
M  V30 170 H 14.332 2.62542 -2.91229 0
M  V30 171 H 15.822 3.44623 -2.35848 0
M  V30 172 N 16.2591 1.48442 0.529413 0
M  V30 173 C 17.2061 1.63007 1.63394 0
M  V30 174 C 18.1761 0.47212 1.59249 0
M  V30 175 O 19.3611 0.695673 1.77666 0
M  V30 176 C 16.5011 1.6763 3.01653 0
M  V30 177 C 15.6141 2.94535 3.16027 0
M  V30 178 C 14.7491 2.90316 4.44849 0
M  V30 179 C 13.7881 4.11923 4.52754 0
M  V30 180 N 12.9251 4.05777 5.72965 0
M  V30 181 H 17.7651 2.5733 1.50285 0
M  V30 182 H 15.3021 1.27613 0.731656 0
M  V30 183 H 17.2601 1.68292 3.81751 0
M  V30 184 H 15.8901 0.76797 3.13532 0
M  V30 185 H 14.9421 3.03615 2.29177 0
M  V30 186 H 16.2541 3.84512 3.17729 0
M  V30 187 H 15.4081 2.89382 5.33238 0
M  V30 188 H 14.1471 1.98068 4.45668 0
M  V30 189 H 13.1521 4.13131 3.62771 0
M  V30 190 H 14.3771 5.0533 4.53672 0
M  V30 191 H 12.3231 3.16351 5.74681 0
M  V30 192 H 12.2401 4.8946 5.76164 0
M  V30 193 H 13.5081 4.08904 6.6364 0
M  V30 194 N 17.7372 -0.778329 1.37039 0
M  V30 195 C 18.6842 -1.89139 1.32269 0
M  V30 196 C 19.6542 -1.65017 0.189387 0
M  V30 197 O 20.8392 -1.87024 0.377693 0
M  V30 198 C 17.9792 -3.26112 1.12894 0
M  V30 199 C 17.0922 -3.62233 2.35396 0
M  V30 200 C 16.2272 -4.8838 2.08946 0
M  V30 201 C 15.2662 -5.17212 3.2735 0
M  V30 202 N 14.4032 -6.34546 3.00492 0
M  V30 203 H 19.2432 -1.92552 2.27437 0
M  V30 204 H 16.7802 -0.941473 1.13025 0
M  V30 205 H 18.7382 -4.05116 0.996835 0
M  V30 206 H 17.3682 -3.22091 0.213758 0
M  V30 207 H 16.4202 -2.78265 2.5937 0
M  V30 208 H 17.7322 -3.79481 3.23721 0
M  V30 209 H 16.8862 -5.75274 1.92729 0
M  V30 210 H 15.6252 -4.73222 1.17949 0
M  V30 211 H 14.6302 -4.28796 3.44113 0
M  V30 212 H 15.8552 -5.34283 4.19188 0
M  V30 213 H 13.8012 -6.20759 2.12118 0
M  V30 214 H 13.7182 -6.52179 3.82358 0
M  V30 215 H 14.9862 -7.24394 2.87879 0
M  V30 216 N 19.2153 -1.21501 -1.00376 0
M  V30 217 C 20.1253 -0.991447 -2.12621 0
M  V30 218 C 21.1413 0.0568446 -1.73907 0
M  V30 219 O 22.3173 -0.13348 -2.00957 0
M  V30 220 C 19.3823 -0.560312 -3.42142 0
M  V30 221 C 18.4433 -1.68096 -3.95022 0
M  V30 222 C 17.6763 -1.2703 -5.18362 0
M  V30 223 O 17.8993 -0.144438 -5.70217 0
M  V30 224 O 16.8333 -2.08269 -5.64719 0
M  V30 225 H 20.6593 -1.93158 -2.34358 0
M  V30 226 H 18.2443 -0.999999 -1.10997 0
M  V30 227 H 20.1263 -0.329724 -4.20108 0
M  V30 228 H 18.8013 0.351089 -3.2179 0
M  V30 229 H 17.7083 -1.96597 -3.18278 0
M  V30 230 H 19.0413 -2.56983 -4.19786 0
M  V30 231 N 20.6934 1.19889 -1.02296 0
M  V30 232 C 21.6404 2.22901 -0.598651 0
M  V30 233 C 22.6104 1.61588 0.384521 0
M  V30 234 O 23.7954 1.88697 0.282522 0
M  V30 235 C 20.9354 3.45063 0.0504476 0
M  V30 236 C 20.0484 4.20783 -0.978053 0
M  V30 237 C 19.1834 5.30356 -0.299338 0
M  V30 238 C 18.2224 5.97826 -1.31416 0
M  V30 239 N 17.3594 6.98975 -0.661667 0
M  V30 240 H 22.1994 2.58554 -1.48169 0
M  V30 241 H 19.7364 1.27039 -0.741584 0
M  V30 242 H 21.6944 4.14831 0.443971 0
M  V30 243 H 20.3244 3.10084 0.897097 0
M  V30 244 H 19.3764 3.50018 -1.48969 0
M  V30 245 H 20.6884 4.67109 -1.74958 0
M  V30 246 H 19.8424 6.06516 0.149347 0
M  V30 247 H 18.5814 4.85084 0.504445 0
M  V30 248 H 17.5864 5.20422 -1.77317 0
M  V30 249 H 18.8114 6.45183 -2.11933 0
M  V30 250 H 16.7574 6.55886 0.122132 0
M  V30 251 H 16.6744 7.43461 -1.37117 0
M  V30 252 H 17.9424 7.7914 -0.236785 0
M  V30 253 N 22.1715 0.800033 1.35784 0
M  V30 254 C 23.4175 0.377901 1.99248 0
M  V30 255 C 23.7505 -1.05052 1.63333 0
M  V30 256 O 23.0255 -1.72768 0.893385 0
M  V30 257 C 23.3085 0.553922 3.55814 0
M  V30 258 C 23.1615 2.0268 4.01548 0
M  V30 259 C 24.4805 -0.0244802 4.40093 0
M  V30 260 H 21.5995 0.138782 0.723815 0
M  V30 261 H 24.2415 1.00835 1.61035 0
M  V30 262 H 22.3915 0.0172398 3.88496 0
M  V30 263 H 24.0635 2.62536 3.79305 0
M  V30 264 H 22.3065 2.5256 3.52698 0
M  V30 265 H 22.9775 2.10087 5.10458 0
M  V30 266 H 25.4535 0.433775 4.13833 0
M  V30 267 H 24.3295 0.128637 5.48749 0
M  V30 268 H 24.5905 -1.11758 4.27741 0
M  V30 269 N 23.6496 -1.47581 0.552962 0
M  V30 270 C 24.5596 -2.33743 -0.200353 0
M  V30 271 C 25.5756 -1.47928 -0.916151 0
M  V30 272 O 26.7516 -1.80865 -0.885993 0
M  V30 273 C 23.8166 -3.24536 -1.21973 0
M  V30 274 C 22.8776 -4.26238 -0.511819 0
M  V30 275 C 22.1106 -5.12693 -1.48263 0
M  V30 276 O 22.3336 -5.01525 -2.71714 0
M  V30 277 O 21.2676 -5.93375 -1.00945 0
M  V30 278 H 25.0936 -2.9945 0.506304 0
M  V30 279 H 22.6786 -1.46071 0.313622 0
M  V30 280 H 24.5606 -3.80631 -1.80827 0
M  V30 281 H 23.2356 -2.61462 -1.90839 0
M  V30 282 H 22.1426 -3.73914 0.117799 0
M  V30 283 H 23.4756 -4.92014 0.135308 0
M  V30 284 N 25.1277 -0.289203 -1.54924 0
M  V30 285 C 26.0597 0.625583 -2.20497 0
M  V30 286 C 27.0727 1.10667 -1.19402 0
M  V30 287 O 28.2617 1.02615 -1.46056 0
M  V30 288 C 25.3617 1.86702 -2.82835 0
M  V30 289 C 24.5347 1.5304 -4.09753 0
M  V30 290 C 23.5937 2.62576 -4.56005 0
M  V30 291 O 22.6197 2.28167 -5.21468 0
M  V30 292 N 23.8217 3.92901 -4.27328 0
M  V30 293 H 26.5867 0.0642801 -2.99631 0
M  V30 294 H 24.1477 -0.110896 -1.6152 0
M  V30 295 H 26.1397 2.59304 -3.10715 0
M  V30 296 H 24.7097 2.33702 -2.07611 0
M  V30 297 H 23.9297 0.637564 -3.8901 0
M  V30 298 H 25.2177 1.28072 -4.92418 0
M  V30 299 H 24.6157 4.23671 -3.74859 0
M  V30 300 H 23.1727 4.61837 -4.59946 0
M  V30 301 N 26.6058 1.57591 -0.0167156 0
M  V30 302 C 27.8548 1.90461 0.663877 0
M  V30 303 C 28.1678 0.893515 1.73999 0
M  V30 304 O 29.3738 1.11302 2.47637 0
M  V30 305 C 27.8298 3.38155 1.23204 0
M  V30 306 C 27.4378 4.47597 0.189866 0
M  V30 307 C 29.1818 3.80111 1.88986 0
M  V30 308 C 27.0888 5.86379 0.768964 0
M  V30 309 H 26.0188 0.710738 0.251729 0
M  V30 310 H 28.6698 1.83326 -0.0799926 0
M  V30 311 H 27.0518 3.40182 2.02712 0
M  V30 312 H 28.2258 4.57112 -0.581846 0
M  V30 313 H 26.5408 4.14766 -0.368475 0
M  V30 314 H 29.1378 4.81145 2.33247 0
M  V30 315 H 29.4808 3.14511 2.72743 0
M  V30 316 H 30.0138 3.80454 1.16187 0
M  V30 317 H 26.7528 6.55493 -0.0301957 0
M  V30 318 H 26.2728 5.80496 1.50945 0
M  V30 319 H 27.9518 6.34563 1.26251 0
M  V30 320 N 28.0839 -0.256276 1.55502 0
M  V30 321 C 29.0139 -1.32102 1.92539 0
M  V30 322 C 29.9949 -1.50684 0.789194 0
M  V30 323 O 31.1799 -1.63449 1.04872 0
M  V30 324 C 28.3099 -2.67752 2.21192 0
M  V30 325 C 27.2639 -2.63878 3.36975 0
M  V30 326 C 26.5899 -4.03236 3.51147 0
M  V30 327 C 27.8899 -2.21682 4.72921 0
M  V30 328 H 29.5839 -1.01351 2.81724 0
M  V30 329 H 27.1299 -0.486105 1.35547 0
M  V30 330 H 29.0829 -3.42365 2.45691 0
M  V30 331 H 27.8069 -3.0012 1.28824 0
M  V30 332 H 26.4659 -1.91722 3.12471 0
M  V30 333 H 26.1139 -4.32854 2.56216 0
M  V30 334 H 25.8139 -4.01535 4.29003 0
M  V30 335 H 27.3379 -4.79563 3.77957 0
M  V30 336 H 28.7519 -2.86023 4.96854 0
M  V30 337 H 27.1489 -2.3111 5.53812 0
M  V30 338 H 28.2189 -1.16833 4.70615 0
M  V30 339 N 29.562 -1.4872 -0.521534 0
M  V30 340 C 30.525 -1.63379 -1.60748 0
M  V30 341 C 31.525 -0.50661 -1.52611 0
M  V30 342 O 32.715 -0.772601 -1.5613 0
M  V30 343 C 29.847 -1.61192 -3.00383 0
M  V30 344 H 31.04 -2.60217 -1.49087 0
M  V30 345 H 28.593 -1.37444 -0.744235 0
M  V30 346 H 29.328 -0.65863 -3.17541 0
M  V30 347 H 29.113 -2.43032 -3.07698 0
M  V30 348 H 30.603 -1.7466 -3.7932 0
M  V30 349 N 31.0401 0.771051 -1.3745 0
M  V30 350 C 31.9501 1.91538 -1.35464 0
M  V30 351 C 32.9661 1.72134 -0.254123 0
M  V30 352 O 34.1421 1.95358 -0.489626 0
M  V30 353 C 31.2071 3.26671 -1.16134 0
M  V30 354 C 30.2681 3.58723 -2.35831 0
M  V30 355 C 29.5011 4.87409 -2.17413 0
M  V30 356 O 29.7241 5.58506 -1.15876 0
M  V30 357 O 28.6581 5.18539 -3.05615 0
M  V30 358 H 32.4841 1.96165 -2.31847 0
M  V30 359 H 30.0691 0.9139 -1.18187 0
M  V30 360 H 31.9511 4.07499 -1.07345 0
M  V30 361 H 30.6261 3.22894 -0.228251 0
M  V30 362 H 29.5331 2.78127 -2.50192 0
M  V30 363 H 30.8661 3.67243 -3.27709 0
M  V30 364 N 32.5182 1.22032 0.997298 0
M  V30 365 C 33.7652 1.04222 1.73621 0
M  V30 366 C 34.0932 -0.423264 1.89839 0
M  V30 367 O 33.3482 -1.3302 1.43542 0
M  V30 368 C 33.6472 1.69345 3.14733 0
M  V30 369 C 33.3132 3.19226 3.18442 0
M  V30 370 C 31.9752 3.60124 3.19161 0
M  V30 371 C 34.3272 4.15181 3.15078 0
M  V30 372 C 31.6552 4.95467 3.14212 0
M  V30 373 C 34.0072 5.50495 3.1167 0
M  V30 374 C 32.6712 5.90779 3.10703 0
M  V30 375 H 31.9412 0.381374 0.635323 0
M  V30 376 H 34.5882 1.51732 1.16831 0
M  V30 377 H 32.8932 1.14147 3.74803 0
M  V30 378 H 34.5902 1.53059 3.7064 0
M  V30 379 H 31.1802 2.86659 3.18629 0
M  V30 380 H 35.3642 3.84605 3.13676 0
M  V30 381 H 30.6202 5.25916 3.11805 0
M  V30 382 H 34.7942 6.24576 3.08022 0
M  V30 383 H 32.4212 6.9562 3.06622 0
M  V30 384 N 33.9963 -1.19345 1.0293 0
M  V30 385 C 34.9283 -2.22036 0.56857 0
M  V30 386 C 35.9413 -1.58865 -0.355779 0
M  V30 387 O 37.1303 -1.77851 -0.152103 0
M  V30 388 C 34.2303 -3.38363 -0.190752 0
M  V30 389 C 33.4033 -4.31118 0.738643 0
M  V30 390 C 32.4623 -5.26194 0.0246497 0
M  V30 391 O 31.4883 -5.65461 0.651354 0
M  V30 392 N 32.6903 -5.66971 -1.24594 0
M  V30 393 H 35.4553 -2.6219 1.45177 0
M  V30 394 H 33.0163 -1.34015 0.908381 0
M  V30 395 H 35.0083 -3.98981 -0.677961 0
M  V30 396 H 33.5783 -2.96994 -0.975366 0
M  V30 397 H 32.7983 -3.68276 1.40593 0
M  V30 398 H 34.0863 -4.90001 1.37029 0
M  V30 399 H 33.4843 -5.37104 -1.77583 0
M  V30 400 H 32.0413 -6.2984 -1.67764 0
M  V30 401 N 35.4744 -0.807222 -1.35358 0
M  V30 402 C 36.4044 -0.232509 -2.3234 0
M  V30 403 C 37.3854 0.642386 -1.57504 0
M  V30 404 O 38.5704 0.572526 -1.85569 0
M  V30 405 C 35.7004 0.619238 -3.41735 0
M  V30 406 C 34.6544 -0.157215 -4.27711 0
M  V30 407 C 33.9804 0.816273 -5.28433 0
M  V30 408 C 35.2804 -1.35656 -5.04376 0
M  V30 409 H 36.9744 -1.04276 -2.80654 0
M  V30 410 H 34.5204 -0.50288 -1.34934 0
M  V30 411 H 36.4734 1.03137 -4.08584 0
M  V30 412 H 35.1974 1.46239 -2.92031 0
M  V30 413 H 33.8564 -0.550525 -3.62443 0
M  V30 414 H 33.5044 1.65494 -4.74996 0
M  V30 415 H 33.2044 0.301067 -5.86828 0
M  V30 416 H 34.7284 1.22659 -5.98153 0
M  V30 417 H 36.1424 -1.01927 -5.64166 0
M  V30 418 H 34.5394 -1.8063 -5.7227 0
M  V30 419 H 35.6094 -2.14288 -4.34981 0
M  V30 420 N 36.9525 1.47285 -0.560781 0
M  V30 421 C 37.8845 2.28118 0.222438 0
M  V30 422 C 38.8975 1.37219 0.876056 0
M  V30 423 O 40.0865 1.62011 0.749307 0
M  V30 424 C 37.1865 3.1159 1.33285 0
M  V30 425 C 36.3595 4.30473 0.77534 0
M  V30 426 C 35.4185 4.95513 1.77069 0
M  V30 427 O 34.4445 5.53792 1.31539 0
M  V30 428 N 35.6465 4.90531 3.10418 0
M  V30 429 H 38.4115 2.95976 -0.470958 0
M  V30 430 H 35.9725 1.56955 -0.39709 0
M  V30 431 H 37.9645 3.51967 1.99752 0
M  V30 432 H 36.5345 2.45951 1.92943 0
M  V30 433 H 35.7545 3.94144 -0.0662113 0
M  V30 434 H 37.0425 5.07362 0.382272 0
M  V30 435 H 36.4405 4.44389 3.5005 0
M  V30 436 H 34.9975 5.34917 3.72434 0
M  V30 437 N 38.4306 0.297415 1.54768 0
M  V30 438 C 39.3406 -0.58983 2.27064 0
M  V30 439 C 40.3566 -1.15144 1.30453 0
M  V30 440 O 41.5326 -1.17699 1.63428 0
M  V30 441 C 38.5976 -1.74714 2.9946 0
M  V30 442 C 37.6586 -1.21997 4.11601 0
M  V30 443 C 36.8916 -2.32212 4.80535 0
M  V30 444 O 37.1146 -3.52036 4.48806 0
M  V30 445 O 36.0486 -1.99106 5.68014 0
M  V30 446 H 39.8746 -0.00348199 3.037 0
M  V30 447 H 37.4596 0.0640035 1.49263 0
M  V30 448 H 39.3416 -2.42147 3.44881 0
M  V30 449 H 38.0166 -2.32016 2.25722 0
M  V30 450 H 36.9236 -0.511458 3.70587 0
M  V30 451 H 38.2566 -0.692419 4.87305 0
M  V30 452 N 39.9087 -1.5758 0.0250728 0
M  V30 453 C 40.8187 -2.1343 -0.973905 0
M  V30 454 C 41.8347 -1.08556 -1.35984 0
M  V30 455 O 43.0107 -1.40592 -1.44207 0
M  V30 456 C 40.0757 -2.64703 -2.23904 0
M  V30 457 C 39.1367 -3.84276 -1.91391 0
M  V30 458 C 38.3697 -4.33095 -3.11873 0
M  V30 459 O 38.5927 -3.81107 -4.24398 0
M  V30 460 O 37.5267 -5.24984 -2.94406 0
M  V30 461 H 41.3527 -2.99057 -0.529036 0
M  V30 462 H 38.9377 -1.48118 -0.195288 0
M  V30 463 H 40.8197 -2.97769 -2.98181 0
M  V30 464 H 39.4947 -1.82161 -2.6758 0
M  V30 465 H 38.4017 -3.56143 -1.14511 0
M  V30 466 H 39.7347 -4.67968 -1.52534 0
M  V30 467 N 41.3868 0.248026 -1.55636 0
M  V30 468 C 42.6638 0.998988 -1.68165 0
M  V30 469 C 43.0438 2.03409 -0.564621 0
M  V30 470 O 42.3918 2.24378 0.432076 0
M  V30 471 C 42.6018 1.63334 -3.0842 0
M  V30 472 C 43.9498 2.13562 -3.66983 0
M  V30 473 O 44.9738 1.73277 -3.11213 0
M  V30 474 O 43.8328 2.87526 -4.64749 0
M  V30 475 H 40.9268 0.464933 -0.683935 0
M  V30 476 H 43.4728 0.241902 -1.67967 0
M  V30 477 H 42.2448 0.884583 -3.8117 0
M  V30 478 H 41.8678 2.45666 -3.12624 0
M  V30 479 N 42.8649 1.48995 0.513639 0
M  V30 480 C 43.7949 1.67636 1.62544 0
M  V30 481 C 44.7759 0.525087 1.61793 0
M  V30 482 O 45.9609 0.759502 1.78732 0
M  V30 483 C 43.0909 1.73114 3.01079 0
M  V30 484 C 42.0449 2.87905 3.16693 0
M  V30 485 C 41.3709 2.78486 4.56453 0
M  V30 486 C 42.6709 4.29005 2.97913 0
M  V30 487 H 44.3649 2.60716 1.47198 0
M  V30 488 H 41.9109 1.25465 0.706714 0
M  V30 489 H 43.8639 1.84742 3.78746 0
M  V30 490 H 42.5879 0.766241 3.17484 0
M  V30 491 H 41.2469 2.75859 2.41448 0
M  V30 492 H 40.8949 1.7993 4.69717 0
M  V30 493 H 40.5949 3.55523 4.67843 0
M  V30 494 H 42.1189 2.92104 5.36197 0
M  V30 495 H 43.5329 4.41798 3.65359 0
M  V30 496 H 41.9299 5.07166 3.20785 0
M  V30 497 H 42.9999 4.44329 1.94165 0
M  V30 498 N 44.343 -0.763751 1.37857 0
M  V30 499 C 45.29 -1.87726 1.34267 0
M  V30 500 C 46.26 -1.64807 0.206879 0
M  V30 501 O 47.445 -1.86613 0.397508 0
M  V30 502 C 44.585 -3.24896 1.16346 0
M  V30 503 C 43.698 -3.59716 2.39225 0
M  V30 504 C 42.833 -4.86137 2.14114 0
M  V30 505 C 41.872 -5.13711 3.32817 0
M  V30 506 N 41.009 -6.31323 3.07206 0
M  V30 507 H 45.849 -1.90129 2.29466 0
M  V30 508 H 43.386 -0.929433 1.14017 0
M  V30 509 H 45.344 -4.04036 1.03975 0
M  V30 510 H 43.974 -3.21847 0.247909 0
M  V30 511 H 43.026 -2.75498 2.62307 0
M  V30 512 H 44.338 -3.76027 3.27728 0
M  V30 513 H 43.492 -5.73198 1.9882 0
M  V30 514 H 42.231 -4.71945 1.22961 0
M  V30 515 H 41.236 -4.25123 3.48641 0
M  V30 516 H 42.461 -5.29807 4.24832 0
M  V30 517 H 40.407 -6.18474 2.1869 0
M  V30 518 H 40.324 -6.48087 3.89254 0
M  V30 519 H 41.592 -7.213 2.95546 0
M  V30 520 N 45.8211 -1.22559 -0.990812 0
M  V30 521 C 46.7681 -0.997519 -2.0813 0
M  V30 522 C 47.7381 0.0814702 -1.659 0
M  V30 523 O 48.9231 -0.0685424 -1.90677 0
M  V30 524 C 46.0631 -0.583615 -3.40129 0
M  V30 525 C 45.1761 -1.7336 -3.9569 0
M  V30 526 C 44.3111 -1.26748 -5.15857 0
M  V30 527 C 43.3501 -2.38888 -5.63559 0
M  V30 528 N 42.4871 -1.93308 -6.74964 0
M  V30 529 H 47.3271 -1.93099 -2.26973 0
M  V30 530 H 44.8641 -0.962114 -1.11273 0
M  V30 531 H 46.8221 -0.324801 -4.15934 0
M  V30 532 H 45.4521 0.312845 -3.2128 0
M  V30 533 H 44.5041 -2.10669 -3.16738 0
M  V30 534 H 45.8161 -2.57704 -4.27071 0
M  V30 535 H 44.9701 -0.966173 -5.98957 0
M  V30 536 H 43.7091 -0.394272 -4.86104 0
M  V30 537 H 42.7141 -2.69805 -4.79046 0
M  V30 538 H 43.9391 -3.26728 -5.95336 0
M  V30 539 H 41.8851 -1.08352 -6.4699 0
M  V30 540 H 41.8021 -2.71217 -7.05675 0
M  V30 541 H 43.0701 -1.66252 -7.61564 0
M  V30 542 N 47.2992 1.18797 -1.03562 0
M  V30 543 C 48.5452 1.8893 -0.737113 0
M  V30 544 C 48.8782 1.79837 0.732956 0
M  V30 545 O 48.1532 1.19525 1.5344 0
M  V30 546 C 48.4362 3.39607 -1.19745 0
M  V30 547 C 48.2892 3.57537 -2.72924 0
M  V30 548 C 49.6082 4.33069 -0.783526 0
M  V30 549 H 46.7272 0.686057 -0.269249 0
M  V30 550 H 49.3692 1.39797 -1.28673 0
M  V30 551 H 47.5192 3.81583 -0.729855 0
M  V30 552 H 49.1912 3.24688 -3.27682 0
M  V30 553 H 47.4342 3.00363 -3.12993 0
M  V30 554 H 48.1052 4.63238 -3.00191 0
M  V30 555 H 50.5812 3.98846 -1.18581 0
M  V30 556 H 49.4572 5.3707 -1.13343 0
M  V30 557 H 49.7182 4.40986 0.313681 0
M  V30 558 N 48.7773 0.814389 1.34928 0
M  V30 559 C 49.7103 0.175641 2.27523 0
M  V30 560 C 50.6883 -0.662953 1.48471 0
M  V30 561 O 51.8723 -0.628545 1.77712 0
M  V30 562 C 48.9993 -0.755516 3.30166 0
M  V30 563 C 48.0453 0.00445305 4.265 0
M  V30 564 S 48.8783 1.34582 5.18313 0
M  V30 565 C 50.0343 0.419315 6.24494 0
M  V30 566 H 50.2673 0.960691 2.8135 0
M  V30 567 H 47.8003 0.609846 1.41846 0
M  V30 568 H 49.7583 -1.28723 3.89796 0
M  V30 569 H 48.4193 -1.51402 2.75202 0
M  V30 570 H 47.6123 -0.703077 4.99072 0
M  V30 571 H 47.2143 0.466447 3.7108 0
M  V30 572 H 49.5063 -0.392432 6.76362 0
M  V30 573 H 50.4493 1.11446 6.99275 0
M  V30 574 H 50.8573 0.0115389 5.64499 0
M  V30 575 N 50.2554 -1.46986 0.568584 0
M  V30 576 C 51.6714 -1.57946 0.229189 0
M  V30 577 C 51.8714 -1.56567 -1.26843 0
M  V30 578 O 50.9274 -1.47511 -2.04931 0
M  V30 579 C 52.2404 -2.87963 0.865909 0
M  V30 580 C 53.7884 -3.01568 0.838188 0
M  V30 581 C 54.2634 -4.34301 1.45419 0
M  V30 582 N 55.7544 -4.40965 1.41788 0
M  V30 583 C 56.4894 -5.42256 1.86403 0
M  V30 584 N 55.9854 -6.50297 2.38926 0
M  V30 585 N 57.7784 -5.3337 1.77405 0
M  V30 586 H 49.9294 -1.46126 1.54146 0
M  V30 587 H 52.1924 -0.696156 0.643484 0
M  V30 588 H 51.8984 -2.94742 1.91886 0
M  V30 589 H 51.7724 -3.75423 0.365687 0
M  V30 590 H 54.1594 -2.94379 -0.206106 0
M  V30 591 H 54.2404 -2.1562 1.37629 0
M  V30 592 H 53.8844 -4.42247 2.49761 0
M  V30 593 H 53.8144 -5.19 0.891435 0
M  V30 594 H 56.3054 -3.63484 1.03381 0
M  V30 595 H 56.6184 -7.23777 2.70863 0
M  V30 596 H 54.9634 -6.51155 2.42944 0
M  V30 597 H 58.1544 -4.47865 1.3614 0
M  V30 598 H 58.3274 -6.12169 2.12492 0
M  V30 599 N 51.7335 -0.305618 -1.54608 0
M  V30 600 C 53.1495 0.0476228 -1.59529 0
M  V30 601 C 53.3495 1.52025 -1.32252 0
M  V30 602 O 52.4055 2.27368 -1.09818 0
M  V30 603 C 53.7185 -0.354471 -2.98603 0
M  V30 604 C 55.2665 -0.303622 -3.11524 0
M  V30 605 C 55.7415 -0.680608 -4.52915 0
M  V30 606 N 57.2325 -0.63332 -4.5885 0
M  V30 607 C 57.9675 -0.897432 -5.66334 0
M  V30 608 N 57.4635 -1.22775 -6.81834 0
M  V30 609 N 59.2565 -0.824186 -5.56025 0
M  V30 610 H 51.4075 -1.2653 -1.70599 0
M  V30 611 H 53.6705 -0.513291 -0.797017 0
M  V30 612 H 53.3765 -1.3798 -3.23503 0
M  V30 613 H 53.2505 0.289568 -3.76087 0
M  V30 614 H 55.6375 0.712472 -2.8637 0
M  V30 615 H 55.7185 -0.982348 -2.36185 0
M  V30 616 H 55.3625 -1.69453 -4.78799 0
M  V30 617 H 55.2925 0.0202385 -5.26596 0
M  V30 618 H 57.7835 -0.389138 -3.75891 0
M  V30 619 H 58.0965 -1.41513 -7.59733 0
M  V30 620 H 56.4415 -1.26583 -6.83375 0
M  V30 621 H 59.6325 -0.565748 -4.64669 0
M  V30 622 H 59.8055 -1.03338 -6.39707 0
M  V30 623 N 53.2116 1.57565 -0.0334293 0
M  V30 624 C 54.1446 2.05997 0.981866 0
M  V30 625 C 55.1226 0.956647 1.3148 0
M  V30 626 O 56.3066 1.22729 1.43073 0
M  V30 627 C 53.4336 2.48564 2.30074 0
M  V30 628 C 52.4796 3.69958 2.12211 0
M  V30 629 S 53.3126 5.16414 1.41692 0
M  V30 630 C 54.4686 5.6228 2.7494 0
M  V30 631 H 54.7016 2.91792 0.569612 0
M  V30 632 H 52.2346 1.53366 0.178376 0
M  V30 633 H 54.1926 2.73753 3.05892 0
M  V30 634 H 52.8536 1.63106 2.68431 0
M  V30 635 H 52.0466 3.97603 3.09722 0
M  V30 636 H 51.6486 3.44943 1.44535 0
M  V30 637 H 53.9406 5.66783 3.71165 0
M  V30 638 H 54.8836 6.61759 2.51953 0
M  V30 639 H 55.2916 4.89944 2.80384 0
M  V30 640 N 54.6897 -0.239769 1.55765 0
M  V30 641 C 55.6217 -1.32001 1.87372 0
M  V30 642 C 56.6347 -1.43944 0.760522 0
M  V30 643 O 57.8237 -1.45167 1.0387 0
M  V30 644 C 54.9237 -2.69779 2.05115 0
M  V30 645 C 54.0967 -2.80014 3.36022 0
M  V30 646 C 53.1557 -3.98684 3.4342 0
M  V30 647 O 52.1817 -3.87877 4.16582 0
M  V30 648 N 53.3837 -5.12176 2.73232 0
M  V30 649 H 56.1487 -1.0522 2.80622 0
M  V30 650 H 53.7097 -0.429857 1.56089 0
M  V30 651 H 55.7017 -3.47517 2.07399 0
M  V30 652 H 54.2717 -2.89237 1.18577 0
M  V30 653 H 53.4917 -1.88896 3.45994 0
M  V30 654 H 54.7797 -2.83808 4.22292 0
M  V30 655 H 54.1777 -5.2385 2.13536 0
M  V30 656 H 52.7347 -5.88022 2.81199 0
M  V30 657 N 56.1678 -1.49265 -0.50573 0
M  V30 658 C 57.1148 -1.65585 -1.6078 0
M  V30 659 C 58.0848 -0.497396 -1.58478 0
M  V30 660 O 59.2698 -0.72385 -1.76536 0
M  V30 661 C 56.4098 -1.72408 -2.98948 0
M  V30 662 C 55.5228 -2.99525 -3.11301 0
M  V30 663 C 54.6578 -2.97356 -4.40174 0
M  V30 664 C 53.6968 -4.19074 -4.46143 0
M  V30 665 N 52.8338 -4.14841 -5.66437 0
M  V30 666 H 57.6738 -2.59688 -1.46172 0
M  V30 667 H 55.2108 -1.28761 -0.711261 0
M  V30 668 H 57.1688 -1.74344 -3.79025 0
M  V30 669 H 55.7988 -0.817753 -3.1227 0
M  V30 670 H 54.8508 -3.07222 -2.24318 0
M  V30 671 H 56.1628 -3.89518 -3.11572 0
M  V30 672 H 55.3168 -2.97829 -5.28567 0
M  V30 673 H 54.0558 -2.05133 -4.42461 0
M  V30 674 H 53.0608 -4.1885 -3.56153 0
M  V30 675 H 54.2858 -5.12483 -4.45575 0
M  V30 676 H 52.2318 -3.25453 -5.69575 0
M  V30 677 H 52.1488 -4.98564 -5.68304 0
M  V30 678 H 53.4168 -4.1941 -6.57051 0
M  V30 679 N 57.6459 0.756429 -1.3826 0
M  V30 680 C 58.5559 1.9009 -1.37488 0
M  V30 681 C 59.5719 1.71855 -0.272366 0
M  V30 682 O 60.7479 1.94827 -0.510318 0
M  V30 683 C 57.8129 3.25421 -1.19592 0
M  V30 684 C 56.8739 3.56202 -2.39622 0
M  V30 685 C 56.1069 4.85075 -2.2257 0
M  V30 686 O 56.3299 5.57246 -1.21793 0
M  V30 687 O 55.2639 5.15269 -3.11098 0
M  V30 688 H 59.0899 1.93695 -2.33914 0
M  V30 689 H 56.6749 0.901313 -1.1915 0
M  V30 690 H 58.5569 4.06337 -1.11661 0
M  V30 691 H 57.2319 3.22634 -0.262486 0
M  V30 692 H 56.1389 2.75458 -2.53128 0
M  V30 693 H 57.4719 3.63747 -3.31586 0
M  V30 694 N 59.124 1.23083 0.984299 0
M  V30 695 C 60.057 0.951786 2.07404 0
M  V30 696 C 61.035 -0.10848 1.62238 0
M  V30 697 O 62.219 0.0249467 1.88483 0
M  V30 698 C 59.346 0.433142 3.35919 0
M  V30 699 C 58.392 1.47941 4.0002 0
M  V30 700 S 59.225 3.05556 4.39768 0
M  V30 701 C 60.381 2.55351 5.71442 0
M  V30 702 H 60.614 1.87456 2.30754 0
M  V30 703 H 58.147 1.06284 1.11996 0
M  V30 704 H 60.105 0.140506 4.10259 0
M  V30 705 H 58.766 -0.468656 3.10584 0
M  V30 706 H 57.959 1.06658 4.92585 0
M  V30 707 H 57.561 1.7212 3.3204 0
M  V30 708 H 59.853 1.97128 6.48187 0
M  V30 709 H 60.796 3.46441 6.17563 0
M  V30 710 H 61.204 1.96339 5.29255 0
M  V30 711 N 60.6021 -1.18246 1.0419 0
M  V30 712 C 61.8791 -1.84121 0.660208 0
M  V30 713 C 62.2591 -1.92778 -0.860221 0
M  V30 714 O 61.6071 -1.45464 -1.76217 0
M  V30 715 C 61.8171 -3.22355 1.33747 0
M  V30 716 C 63.1651 -3.98376 1.46906 0
M  V30 717 O 64.1891 -3.31799 1.29568 0
M  V30 718 O 63.0481 -5.17665 1.75171 0
M  V30 719 H 60.1421 -0.794036 0.231161 0
M  V30 720 H 62.6881 -1.25628 1.14087 0
M  V30 721 H 61.4601 -3.10964 2.37522 0
M  V30 722 H 61.0831 -3.88506 0.845515 0
M  V30 723 N 62.0802 -0.821533 -1.34494 0
M  V30 724 C 63.4962 -0.507117 -1.51329 0
M  V30 725 C 63.6962 0.968964 -1.76673 0
M  V30 726 O 62.7522 1.75348 -1.81685 0
M  V30 727 C 64.0652 -1.36544 -2.67911 0
M  V30 728 C 65.6132 -1.36242 -2.81793 0
M  V30 729 C 66.0882 -2.2052 -4.01416 0
M  V30 730 N 67.5792 -2.18136 -4.08621 0
M  V30 731 C 68.3142 -2.80095 -5.00334 0
M  V30 732 N 67.8102 -3.51039 -5.9728 0
M  V30 733 N 69.6032 -2.69656 -4.93196 0
M  V30 734 H 61.7542 -1.77729 -1.16302 0
M  V30 735 H 64.0172 -0.757291 -0.570276 0
M  V30 736 H 63.7232 -2.41361 -2.55808 0
M  V30 737 H 63.5972 -1.02917 -3.62888 0
M  V30 738 H 65.9842 -0.322041 -2.93338 0
M  V30 739 H 66.0652 -1.73866 -1.87628 0
M  V30 740 H 65.7092 -3.24607 -3.90631 0
M  V30 741 H 65.6392 -1.80247 -4.94791 0
M  V30 742 H 68.1302 -1.6653 -3.39229 0
M  V30 743 H 68.4432 -3.95565 -6.63889 0
M  V30 744 H 66.7882 -3.55145 -5.97409 0
M  V30 745 H 69.9792 -2.13808 -4.16418 0
M  V30 746 H 70.1522 -3.1823 -5.64476 0
M  V30 747 N 63.5583 1.46682 -0.576371 0
M  V30 748 C 64.8063 2.02013 -0.0594163 0
M  V30 749 C 65.1273 1.45101 1.30271 0
M  V30 750 O 64.3973 0.633317 1.8538 0
M  V30 751 H 62.9773 0.746759 -0.0189745 0
M  V30 752 H 65.6393 1.79862 -0.750717 0
M  V30 753 H 64.7353 3.12097 0.014345 0
M  V30 754 N 65.0364 0.313813 1.54444 0
M  V30 755 C 65.9664 -0.549454 2.26943 0
M  V30 756 C 66.9474 -1.12741 1.27372 0
M  V30 757 O 68.1324 -1.15436 1.56167 0
M  V30 758 C 65.2624 -1.71523 3.01989 0
M  V30 759 C 64.2164 -1.26703 4.08816 0
M  V30 760 C 63.5424 -2.51898 4.71647 0
M  V30 761 C 64.8424 -0.388962 5.2085 0
M  V30 762 H 66.5364 0.0552661 2.99349 0
M  V30 763 H 64.0824 0.0280207 1.43973 0
M  V30 764 H 66.0354 -2.32535 3.51433 0
M  V30 765 H 64.7594 -2.34639 2.27183 0
M  V30 766 H 63.4184 -0.679896 3.6024 0
M  V30 767 H 63.0664 -3.13356 3.93468 0
M  V30 768 H 62.7664 -2.22605 5.43802 0
M  V30 769 H 64.2904 -3.1369 5.23861 0
M  V30 770 H 65.7044 -0.905107 5.6611 0
M  V30 771 H 64.1014 -0.18924 5.99802 0
M  V30 772 H 65.1714 0.582699 4.81386 0
M  V30 773 N 66.5145 -1.57545 0.0417849 0
M  V30 774 C 67.9305 -1.56467 -0.314704 0
M  V30 775 C 68.1305 -1.04859 -1.72066 0
M  V30 776 O 67.1865 -0.700983 -2.42575 0
M  V30 777 C 68.4995 -3.00317 -0.15174 0
M  V30 778 C 70.0475 -3.12201 -0.223553 0
M  V30 779 C 70.5225 -4.57913 -0.0892295 0
M  V30 780 N 72.0135 -4.6297 -0.145808 0
M  V30 781 C 72.7485 -5.73362 -0.0658459 0
M  V30 782 N 72.2445 -6.92769 0.0659282 0
M  V30 783 N 74.0375 -5.6197 -0.12075 0
M  V30 784 H 66.1885 -1.89416 0.961014 0
M  V30 785 H 68.4515 -0.871862 0.372237 0
M  V30 786 H 68.1575 -3.42073 0.817254 0
M  V30 787 H 68.0315 -3.65892 -0.916692 0
M  V30 788 H 70.4185 -2.70349 -1.18301 0
M  V30 789 H 70.4995 -2.49323 0.571994 0
M  V30 790 H 70.1435 -5.00448 0.866867 0
M  V30 791 H 70.0735 -5.18786 -0.903802 0
M  V30 792 H 72.5645 -3.7709 -0.247286 0
M  V30 793 H 72.8775 -7.72707 0.119905 0
M  V30 794 H 71.2225 -6.94927 0.100885 0
M  V30 795 H 74.4135 -4.67572 -0.222187 0
M  V30 796 H 74.5865 -6.47977 -0.0549735 0
M  V30 797 N 67.9926 0.231505 -1.5589 0
M  V30 798 C 68.9226 1.29022 -1.94617 0
M  V30 799 C 69.9036 1.4941 -0.813067 0
M  V30 800 O 71.0886 1.6176 -1.07459 0
M  V30 801 C 68.2186 2.64199 -2.25424 0
M  V30 802 C 67.1726 2.58484 -3.41131 0
M  V30 803 C 66.4986 3.97599 -3.57518 0
M  V30 804 C 67.7986 2.1413 -4.76388 0
M  V30 805 H 69.4926 0.968563 -2.83301 0
M  V30 806 H 67.0386 0.464479 -1.36303 0
M  V30 807 H 68.9916 3.38413 -2.51107 0
M  V30 808 H 67.7156 2.98032 -1.33583 0
M  V30 809 H 66.3746 1.86727 -3.15481 0
M  V30 810 H 66.0226 4.28723 -2.6307 0
M  V30 811 H 65.7226 3.94659 -4.35337 0
M  V30 812 H 67.2466 4.7349 -3.85538 0
M  V30 813 H 68.6606 2.78083 -5.01341 0
M  V30 814 H 67.0576 2.2227 -5.57419 0
M  V30 815 H 68.1276 1.09331 -4.72414 0
M  V30 816 N 69.4707 1.49531 0.497807 0
M  V30 817 C 70.3807 1.69176 1.62532 0
M  V30 818 C 71.3967 0.5744 1.64246 0
M  V30 819 O 72.5727 0.849497 1.82608 0
M  V30 820 C 69.6377 1.75695 2.98885 0
M  V30 821 C 68.6987 2.9929 3.07773 0
M  V30 822 C 67.9317 3.05488 4.37622 0
M  V30 823 O 68.1547 2.19192 5.26603 0
M  V30 824 O 67.0887 3.9798 4.51548 0
M  V30 825 H 70.9147 2.647 1.48887 0
M  V30 826 H 68.4997 1.3331 0.674441 0
M  V30 827 H 70.3817 1.82317 3.79919 0
M  V30 828 H 69.0567 0.8335 3.12785 0
M  V30 829 H 67.9637 2.98183 2.25915 0
M  V30 830 H 69.2967 3.91125 2.98801 0
M  V30 831 N 70.9488 -0.749086 1.3866 0
M  V30 832 C 72.1768 -1.53834 1.38358 0
M  V30 833 C 72.5918 -1.88783 -0.0255219 0
M  V30 834 O 71.9488 -1.53101 -0.993292 0
M  V30 835 C 71.9998 -2.83468 2.2434 0
M  V30 836 O 71.7208 -2.50008 3.5976 0
M  V30 837 C 73.2218 -3.7758 2.32267 0
M  V30 838 H 70.4418 -0.47585 0.473083 0
M  V30 839 H 72.9858 -0.926726 1.82297 0
M  V30 840 H 71.1408 -3.40995 1.83851 0
M  V30 841 H 71.5548 -3.33182 4.05081 0
M  V30 842 H 73.0288 -4.65478 2.96706 0
M  V30 843 H 73.5058 -4.18334 1.33765 0
M  V30 844 H 74.1118 -3.25976 2.73166 0
M  V30 845 N 72.4269 -1.23603 -0.977757 0
M  V30 846 C 73.3769 -0.986664 -2.05545 0
M  V30 847 C 74.3609 0.0683009 -1.60755 0
M  V30 848 O 75.5529 -0.144162 -1.76412 0
M  V30 849 C 72.6819 -0.582623 -3.3832 0
M  V30 850 C 71.7679 -1.67313 -3.89701 0
M  V30 851 N 72.1589 -2.90394 -4.14132 0
M  V30 852 C 70.4569 -1.54832 -4.18262 0
M  V30 853 C 71.1579 -3.61017 -4.56116 0
M  V30 854 N 70.1339 -2.8854 -4.60701 0
M  V30 855 H 73.9359 -1.92139 -2.22396 0
M  V30 856 H 71.4499 -1.1358 -1.16074 0
M  V30 857 H 73.4469 -0.38524 -4.15116 0
M  V30 858 H 72.1069 0.34503 -3.22862 0
M  V30 859 H 73.1179 -3.26673 -4.01877 0
M  V30 860 H 69.7949 -0.687969 -4.11793 0
M  V30 861 H 71.1849 -4.66544 -4.83514 0
M  V30 862 N 73.905 1.17692 -1.04816 0
M  V30 863 C 74.815 2.25229 -0.65643 0
M  V30 864 C 75.831 1.71018 0.320761 0
M  V30 865 O 77.007 2.00649 0.173805 0
M  V30 866 C 74.072 3.46684 -0.0332629 0
M  V30 867 C 73.133 4.15997 -1.06042 0
M  V30 868 C 72.366 5.31654 -0.466893 0
M  V30 869 O 72.589 5.65777 0.724758 0
M  V30 870 O 71.523 5.89831 -1.1993 0
M  V30 871 H 75.349 2.61016 -1.55255 0
M  V30 872 H 72.934 1.24919 -0.81949 0
M  V30 873 H 74.816 4.20234 0.313256 0
M  V30 874 H 73.491 3.12703 0.836566 0
M  V30 875 H 72.398 3.44482 -1.45886 0
M  V30 876 H 73.731 4.53996 -1.90127 0
M  V30 877 N 75.3831 0.828654 1.34056 0
M  V30 878 C 76.2931 0.256725 2.33191 0
M  V30 879 C 77.3091 -0.611898 1.62886 0
M  V30 880 O 78.4851 -0.51844 1.94613 0
M  V30 881 C 75.5501 -0.567238 3.42028 0
M  V30 882 C 74.6111 0.324458 4.28072 0
M  V30 883 C 73.8441 -0.460274 5.31712 0
M  V30 884 O 74.0671 -1.693 5.44696 0
M  V30 885 O 73.0011 0.160391 6.01686 0
M  V30 886 H 76.8271 1.07739 2.83947 0
M  V30 887 H 74.4121 0.59093 1.37217 0
M  V30 888 H 76.2941 -1.03582 4.08471 0
M  V30 889 H 74.9691 -1.36513 2.93506 0
M  V30 890 H 73.8761 0.840659 3.64532 0
M  V30 891 H 75.2091 1.08685 4.8005 0
M  V30 892 N 76.8612 -1.46375 0.584142 0
M  V30 893 C 77.8242 -2.28784 -0.138108 0
M  V30 894 C 78.8242 -1.38471 -0.817462 0
M  V30 895 O 80.0142 -1.60833 -0.669199 0
M  V30 896 C 77.1462 -3.18892 -1.20503 0
M  V30 897 H 78.3392 -2.94117 0.586127 0
M  V30 898 H 75.8922 -1.52509 0.342171 0
M  V30 899 H 76.6272 -2.58309 -1.96079 0
M  V30 900 H 76.4122 -3.85388 -0.722384 0
M  V30 901 H 77.9022 -3.80914 -1.71155 0
M  V30 902 N 78.3393 -0.321999 -1.54275 0
M  V30 903 C 79.5643 0.285791 -2.05422 0
M  V30 904 C 79.9893 1.45124 -1.19669 0
M  V30 905 O 79.3473 1.80132 -0.205441 0
M  V30 906 C 79.3953 0.69956 -3.53749 0
M  V30 907 O 78.4993 1.8021 -3.70942 0
M  V30 908 H 77.8403 0.0518962 -0.661969 0
M  V30 909 H 80.3703 -0.469954 -1.9913 0
M  V30 910 H 80.3803 0.982649 -3.9599 0
M  V30 911 H 79.0553 -0.152864 -4.15619 0
M  V30 912 H 77.6323 1.51794 -3.40607 0
M  V30 913 N 79.8174 1.5752 -0.0501392 0
M  V30 914 C 81.0634 1.92936 0.624798 0
M  V30 915 C 81.3964 0.928685 1.70555 0
M  V30 916 O 80.6714 -0.0454779 1.94447 0
M  V30 917 C 80.9544 3.38737 1.22185 0
M  V30 918 C 80.8074 4.49552 0.149218 0
M  V30 919 C 82.1264 3.84913 2.13378 0
M  V30 920 H 79.2454 0.701604 0.225657 0
M  V30 921 H 81.8874 1.89671 -0.111693 0
M  V30 922 H 80.0374 3.4165 1.84953 0
M  V30 923 H 81.7094 4.58768 -0.482648 0
M  V30 924 H 79.9524 4.30638 -0.522841 0
M  V30 925 H 80.6234 5.48653 0.606966 0
M  V30 926 H 83.0994 3.8387 1.60572 0
M  V30 927 H 81.9754 4.87584 2.52097 0
M  V30 928 H 82.2364 3.21611 3.03346 0
M  V30 929 N 81.2955 -0.223234 1.56011 0
M  V30 930 C 82.2425 -1.27664 1.92277 0
M  V30 931 C 83.2125 -1.46659 0.779763 0
M  V30 932 O 84.3975 -1.60256 1.03551 0
M  V30 933 C 81.5375 -2.62234 2.24338 0
M  V30 934 C 80.6505 -2.51051 3.51564 0
M  V30 935 C 79.7855 -3.78133 3.7308 0
M  V30 936 C 78.8245 -3.61665 4.93827 0
M  V30 937 N 77.9615 -4.80693 5.11741 0
M  V30 938 H 82.8015 -0.960358 2.82101 0
M  V30 939 H 80.3385 -0.462901 1.39627 0
M  V30 940 H 82.2965 -3.40596 2.40936 0
M  V30 941 H 80.9265 -2.91961 1.3769 0
M  V30 942 H 79.9785 -1.64132 3.43169 0
M  V30 943 H 81.2905 -2.34803 4.40079 0
M  V30 944 H 80.4445 -4.64938 3.89766 0
M  V30 945 H 79.1835 -3.97304 2.82844 0
M  V30 946 H 78.1885 -2.73244 4.77093 0
M  V30 947 H 79.4135 -3.43966 5.85546 0
M  V30 948 H 77.3595 -5.00181 4.24446 0
M  V30 949 H 77.2765 -4.67165 5.94384 0
M  V30 950 H 78.5445 -5.6893 5.3286 0
M  V30 951 N 82.7736 -1.49793 -0.48987 0
M  V30 952 C 83.7066 -1.61898 -1.60823 0
M  V30 953 C 84.6846 -0.467651 -1.5573 0
M  V30 954 O 85.8686 -0.684682 -1.75626 0
M  V30 955 C 82.9956 -1.58422 -2.99366 0
M  V30 956 C 82.0416 -2.78889 -3.22682 0
M  V30 957 S 82.8746 -4.40429 -3.04602 0
M  V30 958 C 84.0306 -4.39617 -4.4552 0
M  V30 959 H 84.2636 -2.56502 -1.50312 0
M  V30 960 H 81.7966 -1.38822 -0.675849 0
M  V30 961 H 83.7546 -1.57103 -3.79248 0
M  V30 962 H 82.4156 -0.650866 -3.07283 0
M  V30 963 H 81.6086 -2.72708 -4.23847 0
M  V30 964 H 81.2106 -2.77678 -2.50541 0
M  V30 965 H 83.5026 -4.12022 -5.37814 0
M  V30 966 H 84.4456 -5.41097 -4.56749 0
M  V30 967 H 84.8536 -3.69554 -4.2672 0
M  V30 968 N 84.2517 0.741722 -1.39055 0
M  V30 969 C 85.1817 1.869 -1.39966 0
M  V30 970 C 86.1627 1.6804 -0.26392 0
M  V30 971 O 87.3477 1.88458 -0.468755 0
M  V30 972 C 84.4777 3.24572 -1.23574 0
M  V30 973 C 83.4317 3.58056 -2.34477 0
M  V30 974 C 82.7577 4.94593 -2.0318 0
M  V30 975 C 84.0577 3.61716 -3.76774 0
M  V30 976 H 85.7517 1.86395 -2.34302 0
M  V30 977 H 83.2977 0.895361 -1.1278 0
M  V30 978 H 85.2507 4.031 -1.22834 0
M  V30 979 H 83.9747 3.25587 -0.257045 0
M  V30 980 H 82.6337 2.81854 -2.34423 0
M  V30 981 H 82.2817 4.92181 -1.03765 0
M  V30 982 H 81.9817 5.17964 -2.77465 0
M  V30 983 H 83.5057 5.75486 -2.04079 0
M  V30 984 H 84.9197 4.30335 -3.78794 0
M  V30 985 H 83.3167 3.96603 -4.50362 0
M  V30 986 H 84.3867 2.61672 -4.08235 0
M  V30 987 N 85.7298 1.2412 0.971189 0
M  V30 988 C 87.1408 1.07236 1.52831 0
M  V30 989 C 87.4918 -0.357352 1.92918 0
M  V30 990 O 86.6168 -1.24528 1.76979 0
M  V30 991 C 87.2118 1.94043 2.77728 0
M  V30 992 C 85.7708 1.81394 3.29808 0
M  V30 993 C 84.9178 1.89189 2.02738 0
M  V30 994 H 87.8688 1.37648 0.789864 0
M  V30 995 H 87.8898 1.47066 3.5093 0
M  V30 996 H 87.4018 2.98093 2.4852 0
M  V30 997 H 85.5028 0.801634 3.63874 0
M  V30 998 H 85.6158 2.65294 3.98944 0
M  V30 999 H 83.9798 1.32877 2.17292 0
M  V30 1000 H 84.7628 2.94812 1.759 0
M  V30 1001 N 87.2079 -1.17134 1.05439 0
M  V30 1002 C 88.4359 -1.91372 0.786414 0
M  V30 1003 C 88.8509 -1.76955 -0.658202 0
M  V30 1004 O 88.2079 -1.10838 -1.44987 0
M  V30 1005 C 88.2589 -3.42356 1.1608 0
M  V30 1006 O 87.9799 -3.56332 2.54871 0
M  V30 1007 C 89.4809 -4.33663 0.919322 0
M  V30 1008 H 86.7009 -0.607118 0.285743 0
M  V30 1009 H 89.2449 -1.48525 1.40572 0
M  V30 1010 H 87.3999 -3.82939 0.586191 0
M  V30 1011 H 87.8139 -4.49896 2.69618 0
M  V30 1012 H 89.2879 -5.38099 1.231 0
M  V30 1013 H 89.7649 -4.38959 -0.145359 0
M  V30 1014 H 90.3709 -3.98796 1.47789 0
M  V30 1015 N 88.686 -0.835752 -1.33615 0
M  V30 1016 C 89.916 -0.442701 -2.01801 0
M  V30 1017 C 90.324 0.959807 -1.63047 0
M  V30 1018 O 89.667 1.63468 -0.838088 0
M  V30 1019 C 89.729 -0.480125 -3.56279 0
M  V30 1020 C 89.393 -1.8382 -4.18401 0
M  V30 1021 C 90.39 -2.80097 -4.37998 0
M  V30 1022 C 88.075 -2.13019 -4.54894 0
M  V30 1023 C 90.069 -4.03736 -4.9323 0
M  V30 1024 C 87.756 -3.36916 -5.09834 0
M  V30 1025 C 88.754 -4.32091 -5.28948 0
M  V30 1026 O 88.442 -5.53797 -5.82721 0
M  V30 1027 H 88.174 -0.17441 -0.653114 0
M  V30 1028 H 90.728 -1.129 -1.71589 0
M  V30 1029 H 88.958 0.262931 -3.85805 0
M  V30 1030 H 90.647 -0.105335 -4.05763 0
M  V30 1031 H 91.413 -2.58838 -4.10156 0
M  V30 1032 H 87.292 -1.39733 -4.39313 0
M  V30 1033 H 90.836 -4.78034 -5.08064 0
M  V30 1034 H 86.733 -3.58033 -5.37106 0
M  V30 1035 H 87.501 -5.55494 -6.0114 0
M  V30 1036 N 90.1641 1.46063 -0.591896 0
M  V30 1037 C 91.4101 2.02638 -0.0811191 0
M  V30 1038 C 91.7431 1.4613 1.27905 0
M  V30 1039 O 91.0181 0.629908 1.84017 0
M  V30 1040 C 91.3011 3.60091 -0.0252436 0
M  V30 1041 C 91.1541 4.26965 -1.41496 0
M  V30 1042 C 92.4731 4.3496 0.670685 0
M  V30 1043 H 89.5921 0.73635 -0.0309524 0
M  V30 1044 H 92.2341 1.741 -0.760859 0
M  V30 1045 H 90.3841 3.84535 0.553624 0
M  V30 1046 H 92.0561 4.13756 -2.0397 0
M  V30 1047 H 90.2991 3.85971 -1.98011 0
M  V30 1048 H 90.9701 5.35781 -1.32825 0
M  V30 1049 H 93.4461 4.15716 0.178825 0
M  V30 1050 H 92.3221 5.44686 0.678837 0
M  V30 1051 H 92.5831 4.06685 1.73379 0
M  V30 1052 N 91.6422 0.330177 1.54103 0
M  V30 1053 C 93.0582 -0.0222371 1.59585 0
M  V30 1054 C 93.2582 -1.49902 1.34654 0
M  V30 1055 O 92.3142 -2.25592 1.13421 0
M  V30 1056 C 93.6272 0.401932 2.98002 0
M  V30 1057 C 95.1752 0.353145 3.11001 0
M  V30 1058 C 95.6502 0.752576 4.51775 0
M  V30 1059 N 97.1412 0.706239 4.57784 0
M  V30 1060 C 97.8762 0.987417 5.64834 0
M  V30 1061 N 97.3722 1.33607 6.79795 0
M  V30 1062 N 99.1652 0.91254 5.54643 0
M  V30 1063 H 91.3162 1.29228 1.68564 0
M  V30 1064 H 93.5792 0.525906 0.78875 0
M  V30 1065 H 93.2852 1.4311 3.21267 0
M  V30 1066 H 93.1592 -0.229699 3.765 0
M  V30 1067 H 95.5462 -0.666822 2.87467 0
M  V30 1068 H 95.6272 1.0198 2.34593 0
M  V30 1069 H 95.2712 1.77049 4.76042 0
M  V30 1070 H 95.2012 0.0635409 5.26562 0
M  V30 1071 H 97.6922 0.44889 3.75224 0
M  V30 1072 H 98.0052 1.53582 7.57385 0
M  V30 1073 H 96.3502 1.37439 6.81275 0
M  V30 1074 H 99.5412 0.639601 4.6371 0
M  V30 1075 H 99.7142 1.13503 6.37982 0
M  V30 1076 N 93.1203 -1.57491 0.0584922 0
M  V30 1077 C 94.3453 -1.97711 -0.62652 0
M  V30 1078 C 94.7703 -0.936132 -1.63151 0
M  V30 1079 O 94.1283 0.099811 -1.81025 0
M  V30 1080 C 94.1763 -3.36989 -1.28338 0
M  V30 1081 O 93.2803 -3.35433 -2.39913 0
M  V30 1082 H 92.6213 -0.643868 -0.162266 0
M  V30 1083 H 95.1513 -2.04193 0.129064 0
M  V30 1084 H 95.1613 -3.73879 -1.63335 0
M  V30 1085 H 93.8363 -4.12289 -0.546889 0
M  V30 1086 H 92.4133 -3.10298 -2.06809 0
M  V30 1087 N 94.5984 0.214957 -1.56127 0
M  V30 1088 C 95.8264 0.955092 -1.83536 0
M  V30 1089 C 96.2414 1.77677 -0.638472 0
M  V30 1090 O 95.5984 1.78219 0.392968 0
M  V30 1091 C 95.6494 1.86734 -3.09536 0
M  V30 1092 O 95.3704 1.07887 -4.24608 0
M  V30 1093 C 96.8714 2.72082 -3.4998 0
M  V30 1094 H 94.0914 0.279611 -0.609966 0
M  V30 1095 H 96.6354 0.228197 -2.03223 0
M  V30 1096 H 94.7904 2.5481 -2.91806 0
M  V30 1097 H 95.2044 1.69872 -4.9623 0
M  V30 1098 H 96.6784 3.31782 -4.41163 0
M  V30 1099 H 97.1554 3.44806 -2.7204 0
M  V30 1100 H 97.7614 2.09409 -3.70173 0
M  V30 1101 N 96.0765 1.50051 0.48192 0
M  V30 1102 C 97.4875 1.5348 1.06305 0
M  V30 1103 C 97.8385 0.331997 1.93371 0
M  V30 1104 O 96.9635 -0.556256 2.09129 0
M  V30 1105 C 97.5585 2.7813 1.93466 0
M  V30 1106 C 96.1175 2.84275 2.46707 0
M  V30 1107 C 95.2645 2.47637 1.24785 0
M  V30 1108 H 98.2155 1.56472 0.264995 0
M  V30 1109 H 98.2365 2.59372 2.78399 0
M  V30 1110 H 97.7485 3.65654 1.30072 0
M  V30 1111 H 95.8495 2.01077 3.13686 0
M  V30 1112 H 95.9625 3.8691 2.82555 0
M  V30 1113 H 94.3265 1.99835 1.57918 0
M  V30 1114 H 95.1095 3.37457 0.630694 0
M  V30 1115 N 97.5546 -0.734337 1.39446 0
M  V30 1116 C 98.4646 -1.87879 1.40495 0
M  V30 1117 C 99.4806 -1.714 0.299672 0
M  V30 1118 O 100.657 -1.93991 0.541249 0
M  V30 1119 C 97.7216 -3.23477 1.24754 0
M  V30 1120 C 96.7826 -3.52344 2.45259 0
M  V30 1121 C 96.0156 -4.81473 2.30259 0
M  V30 1122 O 96.2386 -5.55237 1.30643 0
M  V30 1123 O 95.1726 -5.10254 3.19256 0
M  V30 1124 H 98.9986 -1.89949 2.36966 0
M  V30 1125 H 96.5836 -0.882243 1.20569 0
M  V30 1126 H 98.4656 -4.04509 1.18111 0
M  V30 1127 H 97.1406 -3.22176 0.313781 0
M  V30 1128 H 96.0476 -2.71396 2.57478 0
M  V30 1129 H 97.3806 -3.58426 3.37331 0
M  V30 1130 N 99.0327 -1.24633 -0.964593 0
M  V30 1131 C 100.281 -1.08573 -1.70459 0
M  V30 1132 C 100.602 0.375655 -1.91347 0
M  V30 1133 O 99.8717 1.26779 -1.49345 0
M  V30 1134 H 98.4517 -0.398784 -0.631649 0
M  V30 1135 H 101.114 -1.56601 -1.16026 0
M  V30 1136 H 100.21 -1.58623 -2.68785 0
M  V30 1137 N 100.511 1.16574 -1.06058 0
M  V30 1138 C 101.736 1.91493 -0.796562 0
M  V30 1139 C 102.161 1.76773 0.642868 0
M  V30 1140 O 101.519 1.09142 1.44768 0
M  V30 1141 C 101.567 3.40293 -1.19303 0
M  V30 1142 O 100.671 4.11074 -0.330394 0
M  V30 1143 H 100.012 0.596678 -0.291326 0
M  V30 1144 H 102.542 1.47708 -1.41575 0
M  V30 1145 H 102.552 3.91057 -1.16356 0
M  V30 1146 H 101.227 3.50326 -2.24153 0
M  V30 1147 H 99.8038 3.70513 -0.421225 0
M  V30 1148 N 101.989 0.842826 1.3317 0
M  V30 1149 C 102.899 0.281444 2.32906 0
M  V30 1150 C 103.915 -0.594587 1.63526 0
M  V30 1151 O 105.091 -0.49777 1.95152 0
M  V30 1152 C 102.156 -0.530929 3.42611 0
M  V30 1153 C 101.217 0.369843 4.27704 0
M  V30 1154 C 100.45 -0.403853 5.3217 0
M  V30 1155 O 100.673 -1.63513 5.46461 0
M  V30 1156 O 99.6069 0.224199 6.01482 0
M  V30 1157 H 103.433 1.10744 2.82789 0
M  V30 1158 H 101.018 0.60545 1.36582 0
M  V30 1159 H 102.9 -0.992437 4.09547 0
M  V30 1160 H 101.575 -1.33392 2.94938 0
M  V30 1161 H 100.482 0.879275 3.6362 0
M  V30 1162 H 101.815 1.13771 4.78871 0
M  V30 1163 N 103.467 -1.45747 0.599634 0
M  V30 1164 C 104.713 -2.02592 0.0918643 0
M  V30 1165 C 105.046 -1.46806 -1.27128 0
M  V30 1166 O 104.321 -0.639658 -1.83681 0
M  V30 1167 C 104.604 -3.60073 0.0443398 0
M  V30 1168 C 104.457 -4.26208 1.43759 0
M  V30 1169 C 105.776 -4.35309 -0.647608 0
M  V30 1170 H 102.895 -0.736175 0.034857 0
M  V30 1171 H 105.537 -1.73694 0.770081 0
M  V30 1172 H 103.687 -3.84823 -0.533224 0
M  V30 1173 H 105.359 -4.12668 2.06162 0
M  V30 1174 H 103.602 -3.84916 2.00056 0
M  V30 1175 H 104.273 -5.35069 1.35665 0
M  V30 1176 H 106.749 -4.15805 -0.156776 0
M  V30 1177 H 105.625 -5.45038 -0.649942 0
M  V30 1178 H 105.886 -4.07598 -1.71219 0
M  V30 1179 N 104.945 -0.338344 -1.53925 0
M  V30 1180 C 106.193 0.259245 -2.0043 0
M  V30 1181 C 106.514 1.51484 -1.22791 0
M  V30 1182 O 105.784 1.93037 -0.33368 0
M  V30 1183 H 104.364 0.0987845 -0.740439 0
M  V30 1184 H 107.026 -0.458302 -1.89435 0
M  V30 1185 H 106.122 0.505334 -3.07982 0
M  V30 1186 N 106.423 1.57458 -0.0668435 0
M  V30 1187 C 107.7 1.8469 0.644132 0
M  V30 1188 C 108.08 0.958343 1.88093 0
M  V30 1189 O 107.428 0.0233579 2.28488 0
M  V30 1190 C 107.638 3.34767 0.986509 0
M  V30 1191 C 108.986 4.02159 1.36212 0
M  V30 1192 O 110.01 3.39484 1.07839 0
M  V30 1193 O 108.869 5.12694 1.89227 0
M  V30 1194 H 105.963 0.762816 0.319437 0
M  V30 1195 H 108.509 1.6942 -0.0973986 0
M  V30 1196 H 107.281 3.91151 0.107883 0
M  V30 1197 H 106.904 3.55281 1.78497 0
M  V30 1198 N 107.901 -0.206675 1.56239 0
M  V30 1199 C 109.148 -0.928842 1.79941 0
M  V30 1200 C 109.476 -1.83734 0.638131 0
M  V30 1201 O 108.731 -1.92039 -0.376746 0
M  V30 1202 C 109.03 -1.78675 3.09532 0
M  V30 1203 C 108.696 -1.03022 4.38973 0
M  V30 1204 C 107.358 -0.821302 4.74139 0
M  V30 1205 C 109.71 -0.497081 5.18824 0
M  V30 1206 C 107.038 -0.0675719 5.86661 0
M  V30 1207 C 109.39 0.24338 6.32132 0
M  V30 1208 C 108.054 0.463422 6.65889 0
M  V30 1209 H 107.324 -0.339887 0.658451 0
M  V30 1210 H 109.971 -0.195977 1.90495 0
M  V30 1211 H 108.276 -2.58794 2.94165 0
M  V30 1212 H 109.973 -2.34792 3.25075 0
M  V30 1213 H 106.563 -1.20306 4.11369 0
M  V30 1214 H 110.747 -0.645921 4.92079 0
M  V30 1215 H 106.003 0.112995 6.11296 0
M  V30 1216 H 110.177 0.66393 6.93228 0
M  V30 1217 H 107.804 1.04938 7.52922 0
M  V30 1218 N 109.379 -1.50304 -0.473955 0
M  V30 1219 C 110.309 -1.71886 -1.58042 0
M  V30 1220 C 111.29 -0.567799 -1.60344 0
M  V30 1221 O 112.475 -0.806623 -1.76656 0
M  V30 1222 C 109.605 -1.81036 -2.96384 0
M  V30 1223 C 108.559 -2.962 -3.08949 0
M  V30 1224 C 107.885 -2.9049 -4.48909 0
M  V30 1225 C 109.185 -4.36752 -2.86434 0
M  V30 1226 H 110.879 -2.64527 -1.40234 0
M  V30 1227 H 108.425 -1.27295 -0.673201 0
M  V30 1228 H 110.378 -1.94719 -3.73714 0
M  V30 1229 H 109.102 -0.850147 -3.15341 0
M  V30 1230 H 107.761 -2.82164 -2.3405 0
M  V30 1231 H 107.409 -1.92321 -4.64781 0
M  V30 1232 H 107.109 -3.67802 -4.58253 0
M  V30 1233 H 108.633 -3.06218 -5.28264 0
M  V30 1234 H 110.047 -4.5133 -3.53517 0
M  V30 1235 H 108.444 -5.15493 -3.07225 0
M  V30 1236 H 109.514 -4.49321 -1.82316 0
M  V30 1237 N 110.857 0.726932 -1.39834 0
M  V30 1238 C 112.082 1.52121 -1.40976 0
M  V30 1239 C 112.507 1.88098 -0.00826029 0
M  V30 1240 O 111.865 1.52479 0.980807 0
M  V30 1241 C 111.913 2.78021 -2.29644 0
M  V30 1242 O 111.017 3.74272 -1.73188 0
M  V30 1243 H 110.358 0.45908 -0.479731 0
M  V30 1244 H 112.888 0.896207 -1.83927 0
M  V30 1245 H 112.898 3.26671 -2.44438 0
M  V30 1246 H 111.573 2.51169 -3.31492 0
M  V30 1247 H 110.15 3.33073 -1.6768 0
M  V30 1248 N 112.336 1.25143 0.95797 0
M  V30 1249 C 113.266 1.07711 2.07173 0
M  V30 1250 C 114.247 -0.0128462 1.70095 0
M  V30 1251 O 115.432 0.156061 1.93572 0
M  V30 1252 C 112.562 0.691503 3.40346 0
M  V30 1253 C 111.516 1.73132 3.9142 0
M  V30 1254 C 110.842 1.20049 5.21049 0
M  V30 1255 C 112.142 3.1294 4.1817 0
M  V30 1256 H 113.836 2.00873 2.22014 0
M  V30 1257 H 111.382 0.967191 1.06684 0
M  V30 1258 H 113.335 0.556505 4.17709 0
M  V30 1259 H 112.059 -0.275819 3.25433 0
M  V30 1260 H 110.718 1.8547 3.16222 0
M  V30 1261 H 110.366 0.223499 5.02503 0
M  V30 1262 H 110.066 1.89545 5.56189 0
M  V30 1263 H 111.59 1.07782 6.01012 0
M  V30 1264 H 113.004 3.03775 4.86203 0
M  V30 1265 H 111.401 3.79875 4.64559 0
M  V30 1266 H 112.471 3.6025 3.24573 0
M  V30 1267 N 113.814 -1.1601 1.06675 0
M  V30 1268 C 115.091 -1.82679 0.699114 0
M  V30 1269 C 115.471 -1.94559 -0.819137 0
M  V30 1270 O 114.819 -1.49169 -1.73092 0
M  V30 1271 C 115.029 -3.19445 1.40555 0
M  V30 1272 C 116.377 -3.95171 1.55323 0
M  V30 1273 O 117.401 -3.28976 1.36577 0
M  V30 1274 O 116.26 -5.13833 1.86112 0
M  V30 1275 H 113.354 -0.788954 0.247951 0
M  V30 1276 H 115.9 -1.23179 1.16726 0
M  V30 1277 H 114.672 -3.05856 2.44065 0
M  V30 1278 H 114.295 -3.86625 0.927733 0
M  V30 1279 N 115.292 -0.849877 -1.32721 0
M  V30 1280 C 116.222 -0.306308 -2.31482 0
M  V30 1281 C 117.203 0.591952 -1.59468 0
M  V30 1282 O 118.388 0.513199 -1.87296 0
M  V30 1283 C 115.518 0.510204 -3.43532 0
M  V30 1284 C 114.472 -0.293209 -4.26994 0
M  V30 1285 C 113.798 0.647743 -5.30762 0
M  V30 1286 C 115.098 -1.51634 -4.99804 0
M  V30 1287 H 116.792 -1.13153 -2.77195 0
M  V30 1288 H 114.338 -0.545553 -1.33266 0
M  V30 1289 H 116.291 0.900856 -4.11658 0
M  V30 1290 H 115.015 1.36874 -2.96535 0
M  V30 1291 H 113.674 -0.665555 -3.60508 0
M  V30 1292 H 113.322 1.50299 -4.8002 0
M  V30 1293 H 113.022 0.11422 -5.87489 0
M  V30 1294 H 114.546 1.03567 -6.01753 0
M  V30 1295 H 115.96 -1.19824 -5.60638 0
M  V30 1296 H 114.357 -1.98745 -5.66234 0
M  V30 1297 H 115.427 -2.28018 -4.27943 0
M  V30 1298 N 116.77 1.45427 -0.607355 0
M  V30 1299 C 118.018 2.01841 -0.102253 0
M  V30 1300 C 118.339 1.47832 1.27164 0
M  V30 1301 O 117.609 0.672497 1.83995 0
M  V30 1302 H 116.189 0.746188 -0.0348101 0
M  V30 1303 H 118.851 1.78229 -0.7887 0
M  V30 1304 H 117.947 3.12057 -0.0518585 0
M  V30 1305 N 118.248 0.346503 1.53744 0
M  V30 1306 C 119.496 -0.248612 2.00565 0
M  V30 1307 C 119.817 -1.5083 1.23593 0
M  V30 1308 O 119.087 -1.92858 0.343912 0
M  V30 1309 H 117.667 -0.0948564 0.740953 0
M  V30 1310 H 120.329 0.468341 1.89189 0
M  V30 1311 H 119.425 -0.488994 3.08245 0
M  V30 1312 N 119.726 -1.57421 0.075193 0
M  V30 1313 C 120.954 -1.97946 -0.602076 0
M  V30 1314 C 121.369 -0.953674 -1.62943 0
M  V30 1315 O 120.726 0.0592551 -1.82404 0
M  V30 1316 C 120.777 -3.38546 -1.26762 0
M  V30 1317 O 120.498 -4.37195 -0.281376 0
M  V30 1318 C 121.999 -3.93966 -2.03239 0
M  V30 1319 H 119.219 -0.650918 -0.162931 0
M  V30 1320 H 121.763 -2.03959 0.148601 0
M  V30 1321 H 119.918 -3.33609 -1.96936 0
M  V30 1322 H 120.332 -5.18975 -0.759267 0
M  V30 1323 H 121.806 -4.94555 -2.45193 0
M  V30 1324 H 122.283 -3.30693 -2.8903 0
M  V30 1325 H 122.889 -4.02315 -1.37924 0
M  V30 1326 N 121.204 0.198386 -1.56346 0
M  V30 1327 C 122.152 1.26538 -1.95169 0
M  V30 1328 C 123.146 1.47295 -0.836685 0
M  V30 1329 O 124.352 1.48195 -1.02167 0
M  V30 1330 H 120.727 0.424744 -0.620561 0
M  V30 1331 H 122.698 0.910904 -2.84157 0
M  V30 1332 C 121.447 2.6035 -2.30463 0
M  V30 1333 H 120.77 2.45192 -3.15786 0
M  V30 1334 H 122.21 3.33762 -2.61494 0
M  V30 1335 C 120.669 3.17096 -1.13806 0
M  V30 1336 O 121.199 3.99588 -0.41135 0
M  V30 1337 N 119.405 2.75795 -0.915736 0
M  V30 1338 H 118.952 2.08816 -1.50843 0
M  V30 1339 H 118.91 3.14101 -0.136979 0
M  V30 1340 N 122.682 1.50554 0.465978 0
M  V30 1341 C 123.929 1.61798 1.21768 0
M  V30 1342 C 124.257 0.320696 1.91838 0
M  V30 1343 O 123.512 -0.693724 1.82992 0
M  V30 1344 C 123.811 2.75152 2.28093 0
M  V30 1345 C 123.477 4.15454 1.75239 0
M  V30 1346 C 122.139 4.53628 1.60546 0
M  V30 1347 C 124.491 5.03121 1.36083 0
M  V30 1348 C 121.819 5.77204 1.05128 0
M  V30 1349 C 124.171 6.27249 0.821056 0
M  V30 1350 C 122.835 6.64221 0.660795 0
M  V30 1351 H 122.105 0.592063 0.445582 0
M  V30 1352 H 124.752 1.84503 0.512927 0
M  V30 1353 H 123.057 2.46556 3.04496 0
M  V30 1354 H 124.754 2.81055 2.86023 0
M  V30 1355 H 121.344 3.85341 1.87644 0
M  V30 1356 H 125.528 4.74257 1.46267 0
M  V30 1357 H 120.784 6.0452 0.91462 0
M  V30 1358 H 124.958 6.94537 0.509018 0
M  V30 1359 H 122.585 7.59854 0.229226 0
M  V30 1360 N 124.16 -0.719506 1.40217 0
M  V30 1361 C 125.576 -1.02707 1.22161 0
M  V30 1362 C 125.776 -2.0128 0.0940557 0
M  V30 1363 O 124.832 -2.46452 -0.549318 0
M  V30 1364 C 126.145 -1.57454 2.56181 0
M  V30 1365 C 127.693 -1.69458 2.63159 0
M  V30 1366 C 128.168 -2.27611 3.97438 0
M  V30 1367 N 129.659 -2.35002 3.99159 0
M  V30 1368 C 130.394 -2.80972 4.99842 0
M  V30 1369 N 129.89 -3.26723 6.10921 0
M  V30 1370 N 131.683 -2.80321 4.87213 0
M  V30 1371 H 123.834 -0.0660492 2.12297 0
M  V30 1372 H 126.097 -0.0919077 0.943534 0
M  V30 1373 H 125.803 -0.924873 3.39321 0
M  V30 1374 H 125.677 -2.56036 2.76993 0
M  V30 1375 H 128.064 -2.33543 1.80393 0
M  V30 1376 H 128.145 -0.694867 2.46181 0
M  V30 1377 H 127.789 -1.6415 4.80643 0
M  V30 1378 H 127.719 -3.2829 4.11744 0
M  V30 1379 H 130.21 -2.02685 3.18947 0
M  V30 1380 H 130.523 -3.60355 6.8364 0
M  V30 1381 H 128.868 -3.24692 6.14492 0
M  V30 1382 H 132.059 -2.43912 3.9953 0
M  V30 1383 H 132.232 -3.15831 5.65822 0
M  V30 1384 N 125.638 -1.25649 -0.95132 0
M  V30 1385 C 126.884 -1.10757 -1.69884 0
M  V30 1386 C 127.217 0.350061 -1.91019 0
M  V30 1387 O 126.492 1.25783 -1.48354 0
M  V30 1388 C 126.775 -1.86606 -3.07978 0
M  V30 1389 C 126.628 -3.40217 -2.94232 0
M  V30 1390 C 127.947 -1.65182 -4.07925 0
M  V30 1391 H 125.066 -0.40374 -0.616574 0
M  V30 1392 H 127.708 -1.54521 -1.10558 0
M  V30 1393 H 125.858 -1.49409 -3.58621 0
M  V30 1394 H 127.53 -3.87108 -2.50889 0
M  V30 1395 H 125.773 -3.67759 -2.30078 0
M  V30 1396 H 126.444 -3.88505 -3.92133 0
M  V30 1397 H 128.92 -1.9757 -3.66204 0
M  V30 1398 H 127.796 -2.20683 -5.02583 0
M  V30 1399 H 128.057 -0.593933 -4.38092 0
M  V30 1400 N 127.117 1.15442 -1.07289 0
M  V30 1401 C 128.05 2.19135 -0.636798 0
M  V30 1402 C 129.028 1.58884 0.34562 0
M  V30 1403 O 130.212 1.86805 0.252195 0
M  V30 1404 C 127.339 3.38638 0.0650014 0
M  V30 1405 C 126.385 4.17412 -0.87576 0
M  V30 1406 S 127.218 4.79882 -2.37642 0
M  V30 1407 C 128.374 6.02753 -1.6864 0
M  V30 1408 H 128.607 2.55787 -1.51526 0
M  V30 1409 H 126.14 1.26394 -0.886793 0
M  V30 1410 H 128.098 4.07873 0.463664 0
M  V30 1411 H 126.759 3.00331 0.919801 0
M  V30 1412 H 125.952 5.02909 -0.33143 0
M  V30 1413 H 125.554 3.53722 -1.21478 0
M  V30 1414 H 127.846 6.70113 -0.997753 0
M  V30 1415 H 128.789 6.61754 -2.51967 0
M  V30 1416 H 129.197 5.52355 -1.16465 0
M  V30 1417 N 128.595 0.856903 1.32268 0
M  V30 1418 C 129.525 0.31858 2.31316 0
M  V30 1419 C 130.506 -0.583487 1.59779 0
M  V30 1420 O 131.691 -0.503259 1.87566 0
M  V30 1421 C 128.821 -0.491979 3.43798 0
M  V30 1422 C 127.775 0.315849 4.26833 0
M  V30 1423 C 127.101 -0.619586 5.31098 0
M  V30 1424 C 128.401 1.54282 4.98993 0
M  V30 1425 H 130.095 1.14621 2.76591 0
M  V30 1426 H 127.641 0.552613 1.32974 0
M  V30 1427 H 129.594 -0.879012 4.1213 0
M  V30 1428 H 128.318 -1.35299 2.97257 0
M  V30 1429 H 126.977 0.684664 3.6015 0
M  V30 1430 H 126.625 -1.47751 4.8081 0
M  V30 1431 H 126.325 -0.0830621 5.87541 0
M  V30 1432 H 127.849 -1.00375 6.02293 0
M  V30 1433 H 129.263 1.22796 5.59995 0
M  V30 1434 H 127.66 2.01745 5.65172 0
M  V30 1435 H 128.73 2.30285 4.26728 0
M  V30 1436 N 130.073 -1.45103 0.615059 0
M  V30 1437 C 131.319 -2.02483 0.113347 0
M  V30 1438 C 131.652 -1.48146 -1.25564 0
M  V30 1439 O 130.927 -0.659104 -1.82992 0
M  V30 1440 C 131.21 -3.60005 0.0825278 0
M  V30 1441 C 131.063 -4.2466 1.48271 0
M  V30 1442 C 132.382 -4.35972 -0.601401 0
M  V30 1443 H 129.501 -0.735764 0.0426632 0
M  V30 1444 H 132.143 -1.72868 0.788461 0
M  V30 1445 H 130.293 -3.85367 -0.492378 0
M  V30 1446 H 131.965 -4.10458 2.10527 0
M  V30 1447 H 130.208 -3.82772 2.04127 0
M  V30 1448 H 130.879 -5.336 1.41332 0
M  V30 1449 H 133.355 -4.15947 -0.112666 0
M  V30 1450 H 132.231 -5.45697 -0.592097 0
M  V30 1451 H 132.492 -4.09391 -1.66887 0
M  V30 1452 N 131.551 -0.354651 -1.53558 0
M  V30 1453 C 132.498 0.496968 -2.25386 0
M  V30 1454 C 133.468 1.0865 -1.25636 0
M  V30 1455 O 134.653 1.12104 -1.54394 0
M  V30 1456 C 131.793 1.63637 -3.03837 0
M  V30 1457 C 130.906 1.07307 -4.18461 0
M  V30 1458 C 130.041 2.18068 -4.84376 0
M  V30 1459 C 129.08 1.59147 -5.91049 0
M  V30 1460 N 128.217 2.63695 -6.50699 0
M  V30 1461 H 133.057 -0.122075 -2.9775 0
M  V30 1462 H 130.594 -0.0720154 -1.46924 0
M  V30 1463 H 132.552 2.30734 -3.47589 0
M  V30 1464 H 131.182 2.22623 -2.33749 0
M  V30 1465 H 130.234 0.292708 -3.79272 0
M  V30 1466 H 131.546 0.602193 -4.95152 0
M  V30 1467 H 130.7 2.93007 -5.31255 0
M  V30 1468 H 129.439 2.68504 -4.07133 0
M  V30 1469 H 128.444 0.827175 -5.43542 0
M  V30 1470 H 129.669 1.09549 -6.70206 0
M  V30 1471 H 127.615 3.13365 -5.76315 0
M  V30 1472 H 127.532 2.21263 -7.22896 0
M  V30 1473 H 128.8 3.3837 -7.02229 0
M  V30 1474 N 133.029 1.57378 -0.0835403 0
M  V30 1475 C 134.275 1.94217 0.583733 0
M  V30 1476 C 134.608 0.964653 1.68547 0
M  V30 1477 O 133.883 -0.00422258 1.945 0
M  V30 1478 C 134.166 3.41253 1.14972 0
M  V30 1479 C 134.019 4.49768 0.0538277 0
M  V30 1480 C 135.338 3.89352 2.05166 0
M  V30 1481 H 132.457 0.706233 0.210724 0
M  V30 1482 H 135.099 1.89392 -0.1519 0
M  V30 1483 H 133.249 3.45496 1.77665 0
M  V30 1484 H 134.921 4.57641 -0.579851 0
M  V30 1485 H 133.164 4.29432 -0.614068 0
M  V30 1486 H 133.835 5.49817 0.490452 0
M  V30 1487 H 136.311 3.87189 1.52393 0
M  V30 1488 H 135.187 4.92822 2.41698 0
M  V30 1489 H 135.448 3.27973 2.96456 0
M  V30 1490 N 134.507 -0.190092 1.56449 0
M  V30 1491 C 135.755 -0.907908 1.80559 0
M  V30 1492 C 136.076 -1.83583 0.657438 0
M  V30 1493 O 135.346 -1.93203 -0.323924 0
M  V30 1494 H 133.926 -0.338247 0.666032 0
M  V30 1495 H 136.588 -0.194403 1.93928 0
M  V30 1496 H 135.684 -1.49604 2.73907 0
M  V30 1497 N 135.985 -1.50799 -0.457987 0
M  V30 1498 C 136.895 -1.73426 -1.57989 0
M  V30 1499 C 137.911 -0.617745 -1.62665 0
M  V30 1500 O 139.087 -0.897614 -1.80291 0
M  V30 1501 C 136.152 -1.83557 -2.94122 0
M  V30 1502 C 135.213 -3.07345 -2.99729 0
M  V30 1503 C 134.446 -3.16983 -4.29368 0
M  V30 1504 O 134.669 -2.33077 -5.20607 0
M  V30 1505 O 133.603 -4.09812 -4.40837 0
M  V30 1506 H 137.429 -2.68555 -1.41817 0
M  V30 1507 H 135.014 -1.35052 -0.638859 0
M  V30 1508 H 136.896 -1.92326 -3.74952 0
M  V30 1509 H 135.571 -0.916137 -3.10465 0
M  V30 1510 H 134.478 -3.04068 -2.1793 0
M  V30 1511 H 135.811 -3.9891 -2.88326 0
M  V30 1512 N 137.463 0.71206 -1.40597 0
M  V30 1513 C 138.711 1.46907 -1.38791 0
M  V30 1514 C 139.032 1.94998 0.00780391 0
M  V30 1515 O 138.302 1.70587 0.963174 0
M  V30 1516 H 136.882 0.545043 -0.51082 0
M  V30 1517 H 139.544 0.843882 -1.75683 0
M  V30 1518 H 138.64 2.34021 -2.06496 0
M  V30 1519 N 138.941 1.26152 0.944643 0
M  V30 1520 C 139.851 1.09176 2.07648 0
M  V30 1521 C 140.867 0.0261935 1.7398 0
M  V30 1522 O 142.043 0.229208 2.00091 0
M  V30 1523 C 139.108 0.722915 3.39079 0
M  V30 1524 C 138.169 1.86752 3.86552 0
M  V30 1525 C 137.402 1.51617 5.11711 0
M  V30 1526 O 137.625 0.416331 5.68879 0
M  V30 1527 O 136.559 2.34975 5.54139 0
M  V30 1528 H 140.385 2.0412 2.24875 0
M  V30 1529 H 137.97 1.05182 1.061 0
M  V30 1530 H 139.852 0.529787 4.18056 0
M  V30 1531 H 138.527 -0.197159 3.23099 0
M  V30 1532 H 137.434 2.11558 3.08535 0
M  V30 1533 H 138.767 2.76719 4.07047 0
M  V30 1534 N 140.419 -1.14872 1.07899 0
M  V30 1535 C 141.329 -2.2341 0.715915 0
M  V30 1536 C 142.345 -1.71808 -0.275306 0
M  V30 1537 O 143.521 -2.01039 -0.120545 0
M  V30 1538 C 140.586 -3.46474 0.125168 0
M  V30 1539 C 139.647 -4.13039 1.17034 0
M  V30 1540 C 138.88 -5.30229 0.607688 0
M  V30 1541 O 139.103 -5.675 -0.574497 0
M  V30 1542 O 138.037 -5.86444 1.35526 0
M  V30 1543 H 141.863 -2.56808 1.62121 0
M  V30 1544 H 139.448 -1.22702 0.852322 0
M  V30 1545 H 141.33 -4.20917 -0.201729 0
M  V30 1546 H 140.005 -3.14811 -0.753364 0
M  V30 1547 H 138.912 -3.40493 1.54968 0
M  V30 1548 H 140.245 -4.48796 2.02097 0
M  V30 1549 N 141.898 -0.863906 -1.31812 0
M  V30 1550 C 143.146 -0.470904 -1.96537 0
M  V30 1551 C 143.467 0.978771 -1.68657 0
M  V30 1552 O 142.737 1.6853 -0.998717 0
M  V30 1553 H 141.317 -0.171148 -0.72713 0
M  V30 1554 H 143.979 -1.10236 -1.60729 0
M  V30 1555 H 143.075 -0.623616 -3.05806 0
M  V30 1556 N 143.376 1.44774 -0.622745 0
M  V30 1557 C 144.308 2.28856 0.125485 0
M  V30 1558 C 145.321 1.40811 0.817069 0
M  V30 1559 O 146.51 1.65044 0.679918 0
M  V30 1560 C 143.61 3.16963 1.19949 0
M  V30 1561 C 142.783 4.33374 0.592064 0
M  V30 1562 C 141.842 5.02577 1.55893 0
M  V30 1563 O 140.868 5.58873 1.07933 0
M  V30 1564 N 142.07 5.03256 2.89334 0
M  V30 1565 H 144.835 2.93713 -0.596068 0
M  V30 1566 H 142.396 1.55129 -0.463303 0
M  V30 1567 H 144.388 3.60123 1.84644 0
M  V30 1568 H 142.958 2.53913 1.82337 0
M  V30 1569 H 142.178 3.93509 -0.233322 0
M  V30 1570 H 143.466 5.08527 0.166738 0
M  V30 1571 H 142.864 4.58836 3.30887 0
M  V30 1572 H 141.421 5.50232 3.49412 0
M  V30 1573 N 144.854 0.36279 1.53368 0
M  V30 1574 C 146.1 -0.220702 2.02199 0
M  V30 1575 C 146.455 -1.46649 1.24546 0
M  V30 1576 O 145.748 -1.88737 0.32996 0
M  V30 1577 C 145.942 -0.568417 3.52851 0
M  V30 1578 C 145.771 0.642126 4.45092 0
M  V30 1579 C 144.541 1.15335 4.91961 0
M  V30 1580 C 146.739 1.50649 4.91741 0
M  V30 1581 N 144.721 2.3242 5.68202 0
M  V30 1582 C 146.092 2.52404 5.66297 0
M  V30 1583 C 148.147 1.52969 4.73819 0
M  V30 1584 C 146.85 3.56331 6.24836 0
M  V30 1585 C 148.876 2.55789 5.33222 0
M  V30 1586 C 148.238 3.56268 6.07662 0
M  V30 1587 H 144.337 -0.0435508 0.780786 0
M  V30 1588 H 146.921 0.506704 1.87991 0
M  V30 1589 H 145.092 -1.2649 3.67226 0
M  V30 1590 H 146.824 -1.13676 3.88407 0
M  V30 1591 H 143.579 0.718412 4.68119 0
M  V30 1592 H 144.003 2.91591 6.10986 0
M  V30 1593 H 148.645 0.766418 4.15795 0
M  V30 1594 H 146.363 4.33543 6.81958 0
M  V30 1595 H 149.949 2.58435 5.21251 0
M  V30 1596 H 148.829 4.34524 6.52808 0
M  V30 1597 N 146.332 -1.57332 0.0918853 0
M  V30 1598 C 147.557 -1.98995 -0.584442 0
M  V30 1599 C 147.982 -0.970528 -1.61128 0
M  V30 1600 O 147.34 0.0613904 -1.81196 0
M  V30 1601 C 147.388 -3.39636 -1.21161 0
M  V30 1602 O 146.492 -3.40447 -2.32744 0
M  V30 1603 H 145.833 -0.647165 -0.148572 0
M  V30 1604 H 148.363 -2.03873 0.172347 0
M  V30 1605 H 148.373 -3.7726 -1.55367 0
M  V30 1606 H 147.048 -4.13356 -0.459313 0
M  V30 1607 H 145.625 -3.14614 -2.0018 0
M  V30 1608 N 147.81 0.181792 -1.56548 0
M  V30 1609 C 149.056 0.901431 -1.81665 0
M  V30 1610 C 149.389 1.82347 -0.668075 0
M  V30 1611 O 148.664 1.91669 0.330615 0
M  V30 1612 C 148.947 1.70618 -3.17115 0
M  V30 1613 C 148.8 0.807964 -4.42484 0
M  V30 1614 C 150.119 2.67605 -3.49393 0
M  V30 1615 H 147.238 0.32627 -0.660846 0
M  V30 1616 H 149.88 0.168134 -1.89255 0
M  V30 1617 H 148.03 2.33133 -3.10775 0
M  V30 1618 H 149.702 0.19649 -4.60881 0
M  V30 1619 H 147.945 0.115411 -4.33646 0
M  V30 1620 H 148.616 1.40632 -5.33785 0
M  V30 1621 H 151.092 2.15218 -3.56118 0
M  V30 1622 H 149.968 3.20985 -4.45264 0
M  V30 1623 H 150.229 3.47298 -2.73563 0
M  V30 1624 N 149.288 1.51039 0.449983 0
M  V30 1625 C 150.235 1.71439 1.54523 0
M  V30 1626 C 151.205 0.555871 1.56522 0
M  V30 1627 O 152.39 0.788871 1.73728 0
M  V30 1628 C 149.53 1.83384 2.92343 0
M  V30 1629 C 148.643 3.10873 2.9997 0
M  V30 1630 C 147.778 3.13488 4.28834 0
M  V30 1631 C 146.817 4.35343 4.30282 0
M  V30 1632 N 145.954 4.35579 5.5065 0
M  V30 1633 H 150.794 2.64934 1.36433 0
M  V30 1634 H 148.331 1.31312 0.662982 0
M  V30 1635 H 150.289 1.88291 3.72293 0
M  V30 1636 H 148.919 0.933086 3.0902 0
M  V30 1637 H 147.971 3.15336 2.12761 0
M  V30 1638 H 149.283 4.00814 2.96901 0
M  V30 1639 H 148.437 3.17241 5.17149 0
M  V30 1640 H 147.176 2.21414 4.34543 0
M  V30 1641 H 146.181 4.3178 3.40362 0
M  V30 1642 H 147.406 5.28668 4.26248 0
M  V30 1643 H 145.352 3.46369 5.57104 0
M  V30 1644 H 145.269 5.19313 5.49409 0
M  V30 1645 H 146.537 4.43507 6.41032 0
M  V30 1646 N 150.766 -0.704594 1.40972 0
M  V30 1647 C 151.994 -1.49354 1.43182 0
M  V30 1648 C 152.409 -1.88768 0.0345508 0
M  V30 1649 O 151.766 -1.56184 -0.944081 0
M  V30 1650 C 151.817 -2.76187 2.33244 0
M  V30 1651 O 151.538 -2.38436 3.67532 0
M  V30 1652 C 153.039 -3.7 2.44162 0
M  V30 1653 H 150.259 -0.460559 0.487982 0
M  V30 1654 H 152.803 -0.868261 1.85153 0
M  V30 1655 H 150.958 -3.34974 1.94606 0
M  V30 1656 H 151.372 -3.20126 4.15475 0
M  V30 1657 H 152.846 -4.55803 3.11364 0
M  V30 1658 H 153.323 -4.13867 1.47006 0
M  V30 1659 H 153.929 -3.17121 2.83398 0
M  V30 1660 N 152.244 -1.26651 -0.937939 0
M  V30 1661 C 153.191 -1.0849 -2.03712 0
M  V30 1662 C 154.161 0.011033 -1.66096 0
M  V30 1663 O 155.346 -0.149353 -1.90215 0
M  V30 1664 C 152.486 -0.72735 -3.37348 0
M  V30 1665 C 151.599 -1.89986 -3.87981 0
M  V30 1666 C 150.734 -1.48513 -5.10017 0
M  V30 1667 C 149.773 -2.62575 -5.5292 0
M  V30 1668 N 148.91 -2.21762 -6.66158 0
M  V30 1669 H 153.75 -2.02551 -2.18579 0
M  V30 1670 H 151.287 -1.00844 -1.07093 0
M  V30 1671 H 153.245 -0.50092 -4.14182 0
M  V30 1672 H 151.875 0.176298 -3.22318 0
M  V30 1673 H 150.927 -2.23913 -3.07518 0
M  V30 1674 H 152.239 -2.75586 -4.15757 0
M  V30 1675 H 151.393 -1.21934 -5.94321 0
M  V30 1676 H 150.132 -0.60009 -4.83994 0
M  V30 1677 H 149.137 -2.8988 -4.67172 0
M  V30 1678 H 150.362 -3.51685 -5.80943 0
M  V30 1679 H 148.308 -1.35696 -6.41812 0
M  V30 1680 H 148.225 -3.00903 -6.93537 0
M  V30 1681 H 149.493 -1.98403 -7.53828 0
M  V30 1682 N 153.722 1.14298 -1.08507 0
M  V30 1683 C 154.672 2.17449 -0.685569 0
M  V30 1684 C 155.656 1.58167 0.295315 0
M  V30 1685 O 156.848 1.76675 0.107172 0
M  V30 1686 C 153.977 3.43161 -0.0975318 0
M  V30 1687 C 153.063 4.09471 -1.10426 0
M  V30 1688 N 153.454 4.51089 -2.28806 0
M  V30 1689 C 151.752 4.35976 -0.940258 0
M  V30 1690 C 152.453 5.02654 -2.9277 0
M  V30 1691 N 151.429 4.96927 -2.20374 0
M  V30 1692 H 155.231 2.47369 -1.587 0
M  V30 1693 H 152.745 1.30992 -0.959936 0
M  V30 1694 H 154.742 4.16388 0.20664 0
M  V30 1695 H 153.402 3.14719 0.798872 0
M  V30 1696 H 154.413 4.44097 -2.66455 0
M  V30 1697 H 151.09 4.17386 -0.0977441 0
M  V30 1698 H 152.48 5.44723 -3.93352 0
M  V30 1699 N 155.201 0.870884 1.31352 0
M  V30 1700 C 156.133 0.28455 2.27427 0
M  V30 1701 C 157.146 -0.552927 1.53123 0
M  V30 1702 O 158.335 -0.374771 1.74521 0
M  V30 1703 C 155.435 -0.615164 3.3327 0
M  V30 1704 C 154.608 0.190079 4.36987 0
M  V30 1705 C 153.667 -0.637917 5.22319 0
M  V30 1706 O 152.693 -0.065626 5.69162 0
M  V30 1707 N 153.895 -1.94973 5.46778 0
M  V30 1708 H 156.66 1.11017 2.7838 0
M  V30 1709 H 154.221 0.732458 1.44384 0
M  V30 1710 H 156.213 -1.1748 3.87273 0
M  V30 1711 H 154.783 -1.34146 2.82354 0
M  V30 1712 H 154.003 0.931165 3.83044 0
M  V30 1713 H 155.291 0.742579 5.03352 0
M  V30 1714 H 154.689 -2.4378 5.10478 0
M  V30 1715 H 153.246 -2.45713 6.03712 0
M  V30 1716 N 156.679 -1.44442 0.630414 0
M  V30 1717 C 157.612 -2.27862 -0.124247 0
M  V30 1718 C 158.59 -1.38495 -0.851931 0
M  V30 1719 O 159.774 -1.67935 -0.856166 0
M  V30 1720 C 156.901 -3.17407 -1.18197 0
M  V30 1721 C 155.947 -4.22875 -0.554892 0
M  V30 1722 S 156.78 -5.31485 0.654489 0
M  V30 1723 C 157.936 -6.246 -0.40326 0
M  V30 1724 H 158.169 -2.91519 0.583435 0
M  V30 1725 H 155.702 -1.48618 0.418565 0
M  V30 1726 H 157.66 -3.69549 -1.78728 0
M  V30 1727 H 156.321 -2.52971 -1.86184 0
M  V30 1728 H 155.514 -4.85542 -1.35148 0
M  V30 1729 H 155.116 -3.73992 -0.0242105 0
M  V30 1730 H 157.408 -6.65375 -1.27602 0
M  V30 1731 H 158.351 -7.07851 0.187813 0
M  V30 1732 H 158.759 -5.59775 -0.728837 0
M  V30 1733 N 158.157 -0.370918 -1.53173 0
M  V30 1734 C 159.387 0.217389 -2.05453 0
M  V30 1735 C 159.795 1.42568 -1.24382 0
M  V30 1736 O 159.138 1.81571 -0.278839 0
M  V30 1737 C 159.2 0.669827 -3.53205 0
M  V30 1738 C 158.864 -0.4225 -4.55043 0
M  V30 1739 C 159.861 -1.27407 -5.04047 0
M  V30 1740 C 157.546 -0.58427 -4.9889 0
M  V30 1741 C 159.54 -2.27271 -5.95505 0
M  V30 1742 C 157.227 -1.58627 -5.90153 0
M  V30 1743 C 158.225 -2.42892 -6.38351 0
M  V30 1744 O 157.913 -3.41382 -7.27814 0
M  V30 1745 H 157.645 0.0408171 -0.674767 0
M  V30 1746 H 160.199 -0.5292 -1.98466 0
M  V30 1747 H 158.429 1.4681 -3.57748 0
M  V30 1748 H 160.118 1.18173 -3.88317 0
M  V30 1749 H 160.884 -1.16031 -4.70916 0
M  V30 1750 H 156.763 0.061851 -4.60959 0
M  V30 1751 H 160.307 -2.93079 -6.33049 0
M  V30 1752 H 156.204 -1.70048 -6.22699 0
M  V30 1753 H 156.972 -3.37173 -7.45826 0
M  V30 1754 N 159.635 1.57281 -0.100228 0
M  V30 1755 C 160.86 1.99302 0.573881 0
M  V30 1756 C 161.285 0.979059 1.60611 0
M  V30 1757 O 160.643 -0.0517803 1.81226 0
M  V30 1758 C 160.691 3.40274 1.19358 0
M  V30 1759 O 159.795 3.41676 2.30935 0
M  V30 1760 H 159.136 0.647944 0.145138 0
M  V30 1761 H 161.666 2.03779 -0.183156 0
M  V30 1762 H 161.676 3.78078 1.53365 0
M  V30 1763 H 160.351 4.13594 0.437385 0
M  V30 1764 H 158.928 3.15672 1.98509 0
M  V30 1765 N 161.113 -0.173488 1.56642 0
M  V30 1766 C 162.362 -0.888758 1.81063 0
M  V30 1767 C 162.675 -1.83506 0.67712 0
M  V30 1768 O 163.881 -2.59254 0.806206 0
M  V30 1769 C 162.337 -1.63091 3.20826 0
M  V30 1770 C 161.945 -0.728357 4.4204 0
M  V30 1771 C 163.689 -2.33454 3.54541 0
M  V30 1772 C 161.596 -1.47062 5.72823 0
M  V30 1773 H 160.526 -0.335618 0.675186 0
M  V30 1774 H 163.177 -0.141712 1.82952 0
M  V30 1775 H 161.559 -2.42263 3.13248 0
M  V30 1776 H 162.733 0.0262449 4.60793 0
M  V30 1777 H 161.048 -0.134492 4.16183 0
M  V30 1778 H 163.645 -2.89578 4.49498 0
M  V30 1779 H 163.988 -3.08687 2.79317 0
M  V30 1780 H 164.521 -1.61227 3.63663 0
M  V30 1781 H 161.26 -0.760658 6.51072 0
M  V30 1782 H 160.78 -2.1986 5.58052 0
M  V30 1783 H 162.459 -2.01868 6.14702 0
M  V30 1784 N 162.591 -1.51276 -0.441967 0
M  V30 1785 C 164.002 -1.56244 -1.02199 0
M  V30 1786 C 164.353 -0.383149 -1.92422 0
M  V30 1787 O 163.478 0.500613 -2.1053 0
M  V30 1788 C 164.073 -2.83162 -1.86024 0
M  V30 1789 C 162.632 -2.90716 -2.39084 0
M  V30 1790 C 161.779 -2.50858 -1.18175 0
M  V30 1791 H 164.73 -1.5712 -0.223416 0
M  V30 1792 H 164.751 -2.66663 -2.71425 0
M  V30 1793 H 164.263 -3.68974 -1.20331 0
M  V30 1794 H 162.364 -2.09323 -3.08244 0
M  V30 1795 H 162.477 -3.94266 -2.72198 0
M  V30 1796 H 160.841 -2.03951 -1.52565 0
M  V30 1797 H 161.624 -3.3901 -0.541001 0
M  V30 1798 N 164.069 0.697108 -1.41344 0
M  V30 1799 C 164.979 1.84088 -1.45427 0
M  V30 1800 C 165.995 1.70545 -0.34501 0
M  V30 1801 O 167.171 1.92488 -0.592492 0
M  V30 1802 C 164.236 3.20056 -1.33286 0
M  V30 1803 C 163.297 3.45718 -2.54514 0
M  V30 1804 C 162.53 4.75199 -2.42944 0
M  V30 1805 O 162.753 5.51579 -1.45318 0
M  V30 1806 O 161.687 5.0161 -3.32672 0
M  V30 1807 H 165.513 1.836 -2.41919 0
M  V30 1808 H 163.098 0.849966 -1.22866 0
M  V30 1809 H 164.98 4.01236 -1.28794 0
M  V30 1810 H 163.655 3.2123 -0.39909 0
M  V30 1811 H 162.562 2.64474 -2.64583 0
M  V30 1812 H 163.895 3.49356 -3.46715 0
M  V30 1813 N 165.547 1.27147 0.931209 0
M  V30 1814 C 166.824 1.0401 1.65654 0
M  V30 1815 C 167.204 -0.426297 2.06751 0
M  V30 1816 O 166.552 -1.40879 1.79904 0
M  V30 1817 C 166.762 1.99834 2.86125 0
M  V30 1818 C 168.11 2.29007 3.57549 0
M  V30 1819 O 169.134 1.97779 2.96246 0
M  V30 1820 O 167.993 2.82222 4.67989 0
M  V30 1821 H 165.087 0.396239 0.725895 0
M  V30 1822 H 167.633 1.38397 0.982056 0
M  V30 1823 H 166.405 2.98744 2.52721 0
M  V30 1824 H 166.028 1.65987 3.61295 0
M  V30 1825 N 167.025 -1.13721 1.09112 0
M  V30 1826 C 167.988 -2.17222 0.731241 0
M  V30 1827 C 168.988 -1.59035 -0.237566 0
M  V30 1828 O 170.178 -1.74192 -0.0161704 0
M  V30 1829 C 167.31 -3.40804 0.0808443 0
M  V30 1830 H 168.503 -2.50573 1.64783 0
M  V30 1831 H 166.056 -1.28493 0.889897 0
M  V30 1832 H 166.791 -3.1304 -0.847127 0
M  V30 1833 H 166.576 -3.84306 0.777896 0
M  V30 1834 H 168.066 -4.1731 -0.155657 0
M  V30 1835 N 168.503 -0.877838 -1.30888 0
M  V30 1836 C 169.436 -0.283995 -2.26426 0
M  V30 1837 C 170.414 0.591361 -1.51465 0
M  V30 1838 O 171.598 0.54304 -1.80509 0
M  V30 1839 C 168.725 0.597129 -3.33395 0
M  V30 1840 C 167.771 -0.207937 -4.25993 0
M  V30 1841 S 168.604 -1.59158 -5.11301 0
M  V30 1842 C 169.76 -0.716791 -6.21782 0
M  V30 1843 H 169.993 -1.09383 -2.76446 0
M  V30 1844 H 167.526 -0.676828 -1.38775 0
M  V30 1845 H 169.484 1.09978 -3.95493 0
M  V30 1846 H 168.145 1.38099 -2.82113 0
M  V30 1847 H 167.338 0.464163 -5.01858 0
M  V30 1848 H 166.94 -0.642963 -3.68432 0
M  V30 1849 H 169.232 0.0692833 -6.77465 0
M  V30 1850 H 170.175 -1.44682 -6.93161 0
M  V30 1851 H 170.583 -0.280855 -5.63801 0
M  V30 1852 N 169.982 1.44106 -0.638065 0
M  V30 1853 C 171.21 2.06336 -0.152615 0
M  V30 1854 C 171.625 1.47731 1.17563 0
M  V30 1855 O 170.982 0.602806 1.72257 0
M  V30 1856 C 171.033 3.61479 -0.0391491 0
M  V30 1857 O 170.754 4.17903 -1.31487 0
M  V30 1858 C 172.255 4.40757 0.474176 0
M  V30 1859 H 169.475 0.665862 -0.0828776 0
M  V30 1860 H 172.019 1.84862 -0.87443 0
M  V30 1861 H 170.174 3.82191 0.633142 0
M  V30 1862 H 170.588 5.11416 -1.16421 0
M  V30 1863 H 172.062 5.49707 0.502562 0
M  V30 1864 H 172.539 4.12697 1.50258 0
M  V30 1865 H 173.145 4.24979 -0.165102 0
M  V30 1866 N 171.46 0.379036 1.52974 0
M  V30 1867 C 172.708 -0.206014 2.01047 0
M  V30 1868 C 173.029 -1.48175 1.26765 0
M  V30 1869 O 172.299 -1.92085 0.384743 0
M  V30 1870 H 170.879 -0.0791184 0.742798 0
M  V30 1871 H 173.541 0.508366 1.88153 0
M  V30 1872 H 172.637 -0.423501 3.09213 0
M  V30 1873 N 172.938 -1.57226 0.108567 0
M  V30 1874 C 174.166 -1.99179 -0.559954 0
M  V30 1875 C 174.581 -0.988022 -1.60884 0
M  V30 1876 O 173.938 0.0205512 -1.82488 0
M  V30 1877 C 173.989 -3.41159 -1.19552 0
M  V30 1878 O 173.71 -4.37694 -0.188577 0
M  V30 1879 C 175.211 -3.98188 -1.94837 0
M  V30 1880 H 172.431 -0.654228 -0.149088 0
M  V30 1881 H 174.975 -2.03598 0.19183 0
M  V30 1882 H 173.13 -3.37711 -1.89815 0
M  V30 1883 H 173.544 -5.20469 -0.649014 0
M  V30 1884 H 175.018 -4.99644 -2.34648 0
M  V30 1885 H 175.495 -3.3675 -2.81951 0
M  V30 1886 H 176.101 -4.0515 -1.2936 0
M  V30 1887 N 174.416 0.165178 -1.56732 0
M  V30 1888 C 175.379 1.18822 -1.95995 0
M  V30 1889 C 176.379 1.3685 -0.84431 0
M  V30 1890 O 177.569 1.34152 -1.11126 0
M  V30 1891 C 174.701 2.5521 -2.26011 0
M  V30 1892 H 175.894 0.851825 -2.87548 0
M  V30 1893 H 173.447 0.407857 -1.50885 0
M  V30 1894 H 174.182 2.93852 -1.37191 0
M  V30 1895 H 173.967 2.43489 -3.07336 0
M  V30 1896 H 175.457 3.28927 -2.57288 0
M  V30 1897 N 175.894 1.51508 0.433938 0
M  V30 1898 C 176.804 1.75917 1.5521 0
M  V30 1899 C 177.82 0.643545 1.61662 0
M  V30 1900 O 178.996 0.926183 1.7884 0
M  V30 1901 C 176.061 1.88213 2.91164 0
M  V30 1902 C 175.122 3.12074 2.94802 0
M  V30 1903 C 174.355 3.23774 4.24271 0
M  V30 1904 O 174.578 2.4133 5.16833 0
M  V30 1905 O 173.512 4.16774 4.34262 0
M  V30 1906 H 177.338 2.70777 1.37527 0
M  V30 1907 H 174.923 1.36051 0.617293 0
M  V30 1908 H 176.805 1.98267 3.71845 0
M  V30 1909 H 175.48 0.965413 3.08968 0
M  V30 1910 H 174.387 3.07497 2.13065 0
M  V30 1911 H 175.72 4.03446 2.81943 0
M  V30 1912 N 177.372 -0.689602 1.41712 0
M  V30 1913 C 178.305 -1.81403 1.3845 0
M  V30 1914 C 179.283 -1.60653 0.250874 0
M  V30 1915 O 180.467 -1.83323 0.43874 0
M  V30 1916 C 177.594 -3.18176 1.1611 0
M  V30 1917 C 176.64 -3.57705 2.3227 0
M  V30 1918 S 177.473 -3.61827 3.94767 0
M  V30 1919 C 178.629 -5.01318 3.74742 0
M  V30 1920 H 178.862 -1.83893 2.33603 0
M  V30 1921 H 176.395 -0.858878 1.28307 0
M  V30 1922 H 178.353 -3.97132 1.03907 0
M  V30 1923 H 177.014 -3.13288 0.225668 0
M  V30 1924 H 176.207 -4.57082 2.12349 0
M  V30 1925 H 175.809 -2.86073 2.40911 0
M  V30 1926 H 178.101 -5.88986 3.34817 0
M  V30 1927 H 179.044 -5.26283 4.73743 0
M  V30 1928 H 179.452 -4.73138 3.07898 0
M  V30 1929 N 178.85 -1.27639 -0.924453 0
M  V30 1930 C 179.78 -1.13166 -2.04244 0
M  V30 1931 C 180.761 -0.032256 -1.70069 0
M  V30 1932 O 181.946 -0.207328 -1.9309 0
M  V30 1933 C 179.076 -0.781496 -3.38393 0
M  V30 1934 C 178.03 -1.83449 -3.86692 0
M  V30 1935 C 177.356 -1.33822 -5.17683 0
M  V30 1936 C 178.656 -3.23917 -4.09726 0
M  V30 1937 H 180.35 -2.06689 -2.1661 0
M  V30 1938 H 177.896 -0.995136 -1.04082 0
M  V30 1939 H 179.849 -0.667057 -4.16087 0
M  V30 1940 H 178.573 0.189439 -3.2605 0
M  V30 1941 H 177.232 -1.93789 -3.11193 0
M  V30 1942 H 176.88 -0.35665 -5.01734 0
M  V30 1943 H 176.58 -2.04224 -5.50968 0
M  V30 1944 H 178.104 -1.23679 -5.97943 0
M  V30 1945 H 179.518 -3.16559 -4.77978 0
M  V30 1946 H 177.915 -3.92059 -4.54324 0
M  V30 1947 H 178.985 -3.68729 -3.14908 0
M  V30 1948 N 180.328 1.1314 -1.09713 0
M  V30 1949 C 181.575 1.84484 -0.834987 0
M  V30 1950 C 181.903 1.83689 0.639418 0
M  V30 1951 O 181.158 1.2724 1.4869 0
M  V30 1952 C 181.457 3.32167 -1.3191 0
M  V30 1953 C 181.123 3.53139 -2.80363 0
M  V30 1954 C 179.785 3.58571 -3.20905 0
M  V30 1955 C 182.137 3.60866 -3.76065 0
M  V30 1956 C 179.465 3.69267 -4.55916 0
M  V30 1957 C 181.817 3.73089 -5.10869 0
M  V30 1958 C 180.481 3.76775 -5.50996 0
M  V30 1959 H 179.751 0.675073 -0.305544 0
M  V30 1960 H 182.398 1.33554 -1.37243 0
M  V30 1961 H 180.703 3.85469 -0.701517 0
M  V30 1962 H 182.4 3.85821 -1.09284 0
M  V30 1963 H 178.99 3.49569 -2.47991 0
M  V30 1964 H 183.174 3.55946 -3.45855 0
M  V30 1965 H 178.43 3.70388 -4.86438 0
M  V30 1966 H 182.604 3.78011 -5.84877 0
M  V30 1967 H 180.231 3.84815 -6.55608 0
M  V30 1968 N 181.806 0.884767 1.30421 0
M  V30 1969 C 183.083 0.423185 1.90967 0
M  V30 1970 C 183.463 -1.09605 1.80416 0
M  V30 1971 O 182.811 -1.93126 1.22125 0
M  V30 1972 C 183.021 0.921056 3.36627 0
M  V30 1973 C 184.369 0.955903 4.137 0
M  V30 1974 O 185.393 0.867706 3.4547 0
M  V30 1975 O 184.252 1.08614 5.35598 0
M  V30 1976 H 181.346 0.129369 0.816819 0
M  V30 1977 H 183.892 0.973653 1.3899 0
M  V30 1978 H 182.664 1.96489 3.3839 0
M  V30 1979 H 182.287 0.349741 3.96059 0
M  V30 1980 N 183.284 -1.43765 0.645699 0
M  V30 1981 C 184.514 -2.05953 0.163318 0
M  V30 1982 C 184.922 -1.48432 -1.17322 0
M  V30 1983 O 184.265 -0.607295 -1.73371 0
M  V30 1984 C 184.327 -3.59499 -0.0103065 0
M  V30 1985 C 183.991 -4.39563 1.25035 0
M  V30 1986 C 184.988 -4.72108 2.17739 0
M  V30 1987 C 182.673 -4.79697 1.48983 0
M  V30 1988 C 184.667 -5.43688 3.3269 0
M  V30 1989 C 182.354 -5.51023 2.64229 0
M  V30 1990 C 183.352 -5.8294 3.55908 0
M  V30 1991 O 183.04 -6.5281 4.69142 0
M  V30 1992 H 182.772 -0.670798 0.0836986 0
M  V30 1993 H 185.326 -1.85384 0.884407 0
M  V30 1994 H 183.556 -3.78613 -0.78669 0
M  V30 1995 H 185.245 -4.03408 -0.449087 0
M  V30 1996 H 186.011 -4.41627 2.00476 0
M  V30 1997 H 181.89 -4.54266 0.785078 0
M  V30 1998 H 185.434 -5.68517 4.04269 0
M  V30 1999 H 181.331 -5.8092 2.81429 0
M  V30 2000 H 182.099 -6.71288 4.6831 0
M  V30 2001 N 184.763 -0.387143 -1.52771 0
M  V30 2002 C 186.012 0.19697 -2.00736 0
M  V30 2003 C 186.325 1.48082 -1.27793 0
M  V30 2004 O 187.531 2.14485 -1.66458 0
M  V30 2005 C 185.987 0.401568 -3.57653 0
M  V30 2006 C 185.595 -0.868907 -4.39493 0
M  V30 2007 C 187.339 0.942164 -4.13912 0
M  V30 2008 C 185.246 -0.632705 -5.88006 0
M  V30 2009 H 184.176 0.0773827 -0.750019 0
M  V30 2010 H 186.827 -0.50921 -1.76293 0
M  V30 2011 H 185.209 1.16954 -3.78335 0
M  V30 2012 H 186.383 -1.64133 -4.30577 0
M  V30 2013 H 184.698 -1.33429 -3.94443 0
M  V30 2014 H 187.295 1.13455 -5.22525 0
M  V30 2015 H 187.638 1.9106 -3.69867 0
M  V30 2016 H 188.171 0.233814 -3.97112 0
M  V30 2017 H 184.91 -1.57208 -6.36369 0
M  V30 2018 H 184.43 0.100825 -5.99715 0
M  V30 2019 H 186.109 -0.26642 -6.46451 0
M  V30 2020 N 186.241 1.57166 -0.116904 0
M  V30 2021 C 187.466 1.999 0.55271 0
M  V30 2022 C 187.891 0.996039 1.59564 0
M  V30 2023 O 187.249 -0.032556 1.81271 0
M  V30 2024 C 187.297 3.4152 1.15742 0
M  V30 2025 O 186.401 3.44106 2.27299 0
M  V30 2026 H 185.742 0.649447 0.138258 0
M  V30 2027 H 188.272 2.03573 -0.204759 0
M  V30 2028 H 188.282 3.79684 1.49346 0
M  V30 2029 H 186.957 4.14034 0.393493 0
M  V30 2030 H 185.534 3.17759 1.9515 0
M  V30 2031 N 187.719 -0.156864 1.56817 0
M  V30 2032 C 188.629 -1.2136 2.00771 0
M  V30 2033 C 189.645 -1.47598 0.921459 0
M  V30 2034 O 190.821 -1.59462 1.2302 0
M  V30 2035 C 187.886 -2.52943 2.37109 0
M  V30 2036 C 186.947 -2.34439 3.59634 0
M  V30 2037 C 186.18 -3.59748 3.94229 0
M  V30 2038 O 186.403 -4.65526 3.29609 0
M  V30 2039 O 185.337 -3.52998 4.8752 0
M  V30 2040 H 189.163 -0.870468 2.90958 0
M  V30 2041 H 186.748 -0.36484 1.44877 0
M  V30 2042 H 188.63 -3.30538 2.61386 0
M  V30 2043 H 187.305 -2.86806 1.5008 0
M  V30 2044 H 186.212 -1.54828 3.40557 0
M  V30 2045 H 187.545 -2.05496 4.4725 0
M  V30 2046 N 189.197 -1.51736 -0.425897 0
M  V30 2047 C 190.437 -1.66636 -1.18371 0
M  V30 2048 C 190.801 -0.379854 -1.88205 0
M  V30 2049 O 192.002 -0.404758 -2.65735 0
M  V30 2050 C 190.273 -2.84382 -2.16476 0
M  V30 2051 S 191.832 -3.19673 -3.0059 0
M  V30 2052 H 188.65 -0.586957 -0.40125 0
M  V30 2053 H 191.252 -1.89679 -0.473518 0
M  V30 2054 H 189.956 -3.76281 -1.63831 0
M  V30 2055 H 189.487 -2.63562 -2.92059 0
M  V30 2056 H 191.502 -2.66994 -4.18245 0
M  V30 2057 N 190.675 0.682077 -1.42076 0
M  V30 2058 C 191.924 1.43786 -1.41451 0
M  V30 2059 C 192.237 1.95574 -0.0317074 0
M  V30 2060 O 193.443 2.71326 0.0971462 0
M  V30 2061 C 191.899 2.60071 -2.48779 0
M  V30 2062 C 191.507 2.15013 -3.93031 0
M  V30 2063 C 193.251 3.37626 -2.57311 0
M  V30 2064 C 191.158 3.28336 -4.91883 0
M  V30 2065 H 190.088 0.540143 -0.526082 0
M  V30 2066 H 192.739 0.739157 -1.67955 0
M  V30 2067 H 191.121 3.32275 -2.15429 0
M  V30 2068 H 192.295 1.5001 -4.35699 0
M  V30 2069 H 190.61 1.50416 -3.88284 0
M  V30 2070 H 193.207 4.22012 -3.28345 0
M  V30 2071 H 193.55 3.83727 -1.61429 0
M  V30 2072 H 194.083 2.72488 -2.89819 0
M  V30 2073 H 190.822 2.87234 -5.89217 0
M  V30 2074 H 190.342 3.92145 -4.53853 0
M  V30 2075 H 192.021 3.93913 -5.13265 0
M  V30 2076 N 192.153 1.28127 0.917671 0
M  V30 2077 C 193.378 1.18007 1.70555 0
M  V30 2078 C 193.803 -0.258257 1.86319 0
M  V30 2079 O 193.161 -1.1869 1.37049 0
M  V30 2080 C 193.209 1.87948 3.07746 0
M  V30 2081 O 192.313 1.18427 3.9503 0
M  V30 2082 H 191.654 0.409867 0.522403 0
M  V30 2083 H 194.184 1.69379 1.1477 0
M  V30 2084 H 194.194 1.95701 3.58001 0
M  V30 2085 H 192.869 2.92573 2.95591 0
M  V30 2086 H 191.446 1.18811 3.53466 0
M  V30 2087 N 193.631 -1.12557 1.10312 0
M  V30 2088 C 194.908 -1.80363 0.756878 0
M  V30 2089 C 195.288 -1.97067 -0.756824 0
M  V30 2090 O 194.636 -1.54601 -1.68259 0
M  V30 2091 C 194.846 -3.14812 1.50647 0
M  V30 2092 C 196.194 -3.90029 1.67817 0
M  V30 2093 O 197.218 -3.24464 1.46974 0
M  V30 2094 O 196.077 -5.07652 2.02365 0
M  V30 2095 H 193.171 -0.780667 0.272926 0
M  V30 2096 H 195.717 -1.19404 1.20586 0
M  V30 2097 H 194.489 -2.97936 2.53672 0
M  V30 2098 H 194.112 -3.83478 1.05026 0
M  V30 2099 N 195.109 -0.891671 -1.2995 0
M  V30 2100 C 196.356 -0.513501 -1.95881 0
M  V30 2101 C 196.684 0.938655 -1.70351 0
M  V30 2102 O 195.939 1.67936 -1.00478 0
M  V30 2103 C 196.238 -0.742868 -3.49594 0
M  V30 2104 C 195.904 -2.17114 -3.95186 0
M  V30 2105 C 194.566 -2.56169 -4.07346 0
M  V30 2106 C 196.918 -3.10162 -4.18866 0
M  V30 2107 C 194.246 -3.87469 -4.4055 0
M  V30 2108 C 196.598 -4.41001 -4.53542 0
M  V30 2109 C 195.262 -4.79941 -4.63911 0
M  V30 2110 H 194.532 -0.187903 -0.71678 0
M  V30 2111 H 197.179 -1.1288 -1.54694 0
M  V30 2112 H 195.484 -0.044586 -3.91775 0
M  V30 2113 H 197.181 -0.429767 -3.9869 0
M  V30 2114 H 193.771 -1.85801 -3.86233 0
M  V30 2115 H 197.955 -2.81206 -4.08946 0
M  V30 2116 H 193.211 -4.17371 -4.46779 0
M  V30 2117 H 197.385 -5.13133 -4.70815 0
M  V30 2118 H 195.012 -5.81719 -4.89395 0
M  V30 2119 N 196.587 1.43421 -0.653314 0
M  V30 2120 C 197.517 2.33487 0.0246656 0
M  V30 2121 C 198.498 1.49475 0.811863 0
M  V30 2122 O 199.683 1.78139 0.773322 0
M  V30 2123 C 196.813 3.32841 0.99166 0
M  V30 2124 C 195.767 4.26842 0.314568 0
M  V30 2125 C 195.093 5.16236 1.39302 0
M  V30 2126 C 196.393 5.16243 -0.793095 0
M  V30 2127 H 198.087 2.90427 -0.727481 0
M  V30 2128 H 195.633 1.39649 -0.351287 0
M  V30 2129 H 197.586 3.94747 1.47487 0
M  V30 2130 H 196.31 2.74158 1.77497 0
M  V30 2131 H 194.969 3.663 -0.148199 0
M  V30 2132 H 194.617 4.53891 2.16776 0
M  V30 2133 H 194.317 5.79948 0.945223 0
M  V30 2134 H 195.841 5.81015 1.87759 0
M  V30 2135 H 197.255 5.71958 -0.392039 0
M  V30 2136 H 195.652 5.88676 -1.16536 0
M  V30 2137 H 196.722 4.55927 -1.65103 0
M  V30 2138 N 198.065 0.39524 1.52563 0
M  V30 2139 C 199.342 -0.242908 1.94086 0
M  V30 2140 C 199.722 -1.63841 1.33114 0
M  V30 2141 O 199.07 -2.22928 0.501529 0
M  V30 2142 C 199.28 -0.26327 3.48006 0
M  V30 2143 C 200.628 -0.489354 4.21771 0
M  V30 2144 O 201.652 -0.343226 3.54543 0
M  V30 2145 O 200.511 -0.776169 5.4096 0
M  V30 2146 H 197.605 -0.152536 0.812811 0
M  V30 2147 H 200.151 0.450178 1.6362 0
M  V30 2148 H 198.923 0.713985 3.84731 0
M  V30 2149 H 198.546 -1.00103 3.84792 0
M  V30 2150 N 199.544 -1.57102 0.125237 0
M  V30 2151 C 200.491 -2.15641 -0.822655 0
M  V30 2152 C 201.461 -1.08313 -1.25927 0
M  V30 2153 O 202.646 -1.36251 -1.33567 0
M  V30 2154 C 199.786 -2.76504 -2.06494 0
M  V30 2155 C 198.899 -3.98158 -1.67612 0
M  V30 2156 C 198.034 -4.47088 -2.86854 0
M  V30 2157 C 197.073 -5.6126 -2.44242 0
M  V30 2158 N 196.21 -6.04905 -3.56419 0
M  V30 2159 H 201.05 -2.96313 -0.316625 0
M  V30 2160 H 198.587 -1.46388 -0.144588 0
M  V30 2161 H 200.545 -3.09925 -2.79289 0
M  V30 2162 H 199.175 -1.98512 -2.54545 0
M  V30 2163 H 198.227 -3.70858 -0.846661 0
M  V30 2164 H 199.539 -4.80934 -1.32301 0
M  V30 2165 H 198.693 -4.82451 -3.67867 0
M  V30 2166 H 197.432 -3.63275 -3.25396 0
M  V30 2167 H 196.437 -5.25495 -1.61663 0
M  V30 2168 H 197.662 -6.46843 -2.0681 0
M  V30 2169 H 195.608 -5.24032 -3.94623 0
M  V30 2170 H 195.525 -6.82552 -3.25051 0
M  V30 2171 H 196.793 -6.44907 -4.37853 0
M  V30 2172 N 201.022 0.148545 -1.56898 0
M  V30 2173 C 201.972 1.1886 -1.94567 0
M  V30 2174 C 202.956 1.3863 -0.816735 0
M  V30 2175 O 204.148 1.40218 -1.08018 0
M  V30 2176 C 201.277 2.52262 -2.32849 0
M  V30 2177 C 200.363 2.36092 -3.52309 0
M  V30 2178 N 200.754 1.89674 -4.6889 0
M  V30 2179 C 199.052 2.66848 -3.57363 0
M  V30 2180 C 199.753 1.86511 -5.50989 0
M  V30 2181 N 198.729 2.29766 -4.92655 0
M  V30 2182 H 202.531 0.821793 -2.82177 0
M  V30 2183 H 200.045 0.356615 -1.58436 0
M  V30 2184 H 202.042 3.27447 -2.58039 0
M  V30 2185 H 200.702 2.89727 -1.46589 0
M  V30 2186 H 201.713 1.59663 -4.92674 0
M  V30 2187 H 198.39 3.08198 -2.81639 0
M  V30 2188 H 199.78 1.52128 -6.54452 0
M  V30 2189 N 202.5 1.5196 0.417844 0
M  V30 2190 C 203.432 1.70895 1.52733 0
M  V30 2191 C 204.445 0.589405 1.51756 0
M  V30 2192 O 205.634 0.864312 1.56179 0
M  V30 2193 C 202.734 1.72627 2.91639 0
M  V30 2194 C 201.907 3.01479 3.16905 0
M  V30 2195 C 200.966 2.95139 4.35637 0
M  V30 2196 O 199.992 3.69059 4.3334 0
M  V30 2197 N 201.194 2.12328 5.40275 0
M  V30 2198 H 203.959 2.66612 1.36888 0
M  V30 2199 H 201.52 1.50089 0.607037 0
M  V30 2200 H 203.512 1.65928 3.6912 0
M  V30 2201 H 202.082 0.844216 3.00985 0
M  V30 2202 H 201.302 3.21895 2.27546 0
M  V30 2203 H 202.59 3.86736 3.30625 0
M  V30 2204 H 201.988 1.51685 5.44985 0
M  V30 2205 H 200.545 2.11494 6.16534 0
M  V30 2206 N 203.978 -0.674533 1.42435 0
M  V30 2207 C 204.911 -1.79924 1.40366 0
M  V30 2208 C 205.889 -1.60378 0.267899 0
M  V30 2209 O 207.073 -1.82847 0.458159 0
M  V30 2210 C 204.2 -3.16927 1.19478 0
M  V30 2211 C 203.246 -3.55221 2.36051 0
M  V30 2212 S 204.079 -3.5762 3.98583 0
M  V30 2213 C 205.235 -4.97315 3.80038 0
M  V30 2214 H 205.468 -1.81405 2.35541 0
M  V30 2215 H 203.001 -0.845221 1.29211 0
M  V30 2216 H 204.959 -3.96007 1.08114 0
M  V30 2217 H 203.62 -3.13031 0.258883 0
M  V30 2218 H 202.813 -4.54804 2.17185 0
M  V30 2219 H 202.415 -2.83502 2.43932 0
M  V30 2220 H 204.707 -5.85401 3.41045 0
M  V30 2221 H 205.65 -5.21228 4.79298 0
M  V30 2222 H 206.058 -4.69845 3.12899 0
M  V30 2223 N 205.456 -1.28612 -0.910864 0
M  V30 2224 C 206.403 -1.12786 -2.01365 0
M  V30 2225 C 207.373 -0.024201 -1.66082 0
M  V30 2226 O 208.558 -0.189667 -1.89855 0
M  V30 2227 C 205.698 -0.798743 -3.35729 0
M  V30 2228 C 204.811 -1.98173 -3.83864 0
M  V30 2229 C 203.946 -1.59298 -5.06752 0
M  V30 2230 C 202.985 -2.74245 -5.47226 0
M  V30 2231 N 202.122 -2.35842 -6.61304 0
M  V30 2232 H 206.962 -2.07142 -2.14234 0
M  V30 2233 H 204.499 -1.03093 -1.0493 0
M  V30 2234 H 206.457 -0.588662 -4.13026 0
M  V30 2235 H 205.087 0.10789 -3.2262 0
M  V30 2236 H 204.139 -2.30386 -3.02699 0
M  V30 2237 H 205.451 -2.84343 -4.09818 0
M  V30 2238 H 204.605 -1.34513 -5.916 0
M  V30 2239 H 203.344 -0.702618 -4.82612 0
M  V30 2240 H 202.349 -2.99725 -4.60918 0
M  V30 2241 H 203.574 -3.63928 -5.73353 0
M  V30 2242 H 201.52 -1.49279 -6.38789 0
M  V30 2243 H 201.437 -3.15546 -6.86998 0
M  V30 2244 H 202.705 -2.14348 -7.4945 0
M  V30 2245 N 206.934 1.1197 -1.10907 0
M  V30 2246 C 207.884 2.15946 -0.731538 0
M  V30 2247 C 208.868 1.58758 0.261699 0
M  V30 2248 O 210.06 1.76863 0.0696722 0
M  V30 2249 C 207.189 3.42877 -0.170299 0
M  V30 2250 C 206.275 4.07037 -1.19087 0
M  V30 2251 N 206.666 4.46135 -2.38322 0
M  V30 2252 C 204.964 4.33884 -1.03252 0
M  V30 2253 C 205.665 4.96331 -3.03366 0
M  V30 2254 N 204.641 4.9214 -2.30865 0
M  V30 2255 H 208.443 2.43947 -1.63912 0
M  V30 2256 H 205.957 1.28927 -0.987505 0
M  V30 2257 H 207.954 4.16732 0.118271 0
M  V30 2258 H 206.614 3.16343 0.731935 0
M  V30 2259 H 207.625 4.38345 -2.75815 0
M  V30 2260 H 204.302 4.17084 -0.186256 0
M  V30 2261 H 205.692 5.36257 -4.04818 0
M  V30 2262 N 208.412 0.89855 1.29475 0
M  V30 2263 C 209.359 0.373819 2.27753 0
M  V30 2264 C 210.329 -0.543444 1.56958 0
M  V30 2265 O 211.514 -0.468934 1.84948 0
M  V30 2266 C 208.654 -0.393648 3.42848 0
M  V30 2267 C 207.767 0.554379 4.28428 0
M  V30 2268 C 206.902 -0.230026 5.30702 0
M  V30 2269 C 205.941 0.712599 6.07938 0
M  V30 2270 N 205.078 -0.0373283 7.0209 0
M  V30 2271 H 209.918 1.21699 2.72017 0
M  V30 2272 H 207.455 0.611456 1.33789 0
M  V30 2273 H 209.413 -0.85466 4.08352 0
M  V30 2274 H 208.043 -1.20128 2.99615 0
M  V30 2275 H 207.095 1.13391 3.63107 0
M  V30 2276 H 208.407 1.27597 4.82204 0
M  V30 2277 H 207.561 -0.752288 6.02018 0
M  V30 2278 H 206.3 -0.984758 4.77654 0
M  V30 2279 H 205.305 1.24637 5.35486 0
M  V30 2280 H 206.53 1.46664 6.63074 0
M  V30 2281 H 204.476 -0.774348 6.51414 0
M  V30 2282 H 204.393 0.624374 7.53417 0
M  V30 2283 H 205.661 -0.539891 7.77628 0
M  V30 2284 N 209.89 -1.43072 0.660911 0
M  V30 2285 C 210.837 -2.30785 -0.0259884 0
M  V30 2286 C 211.807 -1.45184 -0.806888 0
M  V30 2287 O 212.992 -1.74041 -0.781943 0
M  V30 2288 C 210.132 -3.30861 -0.981067 0
M  V30 2289 C 209.245 -4.31558 -0.195458 0
M  V30 2290 C 208.38 -5.18712 -1.14503 0
M  V30 2291 C 207.419 -6.11097 -0.350299 0
M  V30 2292 N 206.556 -6.90849 -1.25186 0
M  V30 2293 H 211.396 -2.88975 0.727846 0
M  V30 2294 H 208.933 -1.42353 0.370682 0
M  V30 2295 H 210.891 -3.87399 -1.54849 0
M  V30 2296 H 209.521 -2.74304 -1.70169 0
M  V30 2297 H 208.573 -3.77252 0.488374 0
M  V30 2298 H 209.885 -4.9701 0.422176 0
M  V30 2299 H 209.039 -5.79914 -1.78284 0
M  V30 2300 H 207.778 -4.53404 -1.79656 0
M  V30 2301 H 206.783 -5.48976 0.300808 0
M  V30 2302 H 208.008 -6.7845 0.296941 0
M  V30 2303 H 205.954 -6.28182 -1.89005 0
M  V30 2304 H 205.871 -7.52854 -0.688971 0
M  V30 2305 H 207.139 -7.5655 -1.87757 0
M  V30 2306 N 211.368 -0.403325 -1.52352 0
M  V30 2307 C 212.298 0.416205 -2.29761 0
M  V30 2308 C 213.279 1.05123 -1.33728 0
M  V30 2309 O 214.464 1.06134 -1.62632 0
M  V30 2310 C 211.594 1.53624 -3.11475 0
M  V30 2311 C 210.548 1.02653 -4.15507 0
M  V30 2312 C 209.874 2.23971 -4.85532 0
M  V30 2313 C 211.174 0.08463 -5.22231 0
M  V30 2314 H 212.868 -0.229701 -2.98518 0
M  V30 2315 H 210.414 -0.111913 -1.43564 0
M  V30 2316 H 212.367 2.1165 -3.64393 0
M  V30 2317 H 211.091 2.20994 -2.40477 0
M  V30 2318 H 209.75 0.46871 -3.63591 0
M  V30 2319 H 209.398 2.89883 -4.11068 0
M  V30 2320 H 209.098 1.90521 -5.55856 0
M  V30 2321 H 210.622 2.82614 -5.41259 0
M  V30 2322 H 212.036 0.573509 -5.70424 0
M  V30 2323 H 210.433 -0.160783 -5.99885 0
M  V30 2324 H 211.503 -0.86237 -4.7717 0
M  V30 2325 N 212.846 1.57033 -0.133567 0
M  V30 2326 C 214.257 1.82593 0.389464 0
M  V30 2327 C 214.608 1.05156 1.6564 0
M  V30 2328 O 213.733 0.292644 2.14412 0
M  V30 2329 C 214.328 3.31204 0.713377 0
M  V30 2330 C 212.887 3.57393 1.18098 0
M  V30 2331 C 212.034 2.76598 0.197126 0
M  V30 2332 H 214.985 1.54598 -0.358481 0
M  V30 2333 H 215.006 3.46627 1.56939 0
M  V30 2334 H 214.518 3.87537 -0.2089 0
M  V30 2335 H 212.619 3.06433 2.11966 0
M  V30 2336 H 212.732 4.65915 1.11624 0
M  V30 2337 H 211.096 2.45257 0.687088 0
M  V30 2338 H 211.879 3.35697 -0.718504 0
M  V30 2339 N 214.325 -0.140222 1.56975 0
M  V30 2340 C 215.255 -1.17456 2.01808 0
M  V30 2341 C 216.236 -1.44415 0.898794 0
M  V30 2342 O 217.421 -1.5522 1.16707 0
M  V30 2343 C 214.551 -2.50607 2.40444 0
M  V30 2344 C 213.505 -2.38155 3.55621 0
M  V30 2345 C 212.831 -3.76078 3.80091 0
M  V30 2346 C 214.131 -1.85991 4.88062 0
M  V30 2347 H 215.825 -0.801743 2.88466 0
M  V30 2348 H 213.371 -0.38422 1.38779 0
M  V30 2349 H 215.324 -3.23197 2.7041 0
M  V30 2350 H 214.048 -2.89737 1.50732 0
M  V30 2351 H 212.707 -1.68016 3.25832 0
M  V30 2352 H 212.355 -4.12656 2.87618 0
M  V30 2353 H 212.055 -3.68606 4.57606 0
M  V30 2354 H 213.579 -4.50206 4.12488 0
M  V30 2355 H 214.993 -2.4838 5.16701 0
M  V30 2356 H 213.39 -1.89393 5.6943 0
M  V30 2357 H 214.46 -0.816023 4.77984 0
M  V30 2358 N 215.803 -1.52179 -0.40978 0
M  V30 2359 C 217.051 -1.65878 -1.15451 0
M  V30 2360 C 217.372 -0.390771 -1.91044 0
M  V30 2361 O 216.642 0.594323 -1.86667 0
M  V30 2362 H 215.222 -0.611405 -0.429177 0
M  V30 2363 H 217.884 -1.89219 -0.467134 0
M  V30 2364 H 216.98 -2.49954 -1.86894 0
M  V30 2365 N 217.281 0.66697 -1.42791 0
M  V30 2366 C 218.528 1.42699 -1.43678 0
M  V30 2367 C 218.856 1.94419 -0.0560425 0
M  V30 2368 O 218.111 1.7182 0.936831 0
M  V30 2369 C 218.41 2.6349 -2.4147 0
M  V30 2370 C 218.076 2.30267 -3.8767 0
M  V30 2371 C 216.738 2.20918 -4.27491 0
M  V30 2372 C 219.09 2.03435 -4.79858 0
M  V30 2373 C 216.418 1.82873 -5.57471 0
M  V30 2374 C 218.77 1.66892 -6.10188 0
M  V30 2375 C 217.434 1.56058 -6.49001 0
M  V30 2376 H 216.704 0.522171 -0.525755 0
M  V30 2377 H 219.351 0.759785 -1.75783 0
M  V30 2378 H 217.656 3.35279 -2.0272 0
M  V30 2379 H 219.353 3.21684 -2.39417 0
M  V30 2380 H 215.943 2.38449 -3.56146 0
M  V30 2381 H 220.127 2.09586 -4.49875 0
M  V30 2382 H 215.383 1.7306 -5.86396 0
M  V30 2383 H 219.557 1.45157 -6.81104 0
M  V30 2384 H 217.184 1.26348 -7.49627 0
M  V30 2385 N 218.759 1.29093 0.90403 0
M  V30 2386 C 219.987 1.19689 1.68766 0
M  V30 2387 C 220.402 -0.243113 1.87228 0
M  V30 2388 O 219.759 -1.16326 1.40621 0
M  V30 2389 C 219.81 1.90144 3.07453 0
M  V30 2390 O 219.531 3.2852 2.89838 0
M  V30 2391 C 221.032 1.87162 4.01852 0
M  V30 2392 H 218.252 0.415035 0.527244 0
M  V30 2393 H 220.796 1.7039 1.13082 0
M  V30 2394 H 218.951 1.43289 3.59926 0
M  V30 2395 H 219.365 3.63944 3.77684 0
M  V30 2396 H 220.839 2.41032 4.96596 0
M  V30 2397 H 221.316 0.84617 4.30972 0
M  V30 2398 H 221.922 2.33741 3.5531 0
M  V30 2399 N 220.237 -1.11381 1.11499 0
M  V30 2400 C 221.484 -1.83132 0.864231 0
M  V30 2401 C 221.812 -1.84683 -0.610114 0
M  V30 2402 O 221.067 -1.29589 -1.46646 0
M  V30 2403 C 221.366 -3.30026 1.37177 0
M  V30 2404 C 221.032 -3.48634 2.85946 0
M  V30 2405 C 219.694 -3.53421 3.26569 0
M  V30 2406 C 222.046 -3.54837 3.81759 0
M  V30 2407 C 219.374 -3.61967 4.61733 0
M  V30 2408 C 221.726 -3.64915 5.1674 0
M  V30 2409 C 220.39 -3.67962 5.5692 0
M  V30 2410 H 219.66 -0.670127 0.316245 0
M  V30 2411 H 222.307 -1.31354 1.3935 0
M  V30 2412 H 220.612 -3.84304 0.762753 0
M  V30 2413 H 222.309 -3.84034 1.15408 0
M  V30 2414 H 218.899 -3.45579 2.53521 0
M  V30 2415 H 223.083 -3.50399 3.51474 0
M  V30 2416 H 218.339 -3.62603 4.92269 0
M  V30 2417 H 222.513 -3.68658 5.90816 0
M  V30 2418 H 220.14 -3.74336 6.61647 0
M  V30 2419 N 221.715 -0.905404 -1.28997 0
M  V30 2420 C 222.94 -0.549175 -1.99997 0
M  V30 2421 C 223.365 0.860276 -1.67275 0
M  V30 2422 O 222.723 1.57355 -0.900502 0
M  V30 2423 C 222.771 -0.755185 -3.52604 0
M  V30 2424 O 221.875 0.189692 -4.11964 0
M  V30 2425 H 221.216 -0.213899 -0.628604 0
M  V30 2426 H 223.746 -1.21856 -1.64354 0
M  V30 2427 H 223.756 -0.662045 -4.02593 0
M  V30 2428 H 222.431 -1.78271 -3.75755 0
M  V30 2429 H 221.008 0.0485257 -3.72868 0
M  V30 2430 N 223.193 1.4272 -0.668489 0
M  V30 2431 C 224.44 2.01624 -0.18814 0
M  V30 2432 C 224.768 1.5282 1.20317 0
M  V30 2433 O 224.023 0.718323 1.8204 0
M  V30 2434 C 224.322 3.57021 -0.164499 0
M  V30 2435 C 223.988 4.25232 -1.49962 0
M  V30 2436 C 222.65 4.4358 -1.8652 0
M  V30 2437 C 225.002 4.63727 -2.37921 0
M  V30 2438 C 222.33 4.97694 -3.10674 0
M  V30 2439 C 224.682 5.19218 -3.6138 0
M  V30 2440 C 223.346 5.3578 -3.98115 0
M  V30 2441 H 222.616 0.737795 -0.0688454 0
M  V30 2442 H 225.263 1.70991 -0.862225 0
M  V30 2443 H 223.568 3.87285 0.593079 0
M  V30 2444 H 225.265 4.00372 0.224271 0
M  V30 2445 H 221.855 4.11306 -1.20522 0
M  V30 2446 H 226.039 4.4923 -2.10964 0
M  V30 2447 H 221.295 5.08702 -3.39164 0
M  V30 2448 H 225.469 5.4799 -4.29743 0
M  V30 2449 H 223.096 5.77475 -4.94395 0
M  V30 2450 N 224.671 0.411399 1.52136 0
M  V30 2451 C 226.082 -0.0576826 1.86611 0
M  V30 2452 C 226.433 -1.44238 1.33003 0
M  V30 2453 O 225.558 -2.05759 0.670228 0
M  V30 2454 C 226.153 -0.111448 3.38617 0
M  V30 2455 C 224.712 -0.52487 3.72723 0
M  V30 2456 C 223.859 0.299176 2.75681 0
M  V30 2457 H 226.81 0.628368 1.4573 0
M  V30 2458 H 226.831 -0.926252 3.69054 0
M  V30 2459 H 226.343 0.896488 3.77604 0
M  V30 2460 H 224.444 -1.53936 3.39315 0
M  V30 2461 H 224.557 -0.267681 4.78352 0
M  V30 2462 H 222.921 -0.238814 2.53578 0
M  V30 2463 H 223.704 1.3055 3.17508 0
M  V30 2464 N 226.149 -1.5696 0.141893 0
M  V30 2465 C 227.395 -1.9625 -0.511248 0
M  V30 2466 C 227.728 -1.02654 -1.64851 0
M  V30 2467 O 227.003 -0.0679676 -1.94381 0
M  V30 2468 C 227.286 -3.45285 -1.02227 0
M  V30 2469 C 227.139 -4.49658 0.113138 0
M  V30 2470 C 228.458 -3.96698 -1.90574 0
M  V30 2471 H 225.577 -0.713567 -0.184367 0
M  V30 2472 H 228.219 -1.88698 0.222087 0
M  V30 2473 H 226.369 -3.51852 -1.64719 0
M  V30 2474 H 228.041 -4.55174 0.749302 0
M  V30 2475 H 226.284 -4.26857 0.773026 0
M  V30 2476 H 226.955 -5.51258 -0.286053 0
M  V30 2477 H 229.431 -3.92578 -1.37918 0
M  V30 2478 H 228.307 -5.01453 -2.2324 0
M  V30 2479 H 228.568 -3.3875 -2.84079 0
M  V30 2480 N 227.627 0.131896 -1.57047 0
M  V30 2481 C 229.043 0.485031 -1.52051 0
M  V30 2482 C 229.243 1.82563 -0.85281 0
M  V30 2483 O 228.299 2.48817 -0.429694 0
M  V30 2484 C 229.612 0.481409 -2.96821 0
M  V30 2485 C 231.16 0.565868 -3.07842 0
M  V30 2486 C 231.635 0.592762 -4.54148 0
M  V30 2487 N 233.126 0.654564 -4.58552 0
M  V30 2488 C 233.861 0.696608 -5.69153 0
M  V30 2489 N 233.357 0.697078 -6.89284 0
M  V30 2490 N 235.15 0.738639 -5.57226 0
M  V30 2491 H 227.301 -0.746664 -1.98843 0
M  V30 2492 H 229.564 -0.273999 -0.90754 0
M  V30 2493 H 229.27 -0.435731 -3.4899 0
M  V30 2494 H 229.144 1.3139 -3.53577 0
M  V30 2495 H 231.531 1.47343 -2.55684 0
M  V30 2496 H 231.612 -0.29406 -2.54104 0
M  V30 2497 H 231.256 -0.310701 -5.06949 0
M  V30 2498 H 231.186 1.46939 -5.05684 0
M  V30 2499 H 233.677 0.660887 -3.72076 0
M  V30 2500 H 233.99 0.731426 -7.69331 0
M  V30 2501 H 232.335 0.66471 -6.91814 0
M  V30 2502 H 235.526 0.735545 -4.62285 0
M  V30 2503 H 235.699 0.767938 -6.43434 0
M  V30 2504 N 229.106 1.52395 0.401703 0
M  V30 2505 C 230.056 1.72649 1.48917 0
M  V30 2506 C 231.04 0.580436 1.50066 0
M  V30 2507 O 232.232 0.83779 1.55917 0
M  V30 2508 C 229.361 1.88729 2.86769 0
M  V30 2509 C 228.447 3.09228 2.90239 0
M  V30 2510 N 228.838 4.31805 2.63396 0
M  V30 2511 C 227.136 3.09214 3.21408 0
M  V30 2512 C 227.837 5.13326 2.73625 0
M  V30 2513 N 226.813 4.48735 3.06819 0
M  V30 2514 H 230.615 2.65058 1.26971 0
M  V30 2515 H 228.129 1.50528 0.609504 0
M  V30 2516 H 230.126 2.01358 3.65049 0
M  V30 2517 H 228.786 0.975252 3.09708 0
M  V30 2518 H 229.797 4.60154 2.37653 0
M  V30 2519 H 226.474 2.27774 3.49893 0
M  V30 2520 H 227.864 6.21003 2.56524 0
M  V30 2521 N 230.584 -0.659388 1.43143 0
M  V30 2522 C 231.494 -1.80167 1.50256 0
M  V30 2523 C 232.51 -1.69571 0.390106 0
M  V30 2524 O 233.686 -1.90849 0.643319 0
M  V30 2525 C 230.751 -3.16409 1.41725 0
M  V30 2526 C 229.812 -3.38848 2.63591 0
M  V30 2527 C 229.045 -4.68591 2.55458 0
M  V30 2528 O 229.268 -5.47532 1.59891 0
M  V30 2529 O 228.202 -4.92614 3.45854 0
M  V30 2530 H 232.028 -1.77121 2.46702 0
M  V30 2531 H 229.613 -0.817092 1.25076 0
M  V30 2532 H 231.495 -3.9768 1.39387 0
M  V30 2533 H 230.17 -3.20059 0.484118 0
M  V30 2534 H 229.077 -2.57366 2.71502 0
M  V30 2535 H 230.41 -3.4004 3.55856 0
M  V30 2536 N 232.062 -1.29571 -0.897171 0
M  V30 2537 C 233.339 -1.08365 -1.62839 0
M  V30 2538 C 233.719 0.371331 -2.07808 0
M  V30 2539 O 233.067 1.3606 -1.83576 0
M  V30 2540 C 233.277 -2.0735 -2.80726 0
M  V30 2541 C 234.625 -2.38406 -3.51351 0
M  V30 2542 O 235.649 -2.05564 -2.90898 0
M  V30 2543 O 234.508 -2.9453 -4.60341 0
M  V30 2544 H 231.602 -0.415345 -0.715134 0
M  V30 2545 H 234.148 -1.40952 -0.945018 0
M  V30 2546 H 232.92 -3.05339 -2.44711 0
M  V30 2547 H 232.543 -1.75507 -3.56767 0
M  V30 2548 N 233.54 1.10788 -1.12088 0
M  V30 2549 C 234.789 1.82036 -0.868659 0
M  V30 2550 C 235.102 1.85929 0.607426 0
M  V30 2551 O 236.308 2.53346 0.97613 0
M  V30 2552 C 234.764 3.26951 -1.50435 0
M  V30 2553 C 234.372 3.31367 -3.01496 0
M  V30 2554 C 236.116 4.03053 -1.33225 0
M  V30 2555 C 234.023 4.7072 -3.58017 0
M  V30 2556 H 232.953 0.682108 -0.321318 0
M  V30 2557 H 235.604 1.24618 -1.34694 0
M  V30 2558 H 233.986 3.84343 -0.953735 0
M  V30 2559 H 235.16 2.83819 -3.6302 0
M  V30 2560 H 233.475 2.6875 -3.18061 0
M  V30 2561 H 236.072 5.05981 -1.72878 0
M  V30 2562 H 236.415 4.15387 -0.275529 0
M  V30 2563 H 236.948 3.52066 -1.85188 0
M  V30 2564 H 233.687 4.63585 -4.63432 0
M  V30 2565 H 233.207 5.1865 -3.01268 0
M  V30 2566 H 234.886 5.39685 -3.56859 0
M  V30 2567 N 235.018 0.912232 1.28515 0
M  V30 2568 C 236.295 0.463597 1.90027 0
M  V30 2569 C 236.675 -1.05753 1.82701 0
M  V30 2570 O 236.023 -1.90492 1.26194 0
M  V30 2571 C 236.233 0.992253 3.34597 0
M  V30 2572 C 237.581 1.04344 4.11579 0
M  V30 2573 O 238.605 0.94079 3.43551 0
M  V30 2574 O 237.464 1.1995 5.33174 0
M  V30 2575 H 234.558 0.146666 0.813891 0
M  V30 2576 H 237.104 1.00292 1.36893 0
M  V30 2577 H 235.876 2.03623 3.34146 0
M  V30 2578 H 235.499 0.433672 3.95228 0
M  V30 2579 N 236.496 -1.42363 0.676048 0
M  V30 2580 C 237.443 -2.308 -0.00150904 0
M  V30 2581 C 238.413 -1.46032 -0.791444 0
M  V30 2582 O 239.598 -1.74861 -0.76344 0
M  V30 2583 C 236.738 -3.31883 -0.945919 0
M  V30 2584 C 235.851 -4.31741 -0.149675 0
M  V30 2585 C 234.986 -5.19898 -1.08995 0
M  V30 2586 C 234.025 -6.11434 -0.285465 0
M  V30 2587 N 233.162 -6.92138 -1.17851 0
M  V30 2588 H 238.002 -2.88187 0.758455 0
M  V30 2589 H 235.539 -1.41952 0.38576 0
M  V30 2590 H 237.497 -3.89019 -1.50731 0
M  V30 2591 H 236.127 -2.76093 -1.6725 0
M  V30 2592 H 235.179 -3.76713 0.528359 0
M  V30 2593 H 236.491 -4.96534 0.474866 0
M  V30 2594 H 235.645 -5.81772 -1.72123 0
M  V30 2595 H 234.384 -4.55284 -1.74837 0
M  V30 2596 H 233.389 -5.48627 0.359018 0
M  V30 2597 H 234.614 -6.78097 0.368883 0
M  V30 2598 H 232.56 -6.30152 -1.82332 0
M  V30 2599 H 232.477 -7.53542 -0.609082 0
M  V30 2600 H 233.745 -7.58499 -1.79722 0
M  V30 2601 N 237.974 -0.419461 -1.51915 0
M  V30 2602 C 239.222 0.152637 -2.01523 0
M  V30 2603 C 239.543 1.44762 -1.30649 0
M  V30 2604 O 238.813 1.90997 -0.435535 0
M  V30 2605 H 237.393 0.0593966 -0.744635 0
M  V30 2606 H 240.055 -0.558073 -1.86739 0
M  V30 2607 H 239.151 0.341369 -3.10227 0
M  V30 2608 N 239.452 1.56882 -0.150215 0
M  V30 2609 C 240.701 1.95403 0.500071 0
M  V30 2610 C 241.014 1.03777 1.658 0
M  V30 2611 O 242.22 1.31889 2.37313 0
M  V30 2612 C 240.676 3.4738 0.941018 0
M  V30 2613 C 240.284 4.47596 -0.190158 0
M  V30 2614 C 242.028 3.9476 1.56091 0
M  V30 2615 C 239.935 5.90787 0.269237 0
M  V30 2616 H 238.865 0.729515 0.190588 0
M  V30 2617 H 241.516 1.81988 -0.235074 0
M  V30 2618 H 239.898 3.56138 1.73152 0
M  V30 2619 H 241.072 4.50536 -0.967157 0
M  V30 2620 H 239.387 4.10151 -0.718666 0
M  V30 2621 H 241.984 4.99181 1.9163 0
M  V30 2622 H 242.327 3.36494 2.45107 0
M  V30 2623 H 242.86 3.88932 0.835249 0
M  V30 2624 H 239.599 6.52879 -0.585621 0
M  V30 2625 H 239.119 5.912 1.01204 0
M  V30 2626 H 240.798 6.42979 0.720176 0
M  V30 2627 N 240.93 -0.123565 1.57115 0
M  V30 2628 C 241.86 -1.15309 2.03042 0
M  V30 2629 C 242.841 -1.43454 0.914061 0
M  V30 2630 O 244.026 -1.53973 1.18347 0
M  V30 2631 C 241.156 -2.48043 2.43089 0
M  V30 2632 C 240.11 -2.3437 3.58127 0
M  V30 2633 C 239.436 -3.72026 3.84059 0
M  V30 2634 C 240.736 -1.80804 4.90007 0
M  V30 2635 H 242.43 -0.771102 2.893 0
M  V30 2636 H 239.976 -0.369479 1.39179 0
M  V30 2637 H 241.929 -3.20311 2.73823 0
M  V30 2638 H 240.653 -2.88122 1.53796 0
M  V30 2639 H 239.312 -1.64551 3.27595 0
M  V30 2640 H 238.96 -4.09582 2.91979 0
M  V30 2641 H 238.66 -3.63732 4.6149 0
M  V30 2642 H 240.184 -4.45806 4.1724 0
M  V30 2643 H 241.598 -2.42886 5.19307 0
M  V30 2644 H 239.995 -1.83343 5.71407 0
M  V30 2645 H 241.065 -0.76528 4.78823 0
M  V30 2646 N 242.408 -1.52605 -0.393616 0
M  V30 2647 C 243.338 -1.80022 -1.48709 0
M  V30 2648 C 244.319 -0.651995 -1.57108 0
M  V30 2649 O 245.504 -0.89913 -1.72132 0
M  V30 2650 C 242.634 -1.96492 -2.86371 0
M  V30 2651 C 241.588 -3.12161 -2.92813 0
M  V30 2652 C 240.914 -3.13877 -4.3288 0
M  V30 2653 C 242.214 -4.51322 -2.6288 0
M  V30 2654 H 243.908 -2.71589 -1.26015 0
M  V30 2655 H 241.454 -1.30684 -0.604778 0
M  V30 2656 H 243.407 -2.14255 -3.62867 0
M  V30 2657 H 242.131 -1.01611 -3.10391 0
M  V30 2658 H 240.79 -2.94173 -2.18764 0
M  V30 2659 H 240.438 -2.16687 -4.53933 0
M  V30 2660 H 240.138 -3.91576 -4.38112 0
M  V30 2661 H 241.662 -3.33789 -5.1129 0
M  V30 2662 H 243.076 -4.69435 -3.29096 0
M  V30 2663 H 241.473 -5.31053 -2.79468 0
M  V30 2664 H 242.543 -4.58353 -1.58242 0
M  V30 2665 N 243.887 0.651787 -1.4349 0
M  V30 2666 C 244.835 1.78586 -1.49029 0
M  V30 2667 C 245.829 1.65448 -0.363767 0
M  V30 2668 O 247.035 1.71777 -0.537821 0
M  V30 2669 H 243.41 0.589236 -0.467231 0
M  V30 2670 H 245.381 1.71035 -2.44519 0
M  V30 2671 C 244.13 3.16851 -1.43181 0
M  V30 2672 H 243.453 3.27598 -2.29171 0
M  V30 2673 H 244.893 3.96156 -1.51118 0
M  V30 2674 C 243.352 3.36568 -0.149616 0
M  V30 2675 O 243.882 3.93885 0.788509 0
M  V30 2676 N 242.088 2.90539 -0.0593484 0
M  V30 2677 H 241.635 2.4408 -0.823575 0
M  V30 2678 H 241.593 3.04108 0.797853 0
M  V30 2679 N 245.365 1.30045 0.890287 0
M  V30 2680 C 246.611 1.19747 1.64415 0
M  V30 2681 C 246.966 -0.246591 1.90813 0
M  V30 2682 O 246.259 -1.174 1.51419 0
M  V30 2683 C 246.453 1.95409 2.99249 0
M  V30 2684 C 246.282 3.47025 2.86013 0
M  V30 2685 C 245.052 4.1638 2.86279 0
M  V30 2686 C 247.25 4.42353 2.62351 0
M  V30 2687 N 245.232 5.54293 2.63879 0
M  V30 2688 C 246.603 5.67792 2.49022 0
M  V30 2689 C 248.658 4.32009 2.47533 0
M  V30 2690 C 247.361 6.8406 2.22383 0
M  V30 2691 C 249.387 5.48038 2.22279 0
M  V30 2692 C 248.749 6.72455 2.09722 0
M  V30 2693 H 244.848 0.493223 0.60684 0
M  V30 2694 H 247.432 1.6399 1.04954 0
M  V30 2695 H 245.603 1.53565 3.56752 0
M  V30 2696 H 247.335 1.77298 3.63796 0
M  V30 2697 H 244.09 3.68164 2.97913 0
M  V30 2698 H 244.514 6.26852 2.55706 0
M  V30 2699 H 249.156 3.36503 2.55979 0
M  V30 2700 H 246.874 7.79612 2.12675 0
M  V30 2701 H 250.46 5.41939 2.11643 0
M  V30 2702 H 249.34 7.60722 1.90453 0
M  V30 2703 N 246.843 -1.10192 1.12674 0
M  V30 2704 C 248.071 -1.85983 0.906527 0
M  V30 2705 C 248.486 -1.80783 -0.544333 0
M  V30 2706 O 247.843 -1.19834 -1.37645 0
M  V30 2707 C 247.894 -3.34281 1.37618 0
M  V30 2708 O 247.615 -3.39401 2.77017 0
M  V30 2709 C 249.116 -4.26938 1.19325 0
M  V30 2710 H 246.336 -0.587716 0.323775 0
M  V30 2711 H 248.88 -1.39284 1.49734 0
M  V30 2712 H 247.035 -3.78436 0.828539 0
M  V30 2713 H 247.449 -4.31838 2.97684 0
M  V30 2714 H 248.923 -5.29181 1.57071 0
M  V30 2715 H 249.4 -4.38995 0.134097 0
M  V30 2716 H 250.006 -3.8859 1.72852 0
M  V30 2717 N 248.321 -0.919034 -1.28029 0
M  V30 2718 C 249.268 -0.410005 -2.27129 0
M  V30 2719 C 250.238 0.518405 -1.57803 0
M  V30 2720 O 251.423 0.439451 -1.8567 0
M  V30 2721 C 248.563 0.339054 -3.4343 0
M  V30 2722 C 247.676 -0.622468 -4.27492 0
M  V30 2723 C 246.811 0.145567 -5.31001 0
M  V30 2724 C 245.85 -0.809226 -6.06727 0
M  V30 2725 N 244.987 -0.0743728 -7.02061 0
M  V30 2726 H 249.827 -1.26011 -2.70047 0
M  V30 2727 H 247.364 -0.632663 -1.328 0
M  V30 2728 H 249.322 0.789586 -4.0966 0
M  V30 2729 H 247.952 1.15346 -3.01488 0
M  V30 2730 H 247.004 -1.19153 -3.61257 0
M  V30 2731 H 248.316 -1.35252 -4.80113 0
M  V30 2732 H 247.47 0.656417 -6.03139 0
M  V30 2733 H 246.209 0.908643 -4.79161 0
M  V30 2734 H 245.214 -1.3314 -5.33436 0
M  V30 2735 H 246.439 -1.57194 -6.60656 0
M  V30 2736 H 244.385 0.670616 -6.52563 0
M  V30 2737 H 244.302 -0.744157 -7.52329 0
M  V30 2738 H 245.57 0.416109 -7.78389 0
M  V30 2739 N 249.799 1.42003 -0.683588 0
M  V30 2740 C 251.047 2.01015 -0.209101 0
M  V30 2741 C 251.368 1.54365 1.19149 0
M  V30 2742 O 250.638 0.769083 1.80172 0
M  V30 2743 H 249.218 0.743294 -0.074315 0
M  V30 2744 H 251.88 1.73798 -0.882066 0
M  V30 2745 H 250.976 3.11343 -0.2172 0
M  V30 2746 N 251.277 0.427512 1.51691 0
M  V30 2747 C 252.524 -0.142229 2.02 0
M  V30 2748 C 252.852 -1.43566 1.31221 0
M  V30 2749 O 252.107 -1.91298 0.412744 0
M  V30 2750 C 252.406 -0.418249 3.54944 0
M  V30 2751 C 252.072 0.788187 4.43958 0
M  V30 2752 C 250.734 1.11906 4.68007 0
M  V30 2753 C 253.086 1.59347 4.96244 0
M  V30 2754 C 250.414 2.25608 5.41588 0
M  V30 2755 C 252.766 2.7214 5.71072 0
M  V30 2756 C 251.43 3.05692 5.93387 0
M  V30 2757 H 250.7 -0.0520451 0.73917 0
M  V30 2758 H 253.347 0.572697 1.82736 0
M  V30 2759 H 251.652 -1.21496 3.72486 0
M  V30 2760 H 253.349 -0.872339 3.91397 0
M  V30 2761 H 249.939 0.520344 4.2543 0
M  V30 2762 H 254.123 1.35106 4.77556 0
M  V30 2763 H 249.379 2.51929 5.57083 0
M  V30 2764 H 253.553 3.34914 6.10578 0
M  V30 2765 H 251.18 3.9391 6.50184 0
M  V30 2766 N 252.755 -1.56801 0.158532 0
M  V30 2767 C 253.702 -2.17337 -0.776729 0
M  V30 2768 C 254.672 -1.1096 -1.23601 0
M  V30 2769 O 255.857 -1.39054 -1.30647 0
M  V30 2770 C 252.997 -2.80822 -2.00582 0
M  V30 2771 C 252.11 -4.01624 -1.59129 0
M  V30 2772 C 251.245 -4.53072 -2.77306 0
M  V30 2773 C 250.284 -5.66314 -2.32282 0
M  V30 2774 N 249.421 -6.12329 -3.43508 0
M  V30 2775 H 254.261 -2.96918 -0.253701 0
M  V30 2776 H 251.798 -1.46661 -0.113504 0
M  V30 2777 H 253.756 -3.15779 -2.72652 0
M  V30 2778 H 252.386 -2.03866 -2.50277 0
M  V30 2779 H 251.438 -3.72571 -0.767806 0
M  V30 2780 H 252.75 -4.83633 -1.2207 0
M  V30 2781 H 251.904 -4.90145 -3.57551 0
M  V30 2782 H 250.643 -3.70095 -3.17617 0
M  V30 2783 H 249.648 -5.28806 -1.5048 0
M  V30 2784 H 250.873 -6.51085 -1.93043 0
M  V30 2785 H 248.819 -5.32284 -3.83418 0
M  V30 2786 H 248.736 -6.89293 -3.105 0
M  V30 2787 H 250.004 -6.5405 -4.24075 0
M  V30 2788 N 254.233 0.115231 -1.57178 0
M  V30 2789 C 255.196 1.12526 -1.99676 0
M  V30 2790 C 256.196 1.34095 -0.88742 0
M  V30 2791 O 257.386 1.30548 -1.15337 0
M  V30 2792 C 254.518 2.4789 -2.34015 0
M  V30 2793 H 255.711 0.759912 -2.90113 0
M  V30 2794 H 253.264 0.359648 -1.52106 0
M  V30 2795 H 253.999 2.89339 -1.4647 0
M  V30 2796 H 253.784 2.33588 -3.14927 0
M  V30 2797 H 255.274 3.20575 -2.67622 0
M  V30 2798 N 255.711 1.52812 0.385517 0
M  V30 2799 C 256.936 1.72207 1.15583 0
M  V30 2800 C 257.361 0.441034 1.82857 0
M  V30 2801 O 256.719 -0.603465 1.70962 0
M  V30 2802 C 256.767 2.87476 2.17692 0
M  V30 2803 O 255.871 2.54693 3.24354 0
M  V30 2804 H 255.212 0.572526 0.336319 0
M  V30 2805 H 257.742 1.99618 0.448744 0
M  V30 2806 H 257.752 3.13072 2.6163 0
M  V30 2807 H 256.427 3.80408 1.68115 0
M  V30 2808 H 255.004 2.3985 2.85529 0
M  V30 2809 N 257.189 -0.644168 1.43834 0
M  V30 2810 C 258.437 -1.40117 1.45642 0
M  V30 2811 C 258.758 -1.94814 0.0852413 0
M  V30 2812 O 258.028 -1.74988 -0.880688 0
M  V30 2813 H 256.608 -0.52005 0.536243 0
M  V30 2814 H 259.27 -0.7591 1.7951 0
M  V30 2815 H 258.366 -2.23902 2.17427 0
M  V30 2816 N 258.668 -1.30515 -0.883378 0
M  V30 2817 C 259.631 -1.1701 -1.97082 0
M  V30 2818 C 260.631 -0.10089 -1.60483 0
M  V30 2819 O 261.821 -0.349127 -1.70666 0
M  V30 2820 C 258.953 -0.793045 -3.31547 0
M  V30 2821 H 260.146 -2.13622 -2.10489 0
M  V30 2822 H 257.699 -1.13935 -1.06998 0
M  V30 2823 H 258.434 0.172499 -3.23841 0
M  V30 2824 H 258.219 -1.56576 -3.5948 0
M  V30 2825 H 259.709 -0.722073 -4.1131 0
M  V30 2826 N 260.146 1.09593 -1.13257 0
M  V30 2827 C 261.056 2.19739 -0.821691 0
M  V30 2828 C 262.072 1.72926 0.19302 0
M  V30 2829 O 263.248 2.01385 0.0244895 0
M  V30 2830 C 260.313 3.45482 -0.290333 0
M  V30 2831 C 259.374 4.06985 -1.36607 0
M  V30 2832 C 258.607 5.26726 -0.859975 0
M  V30 2833 O 258.83 5.69594 0.303082 0
M  V30 2834 O 257.764 5.7931 -1.63351 0
M  V30 2835 H 261.59 2.48781 -1.74189 0
M  V30 2836 H 259.175 1.18496 -0.909894 0
M  V30 2837 H 261.057 4.214 0.000674022 0
M  V30 2838 H 259.732 3.18047 0.602306 0
M  V30 2839 H 258.639 3.32712 -1.71037 0
M  V30 2840 H 259.972 4.38643 -2.23279 0
M  V30 2841 N 261.624 0.925811 1.2754 0
M  V30 2842 C 262.872 0.564138 1.94067 0
M  V30 2843 C 263.193 -0.897188 1.73134 0
M  V30 2844 O 262.463 -1.63573 1.07799 0
M  V30 2845 H 261.043 0.205645 0.718136 0
M  V30 2846 H 263.705 1.1778 1.55287 0
M  V30 2847 H 262.801 0.76881 3.02483 0
M  V30 2848 N 263.102 -1.41638 0.69111 0
M  V30 2849 C 264.05 -2.32597 0.0115199 0
M  V30 2850 C 265.044 -1.5072 -0.773296 0
M  V30 2851 O 266.25 -1.66685 -0.67942 0
M  V30 2852 H 262.625 -0.751849 -0.0150746 0
M  V30 2853 H 264.596 -2.87593 0.795791 0
M  V30 2854 C 263.345 -3.35467 -0.914172 0
M  V30 2855 H 262.668 -3.9852 -0.319687 0
M  V30 2856 H 264.108 -4.01662 -1.35808 0
M  V30 2857 C 262.567 -2.69004 -2.02826 0
M  V30 2858 O 263.097 -2.53444 -3.11655 0
M  V30 2859 N 261.303 -2.2777 -1.80469 0
M  V30 2860 H 260.85 -2.40626 -0.919615 0
M  V30 2861 H 260.808 -1.83635 -2.55197 0
M  V30 2862 N 264.58 -0.43555 -1.51462 0
M  V30 2863 C 265.528 0.391205 -2.29287 0
M  V30 2864 C 266.522 1.02247 -1.35062 0
M  V30 2865 O 267.728 0.957646 -1.52411 0
M  V30 2866 H 264.103 0.144968 -0.737895 0
M  V30 2867 H 266.074 -0.286051 -2.97026 0
M  V30 2868 C 264.823 1.48096 -3.14583 0
M  V30 2869 H 264.146 1.00457 -3.86973 0
M  V30 2870 H 265.586 2.03273 -3.72097 0
M  V30 2871 C 264.045 2.46321 -2.29843 0
M  V30 2872 O 264.575 3.50815 -1.95682 0
M  V30 2873 N 262.781 2.17166 -1.931 0
M  V30 2874 H 262.328 1.32218 -2.21079 0
M  V30 2875 H 262.286 2.83127 -1.36698 0
M  V30 2876 N 266.058 1.56714 -0.166846 0
M  V30 2877 C 267.304 1.97039 0.479962 0
M  V30 2878 C 267.637 1.05264 1.63197 0
M  V30 2879 O 266.912 0.0988833 1.94248 0
M  V30 2880 C 267.195 3.46867 0.967212 0
M  V30 2881 C 267.048 4.49421 -0.18466 0
M  V30 2882 C 268.367 3.9968 1.84238 0
M  V30 2883 H 265.486 0.71641 0.172992 0
M  V30 2884 H 268.128 1.8832 -0.252079 0
M  V30 2885 H 266.278 3.54428 1.59101 0
M  V30 2886 H 267.95 4.53924 -0.821621 0
M  V30 2887 H 266.193 4.25573 -0.840837 0
M  V30 2888 H 266.864 5.51644 0.198317 0
M  V30 2889 H 269.34 3.94723 1.31655 0
M  V30 2890 H 268.216 5.04941 2.15234 0
M  V30 2891 H 268.477 3.43226 2.78654 0
M  V30 2892 N 267.536 -0.106894 1.57237 0
M  V30 2893 C 268.782 -0.81373 1.85759 0
M  V30 2894 C 269.115 -1.78952 0.754315 0
M  V30 2895 O 268.39 -1.93029 -0.23879 0
M  V30 2896 C 268.673 -1.55293 3.24894 0
M  V30 2897 C 268.526 -0.595929 4.45835 0
M  V30 2898 C 269.845 -2.5063 3.61763 0
M  V30 2899 H 266.964 -0.294369 0.67566 0
M  V30 2900 H 269.606 -0.0776472 1.89841 0
M  V30 2901 H 267.756 -2.1804 3.21544 0
M  V30 2902 H 269.428 0.0236262 4.61294 0
M  V30 2903 H 267.671 0.0916191 4.33703 0
M  V30 2904 H 268.342 -1.15004 5.39887 0
M  V30 2905 H 270.818 -1.97982 3.65981 0
M  V30 2906 H 269.694 -2.99376 4.60071 0
M  V30 2907 H 269.955 -3.3385 2.89821 0
M  V30 2908 N 269.014 -1.53014 -0.377408 0
M  V30 2909 C 270.262 -1.6829 -1.11906 0
M  V30 2910 C 270.583 -0.431206 -1.90173 0
M  V30 2911 O 269.853 0.554595 -1.87886 0
M  V30 2912 H 268.433 -0.620371 -0.416112 0
M  V30 2913 H 271.095 -1.90167 -0.426893 0
M  V30 2914 H 270.191 -2.53862 -1.8155 0
M  V30 2915 N 270.492 0.636531 -1.44174 0
M  V30 2916 C 271.422 1.76003 -1.53444 0
M  V30 2917 C 272.403 1.65619 -0.387841 0
M  V30 2918 O 273.588 1.84461 -0.607257 0
M  V30 2919 C 270.718 3.14511 -1.4731 0
M  V30 2920 C 269.672 3.39677 -2.60391 0
M  V30 2921 C 268.998 4.78159 -2.39308 0
M  V30 2922 C 270.298 3.32772 -4.02567 0
M  V30 2923 H 271.992 1.68501 -2.47483 0
M  V30 2924 H 269.538 0.809237 -1.19111 0
M  V30 2925 H 271.491 3.92878 -1.52397 0
M  V30 2926 H 270.215 3.22783 -0.49785 0
M  V30 2927 H 268.874 2.63688 -2.54684 0
M  V30 2928 H 268.522 4.83128 -1.39988 0
M  V30 2929 H 268.222 4.95956 -3.15122 0
M  V30 2930 H 269.746 5.58762 -2.46205 0
M  V30 2931 H 271.16 4.01051 -4.09672 0
M  V30 2932 H 269.557 3.62104 -4.7854 0
M  V30 2933 H 270.627 2.30669 -4.2652 0
M  V30 2934 N 271.97 1.30982 0.876444 0
M  V30 2935 C 272.9 1.20668 1.99903 0
M  V30 2936 C 273.881 0.095354 1.69833 0
M  V30 2937 O 275.066 0.27885 1.92188 0
M  V30 2938 C 272.196 0.90655 3.3526 0
M  V30 2939 C 271.15 1.97675 3.79617 0
M  V30 2940 C 270.476 1.52943 5.1236 0
M  V30 2941 C 271.776 3.389 3.97422 0
M  V30 2942 H 273.47 2.14586 2.0879 0
M  V30 2943 H 271.016 1.03308 1.00317 0
M  V30 2944 H 272.969 0.821025 4.13324 0
M  V30 2945 H 271.693 -0.0682969 3.26529 0
M  V30 2946 H 270.352 2.05205 3.03787 0
M  V30 2947 H 270 0.54262 5.00065 0
M  V30 2948 H 269.7 2.24532 5.43009 0
M  V30 2949 H 271.224 1.45786 5.92941 0
M  V30 2950 H 272.638 3.34081 4.659 0
M  V30 2951 H 271.035 4.0865 4.3946 0
M  V30 2952 H 272.105 3.80163 3.01006 0
M  V30 2953 N 273.449 -1.08991 1.13837 0
M  V30 2954 C 274.865 -1.33312 0.877506 0
M  V30 2955 C 275.065 -1.95587 -0.48456 0
M  V30 2956 O 274.121 -2.20509 -1.23013 0
M  V30 2957 C 275.434 -2.24045 2.0056 0
M  V30 2958 C 276.982 -2.37542 2.03821 0
M  V30 2959 C 277.457 -3.31614 3.15905 0
M  V30 2960 N 278.948 -3.39189 3.15445 0
M  V30 2961 C 279.683 -4.11992 3.98811 0
M  V30 2962 N 279.179 -4.87553 4.92203 0
M  V30 2963 N 280.972 -4.07762 3.86894 0
M  V30 2964 H 273.123 -0.669456 2.01574 0
M  V30 2965 H 275.386 -0.357482 0.878015 0
M  V30 2966 H 275.092 -1.85521 2.98789 0
M  V30 2967 H 274.966 -3.24466 1.92359 0
M  V30 2968 H 277.353 -2.75327 1.06202 0
M  V30 2969 H 277.434 -1.36884 2.16093 0
M  V30 2970 H 277.078 -2.94551 4.13766 0
M  V30 2971 H 277.008 -4.32186 3.0087 0
M  V30 2972 H 279.499 -2.85314 2.47799 0
M  V30 2973 H 279.812 -5.40549 5.52292 0
M  V30 2974 H 278.157 -4.86627 4.96205 0
M  V30 2975 H 281.348 -3.47833 3.13257 0
M  V30 2976 H 281.521 -4.64238 4.52092 0
M  V30 2977 N 274.927 -0.932562 -1.27047 0
M  V30 2978 C 276.204 -0.49377 -1.89265 0
M  V30 2979 C 276.584 1.02833 -1.8436 0
M  V30 2980 O 275.932 1.88461 -1.29209 0
M  V30 2981 C 276.142 -1.04536 -3.32976 0
M  V30 2982 C 277.49 -1.10879 -4.09867 0
M  V30 2983 O 278.514 -0.995327 -3.42011 0
M  V30 2984 O 277.373 -1.28417 -5.31198 0
M  V30 2985 H 274.467 -0.159596 -0.811454 0
M  V30 2986 H 277.013 -1.02457 -1.3528 0
M  V30 2987 H 275.785 -2.08913 -3.30864 0
M  V30 2988 H 275.408 -0.496494 -3.94488 0
M  V30 2989 N 276.405 1.4127 -0.698611 0
M  V30 2990 C 277.368 2.29158 -0.044132 0
M  V30 2991 C 278.368 1.44529 0.704841 0
M  V30 2992 O 279.558 1.65643 0.539276 0
M  V30 2993 C 276.69 3.27459 0.947809 0
M  V30 2994 H 277.883 2.88529 -0.817994 0
M  V30 2995 H 275.436 1.49307 -0.46228 0
M  V30 2996 H 276.171 2.73073 1.74933 0
M  V30 2997 H 275.956 3.8991 0.41385 0
M  V30 2998 H 277.446 3.93311 1.40344 0
M  V30 2999 N 277.883 0.443576 1.51229 0
M  V30 3000 C 279.132 -0.122332 2.01329 0
M  V30 3001 C 279.445 -1.43237 1.33201 0
M  V30 3002 O 280.651 -2.0816 1.74304 0
M  V30 3003 C 279.107 -0.268551 3.58897 0
M  V30 3004 C 278.715 1.03142 4.35965 0
M  V30 3005 C 280.459 -0.787894 4.17124 0
M  V30 3006 C 278.366 0.850504 5.85252 0
M  V30 3007 H 277.296 -0.0494929 0.752374 0
M  V30 3008 H 279.947 0.574289 1.74282 0
M  V30 3009 H 278.329 -1.02832 3.82415 0
M  V30 3010 H 279.503 1.80001 4.24189 0
M  V30 3011 H 277.818 1.47977 3.89219 0
M  V30 3012 H 280.415 -0.939841 5.26375 0
M  V30 3013 H 280.758 -1.77201 3.76703 0
M  V30 3014 H 281.291 -0.0862669 3.97706 0
M  V30 3015 H 278.03 1.80718 6.30096 0
M  V30 3016 H 277.55 0.121825 5.99676 0
M  V30 3017 H 279.229 0.506163 6.45017 0
M  V30 3018 N 279.361 -1.56624 0.175154 0
M  V30 3019 C 280.308 -2.18149 -0.753634 0
M  V30 3020 C 281.278 -1.12265 -1.22417 0
M  V30 3021 O 282.463 -1.40432 -1.29165 0
M  V30 3022 C 279.603 -2.82933 -1.97592 0
M  V30 3023 C 278.716 -4.03289 -1.5486 0
M  V30 3024 C 277.851 -4.55988 -2.72485 0
M  V30 3025 C 276.89 -5.68746 -2.26262 0
M  V30 3026 N 276.027 -6.15938 -3.36994 0
M  V30 3027 H 280.867 -2.9717 -0.222195 0
M  V30 3028 H 278.404 -1.46774 -0.0979422 0
M  V30 3029 H 280.362 -3.18653 -2.69288 0
M  V30 3030 H 278.992 -2.06509 -2.481 0
M  V30 3031 H 278.044 -3.73364 -0.728246 0
M  V30 3032 H 279.356 -4.849 -1.16933 0
M  V30 3033 H 278.51 -4.9391 -3.52332 0
M  V30 3034 H 277.249 -3.73443 -3.13674 0
M  V30 3035 H 276.254 -5.30372 -1.44863 0
M  V30 3036 H 277.479 -6.53095 -1.86127 0
M  V30 3037 H 275.425 -5.36321 -3.77751 0
M  V30 3038 H 275.342 -6.92548 -3.03172 0
M  V30 3039 H 276.61 -6.58511 -4.17114 0
M  V30 3040 N 280.839 0.0985539 -1.57292 0
M  V30 3041 C 282.255 0.45267 -1.53046 0
M  V30 3042 C 282.455 1.80713 -0.891342 0
M  V30 3043 O 281.511 2.4785 -0.482375 0
M  V30 3044 C 282.824 0.418341 -2.97776 0
M  V30 3045 C 284.372 0.500443 -3.08973 0
M  V30 3046 C 284.847 0.496297 -4.55303 0
M  V30 3047 N 286.338 0.557151 -4.59837 0
M  V30 3048 C 287.073 0.575726 -5.70502 0
M  V30 3049 N 286.569 0.550714 -6.90608 0
M  V30 3050 N 288.362 0.620277 -5.58667 0
M  V30 3051 H 280.513 -0.788673 -1.97215 0
M  V30 3052 H 282.776 -0.293188 -0.901524 0
M  V30 3053 H 282.482 -0.509659 -3.47988 0
M  V30 3054 H 282.356 1.2386 -3.56284 0
M  V30 3055 H 284.743 1.41886 -2.58751 0
M  V30 3056 H 284.824 -0.347894 -2.53423 0
M  V30 3057 H 284.468 -0.418162 -5.06176 0
M  V30 3058 H 284.398 1.3618 -5.08687 0
M  V30 3059 H 286.889 0.581816 -3.73394 0
M  V30 3060 H 287.202 0.568075 -7.70709 0
M  V30 3061 H 285.547 0.517816 -6.93068 0
M  V30 3062 H 288.738 0.637322 -4.63741 0
M  V30 3063 H 288.911 0.631283 -6.44918 0
M  V30 3064 N 282.317 1.53212 0.369288 0
M  V30 3065 C 283.733 1.42902 0.710712 0
M  V30 3066 C 283.933 0.565135 1.93413 0
M  V30 3067 O 282.989 0.0461484 2.52458 0
M  V30 3068 C 284.302 2.86042 0.927382 0
M  V30 3069 C 285.85 2.9565 1.02762 0
M  V30 3070 C 286.325 4.39843 1.27679 0
M  V30 3071 N 287.816 4.43256 1.34457 0
M  V30 3072 C 288.551 5.51929 1.55439 0
M  V30 3073 N 288.047 6.70655 1.73762 0
M  V30 3074 N 289.84 5.39502 1.57779 0
M  V30 3075 H 281.991 2.07888 -0.435457 0
M  V30 3076 H 284.254 0.938661 -0.132739 0
M  V30 3077 H 283.96 3.51557 0.100287 0
M  V30 3078 H 283.834 3.29472 1.83653 0
M  V30 3079 H 286.221 2.30291 1.84527 0
M  V30 3080 H 286.302 2.5562 0.0959504 0
M  V30 3081 H 285.946 5.05774 0.464175 0
M  V30 3082 H 285.876 4.77443 2.22162 0
M  V30 3083 H 288.367 3.5769 1.21926 0
M  V30 3084 H 288.68 7.49248 1.89335 0
M  V30 3085 H 287.025 6.73648 1.70948 0
M  V30 3086 H 290.216 4.45713 1.43029 0
M  V30 3087 H 290.389 6.2426 1.7379 0
M  V30 3088 N 283.795 -0.628877 1.44509 0
M  V30 3089 C 285.043 -1.38565 1.4712 0
M  V30 3090 C 285.364 -1.94712 0.105899 0
M  V30 3091 O 284.634 -1.75912 -0.862079 0
M  V30 3092 H 283.214 -0.514333 0.541729 0
M  V30 3093 H 285.876 -0.740018 1.80305 0
M  V30 3094 H 284.972 -2.21583 2.19789 0
M  V30 3095 N 285.273 -1.31445 -0.869486 0
M  V30 3096 C 286.55 -1.11795 -1.60503 0
M  V30 3097 C 286.93 0.327168 -2.08549 0
M  V30 3098 O 286.278 1.32135 -1.8642 0
M  V30 3099 C 286.488 -2.13258 -2.76265 0
M  V30 3100 C 287.836 -2.45805 -3.46215 0
M  V30 3101 O 288.86 -2.11688 -2.86473 0
M  V30 3102 O 287.719 -3.04228 -4.5399 0
M  V30 3103 H 284.813 -0.430421 -0.706163 0
M  V30 3104 H 287.359 -1.42925 -0.914907 0
M  V30 3105 H 286.131 -3.10461 -2.3818 0
M  V30 3106 H 285.754 -1.83035 -3.52964 0
M  V30 3107 N 286.751 1.08385 -1.14413 0
M  V30 3108 C 287.998 1.80776 -0.912482 0
M  V30 3109 C 288.326 1.86236 0.560934 0
M  V30 3110 O 287.581 1.33431 1.43159 0
M  V30 3111 C 287.88 3.26273 -1.45879 0
M  V30 3112 C 287.546 3.4093 -2.95089 0
M  V30 3113 C 286.208 3.44638 -3.35824 0
M  V30 3114 C 288.56 3.44591 -3.91033 0
M  V30 3115 C 285.888 3.49597 -4.71167 0
M  V30 3116 C 288.24 3.51086 -5.26233 0
M  V30 3117 C 286.904 3.53067 -5.6648 0
M  V30 3118 H 286.174 0.661507 -0.333901 0
M  V30 3119 H 288.821 1.27613 -1.42784 0
M  V30 3120 H 287.126 3.82146 -0.864376 0
M  V30 3121 H 288.823 3.80839 -1.2555 0
M  V30 3122 H 285.413 3.38736 -2.62594 0
M  V30 3123 H 289.597 3.40957 -3.60641 0
M  V30 3124 H 284.853 3.49424 -5.0171 0
M  V30 3125 H 289.027 3.52864 -6.00383 0
M  V30 3126 H 286.654 3.56662 -6.71339 0
M  V30 3127 N 288.23 0.939286 1.26551 0
M  V30 3128 C 289.14 0.453432 2.30176 0
M  V30 3129 C 290.156 -0.471649 1.67486 0
M  V30 3130 O 291.332 -0.35164 1.98306 0
M  V30 3131 C 288.397 -0.275326 3.45605 0
M  V30 3132 C 287.458 0.686084 4.23782 0
M  V30 3133 C 286.691 -0.00798994 5.33699 0
M  V30 3134 O 286.914 -1.22528 5.57085 0
M  V30 3135 O 285.848 0.669746 5.98162 0
M  V30 3136 H 289.674 1.31416 2.73795 0
M  V30 3137 H 287.259 0.705095 1.31715 0
M  V30 3138 H 289.141 -0.685911 4.1578 0
M  V30 3139 H 287.816 -1.11147 3.0402 0
M  V30 3140 H 286.723 1.14658 3.56096 0
M  V30 3141 H 288.056 1.48979 4.69112 0
M  V30 3142 N 289.708 -1.40897 0.706093 0
M  V30 3143 C 290.641 -2.282 -0.00328781 0
M  V30 3144 C 291.619 -1.42816 -0.77732 0
M  V30 3145 O 292.803 -1.72237 -0.765944 0
M  V30 3146 C 289.93 -3.23226 -1.01205 0
M  V30 3147 C 288.976 -4.25222 -0.329955 0
M  V30 3148 S 289.809 -5.27269 0.935298 0
M  V30 3149 C 290.965 -6.25859 -0.0716061 0
M  V30 3150 H 291.198 -2.88016 0.737143 0
M  V30 3151 H 288.731 -1.46191 0.496756 0
M  V30 3152 H 290.689 -3.78503 -1.58888 0
M  V30 3153 H 289.35 -2.62485 -1.72513 0
M  V30 3154 H 288.543 -4.92023 -1.09221 0
M  V30 3155 H 288.145 -3.73595 0.174069 0
M  V30 3156 H 290.437 -6.71204 -0.921521 0
M  V30 3157 H 291.38 -7.0586 0.562765 0
M  V30 3158 H 291.788 -5.62852 -0.431088 0
M  V30 3159 N 291.186 -0.45159 -1.50991 0
M  V30 3160 C 292.463 0.170707 -1.94854 0
M  V30 3161 C 292.843 1.58788 -1.39103 0
M  V30 3162 O 292.191 2.20913 -0.583921 0
M  V30 3163 C 292.401 0.133929 -3.48743 0
M  V30 3164 C 293.749 0.33248 -4.23296 0
M  V30 3165 O 294.773 0.211403 -3.55572 0
M  V30 3166 O 293.632 0.57486 -5.43468 0
M  V30 3167 H 290.726 0.122264 -0.817912 0
M  V30 3168 H 293.272 -0.510594 -1.61836 0
M  V30 3169 H 292.044 -0.856283 -3.81816 0
M  V30 3170 H 291.667 0.857529 -3.88242 0
M  V30 3171 N 292.664 1.56529 -0.183458 0
M  V30 3172 C 293.91 1.97537 0.459036 0
M  V30 3173 C 294.243 1.06989 1.62071 0
M  V30 3174 O 293.518 0.11948 1.94133 0
M  V30 3175 C 293.801 3.47874 0.930368 0
M  V30 3176 C 293.654 4.492 -0.232317 0
M  V30 3177 C 294.973 4.01612 1.79989 0
M  V30 3178 H 292.092 0.718204 0.165383 0
M  V30 3179 H 294.734 1.88042 -0.272038 0
M  V30 3180 H 292.884 3.56095 1.55333 0
M  V30 3181 H 294.556 4.53027 -0.86972 0
M  V30 3182 H 292.799 4.24657 -0.885928 0
M  V30 3183 H 293.47 5.51823 0.139796 0
M  V30 3184 H 295.946 3.96097 1.27461 0
M  V30 3185 H 294.822 5.07195 2.09867 0
M  V30 3186 H 295.083 3.46163 2.74998 0
M  V30 3187 N 294.142 -0.090211 1.57342 0
M  V30 3188 C 295.388 -0.793982 1.86611 0
M  V30 3189 C 295.721 -1.78142 0.773252 0
M  V30 3190 O 294.996 -1.93271 -0.218304 0
M  V30 3191 C 295.279 -1.51839 3.26523 0
M  V30 3192 C 295.132 -0.548609 4.46442 0
M  V30 3193 C 296.451 -2.46779 3.64401 0
M  V30 3194 H 293.57 -0.287186 0.678744 0
M  V30 3195 H 296.212 -0.0575076 1.89913 0
M  V30 3196 H 294.362 -2.14617 3.23839 0
M  V30 3197 H 296.034 0.0725513 4.61243 0
M  V30 3198 H 294.277 0.137614 4.33582 0
M  V30 3199 H 294.948 -1.09271 5.41076 0
M  V30 3200 H 297.424 -1.94089 3.68061 0
M  V30 3201 H 296.3 -2.94479 4.63221 0
M  V30 3202 H 296.561 -3.30758 2.93346 0
M  V30 3203 N 295.62 -1.53406 -0.361157 0
M  V30 3204 C 296.583 -1.79479 -1.42548 0
M  V30 3205 C 297.583 -0.665327 -1.4639 0
M  V30 3206 O 298.773 -0.933549 -1.47073 0
M  V30 3207 C 295.905 -1.92087 -2.8163 0
M  V30 3208 H 297.098 -2.74538 -1.20701 0
M  V30 3209 H 294.651 -1.4455 -0.594546 0
M  V30 3210 H 295.386 -0.991099 -3.08784 0
M  V30 3211 H 295.171 -2.74241 -2.80239 0
M  V30 3212 H 296.661 -2.13836 -3.58697 0
M  V30 3213 N 297.098 0.621204 -1.44841 0
M  V30 3214 C 298.031 1.7459 -1.46947 0
M  V30 3215 C 299.009 1.59273 -0.327238 0
M  V30 3216 O 300.193 1.81021 -0.525706 0
M  V30 3217 C 297.32 3.12274 -1.31159 0
M  V30 3218 C 296.366 3.46216 -2.49072 0
M  V30 3219 S 297.199 3.4258 -4.11581 0
M  V30 3220 C 298.355 4.82867 -3.98233 0
M  V30 3221 H 298.588 1.72538 -2.42111 0
M  V30 3222 H 296.121 0.796683 -1.32259 0
M  V30 3223 H 298.079 3.91722 -1.22737 0
M  V30 3224 H 296.74 3.11855 -0.374885 0
M  V30 3225 H 295.933 4.4643 -2.33915 0
M  V30 3226 H 295.535 2.74253 -2.54286 0
M  V30 3227 H 297.827 5.7234 -3.62537 0
M  V30 3228 H 298.77 5.0308 -4.98313 0
M  V30 3229 H 299.178 4.57908 -3.30121 0
M  V30 3230 N 298.576 1.31904 0.862503 0
M  V30 3231 C 299.822 1.22197 1.61851 0
M  V30 3232 C 300.155 -0.217641 1.92977 0
M  V30 3233 O 299.43 -1.15264 1.56666 0
M  V30 3234 C 299.713 2.07378 2.94391 0
M  V30 3235 C 299.566 3.59678 2.70096 0
M  V30 3236 C 300.885 1.92891 3.95577 0
M  V30 3237 H 298.004 0.445255 0.587296 0
M  V30 3238 H 300.646 1.6177 0.99651 0
M  V30 3239 H 298.796 1.73758 3.47477 0
M  V30 3240 H 300.468 4.03472 2.23625 0
M  V30 3241 H 298.711 3.82735 2.04197 0
M  V30 3242 H 299.382 4.14595 3.64438 0
M  V30 3243 H 301.858 2.22327 3.51724 0
M  V30 3244 H 300.734 2.54781 4.86187 0
M  V30 3245 H 300.995 0.894315 4.3296 0
M  V30 3246 N 300.054 -1.07777 1.14986 0
M  V30 3247 C 301.002 -2.16964 0.838406 0
M  V30 3248 C 301.996 -1.68372 -0.186386 0
M  V30 3249 O 303.202 -1.79951 -0.0418465 0
M  V30 3250 H 299.577 -0.708006 0.253439 0
M  V30 3251 H 301.548 -2.40454 1.76704 0
M  V30 3252 C 300.297 -3.4604 0.339335 0
M  V30 3253 H 299.62 -3.83813 1.11927 0
M  V30 3254 H 301.06 -4.23698 0.160021 0
M  V30 3255 C 299.519 -3.23569 -0.938325 0
M  V30 3256 O 300.049 -3.47752 -2.01077 0
M  V30 3257 N 298.255 -2.77079 -0.876117 0
M  V30 3258 H 297.802 -2.576 -0.00322037 0
M  V30 3259 H 297.76 -2.62422 -1.73153 0
M  V30 3260 N 301.532 -0.945985 -1.26051 0
M  V30 3261 C 302.809 -0.513816 -1.88731 0
M  V30 3262 C 303.189 1.00872 -1.8544 0
M  V30 3263 O 302.537 1.8708 -1.312 0
M  V30 3264 C 302.747 -1.08062 -3.31849 0
M  V30 3265 C 304.095 -1.1522 -4.08668 0
M  V30 3266 O 305.119 -1.03155 -3.40936 0
M  V30 3267 O 303.978 -1.34044 -5.29806 0
M  V30 3268 H 301.072 -0.168193 -0.809716 0
M  V30 3269 H 303.618 -1.03886 -1.34186 0
M  V30 3270 H 302.39 -2.1241 -3.2863 0
M  V30 3271 H 302.013 -0.538307 -3.93939 0
M  V30 3272 N 303.011 1.40521 -0.713556 0
M  V30 3273 C 304.239 2.05237 -0.261775 0
M  V30 3274 C 304.654 1.53755 1.09567 0
M  V30 3275 O 304.011 0.693268 1.6882 0
M  V30 3276 C 304.062 3.60763 -0.230706 0
M  V30 3277 O 303.783 4.10345 -1.53455 0
M  V30 3278 C 305.284 4.42651 0.239874 0
M  V30 3279 H 302.504 0.660533 -0.118057 0
M  V30 3280 H 305.048 1.79967 -0.971192 0
M  V30 3281 H 303.203 3.8501 0.429661 0
M  V30 3282 H 303.617 5.04526 -1.43366 0
M  V30 3283 H 305.091 5.51599 0.210468 0
M  V30 3284 H 305.568 4.20082 1.28171 0
M  V30 3285 H 306.174 4.23507 -0.390142 0
M  V30 3286 N 304.489 0.459591 1.5075 0
M  V30 3287 C 305.735 -0.0994966 2.02556 0
M  V30 3288 C 306.068 -1.40399 1.3417 0
M  V30 3289 O 305.343 -1.88892 0.463683 0
M  V30 3290 C 305.626 -0.295242 3.58888 0
M  V30 3291 C 305.479 1.02947 4.37861 0
M  V30 3292 C 306.798 -1.05502 4.27267 0
M  V30 3293 H 303.917 -0.034686 0.736183 0
M  V30 3294 H 306.559 0.602938 1.8018 0
M  V30 3295 H 304.709 -0.893563 3.78084 0
M  V30 3296 H 306.381 1.66348 4.30263 0
M  V30 3297 H 304.624 1.62885 4.02058 0
M  V30 3298 H 305.295 0.846281 5.45474 0
M  V30 3299 H 307.771 -0.547993 4.12476 0
M  V30 3300 H 306.647 -1.16077 5.36486 0
M  V30 3301 H 306.908 -2.08875 3.89645 0
M  V30 3302 N 305.967 -1.56429 0.191757 0
M  V30 3303 C 306.93 -2.17707 -0.716688 0
M  V30 3304 C 307.93 -1.13061 -1.14341 0
M  V30 3305 O 309.12 -1.38464 -1.05704 0
M  V30 3306 C 306.252 -2.77644 -1.97804 0
M  V30 3307 H 307.445 -2.99342 -0.1829 0
M  V30 3308 H 304.998 -1.56193 -0.0578566 0
M  V30 3309 H 305.733 -1.99799 -2.55443 0
M  V30 3310 H 305.518 -3.54246 -1.68083 0
M  V30 3311 H 307.008 -3.24708 -2.62592 0
M  V30 3312 N 307.445 0.0818655 -1.57387 0
M  V30 3313 C 308.673 0.796108 -1.9097 0
M  V30 3314 C 309.088 1.71626 -0.786757 0
M  V30 3315 O 308.445 1.80908 0.240513 0
M  V30 3316 C 308.496 1.59829 -3.24248 0
M  V30 3317 O 308.217 0.715131 -4.32224 0
M  V30 3318 C 309.718 2.41442 -3.7178 0
M  V30 3319 H 306.938 0.22691 -0.631469 0
M  V30 3320 H 309.482 0.0551439 -2.04426 0
M  V30 3321 H 307.637 2.29163 -3.12351 0
M  V30 3322 H 308.051 1.27205 -5.08841 0
M  V30 3323 H 309.525 2.932 -4.67694 0
M  V30 3324 H 310.002 3.2051 -3.00283 0
M  V30 3325 H 310.608 1.77283 -3.86589 0
M  V30 3326 N 308.923 1.53595 0.353017 0
M  V30 3327 C 309.856 1.7572 1.45594 0
M  V30 3328 C 310.834 0.605961 1.50887 0
M  V30 3329 O 312.018 0.840023 1.68748 0
M  V30 3330 C 309.145 1.84732 2.83887 0
M  V30 3331 C 308.191 3.06808 2.96262 0
M  V30 3332 S 309.024 4.66065 2.63711 0
M  V30 3333 C 310.18 4.77943 4.04131 0
M  V30 3334 H 310.413 2.68994 1.26608 0
M  V30 3335 H 307.946 1.44343 0.548117 0
M  V30 3336 H 309.904 1.9061 3.63563 0
M  V30 3337 H 308.565 0.92488 3.00175 0
M  V30 3338 H 307.758 3.09761 3.97573 0
M  V30 3339 H 307.36 2.99108 2.24523 0
M  V30 3340 H 309.652 4.5877 4.98534 0
M  V30 3341 H 310.595 5.80022 4.06177 0
M  V30 3342 H 311.003 4.06472 3.91715 0
M  V30 3343 N 310.401 -0.613514 1.45168 0
M  V30 3344 C 311.65 -1.36874 1.4815 0
M  V30 3345 C 311.963 -1.952 0.124982 0
M  V30 3346 O 313.169 -2.71481 0.0324176 0
M  V30 3347 C 311.625 -2.47905 2.60904 0
M  V30 3348 C 311.233 -1.96016 4.02842 0
M  V30 3349 C 312.977 -3.24965 2.73126 0
M  V30 3350 C 310.884 -3.04494 5.06988 0
M  V30 3351 H 309.814 -0.514428 0.551253 0
M  V30 3352 H 312.465 -0.658182 1.7129 0
M  V30 3353 H 310.847 -3.21618 2.31037 0
M  V30 3354 H 312.021 -1.29051 4.4236 0
M  V30 3355 H 310.336 -1.31719 3.95018 0
M  V30 3356 H 312.933 -4.05865 3.48106 0
M  V30 3357 H 313.276 -3.75588 1.79553 0
M  V30 3358 H 313.809 -2.5835 3.0249 0
M  V30 3359 H 310.548 -2.58795 6.0225 0
M  V30 3360 H 310.068 -3.70044 4.72046 0
M  V30 3361 H 311.747 -3.68976 5.31475 0
M  V30 3362 N 311.879 -1.3236 -0.855495 0
M  V30 3363 C 313.104 -1.2601 -1.64731 0
M  V30 3364 C 313.529 0.169068 -1.87339 0
M  V30 3365 O 312.887 1.12016 -1.42556 0
M  V30 3366 C 312.935 -2.02417 -2.98429 0
M  V30 3367 O 312.039 -1.3714 -3.8893 0
M  V30 3368 H 311.38 -0.434325 -0.502253 0
M  V30 3369 H 313.91 -1.74661 -1.06558 0
M  V30 3370 H 313.92 -2.12559 -3.48257 0
M  V30 3371 H 312.595 -3.06343 -2.81295 0
M  V30 3372 H 311.172 -1.3554 -3.47395 0
M  V30 3373 N 313.357 1.07166 -1.15556 0
M  V30 3374 C 314.597 1.81391 -0.94216 0
M  V30 3375 C 314.961 1.84788 0.521272 0
M  V30 3376 O 316.162 2.54904 0.85307 0
M  V30 3377 C 314.433 3.22431 -1.54185 0
M  V30 3378 S 315.992 4.13379 -1.47183 0
M  V30 3379 H 312.81 0.624963 -0.339031 0
M  V30 3380 H 315.412 1.28725 -1.4714 0
M  V30 3381 H 314.116 3.17548 -2.59984 0
M  V30 3382 H 313.647 3.80172 -1.01156 0
M  V30 3383 H 315.662 4.94007 -0.466004 0
M  V30 3384 N 314.835 0.952656 1.25548 0
M  V30 3385 C 316.065 0.622592 1.96996 0
M  V30 3386 C 316.473 -0.809112 1.71026 0
M  V30 3387 O 315.816 -1.55258 0.981861 0
M  V30 3388 C 315.878 0.798946 3.5051 0
M  V30 3389 C 315.542 2.20744 4.00151 0
M  V30 3390 C 316.539 3.18394 4.11001 0
M  V30 3391 C 314.224 2.5311 4.33867 0
M  V30 3392 C 316.218 4.46504 4.54877 0
M  V30 3393 C 313.905 3.8145 4.7743 0
M  V30 3394 C 314.903 4.77959 4.87897 0
M  V30 3395 O 314.591 6.04012 5.30494 0
M  V30 3396 H 314.323 0.232503 0.634758 0
M  V30 3397 H 316.877 1.2789 1.60728 0
M  V30 3398 H 315.107 0.0854903 3.86605 0
M  V30 3399 H 316.796 0.47023 4.03167 0
M  V30 3400 H 317.562 2.94715 3.85186 0
M  V30 3401 H 313.441 1.78719 4.24948 0
M  V30 3402 H 316.985 5.21835 4.62962 0
M  V30 3403 H 312.882 4.04936 5.0269 0
M  V30 3404 H 313.65 6.0736 5.48685 0
M  V30 3405 N 316.313 -1.40141 0.720998 0
M  V30 3406 C 317.543 -2.04798 0.27226 0
M  V30 3407 C 317.951 -1.54442 -1.09289 0
M  V30 3408 O 317.294 -0.698342 -1.69908 0
M  V30 3409 C 317.356 -3.59048 0.18027 0
M  V30 3410 C 317.02 -4.32317 1.48159 0
M  V30 3411 C 318.017 -4.59902 2.42458 0
M  V30 3412 C 315.702 -4.71125 1.74202 0
M  V30 3413 C 317.696 -5.25288 3.61042 0
M  V30 3414 C 315.383 -5.36242 2.93066 0
M  V30 3415 C 316.381 -5.63254 3.86308 0
M  V30 3416 O 316.069 -6.27024 5.03086 0
M  V30 3417 H 315.801 -0.665419 0.119139 0
M  V30 3418 H 318.355 -1.80436 0.981432 0
M  V30 3419 H 316.585 -3.82251 -0.58489 0
M  V30 3420 H 318.274 -4.05221 -0.234618 0
M  V30 3421 H 319.04 -4.30379 2.23604 0
M  V30 3422 H 314.919 -4.49466 1.02477 0
M  V30 3423 H 318.463 -5.46289 4.33837 0
M  V30 3424 H 314.36 -5.65185 3.11826 0
M  V30 3425 H 315.128 -6.4552 5.03235 0
M  V30 3426 N 317.792 -0.46758 -1.50504 0
M  V30 3427 C 318.702 0.33382 -2.32213 0
M  V30 3428 C 319.718 0.999323 -1.42441 0
M  V30 3429 O 320.894 0.988068 -1.75497 0
M  V30 3430 C 317.959 1.4035 -3.17022 0
M  V30 3431 C 317.02 0.754961 -4.2261 0
M  V30 3432 C 316.253 1.77367 -5.03365 0
M  V30 3433 O 316.476 2.99976 -4.8515 0
M  V30 3434 O 315.41 1.34744 -5.86624 0
M  V30 3435 H 319.236 -0.334067 -3.01857 0
M  V30 3436 H 316.821 -0.229496 -1.47627 0
M  V30 3437 H 318.703 2.02318 -3.69656 0
M  V30 3438 H 317.378 2.05492 -2.5011 0
M  V30 3439 H 316.285 0.0964244 -3.73976 0
M  V30 3440 H 317.618 0.146545 -4.91982 0
M  V30 3441 N 319.27 1.56325 -0.20005 0
M  V30 3442 C 320.547 1.89484 0.48529 0
M  V30 3443 C 320.927 1.1143 1.79294 0
M  V30 3444 O 320.275 0.216919 2.27468 0
M  V30 3445 C 320.485 3.41923 0.699243 0
M  V30 3446 C 321.833 4.12256 1.01638 0
M  V30 3447 O 322.857 3.47402 0.786792 0
M  V30 3448 O 321.716 5.26887 1.45095 0
M  V30 3449 H 318.81 0.787144 0.253639 0
M  V30 3450 H 321.356 1.67985 -0.240633 0
M  V30 3451 H 320.128 3.90658 -0.224008 0
M  V30 3452 H 319.751 3.69131 1.47744 0
M  V30 3453 N 320.748 -0.0735177 1.57428 0
M  V30 3454 C 321.698 -1.09442 2.00016 0
M  V30 3455 C 322.682 -1.34575 0.881947 0
M  V30 3456 O 323.874 -1.34905 1.14585 0
M  V30 3457 C 321.003 -2.40865 2.4462 0
M  V30 3458 C 320.089 -2.19014 3.63172 0
M  V30 3459 N 320.48 -1.67087 4.77405 0
M  V30 3460 C 318.778 -2.49494 3.69688 0
M  V30 3461 C 319.479 -1.6001 5.5926 0
M  V30 3462 N 318.455 -2.05999 5.03056 0
M  V30 3463 H 322.257 -0.686227 2.85776 0
M  V30 3464 H 319.771 -0.280617 1.59957 0
M  V30 3465 H 321.768 -3.14763 2.73368 0
M  V30 3466 H 320.428 -2.82403 1.60246 0
M  V30 3467 H 321.439 -1.35975 4.99731 0
M  V30 3468 H 318.116 -2.94409 2.96023 0
M  V30 3469 H 319.506 -1.2073 6.60964 0
M  V30 3470 N 322.226 -1.5378 -0.344866 0
M  V30 3471 C 323.158 -1.77988 -1.44406 0
M  V30 3472 C 324.171 -0.661138 -1.48771 0
M  V30 3473 O 325.36 -0.937842 -1.51877 0
M  V30 3474 C 322.46 -1.86345 -2.8307 0
M  V30 3475 C 321.633 -3.16256 -3.0216 0
M  V30 3476 C 320.692 -3.15588 -4.21059 0
M  V30 3477 O 319.718 -3.89314 -4.15239 0
M  V30 3478 N 320.92 -2.37864 -5.29529 0
M  V30 3479 H 323.685 -2.72839 -1.24012 0
M  V30 3480 H 321.246 -1.52814 -0.534737 0
M  V30 3481 H 323.238 -1.83351 -3.60783 0
M  V30 3482 H 321.808 -0.986858 -2.96614 0
M  V30 3483 H 321.028 -3.32385 -2.11929 0
M  V30 3484 H 322.316 -4.0207 -3.11797 0
M  V30 3485 H 321.714 -1.77514 -5.37127 0
M  V30 3486 H 320.271 -2.40668 -6.05741 0
M  V30 3487 N 323.704 0.605807 -1.45491 0
M  V30 3488 C 324.944 1.37606 -1.51142 0
M  V30 3489 C 325.308 1.91413 -0.150075 0
M  V30 3490 O 326.509 2.68677 -0.0812828 0
M  V30 3491 C 324.78 2.49197 -2.56195 0
M  V30 3492 S 326.339 3.36953 -2.81083 0
M  V30 3493 H 323.157 0.469118 -0.534275 0
M  V30 3494 H 325.759 0.698845 -1.82583 0
M  V30 3495 H 324.463 2.0802 -3.53773 0
M  V30 3496 H 323.994 3.21717 -2.26411 0
M  V30 3497 H 326.009 4.47395 -2.14598 0
M  V30 3498 N 325.182 1.32811 0.848464 0
M  V30 3499 C 326.092 1.24278 1.98978 0
M  V30 3500 C 327.108 0.155176 1.73307 0
M  V30 3501 O 328.284 0.376999 1.9784 0
M  V30 3502 C 325.349 0.972444 3.32783 0
M  V30 3503 C 324.41 2.14911 3.71634 0
M  V30 3504 C 323.643 1.89157 4.99054 0
M  V30 3505 O 323.866 0.837165 5.64223 0
M  V30 3506 O 322.8 2.75433 5.35183 0
M  V30 3507 H 326.626 2.20238 2.09115 0
M  V30 3508 H 324.211 1.12762 0.980052 0
M  V30 3509 H 326.093 0.838432 4.12975 0
M  V30 3510 H 324.768 0.043051 3.23671 0
M  V30 3511 H 323.675 2.33862 2.91992 0
M  V30 3512 H 325.008 3.06151 3.85399 0
M  V30 3513 N 326.66 -1.06551 1.16123 0
M  V30 3514 C 327.906 -1.79567 0.94252 0
M  V30 3515 C 328.239 -1.86869 -0.528547 0
M  V30 3516 O 327.514 -1.35838 -1.39206 0
M  V30 3517 C 327.797 -3.24195 1.56747 0
M  V30 3518 C 327.65 -3.24989 3.10969 0
M  V30 3519 C 328.969 -4.21678 1.25998 0
M  V30 3520 H 326.088 -0.651883 0.343828 0
M  V30 3521 H 328.73 -1.2463 1.43413 0
M  V30 3522 H 326.88 -3.71107 1.14942 0
M  V30 3523 H 328.552 -2.86258 3.61737 0
M  V30 3524 H 326.795 -2.63716 3.44436 0
M  V30 3525 H 327.466 -4.27005 3.49815 0
M  V30 3526 H 329.942 -3.83196 1.62174 0
M  V30 3527 H 328.818 -5.21146 1.7233 0
M  V30 3528 H 329.079 -4.4174 0.178367 0
M  V30 3529 N 328.138 -0.959301 -1.25041 0
M  V30 3530 C 329.386 -0.615393 -1.92503 0
M  V30 3531 C 329.707 0.850969 -1.75452 0
M  V30 3532 O 328.977 1.60658 -1.12098 0
M  V30 3533 H 327.557 -0.224613 -0.712431 0
M  V30 3534 H 330.219 -1.21855 -1.5211 0
M  V30 3535 H 329.315 -0.848738 -3.00338 0
M  V30 3536 N 329.616 1.39756 -0.72842 0
M  V30 3537 C 330.549 2.28176 -0.0330172 0
M  V30 3538 C 331.527 1.44035 0.754501 0
M  V30 3539 O 332.711 1.73434 0.738445 0
M  V30 3540 C 329.838 3.24795 0.960504 0
M  V30 3541 C 328.884 4.25693 0.262264 0
M  V30 3542 S 329.717 5.25714 -1.01906 0
M  V30 3543 C 330.873 6.25894 -0.0279717 0
M  V30 3544 H 331.106 2.86807 -0.78287 0
M  V30 3545 H 328.639 1.45382 -0.519951 0
M  V30 3546 H 330.597 3.80983 1.52846 0
M  V30 3547 H 329.258 2.65196 1.68315 0
M  V30 3548 H 328.451 4.93699 1.01379 0
M  V30 3549 H 328.053 3.7327 -0.233482 0
M  V30 3550 H 330.345 6.72585 0.814621 0
M  V30 3551 H 331.288 7.04876 -0.67499 0
M  V30 3552 H 331.696 5.63466 0.341489 0
M  V30 3553 N 331.094 0.475555 1.50254 0
M  V30 3554 C 332.343 -0.0795996 2.01543 0
M  V30 3555 C 332.656 -1.4038 1.36209 0
M  V30 3556 O 333.862 -2.04415 1.7868 0
M  V30 3557 C 332.318 -0.192363 3.59386 0
M  V30 3558 C 331.926 1.12367 4.33679 0
M  V30 3559 C 333.67 -0.699238 4.18701 0
M  V30 3560 C 331.577 0.974453 5.83317 0
M  V30 3561 H 330.507 -0.0335228 0.753254 0
M  V30 3562 H 333.158 0.611128 1.73025 0
M  V30 3563 H 331.54 -0.946974 3.84511 0
M  V30 3564 H 332.714 1.88958 4.20276 0
M  V30 3565 H 331.029 1.562 3.85993 0
M  V30 3566 H 333.626 -0.827978 5.28251 0
M  V30 3567 H 333.969 -1.69171 3.80377 0
M  V30 3568 H 334.502 -0.00188807 3.978 0
M  V30 3569 H 331.241 1.94042 6.26121 0
M  V30 3570 H 330.761 0.248998 5.99283 0
M  V30 3571 H 332.44 0.642867 6.43798 0
M  V30 3572 N 332.573 -1.56217 0.208337 0
M  V30 3573 C 333.819 -1.98242 -0.427552 0
M  V30 3574 C 334.152 -1.09554 -1.60348 0
M  V30 3575 O 333.427 -0.15035 -1.93918 0
M  V30 3576 C 333.71 -3.4931 -0.874907 0
M  V30 3577 C 333.563 -4.48773 0.303751 0
M  V30 3578 C 334.882 -4.04424 -1.73577 0
M  V30 3579 H 332.001 -0.720744 -0.153936 0
M  V30 3580 H 334.643 -1.87586 0.30192 0
M  V30 3581 H 332.793 -3.58522 -1.49648 0
M  V30 3582 H 334.465 -4.51586 0.941682 0
M  V30 3583 H 332.708 -4.23194 0.953375 0
M  V30 3584 H 333.379 -5.51976 -0.0519883 0
M  V30 3585 H 335.855 -3.98075 -1.21143 0
M  V30 3586 H 334.731 -5.1047 -2.01771 0
M  V30 3587 H 334.992 -3.50494 -2.69456 0
M  V30 3588 N 334.051 0.0651679 -1.57465 0
M  V30 3589 C 335.299 0.761555 -1.87202 0
M  V30 3590 C 335.62 1.77778 -0.801243 0
M  V30 3591 O 334.89 1.95166 0.16937 0
M  V30 3592 H 333.47 0.284251 -0.690804 0
M  V30 3593 H 336.132 0.0396827 -1.9486 0
M  V30 3594 H 335.228 1.27365 -2.84929 0
M  V30 3595 N 335.529 1.53961 0.336706 0
M  V30 3596 C 336.757 1.75483 1.09605 0
M  V30 3597 C 337.172 0.4972 1.82136 0
M  V30 3598 O 336.529 -0.53149 1.74589 0
M  V30 3599 C 336.58 2.93943 2.10428 0
M  V30 3600 O 336.301 4.14842 1.40846 0
M  V30 3601 C 337.802 3.27571 2.98684 0
M  V30 3602 H 335.022 0.586166 0.326574 0
M  V30 3603 H 337.566 2.00808 0.38683 0
M  V30 3604 H 335.721 2.70929 2.76905 0
M  V30 3605 H 336.135 4.81383 2.08255 0
M  V30 3606 H 337.609 4.13791 3.6535 0
M  V30 3607 H 338.086 2.44168 3.65074 0
M  V30 3608 H 338.692 3.52615 2.37787 0
M  V30 3609 N 337.007 -0.598083 1.45811 0
M  V30 3610 C 338.255 -1.35413 1.50026 0
M  V30 3611 C 338.576 -1.94444 0.147177 0
M  V30 3612 O 337.846 -1.77701 -0.824571 0
M  V30 3613 H 336.426 -0.502727 0.552517 0
M  V30 3614 H 339.088 -0.701606 1.81834 0
M  V30 3615 H 338.184 -2.16871 2.2444 0
M  V30 3616 N 338.485 -1.33259 -0.841409 0
M  V30 3617 C 339.725 -1.25902 -1.61022 0
M  V30 3618 C 340.089 0.173325 -1.91216 0
M  V30 3619 O 341.29 0.370824 -2.6623 0
M  V30 3620 C 339.561 -2.10735 -2.88662 0
M  V30 3621 S 341.12 -2.20541 -3.79351 0
M  V30 3622 H 337.938 -0.447958 -0.552137 0
M  V30 3623 H 340.54 -1.68263 -0.995382 0
M  V30 3624 H 339.244 -3.1384 -2.64448 0
M  V30 3625 H 338.775 -1.69201 -3.55154 0
M  V30 3626 H 340.79 -1.36462 -4.77067 0
M  V30 3627 N 339.963 1.05934 -1.16686 0
M  V30 3628 C 340.911 2.15603 -0.872817 0
M  V30 3629 C 341.905 1.68647 0.159576 0
M  V30 3630 O 343.111 1.79995 0.0132125 0
M  V30 3631 H 339.486 0.703885 -0.264671 0
M  V30 3632 H 341.457 2.37613 -1.80507 0
M  V30 3633 C 340.206 3.45457 -0.394344 0
M  V30 3634 H 339.529 3.81984 -1.18019 0
M  V30 3635 H 340.969 4.2339 -0.227408 0
M  V30 3636 C 339.428 3.25021 0.88673 0
M  V30 3637 O 339.958 3.50906 1.95519 0
M  V30 3638 N 338.164 2.78437 0.831925 0
M  V30 3639 H 337.711 2.57572 -0.0377619 0
M  V30 3640 H 337.669 2.65144 1.68956 0
M  V30 3641 N 341.441 0.965919 1.2453 0
M  V30 3642 C 342.404 0.499547 2.2369 0
M  V30 3643 C 343.404 -0.40294 1.5567 0
M  V30 3644 O 344.594 -0.19865 1.73064 0
M  V30 3645 C 341.726 -0.276792 3.39774 0
M  V30 3646 H 342.919 1.37613 2.66463 0
M  V30 3647 H 340.472 0.750324 1.37112 0
M  V30 3648 H 341.207 -1.17055 3.02438 0
M  V30 3649 H 340.992 0.370826 3.90343 0
M  V30 3650 H 342.482 -0.592175 4.1338 0
M  V30 3651 N 342.919 -1.39368 0.735821 0
M  V30 3652 C 344.159 -2.02349 0.288813 0
M  V30 3653 C 344.523 -1.57127 -1.10341 0
M  V30 3654 O 345.724 -2.12312 -1.64854 0
M  V30 3655 C 343.995 -3.55288 0.387986 0
M  V30 3656 S 345.554 -4.38795 0.0209408 0
M  V30 3657 H 342.372 -0.701944 0.113115 0
M  V30 3658 H 344.974 -1.70164 0.962518 0
M  V30 3659 H 343.678 -3.85691 1.40252 0
M  V30 3660 H 343.209 -3.92227 -0.303512 0
M  V30 3661 H 345.224 -4.81595 -1.19503 0
M  V30 3662 N 344.397 -0.483516 -1.5 0
M  V30 3663 C 345.627 0.0643896 -2.065 0
M  V30 3664 C 346.035 1.32949 -1.34615 0
M  V30 3665 O 345.378 1.79003 -0.412756 0
M  V30 3666 C 345.44 0.405983 -3.572 0
M  V30 3667 C 345.104 -0.758875 -4.50655 0
M  V30 3668 C 346.101 -1.64445 -4.93208 0
M  V30 3669 C 343.786 -0.952725 -4.93182 0
M  V30 3670 C 345.78 -2.70818 -5.77006 0
M  V30 3671 C 343.467 -2.01966 -5.76761 0
M  V30 3672 C 344.465 -2.89574 -6.18576 0
M  V30 3673 O 344.153 -3.94429 -7.00486 0
M  V30 3674 H 343.885 -0.00934786 -0.675935 0
M  V30 3675 H 346.439 -0.674959 -1.93993 0
M  V30 3676 H 344.669 1.19869 -3.67652 0
M  V30 3677 H 346.358 0.890433 -3.96013 0
M  V30 3678 H 347.124 -1.50643 -4.61012 0
M  V30 3679 H 343.003 -0.280247 -4.60147 0
M  V30 3680 H 346.547 -3.3923 -6.09565 0
M  V30 3681 H 342.444 -2.1577 -6.0837 0
M  V30 3682 H 343.212 -3.91568 -7.1876 0
M  V30 3683 N 345.875 1.56104 -0.216619 0
M  V30 3684 C 346.808 2.16026 0.735395 0
M  V30 3685 C 347.786 1.1032 1.1945 0
M  V30 3686 O 348.97 1.38549 1.27814 0
M  V30 3687 C 346.097 2.73656 1.99575 0
M  V30 3688 C 345.143 3.92146 1.67702 0
M  V30 3689 S 345.976 5.29397 0.806145 0
M  V30 3690 C 347.132 5.90463 2.07617 0
M  V30 3691 H 347.365 2.96439 0.226072 0
M  V30 3692 H 344.898 1.544 -0.00136639 0
M  V30 3693 H 346.856 3.075 2.71945 0
M  V30 3694 H 345.517 1.93245 2.47619 0
M  V30 3695 H 344.71 4.30954 2.61332 0
M  V30 3696 H 344.312 3.59423 1.03398 0
M  V30 3697 H 346.604 6.06136 3.02664 0
M  V30 3698 H 347.547 6.86589 1.73207 0
M  V30 3699 H 347.955 5.19252 2.21445 0
M  V30 3700 N 347.353 -0.0568162 1.57498 0
M  V30 3701 C 348.263 -1.08346 2.08083 0
M  V30 3702 C 349.279 -1.41439 1.01346 0
M  V30 3703 O 350.455 -1.51316 1.32912 0
M  V30 3704 C 347.52 -2.37352 2.52715 0
M  V30 3705 C 346.581 -2.11093 3.73816 0
M  V30 3706 C 345.814 -3.33949 4.1631 0
M  V30 3707 O 346.037 -4.43622 3.58547 0
M  V30 3708 O 344.971 -3.21279 5.08983 0
M  V30 3709 H 348.797 -0.683667 2.95905 0
M  V30 3710 H 346.382 -0.271965 1.46904 0
M  V30 3711 H 348.264 -3.13246 2.81877 0
M  V30 3712 H 346.939 -2.76681 1.68016 0
M  V30 3713 H 345.846 -1.32856 3.49714 0
M  V30 3714 H 347.179 -1.76637 4.59413 0
M  V30 3715 N 348.832 -1.54138 -0.328536 0
M  V30 3716 C 349.742 -1.86192 -1.42723 0
M  V30 3717 C 350.758 -0.753382 -1.56844 0
M  V30 3718 O 351.934 -1.04718 -1.72035 0
M  V30 3719 C 348.999 -2.07824 -2.77507 0
M  V30 3720 C 348.06 -3.31641 -2.72603 0
M  V30 3721 C 347.293 -3.52232 -4.00959 0
M  V30 3722 O 347.516 -2.7636 -4.9898 0
M  V30 3723 O 346.45 -4.45699 -4.0452 0
M  V30 3724 H 350.276 -2.79608 -1.18547 0
M  V30 3725 H 347.861 -1.3998 -0.522104 0
M  V30 3726 H 349.743 -2.23411 -3.57303 0
M  V30 3727 H 348.418 -1.17596 -3.01584 0
M  V30 3728 H 347.325 -3.21444 -1.91376 0
M  V30 3729 H 348.658 -4.2191 -2.53481 0
M  V30 3730 N 350.31 0.590341 -1.46126 0
M  V30 3731 C 351.243 1.71434 -1.50617 0
M  V30 3732 C 352.221 1.58543 -0.360948 0
M  V30 3733 O 353.405 1.79865 -0.563985 0
M  V30 3734 C 350.532 3.09422 -1.37753 0
M  V30 3735 C 349.578 3.40854 -2.5636 0
M  V30 3736 S 350.411 3.33773 -4.18755 0
M  V30 3737 C 351.567 4.74312 -4.08386 0
M  V30 3738 H 351.8 1.67364 -2.45717 0
M  V30 3739 H 349.333 0.76845 -1.33919 0
M  V30 3740 H 351.291 3.8903 -1.31018 0
M  V30 3741 H 349.952 3.10989 -0.440949 0
M  V30 3742 H 349.145 4.41368 -2.43332 0
M  V30 3743 H 348.747 2.68798 -2.60046 0
M  V30 3744 H 351.039 5.64522 -3.74595 0
M  V30 3745 H 351.982 4.92397 -5.08872 0
M  V30 3746 H 352.39 4.50803 -3.3976 0
M  V30 3747 N 351.788 1.33704 0.83433 0
M  V30 3748 C 352.72 1.20172 1.9517 0
M  V30 3749 C 353.733 0.131572 1.62267 0
M  V30 3750 O 354.922 0.382406 1.74356 0
M  V30 3751 C 352.022 0.821716 3.28787 0
M  V30 3752 C 351.195 1.98446 3.89792 0
M  V30 3753 C 350.254 1.58469 5.01771 0
M  V30 3754 O 349.28 2.29968 5.20676 0
M  V30 3755 N 350.482 0.492291 5.78409 0
M  V30 3756 H 353.247 2.16429 2.07313 0
M  V30 3757 H 350.808 1.26509 1.0103 0
M  V30 3758 H 352.8 0.536291 4.01131 0
M  V30 3759 H 351.37 -0.0503058 3.1256 0
M  V30 3760 H 350.59 2.43526 3.09982 0
M  V30 3761 H 351.878 2.76236 4.27283 0
M  V30 3762 H 351.276 -0.102349 5.65607 0
M  V30 3763 H 349.833 0.266555 6.51255 0
M  V30 3764 N 353.266 -1.05314 1.17247 0
M  V30 3765 C 354.214 -2.15137 0.884238 0
M  V30 3766 C 355.208 -1.68729 -0.15063 0
M  V30 3767 O 356.414 -1.8 -0.00366673 0
M  V30 3768 H 352.789 -0.702471 0.2684 0
M  V30 3769 H 354.76 -2.36652 1.81764 0
M  V30 3770 C 353.509 -3.45243 0.412659 0
M  V30 3771 H 352.832 -3.81352 1.20043 0
M  V30 3772 H 354.272 -4.23263 0.249858 0
M  V30 3773 C 352.731 -3.25487 -0.86948 0
M  V30 3774 O 353.261 -3.51938 -1.93655 0
M  V30 3775 N 351.467 -2.78875 -0.817147 0
M  V30 3776 H 351.014 -2.57549 0.0514211 0
M  V30 3777 H 350.972 -2.66036 -1.67547 0
M  V30 3778 N 354.744 -0.972509 -1.24016 0
M  V30 3779 C 355.99 -0.637978 -1.92504 0
M  V30 3780 C 356.323 0.825383 -1.75787 0
M  V30 3781 O 355.598 1.59442 -1.11393 0
M  V30 3782 C 355.881 -1.01942 -3.45369 0
M  V30 3783 C 355.734 -2.53983 -3.71231 0
M  V30 3784 C 357.053 -0.55751 -4.36555 0
M  V30 3785 H 354.172 -0.233248 -0.699117 0
M  V30 3786 H 356.814 -1.21238 -1.46292 0
M  V30 3787 H 354.964 -0.530656 -3.84859 0
M  V30 3788 H 356.636 -3.10374 -3.41271 0
M  V30 3789 H 354.879 -2.96968 -3.16216 0
M  V30 3790 H 355.55 -2.75723 -4.78206 0
M  V30 3791 H 358.026 -0.977029 -4.04467 0
M  V30 3792 H 356.902 -0.85292 -5.42233 0
M  V30 3793 H 357.163 0.542328 -4.38761 0
M  V30 3794 N 356.222 1.38976 -0.743202 0
M  V30 3795 C 357.132 2.3434 -0.110399 0
M  V30 3796 C 358.148 1.58741 0.712559 0
M  V30 3797 O 359.324 1.9099 0.639125 0
M  V30 3798 C 356.389 3.37812 0.780012 0
M  V30 3799 C 355.45 4.29263 -0.0561319 0
M  V30 3800 C 354.683 5.27793 0.791875 0
M  V30 3801 O 354.906 5.33043 2.03031 0
M  V30 3802 O 353.84 6.01512 0.216183 0
M  V30 3803 H 357.666 2.90129 -0.897714 0
M  V30 3804 H 355.251 1.40643 -0.503966 0
M  V30 3805 H 357.133 4.01194 1.28923 0
M  V30 3806 H 355.808 2.84395 1.546 0
M  V30 3807 H 354.715 3.69076 -0.611056 0
M  V30 3808 H 356.048 4.85907 -0.784531 0
M  V30 3809 N 357.7 0.491464 1.49741 0
M  V30 3810 C 358.63 -0.28154 2.31796 0
M  V30 3811 C 359.611 -0.971473 1.3963 0
M  V30 3812 O 360.796 -0.964719 1.68543 0
M  V30 3813 C 357.926 -1.35203 3.19902 0
M  V30 3814 C 356.88 -0.782529 4.20786 0
M  V30 3815 C 356.206 -1.95283 4.97764 0
M  V30 3816 C 357.506 0.21999 5.21837 0
M  V30 3817 H 359.2 0.403355 2.96671 0
M  V30 3818 H 356.746 0.195425 1.42668 0
M  V30 3819 H 358.699 -1.90045 3.76113 0
M  V30 3820 H 357.423 -2.06598 2.52953 0
M  V30 3821 H 356.082 -0.255928 3.65706 0
M  V30 3822 H 355.73 -2.65423 4.2727 0
M  V30 3823 H 355.43 -1.57789 5.66018 0
M  V30 3824 H 356.954 -2.50577 5.56816 0
M  V30 3825 H 358.368 -0.23996 5.72798 0
M  V30 3826 H 356.765 0.51026 5.97927 0
M  V30 3827 H 357.835 1.13911 4.7133 0
M  V30 3828 N 359.178 -1.55987 0.224894 0
M  V30 3829 C 360.424 -1.98684 -0.406502 0
M  V30 3830 C 360.757 -1.11248 -1.59177 0
M  V30 3831 O 360.032 -0.170909 -1.93748 0
M  V30 3832 C 360.315 -3.50218 -0.837808 0
M  V30 3833 C 360.168 -4.48426 0.351332 0
M  V30 3834 C 361.487 -4.06243 -1.69278 0
M  V30 3835 H 358.606 -0.722337 -0.146283 0
M  V30 3836 H 361.248 -1.87255 0.321799 0
M  V30 3837 H 359.398 -3.60089 -1.45837 0
M  V30 3838 H 361.07 -4.50562 0.989526 0
M  V30 3839 H 359.313 -4.22159 0.998207 0
M  V30 3840 H 359.984 -5.52 0.00655905 0
M  V30 3841 H 362.46 -3.99337 -1.16914 0
M  V30 3842 H 361.336 -5.12581 -1.96346 0
M  V30 3843 H 361.597 -3.53332 -2.65723 0
M  V30 3844 N 360.656 0.0484629 -1.57525 0
M  V30 3845 C 361.566 1.07241 -2.08654 0
M  V30 3846 C 362.582 1.409 -1.02095 0
M  V30 3847 O 363.758 1.50609 -1.33712 0
M  V30 3848 C 360.823 2.36008 -2.5397 0
M  V30 3849 C 359.884 2.09108 -3.7493 0
M  V30 3850 C 359.117 3.31736 -4.18075 0
M  V30 3851 O 359.34 4.41714 -3.60895 0
M  V30 3852 O 358.274 3.18576 -5.10679 0
M  V30 3853 H 362.1 0.667965 -2.96263 0
M  V30 3854 H 359.685 0.26417 -1.47046 0
M  V30 3855 H 361.567 3.11747 -2.83535 0
M  V30 3856 H 360.242 2.75786 -1.69481 0
M  V30 3857 H 359.149 1.31 -3.50414 0
M  V30 3858 H 360.482 1.74198 -4.60343 0
M  V30 3859 N 362.134 1.5431 0.320358 0
M  V30 3860 C 363.382 1.72327 1.05583 0
M  V30 3861 C 363.703 0.50149 1.88441 0
M  V30 3862 O 362.973 -0.48448 1.89815 0
M  V30 3863 H 361.553 0.635387 0.3928 0
M  V30 3864 H 364.215 1.91621 0.356019 0
M  V30 3865 H 363.311 2.60426 1.72003 0
M  V30 3866 N 363.613 -0.582584 1.46437 0
M  V30 3867 C 364.89 -1.34276 1.4223 0
M  V30 3868 C 365.27 -2.10835 0.10583 0
M  V30 3869 O 364.618 -2.09485 -0.912596 0
M  V30 3870 C 364.828 -2.26865 2.65204 0
M  V30 3871 C 366.176 -2.88691 3.11356 0
M  V30 3872 O 367.2 -2.37178 2.65753 0
M  V30 3873 O 366.059 -3.82255 3.90568 0
M  V30 3874 H 363.153 -0.603326 0.565621 0
M  V30 3875 H 365.699 -0.603591 1.58603 0
M  V30 3876 H 364.471 -1.69724 3.52576 0
M  V30 3877 H 364.094 -3.08122 2.5129 0
M  V30 3878 N 365.091 -1.34144 -0.827227 0
M  V30 3879 C 366.001 -1.27428 -1.96975 0
M  V30 3880 C 367.017 -0.182728 -1.73038 0
M  V30 3881 O 368.193 -0.408426 -1.97215 0
M  V30 3882 C 365.258 -1.02526 -3.31194 0
M  V30 3883 C 364.319 -2.20796 -3.68168 0
M  V30 3884 C 363.552 -1.97073 -4.95982 0
M  V30 3885 O 363.775 -0.926822 -5.6282 0
M  V30 3886 O 362.709 -2.83912 -5.30733 0
M  V30 3887 H 366.535 -2.23537 -2.05584 0
M  V30 3888 H 364.12 -1.14307 -0.961989 0
M  V30 3889 H 366.002 -0.904026 -4.11589 0
M  V30 3890 H 364.677 -0.0945389 -3.23562 0
M  V30 3891 H 363.584 -2.38477 -2.88235 0
M  V30 3892 H 364.917 -3.12243 -3.8048 0
M  V30 3893 N 366.569 1.04691 -1.17803 0
M  V30 3894 C 367.817 1.7743 -0.967617 0
M  V30 3895 C 368.138 1.88359 0.504574 0
M  V30 3896 O 367.408 1.40402 1.36617 0
M  V30 3897 H 365.988 0.657242 -0.355024 0
M  V30 3898 H 368.65 1.2638 -1.48371 0
M  V30 3899 H 367.746 2.78924 -1.40027 0
M  V30 3900 N 368.047 0.979072 1.23499 0
M  V30 3901 C 369.463 0.687475 1.44034 0
M  V30 3902 C 369.663 -0.746801 1.8715 0
M  V30 3903 O 368.719 -1.51939 2.0167 0
M  V30 3904 C 370.032 1.68127 2.49307 0
M  V30 3905 C 371.58 1.69516 2.63122 0
M  V30 3906 C 372.055 2.67723 3.71603 0
M  V30 3907 N 373.546 2.66233 3.79044 0
M  V30 3908 C 374.281 3.38891 4.62537 0
M  V30 3909 N 373.777 4.21103 5.50131 0
M  V30 3910 N 375.57 3.27661 4.56721 0
M  V30 3911 H 367.721 1.90559 0.938135 0
M  V30 3912 H 369.984 0.821051 0.473897 0
M  V30 3913 H 369.69 2.70693 2.2454 0
M  V30 3914 H 369.564 1.46306 3.4767 0
M  V30 3915 H 371.951 0.676561 2.8724 0
M  V30 3916 H 372.032 1.95404 1.65079 0
M  V30 3917 H 371.676 3.69724 3.48233 0
M  V30 3918 H 371.606 2.39111 4.69184 0
M  V30 3919 H 374.097 2.06568 3.16446 0
M  V30 3920 H 374.41 4.73403 6.10827 0
M  V30 3921 H 372.755 4.25195 5.49759 0
M  V30 3922 H 375.946 2.62887 3.87309 0
M  V30 3923 H 376.119 3.84547 5.21562 0
M  V30 3924 N 369.525 -1.3858 0.750561 0
M  V30 3925 C 370.458 -2.28095 0.0693139 0
M  V30 3926 C 371.436 -1.45217 -0.731491 0
M  V30 3927 O 372.62 -1.74587 -0.71076 0
M  V30 3928 C 369.747 -3.26282 -0.90871 0
M  V30 3929 C 368.793 -4.26056 -0.194507 0
M  V30 3930 S 369.626 -5.24026 1.10257 0
M  V30 3931 C 370.782 -6.2577 0.127542 0
M  V30 3932 H 371.015 -2.85526 0.8284 0
M  V30 3933 H 368.548 -1.44536 0.543014 0
M  V30 3934 H 370.506 -3.83367 -1.46766 0
M  V30 3935 H 369.167 -2.6784 -1.64075 0
M  V30 3936 H 368.36 -4.95249 -0.93512 0
M  V30 3937 H 367.962 -3.72852 0.292837 0
M  V30 3938 H 370.254 -6.73796 -0.707516 0
M  V30 3939 H 371.197 -7.03712 0.787044 0
M  V30 3940 H 371.605 -5.63938 -0.251803 0
M  V30 3941 N 371.003 -0.499398 -1.49478 0
M  V30 3942 C 372.243 0.0440751 -2.04352 0
M  V30 3943 C 372.607 1.34423 -1.37093 0
M  V30 3944 O 373.808 1.97184 -1.82679 0
M  V30 3945 C 372.079 0.194918 -3.56868 0
M  V30 3946 S 373.638 0.69287 -4.33295 0
M  V30 3947 H 370.456 0.00253458 -0.710995 0
M  V30 3948 H 373.058 -0.673 -1.83551 0
M  V30 3949 H 371.762 -0.756672 -4.03364 0
M  V30 3950 H 371.293 0.93728 -3.82071 0
M  V30 3951 H 373.308 1.96226 -4.55752 0
M  V30 3952 N 372.481 1.55866 -0.233164 0
M  V30 3953 C 373.727 1.98897 0.395959 0
M  V30 3954 C 374.06 1.12091 1.58585 0
M  V30 3955 O 373.335 0.181182 1.93654 0
M  V30 3956 C 373.618 3.50658 0.819224 0
M  V30 3957 C 373.471 4.48233 -0.375109 0
M  V30 3958 C 374.79 4.07135 1.67121 0
M  V30 3959 H 371.909 0.723102 0.142451 0
M  V30 3960 H 374.551 1.87082 -0.331725 0
M  V30 3961 H 372.701 3.60857 1.43925 0
M  V30 3962 H 374.373 4.50031 -1.01341 0
M  V30 3963 H 372.616 4.21624 -1.02058 0
M  V30 3964 H 373.287 5.51988 -0.0358328 0
M  V30 3965 H 375.763 3.99952 1.14795 0
M  V30 3966 H 374.639 5.13615 1.93625 0
M  V30 3967 H 374.9 3.54736 2.63846 0
M  V30 3968 N 373.959 -0.0401083 1.57549 0
M  V30 3969 C 374.907 -1.06264 2.06908 0
M  V30 3970 C 375.901 -1.38132 0.980608 0
M  V30 3971 O 377.107 -1.37167 1.16556 0
M  V30 3972 H 373.482 -0.360166 0.660139 0
M  V30 3973 H 375.453 -0.620445 2.91878 0
M  V30 3974 C 374.202 -2.35846 2.55483 0
M  V30 3975 H 373.525 -2.12183 3.38849 0
M  V30 3976 H 374.965 -3.05765 2.93741 0
M  V30 3977 C 373.424 -3.0404 1.45126 0
M  V30 3978 O 373.954 -3.93424 0.811216 0
M  V30 3979 N 372.16 -2.65184 1.18852 0
M  V30 3980 H 371.707 -1.92584 1.71083 0
M  V30 3981 H 371.665 -3.1113 0.452244 0
M  V30 3982 N 375.437 -1.54477 -0.31217 0
M  V30 3983 C 376.665 -1.77205 -1.068 0
M  V30 3984 C 377.08 -0.526114 -1.81321 0
M  V30 3985 O 376.437 0.503647 -1.75413 0
M  V30 3986 C 376.488 -2.97253 -2.05725 0
M  V30 3987 O 376.209 -4.1703 -1.34228 0
M  V30 3988 C 377.71 -3.32281 -2.93435 0
M  V30 3989 H 374.93 -0.591287 -0.317208 0
M  V30 3990 H 377.474 -2.01398 -0.354834 0
M  V30 3991 H 375.629 -2.753 -2.72559 0
M  V30 3992 H 376.043 -4.84636 -2.00571 0
M  V30 3993 H 377.517 -4.19551 -3.58721 0
M  V30 3994 H 377.994 -2.49945 -3.61143 0
M  V30 3995 H 378.6 -3.56353 -2.32147 0
M  V30 3996 N 376.915 0.57481 -1.46744 0
M  V30 3997 C 377.825 1.711 -1.60505 0
M  V30 3998 C 378.841 1.67008 -0.488307 0
M  V30 3999 O 380.017 1.86774 -0.753495 0
M  V30 4000 C 377.082 3.07608 -1.59932 0
M  V30 4001 C 376.143 3.22904 -2.82898 0
M  V30 4002 C 375.376 4.529 -2.82343 0
M  V30 4003 O 375.599 5.37278 -1.91542 0
M  V30 4004 O 374.533 4.71611 -3.73987 0
M  V30 4005 H 378.359 1.62436 -2.56609 0
M  V30 4006 H 375.944 0.742779 -1.29627 0
M  V30 4007 H 377.826 3.88877 -1.62336 0
M  V30 4008 H 376.501 3.16692 -0.669898 0
M  V30 4009 H 375.408 2.41099 -2.86046 0
M  V30 4010 H 376.741 3.18715 -3.75076 0
M  V30 4011 N 378.394 1.34581 0.820102 0
M  V30 4012 C 379.64 1.28294 1.57836 0
M  V30 4013 C 379.995 -0.145099 1.91852 0
M  V30 4014 O 379.288 -1.09209 1.57429 0
M  V30 4015 C 379.482 2.10997 2.8847 0
M  V30 4016 C 379.311 3.61698 2.67216 0
M  V30 4017 C 378.081 4.3097 2.63805 0
M  V30 4018 C 380.279 4.55638 2.38534 0
M  V30 4019 N 378.261 5.67502 2.34126 0
M  V30 4020 C 379.632 5.80194 2.18574 0
M  V30 4021 C 381.687 4.44523 2.24285 0
M  V30 4022 C 380.39 6.94886 1.8581 0
M  V30 4023 C 382.416 5.5905 1.92916 0
M  V30 4024 C 381.778 6.82627 1.73782 0
M  V30 4025 H 377.877 0.524697 0.579842 0
M  V30 4026 H 380.461 1.69323 0.961139 0
M  V30 4027 H 378.632 1.7226 3.48111 0
M  V30 4028 H 380.364 1.96333 3.53886 0
M  V30 4029 H 377.119 3.83438 2.77978 0
M  V30 4030 H 377.543 6.39525 2.22118 0
M  V30 4031 H 382.185 3.49599 2.37782 0
M  V30 4032 H 379.903 7.89789 1.7105 0
M  V30 4033 H 383.489 5.52396 1.82619 0
M  V30 4034 H 382.369 7.69748 1.49861 0
M  V30 4035 N 379.872 -1.04064 1.18357 0
M  V30 4036 C 381.12 -1.76915 0.977013 0
M  V30 4037 C 381.441 -1.88624 -0.494577 0
M  V30 4038 O 380.711 -1.41125 -1.3587 0
M  V30 4039 H 379.291 -0.65535 0.358504 0
M  V30 4040 H 381.953 -1.25592 1.49039 0
M  V30 4041 H 381.049 -2.78178 1.41504 0
M  V30 4042 N 381.35 -0.985608 -1.22978 0
M  V30 4043 C 382.313 -0.535071 -2.22867 0
M  V30 4044 C 383.313 0.378123 -1.56291 0
M  V30 4045 O 384.503 0.171092 -1.73358 0
M  V30 4046 C 381.635 0.222702 -3.40172 0
M  V30 4047 H 382.828 -1.41835 -2.6424 0
M  V30 4048 H 380.381 -0.772042 -1.35901 0
M  V30 4049 H 381.116 1.12229 -3.04262 0
M  V30 4050 H 380.901 -0.43288 -3.89703 0
M  V30 4051 H 382.391 0.526335 -4.1427 0
M  V30 4052 N 382.828 1.3818 -0.7579 0
M  V30 4053 C 384.075 2.00019 -0.315985 0
M  V30 4054 C 384.403 1.60163 1.10355 0
M  V30 4055 O 383.658 0.83264 1.77103 0
M  V30 4056 C 383.957 3.55252 -0.391218 0
M  V30 4057 C 383.623 4.14834 -1.76702 0
M  V30 4058 C 382.285 4.30821 -2.14353 0
M  V30 4059 C 384.637 4.47658 -2.66931 0
M  V30 4060 C 381.965 4.76928 -3.41696 0
M  V30 4061 C 384.317 4.95184 -3.93669 0
M  V30 4062 C 382.981 5.09377 -4.31383 0
M  V30 4063 H 382.251 0.731923 -0.115627 0
M  V30 4064 H 384.898 1.65161 -0.969223 0
M  V30 4065 H 383.203 3.90273 0.34558 0
M  V30 4066 H 384.9 4.00988 -0.030805 0
M  V30 4067 H 381.49 4.02808 -1.46435 0
M  V30 4068 H 385.674 4.34904 -2.39106 0
M  V30 4069 H 380.93 4.86103 -3.70829 0
M  V30 4070 H 385.104 5.19551 -4.63724 0
M  V30 4071 H 382.731 5.44865 -5.30119 0
M  V30 4072 N 384.306 0.507319 1.49211 0
M  V30 4073 C 385.554 -0.0348839 2.0207 0
M  V30 4074 C 385.875 -1.36898 1.38866 0
M  V30 4075 O 385.145 -1.88133 0.546151 0
M  V30 4076 H 383.725 -0.0158812 0.746831 0
M  V30 4077 H 386.387 0.665998 1.83168 0
M  V30 4078 H 385.483 -0.159917 3.1169 0
M  V30 4079 N 385.784 -1.5574 0.241426 0
M  V30 4080 C 387.061 -1.90704 -0.434881 0
M  V30 4081 C 387.441 -1.16145 -1.76277 0
M  V30 4082 O 386.789 -0.277152 -2.26813 0
M  V30 4083 C 386.999 -3.43657 -0.608343 0
M  V30 4084 C 388.347 -4.14806 -0.906725 0
M  V30 4085 O 389.371 -3.49366 -0.694408 0
M  V30 4086 O 388.23 -5.30548 -1.31075 0
M  V30 4087 H 385.324 -0.793592 -0.23268 0
M  V30 4088 H 387.87 -1.67288 0.285086 0
M  V30 4089 H 386.642 -3.89927 0.327505 0
M  V30 4090 H 386.265 -3.72918 -1.37906 0
M  V30 4091 N 387.262 0.0317525 -1.57568 0
M  V30 4092 C 388.487 0.738664 -1.938 0
M  V30 4093 C 388.912 1.68242 -0.841208 0
M  V30 4094 O 388.27 1.80157 0.203267 0
M  V30 4095 C 388.318 1.47417 -3.29091 0
M  V30 4096 O 387.422 2.5872 -3.2115 0
M  V30 4097 H 386.763 0.198856 -0.633524 0
M  V30 4098 H 389.293 -0.0119713 -2.04596 0
M  V30 4099 H 389.303 1.84468 -3.63917 0
M  V30 4100 H 387.978 0.781988 -4.08482 0
M  V30 4101 H 386.555 2.24231 -2.97951 0
M  V30 4102 N 388.74 1.54641 0.303973 0
M  V30 4103 C 389.988 1.73437 1.0375 0
M  V30 4104 C 390.309 0.521449 1.87899 0
M  V30 4105 O 389.579 -0.46432 1.90318 0
M  V30 4106 H 388.159 0.639518 0.386039 0
M  V30 4107 H 390.821 1.91988 0.335675 0
M  V30 4108 H 389.917 2.62235 1.69231 0
M  V30 4109 N 390.218 -0.567019 1.47046 0
M  V30 4110 C 391.128 -1.70247 1.6141 0
M  V30 4111 C 392.144 -1.66746 0.497157 0
M  V30 4112 O 393.32 -1.86371 0.763389 0
M  V30 4113 C 390.385 -3.06756 1.61561 0
M  V30 4114 C 389.446 -3.21399 2.84607 0
M  V30 4115 C 388.679 -4.51396 2.84741 0
M  V30 4116 O 388.902 -5.36255 1.94388 0
M  V30 4117 O 387.836 -4.69621 3.76483 0
M  V30 4118 H 391.662 -1.61073 2.57467 0
M  V30 4119 H 389.247 -0.735894 1.30019 0
M  V30 4120 H 391.129 -3.8801 1.64396 0
M  V30 4121 H 389.804 -3.16333 0.686684 0
M  V30 4122 H 388.711 -2.39579 2.8732 0
M  V30 4123 H 390.044 -3.16721 3.76761 0
M  V30 4124 N 391.696 -1.35014 -0.812953 0
M  V30 4125 C 392.626 -1.30069 -1.93919 0
M  V30 4126 C 393.607 -0.176275 -1.69184 0
M  V30 4127 O 394.792 -0.370227 -1.90638 0
M  V30 4128 C 391.922 -1.06547 -3.30552 0
M  V30 4129 C 390.876 -2.15561 -3.69753 0
M  V30 4130 C 390.202 -1.77214 -5.04479 0
M  V30 4131 C 391.502 -3.57476 -3.808 0
M  V30 4132 H 393.196 -2.24303 -1.98314 0
M  V30 4133 H 390.742 -1.07977 -0.952736 0
M  V30 4134 H 392.695 -1.01729 -4.08937 0
M  V30 4135 H 391.419 -0.0875719 -3.26483 0
M  V30 4136 H 390.078 -2.19466 -2.9365 0
M  V30 4137 H 389.726 -0.780589 -4.96906 0
M  V30 4138 H 389.426 -2.50184 -5.31678 0
M  V30 4139 H 390.95 -1.7391 -5.8531 0
M  V30 4140 H 392.364 -3.55929 -4.4943 0
M  V30 4141 H 390.761 -4.29152 -4.19462 0
M  V30 4142 H 391.831 -3.94091 -2.82525 0
M  V30 4143 N 393.175 1.03435 -1.18907 0
M  V30 4144 C 394.452 1.73778 -0.89781 0
M  V30 4145 C 394.832 2.02458 0.597832 0
M  V30 4146 O 394.18 1.67482 1.55441 0
M  V30 4147 C 394.39 3.01845 -1.75187 0
M  V30 4148 C 395.738 3.7546 -1.9828 0
M  V30 4149 O 396.762 3.11759 -1.72293 0
M  V30 4150 O 395.621 4.89966 -2.42065 0
M  V30 4151 H 392.715 0.75651 -0.334098 0
M  V30 4152 H 395.261 1.09444 -1.29693 0
M  V30 4153 H 394.033 2.76836 -2.76545 0
M  V30 4154 H 393.656 3.73919 -1.35167 0
M  V30 4155 N 394.653 0.992116 1.22453 0
M  V30 4156 C 395.563 0.55065 2.28046 0
M  V30 4157 C 396.579 -0.400189 1.69335 0
M  V30 4158 O 397.755 -0.267215 1.99619 0
M  V30 4159 C 394.82 -0.128496 3.46462 0
M  V30 4160 C 393.881 0.865208 4.20491 0
M  V30 4161 C 393.114 0.218377 5.33253 0
M  V30 4162 O 393.337 -0.987894 5.6178 0
M  V30 4163 O 392.271 0.922845 5.94783 0
M  V30 4164 H 396.097 1.4291 2.67975 0
M  V30 4165 H 393.682 0.760326 1.28606 0
M  V30 4166 H 395.564 -0.508947 4.18315 0
M  V30 4167 H 394.239 -0.981526 3.0846 0
M  V30 4168 H 393.146 1.29658 3.50913 0
M  V30 4169 H 394.479 1.68741 4.62371 0
M  V30 4170 N 396.131 -1.37776 0.765217 0
M  V30 4171 C 397.378 -1.99849 0.326588 0
M  V30 4172 C 397.706 -1.60746 -1.09504 0
M  V30 4173 O 396.961 -0.84202 -1.76659 0
M  V30 4174 C 397.26 -3.5504 0.410053 0
M  V30 4175 C 396.926 -4.13891 1.78899 0
M  V30 4176 C 395.588 -4.29678 2.16635 0
M  V30 4177 C 397.94 -4.46236 2.69301 0
M  V30 4178 C 395.268 -4.7511 3.44221 0
M  V30 4179 C 397.62 -4.93089 3.9629 0
M  V30 4180 C 396.284 -5.07082 4.34078 0
M  V30 4181 H 395.554 -0.7313 0.119507 0
M  V30 4182 H 398.201 -1.64645 0.977968 0
M  V30 4183 H 396.506 -3.90451 -0.324878 0
M  V30 4184 H 398.203 -4.00966 0.0520699 0
M  V30 4185 H 394.793 -4.02026 1.48569 0
M  V30 4186 H 398.977 -4.3363 2.41409 0
M  V30 4187 H 394.233 -4.84129 3.73402 0
M  V30 4188 H 398.407 -5.17084 4.66472 0
M  V30 4189 H 396.034 -5.42046 5.33001 0
M  V30 4190 N 397.609 -0.515225 -1.4894 0
M  V30 4191 C 398.539 0.244628 -2.32215 0
M  V30 4192 C 399.52 0.949136 -1.41157 0
M  V30 4193 O 400.705 0.937783 -1.70057 0
M  V30 4194 C 397.835 1.30096 -3.22013 0
M  V30 4195 C 396.789 0.715486 -4.21977 0
M  V30 4196 C 396.115 1.87339 -5.00808 0
M  V30 4197 C 397.415 -0.302982 -5.2142 0
M  V30 4198 H 399.109 -0.450501 -2.95991 0
M  V30 4199 H 396.655 -0.218098 -1.42339 0
M  V30 4200 H 398.608 1.84037 -3.79089 0
M  V30 4201 H 397.332 2.02547 -2.56207 0
M  V30 4202 H 395.991 0.197715 -3.66066 0
M  V30 4203 H 395.639 2.58592 -4.31438 0
M  V30 4204 H 395.339 1.48764 -5.68457 0
M  V30 4205 H 396.863 2.41686 -5.60732 0
M  V30 4206 H 398.277 0.148802 -5.73107 0
M  V30 4207 H 396.674 -0.60532 -5.97039 0
M  V30 4208 H 397.744 -1.21395 -4.69459 0
M  V30 4209 N 399.087 1.5561 -0.249682 0
M  V30 4210 C 400.017 2.24477 0.642826 0
M  V30 4211 C 400.998 1.22601 1.17911 0
M  V30 4212 O 402.183 1.5126 1.21795 0
M  V30 4213 C 399.313 2.94638 1.83863 0
M  V30 4214 C 398.267 4.03227 1.435 0
M  V30 4215 C 397.593 4.60828 2.71186 0
M  V30 4216 C 398.893 5.18796 0.604002 0
M  V30 4217 H 400.587 2.99321 0.0685625 0
M  V30 4218 H 398.133 1.43965 0.0315363 0
M  V30 4219 H 400.086 3.41517 2.46868 0
M  V30 4220 H 398.81 2.17287 2.43832 0
M  V30 4221 H 397.469 3.57121 0.828275 0
M  V30 4222 H 397.117 3.80174 3.29358 0
M  V30 4223 H 396.817 5.34132 2.44901 0
M  V30 4224 H 398.341 5.10442 3.35084 0
M  V30 4225 H 399.755 5.61883 1.13842 0
M  V30 4226 H 398.152 5.98506 0.437097 0
M  V30 4227 H 399.222 4.83384 -0.383147 0
M  V30 4228 N 400.565 -0.0233959 1.57583 0
M  V30 4229 C 401.475 -1.03907 2.10334 0
M  V30 4230 C 402.491 -1.39257 1.04323 0
M  V30 4231 O 403.667 -1.48462 1.36091 0
M  V30 4232 C 400.732 -2.31938 2.57693 0
M  V30 4233 C 399.793 -2.03117 3.78209 0
M  V30 4234 C 399.026 -3.25043 4.233 0
M  V30 4235 O 399.249 -4.35916 3.67876 0
M  V30 4236 O 398.183 -3.10411 5.15683 0
M  V30 4237 H 402.009 -0.620748 2.97288 0
M  V30 4238 H 399.594 -0.240743 1.47448 0
M  V30 4239 H 401.476 -3.07196 2.88458 0
M  V30 4240 H 400.151 -2.73055 1.73847 0
M  V30 4241 H 399.058 -1.25408 3.52454 0
M  V30 4242 H 400.391 -1.66852 4.63056 0
M  V30 4243 N 402.043 -1.548 -0.295768 0
M  V30 4244 C 403.273 -1.78069 -1.04762 0
M  V30 4245 C 403.681 -0.542847 -1.81245 0
M  V30 4246 O 403.024 0.497051 -1.76848 0
M  V30 4247 C 403.086 -2.93881 -2.07061 0
M  V30 4248 C 402.75 -4.31777 -1.49725 0
M  V30 4249 C 403.747 -5.11613 -0.924581 0
M  V30 4250 C 401.432 -4.78389 -1.5313 0
M  V30 4251 C 403.426 -6.36184 -0.393594 0
M  V30 4252 C 401.113 -6.02921 -0.996447 0
M  V30 4253 C 402.111 -6.81654 -0.428569 0
M  V30 4254 O 401.799 -8.0384 0.0981593 0
M  V30 4255 H 401.531 -0.597475 -0.316226 0
M  V30 4256 H 404.085 -2.02584 -0.338973 0
M  V30 4257 H 402.315 -2.65003 -2.81621 0
M  V30 4258 H 404.004 -3.04679 -2.6819 0
M  V30 4259 H 404.77 -4.76743 -0.891136 0
M  V30 4260 H 400.649 -4.17132 -1.9627 0
M  V30 4261 H 404.193 -6.97582 0.0503014 0
M  V30 4262 H 400.09 -6.37277 -1.02706 0
M  V30 4263 H 400.858 -8.18499 -0.0146455 0
M  V30 4264 N 403.521 0.559213 -1.47345 0
M  V30 4265 C 404.798 1.31997 -1.44348 0
M  V30 4266 C 405.178 2.1064 -0.139358 0
M  V30 4267 O 404.526 2.1091 0.879153 0
M  V30 4268 C 404.736 2.22618 -2.68779 0
M  V30 4269 C 406.084 2.83701 -3.1591 0
M  V30 4270 O 407.108 2.32921 -2.69493 0
M  V30 4271 O 405.967 3.75993 -3.966 0
M  V30 4272 H 403.061 0.594251 -0.575147 0
M  V30 4273 H 405.607 0.578282 -1.59543 0
M  V30 4274 H 404.379 1.64093 -3.55231 0
M  V30 4275 H 404.002 3.04085 -2.5616 0
M  V30 4276 N 404.999 1.35443 0.805782 0
M  V30 4277 C 406.415 1.15499 1.10146 0
M  V30 4278 C 406.615 -0.0319975 2.01475 0
M  V30 4279 O 405.671 -0.70236 2.42535 0
M  V30 4280 C 406.984 2.45833 1.73166 0
M  V30 4281 C 408.532 2.52047 1.85583 0
M  V30 4282 C 409.007 3.82427 2.52019 0
M  V30 4283 N 410.498 3.83682 2.59504 0
M  V30 4284 C 411.233 4.81294 3.11679 0
M  V30 4285 N 410.729 5.89294 3.64287 0
M  V30 4286 N 412.522 4.6873 3.1024 0
M  V30 4287 H 404.673 2.11469 0.198678 0
M  V30 4288 H 406.936 0.93594 0.150731 0
M  V30 4289 H 406.642 3.32874 1.13526 0
M  V30 4290 H 406.516 2.6044 2.72857 0
M  V30 4291 H 408.903 1.65435 2.44367 0
M  V30 4292 H 408.984 2.41354 0.847455 0
M  V30 4293 H 408.628 4.69437 1.93885 0
M  V30 4294 H 408.558 3.90409 3.53395 0
M  V30 4295 H 411.049 3.05648 2.22234 0
M  V30 4296 H 411.362 6.59768 4.02401 0
M  V30 4297 H 409.707 5.92985 3.62483 0
M  V30 4298 H 412.898 3.83496 2.68419 0
M  V30 4299 H 413.071 5.44965 3.50596 0
M  V30 4300 N 406.477 -1.02803 1.19454 0
M  V30 4301 C 407.407 -2.12999 0.956758 0
M  V30 4302 C 408.388 -1.69743 -0.110188 0
M  V30 4303 O 409.573 -1.94148 0.0450038 0
M  V30 4304 C 406.703 -3.43746 0.495553 0
M  V30 4305 C 405.657 -4.00688 1.50443 0
M  V30 4306 C 404.983 -5.27067 0.900275 0
M  V30 4307 C 406.283 -4.35397 2.8849 0
M  V30 4308 H 407.977 -2.33148 1.87836 0
M  V30 4309 H 405.523 -1.12045 0.904539 0
M  V30 4310 H 407.476 -4.2021 0.316493 0
M  V30 4311 H 406.2 -3.23321 -0.461646 0
M  V30 4312 H 404.859 -3.2632 1.67065 0
M  V30 4313 H 404.507 -5.02959 -0.064503 0
M  V30 4314 H 404.207 -5.66127 1.57397 0
M  V30 4315 H 405.731 -6.06196 0.73203 0
M  V30 4316 H 407.145 -5.02795 2.75446 0
M  V30 4317 H 405.542 -4.85541 3.52661 0
M  V30 4318 H 406.612 -3.44662 3.41081 0
M  V30 4319 N 407.956 -0.998596 -1.21925 0
M  V30 4320 C 409.202 -0.678667 -1.91107 0
M  V30 4321 C 409.535 0.78791 -1.77498 0
M  V30 4322 O 408.81 1.57043 -1.1475 0
M  V30 4323 C 409.093 -1.09245 -3.43129 0
M  V30 4324 C 408.946 -2.61801 -3.6576 0
M  V30 4325 C 410.265 -0.649984 -4.35274 0
M  V30 4326 H 407.384 -0.248025 -0.694012 0
M  V30 4327 H 410.026 -1.24314 -1.43688 0
M  V30 4328 H 408.176 -0.612171 -3.83647 0
M  V30 4329 H 409.848 -3.17543 -3.34611 0
M  V30 4330 H 408.091 -3.03609 -3.09845 0
M  V30 4331 H 408.762 -2.85804 -4.7225 0
M  V30 4332 H 411.238 -1.0626 -4.02303 0
M  V30 4333 H 410.114 -0.967743 -5.40302 0
M  V30 4334 H 410.375 0.449139 -4.39813 0
M  V30 4335 N 409.434 1.37368 -0.772513 0
M  V30 4336 C 410.711 1.93839 -0.26188 0
M  V30 4337 C 411.091 1.7061 1.24319 0
M  V30 4338 O 410.439 1.05534 2.02669 0
M  V30 4339 C 410.649 3.43154 -0.636102 0
M  V30 4340 C 411.997 4.20249 -0.606324 0
M  V30 4341 O 413.021 3.5152 -0.575538 0
M  V30 4342 O 411.88 5.42809 -0.634086 0
M  V30 4343 H 408.974 0.82478 -0.0605555 0
M  V30 4344 H 411.52 1.4665 -0.853917 0
M  V30 4345 H 410.292 3.53647 -1.6748 0
M  V30 4346 H 409.915 3.97596 -0.0170516 0
M  V30 4347 N 410.912 0.523116 1.48665 0
M  V30 4348 C 411.822 -0.247406 2.33292 0
M  V30 4349 C 412.838 -0.945769 1.46052 0
M  V30 4350 O 414.014 -0.922253 1.79043 0
M  V30 4351 C 411.079 -1.28487 3.22012 0
M  V30 4352 C 410.14 -0.597592 4.2512 0
M  V30 4353 C 409.373 -1.58563 5.09601 0
M  V30 4354 O 409.596 -2.81763 4.95949 0
M  V30 4355 O 408.53 -1.12879 5.91221 0
M  V30 4356 H 412.356 0.445869 3.00409 0
M  V30 4357 H 409.941 0.284128 1.46673 0
M  V30 4358 H 411.823 -1.88459 3.7691 0
M  V30 4359 H 410.498 -1.96068 2.57564 0
M  V30 4360 H 409.405 0.0424407 3.74076 0
M  V30 4361 H 410.738 0.0361517 4.92187 0
M  V30 4362 N 412.39 -1.55475 0.257931 0
M  V30 4363 C 413.615 -2.04064 -0.370488 0
M  V30 4364 C 414.04 -1.13565 -1.49948 0
M  V30 4365 O 413.398 -0.130781 -1.80828 0
M  V30 4366 C 413.446 -3.50554 -0.845237 0
M  V30 4367 O 412.55 -3.63173 -1.95394 0
M  V30 4368 H 411.891 -0.659257 -0.0792243 0
M  V30 4369 H 414.421 -2.00903 0.387212 0
M  V30 4370 H 414.431 -3.91588 -1.14555 0
M  V30 4371 H 413.106 -4.15896 -0.0191259 0
M  V30 4372 H 411.683 -3.34039 -1.65748 0
M  V30 4373 N 413.868 0.0150385 -1.57593 0
M  V30 4374 C 415.093 0.718067 -1.94573 0
M  V30 4375 C 415.518 1.6734 -0.859005 0
M  V30 4376 O 414.876 1.80362 0.184147 0
M  V30 4377 C 414.924 1.43918 -3.30636 0
M  V30 4378 O 414.028 2.55299 -3.23876 0
M  V30 4379 H 413.369 0.192125 -0.635597 0
M  V30 4380 H 415.899 -0.0336708 -2.04572 0
M  V30 4381 H 415.909 1.80598 -3.65853 0
M  V30 4382 H 414.584 0.738619 -4.09289 0
M  V30 4383 H 413.161 2.21058 -3.00312 0
M  V30 4384 N 415.346 1.54954 0.287554 0
M  V30 4385 C 416.309 1.86076 1.33823 0
M  V30 4386 C 417.309 0.734414 1.43049 0
M  V30 4387 O 418.499 1.00266 1.42452 0
M  V30 4388 C 415.631 2.05305 2.72144 0
M  V30 4389 H 416.824 2.79984 1.07465 0
M  V30 4390 H 414.377 1.47223 0.524902 0
M  V30 4391 H 415.112 1.1373 3.03704 0
M  V30 4392 H 414.897 2.873 2.66836 0
M  V30 4393 H 416.387 2.30706 3.48087 0
M  V30 4394 N 416.824 -0.551391 1.4764 0
M  V30 4395 C 417.772 -1.67896 1.60978 0
M  V30 4396 C 418.766 -1.62549 0.476877 0
M  V30 4397 O 419.972 -1.67664 0.654878 0
M  V30 4398 H 416.347 -0.555649 0.506713 0
M  V30 4399 H 418.318 -1.53784 2.55721 0
M  V30 4400 C 417.067 -3.06234 1.64669 0
M  V30 4401 H 416.39 -3.11033 2.51194 0
M  V30 4402 H 417.83 -3.84804 1.7805 0
M  V30 4403 C 416.289 -3.34737 0.381115 0
M  V30 4404 O 416.819 -3.98381 -0.515297 0
M  V30 4405 N 415.025 -2.8944 0.259354 0
M  V30 4406 H 414.572 -2.37827 0.98976 0
M  V30 4407 H 414.53 -3.08882 -0.586464 0
M  V30 4408 N 418.302 -1.35869 -0.798587 0
M  V30 4409 C 419.713 -1.26498 -1.37314 0
M  V30 4410 C 420.064 0.0991899 -1.95949 0
M  V30 4411 O 419.189 1.0004 -1.91888 0
M  V30 4412 C 419.784 -2.29054 -2.49639 0
M  V30 4413 C 418.343 -2.234 -3.02935 0
M  V30 4414 C 417.49 -2.14329 -1.75949 0
M  V30 4415 H 420.441 -1.46881 -0.600971 0
M  V30 4416 H 420.462 -1.92166 -3.28409 0
M  V30 4417 H 419.974 -3.2833 -2.06933 0
M  V30 4418 H 418.075 -1.27562 -3.50084 0
M  V30 4419 H 418.188 -3.15703 -3.60372 0
M  V30 4420 H 416.552 -1.60435 -1.9782 0
M  V30 4421 H 417.335 -3.15477 -1.35384 0
M  V30 4422 N 419.78 1.02168 -1.19998 0
M  V30 4423 C 421.028 1.75338 -1.00504 0
M  V30 4424 C 421.349 1.89387 0.464506 0
M  V30 4425 O 420.619 1.43268 1.33608 0
M  V30 4426 H 419.199 0.649564 -0.368885 0
M  V30 4427 H 421.861 1.23205 -1.51018 0
M  V30 4428 H 420.957 2.75892 -1.45912 0
M  V30 4429 N 421.258 1.00505 1.21394 0
M  V30 4430 C 422.19 0.52372 2.23136 0
M  V30 4431 C 423.203 -0.387714 1.58116 0
M  V30 4432 O 424.392 -0.187905 1.77508 0
M  V30 4433 C 421.492 -0.258885 3.3791 0
M  V30 4434 C 420.665 0.651634 4.32519 0
M  V30 4435 C 419.724 -0.0813705 5.26137 0
M  V30 4436 O 418.75 0.537295 5.66658 0
M  V30 4437 N 419.952 -1.35992 5.64346 0
M  V30 4438 H 422.717 1.39865 2.65062 0
M  V30 4439 H 420.278 0.881196 1.35818 0
M  V30 4440 H 422.27 -0.758208 3.97534 0
M  V30 4441 H 420.84 -1.035 2.94968 0
M  V30 4442 H 420.06 1.33145 3.71034 0
M  V30 4443 H 421.348 1.27129 4.92662 0
M  V30 4444 H 420.746 -1.88368 5.33417 0
M  V30 4445 H 419.303 -1.8042 6.26332 0
M  V30 4446 N 422.737 -1.36956 0.779787 0
M  V30 4447 C 423.669 -2.28833 0.129639 0
M  V30 4448 C 424.682 -1.4902 -0.655511 0
M  V30 4449 O 425.871 -1.71578 -0.492279 0
M  V30 4450 C 422.971 -3.2833 -0.839792 0
M  V30 4451 C 422.144 -4.3727 -0.10675 0
M  V30 4452 C 421.203 -5.16789 -0.990717 0
M  V30 4453 O 420.229 -5.67406 -0.451516 0
M  V30 4454 N 421.431 -5.32294 -2.3161 0
M  V30 4455 H 424.196 -2.85268 0.918803 0
M  V30 4456 H 421.757 -1.49019 0.632841 0
M  V30 4457 H 423.749 -3.78413 -1.43477 0
M  V30 4458 H 422.319 -2.72605 -1.52988 0
M  V30 4459 H 421.539 -3.88478 0.669216 0
M  V30 4460 H 422.827 -5.07229 0.399464 0
M  V30 4461 H 422.225 -4.92768 -2.77843 0
M  V30 4462 H 420.782 -5.85656 -2.86095 0
M  V30 4463 N 424.215 -0.530993 -1.48385 0
M  V30 4464 C 425.145 0.219985 -2.32461 0
M  V30 4465 C 426.126 0.934111 -1.42156 0
M  V30 4466 O 427.311 0.919694 -1.71042 0
M  V30 4467 C 424.441 1.26674 -3.23375 0
M  V30 4468 C 423.395 0.67069 -4.22712 0
M  V30 4469 C 422.721 1.82017 -5.02766 0
M  V30 4470 C 424.021 -0.358268 -5.2107 0
M  V30 4471 H 425.715 -0.48187 -2.95497 0
M  V30 4472 H 423.261 -0.233182 -1.42099 0
M  V30 4473 H 425.214 1.80006 -3.81019 0
M  V30 4474 H 423.938 1.99818 -2.58341 0
M  V30 4475 H 422.597 0.158878 -3.66256 0
M  V30 4476 H 422.245 2.54002 -4.34157 0
M  V30 4477 H 421.945 1.42727 -5.70003 0
M  V30 4478 H 423.469 2.35725 -5.63264 0
M  V30 4479 H 424.883 0.0880081 -5.73232 0
M  V30 4480 H 423.28 -0.66861 -5.96364 0
M  V30 4481 H 424.35 -1.26367 -4.68145 0
M  V30 4482 N 425.693 1.55336 -0.266172 0
M  V30 4483 C 426.923 2.03506 0.356239 0
M  V30 4484 C 427.331 1.14426 1.50676 0
M  V30 4485 O 426.674 0.155043 1.83045 0
M  V30 4486 C 426.736 3.47848 0.90785 0
M  V30 4487 C 426.4 4.56861 -0.112888 0
M  V30 4488 C 427.397 5.11528 -0.929264 0
M  V30 4489 C 425.082 5.01704 -0.244546 0
M  V30 4490 C 427.076 6.09549 -1.86357 0
M  V30 4491 C 424.763 5.99553 -1.18234 0
M  V30 4492 C 425.761 6.53356 -1.99036 0
M  V30 4493 O 425.449 7.49293 -2.91231 0
M  V30 4494 H 425.181 0.670444 0.08649 0
M  V30 4495 H 427.735 2.01598 -0.39337 0
M  V30 4496 H 425.965 3.46967 1.70737 0
M  V30 4497 H 427.654 3.79407 1.44239 0
M  V30 4498 H 428.42 4.77701 -0.838237 0
M  V30 4499 H 424.299 4.59477 0.374359 0
M  V30 4500 H 427.843 6.51469 -2.49467 0
M  V30 4501 H 423.74 6.32799 -1.27421 0
M  V30 4502 H 424.508 7.66978 -2.8581 0
M  V30 4503 N 427.171 -0.0066808 1.57599 0
M  V30 4504 C 428.081 -1.01671 2.11424 0
M  V30 4505 C 429.097 -1.38143 1.05795 0
M  V30 4506 O 430.273 -1.47011 1.37658 0
M  V30 4507 C 427.338 -2.29192 2.60139 0
M  V30 4508 C 426.399 -1.99094 3.80342 0
M  V30 4509 C 425.632 -3.20535 4.26724 0
M  V30 4510 O 425.855 -4.3199 3.72479 0
M  V30 4511 O 424.789 -3.04924 5.18946 0
M  V30 4512 H 428.615 -0.589181 2.9793 0
M  V30 4513 H 426.2 -0.225091 1.47695 0
M  V30 4514 H 428.082 -3.0412 2.917 0
M  V30 4515 H 426.757 -2.71195 1.76733 0
M  V30 4516 H 425.664 -1.21663 3.53764 0
M  V30 4517 H 426.997 -1.61931 4.648 0
M  V30 4518 N 428.649 -1.55105 -0.279332 0
M  V30 4519 C 429.596 -1.8755 -1.34513 0
M  V30 4520 C 430.566 -0.726384 -1.49375 0
M  V30 4521 O 431.751 -0.977063 -1.63884 0
M  V30 4522 C 428.891 -2.14738 -2.70151 0
M  V30 4523 C 428.004 -3.42285 -2.63562 0
M  V30 4524 C 427.139 -3.59206 -3.91337 0
M  V30 4525 C 426.178 -4.80467 -3.79233 0
M  V30 4526 N 425.315 -4.94079 -4.98829 0
M  V30 4527 H 430.155 -2.78456 -1.06143 0
M  V30 4528 H 427.692 -1.37867 -0.512936 0
M  V30 4529 H 429.65 -2.28501 -3.49061 0
M  V30 4530 H 428.28 -1.27075 -2.96735 0
M  V30 4531 H 427.332 -3.37029 -1.76397 0
M  V30 4532 H 428.644 -4.31328 -2.50515 0
M  V30 4533 H 427.798 -3.72751 -4.78687 0
M  V30 4534 H 426.537 -2.68337 -4.07243 0
M  V30 4535 H 425.542 -4.66932 -2.90266 0
M  V30 4536 H 426.767 -5.72765 -3.64852 0
M  V30 4537 H 424.713 -4.06139 -5.15158 0
M  V30 4538 H 424.63 -5.77156 -4.8829 0
M  V30 4539 H 425.898 -5.12003 -5.8777 0
M  V30 4540 N 430.127 0.543554 -1.4793 0
M  V30 4541 C 431.057 1.65888 -1.64327 0
M  V30 4542 C 432.038 1.62818 -0.492383 0
M  V30 4543 O 433.223 1.80226 -0.723338 0
M  V30 4544 C 430.353 3.04506 -1.67013 0
M  V30 4545 C 429.307 3.2243 -2.81466 0
M  V30 4546 C 428.633 4.61972 -2.69233 0
M  V30 4547 C 429.933 3.06496 -4.22915 0
M  V30 4548 H 431.627 1.52421 -2.57698 0
M  V30 4549 H 429.173 0.731849 -1.24016 0
M  V30 4550 H 431.126 3.82391 -1.77074 0
M  V30 4551 H 429.85 3.18964 -0.70212 0
M  V30 4552 H 428.509 2.46957 -2.70938 0
M  V30 4553 H 428.157 4.73247 -1.7043 0
M  V30 4554 H 427.857 4.74911 -3.46025 0
M  V30 4555 H 429.381 5.41974 -2.81242 0
M  V30 4556 H 430.795 3.74186 -4.34348 0
M  V30 4557 H 429.192 3.30938 -5.006 0
M  V30 4558 H 430.262 2.03077 -4.40327 0
M  V30 4559 N 431.605 1.3629 0.791371 0
M  V30 4560 C 432.854 1.29742 1.54434 0
M  V30 4561 C 433.167 -0.121729 1.95221 0
M  V30 4562 O 434.373 -0.309579 2.69729 0
M  V30 4563 C 432.829 2.27623 2.78776 0
M  V30 4564 C 432.437 3.74963 2.45166 0
M  V30 4565 C 434.181 2.30047 3.56761 0
M  V30 4566 C 432.088 4.64626 3.65891 0
M  V30 4567 H 431.018 0.482113 0.579727 0
M  V30 4568 H 433.669 1.61642 0.868565 0
M  V30 4569 H 432.051 1.88714 3.48142 0
M  V30 4570 H 433.225 4.22596 1.83709 0
M  V30 4571 H 431.54 3.75295 1.80396 0
M  V30 4572 H 434.137 2.94247 4.46456 0
M  V30 4573 H 434.48 1.30846 3.95203 0
M  V30 4574 H 435.013 2.67563 2.94372 0
M  V30 4575 H 431.752 5.64883 3.32547 0
M  V30 4576 H 431.272 4.2171 4.26521 0
M  V30 4577 H 432.951 4.80801 4.32943 0
M  V30 4578 N 433.083 -1.0153 1.20538 0
M  V30 4579 C 434.331 -1.74803 1.01432 0
M  V30 4580 C 434.652 -1.8963 -0.454456 0
M  V30 4581 O 433.922 -1.43975 -1.32846 0
M  V30 4582 H 432.502 -0.647598 0.372324 0
M  V30 4583 H 435.164 -1.22402 1.5167 0
M  V30 4584 H 434.26 -2.75114 1.47373 0
M  V30 4585 N 434.561 -1.01147 -1.20859 0
M  V30 4586 C 435.809 -0.696486 -1.89719 0
M  V30 4587 C 436.13 0.775788 -1.78904 0
M  V30 4588 O 435.4 1.55759 -1.18811 0
M  V30 4589 H 433.98 -0.254628 -0.702263 0
M  V30 4590 H 436.642 -1.28197 -1.46804 0
M  V30 4591 H 435.738 -0.975357 -2.96468 0
M  V30 4592 N 436.039 1.36541 -0.78704 0
M  V30 4593 C 436.986 2.30082 -0.181901 0
M  V30 4594 C 437.956 1.5186 0.672896 0
M  V30 4595 O 439.141 1.80374 0.622072 0
M  V30 4596 C 436.281 3.3835 0.679197 0
M  V30 4597 C 435.394 4.31565 -0.193882 0
M  V30 4598 C 434.529 5.26915 0.673364 0
M  V30 4599 C 433.568 6.11769 -0.201315 0
M  V30 4600 N 432.705 6.99315 0.624777 0
M  V30 4601 H 437.545 2.81248 -0.985064 0
M  V30 4602 H 435.082 1.38437 -0.497342 0
M  V30 4603 H 437.04 3.99767 1.19341 0
M  V30 4604 H 435.67 2.8851 1.44781 0
M  V30 4605 H 434.722 3.71323 -0.826044 0
M  V30 4606 H 436.034 4.91191 -0.867937 0
M  V30 4607 H 435.188 5.9361 1.25348 0
M  V30 4608 H 433.927 4.67737 1.38105 0
M  V30 4609 H 432.932 5.44039 -0.793849 0
M  V30 4610 H 434.157 6.73022 -0.906568 0
M  V30 4611 H 432.103 6.42648 1.3168 0
M  V30 4612 H 432.02 7.56 0.00835237 0
M  V30 4613 H 433.288 7.70382 1.18879 0
M  V30 4614 N 437.518 0.538854 1.48102 0
M  V30 4615 C 438.748 0.0122958 2.06596 0
M  V30 4616 C 439.156 -1.27861 1.39457 0
M  V30 4617 O 438.499 -1.77348 0.478907 0
M  V30 4618 C 438.561 -0.273131 3.58461 0
M  V30 4619 C 438.225 0.92561 4.47528 0
M  V30 4620 C 439.222 1.82637 4.86765 0
M  V30 4621 C 436.907 1.13511 4.89306 0
M  V30 4622 C 438.901 2.92047 5.66558 0
M  V30 4623 C 436.588 2.23233 5.68868 0
M  V30 4624 C 437.586 3.12333 6.07402 0
M  V30 4625 O 437.274 4.20155 6.85365 0
M  V30 4626 H 437.006 0.0344283 0.675123 0
M  V30 4627 H 439.56 0.746494 1.91355 0
M  V30 4628 H 437.79 -1.06141 3.71848 0
M  V30 4629 H 439.479 -0.742842 3.99045 0
M  V30 4630 H 440.245 1.67649 4.55103 0
M  V30 4631 H 436.124 0.450835 4.5879 0
M  V30 4632 H 439.668 3.6162 5.96554 0
M  V30 4633 H 435.565 2.38201 5.99942 0
M  V30 4634 H 436.333 4.17975 7.03732 0
M  V30 4635 N 438.996 -1.55193 0.274407 0
M  V30 4636 C 439.929 -2.18606 -0.654712 0
M  V30 4637 C 440.907 -1.14677 -1.15273 0
M  V30 4638 O 442.091 -1.43198 -1.22583 0
M  V30 4639 C 439.218 -2.80875 -1.89281 0
M  V30 4640 C 438.264 -3.981 -1.53032 0
M  V30 4641 S 439.097 -5.32025 -0.609107 0
M  V30 4642 C 440.253 -5.97761 -1.85559 0
M  V30 4643 H 440.486 -2.97074 -0.115894 0
M  V30 4644 H 438.019 -1.54288 0.05867 0
M  V30 4645 H 439.977 -3.17381 -2.60345 0
M  V30 4646 H 438.638 -2.02302 -2.40277 0
M  V30 4647 H 437.831 -4.40356 -2.45158 0
M  V30 4648 H 437.433 -3.63013 -0.899874 0
M  V30 4649 H 439.725 -6.16951 -2.7996 0
M  V30 4650 H 440.668 -6.92545 -1.47605 0
M  V30 4651 H 441.076 -5.27113 -2.02021 0
M  V30 4652 N 440.474 -0.00167713 -1.576 0
M  V30 4653 C 441.722 0.681471 -1.90264 0
M  V30 4654 C 442.043 1.7422 -0.875924 0
M  V30 4655 O 441.313 1.95709 0.0864412 0
M  V30 4656 H 439.893 0.254696 -0.702239 0
M  V30 4657 H 442.555 -0.0429996 -1.94853 0
M  V30 4658 H 441.651 1.15166 -2.90075 0
M  V30 4659 N 441.952 1.55251 0.271103 0
M  V30 4660 C 442.862 1.9136 1.35714 0
M  V30 4661 C 443.878 0.811075 1.5394 0
M  V30 4662 O 445.054 1.11031 1.6803 0
M  V30 4663 C 442.119 2.1798 2.69603 0
M  V30 4664 C 441.18 3.4153 2.60107 0
M  V30 4665 C 440.413 3.66871 3.8761 0
M  V30 4666 O 440.636 2.94689 4.8838 0
M  V30 4667 O 439.57 4.60405 3.87699 0
M  V30 4668 H 443.396 2.83815 1.08088 0
M  V30 4669 H 440.981 1.41821 0.469792 0
M  V30 4670 H 442.863 2.36518 3.48765 0
M  V30 4671 H 441.538 1.28708 2.97012 0
M  V30 4672 H 440.445 3.28325 1.79314 0
M  V30 4673 H 441.778 4.31027 2.37647 0
M  V30 4674 N 443.43 -0.535701 1.48216 0
M  V30 4675 C 444.36 -1.65014 1.65204 0
M  V30 4676 C 445.341 -1.62554 0.501011 0
M  V30 4677 O 446.526 -1.7984 0.732886 0
M  V30 4678 C 443.656 -3.03616 1.68626 0
M  V30 4679 C 442.61 -3.20932 2.83172 0
M  V30 4680 C 441.936 -4.60537 2.71679 0
M  V30 4681 C 443.236 -3.04249 4.24535 0
M  V30 4682 H 444.93 -1.51053 2.58502 0
M  V30 4683 H 442.476 -0.725262 1.24402 0
M  V30 4684 H 444.429 -3.81446 1.79099 0
M  V30 4685 H 443.153 -3.18587 0.719026 0
M  V30 4686 H 441.812 -2.45517 2.72244 0
M  V30 4687 H 441.46 -4.72336 1.72937 0
M  V30 4688 H 441.16 -4.73069 3.48538 0
M  V30 4689 H 442.684 -5.40475 2.84112 0
M  V30 4690 H 444.098 -3.71877 4.36326 0
M  V30 4691 H 442.495 -3.28278 5.02348 0
M  V30 4692 H 443.565 -2.00739 4.41397 0
M  V30 4693 N 444.908 -1.36708 -0.784132 0
M  V30 4694 C 446.154 -1.31426 -1.54451 0
M  V30 4695 C 446.487 0.10476 -1.93917 0
M  V30 4696 O 445.762 1.05934 -1.6312 0
M  V30 4697 C 446.045 -2.24189 -2.818 0
M  V30 4698 C 445.898 -3.74813 -2.48667 0
M  V30 4699 C 447.217 -2.15626 -3.83658 0
M  V30 4700 H 444.336 -0.478739 -0.560337 0
M  V30 4701 H 446.978 -1.67305 -0.900498 0
M  V30 4702 H 445.128 -1.93722 -3.36755 0
M  V30 4703 H 446.8 -4.15823 -1.99722 0
M  V30 4704 H 445.043 -3.93989 -1.81535 0
M  V30 4705 H 445.714 -4.35138 -3.39646 0
M  V30 4706 H 448.19 -2.42456 -3.38163 0
M  V30 4707 H 447.066 -2.82694 -4.70506 0
M  V30 4708 H 447.327 -1.14522 -4.27009 0
M  V30 4709 N 446.386 1.0089 -1.21074 0
M  V30 4710 C 447.802 1.2695 -0.967257 0
M  V30 4711 C 448.002 1.9846 0.348673 0
M  V30 4712 O 447.058 2.28459 1.0753 0
M  V30 4713 C 448.371 2.09697 -2.15517 0
M  V30 4714 C 449.919 2.22937 -2.197 0
M  V30 4715 C 450.394 3.09064 -3.37999 0
M  V30 4716 N 451.885 3.16653 -3.38061 0
M  V30 4717 C 452.62 3.8354 -4.26245 0
M  V30 4718 N 452.116 4.52488 -5.2462 0
M  V30 4719 N 453.909 3.80141 -4.14064 0
M  V30 4720 H 446.06 0.529005 -2.05707 0
M  V30 4721 H 448.323 0.296148 -0.900556 0
M  V30 4722 H 448.029 1.64497 -3.10859 0
M  V30 4723 H 447.903 3.10444 -2.14253 0
M  V30 4724 H 450.29 2.67357 -1.24916 0
M  V30 4725 H 450.371 1.21673 -2.2501 0
M  V30 4726 H 450.015 2.65347 -4.33074 0
M  V30 4727 H 449.945 4.10433 -3.29928 0
M  V30 4728 H 452.436 2.67566 -2.66865 0
M  V30 4729 H 452.749 5.01219 -5.88217 0
M  V30 4730 H 451.094 4.51288 -5.28549 0
M  V30 4731 H 454.285 3.25427 -3.36474 0
M  V30 4732 H 454.458 4.31992 -4.82998 0
M  V30 4733 N 447.864 1.01787 1.20321 0
M  V30 4734 C 448.794 0.609625 2.25401 0
M  V30 4735 C 449.775 -0.375951 1.65893 0
M  V30 4736 O 450.96 -0.261101 1.92437 0
M  V30 4737 C 448.09 -0.0515995 3.47262 0
M  V30 4738 C 447.044 0.855095 4.19371 0
M  V30 4739 C 446.37 0.0595757 5.34667 0
M  V30 4740 C 447.67 2.16374 4.75373 0
M  V30 4741 H 449.364 1.48803 2.59804 0
M  V30 4742 H 446.91 0.716934 1.24884 0
M  V30 4743 H 448.863 -0.348764 4.19954 0
M  V30 4744 H 447.587 -0.964726 3.12027 0
M  V30 4745 H 446.246 1.13628 3.48546 0
M  V30 4746 H 445.894 -0.85524 4.95676 0
M  V30 4747 H 445.594 0.663406 5.83843 0
M  V30 4748 H 447.118 -0.231105 6.10162 0
M  V30 4749 H 448.532 1.92885 5.39878 0
M  V30 4750 H 446.929 2.71853 5.34991 0
M  V30 4751 H 447.999 2.82589 3.94045 0
M  V30 4752 N 449.342 -1.36122 0.79427 0
M  V30 4753 C 450.588 -1.99406 0.369452 0
M  V30 4754 C 450.921 -1.62886 -1.05743 0
M  V30 4755 O 450.196 -0.886053 -1.73145 0
M  V30 4756 C 450.479 -3.56046 0.538833 0
M  V30 4757 C 450.332 -4.02404 2.00976 0
M  V30 4758 C 451.651 -4.40079 -0.0431359 0
M  V30 4759 H 448.77 -0.724397 0.135712 0
M  V30 4760 H 451.412 -1.61461 1.00151 0
M  V30 4761 H 449.562 -3.885 0.000771004 0
M  V30 4762 H 451.234 -3.80415 2.60926 0
M  V30 4763 H 449.477 -3.53765 2.51063 0
M  V30 4764 H 450.148 -5.11344 2.07922 0
M  V30 4765 H 452.624 -4.14013 0.416228 0
M  V30 4766 H 451.5 -5.48799 0.105374 0
M  V30 4767 H 451.761 -4.27264 -1.13571 0
M  V30 4768 N 450.82 -0.546701 -1.47814 0
M  V30 4769 C 451.75 0.195317 -2.32682 0
M  V30 4770 C 452.731 0.918981 -1.43139 0
M  V30 4771 O 453.916 0.901501 -1.72008 0
M  V30 4772 C 451.046 1.23237 -3.247 0
M  V30 4773 C 450 0.625818 -4.234 0
M  V30 4774 C 449.326 1.76674 -5.04669 0
M  V30 4775 C 450.626 -0.413515 -5.2066 0
M  V30 4776 H 452.32 -0.513184 -2.94969 0
M  V30 4777 H 449.866 -0.248241 -1.41844 0
M  V30 4778 H 451.819 1.75955 -3.82907 0
M  V30 4779 H 450.543 1.97067 -2.60446 0
M  V30 4780 H 449.202 0.120023 -3.66403 0
M  V30 4781 H 448.85 2.49383 -4.36826 0
M  V30 4782 H 448.55 1.36673 -5.71484 0
M  V30 4783 H 450.074 2.29738 -5.65732 0
M  V30 4784 H 451.488 0.0272042 -5.73294 0
M  V30 4785 H 449.885 -0.731825 -5.95621 0
M  V30 4786 H 450.955 -1.31325 -4.66778 0
M  V30 4787 N 452.299 1.55045 -0.282633 0
M  V30 4788 C 453.229 2.2579 0.595066 0
M  V30 4789 C 454.21 1.25074 1.15284 0
M  V30 4790 O 455.395 1.5381 1.18559 0
M  V30 4791 C 452.525 2.98472 1.77572 0
M  V30 4792 C 451.479 4.0618 1.34914 0
M  V30 4793 C 450.805 4.66477 2.6135 0
M  V30 4794 C 452.105 5.1996 0.493821 0
M  V30 4795 H 453.799 2.994 0.00505653 0
M  V30 4796 H 451.345 1.44 0.000992001 0
M  V30 4797 H 453.298 3.46677 2.39568 0
M  V30 4798 H 452.022 2.2241 2.39168 0
M  V30 4799 H 450.681 3.58797 0.752338 0
M  V30 4800 H 450.329 3.87074 3.2122 0
M  V30 4801 H 450.029 5.39207 2.33516 0
M  V30 4802 H 451.553 5.17435 3.24181 0
M  V30 4803 H 452.967 5.64172 1.01898 0
M  V30 4804 H 451.364 5.99299 0.310047 0
M  V30 4805 H 452.434 4.82462 -0.485593 0
M  V30 4806 N 453.777 0.010035 1.57597 0
M  V30 4807 C 455.193 -0.346164 1.55801 0
M  V30 4808 C 455.393 -1.74144 1.01371 0
M  V30 4809 O 454.449 -2.43938 0.651968 0
M  V30 4810 C 455.762 -0.212216 2.9995 0
M  V30 4811 C 457.31 -0.286409 3.11687 0
M  V30 4812 C 457.785 -0.18147 4.5764 0
M  V30 4813 N 459.276 -0.239056 4.62583 0
M  V30 4814 C 460.011 -0.181351 5.73113 0
M  V30 4815 N 459.507 -0.073661 6.92761 0
M  V30 4816 N 461.3 -0.233949 5.61613 0
M  V30 4817 H 453.451 0.922657 1.91313 0
M  V30 4818 H 455.714 0.354595 0.879185 0
M  V30 4819 H 455.42 0.748169 3.4365 0
M  V30 4820 H 455.294 -0.990224 3.6397 0
M  V30 4821 H 457.681 -1.23724 2.67911 0
M  V30 4822 H 457.762 0.521645 2.50425 0
M  V30 4823 H 457.406 0.765863 5.02093 0
M  V30 4824 H 457.336 -1.00814 5.1686 0
M  V30 4825 H 459.827 -0.32321 3.76515 0
M  V30 4826 H 460.14 -0.0358003 7.72792 0
M  V30 4827 H 458.485 -0.0391461 6.94989 0
M  V30 4828 H 461.676 -0.316347 4.6703 0
M  V30 4829 H 461.849 -0.185514 6.47734 0
M  V30 4830 N 455.255 -1.55392 -0.262866 0
M  V30 4831 C 456.185 -1.91978 -1.32917 0
M  V30 4832 C 457.166 -0.7828 -1.51017 0
M  V30 4833 O 458.351 -1.04178 -1.63892 0
M  V30 4834 C 455.481 -2.20055 -2.68687 0
M  V30 4835 C 454.435 -3.35854 -2.65304 0
M  V30 4836 C 453.761 -3.49435 -4.04721 0
M  V30 4837 C 455.061 -4.71977 -2.23685 0
M  V30 4838 H 456.755 -2.81292 -1.02544 0
M  V30 4839 H 454.301 -1.3534 -0.491846 0
M  V30 4840 H 456.254 -2.44237 -3.43404 0
M  V30 4841 H 454.978 -1.27551 -3.00663 0
M  V30 4842 H 453.637 -3.11655 -1.93045 0
M  V30 4843 H 453.285 -2.54379 -4.33936 0
M  V30 4844 H 452.985 -4.27297 -4.0335 0
M  V30 4845 H 454.509 -3.7592 -4.81161 0
M  V30 4846 H 455.923 -4.95637 -2.88127 0
M  V30 4847 H 454.32 -5.52828 -2.33456 0
M  V30 4848 H 455.39 -4.70115 -1.18827 0
M  V30 4849 N 456.733 0.527833 -1.48498 0
M  V30 4850 C 457.979 1.28545 -1.56857 0
M  V30 4851 C 458.312 1.92678 -0.242651 0
M  V30 4852 O 457.587 1.79394 0.751545 0
M  V30 4853 C 457.87 2.37314 -2.70839 0
M  V30 4854 C 457.723 1.77858 -4.13142 0
M  V30 4855 C 459.042 3.39068 -2.80573 0
M  V30 4856 H 456.161 0.466006 -0.570971 0
M  V30 4857 H 458.803 0.587784 -1.8068 0
M  V30 4858 H 456.953 2.96821 -2.50658 0
M  V30 4859 H 458.625 1.22385 -4.44769 0
M  V30 4860 H 456.868 1.08383 -4.20042 0
M  V30 4861 H 457.539 2.56624 -4.88721 0
M  V30 4862 H 460.015 2.89518 -2.98862 0
M  V30 4863 H 458.891 4.12566 -3.6205 0
M  V30 4864 H 459.152 3.9975 -1.88818 0
M  V30 4865 N 458.211 1.37122 0.776871 0
M  V30 4866 C 459.488 1.22586 1.52421 0
M  V30 4867 C 459.868 -0.182726 2.10308 0
M  V30 4868 O 459.216 -1.18979 1.9508 0
M  V30 4869 C 459.426 2.31782 2.60918 0
M  V30 4870 C 460.774 2.69071 3.2846 0
M  V30 4871 O 461.798 2.3092 2.71209 0
M  V30 4872 O 460.657 3.3478 4.31954 0
M  V30 4873 H 457.751 0.478045 0.674835 0
M  V30 4874 H 460.297 1.48888 0.814275 0
M  V30 4875 H 459.069 3.26131 2.16227 0
M  V30 4876 H 458.692 2.06916 3.39517 0
M  V30 4877 N 459.689 -1.00246 1.21608 0
M  V30 4878 C 460.599 -2.12515 0.993709 0
M  V30 4879 C 461.615 -1.73913 -0.0549939 0
M  V30 4880 O 462.791 -2.00943 0.135619 0
M  V30 4881 C 459.856 -3.42083 0.563953 0
M  V30 4882 C 458.917 -3.94843 1.68516 0
M  V30 4883 C 458.15 -5.18226 1.27582 0
M  V30 4884 O 458.373 -5.70201 0.150506 0
M  V30 4885 O 457.307 -5.64497 2.0887 0
M  V30 4886 H 461.133 -2.34152 1.93407 0
M  V30 4887 H 458.718 -1.10891 1.00118 0
M  V30 4888 H 460.6 -4.20073 0.334194 0
M  V30 4889 H 459.275 -3.21828 -0.347665 0
M  V30 4890 H 458.182 -3.18068 1.96935 0
M  V30 4891 H 459.515 -4.19512 2.5743 0
M  V30 4892 N 461.167 -1.02423 -1.1978 0
M  V30 4893 C 462.115 -0.594474 -2.24875 0
M  V30 4894 C 463.109 0.370598 -1.65296 0
M  V30 4895 O 464.315 0.239684 -1.78397 0
M  V30 4896 H 460.69 -0.173961 -0.731602 0
M  V30 4897 H 462.661 -1.4916 -2.58445 0
M  V30 4898 C 461.41 0.0436512 -3.47673 0
M  V30 4899 H 460.733 -0.689963 -3.93801 0
M  V30 4900 H 462.173 0.307362 -4.22884 0
M  V30 4901 C 460.632 1.28881 -3.11274 0
M  V30 4902 O 461.162 2.38135 -3.23503 0
M  V30 4903 N 459.368 1.1758 -2.6575 0
M  V30 4904 H 458.915 0.286769 -2.55999 0
M  V30 4905 H 458.873 2.00988 -2.41767 0
M  V30 4906 N 462.645 1.35699 -0.801477 0
M  V30 4907 C 463.575 2.32436 -0.222658 0
M  V30 4908 C 464.556 1.5723 0.649057 0
M  V30 4909 O 465.741 1.85324 0.580387 0
M  V30 4910 C 462.871 3.41469 0.633719 0
M  V30 4911 C 461.825 4.27774 -0.139083 0
M  V30 4912 C 461.151 5.28082 0.838666 0
M  V30 4913 C 462.451 5.04946 -1.33517 0
M  V30 4914 H 464.145 2.81094 -1.03086 0
M  V30 4915 H 461.691 1.35146 -0.497155 0
M  V30 4916 H 463.644 4.08143 1.04868 0
M  V30 4917 H 462.368 2.91408 1.47475 0
M  V30 4918 H 461.027 3.62673 -0.535156 0
M  V30 4919 H 460.675 4.7429 1.67506 0
M  V30 4920 H 460.375 5.86695 0.32594 0
M  V30 4921 H 461.899 5.97628 1.25194 0
M  V30 4922 H 463.313 5.64593 -0.995349 0
M  V30 4923 H 461.71 5.7303 -1.78202 0
M  V30 4924 H 462.78 4.35886 -2.12442 0
M  V30 4925 N 464.123 0.554532 1.47522 0
M  V30 4926 C 465.053 -0.182974 2.32782 0
M  V30 4927 C 466.034 -0.911377 1.43624 0
M  V30 4928 O 467.219 -0.892366 1.72483 0
M  V30 4929 C 464.349 -1.21513 3.25349 0
M  V30 4930 C 463.303 -0.603355 4.23726 0
M  V30 4931 C 462.629 -1.73995 5.05598 0
M  V30 4932 C 463.929 0.441121 5.20434 0
M  V30 4933 H 465.623 0.52882 2.94693 0
M  V30 4934 H 463.169 0.255759 1.41711 0
M  V30 4935 H 465.122 -1.73922 3.83835 0
M  V30 4936 H 463.846 -1.95683 2.61487 0
M  V30 4937 H 462.505 -0.10059 3.66462 0
M  V30 4938 H 462.153 -2.47063 4.38143 0
M  V30 4939 H 461.853 -1.3364 5.72201 0
M  V30 4940 H 463.377 -2.26735 5.66942 0
M  V30 4941 H 464.791 0.00319931 5.733 0
M  V30 4942 H 463.188 0.763402 5.95224 0
M  V30 4943 H 464.258 1.33799 4.66075 0
M  V30 4944 N 465.601 -1.54893 0.290851 0
M  V30 4945 C 466.848 -1.99933 -0.321391 0
M  V30 4946 C 467.176 -1.17927 -1.54672 0
M  V30 4947 O 466.431 -0.240902 -1.94212 0
M  V30 4948 C 466.73 -3.49815 -0.732397 0
M  V30 4949 C 466.396 -4.4921 0.390056 0
M  V30 4950 C 465.058 -4.76107 0.698223 0
M  V30 4951 C 467.41 -5.08453 1.14562 0
M  V30 4952 C 464.738 -5.59514 1.76526 0
M  V30 4953 C 467.09 -5.9302 2.2025 0
M  V30 4954 C 465.754 -6.18232 2.51684 0
M  V30 4955 H 465.024 -0.731608 -0.117605 0
M  V30 4956 H 467.671 -1.87107 0.407839 0
M  V30 4957 H 465.976 -3.60199 -1.54155 0
M  V30 4958 H 467.673 -3.82083 -1.21712 0
M  V30 4959 H 464.263 -4.28372 0.13976 0
M  V30 4960 H 468.447 -4.87683 0.920801 0
M  V30 4961 H 463.703 -5.77289 2.01364 0
M  V30 4962 H 467.877 -6.37955 2.7926 0
M  V30 4963 H 465.504 -6.82653 3.34499 0
M  V30 4964 N 467.08 -0.0183926 -1.57589 0
M  V30 4965 C 468.03 0.975944 -2.06057 0
M  V30 4966 C 469.014 1.29204 -0.958908 0
M  V30 4967 O 470.206 1.27995 -1.22255 0
M  V30 4968 C 467.335 2.26194 -2.58247 0
M  V30 4969 C 466.421 1.97467 -3.75323 0
M  V30 4970 N 466.812 1.38968 -4.86335 0
M  V30 4971 C 465.11 2.27515 -3.83605 0
M  V30 4972 C 465.811 1.27131 -5.67638 0
M  V30 4973 N 464.787 1.76319 -5.14211 0
M  V30 4974 H 468.589 0.518444 -2.89291 0
M  V30 4975 H 466.103 0.18688 -1.61321 0
M  V30 4976 H 468.1 2.98289 -2.91255 0
M  V30 4977 H 466.76 2.7258 -1.76438 0
M  V30 4978 H 467.771 1.06608 -5.06809 0
M  V30 4979 H 464.448 2.76649 -3.12684 0
M  V30 4980 H 465.838 0.819882 -6.66879 0
M  V30 4981 N 468.558 1.5553 0.254621 0
M  V30 4982 C 469.806 1.7665 0.981793 0
M  V30 4983 C 470.127 0.580963 1.86145 0
M  V30 4984 O 469.397 -0.403537 1.91699 0
M  V30 4985 H 467.977 0.651475 0.365498 0
M  V30 4986 H 470.639 1.92958 0.274426 0
M  V30 4987 H 469.735 2.67486 1.60802 0
M  V30 4988 N 470.036 -0.519951 1.48776 0
M  V30 4989 C 470.946 -1.65025 1.66745 0
M  V30 4990 C 471.962 -1.6508 0.549954 0
M  V30 4991 O 473.138 -1.83848 0.822295 0
M  V30 4992 C 470.203 -3.0146 1.71238 0
M  V30 4993 C 469.264 -3.12182 2.94688 0
M  V30 4994 C 468.497 -4.42109 2.98958 0
M  V30 4995 O 468.72 -5.29799 2.1135 0
M  V30 4996 O 467.654 -4.57406 3.91233 0
M  V30 4997 H 471.48 -1.52801 2.62461 0
M  V30 4998 H 469.065 -0.694157 1.32294 0
M  V30 4999 H 470.947 -3.82584 1.76657 0
M  V30 5000 H 469.622 -3.13988 0.786975 0
M  V30 5001 H 468.529 -2.30316 2.94797 0
M  V30 5002 H 469.862 -3.04574 3.86646 0
M  V30 5003 N 471.514 -1.37532 -0.769588 0
M  V30 5004 C 472.477 -1.33292 -1.86456 0
M  V30 5005 C 473.477 -0.236537 -1.59051 0
M  V30 5006 O 474.667 -0.492511 -1.67093 0
M  V30 5007 C 471.799 -1.07118 -3.23633 0
M  V30 5008 H 472.992 -2.30692 -1.91628 0
M  V30 5009 H 470.545 -1.22593 -0.969572 0
M  V30 5010 H 471.28 -0.102578 -3.24138 0
M  V30 5011 H 471.065 -1.86479 -3.44917 0
M  V30 5012 H 472.555 -1.06806 -4.03711 0
M  V30 5013 N 472.992 0.995999 -1.22138 0
M  V30 5014 C 474.217 1.77601 -1.0711 0
M  V30 5015 C 474.642 1.84339 0.374264 0
M  V30 5016 O 474 1.29359 1.27028 0
M  V30 5017 C 474.048 3.18897 -1.68336 0
M  V30 5018 O 473.152 4.01663 -0.934928 0
M  V30 5019 H 472.493 0.547011 -0.376397 0
M  V30 5020 H 475.023 1.25137 -1.6187 0
M  V30 5021 H 475.033 3.69539 -1.72931 0
M  V30 5022 H 473.708 3.13308 -2.73516 0
M  V30 5023 H 472.285 3.60204 -0.964751 0
M  V30 5024 N 474.47 1.03057 1.19235 0
M  V30 5025 C 475.38 0.622922 2.26179 0
M  V30 5026 C 476.396 -0.346113 1.70523 0
M  V30 5027 O 477.572 -0.203572 2.00369 0
M  V30 5028 C 474.637 -0.0182063 3.46695 0
M  V30 5029 C 473.698 0.998546 4.17526 0
M  V30 5030 C 472.931 0.387917 5.32288 0
M  V30 5031 O 473.154 -0.808668 5.64639 0
M  V30 5032 O 472.088 1.1116 5.91546 0
M  V30 5033 H 475.914 1.51363 2.63292 0
M  V30 5034 H 473.499 0.800856 1.26122 0
M  V30 5035 H 475.381 -0.375606 4.19723 0
M  V30 5036 H 474.056 -0.882895 3.11427 0
M  V30 5037 H 472.963 1.40756 3.4661 0
M  V30 5038 H 474.296 1.83366 4.56769 0
M  V30 5039 N 475.948 -1.35272 0.808662 0
M  V30 5040 C 476.88 -2.28507 0.178149 0
M  V30 5041 C 477.893 -1.50377 -0.623754 0
M  V30 5042 O 479.082 -1.72583 -0.455774 0
M  V30 5043 C 476.182 -3.30038 -0.769959 0
M  V30 5044 C 475.355 -4.37398 -0.0139749 0
M  V30 5045 C 474.414 -5.18775 -0.880875 0
M  V30 5046 O 473.44 -5.68236 -0.331059 0
M  V30 5047 N 474.642 -5.37087 -2.20267 0
M  V30 5048 H 477.407 -2.83255 0.979106 0
M  V30 5049 H 474.968 -1.47643 0.664308 0
M  V30 5050 H 476.96 -3.81371 -1.35418 0
M  V30 5051 H 475.53 -2.75789 -1.47171 0
M  V30 5052 H 474.75 -3.86971 0.751468 0
M  V30 5053 H 476.038 -5.06268 0.506965 0
M  V30 5054 H 475.436 -4.9855 -2.67328 0
M  V30 5055 H 473.993 -5.91593 -2.73608 0
M  V30 5056 N 477.426 -0.562348 -1.47226 0
M  V30 5057 C 478.356 0.170627 -2.32876 0
M  V30 5058 C 479.337 0.903748 -1.44106 0
M  V30 5059 O 480.522 0.883206 -1.72954 0
M  V30 5060 C 477.652 1.19786 -3.25989 0
M  V30 5061 C 476.606 0.580875 -4.2404 0
M  V30 5062 C 475.932 1.71311 -5.06514 0
M  V30 5063 C 477.232 -0.468714 -5.20193 0
M  V30 5064 H 478.926 -0.544441 -2.94408 0
M  V30 5065 H 476.472 -0.263271 -1.41573 0
M  V30 5066 H 478.425 1.71884 -3.84752 0
M  V30 5067 H 477.149 1.94294 -2.62521 0
M  V30 5068 H 475.808 0.0811538 -3.6651 0
M  V30 5069 H 475.456 2.44736 -4.39447 0
M  V30 5070 H 475.156 1.30604 -5.72902 0
M  V30 5071 H 476.68 2.23725 -5.68137 0
M  V30 5072 H 478.094 -0.0336028 -5.7329 0
M  V30 5073 H 476.491 -0.794957 -5.94811 0
M  V30 5074 H 477.561 -1.36269 -4.65359 0
M  V30 5075 N 478.904 1.54736 -0.299062 0
M  V30 5076 C 480.32 1.59507 0.0543849 0
M  V30 5077 C 480.52 1.31606 1.52585 0
M  V30 5078 O 479.576 1.08853 2.27832 0
M  V30 5079 C 480.889 2.98751 -0.34181 0
M  V30 5080 C 482.437 3.1165 -0.290414 0
M  V30 5081 C 482.912 4.53199 -0.661402 0
M  V30 5082 N 484.403 4.59114 -0.613863 0
M  V30 5083 C 485.138 5.66709 -0.873417 0
M  V30 5084 N 484.634 6.82349 -1.19884 0
M  V30 5085 N 486.427 5.56369 -0.800608 0
M  V30 5086 H 478.578 1.71133 -1.25806 0
M  V30 5087 H 480.841 0.799186 -0.509908 0
M  V30 5088 H 480.547 3.24085 -1.36608 0
M  V30 5089 H 480.421 3.75961 0.305508 0
M  V30 5090 H 482.808 2.86066 0.724605 0
M  V30 5091 H 482.889 2.366 -0.972327 0
M  V30 5092 H 482.533 4.79513 -1.67422 0
M  V30 5093 H 482.463 5.26583 0.0425612 0
M  V30 5094 H 484.954 3.76053 -0.3732 0
M  V30 5095 H 485.267 7.60326 -1.38291 0
M  V30 5096 H 483.612 6.83906 -1.23685 0
M  V30 5097 H 486.803 4.64904 -0.546045 0
M  V30 5098 H 486.976 6.40139 -1.00626 0
M  V30 5099 N 480.382 0.0267497 1.57577 0
M  V30 5100 C 481.61 -0.662661 1.96001 0
M  V30 5101 C 482.025 -1.65799 0.903117 0
M  V30 5102 O 481.382 -1.82135 -0.115317 0
M  V30 5103 C 481.433 -1.37112 3.34488 0
M  V30 5104 O 481.154 -0.415683 4.36123 0
M  V30 5105 C 482.655 -2.15257 3.8753 0
M  V30 5106 H 479.875 -0.18287 0.6456 0
M  V30 5107 H 482.419 0.0858116 2.0432 0
M  V30 5108 H 480.574 -2.07101 3.27395 0
M  V30 5109 H 480.988 -0.918496 5.16395 0
M  V30 5110 H 482.462 -2.60285 4.86781 0
M  V30 5111 H 482.939 -2.99063 3.21649 0
M  V30 5112 H 483.545 -1.50231 3.97883 0
M  V30 5113 N 481.861 -1.55662 -0.24637 0
M  V30 5114 C 483.277 -1.48098 -0.594907 0
M  V30 5115 C 483.477 -0.717044 -1.8831 0
M  V30 5116 O 482.533 -0.246618 -2.51293 0
M  V30 5117 C 483.846 -2.92507 -0.697146 0
M  V30 5118 C 485.394 -3.02881 -0.789436 0
M  V30 5119 C 485.869 -4.48598 -0.923232 0
M  V30 5120 N 487.36 -4.52538 -0.988088 0
M  V30 5121 C 488.095 -5.62536 -1.11089 0
M  V30 5122 N 487.591 -6.82342 -1.19919 0
M  V30 5123 N 489.384 -5.50334 -1.14408 0
M  V30 5124 H 481.535 -2.0377 0.599278 0
M  V30 5125 H 483.798 -0.925145 0.20691 0
M  V30 5126 H 483.504 -3.51242 0.179396 0
M  V30 5127 H 483.378 -3.43024 -1.5689 0
M  V30 5128 H 485.765 -2.44226 -1.65643 0
M  V30 5129 H 485.846 -2.55574 0.107482 0
M  V30 5130 H 485.49 -5.07864 -0.0607927 0
M  V30 5131 H 485.42 -4.93587 -1.8352 0
M  V30 5132 H 487.911 -3.66248 -0.931167 0
M  V30 5133 H 488.224 -7.61924 -1.29197 0
M  V30 5134 H 486.569 -6.85102 -1.16876 0
M  V30 5135 H 489.76 -4.5567 -1.07158 0
M  V30 5136 H 489.933 -6.36096 -1.23634 0
M  V30 5137 N 483.339 0.512053 -1.4905 0
M  V30 5138 C 484.587 1.26436 -1.57665 0
M  V30 5139 C 484.908 1.93255 -0.260293 0
M  V30 5140 O 484.178 1.82206 0.719564 0
M  V30 5141 H 482.758 0.469658 -0.580888 0
M  V30 5142 H 485.42 0.594398 -1.85615 0
M  V30 5143 H 484.516 2.03417 -2.36702 0
M  V30 5144 N 484.817 1.37938 0.762283 0
M  V30 5145 C 485.78 1.34279 1.85747 0
M  V30 5146 C 486.78 0.244969 1.58923 0
M  V30 5147 O 487.97 0.501365 1.66829 0
M  V30 5148 C 485.102 1.08833 3.23061 0
M  V30 5149 H 486.295 2.31705 1.90401 0
M  V30 5150 H 483.848 1.23105 0.963057 0
M  V30 5151 H 484.583 0.119767 3.24079 0
M  V30 5152 H 484.368 1.88306 3.43923 0
M  V30 5153 H 485.858 1.08946 4.03138 0
M  V30 5154 N 486.295 -0.989507 1.22664 0
M  V30 5155 C 487.542 -1.72953 1.05325 0
M  V30 5156 C 487.87 -1.90104 -0.411168 0
M  V30 5157 O 487.125 -1.44386 -1.32103 0
M  V30 5158 C 487.424 -3.13649 1.71345 0
M  V30 5159 C 487.09 -3.16403 3.21248 0
M  V30 5160 C 485.752 -3.16862 3.62149 0
M  V30 5161 C 488.104 -3.12428 4.17179 0
M  V30 5162 C 485.432 -3.11051 4.97458 0
M  V30 5163 C 487.784 -3.08159 5.52468 0
M  V30 5164 C 486.448 -3.06935 5.92746 0
M  V30 5165 H 485.718 -0.632881 0.385412 0
M  V30 5166 H 488.365 -1.15863 1.52473 0
M  V30 5167 H 486.67 -3.74069 1.16532 0
M  V30 5168 H 488.367 -3.69658 1.55416 0
M  V30 5169 H 484.957 -3.16798 2.88682 0
M  V30 5170 H 489.141 -3.11221 3.86595 0
M  V30 5171 H 484.397 -3.0845 5.27891 0
M  V30 5172 H 488.571 -3.04039 6.26525 0
M  V30 5173 H 486.198 -3.02186 6.97558 0
M  V30 5174 N 487.773 -1.03688 -1.18687 0
M  V30 5175 C 488.683 -0.634908 -2.25845 0
M  V30 5176 C 489.699 0.337065 -1.70704 0
M  V30 5177 O 490.875 0.192943 -2.00474 0
M  V30 5178 C 487.94 -0.000180054 -3.467 0
M  V30 5179 C 487.001 -1.02067 -4.1699 0
M  V30 5180 C 486.234 -0.41614 -5.32075 0
M  V30 5181 O 486.457 0.778712 -5.65059 0
M  V30 5182 O 485.391 -1.14296 -5.90948 0
M  V30 5183 H 489.217 -1.52757 -2.62486 0
M  V30 5184 H 486.802 -0.807533 -1.25695 0
M  V30 5185 H 488.684 0.353342 -4.19916 0
M  V30 5186 H 487.359 0.866367 -3.11891 0
M  V30 5187 H 486.266 -1.42592 -3.45859 0
M  V30 5188 H 487.599 -1.85786 -4.5579 0
M  V30 5189 N 489.251 1.34841 -0.815825 0
M  V30 5190 C 490.479 2.0273 -0.413294 0
M  V30 5191 C 490.894 1.61459 0.978599 0
M  V30 5192 O 490.251 0.816584 1.63212 0
M  V30 5193 C 490.302 3.58058 -0.497676 0
M  V30 5194 O 490.023 3.97832 -1.8347 0
M  V30 5195 C 491.524 4.4321 -0.0891339 0
M  V30 5196 H 488.744 0.649956 -0.166728 0
M  V30 5197 H 491.288 1.72267 -1.10201 0
M  V30 5198 H 489.443 3.87136 0.142886 0
M  V30 5199 H 489.857 4.92501 -1.80396 0
M  V30 5200 H 491.331 5.5164 -0.199274 0
M  V30 5201 H 491.808 4.28432 0.966571 0
M  V30 5202 H 492.414 4.19446 -0.703214 0
M  V30 5203 N 490.729 0.570148 1.46925 0
M  V30 5204 C 492.145 0.23087 1.57921 0
M  V30 5205 C 492.345 -1.26676 1.56702 0
M  V30 5206 O 491.401 -2.04774 1.47729 0
M  V30 5207 C 492.714 0.868973 2.8787 0
M  V30 5208 C 494.262 0.841397 3.01479 0
M  V30 5209 C 494.737 1.45881 4.34146 0
M  V30 5210 N 496.228 1.42258 4.40814 0
M  V30 5211 C 496.963 1.8698 5.42057 0
M  V30 5212 N 496.459 2.39618 6.50042 0
M  V30 5213 N 498.252 1.77972 5.33181 0
M  V30 5214 H 490.403 1.54301 1.45962 0
M  V30 5215 H 492.666 0.644224 0.69547 0
M  V30 5216 H 492.372 1.922 2.94537 0
M  V30 5217 H 492.246 0.369682 3.75384 0
M  V30 5218 H 494.633 -0.202973 2.94401 0
M  V30 5219 H 494.714 1.37858 2.15474 0
M  V30 5220 H 494.358 2.50231 4.4198 0
M  V30 5221 H 494.288 0.896958 5.18905 0
M  V30 5222 H 496.779 1.03768 3.63374 0
M  V30 5223 H 497.092 2.71633 7.23488 0
M  V30 5224 H 495.437 2.43636 6.50897 0
M  V30 5225 H 498.628 1.36617 4.4772 0
M  V30 5226 H 498.801 2.13143 6.11943 0
M  V30 5227 N 492.207 -1.54576 0.307264 0
M  V30 5228 C 493.454 -2.00263 -0.300167 0
M  V30 5229 C 493.782 -1.19561 -1.53413 0
M  V30 5230 O 493.037 -0.261487 -1.93945 0
M  V30 5231 C 493.336 -3.50572 -0.695253 0
M  V30 5232 C 493.002 -4.48771 0.437679 0
M  V30 5233 C 491.664 -4.7534 0.748681 0
M  V30 5234 C 494.016 -5.0721 1.19949 0
M  V30 5235 C 491.344 -5.5761 1.8245 0
M  V30 5236 C 493.696 -5.90651 2.26527 0
M  V30 5237 C 492.36 -6.15528 2.58227 0
M  V30 5238 H 491.63 -0.732814 -0.109839 0
M  V30 5239 H 494.277 -1.86664 0.427661 0
M  V30 5240 H 492.582 -3.61814 -1.50326 0
M  V30 5241 H 494.279 -3.83352 -1.17653 0
M  V30 5242 H 490.869 -4.282 0.185187 0
M  V30 5243 H 495.053 -4.86679 0.972474 0
M  V30 5244 H 490.309 -5.75121 2.07476 0
M  V30 5245 H 494.483 -6.34957 2.86011 0
M  V30 5246 H 492.11 -6.79066 3.4172 0
M  V30 5247 N 493.685 -0.035106 -1.57561 0
M  V30 5248 C 494.931 0.64318 -1.92331 0
M  V30 5249 C 495.264 1.71434 -0.912368 0
M  V30 5250 O 494.539 1.94395 0.0640303 0
M  V30 5251 C 494.822 1.25411 -3.37556 0
M  V30 5252 C 494.675 0.192109 -4.4939 0
M  V30 5253 C 495.994 2.17041 -3.82859 0
M  V30 5254 H 493.113 0.232341 -0.699419 0
M  V30 5255 H 495.755 -0.0935889 -1.89769 0
M  V30 5256 H 493.905 1.88205 -3.39869 0
M  V30 5257 H 495.577 -0.438849 -4.59208 0
M  V30 5258 H 493.82 -0.481725 -4.31117 0
M  V30 5259 H 494.491 0.659292 -5.48049 0
M  V30 5260 H 496.967 1.64228 -3.8232 0
M  V30 5261 H 495.843 2.56738 -4.85157 0
M  V30 5262 H 496.104 3.06401 -3.18702 0
M  V30 5263 N 495.163 1.55791 0.238111 0
M  V30 5264 C 496.388 1.8244 0.986432 0
M  V30 5265 C 496.813 0.613314 1.7782 0
M  V30 5266 O 496.171 -0.437767 1.75935 0
M  V30 5267 C 496.219 3.06917 1.893 0
M  V30 5268 O 495.323 2.84449 2.98601 0
M  V30 5269 H 494.664 0.601975 0.280218 0
M  V30 5270 H 497.194 2.02987 0.256437 0
M  V30 5271 H 497.204 3.36583 2.30598 0
M  V30 5272 H 495.879 3.947 1.31091 0
M  V30 5273 H 494.456 2.65972 2.61368 0
M  V30 5274 N 496.642 -0.504142 1.49319 0
M  V30 5275 C 497.574 -1.62265 1.61872 0
M  V30 5276 C 498.587 -1.54881 0.501573 0
M  V30 5277 O 499.776 -1.6087 0.773497 0
M  V30 5278 C 496.876 -3.01042 1.55651 0
M  V30 5279 C 496.049 -3.33642 2.82845 0
M  V30 5280 C 495.108 -4.51816 2.69719 0
M  V30 5281 O 494.134 -4.53755 3.4365 0
M  V30 5282 N 495.336 -5.51543 1.81055 0
M  V30 5283 H 498.101 -1.51924 2.58339 0
M  V30 5284 H 495.662 -0.691954 1.46368 0
M  V30 5285 H 497.654 -3.78013 1.44528 0
M  V30 5286 H 496.224 -3.05323 0.670546 0
M  V30 5287 H 495.444 -2.45598 3.08343 0
M  V30 5288 H 496.732 -3.5222 3.67177 0
M  V30 5289 H 496.13 -5.52774 1.20241 0
M  V30 5290 H 494.687 -6.27629 1.75856 0
M  V30 5291 N 498.12 -1.38341 -0.754957 0
M  V30 5292 C 499.366 -1.34672 -1.51628 0
M  V30 5293 C 499.699 0.0636036 -1.94096 0
M  V30 5294 O 498.974 1.0245 -1.6533 0
M  V30 5295 C 499.257 -2.30116 -2.76981 0
M  V30 5296 C 499.11 -3.80003 -2.4066 0
M  V30 5297 C 500.429 -2.23715 -3.78998 0
M  V30 5298 H 497.548 -0.490517 -0.550056 0
M  V30 5299 H 500.19 -1.69178 -0.864807 0
M  V30 5300 H 498.34 -2.00821 -3.3257 0
M  V30 5301 H 500.012 -4.19966 -1.90856 0
M  V30 5302 H 498.255 -3.97751 -1.73137 0
M  V30 5303 H 498.926 -4.42244 -3.30339 0
M  V30 5304 H 501.402 -2.49574 -3.32945 0
M  V30 5305 H 500.278 -2.9261 -4.64403 0
M  V30 5306 H 500.539 -1.23554 -4.24484 0
M  V30 5307 N 499.598 0.982988 -1.23187 0
M  V30 5308 C 500.508 2.10907 -1.02739 0
M  V30 5309 C 501.524 1.73979 0.0273188 0
M  V30 5310 O 502.7 2.00702 -0.16757 0
M  V30 5311 C 499.765 3.41142 -0.618304 0
M  V30 5312 C 498.826 3.92112 -1.74777 0
M  V30 5313 C 498.059 5.16131 -1.3581 0
M  V30 5314 O 498.282 5.6989 -0.241201 0
M  V30 5315 O 497.216 5.61103 -2.17824 0
M  V30 5316 H 501.042 2.31046 -1.97108 0
M  V30 5317 H 498.627 1.09284 -1.01869 0
M  V30 5318 H 500.509 4.19488 -0.400982 0
M  V30 5319 H 499.184 3.2234 0.296421 0
M  V30 5320 H 498.091 3.14895 -2.0197 0
M  V30 5321 H 499.424 4.15364 -2.64071 0
M  V30 5322 N 501.076 1.04316 1.18135 0
M  V30 5323 C 502.301 0.768047 1.92655 0
M  V30 5324 C 502.726 -0.66904 1.758 0
M  V30 5325 O 502.084 -1.46372 1.06981 0
M  V30 5326 C 502.132 1.14239 3.42026 0
M  V30 5327 O 501.236 0.269333 4.1152 0
M  V30 5328 H 500.577 0.282436 0.600937 0
M  V30 5329 H 503.107 1.39367 1.49793 0
M  V30 5330 H 503.117 1.10538 3.92741 0
M  V30 5331 H 501.792 2.18928 3.53615 0
M  V30 5332 H 500.369 0.366175 3.71098 0
M  V30 5333 N 502.554 -1.34406 0.822964 0
M  V30 5334 C 503.831 -1.92733 0.333641 0
M  V30 5335 C 504.211 -1.75107 -1.17901 0
M  V30 5336 O 503.559 -1.12983 -1.98613 0
M  V30 5337 C 503.769 -3.40557 0.763023 0
M  V30 5338 C 505.117 -4.17709 0.761879 0
M  V30 5339 O 506.141 -3.49141 0.705606 0
M  V30 5340 O 505 -5.40082 0.835109 0
M  V30 5341 H 502.094 -0.821964 0.0911249 0
M  V30 5342 H 504.64 -1.4338 0.907757 0
M  V30 5343 H 503.412 -3.47187 1.8049 0
M  V30 5344 H 503.035 -3.97259 0.164605 0
M  V30 5345 N 504.032 -0.577932 -1.46621 0
M  V30 5346 C 505.26 -0.0671642 -2.06791 0
M  V30 5347 C 505.675 1.23571 -1.42743 0
M  V30 5348 O 505.032 1.74602 -0.531062 0
M  V30 5349 C 505.083 0.110357 -3.61332 0
M  V30 5350 O 504.804 -1.14095 -4.22982 0
M  V30 5351 C 506.305 0.656025 -4.38419 0
M  V30 5352 H 503.525 -0.0552732 -0.66872 0
M  V30 5353 H 506.069 -0.797242 -1.8832 0
M  V30 5354 H 504.224 0.790637 -3.79246 0
M  V30 5355 H 504.638 -0.951742 -5.15793 0
M  V30 5356 H 506.112 0.729438 -5.47159 0
M  V30 5357 H 506.589 1.67195 -4.06131 0
M  V30 5358 H 507.195 0.0107692 -4.25299 0
M  V30 5359 N 505.51 1.54411 -0.315457 0
M  V30 5360 C 506.758 2.00023 0.288971 0
M  V30 5361 C 507.079 1.20529 1.5329 0
M  V30 5362 O 506.349 0.304986 1.93511 0
M  V30 5363 H 504.929 0.738891 0.109766 0
M  V30 5364 H 507.591 1.90094 -0.430129 0
M  V30 5365 H 506.687 3.07198 0.550999 0
M  V30 5366 N 506.988 0.0434614 1.5754 0
M  V30 5367 C 508.265 -0.671479 1.83713 0
M  V30 5368 C 508.645 -1.89495 0.930315 0
M  V30 5369 O 507.993 -2.28498 -0.0105639 0
M  V30 5370 C 508.203 -1.0361 3.33266 0
M  V30 5371 C 509.551 -1.42167 4.00092 0
M  V30 5372 O 510.575 -1.12866 3.37846 0
M  V30 5373 O 509.434 -1.96817 5.09829 0
M  V30 5374 H 506.528 -0.330726 0.75799 0
M  V30 5375 H 509.074 0.0722373 1.69546 0
M  V30 5376 H 507.846 -0.165938 3.90948 0
M  V30 5377 H 507.469 -1.83751 3.52592 0
M  V30 5378 N 508.466 -1.55915 -0.229846 0
M  V30 5379 C 509.882 -1.48721 -0.579166 0
M  V30 5380 C 510.082 -0.736976 -1.87539 0
M  V30 5381 O 509.138 -0.273258 -2.51017 0
M  V30 5382 C 510.451 -2.9323 -0.666082 0
M  V30 5383 C 511.999 -3.03701 -0.757267 0
M  V30 5384 C 512.474 -4.49552 -0.8756 0
M  V30 5385 N 513.965 -4.53561 -0.940035 0
M  V30 5386 C 514.7 -5.63683 -1.05116 0
M  V30 5387 N 514.196 -6.83576 -1.12675 0
M  V30 5388 N 515.989 -5.51516 -1.08565 0
M  V30 5389 H 508.14 -2.03123 0.620857 0
M  V30 5390 H 510.403 -0.922898 0.21671 0
M  V30 5391 H 510.109 -3.51032 0.21664 0
M  V30 5392 H 509.983 -3.44668 -1.53243 0
M  V30 5393 H 512.37 -2.45969 -1.63043 0
M  V30 5394 H 512.451 -2.55446 0.134583 0
M  V30 5395 H 512.095 -5.079 -0.00692351 0
M  V30 5396 H 512.025 -4.95506 -1.78274 0
M  V30 5397 H 514.516 -3.67215 -0.892269 0
M  V30 5398 H 514.829 -7.63251 -1.21109 0
M  V30 5399 H 513.174 -6.86303 -1.09603 0
M  V30 5400 H 516.365 -4.5678 -1.02319 0
M  V30 5401 H 516.538 -6.37372 -1.1688 0
M  V30 5402 N 509.944 0.496216 -1.49584 0
M  V30 5403 C 510.891 1.59722 -1.66606 0
M  V30 5404 C 511.861 1.58158 -0.507477 0
M  V30 5405 O 513.046 1.76072 -0.735076 0
M  V30 5406 C 510.186 2.97844 -1.74308 0
M  V30 5407 C 509.299 3.09388 -3.01502 0
M  V30 5408 C 508.434 4.38271 -3.00153 0
M  V30 5409 C 507.473 4.43466 -4.21906 0
M  V30 5410 N 506.61 5.63784 -4.1844 0
M  V30 5411 H 511.45 1.44515 -2.60613 0
M  V30 5412 H 508.987 0.703048 -1.29212 0
M  V30 5413 H 510.945 3.77907 -1.76754 0
M  V30 5414 H 509.575 3.11743 -0.837619 0
M  V30 5415 H 508.627 2.22357 -3.08645 0
M  V30 5416 H 509.939 3.09085 -3.91494 0
M  V30 5417 H 509.093 5.2666 -3.01188 0
M  V30 5418 H 507.832 4.41146 -2.07947 0
M  V30 5419 H 506.837 3.53478 -4.21109 0
M  V30 5420 H 508.062 4.42303 -5.1531 0
M  V30 5421 H 506.008 5.67491 -3.29074 0
M  V30 5422 H 505.925 5.65118 -5.02173 0
M  V30 5423 H 507.193 6.54367 -4.23585 0
M  V30 5424 N 511.423 1.38739 0.74761 0
M  V30 5425 C 512.355 1.32341 1.87132 0
M  V30 5426 C 513.368 0.234502 1.61102 0
M  V30 5427 O 514.557 0.492516 1.71571 0
M  V30 5428 C 511.657 1.02915 3.22896 0
M  V30 5429 C 510.83 2.22834 3.76383 0
M  V30 5430 C 509.889 1.90059 4.90677 0
M  V30 5431 O 508.915 2.62615 5.04997 0
M  V30 5432 N 510.117 0.859141 5.74107 0
M  V30 5433 H 512.882 2.29175 1.93129 0
M  V30 5434 H 510.443 1.32678 0.927805 0
M  V30 5435 H 512.435 0.79031 3.96908 0
M  V30 5436 H 511.005 0.148572 3.12247 0
M  V30 5437 H 510.225 2.62747 2.93867 0
M  V30 5438 H 511.513 3.02851 4.08851 0
M  V30 5439 H 510.911 0.257564 5.65113 0
M  V30 5440 H 509.468 0.680189 6.48241 0
M  V30 5441 N 512.901 -0.976442 1.23707 0
M  V30 5442 C 514.15 -1.71254 1.06559 0
M  V30 5443 C 514.463 -1.91528 -0.397024 0
M  V30 5444 O 515.669 -2.62625 -0.688518 0
M  V30 5445 C 514.125 -3.08207 1.8584 0
M  V30 5446 C 513.733 -2.95806 3.36456 0
M  V30 5447 C 515.477 -3.85749 1.77194 0
M  V30 5448 C 513.384 -4.28015 4.08114 0
M  V30 5449 H 512.314 -0.642171 0.395136 0
M  V30 5450 H 514.965 -1.08877 1.4771 0
M  V30 5451 H 513.347 -3.71363 1.37498 0
M  V30 5452 H 514.521 -2.41716 3.92314 0
M  V30 5453 H 512.836 -2.31736 3.45959 0
M  V30 5454 H 515.433 -4.83633 2.28041 0
M  V30 5455 H 515.776 -4.09752 0.735477 0
M  V30 5456 H 516.309 -3.29303 2.23169 0
M  V30 5457 H 513.048 -4.09208 5.12083 0
M  V30 5458 H 512.568 -4.81955 3.57043 0
M  V30 5459 H 514.247 -4.96681 4.14629 0
M  V30 5460 N 514.379 -1.04941 -1.1758 0
M  V30 5461 C 515.609 -0.777166 -1.91425 0
M  V30 5462 C 516.017 0.670647 -1.76915 0
M  V30 5463 O 515.36 1.46965 -1.10213 0
M  V30 5464 C 515.422 -1.07495 -3.43052 0
M  V30 5465 C 515.086 -2.51844 -3.81345 0
M  V30 5466 C 516.083 -3.50047 -3.844 0
M  V30 5467 C 513.768 -2.86787 -4.12382 0
M  V30 5468 C 515.762 -4.81239 -4.17957 0
M  V30 5469 C 513.449 -4.18182 -4.45608 0
M  V30 5470 C 514.447 -5.15219 -4.48373 0
M  V30 5471 O 514.135 -6.44258 -4.80819 0
M  V30 5472 H 513.867 -0.282209 -0.614275 0
M  V30 5473 H 516.421 -1.40258 -1.50056 0
M  V30 5474 H 514.651 -0.392437 -3.84704 0
M  V30 5475 H 516.34 -0.78912 -3.98155 0
M  V30 5476 H 517.106 -3.24391 -3.60548 0
M  V30 5477 H 512.985 -2.11922 -4.09402 0
M  V30 5478 H 516.529 -5.56974 -4.2003 0
M  V30 5479 H 512.426 -4.43602 -4.68922 0
M  V30 5480 H 513.194 -6.49041 -4.98686 0
M  V30 5481 N 515.857 1.33968 -0.830081 0
M  V30 5482 C 516.805 2.31301 -0.245435 0
M  V30 5483 C 517.799 1.57734 0.617762 0
M  V30 5484 O 519.005 1.72674 0.508303 0
M  V30 5485 H 515.38 0.749552 -0.0606316 0
M  V30 5486 H 517.351 2.78129 -1.08105 0
M  V30 5487 C 516.1 3.42961 0.572084 0
M  V30 5488 H 515.423 3.99714 -0.0828118 0
M  V30 5489 H 516.863 4.13286 0.94715 0
M  V30 5490 C 515.322 2.88043 1.74737 0
M  V30 5491 O 515.852 2.83508 2.8458 0
M  V30 5492 N 514.058 2.44768 1.56642 0
M  V30 5493 H 513.605 2.48656 0.672901 0
M  V30 5494 H 513.563 2.08375 2.3543 0
M  V30 5495 N 517.335 0.585699 1.46312 0
M  V30 5496 C 518.584 0.0701192 2.01578 0
M  V30 5497 C 518.897 -1.29889 1.46247 0
M  V30 5498 O 520.103 -1.90598 1.93351 0
M  V30 5499 C 518.559 0.0747499 3.59822 0
M  V30 5500 C 518.167 1.44226 4.24149 0
M  V30 5501 C 519.911 -0.38673 4.22735 0
M  V30 5502 C 517.818 1.40446 5.74481 0
M  V30 5503 H 516.748 0.0224441 0.753666 0
M  V30 5504 H 519.399 0.737789 1.68015 0
M  V30 5505 H 517.781 -0.659144 3.90476 0
M  V30 5506 H 518.955 2.19612 4.05101 0
M  V30 5507 H 517.27 1.84401 3.73343 0
M  V30 5508 H 519.867 -0.433853 5.32937 0
M  V30 5509 H 520.21 -1.40489 3.91878 0
M  V30 5510 H 520.743 0.293195 3.96718 0
M  V30 5511 H 517.482 2.39952 6.10003 0
M  V30 5512 H 517.002 0.692845 5.95785 0
M  V30 5513 H 518.681 1.11865 6.37256 0
M  V30 5514 N 518.813 -1.54241 0.323641 0
M  V30 5515 C 519.743 -2.27289 -0.534993 0
M  V30 5516 C 520.724 -1.28087 -1.11927 0
M  V30 5517 O 521.909 -1.56899 -1.14439 0
M  V30 5518 C 519.039 -3.03075 -1.69596 0
M  V30 5519 C 517.993 -4.09614 -1.24098 0
M  V30 5520 C 517.319 -4.73242 -2.4889 0
M  V30 5521 C 518.619 -5.21087 -0.355789 0
M  V30 5522 H 520.313 -2.99308 0.0743257 0
M  V30 5523 H 517.859 -1.43952 0.0371874 0
M  V30 5524 H 519.812 -3.52907 -2.30293 0
M  V30 5525 H 518.536 -2.28673 -2.33187 0
M  V30 5526 H 517.195 -3.60666 -0.656945 0
M  V30 5527 H 516.843 -3.95455 -3.10845 0
M  V30 5528 H 516.543 -5.45209 -2.19138 0
M  V30 5529 H 518.067 -5.25848 -3.10348 0
M  V30 5530 H 519.481 -5.66675 -0.869042 0
M  V30 5531 H 517.878 -5.9991 -0.151045 0
M  V30 5532 H 518.948 -4.81005 0.613339 0
M  V30 5533 N 520.291 -0.0518155 -1.57515 0
M  V30 5534 C 521.516 0.634896 -1.97443 0
M  V30 5535 C 521.941 1.63546 -0.929207 0
M  V30 5536 O 521.299 1.80981 0.107484 0
M  V30 5537 C 521.347 1.29765 -3.36442 0
M  V30 5538 O 520.451 2.41333 -3.34413 0
M  V30 5539 H 519.792 0.164994 -0.643174 0
M  V30 5540 H 522.322 -0.120407 -2.04245 0
M  V30 5541 H 522.332 1.64918 -3.73184 0
M  V30 5542 H 521.007 0.564361 -4.12053 0
M  V30 5543 H 519.584 2.08122 -3.09418 0
M  V30 5544 N 521.769 1.56035 0.221574 0
M  V30 5545 C 522.997 1.8313 0.962864 0
M  V30 5546 C 523.412 0.630934 1.77946 0
M  V30 5547 O 522.769 -0.400519 1.78051 0
M  V30 5548 C 522.82 3.08742 1.88045 0
M  V30 5549 O 522.541 4.24147 1.09686 0
M  V30 5550 C 524.042 3.48824 2.73563 0
M  V30 5551 H 521.262 0.608775 0.282194 0
M  V30 5552 H 523.806 2.03124 0.23681 0
M  V30 5553 H 521.961 2.90723 2.56045 0
M  V30 5554 H 522.375 4.95505 1.71974 0
M  V30 5555 H 523.849 4.39752 3.3365 0
M  V30 5556 H 524.326 2.70575 3.45956 0
M  V30 5557 H 524.932 3.69282 2.10976 0
M  V30 5558 N 523.247 -0.488276 1.49845 0
M  V30 5559 C 524.177 -1.59675 1.70371 0
M  V30 5560 C 525.158 -1.60878 0.552473 0
M  V30 5561 O 526.343 -1.77417 0.78973 0
M  V30 5562 C 523.473 -2.98098 1.782 0
M  V30 5563 C 522.427 -3.11761 2.93239 0
M  V30 5564 C 521.753 -4.51661 2.86193 0
M  V30 5565 C 523.053 -2.90589 4.33999 0
M  V30 5566 H 524.747 -1.42752 2.63177 0
M  V30 5567 H 522.293 -0.685317 1.26647 0
M  V30 5568 H 524.246 -3.75555 1.91144 0
M  V30 5569 H 522.97 -3.16138 0.820018 0
M  V30 5570 H 521.629 -2.36732 2.79917 0
M  V30 5571 H 521.277 -4.66595 1.87877 0
M  V30 5572 H 520.977 -4.61742 3.63412 0
M  V30 5573 H 522.501 -5.31162 3.01163 0
M  V30 5574 H 523.915 -3.57807 4.47936 0
M  V30 5575 H 522.312 -3.1213 5.12538 0
M  V30 5576 H 523.382 -1.86595 4.4756 0
M  V30 5577 N 524.725 -1.39134 -0.740242 0
M  V30 5578 C 525.973 -1.35803 -1.49673 0
M  V30 5579 C 526.294 0.0470897 -1.94943 0
M  V30 5580 O 525.564 0.997347 -1.68611 0
M  V30 5581 H 524.144 -0.499736 -0.555224 0
M  V30 5582 H 526.806 -1.73947 -0.879107 0
M  V30 5583 H 525.902 -2.0174 -2.38133 0
M  V30 5584 N 526.204 0.969867 -1.24223 0
M  V30 5585 C 527.134 2.08191 -1.05729 0
M  V30 5586 C 528.115 1.70075 0.0290765 0
M  V30 5587 O 529.3 1.93712 -0.137583 0
M  V30 5588 C 526.43 3.40991 -0.658995 0
M  V30 5589 C 525.384 3.93054 -1.69389 0
M  V30 5590 C 524.71 5.22171 -1.15072 0
M  V30 5591 C 526.01 4.21137 -3.08935 0
M  V30 5592 H 527.704 2.23921 -1.98746 0
M  V30 5593 H 525.25 1.07602 -0.956967 0
M  V30 5594 H 527.203 4.18221 -0.51662 0
M  V30 5595 H 525.927 3.25155 0.30686 0
M  V30 5596 H 524.586 3.17977 -1.82444 0
M  V30 5597 H 524.234 5.02694 -0.175539 0
M  V30 5598 H 523.934 5.57973 -1.84229 0
M  V30 5599 H 525.458 6.02013 -1.02042 0
M  V30 5600 H 526.872 4.8908 -2.99121 0
M  V30 5601 H 525.269 4.68163 -3.75425 0
M  V30 5602 H 526.339 3.27996 -3.57137 0
M  V30 5603 N 527.682 1.05563 1.17022 0
M  V30 5604 C 529.098 0.777684 1.39371 0
M  V30 5605 C 529.298 -0.626269 1.91521 0
M  V30 5606 O 528.354 -1.38806 2.10924 0
M  V30 5607 C 529.667 1.83642 2.3811 0
M  V30 5608 C 531.215 1.85907 2.51809 0
M  V30 5609 C 531.69 2.90813 3.53824 0
M  V30 5610 N 533.181 2.898 3.61345 0
M  V30 5611 C 533.916 3.6762 4.40049 0
M  V30 5612 N 533.412 4.55237 5.22237 0
M  V30 5613 N 535.205 3.56044 4.34959 0
M  V30 5614 H 527.356 1.9614 0.815047 0
M  V30 5615 H 529.619 0.849527 0.420722 0
M  V30 5616 H 529.325 2.84425 2.06871 0
M  V30 5617 H 529.199 1.6812 3.37662 0
M  V30 5618 H 531.586 0.857865 2.82356 0
M  V30 5619 H 531.667 2.05506 1.52318 0
M  V30 5620 H 531.311 3.91122 3.24015 0
M  V30 5621 H 531.241 2.68465 4.53028 0
M  V30 5622 H 533.732 2.26274 3.02669 0
M  V30 5623 H 534.045 5.11291 5.79484 0
M  V30 5624 H 532.39 4.59296 5.21605 0
M  V30 5625 H 535.581 2.86986 3.69806 0
M  V30 5626 H 535.754 4.16938 4.96051 0
M  V30 5627 N 529.16 -1.33526 0.837174 0
M  V30 5628 C 530.571 -1.80182 0.489017 0
M  V30 5629 C 530.922 -1.69285 -0.991826 0
M  V30 5630 O 530.047 -1.24113 -1.77271 0
M  V30 5631 C 530.642 -3.27149 0.880866 0
M  V30 5632 C 529.201 -3.71828 0.584872 0
M  V30 5633 C 528.348 -2.54974 1.09011 0
M  V30 5634 H 531.299 -1.21071 1.02603 0
M  V30 5635 H 531.32 -3.80024 0.190239 0
M  V30 5636 H 530.832 -3.35048 1.95869 0
M  V30 5637 H 528.933 -3.69457 -0.48295 0
M  V30 5638 H 529.046 -4.65366 1.13892 0
M  V30 5639 H 527.41 -2.4952 0.511047 0
M  V30 5640 H 528.193 -2.65637 2.17467 0
M  V30 5641 N 530.638 -0.59345 -1.46 0
M  V30 5642 C 531.863 -0.0872365 -2.07216 0
M  V30 5643 C 532.288 1.2131 -1.43755 0
M  V30 5644 O 531.646 1.73528 -0.525152 0
M  V30 5645 C 531.694 0.0538197 -3.6056 0
M  V30 5646 O 530.798 1.10765 -3.97247 0
M  V30 5647 H 530.139 -0.0676598 -0.660544 0
M  V30 5648 H 532.669 -0.819445 -1.87473 0
M  V30 5649 H 532.679 0.256567 -4.07193 0
M  V30 5650 H 531.354 -0.895739 -4.0614 0
M  V30 5651 H 529.931 0.882501 -3.62307 0
M  V30 5652 N 532.116 1.54067 -0.331816 0
M  V30 5653 C 533.344 2.05131 0.269996 0
M  V30 5654 C 533.759 1.20749 1.45138 0
M  V30 5655 O 533.116 0.240069 1.80914 0
M  V30 5656 C 533.167 3.54728 0.696456 0
M  V30 5657 O 532.888 4.35906 -0.43794 0
M  V30 5658 C 534.389 4.21916 1.36021 0
M  V30 5659 H 531.609 0.668807 0.0542042 0
M  V30 5660 H 534.153 1.98777 -0.4804 0
M  V30 5661 H 532.308 3.61342 1.39681 0
M  V30 5662 H 532.722 5.24404 -0.100334 0
M  V30 5663 H 534.196 5.28015 1.60947 0
M  V30 5664 H 534.673 3.73538 2.31011 0
M  V30 5665 H 535.279 4.19463 0.702212 0
M  V30 5666 N 533.594 0.0601682 1.57485 0
M  V30 5667 C 534.822 -0.620937 1.97363 0
M  V30 5668 C 535.237 -1.63846 0.938082 0
M  V30 5669 O 534.594 -1.82339 -0.0766578 0
M  V30 5670 C 534.645 -1.29987 3.37321 0
M  V30 5671 O 534.366 -0.323081 4.36907 0
M  V30 5672 C 535.867 -2.06989 3.92008 0
M  V30 5673 H 533.087 -0.169135 0.649334 0
M  V30 5674 H 535.631 0.129132 2.04092 0
M  V30 5675 H 533.786 -2.0011 3.31715 0
M  V30 5676 H 534.2 -0.808754 5.18227 0
M  V30 5677 H 535.674 -2.49901 4.92192 0
M  V30 5678 H 536.151 -2.92173 3.2792 0
M  V30 5679 H 536.757 -1.41757 4.0098 0
M  V30 5680 N 535.072 -1.5615 -0.213296 0
M  V30 5681 C 536.349 -1.70349 -0.961281 0
M  V30 5682 C 536.729 -0.609791 -2.02101 0
M  V30 5683 O 536.077 0.381987 -2.25285 0
M  V30 5684 C 536.287 -3.11982 -1.56424 0
M  V30 5685 C 537.635 -3.71649 -2.05334 0
M  V30 5686 O 538.659 -3.14995 -1.66302 0
M  V30 5687 O 537.518 -4.71038 -2.77102 0
M  V30 5688 H 534.612 -0.694121 -0.449582 0
M  V30 5689 H 537.158 -1.68464 -0.204426 0
M  V30 5690 H 535.93 -3.83046 -0.799457 0
M  V30 5691 H 535.553 -3.18019 -2.38641 0
M  V30 5692 N 536.55 0.480323 -1.50102 0
M  V30 5693 C 537.79 1.24301 -1.62261 0
M  V30 5694 C 538.154 1.89452 -0.311758 0
M  V30 5695 O 539.355 2.67022 -0.308696 0
M  V30 5696 C 537.626 2.26588 -2.76392 0
M  V30 5697 S 539.185 3.11919 -3.08629 0
M  V30 5698 H 536.003 0.42215 -0.57211 0
M  V30 5699 H 538.605 0.541591 -1.87848 0
M  V30 5700 H 537.309 1.7729 -3.70131 0
M  V30 5701 H 536.84 3.01371 -2.52862 0
M  V30 5702 H 538.855 4.27598 -2.51742 0
M  V30 5703 N 538.028 1.39524 0.732853 0
M  V30 5704 C 539.305 1.27373 1.48444 0
M  V30 5705 C 539.685 -0.115725 2.10783 0
M  V30 5706 O 539.033 -1.12713 1.98766 0
M  V30 5707 C 539.243 2.39966 2.53412 0
M  V30 5708 C 540.591 2.79384 3.19733 0
M  V30 5709 O 541.615 2.39431 2.63725 0
M  V30 5710 O 540.474 3.48353 4.21085 0
M  V30 5711 H 537.568 0.499272 0.659285 0
M  V30 5712 H 540.114 1.51403 0.766496 0
M  V30 5713 H 538.886 3.32845 2.05742 0
M  V30 5714 H 538.509 2.17612 3.32762 0
M  V30 5715 N 539.506 -0.963266 1.24736 0
M  V30 5716 C 540.755 -1.70115 1.08369 0
M  V30 5717 C 541.068 -1.91939 -0.376688 0
M  V30 5718 O 542.274 -2.6334 -0.660624 0
M  V30 5719 C 540.73 -3.06218 1.89099 0
M  V30 5720 C 540.338 -2.92221 3.39574 0
M  V30 5721 C 542.082 -3.83848 1.81275 0
M  V30 5722 C 539.989 -4.23662 4.12631 0
M  V30 5723 H 538.919 -0.637944 0.401924 0
M  V30 5724 H 541.57 -1.07304 1.48856 0
M  V30 5725 H 539.952 -3.69884 1.41429 0
M  V30 5726 H 541.126 -2.37541 3.94856 0
M  V30 5727 H 539.441 -2.28054 3.48397 0
M  V30 5728 H 542.038 -4.81188 2.33158 0
M  V30 5729 H 542.381 -4.08949 0.778895 0
M  V30 5730 H 542.914 -3.26918 2.26649 0
M  V30 5731 H 539.653 -4.03753 5.16395 0
M  V30 5732 H 539.173 -4.78141 3.62135 0
M  V30 5733 H 540.852 -4.92256 4.19873 0
M  V30 5734 N 540.985 -1.06182 -1.16461 0
M  V30 5735 C 542.231 -0.779015 -1.87241 0
M  V30 5736 C 542.564 0.692715 -1.81425 0
M  V30 5737 O 541.839 1.5074 -1.22913 0
M  V30 5738 C 542.122 -1.2728 -3.36856 0
M  V30 5739 C 541.975 -2.80821 -3.51368 0
M  V30 5740 C 543.294 -0.879799 -4.31216 0
M  V30 5741 H 540.413 -0.284464 -0.679889 0
M  V30 5742 H 543.055 -1.31755 -1.36896 0
M  V30 5743 H 541.205 -0.814673 -3.79862 0
M  V30 5744 H 542.877 -3.34833 -3.17308 0
M  V30 5745 H 541.12 -3.19606 -2.93316 0
M  V30 5746 H 541.791 -3.10435 -4.56436 0
M  V30 5747 H 544.267 -1.27436 -3.96105 0
M  V30 5748 H 543.143 -1.25278 -5.34412 0
M  V30 5749 H 543.404 0.215372 -4.41575 0
M  V30 5750 N 542.463 1.3308 -0.844243 0
M  V30 5751 C 543.879 1.50447 -0.532729 0
M  V30 5752 C 544.079 1.78292 0.938837 0
M  V30 5753 O 543.135 1.84635 1.72239 0
M  V30 5754 C 544.448 2.65555 -1.41072 0
M  V30 5755 C 545.996 2.7944 -1.41005 0
M  V30 5756 C 546.471 3.97616 -2.27301 0
M  V30 5757 N 547.962 4.0486 -2.2504 0
M  V30 5758 C 548.697 4.95508 -2.88547 0
M  V30 5759 N 548.193 5.91236 -3.61126 0
M  V30 5760 N 549.986 4.88548 -2.77989 0
M  V30 5761 H 542.137 1.13269 -1.79677 0
M  V30 5762 H 544.4 0.55734 -0.766861 0
M  V30 5763 H 544.106 2.51675 -2.45668 0
M  V30 5764 H 543.98 3.61089 -1.09061 0
M  V30 5765 H 546.367 2.92749 -0.371784 0
M  V30 5766 H 546.448 1.8465 -1.77026 0
M  V30 5767 H 546.092 3.85066 -3.3119 0
M  V30 5768 H 546.022 4.91661 -1.88619 0
M  V30 5769 H 548.513 3.36353 -1.72264 0
M  V30 5770 H 548.826 6.57079 -4.06776 0
M  V30 5771 H 547.171 5.91295 -3.65234 0
M  V30 5772 H 550.362 4.12729 -2.20846 0
M  V30 5773 H 550.535 5.58994 -3.27765 0
M  V30 5774 N 543.941 0.601185 1.45683 0
M  V30 5775 C 545.357 0.264315 1.57396 0
M  V30 5776 C 545.557 -1.23324 1.59353 0
M  V30 5777 O 544.613 -2.01594 1.52039 0
M  V30 5778 C 545.926 0.929839 2.85962 0
M  V30 5779 C 547.474 0.905156 2.99626 0
M  V30 5780 C 547.949 1.55057 4.30954 0
M  V30 5781 N 549.44 1.51576 4.37697 0
M  V30 5782 C 550.175 1.98436 5.37969 0
M  V30 5783 N 549.671 2.53352 6.44813 0
M  V30 5784 N 551.464 1.89242 5.29286 0
M  V30 5785 H 543.615 1.57363 1.42656 0
M  V30 5786 H 545.878 0.658831 0.681649 0
M  V30 5787 H 545.584 1.98404 2.90394 0
M  V30 5788 H 545.458 0.449224 3.74515 0
M  V30 5789 H 547.845 -0.14048 2.94765 0
M  V30 5790 H 547.926 1.42397 2.12501 0
M  V30 5791 H 547.57 2.5955 4.36573 0
M  V30 5792 H 547.5 1.00682 5.16886 0
M  V30 5793 H 549.991 1.11452 3.61091 0
M  V30 5794 H 550.304 2.86918 7.17564 0
M  V30 5795 H 548.649 2.57388 6.45582 0
M  V30 5796 H 551.84 1.46083 4.44722 0
M  V30 5797 H 552.013 2.26075 6.07284 0
M  V30 5798 N 545.419 -1.53889 0.339982 0
M  V30 5799 C 546.382 -2.23547 -0.50592 0
M  V30 5800 C 547.382 -1.23445 -1.03044 0
M  V30 5801 O 548.572 -1.47909 -0.920253 0
M  V30 5802 C 545.704 -2.95234 -1.7044 0
M  V30 5803 H 546.897 -2.99722 0.103247 0
M  V30 5804 H 544.45 -1.56033 0.0912804 0
M  V30 5805 H 545.185 -2.23236 -2.35236 0
M  V30 5806 H 544.97 -3.68654 -1.33553 0
M  V30 5807 H 546.46 -3.48258 -2.30447 0
M  V30 5808 N 546.897 -0.0685191 -1.57451 0
M  V30 5809 C 548.137 0.605038 -1.9524 0
M  V30 5810 C 548.501 1.66974 -0.947816 0
M  V30 5811 O 549.702 2.39862 -1.21325 0
M  V30 5812 C 547.973 1.16999 -3.37707 0
M  V30 5813 S 549.532 1.85913 -3.97469 0
M  V30 5814 H 546.35 0.198203 -0.682815 0
M  V30 5815 H 548.952 -0.141594 -1.94987 0
M  V30 5816 H 547.656 0.383205 -4.08607 0
M  V30 5817 H 547.187 1.95305 -3.41496 0
M  V30 5818 H 549.202 3.14128 -3.84107 0
M  V30 5819 N 548.375 1.56261 0.205012 0
M  V30 5820 C 549.285 1.96944 1.27476 0
M  V30 5821 C 550.301 0.875636 1.50362 0
M  V30 5822 O 551.477 1.18058 1.6317 0
M  V30 5823 C 548.542 2.29219 2.60115 0
M  V30 5824 C 547.603 3.52255 2.45387 0
M  V30 5825 C 546.836 3.8298 3.71701 0
M  V30 5826 O 547.059 3.15138 4.75441 0
M  V30 5827 O 545.993 4.76435 3.67823 0
M  V30 5828 H 549.819 2.88144 0.959527 0
M  V30 5829 H 547.404 1.43686 0.409217 0
M  V30 5830 H 549.286 2.51098 3.3842 0
M  V30 5831 H 547.961 1.4119 2.91285 0
M  V30 5832 H 546.868 3.35635 1.65227 0
M  V30 5833 H 548.201 4.40719 2.19152 0
M  V30 5834 N 549.853 -0.472356 1.50355 0
M  V30 5835 C 551.078 -1.25251 1.65309 0
M  V30 5836 C 551.503 -1.85081 0.335643 0
M  V30 5837 O 550.861 -1.67227 -0.700335 0
M  V30 5838 C 550.909 -2.3379 2.74544 0
M  V30 5839 O 550.013 -3.38401 2.35709 0
M  V30 5840 H 549.354 -0.368539 0.552336 0
M  V30 5841 H 551.884 -0.562271 1.96722 0
M  V30 5842 H 551.894 -2.79121 2.97583 0
M  V30 5843 H 550.569 -1.89614 3.70161 0
M  V30 5844 H 549.146 -2.9879 2.23112 0
M  V30 5845 N 551.331 -1.39911 -0.725443 0
M  V30 5846 C 552.577 -1.37858 -1.48738 0
M  V30 5847 C 552.91 0.0224187 -1.94187 0
M  V30 5848 O 552.185 0.989204 -1.67466 0
M  V30 5849 C 552.468 -2.3594 -2.72038 0
M  V30 5850 C 552.321 -3.85023 -2.32546 0
M  V30 5851 C 553.64 -2.31704 -3.74167 0
M  V30 5852 H 550.759 -0.502074 -0.539528 0
M  V30 5853 H 553.401 -1.70974 -0.828728 0
M  V30 5854 H 551.551 -2.0783 -3.28236 0
M  V30 5855 H 553.223 -4.2392 -1.81905 0
M  V30 5856 H 551.466 -4.01334 -1.64661 0
M  V30 5857 H 552.137 -4.49152 -3.20884 0
M  V30 5858 H 554.613 -2.5658 -3.27576 0
M  V30 5859 H 553.489 -3.02395 -4.58092 0
M  V30 5860 H 553.75 -1.3253 -4.21768 0
M  V30 5861 N 552.809 0.956637 -1.25245 0
M  V30 5862 C 554.034 1.74104 -1.12706 0
M  V30 5863 C 554.459 1.85436 0.315429 0
M  V30 5864 O 553.817 1.33334 1.22848 0
M  V30 5865 C 553.865 3.1338 -1.78396 0
M  V30 5866 O 552.969 3.98485 -1.06224 0
M  V30 5867 H 552.31 0.53476 -0.393609 0
M  V30 5868 H 554.84 1.19924 -1.65769 0
M  V30 5869 H 554.85 3.6385 -1.846 0
M  V30 5870 H 553.525 3.04448 -2.83345 0
M  V30 5871 H 552.102 3.56952 -1.07886 0
M  V30 5872 N 554.287 1.06798 1.15896 0
M  V30 5873 C 555.515 0.808694 1.90441 0
M  V30 5874 C 555.93 -0.637506 1.77711 0
M  V30 5875 O 555.287 -1.43684 1.12522 0
M  V30 5876 C 555.338 1.20068 3.40978 0
M  V30 5877 O 555.059 2.59013 3.53333 0
M  V30 5878 C 556.56 0.96987 4.3256 0
M  V30 5879 H 553.78 0.292809 0.603742 0
M  V30 5880 H 556.324 1.42296 1.46874 0
M  V30 5881 H 554.479 0.630842 3.82229 0
M  V30 5882 H 554.893 2.7485 4.46719 0
M  V30 5883 H 556.367 1.29371 5.36626 0
M  V30 5884 H 556.844 -0.0941209 4.39099 0
M  V30 5885 H 557.45 1.52433 3.97044 0
M  V30 5886 N 555.766 -1.3263 0.851289 0
M  V30 5887 C 557.182 -1.50162 0.5407 0
M  V30 5888 C 557.382 -1.78788 -0.929369 0
M  V30 5889 O 556.438 -1.85545 -1.71258 0
M  V30 5890 C 557.751 -2.64803 1.42478 0
M  V30 5891 C 559.299 -2.78688 1.42485 0
M  V30 5892 C 559.774 -3.96405 2.29407 0
M  V30 5893 N 561.265 -4.0366 2.27184 0
M  V30 5894 C 562 -4.93971 2.9117 0
M  V30 5895 N 561.496 -5.89313 3.64256 0
M  V30 5896 N 563.289 -4.87066 2.80576 0
M  V30 5897 H 555.44 -1.12315 1.80275 0
M  V30 5898 H 557.703 -0.553266 0.769806 0
M  V30 5899 H 557.409 -2.50368 2.46999 0
M  V30 5900 H 557.283 -3.60506 1.10974 0
M  V30 5901 H 559.67 -2.92547 0.387304 0
M  V30 5902 H 559.751 -1.83708 1.78002 0
M  V30 5903 H 559.395 -3.83304 3.33228 0
M  V30 5904 H 559.325 -4.90654 1.91224 0
M  V30 5905 H 561.816 -3.35435 1.74045 0
M  V30 5906 H 562.129 -6.54913 4.10255 0
M  V30 5907 H 560.474 -5.8935 3.68364 0
M  V30 5908 H 563.665 -4.11552 2.23031 0
M  V30 5909 H 563.838 -5.57248 3.30725 0
M  V30 5910 N 557.244 -0.608902 -1.45362 0
M  V30 5911 C 558.207 0.0992563 -2.28985 0
M  V30 5912 C 559.207 0.793841 -1.39838 0
M  V30 5913 O 560.397 0.641804 -1.61946 0
M  V30 5914 C 557.529 1.15073 -3.20891 0
M  V30 5915 H 558.722 -0.635964 -2.93079 0
M  V30 5916 H 556.275 -0.368007 -1.51906 0
M  V30 5917 H 557.01 1.91667 -2.616 0
M  V30 5918 H 556.795 0.656867 -3.86559 0
M  V30 5919 H 558.285 1.64665 -3.83765 0
M  V30 5920 N 558.722 1.53707 -0.348139 0
M  V30 5921 C 559.685 2.23812 0.494058 0
M  V30 5922 C 560.685 1.23989 1.02388 0
M  V30 5923 O 561.875 1.48395 0.912396 0
M  V30 5924 C 559.007 2.96133 1.68872 0
M  V30 5925 H 560.2 2.99663 -0.119141 0
M  V30 5926 H 557.753 1.55983 -0.0995539 0
M  V30 5927 H 558.488 2.24481 2.34049 0
M  V30 5928 H 558.273 3.69357 1.31596 0
M  V30 5929 H 559.763 3.49475 2.28597 0
M  V30 5930 N 560.2 0.0768682 1.57412 0
M  V30 5931 C 561.15 -0.898795 2.09537 0
M  V30 5932 C 562.134 -1.25556 1.0062 0
M  V30 5933 O 563.326 -1.23369 1.26921 0
M  V30 5934 C 560.455 -2.16453 2.66464 0
M  V30 5935 C 559.541 -1.83401 3.82393 0
M  V30 5936 N 559.932 -1.20823 4.91157 0
M  V30 5937 C 558.23 -2.13121 3.91785 0
M  V30 5938 C 558.931 -1.05976 5.71965 0
M  V30 5939 N 557.907 -1.57113 5.204 0
M  V30 5940 H 561.709 -0.410718 2.91016 0
M  V30 5941 H 559.223 -0.126878 1.61904 0
M  V30 5942 H 561.22 -2.87274 3.02125 0
M  V30 5943 H 559.88 -2.65844 1.86433 0
M  V30 5944 H 560.891 -0.877249 5.10416 0
M  V30 5945 H 557.568 -2.64854 3.22736 0
M  V30 5946 H 558.958 -0.571809 6.69462 0
M  V30 5947 N 561.678 -1.56367 -0.196722 0
M  V30 5948 C 562.611 -1.89475 -1.2718 0
M  V30 5949 C 563.589 -0.754667 -1.44026 0
M  V30 5950 O 564.773 -1.00551 -1.59442 0
M  V30 5951 C 561.9 -2.12352 -2.63864 0
M  V30 5952 C 560.946 -3.35053 -2.63897 0
M  V30 5953 S 561.779 -4.90228 -2.15492 0
M  V30 5954 C 562.935 -5.16171 -3.54004 0
M  V30 5955 H 563.168 -2.80365 -0.989075 0
M  V30 5956 H 560.701 -1.49125 -0.40014 0
M  V30 5957 H 562.659 -2.26214 -3.42545 0
M  V30 5958 H 561.32 -1.22214 -2.89349 0
M  V30 5959 H 560.513 -3.48182 -3.64397 0
M  V30 5960 H 560.115 -3.20176 -1.93296 0
M  V30 5961 H 562.407 -5.06591 -4.49857 0
M  V30 5962 H 563.35 -6.17938 -3.45771 0
M  V30 5963 H 563.758 -4.43814 -3.48841 0
M  V30 5964 N 563.156 0.464375 -1.50603 0
M  V30 5965 C 564.396 1.22573 -1.6357 0
M  V30 5966 C 564.76 1.89111 -0.331834 0
M  V30 5967 O 565.961 2.66679 -0.336999 0
M  V30 5968 C 564.232 2.23643 -2.7878 0
M  V30 5969 S 565.791 3.08628 -3.1192 0
M  V30 5970 H 562.609 0.416058 -0.576556 0
M  V30 5971 H 565.211 0.521637 -1.88412 0
M  V30 5972 H 563.915 1.73354 -3.7199 0
M  V30 5973 H 563.446 2.98672 -2.56044 0
M  V30 5974 H 565.461 4.24904 -2.56264 0
M  V30 5975 N 564.634 1.40294 0.718013 0
M  V30 5976 C 565.859 1.41941 1.5122 0
M  V30 5977 C 566.284 0.0202371 1.88089 0
M  V30 5978 O 565.642 -0.971078 1.53101 0
M  V30 5979 C 565.69 2.3141 2.76554 0
M  V30 5980 O 564.794 1.75567 3.73162 0
M  V30 5981 H 564.135 0.482644 0.456016 0
M  V30 5982 H 566.665 1.84494 0.884478 0
M  V30 5983 H 566.675 2.46513 3.25108 0
M  V30 5984 H 565.35 3.33085 2.49053 0
M  V30 5985 H 563.927 1.69798 3.31999 0
M  V30 5986 N 566.112 -0.949982 1.2575 0
M  V30 5987 C 567.075 -2.02894 1.06615 0
M  V30 5988 C 568.075 -1.60791 0.0173905 0
M  V30 5989 O 569.265 -1.72249 0.260003 0
M  V30 5990 C 566.397 -3.35219 0.619751 0
M  V30 5991 H 567.59 -2.21302 2.02399 0
M  V30 5992 H 565.143 -1.12772 1.08223 0
M  V30 5993 H 565.878 -3.22508 -0.340486 0
M  V30 5994 H 565.663 -3.67129 1.37692 0
M  V30 5995 H 567.153 -4.14505 0.507443 0
M  V30 5996 N 567.59 -1.07411 -1.15328 0
M  V30 5997 C 568.838 -0.796073 -1.85761 0
M  V30 5998 C 569.159 0.679864 -1.82764 0
M  V30 5999 O 568.429 1.49242 -1.269 0
M  V30 6000 H 567.009 -0.291495 -0.687779 0
M  V30 6001 H 569.671 -1.35799 -1.39802 0
M  V30 6002 H 568.767 -1.13114 -2.90881 0
M  V30 6003 N 569.068 1.32177 -0.85831 0
M  V30 6004 C 569.998 2.31282 -0.321041 0
M  V30 6005 C 570.979 1.59841 0.581786 0
M  V30 6006 O 572.164 1.87619 0.501262 0
M  V30 6007 C 569.294 3.4385 0.48832 0
M  V30 6008 C 568.248 4.26799 -0.320391 0
M  V30 6009 C 567.574 5.31164 0.613934 0
M  V30 6010 C 568.874 4.98829 -1.54813 0
M  V30 6011 H 570.568 2.76469 -1.14915 0
M  V30 6012 H 568.114 1.32916 -0.554028 0
M  V30 6013 H 570.067 4.12224 0.874626 0
M  V30 6014 H 568.791 2.97401 1.34983 0
M  V30 6015 H 567.45 3.60077 -0.688497 0
M  V30 6016 H 567.098 4.80967 1.47239 0
M  V30 6017 H 566.798 5.8755 0.0768097 0
M  V30 6018 H 568.322 6.024 0.997336 0
M  V30 6019 H 569.736 5.59864 -1.23392 0
M  V30 6020 H 568.133 5.64957 -2.02346 0
M  V30 6021 H 569.203 4.26483 -2.30739 0
M  V30 6022 N 570.547 0.616602 1.45037 0
M  V30 6023 C 571.51 -0.0871112 2.29034 0
M  V30 6024 C 572.51 -0.786414 1.40258 0
M  V30 6025 O 573.7 -0.633207 1.62284 0
M  V30 6026 C 570.832 -1.13369 3.21497 0
M  V30 6027 H 572.025 0.651497 2.92738 0
M  V30 6028 H 569.578 0.376058 1.51709 0
M  V30 6029 H 570.313 -1.90277 2.62612 0
M  V30 6030 H 570.098 -0.636358 3.86902 0
M  V30 6031 H 571.588 -1.62627 3.84633 0
M  V30 6032 N 572.025 -1.5352 0.356285 0
M  V30 6033 C 573.273 -2.00719 -0.235837 0
M  V30 6034 C 573.594 -1.24551 -1.5004 0
M  V30 6035 O 572.864 -0.356185 -1.92635 0
M  V30 6036 H 571.444 -0.741542 -0.0901366 0
M  V30 6037 H 574.106 -1.88887 0.480378 0
M  V30 6038 H 573.202 -3.08551 -0.469357 0
M  V30 6039 N 573.503 -0.0852151 -1.57369 0
M  V30 6040 C 574.749 0.581666 -1.94279 0
M  V30 6041 C 575.082 1.68444 -0.966446 0
M  V30 6042 O 574.357 1.945 0.00215277 0
M  V30 6043 C 574.64 1.14609 -3.41375 0
M  V30 6044 C 574.493 0.0490414 -4.49773 0
M  V30 6045 C 575.812 2.04751 -3.8957 0
M  V30 6046 H 572.931 0.209972 -0.706456 0
M  V30 6047 H 575.573 -0.153915 -1.89376 0
M  V30 6048 H 573.723 1.77297 -3.45685 0
M  V30 6049 H 575.395 -0.584721 -4.57579 0
M  V30 6050 H 573.638 -0.618638 -4.29366 0
M  V30 6051 H 574.309 0.484601 -5.49869 0
M  V30 6052 H 576.785 1.51981 -3.87351 0
M  V30 6053 H 575.661 2.41173 -4.93079 0
M  V30 6054 H 575.922 2.96107 -3.28288 0
M  V30 6055 N 574.981 1.5647 0.188427 0
M  V30 6056 C 576.23 1.80207 0.905995 0
M  V30 6057 C 576.543 0.659579 1.84144 0
M  V30 6058 O 577.749 0.781431 2.60011 0
M  V30 6059 C 576.205 3.19255 1.66145 0
M  V30 6060 C 575.813 4.41324 0.770504 0
M  V30 6061 C 577.557 3.52298 2.36826 0
M  V30 6062 C 575.464 5.71394 1.52521 0
M  V30 6063 H 574.394 0.671953 0.342045 0
M  V30 6064 H 577.045 1.82808 0.159164 0
M  V30 6065 H 575.427 3.10922 2.45242 0
M  V30 6066 H 576.601 4.60797 0.0177261 0
M  V30 6067 H 574.916 4.16035 0.174199 0
M  V30 6068 H 577.513 4.46715 2.93854 0
M  V30 6069 H 577.856 2.76359 3.11338 0
M  V30 6070 H 578.389 3.62108 1.6469 0
M  V30 6071 H 575.128 6.50316 0.82275 0
M  V30 6072 H 574.648 5.55928 2.25175 0
M  V30 6073 H 576.327 6.12747 2.07725 0
M  V30 6074 N 576.459 -0.456382 1.50847 0
M  V30 6075 C 577.407 -1.57318 1.71329 0
M  V30 6076 C 578.401 -1.59187 0.579287 0
M  V30 6077 O 579.607 -1.6316 0.76018 0
M  V30 6078 H 575.982 -0.5223 0.541024 0
M  V30 6079 H 577.953 -1.3721 2.64983 0
M  V30 6080 C 576.702 -2.95142 1.83811 0
M  V30 6081 H 576.025 -2.94428 2.70467 0
M  V30 6082 H 577.465 -3.72702 2.02161 0
M  V30 6083 C 575.924 -3.31636 0.593224 0
M  V30 6084 O 576.454 -4.00852 -0.260898 0
M  V30 6085 N 574.66 -2.87205 0.442902 0
M  V30 6086 H 574.207 -2.31051 1.13901 0
M  V30 6087 H 574.165 -3.11986 -0.38884 0
M  V30 6088 N 577.937 -1.40673 -0.710563 0
M  V30 6089 C 579.353 -1.22813 -1.01928 0
M  V30 6090 C 579.553 -0.10687 -2.01216 0
M  V30 6091 O 578.609 0.533614 -2.46797 0
M  V30 6092 C 579.922 -2.57178 -1.5582 0
M  V30 6093 C 581.47 -2.64233 -1.67779 0
M  V30 6094 C 581.945 -3.98879 -2.25076 0
M  V30 6095 N 583.436 -4.00647 -2.32456 0
M  V30 6096 C 584.171 -5.01621 -2.77784 0
M  V30 6097 N 583.667 -6.12989 -3.22826 0
M  V30 6098 N 585.46 -4.88988 -2.77213 0
M  V30 6099 H 577.611 -2.12335 -0.05253 0
M  V30 6100 H 579.874 -0.9441 -0.085898 0
M  V30 6101 H 579.58 -3.39903 -0.903249 0
M  V30 6102 H 579.454 -2.78618 -2.54267 0
M  V30 6103 H 581.841 -1.81876 -2.3239 0
M  V30 6104 H 581.922 -2.46619 -0.679178 0
M  V30 6105 H 581.566 -4.81678 -1.61086 0
M  V30 6106 H 581.496 -4.13826 -3.25661 0
M  V30 6107 H 583.987 -3.20231 -2.0065 0
M  V30 6108 H 584.3 -6.85921 -3.55995 0
M  V30 6109 H 582.645 -6.16547 -3.20773 0
M  V30 6110 H 585.836 -4.01075 -2.41363 0
M  V30 6111 H 586.009 -5.67822 -3.12221 0
M  V30 6112 N 579.415 0.9433 -1.26252 0
M  V30 6113 C 580.348 2.04162 -1.01946 0
M  V30 6114 C 581.326 1.62507 0.0550808 0
M  V30 6115 O 582.51 1.883 -0.0869025 0
M  V30 6116 C 579.637 3.34313 -0.54335 0
M  V30 6117 C 578.683 3.94939 -1.61013 0
M  V30 6118 S 579.516 4.29484 -3.19849 0
M  V30 6119 C 580.672 5.62738 -2.74001 0
M  V30 6120 H 580.905 2.24466 -1.94942 0
M  V30 6121 H 578.438 1.08441 -1.09909 0
M  V30 6122 H 580.396 4.09576 -0.275315 0
M  V30 6123 H 579.057 3.11957 0.36629 0
M  V30 6124 H 578.25 4.88812 -1.22795 0
M  V30 6125 H 577.852 3.26202 -1.82943 0
M  V30 6126 H 580.144 6.41356 -2.18333 0
M  V30 6127 H 581.087 6.05839 -3.66558 0
M  V30 6128 H 581.495 5.22514 -2.13634 0
M  V30 6129 N 580.893 1.08022 1.14757 0
M  V30 6130 C 582.309 0.807072 1.3769 0
M  V30 6131 C 582.509 -0.585504 1.92806 0
M  V30 6132 O 581.565 -1.34301 2.13821 0
M  V30 6133 C 582.878 1.88651 2.34161 0
M  V30 6134 C 584.426 1.91206 2.47809 0
M  V30 6135 C 584.901 2.98253 3.47576 0
M  V30 6136 N 586.392 2.974 3.55117 0
M  V30 6137 C 587.127 3.76872 4.32152 0
M  V30 6138 N 586.623 4.66212 5.12463 0
M  V30 6139 N 588.416 3.6519 4.27309 0
M  V30 6140 H 580.567 1.97824 0.77326 0
M  V30 6141 H 582.83 0.85826 0.402608 0
M  V30 6142 H 582.536 2.88749 2.00791 0
M  V30 6143 H 582.41 1.75244 3.3402 0
M  V30 6144 H 584.797 0.917564 2.80472 0
M  V30 6145 H 584.878 2.08691 1.47925 0
M  V30 6146 H 584.522 3.97907 3.15646 0
M  V30 6147 H 584.452 2.78014 4.47231 0
M  V30 6148 H 586.943 2.32643 2.97801 0
M  V30 6149 H 587.256 5.23468 5.68508 0
M  V30 6150 H 585.601 4.70257 5.11745 0
M  V30 6151 H 588.792 2.94765 3.63636 0
M  V30 6152 H 588.965 4.27366 4.87095 0
M  V30 6153 N 582.371 -1.3172 0.865308 0
M  V30 6154 C 583.281 -2.32394 0.320935 0
M  V30 6155 C 584.297 -1.64511 -0.566746 0
M  V30 6156 O 585.473 -1.95969 -0.464575 0
M  V30 6157 C 582.538 -3.43462 -0.472701 0
M  V30 6158 C 581.599 -4.27015 0.442385 0
M  V30 6159 C 580.832 -5.32779 -0.313469 0
M  V30 6160 O 581.055 -5.49158 -1.54214 0
M  V30 6161 O 579.989 -6.01015 0.326257 0
M  V30 6162 H 583.815 -2.80868 1.15528 0
M  V30 6163 H 581.4 -1.35535 0.628545 0
M  V30 6164 H 583.282 -4.11172 -0.922781 0
M  V30 6165 H 581.957 -2.97159 -1.28367 0
M  V30 6166 H 580.864 -3.62075 0.940866 0
M  V30 6167 H 582.197 -4.76871 1.21882 0
M  V30 6168 N 583.85 -0.624285 -1.44708 0
M  V30 6169 C 585.075 -0.131171 -2.06985 0
M  V30 6170 C 585.5 1.18234 -1.46295 0
M  V30 6171 O 584.858 1.72375 -0.561842 0
M  V30 6172 C 584.906 -0.0226724 -3.60593 0
M  V30 6173 O 584.01 1.02314 -3.99507 0
M  V30 6174 H 583.351 -0.0816556 -0.65896 0
M  V30 6175 H 585.88 -0.859027 -1.85693 0
M  V30 6176 H 585.891 0.170138 -4.07645 0
M  V30 6177 H 584.566 -0.981685 -4.04148 0
M  V30 6178 H 583.143 0.805452 -3.64097 0
M  V30 6179 N 585.328 1.53329 -0.364422 0
M  V30 6180 C 586.744 1.59594 -0.0133165 0
M  V30 6181 C 586.944 1.37959 1.46865 0
M  V30 6182 O 586 1.18418 2.2301 0
M  V30 6183 C 587.313 2.97032 -0.468213 0
M  V30 6184 C 588.861 3.10138 -0.422334 0
M  V30 6185 C 589.336 4.49986 -0.853024 0
M  V30 6186 N 590.827 4.56098 -0.808037 0
M  V30 6187 C 591.562 5.62495 -1.11299 0
M  V30 6188 N 591.058 6.7665 -1.48717 0
M  V30 6189 N 592.851 5.52473 -1.03586 0
M  V30 6190 H 585.002 1.65644 -1.32951 0
M  V30 6191 H 587.265 0.77684 -0.543345 0
M  V30 6192 H 586.971 3.18 -1.5023 0
M  V30 6193 H 586.845 3.76918 0.145775 0
M  V30 6194 H 589.232 2.88881 0.602622 0
M  V30 6195 H 589.313 2.32263 -1.0718 0
M  V30 6196 H 588.957 4.7198 -1.87609 0
M  V30 6197 H 588.887 5.26289 -0.180819 0
M  V30 6198 H 591.378 3.74131 -0.532361 0
M  V30 6199 H 591.691 7.53776 -1.70415 0
M  V30 6200 H 590.036 6.78044 -1.52581 0
M  V30 6201 H 593.227 4.6217 -0.742736 0
M  V30 6202 H 593.4 6.35295 -1.27686 0
M  V30 6203 N 586.806 0.0935595 1.57322 0
M  V30 6204 C 588.031 -0.582324 1.99057 0
M  V30 6205 C 588.456 -1.61025 0.972242 0
M  V30 6206 O 587.814 -1.81202 -0.0594622 0
M  V30 6207 C 587.862 -1.20799 3.39765 0
M  V30 6208 O 586.966 -2.32382 3.40694 0
M  V30 6209 H 586.307 -0.147884 0.647323 0
M  V30 6210 H 588.837 0.174516 2.03854 0
M  V30 6211 H 588.847 -1.54966 3.77425 0
M  V30 6212 H 587.522 -0.454914 4.13405 0
M  V30 6213 H 586.099 -1.99845 3.14827 0
M  V30 6214 N 588.284 -1.56567 -0.180126 0
M  V30 6215 C 589.194 -1.98947 -1.24327 0
M  V30 6216 C 590.21 -0.899446 -1.4895 0
M  V30 6217 O 591.386 -1.20639 -1.61271 0
M  V30 6218 C 588.451 -2.33328 -2.56435 0
M  V30 6219 C 587.512 -3.56114 -2.39752 0
M  V30 6220 C 586.745 -3.88845 -3.65561 0
M  V30 6221 O 586.968 -3.22662 -4.70368 0
M  V30 6222 O 585.902 -4.82226 -3.60197 0
M  V30 6223 H 589.728 -2.89634 -0.913565 0
M  V30 6224 H 587.313 -1.44319 -0.386306 0
M  V30 6225 H 589.195 -2.5645 -3.34382 0
M  V30 6226 H 587.87 -1.45806 -2.89002 0
M  V30 6227 H 586.777 -3.38221 -1.59866 0
M  V30 6228 H 588.11 -4.4415 -2.12113 0
M  V30 6229 N 589.762 0.448376 -1.51087 0
M  V30 6230 C 591.039 1.20926 -1.53741 0
M  V30 6231 C 591.419 2.09025 -0.295222 0
M  V30 6232 O 590.767 2.16851 0.720283 0
M  V30 6233 C 590.977 2.02067 -2.84552 0
M  V30 6234 C 592.325 2.59486 -3.36084 0
M  V30 6235 O 593.349 2.12289 -2.86028 0
M  V30 6236 O 592.208 3.45539 -4.23397 0
M  V30 6237 H 589.302 0.549951 -0.617643 0
M  V30 6238 H 591.848 0.458344 -1.63393 0
M  V30 6239 H 590.62 1.37291 -3.66425 0
M  V30 6240 H 590.243 2.84246 -2.78011 0
M  V30 6241 N 591.24 1.41047 0.703093 0
M  V30 6242 C 592.486 1.40207 1.46526 0
M  V30 6243 C 592.819 0.00847763 1.94198 0
M  V30 6244 O 592.094 -0.962437 1.69019 0
M  V30 6245 C 592.377 2.40238 2.6825 0
M  V30 6246 C 592.23 3.88674 2.26391 0
M  V30 6247 C 593.549 2.37627 3.70434 0
M  V30 6248 H 590.668 0.510594 0.531472 0
M  V30 6249 H 593.31 1.72271 0.801422 0
M  V30 6250 H 591.46 2.13026 3.24888 0
M  V30 6251 H 593.132 4.2676 1.75138 0
M  V30 6252 H 591.375 4.03903 1.58255 0
M  V30 6253 H 592.046 4.542 3.13698 0
M  V30 6254 H 594.522 2.61759 3.23452 0
M  V30 6255 H 593.398 3.09645 4.53223 0
M  V30 6256 H 593.659 1.39223 4.19606 0
M  V30 6257 N 592.718 -0.936591 1.26751 0
M  V30 6258 C 593.651 -2.03619 1.03027 0
M  V30 6259 C 594.629 -1.62534 -0.0464619 0
M  V30 6260 O 595.813 -1.88251 0.0968873 0
M  V30 6261 C 592.94 -3.3402 0.561072 0
M  V30 6262 C 591.986 -3.9408 1.63105 0
M  V30 6263 S 592.819 -4.27782 3.22122 0
M  V30 6264 C 593.975 -5.61277 2.76982 0
M  V30 6265 H 594.208 -2.23429 1.96129 0
M  V30 6266 H 591.741 -1.07857 1.10482 0
M  V30 6267 H 593.699 -4.09424 0.297031 0
M  V30 6268 H 592.36 -3.12147 -0.349741 0
M  V30 6269 H 591.553 -4.88154 1.25386 0
M  V30 6270 H 591.155 -3.25227 1.84671 0
M  V30 6271 H 593.447 -6.40189 2.21731 0
M  V30 6272 H 594.39 -6.03887 3.69766 0
M  V30 6273 H 594.798 -5.21374 2.16402 0
M  V30 6274 N 594.196 -1.08629 -1.14182 0
M  V30 6275 C 595.612 -0.814363 -1.3726 0
M  V30 6276 C 595.812 0.575271 -1.93114 0
M  V30 6277 O 594.868 1.33165 -2.1453 0
M  V30 6278 C 596.181 -1.8989 -2.33157 0
M  V30 6279 C 597.729 -1.92518 -2.46791 0
M  V30 6280 C 598.204 -3.00092 -3.45989 0
M  V30 6281 N 599.695 -2.99279 -3.53534 0
M  V30 6282 C 600.43 -3.79158 -4.30147 0
M  V30 6283 N 599.926 -4.68923 -5.09983 0
M  V30 6284 N 601.719 -3.67451 -4.25366 0
M  V30 6285 H 593.87 -1.98232 -0.762758 0
M  V30 6286 H 596.133 -0.860383 -0.398051 0
M  V30 6287 H 595.839 -2.89809 -1.99257 0
M  V30 6288 H 595.713 -1.77013 -3.33086 0
M  V30 6289 H 598.1 -0.932425 -2.79982 0
M  V30 6290 H 598.181 -2.09473 -1.46816 0
M  V30 6291 H 597.825 -3.99575 -3.13532 0
M  V30 6292 H 597.755 -2.80382 -4.45751 0
M  V30 6293 H 600.246 -2.3422 -2.96563 0
M  V30 6294 H 600.559 -5.26475 -5.65724 0
M  V30 6295 H 598.904 -4.72964 -5.09244 0
M  V30 6296 H 602.095 -2.9669 -3.62067 0
M  V30 6297 H 602.268 -4.29944 -4.84822 0
M  V30 6298 N 595.674 1.31259 -0.872281 0
M  V30 6299 C 596.923 1.95893 -0.480493 0
M  V30 6300 C 597.236 1.697 0.972688 0
M  V30 6301 O 598.442 2.28214 1.47073 0
M  V30 6302 C 596.898 3.50705 -0.808342 0
M  V30 6303 C 596.506 3.85735 -2.27844 0
M  V30 6304 C 598.25 4.21719 -0.485136 0
M  V30 6305 C 596.157 5.33668 -2.54858 0
M  V30 6306 H 595.087 0.733182 -0.175955 0
M  V30 6307 H 597.738 1.49396 -1.0655 0
M  V30 6308 H 596.12 3.95706 -0.152558 0
M  V30 6309 H 597.294 3.51686 -2.97748 0
M  V30 6310 H 595.609 3.27792 -2.56791 0
M  V30 6311 H 598.206 5.30559 -0.664166 0
M  V30 6312 H 598.549 4.12316 0.574592 0
M  V30 6313 H 599.082 3.82359 -1.09756 0
M  V30 6314 H 595.821 5.48109 -3.59523 0
M  V30 6315 H 595.341 5.69061 -1.8955 0
M  V30 6316 H 597.02 6.00958 -2.39706 0
M  V30 6317 N 597.152 0.631951 1.44375 0
M  V30 6318 C 598.38 0.143867 2.06399 0
M  V30 6319 C 598.795 -1.18188 1.47231 0
M  V30 6320 O 598.152 -1.72511 0.595498 0
M  V30 6321 C 598.203 0.0238253 3.61492 0
M  V30 6322 O 597.924 1.29715 4.18456 0
M  V30 6323 C 599.425 -0.492856 4.40552 0
M  V30 6324 H 596.645 0.0800542 0.666207 0
M  V30 6325 H 599.189 0.866586 1.85231 0
M  V30 6326 H 597.344 -0.649338 3.81919 0
M  V30 6327 H 597.758 1.14252 5.11905 0
M  V30 6328 H 599.232 -0.525861 5.49489 0
M  V30 6329 H 599.709 -1.52006 4.12057 0
M  V30 6330 H 600.315 0.147085 4.25046 0
M  V30 6331 N 598.631 -1.53133 0.372548 0
M  V30 6332 C 599.877 -2.01654 -0.215277 0
M  V30 6333 C 600.21 -1.25914 -1.47849 0
M  V30 6334 O 599.485 -0.3548 -1.91237 0
M  V30 6335 C 599.768 -3.56609 -0.500187 0
M  V30 6336 C 599.621 -4.43036 0.777145 0
M  V30 6337 C 600.94 -4.20528 -1.29786 0
M  V30 6338 H 598.059 -0.732991 -0.0767686 0
M  V30 6339 H 600.701 -1.83335 0.498814 0
M  V30 6340 H 598.851 -3.7235 -1.10852 0
M  V30 6341 H 600.523 -4.39079 1.41447 0
M  V30 6342 H 598.766 -4.10723 1.39604 0
M  V30 6343 H 599.437 -5.49424 0.532662 0
M  V30 6344 H 601.913 -4.08663 -0.783198 0
M  V30 6345 H 600.789 -5.28962 -1.46596 0
M  V30 6346 H 601.05 -3.77051 -2.30836 0
M  V30 6347 N 600.109 -0.101901 -1.5727 0
M  V30 6348 C 601.357 0.559091 -1.94213 0
M  V30 6349 C 601.678 1.68297 -0.984948 0
M  V30 6350 O 600.948 1.95863 -0.0381975 0
M  V30 6351 H 599.528 0.20952 -0.717015 0
M  V30 6352 H 602.19 -0.166831 -1.94185 0
M  V30 6353 H 601.286 0.96485 -2.96811 0
M  V30 6354 N 601.587 1.56661 0.17182 0
M  V30 6355 C 602.833 1.82235 0.889845 0
M  V30 6356 C 603.166 0.679673 1.81918 0
M  V30 6357 O 602.441 -0.318404 1.91876 0
M  V30 6358 C 602.724 3.18195 1.68595 0
M  V30 6359 C 602.577 4.42989 0.779773 0
M  V30 6360 C 603.896 3.5109 2.65375 0
M  V30 6361 H 601.015 0.66291 0.322056 0
M  V30 6362 H 603.657 1.89358 0.15608 0
M  V30 6363 H 601.807 3.12253 2.3115 0
M  V30 6364 H 603.479 4.60997 0.16714 0
M  V30 6365 H 601.722 4.33711 0.0877964 0
M  V30 6366 H 602.393 5.3467 1.3723 0
M  V30 6367 H 604.869 3.57482 2.12946 0
M  V30 6368 H 603.745 4.47298 3.18144 0
M  V30 6369 H 604.006 2.75768 3.45549 0
M  V30 6370 N 603.065 -0.440357 1.51323 0
M  V30 6371 C 604.342 -1.20109 1.5438 0
M  V30 6372 C 604.722 -2.08866 0.306303 0
M  V30 6373 O 604.07 -2.1723 -0.708773 0
M  V30 6374 C 604.28 -2.00555 2.8562 0
M  V30 6375 C 605.628 -2.577 3.37455 0
M  V30 6376 O 606.652 -2.10769 2.8715 0
M  V30 6377 O 605.511 -3.43289 4.25224 0
M  V30 6378 H 602.605 -0.546668 0.620551 0
M  V30 6379 H 605.151 -0.449672 1.63634 0
M  V30 6380 H 603.923 -1.35346 3.67147 0
M  V30 6381 H 603.546 -2.82768 2.79514 0
M  V30 6382 N 604.543 -1.41418 -0.695603 0
M  V30 6383 C 605.791 -1.40496 -1.45277 0
M  V30 6384 C 606.112 -0.0149538 -1.94994 0
M  V30 6385 O 605.382 0.9432 -1.71699 0
M  V30 6386 H 603.962 -0.517147 -0.539044 0
M  V30 6387 H 606.624 -1.76656 -0.823321 0
M  V30 6388 H 605.72 -2.09214 -2.31595 0
M  V30 6389 N 606.021 0.929856 -1.27246 0
M  V30 6390 C 607.246 1.71674 -1.16374 0
M  V30 6391 C 607.671 1.86064 0.276024 0
M  V30 6392 O 607.029 1.3591 1.19992 0
M  V30 6393 C 607.077 3.09526 -1.85003 0
M  V30 6394 O 606.181 3.96142 -1.14653 0
M  V30 6395 H 605.522 0.52629 -0.404863 0
M  V30 6396 H 608.052 1.16381 -1.68276 0
M  V30 6397 H 608.062 3.59852 -1.92276 0
M  V30 6398 H 606.737 2.98369 -2.89739 0
M  V30 6399 H 605.314 3.54584 -1.15433 0
M  V30 6400 N 607.499 1.09233 1.13605 0
M  V30 6401 C 608.745 0.828385 1.8511 0
M  V30 6402 C 609.078 -0.64437 1.83198 0
M  V30 6403 O 608.353 -1.47428 1.26867 0
M  V30 6404 C 608.636 1.36167 3.33363 0
M  V30 6405 C 608.489 2.90038 3.438 0
M  V30 6406 C 609.808 0.993819 4.28732 0
M  V30 6407 H 606.927 0.30239 0.672108 0
M  V30 6408 H 609.569 1.35339 1.33355 0
M  V30 6409 H 607.719 0.9151 3.77569 0
M  V30 6410 H 609.391 3.43128 3.08319 0
M  V30 6411 H 607.634 3.27271 2.84739 0
M  V30 6412 H 608.305 3.22428 4.48045 0
M  V30 6413 H 610.781 1.37893 3.92587 0
M  V30 6414 H 609.657 1.39403 5.30903 0
M  V30 6415 H 609.918 -0.0982206 4.41991 0
M  V30 6416 N 608.977 -1.30795 0.87923 0
M  V30 6417 C 610.207 -2.00237 0.50881 0
M  V30 6418 C 610.615 -1.66115 -0.905682 0
M  V30 6419 O 609.958 -0.89138 -1.60624 0
M  V30 6420 C 610.02 -3.54508 0.597003 0
M  V30 6421 C 609.684 -4.12131 1.97477 0
M  V30 6422 C 610.681 -4.28552 2.94346 0
M  V30 6423 C 608.366 -4.47644 2.2786 0
M  V30 6424 C 610.36 -4.79689 4.19735 0
M  V30 6425 C 608.047 -4.98481 3.53496 0
M  V30 6426 C 609.045 -5.14456 4.49248 0
M  V30 6427 O 608.733 -5.64199 5.72656 0
M  V30 6428 H 608.465 -0.647026 0.195788 0
M  V30 6429 H 611.019 -1.67785 1.1848 0
M  V30 6430 H 609.249 -3.86461 -0.135945 0
M  V30 6431 H 610.938 -4.05198 0.238684 0
M  V30 6432 H 611.704 -4.01424 2.72183 0
M  V30 6433 H 607.583 -4.34481 1.54102 0
M  V30 6434 H 611.127 -4.92073 4.9448 0
M  V30 6435 H 607.024 -5.25044 3.75498 0
M  V30 6436 H 607.792 -5.82551 5.74957 0
M  V30 6437 N 610.455 -0.639598 -1.44038 0
M  V30 6438 C 611.402 0.0602458 -2.30721 0
M  V30 6439 C 612.372 0.828352 -1.43971 0
M  V30 6440 O 613.557 0.807693 -1.72861 0
M  V30 6441 C 610.697 1.03008 -3.29368 0
M  V30 6442 C 609.81 0.259502 -4.3122 0
M  V30 6443 C 608.945 1.22191 -5.16955 0
M  V30 6444 C 607.984 0.440978 -6.10509 0
M  V30 6445 N 607.121 1.35428 -6.88915 0
M  V30 6446 H 611.961 -0.684867 -2.90023 0
M  V30 6447 H 609.498 -0.349509 -1.42888 0
M  V30 6448 H 611.456 1.60583 -3.85057 0
M  V30 6449 H 610.086 1.74222 -2.71747 0
M  V30 6450 H 609.138 -0.432317 -3.77935 0
M  V30 6451 H 610.45 -0.348347 -4.97582 0
M  V30 6452 H 609.604 1.86873 -5.77203 0
M  V30 6453 H 608.343 1.86367 -4.50687 0
M  V30 6454 H 607.348 -0.219279 -5.49363 0
M  V30 6455 H 608.573 -0.196192 -6.78817 0
M  V30 6456 H 606.519 1.9831 -6.25307 0
M  V30 6457 H 606.436 0.800657 -7.51748 0
M  V30 6458 H 607.704 1.98967 -7.53679 0
M  V30 6459 N 611.933 1.52934 -0.380664 0
M  V30 6460 C 612.863 2.29118 0.450268 0
M  V30 6461 C 613.844 1.32153 1.07096 0
M  V30 6462 O 615.029 1.61038 1.08537 0
M  V30 6463 C 612.159 3.09161 1.58231 0
M  V30 6464 C 611.113 4.13938 1.0881 0
M  V30 6465 C 610.439 4.82153 2.31155 0
M  V30 6466 C 611.739 5.22048 0.162146 0
M  V30 6467 H 613.433 2.98826 -0.185361 0
M  V30 6468 H 610.979 1.43715 -0.0905886 0
M  V30 6469 H 612.932 3.61211 2.17036 0
M  V30 6470 H 611.656 2.3717 2.2454 0
M  V30 6471 H 610.315 3.62855 0.522633 0
M  V30 6472 H 609.963 4.06719 2.95953 0
M  V30 6473 H 609.663 5.52966 1.98752 0
M  V30 6474 H 611.187 5.37004 2.90618 0
M  V30 6475 H 612.601 5.6951 0.658126 0
M  V30 6476 H 610.998 6.00057 -0.0717122 0
M  V30 6477 H 612.068 4.78398 -0.791438 0
M  V30 6478 N 613.412 0.11024 1.57214 0
M  V30 6479 C 614.362 -0.854147 2.11396 0
M  V30 6480 C 615.346 -1.23394 1.03261 0
M  V30 6481 O 616.538 -1.20649 1.2951 0
M  V30 6482 C 613.667 -2.10752 2.70995 0
M  V30 6483 C 612.753 -1.75249 3.86198 0
M  V30 6484 N 613.144 -1.10377 4.9361 0
M  V30 6485 C 611.442 -2.04763 3.96217 0
M  V30 6486 C 612.143 -0.938199 5.74084 0
M  V30 6487 N 611.119 -1.46039 5.23616 0
M  V30 6488 H 614.921 -0.348897 2.91822 0
M  V30 6489 H 612.435 -0.0925071 1.62136 0
M  V30 6490 H 614.432 -2.80801 3.0815 0
M  V30 6491 H 613.092 -2.61829 1.9203 0
M  V30 6492 H 614.103 -0.768785 5.12162 0
M  V30 6493 H 610.78 -2.57948 3.28282 0
M  V30 6494 H 612.17 -0.429678 6.70525 0
M  V30 6495 N 614.89 -1.56749 -0.16351 0
M  V30 6496 C 616.301 -1.72039 -0.725216 0
M  V30 6497 C 616.652 -0.72202 -1.82432 0
M  V30 6498 O 615.777 0.114942 -2.16095 0
M  V30 6499 C 616.372 -3.11932 -1.32227 0
M  V30 6500 C 614.931 -3.28879 -1.83072 0
M  V30 6501 C 614.078 -2.67984 -0.712716 0
M  V30 6502 H 617.029 -1.58579 0.0619772 0
M  V30 6503 H 617.05 -3.11015 -2.19202 0
M  V30 6504 H 616.562 -3.84572 -0.522103 0
M  V30 6505 H 614.663 -2.61209 -2.65708 0
M  V30 6506 H 614.776 -4.36688 -1.97079 0
M  V30 6507 H 613.14 -2.28005 -1.13515 0
M  V30 6508 H 613.923 -3.43216 0.0757361 0
M  V30 6509 N 616.368 0.432326 -1.51554 0
M  V30 6510 C 617.593 1.20824 -1.68571 0
M  V30 6511 C 618.018 1.84126 -0.384596 0
M  V30 6512 O 617.376 1.69025 0.655751 0
M  V30 6513 C 617.424 2.26429 -2.80646 0
M  V30 6514 O 616.528 3.32032 -2.44598 0
M  V30 6515 H 615.869 0.353765 -0.561913 0
M  V30 6516 H 618.399 0.509916 -1.98144 0
M  V30 6517 H 618.409 2.71133 -3.04878 0
M  V30 6518 H 617.084 1.79733 -3.75058 0
M  V30 6519 H 615.661 2.92769 -2.30956 0
M  V30 6520 N 617.846 1.41785 0.688094 0
M  V30 6521 C 619.093 1.41544 1.44816 0
M  V30 6522 C 619.421 0.0271746 1.94481 0
M  V30 6523 O 618.676 -0.962235 1.7041 0
M  V30 6524 C 618.975 2.37532 2.67046 0
M  V30 6525 C 618.641 3.84209 2.35996 0
M  V30 6526 C 617.303 4.24165 2.27239 0
M  V30 6527 C 619.655 4.76785 2.10536 0
M  V30 6528 C 616.983 5.54695 1.91128 0
M  V30 6529 C 619.335 6.07644 1.75931 0
M  V30 6530 C 617.999 6.46613 1.65675 0
M  V30 6531 H 617.269 0.517945 0.529919 0
M  V30 6532 H 619.916 1.74635 0.785797 0
M  V30 6533 H 618.221 1.9772 3.38251 0
M  V30 6534 H 619.918 2.34615 3.25203 0
M  V30 6535 H 616.508 3.52567 2.4371 0
M  V30 6536 H 620.692 4.46714 2.16242 0
M  V30 6537 H 615.948 5.83762 1.81746 0
M  V30 6538 H 620.122 6.78874 1.55252 0
M  V30 6539 H 617.749 7.47668 1.37463 0
M  V30 6540 N 619.324 -0.923095 1.27737 0
M  V30 6541 C 620.271 -2.02432 1.1086 0
M  V30 6542 C 621.241 -1.66098 0.00835195 0
M  V30 6543 O 622.426 -1.90027 0.171542 0
M  V30 6544 C 619.566 -3.36476 0.766671 0
M  V30 6545 C 618.679 -3.85737 1.94501 0
M  V30 6546 C 617.814 -5.08249 1.54455 0
M  V30 6547 C 616.853 -5.49818 2.6901 0
M  V30 6548 N 615.99 -6.63524 2.29521 0
M  V30 6549 H 620.83 -2.16201 2.05089 0
M  V30 6550 H 618.367 -1.05909 1.02087 0
M  V30 6551 H 620.325 -4.13569 0.549223 0
M  V30 6552 H 618.955 -3.22502 -0.13867 0
M  V30 6553 H 618.007 -3.04883 2.27487 0
M  V30 6554 H 619.319 -4.12513 2.80419 0
M  V30 6555 H 618.473 -5.92857 1.28862 0
M  V30 6556 H 617.212 -4.83261 0.656534 0
M  V30 6557 H 616.217 -4.63757 2.95313 0
M  V30 6558 H 617.442 -5.76799 3.5844 0
M  V30 6559 H 615.388 -6.40185 1.43177 0
M  V30 6560 H 615.305 -6.89978 3.08977 0
M  V30 6561 H 616.573 -7.51461 2.07187 0
M  V30 6562 N 620.802 -1.09834 -1.13024 0
M  V30 6563 C 621.712 -0.753731 -2.22162 0
M  V30 6564 C 622.728 0.246105 -1.72251 0
M  V30 6565 O 623.904 0.0864051 -2.01215 0
M  V30 6566 C 620.969 -0.183958 -3.46212 0
M  V30 6567 C 620.03 -1.24028 -4.10993 0
M  V30 6568 C 619.263 -0.697597 -5.29121 0
M  V30 6569 O 619.486 0.478092 -5.68393 0
M  V30 6570 O 618.42 -1.4546 -5.84059 0
M  V30 6571 H 622.246 -1.66456 -2.5402 0
M  V30 6572 H 619.831 -0.873026 -1.21238 0
M  V30 6573 H 621.713 0.130257 -4.21199 0
M  V30 6574 H 620.388 0.699823 -3.16045 0
M  V30 6575 H 619.295 -1.60725 -3.37814 0
M  V30 6576 H 620.628 -2.09685 -4.45301 0
M  V30 6577 N 622.28 1.30327 -0.886154 0
M  V30 6578 C 623.696 1.48676 -0.580323 0
M  V30 6579 C 623.896 1.81189 0.881639 0
M  V30 6580 O 622.952 1.90021 1.66278 0
M  V30 6581 C 624.265 2.60932 -1.49449 0
M  V30 6582 C 625.813 2.74812 -1.49824 0
M  V30 6583 C 626.288 3.90183 -2.39836 0
M  V30 6584 N 627.779 3.97495 -2.37806 0
M  V30 6585 C 628.514 4.86078 -3.04165 0
M  V30 6586 N 628.01 5.79448 -3.79753 0
M  V30 6587 N 629.803 4.79456 -2.93391 0
M  V30 6588 H 621.954 1.07495 -1.8319 0
M  V30 6589 H 624.217 0.532661 -0.784204 0
M  V30 6590 H 623.923 2.43731 -2.5355 0
M  V30 6591 H 623.797 3.57437 -1.20494 0
M  V30 6592 H 626.184 2.91418 -0.464731 0
M  V30 6593 H 626.265 1.78924 -1.82811 0
M  V30 6594 H 625.909 3.74334 -3.43273 0
M  V30 6595 H 625.839 4.85411 -2.04166 0
M  V30 6596 H 628.33 3.30703 -1.82877 0
M  V30 6597 H 628.643 6.43805 -4.27475 0
M  V30 6598 H 626.988 5.79376 -3.8386 0
M  V30 6599 H 630.179 4.05494 -2.33864 0
M  V30 6600 H 630.352 5.48283 -3.45383 0
M  V30 6601 N 623.758 0.647228 1.43697 0
M  V30 6602 C 625.005 0.158188 2.01881 0
M  V30 6603 C 625.333 -1.22573 1.51017 0
M  V30 6604 O 624.588 -1.83086 0.69122 0
M  V30 6605 C 624.887 0.111481 3.57226 0
M  V30 6606 C 624.553 1.43633 4.27411 0
M  V30 6607 C 623.215 1.79915 4.463 0
M  V30 6608 C 625.567 2.31011 4.67208 0
M  V30 6609 C 622.895 3.03251 5.02251 0
M  V30 6610 C 625.247 3.53633 5.24525 0
M  V30 6611 C 623.911 3.90118 5.41631 0
M  V30 6612 H 623.181 0.0578851 0.738736 0
M  V30 6613 H 625.828 0.836746 1.72252 0
M  V30 6614 H 624.133 -0.650507 3.86362 0
M  V30 6615 H 625.83 -0.283682 3.99995 0
M  V30 6616 H 622.42 1.14403 4.1305 0
M  V30 6617 H 626.604 2.04272 4.52313 0
M  V30 6618 H 621.86 3.31575 5.13681 0
M  V30 6619 H 626.034 4.21561 5.5431 0
M  V30 6620 H 623.661 4.85768 5.84751 0
M  V30 6621 N 625.236 -1.5273 0.388769 0
M  V30 6622 C 626.186 -2.23238 -0.463567 0
M  V30 6623 C 627.17 -1.23606 -1.03007 0
M  V30 6624 O 628.362 -1.48945 -0.956261 0
M  V30 6625 C 625.491 -3.04228 -1.5906 0
M  V30 6626 C 624.577 -4.11255 -1.03587 0
M  V30 6627 N 624.968 -5.0538 -0.206038 0
M  V30 6628 C 623.266 -4.26376 -1.30841 0
M  V30 6629 C 623.967 -5.81613 0.100359 0
M  V30 6630 N 622.943 -5.41264 -0.503447 0
M  V30 6631 H 626.745 -2.93367 0.176978 0
M  V30 6632 H 624.259 -1.61188 0.198046 0
M  V30 6633 H 626.256 -3.53277 -2.21362 0
M  V30 6634 H 624.916 -2.35634 -2.23398 0
M  V30 6635 H 625.927 -5.17663 0.156659 0
M  V30 6636 H 622.604 -3.69011 -1.95287 0
M  V30 6637 H 623.994 -6.67442 0.772676 0
M  V30 6638 N 626.714 -0.118576 -1.57153 0
M  V30 6639 C 627.677 0.817464 -2.14127 0
M  V30 6640 C 628.677 1.1949 -1.07604 0
M  V30 6641 O 629.867 1.12048 -1.33382 0
M  V30 6642 C 626.999 2.10541 -2.68115 0
M  V30 6643 H 628.192 0.322339 -2.98163 0
M  V30 6644 H 625.745 0.130655 -1.55753 0
M  V30 6645 H 626.48 2.64485 -1.87665 0
M  V30 6646 H 626.265 1.84425 -3.4602 0
M  V30 6647 H 627.755 2.77453 -3.12105 0
M  V30 6648 N 628.193 1.56834 0.155195 0
M  V30 6649 C 629.418 1.87412 0.888337 0
M  V30 6650 C 629.843 0.70671 1.74319 0
M  V30 6651 O 629.201 -0.343892 1.78009 0
M  V30 6652 C 629.249 3.1652 1.72765 0
M  V30 6653 O 628.353 2.99877 2.83103 0
M  V30 6654 H 627.694 0.615983 0.247914 0
M  V30 6655 H 630.224 2.04061 0.148478 0
M  V30 6656 H 630.234 3.48334 2.12433 0
M  V30 6657 H 628.909 4.01094 1.09985 0
M  V30 6658 H 627.486 2.79453 2.46902 0
M  V30 6659 N 629.671 -0.424282 1.51781 0
M  V30 6660 C 630.917 -1.17434 1.6534 0
M  V30 6661 C 631.25 -1.90549 0.374806 0
M  V30 6662 O 630.525 -1.84145 -0.626179 0
M  V30 6663 C 630.808 -2.18093 2.86544 0
M  V30 6664 C 630.661 -1.48975 4.24413 0
M  V30 6665 C 631.98 -3.18934 3.03264 0
M  V30 6666 H 629.099 -0.425566 0.601716 0
M  V30 6667 H 631.741 -0.461921 1.84299 0
M  V30 6668 H 629.891 -2.78849 2.7051 0
M  V30 6669 H 631.563 -0.914551 4.52143 0
M  V30 6670 H 629.806 -0.791893 4.26511 0
M  V30 6671 H 630.477 -2.22347 5.05238 0
M  V30 6672 H 632.953 -2.68243 3.18096 0
M  V30 6673 H 631.829 -3.86645 3.89611 0
M  V30 6674 H 632.09 -3.85793 2.15908 0
M  V30 6675 N 631.149 -1.42148 -0.680565 0
M  V30 6676 C 632.565 -1.24947 -0.992995 0
M  V30 6677 C 632.765 -0.149527 -2.00944 0
M  V30 6678 O 631.821 0.481145 -2.47873 0
M  V30 6679 C 633.134 -2.60426 -1.5033 0
M  V30 6680 C 634.682 -2.67733 -1.62137 0
M  V30 6681 C 635.157 -4.03564 -2.16565 0
M  V30 6682 N 636.648 -4.05488 -2.23905 0
M  V30 6683 C 637.383 -5.07401 -2.67081 0
M  V30 6684 N 636.879 -6.19698 -3.09751 0
M  V30 6685 N 638.672 -4.94758 -2.66778 0
M  V30 6686 H 630.823 -2.12399 -0.0074788 0
M  V30 6687 H 633.086 -0.94571 -0.0658529 0
M  V30 6688 H 632.792 -3.41743 -0.830947 0
M  V30 6689 H 632.666 -2.83949 -2.483 0
M  V30 6690 H 635.053 -1.86765 -2.2848 0
M  V30 6691 H 635.134 -2.48004 -0.626713 0
M  V30 6692 H 634.778 -4.84987 -1.50833 0
M  V30 6693 H 634.708 -4.20641 -3.1681 0
M  V30 6694 H 637.199 -3.24415 -1.93812 0
M  V30 6695 H 637.512 -6.93318 -3.41365 0
M  V30 6696 H 635.857 -6.23212 -3.07623 0
M  V30 6697 H 639.048 -4.06105 -2.32801 0
M  V30 6698 H 639.221 -5.74317 -3.00107 0
M  V30 6699 N 632.627 0.916307 -1.28225 0
M  V30 6700 C 634.043 1.19425 -1.05876 0
M  V30 6701 C 634.243 2.005 0.2005 0
M  V30 6702 O 633.299 2.35806 0.902873 0
M  V30 6703 C 634.612 1.93133 -2.30478 0
M  V30 6704 C 636.16 2.06026 -2.35632 0
M  V30 6705 C 636.635 2.83141 -3.59994 0
M  V30 6706 N 638.126 2.90704 -3.60618 0
M  V30 6707 C 638.861 3.50865 -4.53521 0
M  V30 6708 N 638.357 4.12327 -5.56739 0
M  V30 6709 N 640.15 3.48379 -4.41122 0
M  V30 6710 H 632.301 0.37496 -2.09064 0
M  V30 6711 H 634.564 0.228531 -0.920042 0
M  V30 6712 H 634.27 1.40985 -3.22205 0
M  V30 6713 H 634.144 2.93696 -2.36691 0
M  V30 6714 H 636.531 2.57355 -1.44404 0
M  V30 6715 H 636.612 1.04647 -2.33415 0
M  V30 6716 H 636.256 2.32492 -4.51564 0
M  V30 6717 H 636.186 3.84829 -3.59464 0
M  V30 6718 H 638.677 2.47034 -2.85977 0
M  V30 6719 H 638.99 4.56205 -6.23776 0
M  V30 6720 H 637.335 4.10839 -5.60568 0
M  V30 6721 H 640.526 2.99572 -3.59686 0
M  V30 6722 H 640.699 3.94974 -5.13712 0
M  V30 6723 N 634.105 1.10431 1.1244 0
M  V30 6724 C 635.035 0.775143 2.20258 0
M  V30 6725 C 636.016 -0.25186 1.68225 0
M  V30 6726 O 637.201 -0.117637 1.93843 0
M  V30 6727 C 634.331 0.206133 3.46688 0
M  V30 6728 C 633.285 1.16382 4.11873 0
M  V30 6729 C 632.611 0.456014 5.32752 0
M  V30 6730 C 633.911 2.5104 4.58013 0
M  V30 6731 H 635.605 1.67665 2.4805 0
M  V30 6732 H 633.151 0.807595 1.19222 0
M  V30 6733 H 635.104 -0.036291 4.21384 0
M  V30 6734 H 633.828 -0.730614 3.18323 0
M  V30 6735 H 632.487 1.39169 3.39157 0
M  V30 6736 H 632.135 -0.485203 5.00654 0
M  V30 6737 H 631.835 1.09466 5.77314 0
M  V30 6738 H 633.359 0.222135 6.10196 0
M  V30 6739 H 634.773 2.32401 5.24083 0
M  V30 6740 H 633.17 3.10789 5.13352 0
M  V30 6741 H 634.24 3.11039 3.71998 0
M  V30 6742 N 635.583 -1.29855 0.893053 0
M  V30 6743 C 636.811 -1.99976 0.530788 0
M  V30 6744 C 637.226 -1.66889 -0.882799 0
M  V30 6745 O 636.583 -0.910352 -1.58173 0
M  V30 6746 C 636.634 -3.54547 0.705587 0
M  V30 6747 O 636.355 -3.86458 2.06353 0
M  V30 6748 C 637.856 -4.41937 0.347387 0
M  V30 6749 H 635.076 -0.639129 0.204339 0
M  V30 6750 H 637.62 -1.65549 1.20057 0
M  V30 6751 H 635.775 -3.87311 0.0830685 0
M  V30 6752 H 636.189 -4.81146 2.08803 0
M  V30 6753 H 637.663 -5.4954 0.520557 0
M  V30 6754 H 638.14 -4.33339 -0.715139 0
M  V30 6755 H 638.746 -4.14633 0.946567 0
M  V30 6756 N 637.061 -0.65484 -1.43351 0
M  V30 6757 C 638.472 -0.248506 -1.85039 0
M  V30 6758 C 638.823 1.20526 -1.54816 0
M  V30 6759 O 637.948 1.92016 -0.99794 0
M  V30 6760 C 638.543 -0.444241 -3.35875 0
M  V30 6761 C 637.102 -0.0922108 -3.76287 0
M  V30 6762 C 636.249 -0.746327 -2.67068 0
M  V30 6763 H 639.2 -0.8584 -1.33481 0
M  V30 6764 H 639.221 0.309762 -3.79237 0
M  V30 6765 H 638.733 -1.50239 -3.5784 0
M  V30 6766 H 636.834 0.96328 -3.59933 0
M  V30 6767 H 636.947 -0.518807 -4.76283 0
M  V30 6768 H 635.311 -0.179416 -2.54067 0
M  V30 6769 H 636.094 -1.80754 -2.91861 0
M  V30 6770 N 638.539 1.52521 -0.396863 0
M  V30 6771 C 639.764 2.06571 0.185258 0
M  V30 6772 C 640.189 1.26605 1.39115 0
M  V30 6773 O 639.547 0.293055 1.78916 0
M  V30 6774 C 639.595 3.5674 0.526189 0
M  V30 6775 O 638.699 3.7929 1.61903 0
M  V30 6776 H 638.04 0.663712 0.0195474 0
M  V30 6777 H 640.57 1.966 -0.566519 0
M  V30 6778 H 640.58 4.00311 0.788338 0
M  V30 6779 H 639.255 4.14379 -0.355397 0
M  V30 6780 H 637.832 3.47605 1.35 0
M  V30 6781 N 640.017 0.126909 1.57088 0
M  V30 6782 C 641.257 -0.53216 1.97351 0
M  V30 6783 C 641.621 -1.63342 1.00913 0
M  V30 6784 O 642.822 -2.35194 1.30144 0
M  V30 6785 C 641.093 -1.04385 3.41817 0
M  V30 6786 S 642.652 -1.71033 4.04095 0
M  V30 6787 H 639.47 -0.172724 0.689701 0
M  V30 6788 H 642.072 0.213865 1.94327 0
M  V30 6789 H 640.776 -0.231289 4.09748 0
M  V30 6790 H 640.307 -1.82496 3.48509 0
M  V30 6791 H 642.322 -2.99656 3.95501 0
M  V30 6792 N 641.495 -1.56914 -0.146875 0
M  V30 6793 C 642.405 -2.0154 -1.20079 0
M  V30 6794 C 643.421 -0.930838 -1.47008 0
M  V30 6795 O 644.597 -1.24032 -1.58676 0
M  V30 6796 C 641.662 -2.38715 -2.51428 0
M  V30 6797 C 640.723 -3.6112 -2.32145 0
M  V30 6798 C 639.956 -3.96512 -3.57231 0
M  V30 6799 O 640.179 -3.32566 -4.63418 0
M  V30 6800 O 639.113 -4.89758 -3.49887 0
M  V30 6801 H 642.939 -2.91506 -0.851924 0
M  V30 6802 H 640.524 -1.45106 -0.355607 0
M  V30 6803 H 642.406 -2.63485 -3.28867 0
M  V30 6804 H 641.081 -1.51903 -2.85845 0
M  V30 6805 H 639.988 -3.41536 -1.52656 0
M  V30 6806 H 641.321 -4.48549 -2.02644 0
M  V30 6807 N 642.974 0.416227 -1.52004 0
M  V30 6808 C 644.223 1.16088 -1.64944 0
M  V30 6809 C 644.536 1.91835 -0.381928 0
M  V30 6810 O 645.742 2.6867 -0.391013 0
M  V30 6811 C 644.198 2.1124 -2.91386 0
M  V30 6812 C 643.806 1.41042 -4.25219 0
M  V30 6813 C 645.55 2.86008 -3.13688 0
M  V30 6814 C 643.457 2.34801 -5.42791 0
M  V30 6815 H 642.387 0.437041 -0.61442 0
M  V30 6816 H 645.038 0.425971 -1.78487 0
M  V30 6817 H 643.42 2.88254 -2.71525 0
M  V30 6818 H 644.594 0.694416 -4.55538 0
M  V30 6819 H 642.909 0.78344 -4.08964 0
M  V30 6820 H 645.506 3.56286 -3.98703 0
M  V30 6821 H 645.849 3.48556 -2.27628 0
M  V30 6822 H 646.382 2.16095 -3.33988 0
M  V30 6823 H 643.121 1.7691 -6.31176 0
M  V30 6824 H 642.641 3.04395 -5.16821 0
M  V30 6825 H 644.32 2.9548 -5.75587 0
M  V30 6826 N 644.452 1.42507 0.673017 0
M  V30 6827 C 645.68 1.46473 1.46128 0
M  V30 6828 C 646.095 0.0765912 1.88645 0
M  V30 6829 O 645.452 -0.909057 1.58248 0
M  V30 6830 C 645.503 2.39339 2.70923 0
M  V30 6831 O 645.224 3.72752 2.3019 0
M  V30 6832 C 646.725 2.52343 3.64469 0
M  V30 6833 H 643.945 0.49812 0.449575 0
M  V30 6834 H 646.489 1.87041 0.826802 0
M  V30 6835 H 644.644 2.02019 3.30556 0
M  V30 6836 H 645.058 4.22503 3.10791 0
M  V30 6837 H 646.532 3.2144 4.48754 0
M  V30 6838 H 647.009 1.56189 4.1049 0
M  V30 6839 H 647.615 2.90392 3.10729 0
M  V30 6840 N 645.93 -0.909495 1.28709 0
M  V30 6841 C 647.177 -1.65905 1.16111 0
M  V30 6842 C 647.505 -1.92334 -0.289436 0
M  V30 6843 O 646.76 -1.52495 -1.22653 0
M  V30 6844 C 647.059 -3.02117 1.90945 0
M  V30 6845 C 646.725 -2.95332 3.40719 0
M  V30 6846 C 645.387 -2.93189 3.81567 0
M  V30 6847 C 647.739 -2.85264 4.36204 0
M  V30 6848 C 645.067 -2.78784 5.16233 0
M  V30 6849 C 647.419 -2.724 5.70948 0
M  V30 6850 C 646.083 -2.68617 6.11066 0
M  V30 6851 H 645.353 -0.60709 0.42488 0
M  V30 6852 H 648 -1.05932 1.59533 0
M  V30 6853 H 646.305 -3.65901 1.40085 0
M  V30 6854 H 648.002 -3.59026 1.7861 0
M  V30 6855 H 644.592 -2.97797 3.08245 0
M  V30 6856 H 648.776 -2.86005 4.05605 0
M  V30 6857 H 644.032 -2.74254 5.46438 0
M  V30 6858 H 648.206 -2.63579 6.44592 0
M  V30 6859 H 645.833 -2.57213 7.15364 0
M  V30 6860 N 647.408 -1.11026 -1.11852 0
M  V30 6861 C 648.657 -0.851249 -1.82857 0
M  V30 6862 C 648.97 0.62514 -1.85341 0
M  V30 6863 O 650.176 1.00026 -2.52403 0
M  V30 6864 C 648.632 -1.47309 -3.28372 0
M  V30 6865 C 648.24 -2.9832 -3.34229 0
M  V30 6866 C 649.984 -1.29373 -4.04306 0
M  V30 6867 C 647.891 -3.53509 -4.74115 0
M  V30 6868 H 646.821 -0.314794 -0.685143 0
M  V30 6869 H 649.472 -1.33499 -1.25898 0
M  V30 6870 H 647.854 -0.917017 -3.85236 0
M  V30 6871 H 649.028 -3.60295 -2.87271 0
M  V30 6872 H 647.343 -3.15482 -2.71772 0
M  V30 6873 H 649.94 -1.68042 -5.07608 0
M  V30 6874 H 650.283 -0.235879 -4.15631 0
M  V30 6875 H 650.816 -1.8182 -3.53817 0
M  V30 6876 H 647.555 -4.58987 -4.67986 0
M  V30 6877 H 647.075 -2.96305 -5.21501 0
M  V30 6878 H 648.754 -3.51693 -5.43066 0
M  V30 6879 N 648.886 1.2938 -0.899927 0
M  V30 6880 C 649.796 2.31462 -0.382437 0
M  V30 6881 C 650.812 1.65956 0.522929 0
M  V30 6882 O 651.988 1.97131 0.412454 0
M  V30 6883 C 649.053 3.44595 0.381472 0
M  V30 6884 C 648.114 4.25692 -0.555444 0
M  V30 6885 C 647.347 5.33422 0.172102 0
M  V30 6886 O 647.57 5.53053 1.396 0
M  V30 6887 O 646.504 5.99939 -0.485491 0
M  V30 6888 H 650.33 2.77706 -1.22934 0
M  V30 6889 H 647.915 1.33821 -0.664259 0
M  V30 6890 H 649.797 4.13474 0.813442 0
M  V30 6891 H 648.472 3.00458 1.20443 0
M  V30 6892 H 647.379 3.59453 -1.03653 0
M  V30 6893 H 648.712 4.73471 -1.34483 0
M  V30 6894 N 650.364 0.662433 1.43002 0
M  V30 6895 C 651.589 0.186003 2.06564 0
M  V30 6896 C 652.014 -1.14314 1.49379 0
M  V30 6897 O 651.372 -1.70824 0.607346 0
M  V30 6898 C 651.42 0.118269 3.60406 0
M  V30 6899 O 650.524 -0.916859 4.02079 0
M  V30 6900 H 649.865 0.0990981 0.656563 0
M  V30 6901 H 652.395 0.907958 1.8335 0
M  V30 6902 H 652.405 -0.0619981 4.07953 0
M  V30 6903 H 651.08 1.08849 4.01403 0
M  V30 6904 H 649.657 -0.708635 3.66105 0
M  V30 6905 N 651.842 -1.52309 0.404946 0
M  V30 6906 C 652.752 -2.30634 -0.429555 0
M  V30 6907 C 653.768 -1.38187 -1.05737 0
M  V30 6908 O 654.944 -1.71261 -1.05979 0
M  V30 6909 C 652.009 -3.10947 -1.53339 0
M  V30 6910 C 651.07 -4.19126 -0.929065 0
M  V30 6911 C 650.303 -4.95601 -1.9803 0
M  V30 6912 O 650.526 -4.72331 -3.1978 0
M  V30 6913 O 649.46 -5.80551 -1.58886 0
M  V30 6914 H 653.286 -3.0298 0.208963 0
M  V30 6915 H 650.871 -1.4845 0.168255 0
M  V30 6916 H 652.753 -3.60974 -2.1743 0
M  V30 6917 H 651.428 -2.41399 -2.15658 0
M  V30 6918 H 650.335 -3.73257 -0.250982 0
M  V30 6919 H 651.668 -4.90955 -0.349855 0
M  V30 6920 N 653.32 -0.135238 -1.57019 0
M  V30 6921 C 654.23 0.822226 -2.19719 0
M  V30 6922 C 655.246 1.28057 -1.17802 0
M  V30 6923 O 656.422 1.3402 -1.50335 0
M  V30 6924 C 653.487 2.0484 -2.79717 0
M  V30 6925 C 652.548 1.64042 -3.96723 0
M  V30 6926 C 651.781 2.80814 -4.53849 0
M  V30 6927 O 652.004 3.967 -4.0986 0
M  V30 6928 O 650.938 2.56963 -5.44292 0
M  V30 6929 H 654.764 0.318552 -3.02025 0
M  V30 6930 H 652.349 0.0912021 -1.49121 0
M  V30 6931 H 654.231 2.76622 -3.17897 0
M  V30 6932 H 652.906 2.54182 -2.00432 0
M  V30 6933 H 651.813 0.893182 -3.63281 0
M  V30 6934 H 653.146 1.19426 -4.77492 0
M  V30 6935 N 654.798 1.5699 0.138552 0
M  V30 6936 C 656.046 1.83446 0.848053 0
M  V30 6937 C 656.367 0.71744 1.81322 0
M  V30 6938 O 655.637 -0.260228 1.94164 0
M  V30 6939 H 654.217 0.676792 0.316166 0
M  V30 6940 H 656.879 1.94462 0.130538 0
M  V30 6941 H 655.975 2.78677 1.40518 0
M  V30 6942 N 656.276 -0.40816 1.52223 0
M  V30 6943 C 657.501 -1.18127 1.70472 0
M  V30 6944 C 657.926 -1.83491 0.41384 0
M  V30 6945 O 657.284 -1.70047 -0.628778 0
M  V30 6946 C 657.332 -2.21935 2.84213 0
M  V30 6947 O 656.436 -3.28099 2.4985 0
M  V30 6948 H 655.777 -0.344781 0.56747 0
M  V30 6949 H 658.307 -0.478328 1.9893 0
M  V30 6950 H 658.317 -2.66248 3.09153 0
M  V30 6951 H 656.992 -1.73744 3.7787 0
M  V30 6952 H 655.569 -2.89058 2.35584 0
M  V30 6953 N 657.755 -1.42862 -0.66545 0
M  V30 6954 C 659.003 -1.43546 -1.42264 0
M  V30 6955 C 659.324 -0.0563116 -1.94919 0
M  V30 6956 O 658.594 0.906568 -1.73661 0
M  V30 6957 H 657.174 -0.528464 -0.527953 0
M  V30 6958 H 659.836 -1.78363 -0.785665 0
M  V30 6959 H 658.932 -2.14079 -2.27105 0
M  V30 6960 N 659.233 0.902656 -1.29189 0
M  V30 6961 C 660.649 1.18296 -1.07137 0
M  V30 6962 C 660.849 2.00701 0.179223 0
M  V30 6963 O 659.905 2.3675 0.877812 0
M  V30 6964 C 661.218 1.90677 -2.32514 0
M  V30 6965 C 662.766 2.03515 -2.37804 0
M  V30 6966 C 663.241 2.79307 -3.62976 0
M  V30 6967 N 664.732 2.86862 -3.63681 0
M  V30 6968 C 665.467 3.46035 -4.57217 0
M  V30 6969 N 664.963 4.06399 -5.61081 0
M  V30 6970 N 666.756 3.43681 -4.44792 0
M  V30 6971 H 658.907 0.352765 -2.0945 0
M  V30 6972 H 661.17 0.21876 -0.922414 0
M  V30 6973 H 660.876 1.3756 -3.23682 0
M  V30 6974 H 660.75 2.91169 -2.39793 0
M  V30 6975 H 663.137 2.55809 -1.47125 0
M  V30 6976 H 663.218 1.02166 -2.34512 0
M  V30 6977 H 662.862 2.2769 -4.54004 0
M  V30 6978 H 662.792 3.80995 -3.63525 0
M  V30 6979 H 665.283 2.43987 -2.88581 0
M  V30 6980 H 665.596 4.49564 -6.2858 0
M  V30 6981 H 663.941 4.0487 -5.64894 0
M  V30 6982 H 667.132 2.9574 -3.62843 0
M  V30 6983 H 667.305 3.89503 -5.17872 0
M  V30 6984 N 660.711 1.11618 1.11262 0
M  V30 6985 C 661.959 0.864469 1.82678 0
M  V30 6986 C 662.28 -0.611564 1.85162 0
M  V30 6987 O 661.55 -1.44429 1.32352 0
M  V30 6988 H 660.13 0.316821 0.676486 0
M  V30 6989 H 662.792 1.40894 1.34666 0
M  V30 6990 H 661.888 1.23832 2.86482 0
M  V30 6991 N 662.189 -1.289 0.906776 0
M  V30 6992 C 663.152 -2.25777 0.394656 0
M  V30 6993 C 664.152 -1.53621 -0.475119 0
M  V30 6994 O 665.342 -1.71949 -0.279165 0
M  V30 6995 C 662.474 -3.38113 -0.43499 0
M  V30 6996 H 663.667 -2.72592 1.25033 0
M  V30 6997 H 661.22 -1.40463 0.685547 0
M  V30 6998 H 661.955 -2.96648 -1.31036 0
M  V30 6999 H 661.74 -3.91647 0.188334 0
M  V30 7000 H 663.23 -4.10168 -0.784365 0
M  V30 7001 N 663.667 -0.670007 -1.42649 0
M  V30 7002 C 664.63 0.00204659 -2.292 0
M  V30 7003 C 665.63 0.733817 -1.4308 0
M  V30 7004 O 666.82 0.57254 -1.64522 0
M  V30 7005 C 663.952 1.01359 -3.25483 0
M  V30 7006 H 665.145 -0.759696 -2.90118 0
M  V30 7007 H 662.698 -0.432105 -1.50208 0
M  V30 7008 H 663.433 1.80399 -2.69493 0
M  V30 7009 H 663.218 0.492323 -3.88997 0
M  V30 7010 H 664.708 1.4824 -3.90403 0
M  V30 7011 N 665.145 1.52092 -0.413018 0
M  V30 7012 C 666.075 2.30021 0.401567 0
M  V30 7013 C 667.056 1.34395 1.04269 0
M  V30 7014 O 668.241 1.63304 1.05097 0
M  V30 7015 C 665.371 3.12447 1.51638 0
M  V30 7016 C 664.325 4.16153 1.00005 0
M  V30 7017 C 663.651 4.86948 2.20875 0
M  V30 7018 C 664.951 5.22275 0.0513757 0
M  V30 7019 H 666.645 2.98365 -0.248704 0
M  V30 7020 H 664.191 1.4349 -0.121052 0
M  V30 7021 H 666.144 3.65733 2.09326 0
M  V30 7022 H 664.868 2.41879 2.19458 0
M  V30 7023 H 663.527 3.63882 0.445549 0
M  V30 7024 H 663.175 4.12905 2.8726 0
M  V30 7025 H 662.875 5.57057 1.86978 0
M  V30 7026 H 664.399 5.43048 2.79162 0
M  V30 7027 H 665.813 5.70778 0.537176 0
M  V30 7028 H 664.21 5.9977 -0.198977 0
M  V30 7029 H 665.28 4.76611 -0.892736 0
M  V30 7030 N 666.623 0.143563 1.56945 0
M  V30 7031 C 667.869 -0.50916 1.96304 0
M  V30 7032 C 668.202 -1.64741 1.0283 0
M  V30 7033 O 667.477 -1.94374 0.0700361 0
M  V30 7034 C 667.76 -1.0186 3.45393 0
M  V30 7035 C 667.613 0.117923 4.49645 0
M  V30 7036 C 668.932 -1.90151 3.96901 0
M  V30 7037 H 666.051 -0.183608 0.713763 0
M  V30 7038 H 668.693 0.224095 1.88674 0
M  V30 7039 H 666.843 -1.64345 3.52027 0
M  V30 7040 H 668.515 0.754145 4.55094 0
M  V30 7041 H 666.758 0.777568 4.26774 0
M  V30 7042 H 667.429 -0.280187 5.51288 0
M  V30 7043 H 669.905 -1.375 3.92725 0
M  V30 7044 H 668.781 -2.22707 5.0169 0
M  V30 7045 H 669.042 -2.83718 3.39052 0
M  V30 7046 N 668.101 -1.57061 -0.130224 0
M  V30 7047 C 669.326 -1.88802 -0.858409 0
M  V30 7048 C 669.751 -0.734353 -1.73173 0
M  V30 7049 O 669.109 0.315529 -1.78533 0
M  V30 7050 C 669.157 -3.19228 -1.67708 0
M  V30 7051 O 668.261 -3.04343 -2.78297 0
M  V30 7052 H 667.602 -0.619849 -0.238083 0
M  V30 7053 H 670.132 -2.04271 -0.115995 0
M  V30 7054 H 670.142 -3.51669 -2.06864 0
M  V30 7055 H 668.817 -4.02793 -1.0359 0
M  V30 7056 H 667.394 -2.83346 -2.42425 0
M  V30 7057 N 669.579 0.400081 -1.52437 0
M  V30 7058 C 670.542 1.4707 -1.75793 0
M  V30 7059 C 671.542 1.48036 -0.627856 0
M  V30 7060 O 672.732 1.49401 -0.895817 0
M  V30 7061 C 669.864 2.86427 -1.84858 0
M  V30 7062 H 671.057 1.27649 -2.71377 0
M  V30 7063 H 668.61 0.631141 -1.42991 0
M  V30 7064 H 669.345 3.11207 -0.912194 0
M  V30 7065 H 669.13 2.87128 -2.6702 0
M  V30 7066 H 670.62 3.64023 -2.04638 0
M  V30 7067 N 671.057 1.43213 0.657864 0
M  V30 7068 C 672.303 1.44798 1.41991 0
M  V30 7069 C 672.636 0.070256 1.94073 0
M  V30 7070 O 671.911 -0.908177 1.71995 0
M  V30 7071 C 672.194 2.4865 2.60471 0
M  V30 7072 C 672.047 3.95679 2.13911 0
M  V30 7073 C 673.366 2.49292 3.62686 0
M  V30 7074 H 670.485 0.527244 0.514959 0
M  V30 7075 H 673.127 1.74733 0.74621 0
M  V30 7076 H 671.277 2.23254 3.17946 0
M  V30 7077 H 672.949 4.32116 1.61472 0
M  V30 7078 H 671.192 4.08733 1.45325 0
M  V30 7079 H 671.863 4.6395 2.99089 0
M  V30 7080 H 674.339 2.71917 3.14961 0
M  V30 7081 H 673.215 3.23907 4.43143 0
M  V30 7082 H 673.476 1.52502 4.14964 0
M  V30 7083 N 672.536 -0.895792 1.29666 0
M  V30 7084 C 673.499 -1.98189 1.15124 0
M  V30 7085 C 674.499 -1.60572 0.0855717 0
M  V30 7086 O 675.689 -1.70991 0.332826 0
M  V30 7087 C 672.821 -3.32289 0.761372 0
M  V30 7088 H 674.014 -2.12518 2.11603 0
M  V30 7089 H 671.567 -1.0808 1.12908 0
M  V30 7090 H 672.302 -3.23662 -0.203393 0
M  V30 7091 H 672.087 -3.60958 1.53139 0
M  V30 7092 H 673.577 -4.1198 0.682792 0
M  V30 7093 N 674.014 -1.12206 -1.10668 0
M  V30 7094 C 675.254 -0.885935 -1.84202 0
M  V30 7095 C 675.618 0.577849 -1.83098 0
M  V30 7096 O 676.819 0.931051 -2.5216 0
M  V30 7097 C 675.09 -1.44197 -3.2702 0
M  V30 7098 S 676.649 -1.34402 -4.1771 0
M  V30 7099 H 673.467 -0.319653 -0.635093 0
M  V30 7100 H 676.069 -1.43112 -1.33189 0
M  V30 7101 H 674.773 -2.50096 -3.25392 0
M  V30 7102 H 674.304 -0.894173 -3.83103 0
M  V30 7103 H 676.319 -0.313873 -4.95206 0
M  V30 7104 N 675.492 1.28418 -0.913599 0
M  V30 7105 C 676.439 2.27301 -0.400373 0
M  V30 7106 C 677.409 1.57582 0.52509 0
M  V30 7107 O 678.594 1.85482 0.447318 0
M  V30 7108 C 675.734 3.43284 0.35361 0
M  V30 7109 C 674.847 4.27752 -0.604341 0
M  V30 7110 C 673.982 5.30934 0.168075 0
M  V30 7111 C 673.021 6.07065 -0.783499 0
M  V30 7112 N 672.158 7.02086 -0.0446112 0
M  V30 7113 H 676.998 2.70579 -1.24865 0
M  V30 7114 H 674.535 1.33067 -0.627028 0
M  V30 7115 H 676.493 4.09322 0.806945 0
M  V30 7116 H 675.123 3.00997 1.16623 0
M  V30 7117 H 674.175 3.61759 -1.17621 0
M  V30 7118 H 675.487 4.80682 -1.33216 0
M  V30 7119 H 674.641 6.02855 0.681979 0
M  V30 7120 H 673.38 4.78771 0.928947 0
M  V30 7121 H 672.385 5.33995 -1.30878 0
M  V30 7122 H 673.61 6.61317 -1.54392 0
M  V30 7123 H 671.556 6.52273 0.698272 0
M  V30 7124 H 671.473 7.52637 -0.712258 0
M  V30 7125 H 672.741 7.78205 0.449102 0
M  V30 7126 N 676.97 0.677563 1.42291 0
M  V30 7127 C 677.917 0.000947061 2.308 0
M  V30 7128 C 678.887 -0.789889 1.46116 0
M  V30 7129 O 680.072 -0.761578 1.74942 0
M  V30 7130 C 677.212 -0.942387 3.31984 0
M  V30 7131 C 676.325 -0.14508 4.31756 0
M  V30 7132 C 675.46 -1.08442 5.20013 0
M  V30 7133 C 674.499 -0.278958 6.11464 0
M  V30 7134 N 673.636 -1.17115 6.92263 0
M  V30 7135 H 678.476 0.761521 2.88106 0
M  V30 7136 H 676.013 0.38727 1.41911 0
M  V30 7137 H 677.971 -1.50317 3.89179 0
M  V30 7138 H 676.601 -1.66956 2.76271 0
M  V30 7139 H 675.653 0.532368 3.76656 0
M  V30 7140 H 676.965 0.48015 4.96484 0
M  V30 7141 H 676.119 -1.71504 5.81955 0
M  V30 7142 H 674.858 -1.74353 4.55469 0
M  V30 7143 H 673.863 0.364856 5.48588 0
M  V30 7144 H 675.088 0.376099 6.78058 0
M  V30 7145 H 673.034 -1.81661 6.30345 0
M  V30 7146 H 672.951 -0.601063 7.53607 0
M  V30 7147 H 674.219 -1.78915 7.58689 0
M  V30 7148 N 678.448 -1.51871 0.421078 0
M  V30 7149 C 679.411 -2.25914 -0.386712 0
M  V30 7150 C 680.411 -1.28733 -0.963555 0
M  V30 7151 O 681.601 -1.52579 -0.840556 0
M  V30 7152 C 678.733 -3.03853 -1.54551 0
M  V30 7153 H 679.926 -2.98754 0.261978 0
M  V30 7154 H 677.479 -1.5533 0.173862 0
M  V30 7155 H 678.214 -2.35392 -2.23072 0
M  V30 7156 H 677.999 -3.75215 -1.13824 0
M  V30 7157 H 679.489 -3.59984 -2.11663 0
M  V30 7158 N 679.926 -0.151884 -1.56866 0
M  V30 7159 C 681.166 0.500695 -1.98173 0
M  V30 7160 C 681.53 1.61715 -1.03499 0
M  V30 7161 O 682.731 2.33093 -1.33869 0
M  V30 7162 C 681.002 0.989333 -3.43434 0
M  V30 7163 S 682.561 1.64583 -4.06765 0
M  V30 7164 H 679.379 0.16173 -0.692361 0
M  V30 7165 H 681.981 -0.244754 -1.93962 0
M  V30 7166 H 680.685 0.166072 -4.10064 0
M  V30 7167 H 680.216 1.76929 -3.51368 0
M  V30 7168 H 682.231 2.93326 -4.00218 0
M  V30 7169 N 681.404 1.57128 0.121893 0
M  V30 7170 C 682.337 1.95327 1.17995 0
M  V30 7171 C 683.315 0.822524 1.40262 0
M  V30 7172 O 684.499 1.08044 1.54463 0
M  V30 7173 C 681.626 2.24699 2.53432 0
M  V30 7174 C 680.672 3.47263 2.4761 0
M  V30 7175 S 681.505 4.99951 1.91857 0
M  V30 7176 C 682.661 5.32473 3.28973 0
M  V30 7177 H 682.894 2.84765 0.854182 0
M  V30 7178 H 680.427 1.50864 0.328534 0
M  V30 7179 H 682.385 2.423 3.31362 0
M  V30 7180 H 681.046 1.3588 2.83188 0
M  V30 7181 H 680.239 3.65171 3.4737 0
M  V30 7182 H 679.841 3.29034 1.778 0
M  V30 7183 H 682.133 5.27478 4.25175 0
M  V30 7184 H 683.076 6.33732 3.15895 0
M  V30 7185 H 683.484 4.59952 3.27268 0
M  V30 7186 N 682.882 -0.391992 1.52647 0
M  V30 7187 C 683.812 -1.48517 1.8018 0
M  V30 7188 C 684.793 -1.57039 0.653667 0
M  V30 7189 O 685.978 -1.72036 0.900962 0
M  V30 7190 C 683.108 -2.86161 1.96797 0
M  V30 7191 C 682.062 -2.92481 3.12472 0
M  V30 7192 C 681.388 -4.32546 3.14338 0
M  V30 7193 C 682.688 -2.624 4.51601 0
M  V30 7194 H 684.382 -1.25726 2.71723 0
M  V30 7195 H 681.928 -0.603387 1.30749 0
M  V30 7196 H 683.881 -3.62639 2.14641 0
M  V30 7197 H 682.605 -3.10283 1.01941 0
M  V30 7198 H 681.264 -2.18451 2.94406 0
M  V30 7199 H 680.912 -4.53703 2.1717 0
M  V30 7200 H 680.612 -4.37695 3.92042 0
M  V30 7201 H 682.136 -5.10934 3.34333 0
M  V30 7202 H 683.55 -3.28596 4.69785 0
M  V30 7203 H 681.947 -2.78903 5.3135 0
M  V30 7204 H 683.017 -1.57754 4.58521 0
M  V30 7205 N 684.36 -1.4356 -0.65026 0
M  V30 7206 C 685.608 -1.45046 -1.40734 0
M  V30 7207 C 685.929 -0.0769822 -1.94848 0
M  V30 7208 O 685.199 0.888098 -1.74613 0
M  V30 7209 H 683.779 -0.534034 -0.522318 0
M  V30 7210 H 686.441 -1.79186 -0.766703 0
M  V30 7211 H 685.537 -2.16476 -2.24822 0
M  V30 7212 N 685.838 0.888903 -1.30139 0
M  V30 7213 C 686.77 1.99972 -1.11999 0
M  V30 7214 C 687.783 1.62673 -0.0643619 0
M  V30 7215 O 688.972 1.75788 -0.309983 0
M  V30 7216 C 686.072 3.31904 -0.685059 0
M  V30 7217 C 685.245 3.97665 -1.82158 0
M  V30 7218 C 684.304 5.07894 -1.37585 0
M  V30 7219 O 683.33 5.2974 -2.08241 0
M  V30 7220 N 684.532 5.7995 -0.252697 0
M  V30 7221 H 687.297 2.16085 -2.07671 0
M  V30 7222 H 684.858 1.06175 -1.22223 0
M  V30 7223 H 686.85 4.03005 -0.369964 0
M  V30 7224 H 685.42 3.12084 0.179507 0
M  V30 7225 H 684.64 3.19787 -2.305 0
M  V30 7226 H 685.928 4.3834 -2.58332 0
M  V30 7227 H 685.326 5.647 0.336141 0
M  V30 7228 H 683.883 6.518 0.00296813 0
M  V30 7229 O 687.355 1.24817 1.02483 0
M  V30 7230 H 688.046 1.02783 1.64181 0
M  V30 END ATOM
M  V30 BEGIN BOND
M  V30 END BOND
M  V30 END CTAB
M  END
$$$$
