drugbank_target|P11717 Cation-independent mannose-6-phosphate receptor (DB01277; DB02900; DB13173; DB14751)
 OpenBabel12092120363D

  0  0  0     0  0            999 V3000
M  V30 BEGIN CTAB
M  V30 COUNTS 37839 38266 0 0 0
M  V30 BEGIN ATOM
M  V30 1 H -0.908 1.98254 -0.117106 0
M  V30 2 N 0 1.576 0 0
M  V30 3 C 0.933 2.03868 1.02534 0
M  V30 4 C 1.911 0.928543 1.3348 0
M  V30 5 O 3.095 1.19667 1.45644 0
M  V30 6 C 0.222 2.43627 2.35294 0
M  V30 7 C -0.732 3.65373 2.2001 0
M  V30 8 S 0.101 5.13292 1.52614 0
M  V30 9 C 1.257 5.56322 2.86805 0
M  V30 10 H 1.49 2.90518 0.631377 0
M  V30 11 H -0.977 1.52953 0.210867 0
M  V30 12 H 0.981 2.67203 3.11629 0
M  V30 13 H -0.358 1.57376 2.7183 0
M  V30 14 H -1.165 3.90944 3.18086 0
M  V30 15 H -1.563 3.418 1.51819 0
M  V30 16 H 0.729 5.58782 3.83104 0
M  V30 17 H 1.672 6.56266 2.65933 0
M  V30 18 H 2.08 4.83886 2.90714 0
M  V30 19 N 1.4781 -0.272755 1.55222 0
M  V30 20 C 2.7261 -1.00234 1.75492 0
M  V30 21 C 3.0471 -1.8681 0.5592 0
M  V30 22 O 2.3171 -1.91215 -0.425882 0
M  V30 23 H 0.8971 -0.373076 0.647166 0
M  V30 24 H 3.5591 -0.296926 1.92625 0
M  V30 25 H 2.6551 -1.63913 2.65592 0
M  V30 26 N 2.9562 -1.48159 -0.537278 0
M  V30 27 C 3.9192 -1.61665 -1.62472 0
M  V30 28 C 4.9192 -0.490395 -1.5314 0
M  V30 29 O 6.1092 -0.755998 -1.5694 0
M  V30 30 C 3.2412 -1.57997 -3.02076 0
M  V30 31 H 4.4342 -2.58621 -1.51839 0
M  V30 32 H 1.9872 -1.36647 -0.758771 0
M  V30 33 H 2.7222 -0.624913 -3.18222 0
M  V30 34 H 2.5072 -2.39755 -3.10258 0
M  V30 35 H 3.9972 -1.70627 -3.81151 0
M  V30 36 N 4.4343 0.785586 -1.36625 0
M  V30 37 C 5.3973 1.87999 -1.31107 0
M  V30 38 C 6.3973 1.59316 -0.217959 0
M  V30 39 O 7.5873 1.67656 -0.472977 0
M  V30 40 C 4.7193 3.24861 -1.03334 0
M  V30 41 H 5.9123 1.94307 -2.2844 0
M  V30 42 H 3.4653 0.983813 -1.21453 0
M  V30 43 H 4.2003 3.24235 -0.0647432 0
M  V30 44 H 3.9853 3.4707 -1.82441 0
M  V30 45 H 5.4753 4.04929 -1.02088 0
M  V30 46 N 5.9124 1.20967 1.01018 0
M  V30 47 C 6.8754 0.965918 2.07853 0
M  V30 48 C 7.8754 -0.0610545 1.60684 0
M  V30 49 O 9.0654 0.175681 1.73312 0
M  V30 50 C 6.1974 0.455513 3.37843 0
M  V30 51 H 7.3904 1.91365 2.3091 0
M  V30 52 H 4.9434 1.02594 1.17916 0
M  V30 53 H 5.6784 -0.497381 3.20463 0
M  V30 54 H 5.4634 1.19622 3.73407 0
M  V30 55 H 6.9534 0.304667 4.16487 0
M  V30 56 N 7.3905 -1.2043 1.01659 0
M  V30 57 C 8.6385 -1.89423 0.704522 0
M  V30 58 C 8.9595 -1.79231 -0.768197 0
M  V30 59 O 8.2295 -1.1947 -1.55254 0
M  V30 60 H 6.8095 -0.701178 0.257602 0
M  V30 61 H 9.4715 -1.4626 1.28818 0
M  V30 62 H 8.5675 -2.96052 0.987916 0
M  V30 63 N 8.8686 -0.792821 -1.36206 0
M  V30 64 C 10.2846 -0.474903 -1.52371 0
M  V30 65 C 10.4846 1.00622 -1.74578 0
M  V30 66 O 9.5406 1.79162 -1.77924 0
M  V30 67 C 10.8536 -1.3083 -2.70747 0
M  V30 68 C 12.4016 -1.30234 -2.84619 0
M  V30 69 C 12.8766 -2.11956 -4.06004 0
M  V30 70 N 14.3676 -2.09419 -4.13156 0
M  V30 71 C 15.1026 -2.69419 -5.06163 0
M  V30 72 N 14.5986 -3.3829 -6.04592 0
M  V30 73 N 16.3916 -2.59134 -4.98804 0
M  V30 74 H 8.5426 -1.75222 -1.20046 0
M  V30 75 H 10.8056 -0.745024 -0.586211 0
M  V30 76 H 10.5116 -2.35881 -2.6087 0
M  V30 77 H 10.3856 -0.95196 -3.6499 0
M  V30 78 H 12.7726 -0.259748 -2.93955 0
M  V30 79 H 12.8536 -1.69847 -1.91274 0
M  V30 80 H 12.4976 -3.16248 -3.97429 0
M  V30 81 H 12.4276 -1.69711 -4.98503 0
M  V30 82 H 14.9186 -1.59297 -3.42685 0
M  V30 83 H 15.2316 -3.81394 -6.7213 0
M  V30 84 H 13.5766 -3.42393 -6.04807 0
M  V30 85 H 16.7676 -2.04927 -4.20859 0
M  V30 86 H 16.9406 -3.06185 -5.711 0
M  V30 87 N 10.3467 1.47872 -0.545128 0
M  V30 88 C 11.5717 2.07391 -0.0190611 0
M  V30 89 C 11.9967 1.39688 1.25971 0
M  V30 90 O 11.3547 0.467816 1.7516 0
M  V30 91 C 11.4027 3.60188 0.172335 0
M  V30 92 O 10.5067 3.9339 1.23766 0
M  V30 93 H 9.8477 0.662411 -0.0459059 0
M  V30 94 H 12.3777 1.90066 -0.757365 0
M  V30 95 H 12.3877 4.06129 0.390305 0
M  V30 96 H 11.0627 4.08865 -0.761725 0
M  V30 97 H 9.6397 3.5921 1.00114 0
M  V30 98 N 11.8248 0.280983 1.55075 0
M  V30 99 C 13.2358 -0.215629 1.85451 0
M  V30 100 C 13.5868 -1.54991 1.203 0
M  V30 101 O 12.7118 -2.10699 0.493435 0
M  V30 102 C 13.3068 -0.398026 3.36454 0
M  V30 103 C 11.8658 -0.838866 3.66933 0
M  V30 104 C 11.0128 0.064458 2.77225 0
M  V30 105 H 13.9638 0.502601 1.50531 0
M  V30 106 H 13.9848 -1.23569 3.59876 0
M  V30 107 H 13.4968 0.573241 3.83843 0
M  V30 108 H 11.5978 -1.8214 3.25048 0
M  V30 109 H 11.7108 -0.672123 4.74362 0
M  V30 110 H 10.0748 -0.452863 2.50642 0
M  V30 111 H 10.8578 1.03172 3.2743 0
M  V30 112 N 13.3029 -1.57598 0.00835791 0
M  V30 113 C 14.2529 -2.05431 -0.989045 0
M  V30 114 C 15.2369 -0.950662 -1.29812 0
M  V30 115 O 16.4289 -1.21438 -1.28771 0
M  V30 116 C 13.5579 -2.56801 -2.27833 0
M  V30 117 C 12.6439 -3.74058 -1.99853 0
M  V30 118 N 13.0349 -4.8544 -1.42062 0
M  V30 119 C 11.3329 -3.82148 -2.29953 0
M  V30 120 C 12.0339 -5.66817 -1.30743 0
M  V30 121 N 11.0099 -5.13077 -1.7959 0
M  V30 122 H 14.8119 -2.88955 -0.536853 0
M  V30 123 H 12.3259 -1.61199 -0.197148 0
M  V30 124 H 14.3229 -2.89349 -3.00137 0
M  V30 125 H 12.9829 -1.74699 -2.73698 0
M  V30 126 H 13.9939 -5.0612 -1.09833 0
M  V30 127 H 10.6709 -3.10916 -2.78635 0
M  V30 128 H 12.0609 -6.66343 -0.862328 0
M  V30 129 N 14.781 0.264519 -1.55364 0
M  V30 130 C 15.711 1.33121 -1.91836 0
M  V30 131 C 16.692 1.51101 -0.781192 0
M  V30 132 O 17.877 1.64003 -1.04003 0
M  V30 133 C 15.007 2.68921 -2.19769 0
M  V30 134 C 13.961 2.65661 -3.35571 0
M  V30 135 C 13.287 4.05093 -3.49004 0
M  V30 136 C 14.587 2.24187 -4.71739 0
M  V30 137 H 16.281 1.02844 -2.81182 0
M  V30 138 H 13.827 0.493286 -1.35287 0
M  V30 139 H 15.78 3.43663 -2.43872 0
M  V30 140 H 14.504 3.00799 -1.27231 0
M  V30 141 H 13.163 1.93377 -3.1145 0
M  V30 142 H 12.811 4.34206 -2.53917 0
M  V30 143 H 12.511 4.03804 -4.26868 0
M  V30 144 H 14.035 4.81561 -3.75408 0
M  V30 145 H 15.449 2.88654 -4.9533 0
M  V30 146 H 13.846 2.34044 -5.52579 0
M  V30 147 H 14.916 1.19327 -4.69988 0
M  V30 148 N 16.2591 1.48442 0.529413 0
M  V30 149 C 17.5071 1.56179 1.28267 0
M  V30 150 C 17.8281 0.237721 1.93546 0
M  V30 151 O 17.0981 -0.740779 1.81354 0
M  V30 152 H 15.6781 0.575367 0.476405 0
M  V30 153 H 18.3401 1.84909 0.61602 0
M  V30 154 H 17.4361 2.34312 2.06165 0
M  V30 155 N 17.7372 -0.778329 1.37039 0
M  V30 156 C 19.1482 -1.35421 1.28523 0
M  V30 157 C 19.4992 -1.96075 -0.0700901 0
M  V30 158 O 18.6242 -1.93352 -0.971801 0
M  V30 159 C 19.2192 -2.46211 2.32735 0
M  V30 160 C 17.7782 -2.99585 2.27873 0
M  V30 161 C 16.9252 -1.72748 2.16918 0
M  V30 162 H 19.8762 -0.5791 1.47757 0
M  V30 163 H 19.8972 -3.2552 1.9702 0
M  V30 164 H 19.4092 -2.02036 3.31365 0
M  V30 165 H 17.5102 -3.48152 1.32745 0
M  V30 166 H 17.6232 -3.55646 3.21018 0
M  V30 167 H 15.9872 -1.95416 1.63354 0
M  V30 168 H 16.7702 -1.30686 3.17452 0
M  V30 169 N 19.2153 -1.21501 -1.00376 0
M  V30 170 C 20.1783 -0.976927 -2.07337 0
M  V30 171 C 21.1783 0.0525322 -1.60714 0
M  V30 172 O 22.3683 -0.184869 -1.73216 0
M  V30 173 C 19.5003 -0.473423 -3.37597 0
M  V30 174 H 20.6933 -1.92587 -2.29892 0
M  V30 175 H 18.2463 -1.03217 -1.17371 0
M  V30 176 H 18.9813 0.480379 -3.20722 0
M  V30 177 H 18.7663 -1.216 -3.72768 0
M  V30 178 H 20.2563 -0.32675 -4.1632 0
M  V30 179 N 20.6934 1.19889 -1.02296 0
M  V30 180 C 22.1044 1.71124 -0.746568 0
M  V30 181 C 22.4554 1.81939 0.734335 0
M  V30 182 O 21.5804 1.48639 1.57275 0
M  V30 183 C 22.1754 3.10804 -1.34857 0
M  V30 184 C 20.7344 3.59323 -1.1209 0
M  V30 185 C 19.8814 2.3635 -1.45031 0
M  V30 186 H 22.8324 1.04813 -1.19163 0
M  V30 187 H 22.8534 3.73186 -0.742437 0
M  V30 188 H 22.3654 3.029 -2.42638 0
M  V30 189 H 20.4664 3.7255 -0.0610337 0
M  V30 190 H 20.5794 4.4378 -1.80544 0
M  V30 191 H 18.9434 2.39399 -0.869487 0
M  V30 192 H 19.7264 2.31081 -2.53883 0
M  V30 193 N 22.1715 0.800033 1.35784 0
M  V30 194 C 23.1345 0.211565 2.28221 0
M  V30 195 C 24.1345 -0.59728 1.49296 0
M  V30 196 O 25.3245 -0.416721 1.69142 0
M  V30 197 C 22.4565 -0.705846 3.33513 0
M  V30 198 H 23.6495 1.02677 2.81776 0
M  V30 199 H 21.2025 0.570211 1.45528 0
M  V30 200 H 21.9375 -1.54498 2.85133 0
M  V30 201 H 21.7225 -0.127655 3.91892 0
M  V30 202 H 23.2125 -1.11211 4.02519 0
M  V30 203 N 23.6496 -1.47581 0.552962 0
M  V30 204 C 25.0656 -1.5818 0.212424 0
M  V30 205 C 25.2656 -1.55213 -1.28496 0
M  V30 206 O 24.3216 -1.45329 -2.06484 0
M  V30 207 C 25.6346 -2.88865 0.835318 0
M  V30 208 C 27.1826 -3.0244 0.806156 0
M  V30 209 C 27.6576 -4.35819 1.40804 0
M  V30 210 N 29.1486 -4.42444 1.37103 0
M  V30 211 C 29.8836 -5.44202 1.80641 0
M  V30 212 N 29.3796 -6.52795 2.32015 0
M  V30 213 N 31.1726 -5.35222 1.71738 0
M  V30 214 H 23.3236 -1.47753 1.52587 0
M  V30 215 H 25.5866 -0.702941 0.636064 0
M  V30 216 H 25.2926 -2.9676 1.88749 0
M  V30 217 H 25.1666 -3.7579 0.325848 0
M  V30 218 H 27.5536 -2.94144 -0.237317 0
M  V30 219 H 27.6346 -2.17068 1.35334 0
M  V30 220 H 27.2786 -4.44871 2.45056 0
M  V30 221 H 27.2086 -5.19916 0.836338 0
M  V30 222 H 29.6996 -3.6456 0.995202 0
M  V30 223 H 30.0126 -7.26609 2.63171 0
M  V30 224 H 28.3576 -6.53696 2.36023 0
M  V30 225 H 31.5486 -4.49284 1.31382 0
M  V30 226 H 31.7216 -6.14389 2.05987 0
M  V30 227 N 25.1277 -0.289203 -1.54924 0
M  V30 228 C 26.5437 0.0645403 -1.59469 0
M  V30 229 C 26.7437 1.53419 -1.30632 0
M  V30 230 O 25.7997 2.2852 -1.074 0
M  V30 231 C 27.1127 -0.32278 -2.98963 0
M  V30 232 C 28.6607 -0.270564 -3.11828 0
M  V30 233 C 29.1357 -0.632532 -4.53611 0
M  V30 234 N 30.6267 -0.584617 -4.59496 0
M  V30 235 C 31.3617 -0.837314 -5.67254 0
M  V30 236 N 30.8577 -1.15536 -6.83098 0
M  V30 237 N 32.6507 -0.765166 -5.56868 0
M  V30 238 H 24.8017 -1.24714 -1.71931 0
M  V30 239 H 27.0647 -0.504809 -0.802416 0
M  V30 240 H 26.7707 -1.34541 -3.24948 0
M  V30 241 H 26.6447 0.32944 -3.75759 0
M  V30 242 H 29.0317 0.742805 -2.85598 0
M  V30 243 H 29.1127 -0.957242 -2.37214 0
M  V30 244 H 28.7567 -1.64365 -4.80569 0
M  V30 245 H 28.6867 0.07609 -5.26545 0
M  V30 246 H 31.1777 -0.349248 -3.76283 0
M  V30 247 H 31.4907 -1.33447 -7.61191 0
M  V30 248 H 29.8357 -1.19328 -6.84679 0
M  V30 249 H 33.0267 -0.516432 -4.65243 0
M  V30 250 H 33.1997 -0.965477 -6.40767 0
M  V30 251 N 26.6058 1.57591 -0.0167156 0
M  V30 252 C 28.0168 1.79201 0.523834 0
M  V30 253 C 28.3678 0.925796 1.72984 0
M  V30 254 O 27.4928 0.132792 2.15992 0
M  V30 255 C 28.0878 3.25 0.957091 0
M  V30 256 C 26.6468 3.47648 1.44283 0
M  V30 257 C 25.7938 2.74374 0.401757 0
M  V30 258 H 28.7448 1.56831 -0.242816 0
M  V30 259 H 28.7658 3.34031 1.82219 0
M  V30 260 H 28.2778 3.88019 0.0791415 0
M  V30 261 H 26.3788 2.89866 2.34113 0
M  V30 262 H 26.4918 4.56352 1.45877 0
M  V30 263 H 24.8558 2.39485 0.867121 0
M  V30 264 H 25.6388 3.40102 -0.467513 0
M  V30 265 N 28.0839 -0.256276 1.55502 0
M  V30 266 C 29.0159 -1.33981 1.85962 0
M  V30 267 C 30.0289 -1.44743 0.745212 0
M  V30 268 O 31.2179 -1.4626 1.02324 0
M  V30 269 C 28.3179 -2.7194 2.02242 0
M  V30 270 C 27.4909 -2.83562 3.33033 0
M  V30 271 C 26.5499 -4.02304 3.39172 0
M  V30 272 O 25.5759 -3.92273 4.12444 0
M  V30 273 N 26.7779 -5.15045 2.67784 0
M  V30 274 H 29.5429 -1.08191 2.7949 0
M  V30 275 H 27.1039 -0.446388 1.55624 0
M  V30 276 H 29.0959 -3.49697 2.03701 0
M  V30 277 H 27.6659 -2.90479 1.15502 0
M  V30 278 H 26.8859 -1.92555 3.43971 0
M  V30 279 H 28.1739 -2.88271 4.19258 0
M  V30 280 H 27.5719 -5.26085 2.07968 0
M  V30 281 H 26.1289 -5.90972 2.74947 0
M  V30 282 N 29.562 -1.4872 -0.521534 0
M  V30 283 C 30.978 -1.35028 -0.850855 0
M  V30 284 C 31.178 -0.367712 -1.98116 0
M  V30 285 O 30.234 0.208037 -2.51642 0
M  V30 286 C 31.547 -2.75263 -1.21041 0
M  V30 287 C 33.095 -2.83813 -1.31981 0
M  V30 288 C 33.57 -4.24769 -1.71276 0
M  V30 289 N 35.061 -4.27482 -1.78363 0
M  V30 290 C 35.796 -5.33494 -2.1017 0
M  V30 291 N 35.292 -6.49775 -2.40343 0
M  V30 292 N 37.085 -5.20894 -2.11248 0
M  V30 293 H 29.236 -2.11214 0.22413 0
M  V30 294 H 31.499 -0.947252 0.0376439 0
M  V30 295 H 31.205 -3.48765 -0.453415 0
M  V30 296 H 31.079 -3.09327 -2.15863 0
M  V30 297 H 33.466 -2.10561 -2.06756 0
M  V30 298 H 33.547 -2.53358 -0.352596 0
M  V30 299 H 33.191 -4.9854 -0.970588 0
M  V30 300 H 33.121 -4.52673 -2.69062 0
M  V30 301 H 35.612 -3.43611 -1.57288 0
M  V30 302 H 35.925 -7.26402 -2.63743 0
M  V30 303 H 34.27 -6.53035 -2.37844 0
M  V30 304 H 37.461 -4.29065 -1.87139 0
M  V30 305 H 37.634 -6.03612 -2.35704 0
M  V30 306 N 31.0401 0.771051 -1.3745 0
M  V30 307 C 32.2651 1.56529 -1.36065 0
M  V30 308 C 32.6901 1.88029 0.0515859 0
M  V30 309 O 32.0481 1.49282 1.02882 0
M  V30 310 C 32.0961 2.85187 -2.20683 0
M  V30 311 O 31.2001 3.79593 -1.61193 0
M  V30 312 H 30.5411 0.47411 -0.464883 0
M  V30 313 H 33.0711 0.954269 -1.80983 0
M  V30 314 H 33.0811 3.34283 -2.33921 0
M  V30 315 H 31.7561 2.61588 -3.23334 0
M  V30 316 H 30.3331 3.38239 -1.56999 0
M  V30 317 N 32.5182 1.22032 0.997298 0
M  V30 318 C 33.4482 1.01065 2.10495 0
M  V30 319 C 34.4292 -0.0669542 1.69968 0
M  V30 320 O 35.6142 0.0943987 1.9397 0
M  V30 321 C 32.7442 0.582874 3.42374 0
M  V30 322 C 31.6982 1.60592 3.96729 0
M  V30 323 C 31.0242 1.03412 5.24605 0
M  V30 324 C 32.3242 2.99478 4.27914 0
M  V30 325 H 34.0182 1.93708 2.28292 0
M  V30 326 H 31.5642 0.932761 1.09707 0
M  V30 327 H 33.5172 0.423332 4.19268 0
M  V30 328 H 32.2412 -0.379213 3.24391 0
M  V30 329 H 30.9002 1.75316 3.21963 0
M  V30 330 H 30.5482 0.063518 5.0296 0
M  V30 331 H 30.2482 1.71754 5.61938 0
M  V30 332 H 31.7722 0.886066 6.04137 0
M  V30 333 H 33.1862 2.88153 4.95622 0
M  V30 334 H 31.5832 3.64903 4.76409 0
M  V30 335 H 32.6532 3.49742 3.3587 0
M  V30 336 N 33.9963 -1.19345 1.0293 0
M  V30 337 C 34.9263 -2.2481 0.631105 0
M  V30 338 C 35.9073 -1.66245 -0.360104 0
M  V30 339 O 37.0923 -1.92677 -0.242726 0
M  V30 340 C 34.2223 -3.47295 -0.0184607 0
M  V30 341 C 33.1763 -4.18536 0.895073 0
M  V30 342 C 32.5023 -5.34586 0.110592 0
M  V30 343 C 33.8023 -4.73287 2.209 0
M  V30 344 H 35.4963 -2.58372 1.51275 0
M  V30 345 H 33.0423 -1.24194 0.728818 0
M  V30 346 H 34.9953 -4.20268 -0.308675 0
M  V30 347 H 33.7193 -3.12933 -0.934907 0
M  V30 348 H 32.3783 -3.47446 1.16949 0
M  V30 349 H 32.0263 -4.96469 -0.807902 0
M  V30 350 H 31.7263 -5.83183 0.719087 0
M  V30 351 H 33.2503 -6.10355 -0.172871 0
M  V30 352 H 34.6643 -5.38013 1.98028 0
M  V30 353 H 33.0613 -5.32373 2.76946 0
M  V30 354 H 34.1313 -3.91331 2.86336 0
M  V30 355 N 35.4744 -0.807222 -1.35358 0
M  V30 356 C 36.4044 -0.232509 -2.3234 0
M  V30 357 C 37.3854 0.642386 -1.57504 0
M  V30 358 O 38.5704 0.572526 -1.85569 0
M  V30 359 C 35.7004 0.619238 -3.41735 0
M  V30 360 C 34.6544 -0.157215 -4.27711 0
M  V30 361 C 33.9804 0.816273 -5.28433 0
M  V30 362 C 35.2804 -1.35656 -5.04376 0
M  V30 363 H 36.9744 -1.04276 -2.80654 0
M  V30 364 H 34.5204 -0.50288 -1.34934 0
M  V30 365 H 36.4734 1.03137 -4.08584 0
M  V30 366 H 35.1974 1.46239 -2.92031 0
M  V30 367 H 33.8564 -0.550525 -3.62443 0
M  V30 368 H 33.5044 1.65494 -4.74996 0
M  V30 369 H 33.2044 0.301067 -5.86828 0
M  V30 370 H 34.7284 1.22659 -5.98153 0
M  V30 371 H 36.1424 -1.01927 -5.64166 0
M  V30 372 H 34.5394 -1.8063 -5.7227 0
M  V30 373 H 35.6094 -2.14288 -4.34981 0
M  V30 374 N 36.9525 1.47285 -0.560781 0
M  V30 375 C 37.8825 2.32857 0.173105 0
M  V30 376 C 38.8635 1.44009 0.905281 0
M  V30 377 O 40.0485 1.7286 0.885046 0
M  V30 378 C 37.1785 3.25861 1.20133 0
M  V30 379 C 36.1325 4.23978 0.585388 0
M  V30 380 C 35.4585 5.06332 1.7185 0
M  V30 381 C 36.7585 5.20242 -0.463178 0
M  V30 382 H 38.4525 2.94466 -0.541307 0
M  V30 383 H 35.9985 1.41601 -0.261764 0
M  V30 384 H 37.9515 3.84569 1.72293 0
M  V30 385 H 36.6755 2.62315 1.94573 0
M  V30 386 H 35.3345 3.66501 0.085054 0
M  V30 387 H 34.9825 4.39186 2.45203 0
M  V30 388 H 34.6825 5.72762 1.31213 0
M  V30 389 H 36.2065 5.67899 2.24329 0
M  V30 390 H 37.6205 5.73293 -0.027502 0
M  V30 391 H 36.0175 5.94896 -0.788627 0
M  V30 392 H 37.0875 4.65504 -1.35773 0
M  V30 393 N 38.4306 0.297415 1.54768 0
M  V30 394 C 39.3626 -0.613881 2.20826 0
M  V30 395 C 40.3756 -1.10032 1.19987 0
M  V30 396 O 41.5646 -1.01839 1.46598 0
M  V30 397 C 38.6646 -1.852 2.83821 0
M  V30 398 C 37.8376 -1.50865 4.10559 0
M  V30 399 C 36.8966 -2.60154 4.57391 0
M  V30 400 O 35.9226 -2.25398 5.2267 0
M  V30 401 N 37.1246 -3.90629 4.29406 0
M  V30 402 H 39.8896 -0.048389 2.99661 0
M  V30 403 H 37.4506 0.11946 1.61459 0
M  V30 404 H 39.4426 -2.57652 3.12086 0
M  V30 405 H 38.0126 -2.32597 2.08847 0
M  V30 406 H 37.2326 -0.616925 3.89343 0
M  V30 407 H 38.5206 -1.25458 4.9309 0
M  V30 408 H 37.9186 -4.21677 3.77101 0
M  V30 409 H 36.4756 -4.59391 4.62388 0
M  V30 410 N 39.9087 -1.5758 0.0250728 0
M  V30 411 C 40.8387 -2.13007 -0.956575 0
M  V30 412 C 41.8197 -1.0452 -1.342 0
M  V30 413 O 43.0047 -1.32332 -1.42133 0
M  V30 414 C 40.1347 -2.65386 -2.24026 0
M  V30 415 C 39.0887 -3.78623 -1.99571 0
M  V30 416 C 38.4147 -4.17414 -3.3417 0
M  V30 417 C 39.7147 -5.04867 -1.33814 0
M  V30 418 H 41.4087 -2.9528 -0.494991 0
M  V30 419 H 38.9547 -1.42042 -0.236651 0
M  V30 420 H 40.9077 -3.02794 -2.93076 0
M  V30 421 H 39.6317 -1.80268 -2.72343 0
M  V30 422 H 38.2907 -3.41646 -1.32941 0
M  V30 423 H 37.9387 -3.29284 -3.80238 0
M  V30 424 H 37.6387 -4.93719 -3.18615 0
M  V30 425 H 39.1627 -4.57402 -4.04495 0
M  V30 426 H 40.5767 -5.39888 -1.92857 0
M  V30 427 H 38.9737 -5.86144 -1.28669 0
M  V30 428 H 40.0437 -4.83904 -0.310561 0
M  V30 429 N 41.3868 0.248026 -1.55636 0
M  V30 430 C 42.3168 1.31079 -1.93237 0
M  V30 431 C 43.2978 1.50264 -0.797174 0
M  V30 432 O 44.4828 1.62891 -1.05737 0
M  V30 433 C 41.6128 2.66575 -2.22609 0
M  V30 434 C 40.5668 2.62087 -3.3837 0
M  V30 435 C 39.8928 4.01369 -3.53281 0
M  V30 436 C 41.1928 2.19171 -4.7409 0
M  V30 437 H 42.8868 0.998556 -2.82257 0
M  V30 438 H 40.4328 0.47891 -1.35803 0
M  V30 439 H 42.3858 3.41057 -2.47503 0
M  V30 440 H 41.1098 2.99432 -1.30414 0
M  V30 441 H 39.7688 1.90063 -3.13483 0
M  V30 442 H 39.4168 4.31489 -2.58508 0
M  V30 443 H 39.1168 3.99254 -4.31127 0
M  V30 444 H 40.6408 4.77552 -3.80495 0
M  V30 445 H 42.0548 2.83384 -4.98363 0
M  V30 446 H 40.4518 2.2817 -5.5503 0
M  V30 447 H 41.5218 1.14336 -4.71227 0
M  V30 448 N 42.8649 1.48995 0.513639 0
M  V30 449 C 43.7949 1.67636 1.62544 0
M  V30 450 C 44.7759 0.525087 1.61793 0
M  V30 451 O 45.9609 0.759502 1.78732 0
M  V30 452 C 43.0909 1.73114 3.01079 0
M  V30 453 C 42.0449 2.87905 3.16693 0
M  V30 454 C 41.3709 2.78486 4.56453 0
M  V30 455 C 42.6709 4.29005 2.97913 0
M  V30 456 H 44.3649 2.60716 1.47198 0
M  V30 457 H 41.9109 1.25465 0.706714 0
M  V30 458 H 43.8639 1.84742 3.78746 0
M  V30 459 H 42.5879 0.766241 3.17484 0
M  V30 460 H 41.2469 2.75859 2.41448 0
M  V30 461 H 40.8949 1.7993 4.69717 0
M  V30 462 H 40.5949 3.55523 4.67843 0
M  V30 463 H 42.1189 2.92104 5.36197 0
M  V30 464 H 43.5329 4.41798 3.65359 0
M  V30 465 H 41.9299 5.07166 3.20785 0
M  V30 466 H 42.9999 4.44329 1.94165 0
M  V30 467 N 44.343 -0.763751 1.37857 0
M  V30 468 C 45.273 -1.89103 1.36975 0
M  V30 469 C 46.254 -1.68439 0.237152 0
M  V30 470 O 47.439 -1.8918 0.438713 0
M  V30 471 C 44.569 -3.26496 1.18395 0
M  V30 472 C 43.523 -3.61741 2.28751 0
M  V30 473 C 42.849 -4.97762 1.95286 0
M  V30 474 C 44.149 -3.67665 3.70972 0
M  V30 475 H 45.843 -1.90099 2.31307 0
M  V30 476 H 43.389 -0.91319 1.11341 0
M  V30 477 H 45.342 -4.05003 1.16406 0
M  V30 478 H 44.066 -3.25955 0.205215 0
M  V30 479 H 42.725 -2.85547 2.29909 0
M  V30 480 H 42.373 -4.93769 0.959221 0
M  V30 481 H 42.073 -5.22313 2.69189 0
M  V30 482 H 43.597 -5.7866 1.94898 0
M  V30 483 H 45.011 -4.36307 3.719 0
M  V30 484 H 43.408 -4.03718 4.43995 0
M  V30 485 H 44.478 -2.68134 4.0402 0
M  V30 486 N 45.8211 -1.22559 -0.990812 0
M  V30 487 C 47.0671 -1.05297 -1.73322 0
M  V30 488 C 47.4001 0.410655 -1.89808 0
M  V30 489 O 46.6751 1.30439 -1.44277 0
M  V30 490 C 46.9581 -1.76713 -3.13759 0
M  V30 491 C 46.8111 -3.30684 -3.04907 0
M  V30 492 C 48.1301 -1.52121 -4.12974 0
M  V30 493 H 45.2491 -0.38392 -0.629106 0
M  V30 494 H 47.8911 -1.50926 -1.15418 0
M  V30 495 H 46.0411 -1.37924 -3.63193 0
M  V30 496 H 47.7131 -3.7893 -2.63077 0
M  V30 497 H 45.9561 -3.60253 -2.41661 0
M  V30 498 H 46.6271 -3.75833 -4.04294 0
M  V30 499 H 49.1031 -1.85819 -3.72304 0
M  V30 500 H 47.9791 -2.04582 -5.0935 0
M  V30 501 H 48.2401 -0.454257 -4.3976 0
M  V30 502 N 47.2992 1.18797 -1.03562 0
M  V30 503 C 48.2622 2.20464 -0.626769 0
M  V30 504 C 49.2622 1.57721 0.313173 0
M  V30 505 O 50.4522 1.73917 0.0992615 0
M  V30 506 C 47.5842 3.40802 0.0818498 0
M  V30 507 H 48.7772 2.58149 -1.5264 0
M  V30 508 H 46.3302 1.32593 -0.827578 0
M  V30 509 H 47.0652 3.08642 0.995518 0
M  V30 510 H 46.8502 3.8758 -0.593652 0
M  V30 511 H 48.3402 4.16092 0.354584 0
M  V30 512 N 48.7773 0.814389 1.34928 0
M  V30 513 C 49.7403 0.235759 2.27984 0
M  V30 514 C 50.7403 -0.581412 1.49921 0
M  V30 515 O 51.9303 -0.398758 1.69575 0
M  V30 516 C 49.0623 -0.670433 3.34242 0
M  V30 517 H 50.2553 1.05659 2.80671 0
M  V30 518 H 47.8083 0.585614 1.44915 0
M  V30 519 H 48.5433 -1.51466 2.86755 0
M  V30 520 H 48.3283 -0.0860822 3.92005 0
M  V30 521 H 49.8183 -1.06935 4.03676 0
M  V30 522 N 50.2554 -1.46986 0.568584 0
M  V30 523 C 51.6664 -1.86188 0.138219 0
M  V30 524 C 52.0174 -1.47388 -1.29504 0
M  V30 525 O 51.1424 -0.88219 -1.97602 0
M  V30 526 C 51.7374 -3.3792 0.244065 0
M  V30 527 C 50.2964 -3.76171 -0.131335 0
M  V30 528 C 49.4434 -2.71027 0.586465 0
M  V30 529 H 52.3944 -1.38342 0.777645 0
M  V30 530 H 52.4154 -3.76729 -0.534351 0
M  V30 531 H 51.9274 -3.66128 1.28731 0
M  V30 532 H 50.0284 -3.5358 -1.17526 0
M  V30 533 H 50.1414 -4.78523 0.235146 0
M  V30 534 H 48.5054 -2.54684 0.0282722 0
M  V30 535 H 49.2884 -3.02077 1.63109 0
M  V30 536 N 51.7335 -0.305618 -1.54608 0
M  V30 537 C 52.9815 0.301701 -1.99835 0
M  V30 538 C 53.3025 1.54054 -1.19551 0
M  V30 539 O 52.5725 1.93702 -0.292658 0
M  V30 540 H 51.1525 0.114468 -0.738178 0
M  V30 541 H 53.8145 -0.418016 -1.90364 0
M  V30 542 H 52.9105 0.570548 -3.06841 0
M  V30 543 N 53.2116 1.57565 -0.0334293 0
M  V30 544 C 54.4366 1.96689 0.657895 0
M  V30 545 C 54.8616 0.910057 1.64619 0
M  V30 546 O 54.2196 -0.128598 1.80843 0
M  V30 547 C 54.2676 3.34905 1.33683 0
M  V30 548 O 53.3716 3.31574 2.45219 0
M  V30 549 H 52.7126 0.641205 0.172489 0
M  V30 550 H 55.2426 2.04372 -0.0965621 0
M  V30 551 H 55.2526 3.71234 1.69262 0
M  V30 552 H 53.9276 4.11366 0.612411 0
M  V30 553 H 52.5046 3.06968 2.11719 0
M  V30 554 N 54.6897 -0.239769 1.55765 0
M  V30 555 C 55.9177 -0.98417 1.81994 0
M  V30 556 C 56.3327 -1.7867 0.610124 0
M  V30 557 O 55.6897 -1.77571 -0.421271 0
M  V30 558 C 55.7407 -1.91635 3.06526 0
M  V30 559 O 55.4617 -1.14629 4.22838 0
M  V30 560 C 56.9627 -2.77616 3.45607 0
M  V30 561 H 54.1827 -0.28928 0.605441 0
M  V30 562 H 56.7267 -0.260499 2.02834 0
M  V30 563 H 54.8817 -2.5942 2.87715 0
M  V30 564 H 55.2957 -1.77745 4.93464 0
M  V30 565 H 56.7697 -3.38759 4.35828 0
M  V30 566 H 57.2467 -3.4909 2.6652 0
M  V30 567 H 57.8527 -2.15271 3.66795 0
M  V30 568 N 56.1678 -1.49265 -0.50573 0
M  V30 569 C 57.0998 -1.617 -1.62437 0
M  V30 570 C 58.1128 -0.499924 -1.54934 0
M  V30 571 O 59.3018 -0.771785 -1.60953 0
M  V30 572 C 56.4018 -1.5533 -3.01207 0
M  V30 573 C 55.5748 -2.8249 -3.33943 0
M  V30 574 C 54.6338 -2.69238 -4.52103 0
M  V30 575 O 53.6598 -3.43167 -4.5412 0
M  V30 576 N 54.8618 -1.80468 -5.51735 0
M  V30 577 H 57.6268 -2.58177 -1.52199 0
M  V30 578 H 55.1878 -1.46294 -0.693511 0
M  V30 579 H 57.1798 -1.44125 -3.78167 0
M  V30 580 H 55.7498 -0.667297 -3.05395 0
M  V30 581 H 54.9698 -3.08081 -2.45926 0
M  V30 582 H 56.2578 -3.66802 -3.5261 0
M  V30 583 H 55.6558 -1.19653 -5.52901 0
M  V30 584 H 54.2128 -1.75188 -6.27816 0
M  V30 585 N 57.6459 0.756429 -1.3826 0
M  V30 586 C 58.6089 1.85176 -1.35065 0
M  V30 587 C 59.6089 1.58818 -0.251703 0
M  V30 588 O 60.7989 1.66615 -0.508433 0
M  V30 589 C 57.9309 3.22596 -1.10201 0
M  V30 590 H 59.1239 1.89417 -2.3251 0
M  V30 591 H 56.6769 0.95783 -1.23512 0
M  V30 592 H 57.4119 3.24025 -0.133504 0
M  V30 593 H 57.1969 3.43122 -1.89762 0
M  V30 594 H 58.6869 4.02673 -1.10654 0
M  V30 595 N 59.124 1.23083 0.984299 0
M  V30 596 C 60.056 0.96636 2.07832 0
M  V30 597 C 61.069 -0.0582135 1.62696 0
M  V30 598 O 62.258 0.176843 1.77622 0
M  V30 599 C 59.358 0.433397 3.36117 0
M  V30 600 C 58.531 1.51722 4.10243 0
M  V30 601 C 57.59 0.989821 5.16807 0
M  V30 602 O 56.616 1.67794 5.43906 0
M  V30 603 N 57.818 -0.184367 5.80207 0
M  V30 604 H 60.583 1.90824 2.31098 0
M  V30 605 H 58.144 1.13888 1.1507 0
M  V30 606 H 60.136 0.065699 4.04647 0
M  V30 607 H 58.706 -0.413806 3.09849 0
M  V30 608 H 57.926 2.05786 3.36223 0
M  V30 609 H 59.214 2.24619 4.56534 0
M  V30 610 H 58.612 -0.760062 5.60571 0
M  V30 611 H 57.169 -0.493366 6.4993 0
M  V30 612 N 60.6021 -1.18246 1.0419 0
M  V30 613 C 61.5651 -2.20128 0.638452 0
M  V30 614 C 62.5651 -1.57885 -0.304805 0
M  V30 615 O 63.7551 -1.73967 -0.0900369 0
M  V30 616 C 60.8871 -3.4084 -0.0637751 0
M  V30 617 H 62.0801 -2.57336 1.54007 0
M  V30 618 H 59.6331 -1.32152 0.834598 0
M  V30 619 H 60.3681 -3.09166 -0.979136 0
M  V30 620 H 60.1531 -3.8726 0.614198 0
M  V30 621 H 61.6431 -4.16274 -0.332512 0
M  V30 622 N 62.0802 -0.821533 -1.34494 0
M  V30 623 C 63.0432 -0.247847 -2.27856 0
M  V30 624 C 64.0432 0.573453 -1.50227 0
M  V30 625 O 65.2332 0.389759 -1.69784 0
M  V30 626 C 62.3652 0.652698 -3.34593 0
M  V30 627 H 63.5582 -1.07146 -2.80107 0
M  V30 628 H 61.1112 -0.593291 -1.44602 0
M  V30 629 H 61.8462 1.49943 -2.87555 0
M  V30 630 H 61.6312 0.065292 -3.92046 0
M  V30 631 H 63.1212 1.04793 -4.04238 0
M  V30 632 N 63.5583 1.46682 -0.576371 0
M  V30 633 C 64.9693 1.86112 -0.148091 0
M  V30 634 C 65.3203 1.48073 1.2872 0
M  V30 635 O 64.4453 0.892656 1.97131 0
M  V30 636 C 65.0403 3.37786 -0.261982 0
M  V30 637 C 63.5993 3.76235 0.111384 0
M  V30 638 C 62.7463 2.70713 -0.60083 0
M  V30 639 H 65.6973 1.37927 -0.78497 0
M  V30 640 H 65.7183 3.77007 0.514364 0
M  V30 641 H 65.2303 3.6544 -1.30671 0
M  V30 642 H 63.3313 3.54198 1.15649 0
M  V30 643 H 63.4443 4.78391 -0.26052 0
M  V30 644 H 61.8083 2.54666 -0.0417783 0
M  V30 645 H 62.5913 3.01208 -1.64708 0
M  V30 646 N 65.0364 0.313813 1.54444 0
M  V30 647 C 66.2834 -0.291675 2.00388 0
M  V30 648 C 66.6114 -1.52904 1.2021 0
M  V30 649 O 65.8664 -1.93833 0.269707 0
M  V30 650 C 66.1654 -0.680386 3.50864 0
M  V30 651 C 65.8314 0.456699 4.48581 0
M  V30 652 C 64.4934 0.768824 4.75018 0
M  V30 653 C 66.8454 1.22098 5.06697 0
M  V30 654 C 64.1734 1.84812 5.56831 0
M  V30 655 C 66.5254 2.29029 5.89685 0
M  V30 656 C 65.1894 2.60834 6.14428 0
M  V30 657 H 64.4594 -0.106732 0.733273 0
M  V30 658 H 67.1064 0.43557 1.86481 0
M  V30 659 H 65.4114 -1.48791 3.62448 0
M  V30 660 H 67.1084 -1.16026 3.83847 0
M  V30 661 H 63.6984 0.203337 4.28117 0
M  V30 662 H 67.8824 0.993096 4.86263 0
M  V30 663 H 63.1384 2.09912 5.74236 0
M  V30 664 H 67.3124 2.887 6.33739 0
M  V30 665 H 64.9394 3.44596 6.77612 0
M  V30 666 N 66.5145 -1.57545 0.0417849 0
M  V30 667 C 67.9255 -1.80011 -0.495259 0
M  V30 668 C 68.2765 -0.953199 -1.71489 0
M  V30 669 O 67.4015 -0.167138 -2.15754 0
M  V30 670 C 67.9965 -3.26482 -0.905265 0
M  V30 671 C 66.5555 -3.499 -1.38734 0
M  V30 672 C 65.7025 -2.74979 -0.358056 0
M  V30 673 H 68.6535 -1.56425 0.267736 0
M  V30 674 H 68.6745 -3.36887 -1.76882 0
M  V30 675 H 68.1865 -3.88096 -0.017401 0
M  V30 676 H 66.2875 -2.93553 -2.29471 0
M  V30 677 H 66.4005 -4.58615 -1.38598 0
M  V30 678 H 64.7645 -2.40834 -0.828912 0
M  V30 679 H 65.5475 -3.39315 0.521561 0
M  V30 680 N 67.9926 0.231505 -1.5589 0
M  V30 681 C 68.9026 1.308 -1.94752 0
M  V30 682 C 69.9186 1.51826 -0.849989 0
M  V30 683 O 71.0946 1.6515 -1.15271 0
M  V30 684 C 68.1596 2.63968 -2.24771 0
M  V30 685 C 67.2206 2.51331 -3.48039 0
M  V30 686 C 66.4536 3.78148 -3.76616 0
M  V30 687 O 66.6766 4.80722 -3.07022 0
M  V30 688 O 65.6106 3.75857 -4.70123 0
M  V30 689 H 69.4366 1.0083 -2.86474 0
M  V30 690 H 67.0216 0.433547 -1.42971 0
M  V30 691 H 68.9036 3.42633 -2.45318 0
M  V30 692 H 67.5786 2.9364 -1.36225 0
M  V30 693 H 66.4856 1.709 -3.32782 0
M  V30 694 H 67.8186 2.26601 -4.36936 0
M  V30 695 N 69.4707 1.49531 0.497807 0
M  V30 696 C 70.4007 1.6935 1.60757 0
M  V30 697 C 71.3817 0.542218 1.61227 0
M  V30 698 O 72.5667 0.778417 1.77917 0
M  V30 699 C 69.6967 1.76298 2.99226 0
M  V30 700 C 68.6507 2.91248 3.13622 0
M  V30 701 C 67.9767 2.83312 4.53474 0
M  V30 702 C 69.2767 4.3214 2.93346 0
M  V30 703 H 70.9707 2.62263 1.44425 0
M  V30 704 H 68.5167 1.26208 0.693367 0
M  V30 705 H 70.4697 1.88749 3.76765 0
M  V30 706 H 69.1937 0.799871 3.16654 0
M  V30 707 H 67.8527 2.78404 2.38509 0
M  V30 708 H 67.5007 1.84902 4.67782 0
M  V30 709 H 67.2007 3.60465 4.64046 0
M  V30 710 H 68.7247 2.97775 5.33069 0
M  V30 711 H 70.1387 4.45649 3.60652 0
M  V30 712 H 68.5357 5.1054 3.15387 0
M  V30 713 H 69.6057 4.46363 1.89441 0
M  V30 714 N 70.9488 -0.749086 1.3866 0
M  V30 715 C 72.1888 -1.52112 1.36534 0
M  V30 716 C 72.5528 -1.91951 -0.0432316 0
M  V30 717 O 73.7538 -2.68132 -0.189396 0
M  V30 718 C 72.0248 -2.73704 2.29828 0
M  V30 719 S 73.5838 -3.63519 2.45763 0
M  V30 720 H 70.4018 -0.520482 0.484375 0
M  V30 721 H 73.0038 -0.878963 1.74627 0
M  V30 722 H 71.7078 -2.42552 3.31054 0
M  V30 723 H 71.2388 -3.4286 1.929 0
M  V30 724 H 73.2538 -4.66712 1.68505 0
M  V30 725 N 72.4269 -1.23603 -0.977757 0
M  V30 726 C 73.6519 -1.09735 -1.75991 0
M  V30 727 C 74.0769 0.346858 -1.84874 0
M  V30 728 O 73.4349 1.25093 -1.3123 0
M  V30 729 C 73.4829 -1.73051 -3.16363 0
M  V30 730 O 72.5869 -0.994452 -4.0023 0
M  V30 731 H 71.9279 -0.384476 -0.541364 0
M  V30 732 H 74.4579 -1.6371 -1.2272 0
M  V30 733 H 74.4679 -1.78398 -3.66931 0
M  V30 734 H 73.1429 -2.78137 -3.09213 0
M  V30 735 H 71.7199 -1.01812 -3.58732 0
M  V30 736 N 73.905 1.17692 -1.04816 0
M  V30 737 C 75.135 1.91508 -0.775128 0
M  V30 738 C 75.543 1.76844 0.67253 0
M  V30 739 O 74.886 1.10057 1.47082 0
M  V30 740 C 74.948 3.43167 -1.0713 0
M  V30 741 C 74.612 3.81612 -2.51438 0
M  V30 742 C 75.609 3.84772 -3.49638 0
M  V30 743 C 73.294 4.12687 -2.86348 0
M  V30 744 C 75.288 4.18469 -4.80794 0
M  V30 745 C 72.975 4.46053 -4.17708 0
M  V30 746 C 73.973 4.48921 -5.14741 0
M  V30 747 O 73.661 4.81504 -6.43746 0
M  V30 748 H 73.393 0.614575 -0.281555 0
M  V30 749 H 75.947 1.50206 -1.40098 0
M  V30 750 H 74.177 3.84745 -0.388342 0
M  V30 751 H 75.866 3.98239 -0.784883 0
M  V30 752 H 76.632 3.60893 -3.24008 0
M  V30 753 H 72.511 4.09627 -2.11486 0
M  V30 754 H 76.055 4.20623 -5.56527 0
M  V30 755 H 71.952 4.69393 -4.43103 0
M  V30 756 H 72.72 4.99377 -6.4851 0
M  V30 757 N 75.3831 0.828654 1.34056 0
M  V30 758 C 76.6111 0.43262 2.02326 0
M  V30 759 C 77.0261 -0.963147 1.62385 0
M  V30 760 O 76.3831 -1.62425 0.832121 0
M  V30 761 C 76.4341 0.53182 3.57567 0
M  V30 762 O 76.1551 1.87258 3.96063 0
M  V30 763 C 77.6561 0.131422 4.43105 0
M  V30 764 H 74.8761 0.172923 0.648335 0
M  V30 765 H 77.4201 1.1184 1.71208 0
M  V30 766 H 75.5751 -0.105938 3.87255 0
M  V30 767 H 75.9891 1.85087 4.90758 0
M  V30 768 H 77.4631 0.251904 5.51425 0
M  V30 769 H 77.9401 -0.925645 4.29335 0
M  V30 770 H 78.5461 0.743207 4.18756 0
M  V30 771 N 76.8612 -1.46375 0.584142 0
M  V30 772 C 78.1072 -2.03248 0.0787103 0
M  V30 773 C 78.4622 -1.44737 -1.26763 0
M  V30 774 O 77.7552 -0.603625 -1.81843 0
M  V30 775 C 77.9492 -3.57373 -0.0439342 0
M  V30 776 C 77.7782 -4.30831 1.28897 0
M  V30 777 C 76.5482 -4.69683 1.8635 0
M  V30 778 C 78.7462 -4.64278 2.21248 0
M  V30 779 N 76.7282 -5.27898 3.13365 0
M  V30 780 C 78.0992 -5.23078 3.32851 0
M  V30 781 C 80.1542 -4.46209 2.20911 0
M  V30 782 C 78.8572 -5.65715 4.44251 0
M  V30 783 C 80.8832 -4.89864 3.31341 0
M  V30 784 C 80.2452 -5.48736 4.41665 0
M  V30 785 H 76.3442 -0.778714 0.0716144 0
M  V30 786 H 78.9282 -1.78509 0.777355 0
M  V30 787 H 77.0992 -3.81823 -0.711749 0
M  V30 788 H 78.8312 -4.00892 -0.553881 0
M  V30 789 H 75.5862 -4.52488 1.39826 0
M  V30 790 H 76.0102 -5.61525 3.78178 0
M  V30 791 H 80.6522 -4.00027 1.36888 0
M  V30 792 H 78.3702 -6.10875 5.29015 0
M  V30 793 H 81.9562 -4.77634 3.322 0
M  V30 794 H 80.8362 -5.81898 5.25704 0
M  V30 795 N 78.3393 -0.321999 -1.54275 0
M  V30 796 C 79.2493 0.553631 -2.27974 0
M  V30 797 C 80.2653 1.13054 -1.32268 0
M  V30 798 O 81.4413 1.15084 -1.6528 0
M  V30 799 C 78.5063 1.69927 -3.02201 0
M  V30 800 C 77.5673 1.15433 -4.1349 0
M  V30 801 C 76.8003 2.24537 -4.84168 0
M  V30 802 O 77.0233 3.44852 -4.5435 0
M  V30 803 O 75.9573 1.90044 -5.7111 0
M  V30 804 H 79.7833 -0.0448345 -3.03667 0
M  V30 805 H 77.3683 -0.0877418 -1.49142 0
M  V30 806 H 79.2503 2.3663 -3.48689 0
M  V30 807 H 77.9253 2.28395 -2.29385 0
M  V30 808 H 76.8323 0.452436 -3.71354 0
M  V30 809 H 78.1653 0.614805 -4.88345 0
M  V30 810 N 79.8174 1.5752 -0.0501392 0
M  V30 811 C 80.7804 2.1037 0.909786 0
M  V30 812 C 81.7804 1.02308 1.24056 0
M  V30 813 O 82.9704 1.28385 1.17741 0
M  V30 814 C 80.1024 2.58708 2.21998 0
M  V30 815 H 81.2954 2.96479 0.451665 0
M  V30 816 H 78.8484 1.55038 0.198248 0
M  V30 817 H 79.5834 1.75989 2.72394 0
M  V30 818 H 79.3684 3.37675 1.99295 0
M  V30 819 H 80.8584 2.99747 2.9076 0
M  V30 820 N 81.2955 -0.223234 1.56011 0
M  V30 821 C 82.5415 -0.949279 1.79211 0
M  V30 822 C 82.8745 -1.84054 0.619494 0
M  V30 823 O 82.1495 -1.90726 -0.381317 0
M  V30 824 C 82.4325 -1.78965 3.12479 0
M  V30 825 C 82.2855 -0.924997 4.40186 0
M  V30 826 C 83.6045 -2.76774 3.42175 0
M  V30 827 H 80.7235 -0.343676 0.651963 0
M  V30 828 H 83.3655 -0.218253 1.88742 0
M  V30 829 H 81.5155 -2.41291 3.04485 0
M  V30 830 H 83.1875 -0.318615 4.60198 0
M  V30 831 H 81.4305 -0.230344 4.33188 0
M  V30 832 H 82.1015 -1.54735 5.29869 0
M  V30 833 H 84.5775 -2.24584 3.50287 0
M  V30 834 H 83.4535 -3.32678 4.36597 0
M  V30 835 H 83.7145 -3.54429 2.64258 0
M  V30 836 N 82.7736 -1.49793 -0.48987 0
M  V30 837 C 84.0506 -1.50348 -1.25119 0
M  V30 838 C 84.4306 -0.237466 -2.0976 0
M  V30 839 O 83.7786 0.77981 -2.14782 0
M  V30 840 C 83.9886 -2.78872 -2.09837 0
M  V30 841 C 85.3366 -3.288 -2.68655 0
M  V30 842 O 86.3606 -2.80065 -2.20096 0
M  V30 843 O 85.2196 -4.13707 -3.57083 0
M  V30 844 H 82.3136 -0.602242 -0.566775 0
M  V30 845 H 84.8596 -1.62067 -0.503229 0
M  V30 846 H 83.6316 -3.62499 -1.47343 0
M  V30 847 H 83.2546 -2.70066 -2.91805 0
M  V30 848 N 84.2517 0.741722 -1.39055 0
M  V30 849 C 85.4797 1.53098 -1.39171 0
M  V30 850 C 85.8947 1.88794 0.0155099 0
M  V30 851 O 85.2517 1.53626 0.985159 0
M  V30 852 C 85.3027 2.82274 -2.2584 0
M  V30 853 O 85.0237 2.48097 -3.61081 0
M  V30 854 C 86.5247 3.76343 -2.34266 0
M  V30 855 H 83.7447 0.473335 -0.4756 0
M  V30 856 H 86.2887 0.917045 -1.82785 0
M  V30 857 H 84.4437 3.40015 -1.85656 0
M  V30 858 H 84.8577 3.31029 -4.06842 0
M  V30 859 H 86.3317 4.63898 -2.9917 0
M  V30 860 H 86.8087 4.17619 -1.35982 0
M  V30 861 H 87.4147 3.24523 -2.74891 0
M  V30 862 N 85.7298 1.2412 0.971189 0
M  V30 863 C 86.6768 1.0305 2.06517 0
M  V30 864 C 87.6468 -0.0550666 1.66009 0
M  V30 865 O 88.8318 0.0988688 1.90544 0
M  V30 866 C 85.9718 0.637653 3.39158 0
M  V30 867 C 85.0848 1.79633 3.92882 0
M  V30 868 C 84.2198 1.34939 5.13775 0
M  V30 869 C 83.2588 2.47823 5.59687 0
M  V30 870 N 82.3958 2.04022 6.71803 0
M  V30 871 H 87.2358 1.96685 2.23873 0
M  V30 872 H 84.7728 0.979694 1.09729 0
M  V30 873 H 86.7308 0.390931 4.15364 0
M  V30 874 H 85.3608 -0.261693 3.21737 0
M  V30 875 H 84.4128 2.15681 3.13346 0
M  V30 876 H 85.7248 2.64466 4.22918 0
M  V30 877 H 84.8788 1.06134 5.97345 0
M  V30 878 H 83.6178 0.471557 4.85415 0
M  V30 879 H 82.6228 2.77392 4.74693 0
M  V30 880 H 83.8478 3.36158 5.90063 0
M  V30 881 H 81.7938 1.18632 6.45184 0
M  V30 882 H 81.7108 2.82409 7.01271 0
M  V30 883 H 82.9788 1.78347 7.58823 0
M  V30 884 N 87.2079 -1.17134 1.05439 0
M  V30 885 C 88.1559 -2.23289 0.651511 0
M  V30 886 C 89.1499 -1.66186 -0.328411 0
M  V30 887 O 90.3559 -1.78949 -0.194206 0
M  V30 888 H 86.7309 -0.726938 0.192523 0
M  V30 889 H 88.7019 -2.54565 1.55689 0
M  V30 890 C 87.4509 -3.47671 0.0448436 0
M  V30 891 H 86.7739 -3.91918 0.78996 0
M  V30 892 H 88.2139 -4.2353 -0.19964 0
M  V30 893 C 86.6729 -3.14453 -1.20918 0
M  V30 894 O 87.2029 -3.29459 -2.29825 0
M  V30 895 N 85.4089 -2.68657 -1.10779 0
M  V30 896 H 84.9559 -2.56646 -0.221526 0
M  V30 897 H 84.9139 -2.46804 -1.9477 0
M  V30 898 N 88.686 -0.835752 -1.33615 0
M  V30 899 C 89.634 -0.255238 -2.31195 0
M  V30 900 C 90.628 0.61107 -1.57995 0
M  V30 901 O 91.834 0.500979 -1.72888 0
M  V30 902 H 88.209 -0.0638085 -0.749288 0
M  V30 903 H 90.18 -1.09283 -2.77669 0
M  V30 904 C 88.929 0.55754 -3.43201 0
M  V30 905 H 88.252 -0.0997553 -3.99676 0
M  V30 906 H 89.692 0.929622 -4.13683 0
M  V30 907 C 88.151 1.73515 -2.88781 0
M  V30 908 O 88.681 2.83376 -2.84712 0
M  V30 909 N 86.887 1.55603 -2.4543 0
M  V30 910 H 86.434 0.662354 -2.48939 0
M  V30 911 H 86.392 2.34545 -2.09371 0
M  V30 912 N 90.1641 1.46063 -0.591896 0
M  V30 913 C 91.4101 2.02638 -0.0811191 0
M  V30 914 C 91.7431 1.4613 1.27905 0
M  V30 915 O 91.0181 0.629908 1.84017 0
M  V30 916 C 91.3011 3.60091 -0.0252436 0
M  V30 917 C 91.1541 4.26965 -1.41496 0
M  V30 918 C 92.4731 4.3496 0.670685 0
M  V30 919 H 89.5921 0.73635 -0.0309524 0
M  V30 920 H 92.2341 1.741 -0.760859 0
M  V30 921 H 90.3841 3.84535 0.553624 0
M  V30 922 H 92.0561 4.13756 -2.0397 0
M  V30 923 H 90.2991 3.85971 -1.98011 0
M  V30 924 H 90.9701 5.35781 -1.32825 0
M  V30 925 H 93.4461 4.15716 0.178825 0
M  V30 926 H 92.3221 5.44686 0.678837 0
M  V30 927 H 92.5831 4.06685 1.73379 0
M  V30 928 N 91.6422 0.330177 1.54103 0
M  V30 929 C 92.5722 -0.525353 2.27513 0
M  V30 930 C 93.5532 -1.11383 1.2856 0
M  V30 931 O 94.7382 -1.13773 1.57383 0
M  V30 932 C 91.8682 -1.6831 3.03791 0
M  V30 933 C 90.8222 -1.2236 4.10137 0
M  V30 934 C 90.1482 -2.46882 4.74293 0
M  V30 935 C 91.4482 -0.333697 5.21233 0
M  V30 936 H 93.1422 0.087013 2.99274 0
M  V30 937 H 90.6882 0.0432893 1.43935 0
M  V30 938 H 92.6412 -2.28795 3.5388 0
M  V30 939 H 91.3652 -2.32216 2.29659 0
M  V30 940 H 90.0242 -0.64165 3.60941 0
M  V30 941 H 89.6722 -3.09165 3.96769 0
M  V30 942 H 89.3722 -2.16825 5.46133 0
M  V30 943 H 90.8962 -3.08117 5.27159 0
M  V30 944 H 92.3102 -0.845013 5.67038 0
M  V30 945 H 90.7072 -0.125612 5.99969 0
M  V30 946 H 91.7772 0.633724 4.80741 0
M  V30 947 N 93.1203 -1.57491 0.0584922 0
M  V30 948 C 94.3503 -1.9701 -0.622134 0
M  V30 949 C 94.7583 -0.935034 -1.6448 0
M  V30 950 O 94.1013 0.0882904 -1.83488 0
M  V30 951 C 94.1633 -3.32794 -1.35972 0
M  V30 952 C 93.8273 -4.54343 -0.492043 0
M  V30 953 C 94.8243 -5.19323 0.244901 0
M  V30 954 C 92.5093 -5.00534 -0.420821 0
M  V30 955 C 94.5033 -6.28835 1.04143 0
M  V30 956 C 92.1903 -6.09921 0.379389 0
M  V30 957 C 93.1883 -6.73933 1.10919 0
M  V30 958 O 92.8763 -7.81216 1.89623 0
M  V30 959 H 92.6083 -0.653127 -0.174359 0
M  V30 960 H 95.1623 -2.05029 0.123418 0
M  V30 961 H 93.3923 -3.21351 -2.15105 0
M  V30 962 H 95.0813 -3.5701 -1.93129 0
M  V30 963 H 95.8473 -4.8459 0.19939 0
M  V30 964 H 91.7263 -4.50496 -0.978474 0
M  V30 965 H 95.2703 -6.7873 1.61157 0
M  V30 966 H 91.1673 -6.44089 0.426512 0
M  V30 967 H 91.9353 -7.98029 1.81913 0
M  V30 968 N 94.5984 0.214957 -1.56127 0
M  V30 969 C 95.5454 1.26642 -1.92952 0
M  V30 970 C 96.5154 1.46244 -0.78753 0
M  V30 971 O 97.7004 1.59704 -1.04399 0
M  V30 972 C 94.8404 2.6104 -2.25726 0
M  V30 973 C 93.9534 2.49183 -3.52891 0
M  V30 974 C 93.0884 3.76149 -3.7508 0
M  V30 975 C 92.1274 3.59041 -4.95738 0
M  V30 976 N 91.2644 4.77972 -5.14283 0
M  V30 977 H 96.1044 0.945384 -2.82607 0
M  V30 978 H 93.6414 0.455489 -1.3987 0
M  V30 979 H 95.5994 3.39313 -2.42739 0
M  V30 980 H 94.2294 2.91227 -1.39236 0
M  V30 981 H 93.2814 1.6231 -3.44034 0
M  V30 982 H 94.5934 2.32466 -4.41318 0
M  V30 983 H 93.7474 4.62865 -3.92226 0
M  V30 984 H 92.4864 3.95799 -2.84947 0
M  V30 985 H 91.4914 2.7071 -4.78535 0
M  V30 986 H 92.7164 3.40856 -5.87362 0
M  V30 987 H 90.6624 4.97923 -4.27093 0
M  V30 988 H 90.5794 4.64006 -5.96853 0
M  V30 989 H 91.8474 5.66096 -5.35869 0
M  V30 990 N 96.0765 1.50051 0.48192 0
M  V30 991 C 97.3255 1.59741 1.23149 0
M  V30 992 C 97.6385 0.298163 1.93314 0
M  V30 993 O 98.8445 0.273835 2.70116 0
M  V30 994 C 97.3005 2.81926 2.23708 0
M  V30 995 C 96.9085 4.18685 1.59396 0
M  V30 996 C 98.6525 3.00956 2.99375 0
M  V30 997 C 96.5595 5.3207 2.58178 0
M  V30 998 H 95.4895 0.594838 0.46334 0
M  V30 999 H 98.1405 1.76467 0.503169 0
M  V30 1000 H 96.5225 2.58736 2.99786 0
M  V30 1001 H 97.6965 4.52088 0.891811 0
M  V30 1002 H 96.0115 4.05171 0.960503 0
M  V30 1003 H 98.6085 3.82836 3.73283 0
M  V30 1004 H 98.9515 2.12258 3.58123 0
M  V30 1005 H 99.4845 3.24277 2.30411 0
M  V30 1006 H 96.2235 6.22888 2.04184 0
M  V30 1007 H 95.7435 5.03098 3.26577 0
M  V30 1008 H 97.4225 5.62196 3.20225 0
M  V30 1009 N 97.5546 -0.734337 1.39446 0
M  V30 1010 C 98.5026 -1.86971 1.38364 0
M  V30 1011 C 99.4966 -1.67288 0.266687 0
M  V30 1012 O 100.703 -1.74621 0.436755 0
M  V30 1013 H 97.0776 -0.615474 0.432082 0
M  V30 1014 H 99.0486 -1.85 2.34132 0
M  V30 1015 C 97.7976 -3.2466 1.24465 0
M  V30 1016 H 97.1206 -3.40402 2.09682 0
M  V30 1017 H 98.5606 -4.04292 1.27764 0
M  V30 1018 C 97.0196 -3.36867 -0.0468674 0
M  V30 1019 O 97.5496 -3.88618 -1.01681 0
M  V30 1020 N 95.7556 -2.90391 -0.110145 0
M  V30 1021 H 95.3026 -2.48466 0.679868 0
M  V30 1022 H 95.2606 -2.98939 -0.973799 0
M  V30 1023 N 99.0327 -1.24633 -0.964593 0
M  V30 1024 C 100.282 -1.08188 -1.7023 0
M  V30 1025 C 100.595 0.37873 -1.91898 0
M  V30 1026 O 101.801 0.663427 -2.6327 0
M  V30 1027 C 100.257 -1.88773 -3.06419 0
M  V30 1028 C 99.8647 -3.39263 -2.92582 0
M  V30 1029 C 101.609 -1.80867 -3.84041 0
M  V30 1030 C 99.5157 -4.1218 -4.24101 0
M  V30 1031 H 98.4457 -0.401245 -0.638372 0
M  V30 1032 H 101.097 -1.48742 -1.07462 0
M  V30 1033 H 99.4787 -1.41035 -3.70034 0
M  V30 1034 H 100.653 -3.94603 -2.37961 0
M  V30 1035 H 98.9677 -3.48154 -2.28424 0
M  V30 1036 H 101.565 -2.32646 -4.81435 0
M  V30 1037 H 101.908 -0.774543 -4.09031 0
M  V30 1038 H 102.441 -2.26301 -3.27159 0
M  V30 1039 H 99.1797 -5.15965 -4.04303 0
M  V30 1040 H 98.6997 -3.61626 -4.78526 0
M  V30 1041 H 100.379 -4.19349 -4.92702 0
M  V30 1042 N 100.511 1.16574 -1.06058 0
M  V30 1043 C 101.751 1.88723 -0.78504 0
M  V30 1044 C 102.115 1.79706 0.676006 0
M  V30 1045 O 103.316 2.46757 1.06603 0
M  V30 1046 C 101.587 3.34338 -1.26304 0
M  V30 1047 S 103.146 4.24366 -1.1162 0
M  V30 1048 H 99.9638 0.651448 -0.284846 0
M  V30 1049 H 102.566 1.40732 -1.35701 0
M  V30 1050 H 101.27 3.38439 -2.32136 0
M  V30 1051 H 100.801 3.87378 -0.685719 0
M  V30 1052 H 102.816 4.96179 -0.0456539 0
M  V30 1053 N 101.989 0.842826 1.3317 0
M  V30 1054 C 103.237 0.439577 1.97262 0
M  V30 1055 C 103.558 -1.00548 1.67078 0
M  V30 1056 O 102.828 -1.70098 0.971779 0
M  V30 1057 H 101.408 0.159558 0.72976 0
M  V30 1058 H 104.07 1.07665 1.62463 0
M  V30 1059 H 103.166 0.574886 3.0676 0
M  V30 1060 N 103.467 -1.45747 0.599634 0
M  V30 1061 C 104.692 -2.07178 0.0960198 0
M  V30 1062 C 105.117 -1.44268 -1.207 0
M  V30 1063 O 104.475 -0.532503 -1.73303 0
M  V30 1064 C 104.523 -3.60579 -0.0385348 0
M  V30 1065 O 103.627 -3.97713 -1.0908 0
M  V30 1066 H 102.968 -0.660251 0.0704593 0
M  V30 1067 H 105.498 -1.87124 0.827385 0
M  V30 1068 H 105.508 -4.07298 -0.239304 0
M  V30 1069 H 104.183 -4.05756 0.912947 0
M  V30 1070 H 102.76 -3.62678 -0.867135 0
M  V30 1071 N 104.945 -0.338344 -1.53925 0
M  V30 1072 C 106.191 0.260143 -2.01125 0
M  V30 1073 C 106.524 1.50617 -1.22589 0
M  V30 1074 O 105.799 1.91979 -0.312113 0
M  V30 1075 C 106.082 0.579499 -3.55407 0
M  V30 1076 C 105.935 -0.678264 -4.44657 0
M  V30 1077 C 107.254 1.39122 -4.17532 0
M  V30 1078 H 104.373 0.0930772 -0.731099 0
M  V30 1079 H 107.015 -0.457852 -1.84401 0
M  V30 1080 H 105.165 1.19118 -3.69788 0
M  V30 1081 H 106.837 -1.31631 -4.42121 0
M  V30 1082 H 105.08 -1.3042 -4.13731 0
M  V30 1083 H 105.751 -0.410143 -5.50474 0
M  V30 1084 H 108.227 0.874035 -4.06817 0
M  V30 1085 H 107.103 1.58342 -5.25565 0
M  V30 1086 H 107.364 2.39178 -3.71815 0
M  V30 1087 N 106.423 1.57458 -0.0668435 0
M  V30 1088 C 107.7 1.8469 0.644132 0
M  V30 1089 C 108.08 0.958343 1.88093 0
M  V30 1090 O 107.428 0.0233579 2.28488 0
M  V30 1091 C 107.638 3.34767 0.986509 0
M  V30 1092 C 108.986 4.02159 1.36212 0
M  V30 1093 O 110.01 3.39484 1.07839 0
M  V30 1094 O 108.869 5.12694 1.89227 0
M  V30 1095 H 105.963 0.762816 0.319437 0
M  V30 1096 H 108.509 1.6942 -0.0973986 0
M  V30 1097 H 107.281 3.91151 0.107883 0
M  V30 1098 H 106.904 3.55281 1.78497 0
M  V30 1099 N 107.901 -0.206675 1.56239 0
M  V30 1100 C 109.15 -0.926964 1.79138 0
M  V30 1101 C 109.463 -1.84901 0.638043 0
M  V30 1102 O 110.669 -2.60906 0.751033 0
M  V30 1103 C 109.125 -1.6986 3.17294 0
M  V30 1104 C 108.733 -0.821956 4.40395 0
M  V30 1105 C 110.477 -2.40922 3.4951 0
M  V30 1106 C 108.384 -1.59179 5.69575 0
M  V30 1107 H 107.314 -0.349864 0.667915 0
M  V30 1108 H 109.965 -0.180487 1.8261 0
M  V30 1109 H 108.347 -2.48853 3.08039 0
M  V30 1110 H 109.521 -0.0715019 4.60745 0
M  V30 1111 H 107.836 -0.222741 4.15804 0
M  V30 1112 H 110.433 -2.99047 4.43255 0
M  V30 1113 H 110.776 -3.14542 2.72707 0
M  V30 1114 H 111.309 -1.68905 3.60161 0
M  V30 1115 H 108.048 -0.898589 6.49312 0
M  V30 1116 H 107.568 -2.31648 5.53262 0
M  V30 1117 H 109.247 -2.14862 6.10281 0
M  V30 1118 N 109.379 -1.50304 -0.473955 0
M  V30 1119 C 110.625 -1.61389 -1.22806 0
M  V30 1120 C 110.958 -0.311955 -1.91678 0
M  V30 1121 O 110.233 0.686384 -1.81986 0
M  V30 1122 C 110.516 -2.79219 -2.27396 0
M  V30 1123 C 110.369 -4.19286 -1.62848 0
M  V30 1124 C 111.688 -2.92614 -3.28732 0
M  V30 1125 H 108.807 -0.587399 -0.445119 0
M  V30 1126 H 111.449 -1.82681 -0.522265 0
M  V30 1127 H 109.599 -2.61195 -2.87592 0
M  V30 1128 H 111.271 -4.48892 -1.06271 0
M  V30 1129 H 109.514 -4.23677 -0.931693 0
M  V30 1130 H 110.185 -4.97655 -2.38838 0
M  V30 1131 H 112.661 -3.09105 -2.78556 0
M  V30 1132 H 111.537 -3.76688 -3.99246 0
M  V30 1133 H 111.798 -2.03107 -3.92683 0
M  V30 1134 N 110.857 0.726932 -1.39834 0
M  V30 1135 C 111.789 1.85147 -1.35104 0
M  V30 1136 C 112.802 1.60736 -0.258392 0
M  V30 1137 O 113.991 1.70821 -0.517931 0
M  V30 1138 C 111.091 3.21332 -1.07697 0
M  V30 1139 C 110.264 3.73033 -2.28396 0
M  V30 1140 C 109.323 4.87802 -1.97322 0
M  V30 1141 O 108.349 5.01043 -2.70083 0
M  V30 1142 N 109.551 5.72768 -0.944273 0
M  V30 1143 H 112.316 1.89706 -2.32017 0
M  V30 1144 H 109.877 0.908006 -1.3404 0
M  V30 1145 H 111.869 3.95691 -0.849144 0
M  V30 1146 H 110.439 3.11992 -0.194909 0
M  V30 1147 H 109.659 2.89934 -2.6708 0
M  V30 1148 H 110.947 4.0431 -3.08887 0
M  V30 1149 H 110.345 5.64669 -0.341427 0
M  V30 1150 H 108.902 6.4716 -0.776346 0
M  V30 1151 N 112.336 1.25143 0.95797 0
M  V30 1152 C 113.576 1.10893 1.71703 0
M  V30 1153 C 113.94 -0.34478 1.88879 0
M  V30 1154 O 115.141 -0.609014 2.6181 0
M  V30 1155 C 113.412 1.83889 3.06463 0
M  V30 1156 S 114.971 1.85491 3.97666 0
M  V30 1157 H 111.789 0.396428 0.590226 0
M  V30 1158 H 114.391 1.58618 1.14283 0
M  V30 1159 H 113.095 2.88756 2.9163 0
M  V30 1160 H 112.626 1.36538 3.68946 0
M  V30 1161 H 114.641 0.929553 4.87415 0
M  V30 1162 N 113.814 -1.1601 1.06675 0
M  V30 1163 C 115.062 -1.86264 0.784229 0
M  V30 1164 C 115.383 -1.82328 -0.691488 0
M  V30 1165 O 114.653 -1.25947 -1.50047 0
M  V30 1166 H 113.233 -0.689621 0.28711 0
M  V30 1167 H 115.895 -1.40664 1.34906 0
M  V30 1168 H 114.991 -2.91595 1.11259 0
M  V30 1169 N 115.292 -0.849877 -1.32721 0
M  V30 1170 C 116.703 -0.506188 -1.79707 0
M  V30 1171 C 117.054 0.975627 -1.70223 0
M  V30 1172 O 116.179 1.76078 -1.25799 0
M  V30 1173 C 116.774 -0.912044 -3.26293 0
M  V30 1174 C 115.333 -0.620326 -3.71253 0
M  V30 1175 C 114.48 -1.11439 -2.53922 0
M  V30 1176 H 117.431 -1.03754 -1.20087 0
M  V30 1177 H 117.452 -0.226493 -3.79825 0
M  V30 1178 H 116.964 -1.99057 -3.33164 0
M  V30 1179 H 115.065 0.447674 -3.69901 0
M  V30 1180 H 115.178 -1.18327 -4.64258 0
M  V30 1181 H 113.542 -0.534834 -2.49021 0
M  V30 1182 H 114.325 -2.19992 -2.6355 0
M  V30 1183 N 116.77 1.45427 -0.607355 0
M  V30 1184 C 117.995 2.07124 -0.107006 0
M  V30 1185 C 118.42 1.44906 1.19933 0
M  V30 1186 O 117.778 0.541687 1.73019 0
M  V30 1187 C 117.826 3.60595 0.0194119 0
M  V30 1188 O 116.93 3.98285 1.0697 0
M  V30 1189 H 116.271 0.659868 -0.0739597 0
M  V30 1190 H 118.801 1.86683 -0.837297 0
M  V30 1191 H 118.811 4.07419 0.2177 0
M  V30 1192 H 117.486 4.05266 -0.934453 0
M  V30 1193 H 116.063 3.63133 0.847889 0
M  V30 1194 N 118.248 0.346503 1.53744 0
M  V30 1195 C 119.473 -0.253074 2.0585 0
M  V30 1196 C 119.898 -1.43202 1.21962 0
M  V30 1197 O 119.256 -1.79783 0.234073 0
M  V30 1198 C 119.304 -0.643193 3.54817 0
M  V30 1199 O 118.408 -1.74286 3.73762 0
M  V30 1200 H 117.749 -0.0413583 0.662711 0
M  V30 1201 H 120.279 0.501574 1.98357 0
M  V30 1202 H 120.289 -0.919526 3.97503 0
M  V30 1203 H 118.964 0.218966 4.15323 0
M  V30 1204 H 117.541 -1.46356 3.42979 0
M  V30 1205 N 119.726 -1.57421 0.075193 0
M  V30 1206 C 120.689 -2.11791 -0.876203 0
M  V30 1207 C 121.689 -1.04268 -1.22412 0
M  V30 1208 O 122.879 -1.30242 -1.15684 0
M  V30 1209 C 120.011 -2.62207 -2.17854 0
M  V30 1210 H 121.204 -2.9716 -0.40444 0
M  V30 1211 H 118.757 -1.55333 -0.173557 0
M  V30 1212 H 119.492 -1.803 -2.6956 0
M  V30 1213 H 119.277 -3.40802 -1.93897 0
M  V30 1214 H 120.767 -3.04335 -2.85955 0
M  V30 1215 N 121.204 0.198386 -1.56346 0
M  V30 1216 C 122.45 0.920648 -1.80698 0
M  V30 1217 C 122.783 1.83045 -0.648697 0
M  V30 1218 O 122.058 1.91308 0.350925 0
M  V30 1219 C 122.341 1.73971 -3.15287 0
M  V30 1220 C 122.194 0.85485 -4.41602 0
M  V30 1221 C 123.513 2.71296 -3.46535 0
M  V30 1222 H 120.632 0.333261 -0.657348 0
M  V30 1223 H 123.274 0.188198 -1.89066 0
M  V30 1224 H 121.424 2.36416 -3.08285 0
M  V30 1225 H 123.096 0.245362 -4.60647 0
M  V30 1226 H 121.339 0.161398 -4.335 0
M  V30 1227 H 122.01 1.46286 -5.32264 0
M  V30 1228 H 124.486 2.18983 -3.53816 0
M  V30 1229 H 123.362 3.2569 -4.41834 0
M  V30 1230 H 123.623 3.5018 -2.69864 0
M  V30 1231 N 122.682 1.50554 0.465978 0
M  V30 1232 C 123.922 1.63439 1.22747 0
M  V30 1233 C 124.286 0.329822 1.89146 0
M  V30 1234 O 125.487 0.334161 2.66715 0
M  V30 1235 C 123.758 2.78542 2.2394 0
M  V30 1236 S 125.317 3.11591 3.0896 0
M  V30 1237 H 122.135 0.576113 0.416672 0
M  V30 1238 H 124.737 1.88357 0.523641 0
M  V30 1239 H 123.441 3.71805 1.7375 0
M  V30 1240 H 122.972 2.55726 2.98944 0
M  V30 1241 H 124.987 2.55811 4.25176 0
M  V30 1242 N 124.16 -0.719506 1.40217 0
M  V30 1243 C 125.093 -1.84298 1.34571 0
M  V30 1244 C 126.071 -1.61149 0.216741 0
M  V30 1245 O 127.255 -1.84212 0.399756 0
M  V30 1246 C 124.382 -3.20568 1.09335 0
M  V30 1247 C 123.428 -3.62551 2.24631 0
M  V30 1248 S 124.261 -3.7012 3.87004 0
M  V30 1249 C 125.417 -5.09154 3.64024 0
M  V30 1250 H 125.65 -1.88807 2.2965 0
M  V30 1251 H 123.183 -0.885901 1.26456 0
M  V30 1252 H 125.141 -3.99246 0.954602 0
M  V30 1253 H 123.802 -3.13696 0.159164 0
M  V30 1254 H 122.995 -4.61483 2.02606 0
M  V30 1255 H 122.597 -2.91119 2.34789 0
M  V30 1256 H 124.889 -5.95955 3.22248 0
M  V30 1257 H 125.832 -5.36213 4.62473 0
M  V30 1258 H 126.24 -4.79562 2.97793 0
M  V30 1259 N 125.638 -1.25649 -0.95132 0
M  V30 1260 C 126.588 -1.03004 -2.03406 0
M  V30 1261 C 127.572 0.034187 -1.60864 0
M  V30 1262 O 128.764 -0.181549 -1.76066 0
M  V30 1263 C 125.893 -0.654255 -3.37008 0
M  V30 1264 C 124.979 -1.75542 -3.86065 0
M  V30 1265 N 125.37 -2.99113 -4.07879 0
M  V30 1266 C 123.668 -1.63669 -4.14884 0
M  V30 1267 C 124.369 -3.70611 -4.48356 0
M  V30 1268 N 123.345 -2.98247 -4.54477 0
M  V30 1269 H 127.147 -1.96813 -2.1827 0
M  V30 1270 H 124.661 -1.16017 -1.13639 0
M  V30 1271 H 126.658 -0.473206 -4.14206 0
M  V30 1272 H 125.318 0.276468 -3.23521 0
M  V30 1273 H 126.329 -3.35124 -3.94857 0
M  V30 1274 H 123.006 -0.775161 -4.10241 0
M  V30 1275 H 124.396 -4.76695 -4.73509 0
M  V30 1276 N 127.117 1.15442 -1.07289 0
M  V30 1277 C 128.394 1.82306 -0.708792 0
M  V30 1278 C 128.774 1.94991 0.808807 0
M  V30 1279 O 128.122 1.50085 1.72298 0
M  V30 1280 C 128.332 3.18695 -1.42247 0
M  V30 1281 C 129.68 3.94341 -1.57417 0
M  V30 1282 O 130.704 3.28247 -1.38319 0
M  V30 1283 O 129.563 5.12839 -1.88834 0
M  V30 1284 H 126.657 0.787628 -0.252132 0
M  V30 1285 H 129.203 1.22559 -1.17377 0
M  V30 1286 H 127.975 3.04557 -2.45684 0
M  V30 1287 H 127.598 3.86128 -0.948223 0
M  V30 1288 N 128.595 0.856903 1.32268 0
M  V30 1289 C 129.525 0.31858 2.31316 0
M  V30 1290 C 130.506 -0.583487 1.59779 0
M  V30 1291 O 131.691 -0.503259 1.87566 0
M  V30 1292 C 128.821 -0.491979 3.43798 0
M  V30 1293 C 127.775 0.315849 4.26833 0
M  V30 1294 C 127.101 -0.619586 5.31098 0
M  V30 1295 C 128.401 1.54282 4.98993 0
M  V30 1296 H 130.095 1.14621 2.76591 0
M  V30 1297 H 127.641 0.552613 1.32974 0
M  V30 1298 H 129.594 -0.879012 4.1213 0
M  V30 1299 H 128.318 -1.35299 2.97257 0
M  V30 1300 H 126.977 0.684664 3.6015 0
M  V30 1301 H 126.625 -1.47751 4.8081 0
M  V30 1302 H 126.325 -0.0830621 5.87541 0
M  V30 1303 H 127.849 -1.00375 6.02293 0
M  V30 1304 H 129.263 1.22796 5.59995 0
M  V30 1305 H 127.66 2.01745 5.65172 0
M  V30 1306 H 128.73 2.30285 4.26728 0
M  V30 1307 N 130.073 -1.45103 0.615059 0
M  V30 1308 C 131.02 -2.30586 -0.0993978 0
M  V30 1309 C 131.99 -1.42544 -0.852669 0
M  V30 1310 O 133.175 -1.71465 -0.836917 0
M  V30 1311 C 130.315 -3.27572 -1.08583 0
M  V30 1312 C 129.428 -4.30717 -0.332656 0
M  V30 1313 C 128.563 -5.14807 -1.30947 0
M  V30 1314 C 127.602 -6.09673 -0.544538 0
M  V30 1315 N 126.739 -6.86517 -1.47101 0
M  V30 1316 H 131.579 -2.91144 0.635542 0
M  V30 1317 H 129.116 -1.4346 0.325206 0
M  V30 1318 H 131.074 -3.82276 -1.67095 0
M  V30 1319 H 129.704 -2.68751 -1.78809 0
M  V30 1320 H 128.756 -3.78615 0.368107 0
M  V30 1321 H 130.068 -4.98102 0.263842 0
M  V30 1322 H 129.222 -5.73948 -1.96643 0
M  V30 1323 H 127.961 -4.47458 -1.9399 0
M  V30 1324 H 126.966 -5.49656 0.126003 0
M  V30 1325 H 128.191 -6.79052 0.080947 0
M  V30 1326 H 126.137 -6.21851 -2.08895 0
M  V30 1327 H 126.054 -7.50281 -0.928137 0
M  V30 1328 H 127.322 -7.50194 -2.11731 0
M  V30 1329 N 131.551 -0.354651 -1.53558 0
M  V30 1330 C 132.779 0.239515 -2.05509 0
M  V30 1331 C 133.194 1.4333 -1.2289 0
M  V30 1332 O 132.551 1.80538 -0.266899 0
M  V30 1333 C 132.602 0.643719 -3.55723 0
M  V30 1334 O 132.323 -0.502602 -4.35207 0
M  V30 1335 C 133.824 1.29743 -4.23889 0
M  V30 1336 H 131.044 0.0442697 -0.669538 0
M  V30 1337 H 133.588 -0.509856 -1.98042 0
M  V30 1338 H 131.743 1.34302 -3.63376 0
M  V30 1339 H 132.157 -0.178172 -5.24197 0
M  V30 1340 H 133.631 1.53091 -5.30346 0
M  V30 1341 H 134.108 2.25441 -3.76926 0
M  V30 1342 H 134.714 0.639865 -4.20459 0
M  V30 1343 N 133.029 1.57378 -0.0835403 0
M  V30 1344 C 134.445 1.57246 0.273109 0
M  V30 1345 C 134.645 1.09385 1.69225 0
M  V30 1346 O 133.701 0.765051 2.40631 0
M  V30 1347 C 135.014 3.00614 0.0720628 0
M  V30 1348 C 136.562 3.12684 0.1407 0
M  V30 1349 C 137.037 4.57989 -0.0322094 0
M  V30 1350 N 138.528 4.63194 0.0230085 0
M  V30 1351 C 139.263 5.73335 -0.0861941 0
M  V30 1352 N 138.759 6.9235 -0.24958 0
M  V30 1353 N 140.552 5.62093 -0.0282886 0
M  V30 1354 H 132.703 1.86801 -1.0109 0
M  V30 1355 H 134.966 0.861687 -0.395222 0
M  V30 1356 H 134.672 3.39786 -0.907662 0
M  V30 1357 H 134.546 3.68193 0.81936 0
M  V30 1358 H 136.933 2.73391 1.11092 0
M  V30 1359 H 137.014 2.47719 -0.637896 0
M  V30 1360 H 136.658 4.97973 -0.999247 0
M  V30 1361 H 136.588 5.21 0.765937 0
M  V30 1362 H 139.079 3.77613 0.14722 0
M  V30 1363 H 139.392 7.72117 -0.324733 0
M  V30 1364 H 137.737 6.94415 -0.285097 0
M  V30 1365 H 140.928 4.67997 0.0981408 0
M  V30 1366 H 141.101 6.47895 -0.116845 0
M  V30 1367 N 134.507 -0.190092 1.56449 0
M  V30 1368 C 135.735 -0.925772 1.85033 0
M  V30 1369 C 136.15 -1.76638 0.666658 0
M  V30 1370 O 135.507 -1.78822 -0.364565 0
M  V30 1371 C 135.558 -1.81786 3.12468 0
M  V30 1372 O 135.279 -1.01118 4.26271 0
M  V30 1373 C 136.78 -2.6648 3.54265 0
M  V30 1374 H 134 -0.269872 0.614337 0
M  V30 1375 H 136.544 -0.195837 2.0356 0
M  V30 1376 H 134.699 -2.50136 2.95822 0
M  V30 1377 H 135.113 -1.61956 4.98869 0
M  V30 1378 H 136.587 -3.24722 4.46385 0
M  V30 1379 H 137.064 -3.40434 2.77491 0
M  V30 1380 H 137.67 -2.03493 3.73458 0
M  V30 1381 N 135.985 -1.50799 -0.457987 0
M  V30 1382 C 137.215 -1.65977 -1.23025 0
M  V30 1383 C 137.623 -0.347918 -1.85974 0
M  V30 1384 O 136.966 0.68148 -1.70592 0
M  V30 1385 C 137.028 -2.70309 -2.3701 0
M  V30 1386 C 136.692 -4.135 -1.94594 0
M  V30 1387 C 137.689 -4.98949 -1.46101 0
M  V30 1388 C 135.374 -4.5949 -2.02915 0
M  V30 1389 C 137.368 -6.28442 -1.06489 0
M  V30 1390 C 135.055 -5.88984 -1.62914 0
M  V30 1391 C 136.053 -6.73286 -1.1478 0
M  V30 1392 O 135.741 -8.00362 -0.75339 0
M  V30 1393 H 135.473 -0.56064 -0.377702 0
M  V30 1394 H 138.027 -1.97857 -0.551537 0
M  V30 1395 H 136.257 -2.337 -3.08093 0
M  V30 1396 H 137.946 -2.74574 -2.98938 0
M  V30 1397 H 138.712 -4.6463 -1.39084 0
M  V30 1398 H 134.591 -3.94009 -2.39328 0
M  V30 1399 H 138.135 -6.94194 -0.688488 0
M  V30 1400 H 134.032 -6.22822 -1.69595 0
M  V30 1401 H 134.8 -8.13744 -0.88108 0
M  V30 1402 N 137.463 0.71206 -1.40597 0
M  V30 1403 C 138.413 1.81783 -1.37619 0
M  V30 1404 C 139.397 1.58896 -0.253162 0
M  V30 1405 O 140.589 1.70009 -0.492547 0
M  V30 1406 C 137.718 3.19944 -1.24462 0
M  V30 1407 C 136.804 3.48582 -2.4156 0
M  V30 1408 N 137.195 3.48016 -3.67041 0
M  V30 1409 C 135.493 3.79056 -2.35016 0
M  V30 1410 C 136.194 3.75096 -4.44609 0
M  V30 1411 N 135.17 3.94022 -3.74497 0
M  V30 1412 H 138.972 1.79683 -2.32575 0
M  V30 1413 H 136.486 0.91134 -1.34419 0
M  V30 1414 H 138.483 3.99133 -1.20411 0
M  V30 1415 H 137.143 3.23267 -0.304762 0
M  V30 1416 H 138.154 3.28782 -4.00153 0
M  V30 1417 H 134.831 3.89848 -1.49415 0
M  V30 1418 H 136.221 3.80934 -5.53479 0
M  V30 1419 N 138.941 1.26152 0.944643 0
M  V30 1420 C 140.166 1.14363 1.7302 0
M  V30 1421 C 140.591 -0.29772 1.85729 0
M  V30 1422 O 139.949 -1.2157 1.34501 0
M  V30 1423 C 139.997 1.81378 3.11664 0
M  V30 1424 O 139.101 1.10022 3.97453 0
M  V30 1425 H 138.442 0.398694 0.53098 0
M  V30 1426 H 140.972 1.66906 1.18337 0
M  V30 1427 H 140.982 1.88064 3.62072 0
M  V30 1428 H 139.657 2.86237 3.0173 0
M  V30 1429 H 138.234 1.11287 3.55907 0
M  V30 1430 N 140.419 -1.14872 1.07899 0
M  V30 1431 C 141.665 -1.86064 0.806725 0
M  V30 1432 C 141.998 -1.82434 -0.665706 0
M  V30 1433 O 141.273 -1.25138 -1.48899 0
M  V30 1434 C 141.556 -3.34929 1.32267 0
M  V30 1435 C 141.409 -3.47161 2.86006 0
M  V30 1436 C 142.728 -4.29863 0.943717 0
M  V30 1437 H 139.847 -0.675591 0.294526 0
M  V30 1438 H 142.489 -1.34925 1.33773 0
M  V30 1439 H 140.639 -3.78611 0.870974 0
M  V30 1440 H 142.311 -3.12302 3.39507 0
M  V30 1441 H 140.554 -2.88539 3.23925 0
M  V30 1442 H 141.225 -4.51777 3.17177 0
M  V30 1443 H 143.701 -3.9417 1.33302 0
M  V30 1444 H 142.577 -5.32494 1.33198 0
M  V30 1445 H 142.838 -4.41846 -0.149796 0
M  V30 1446 N 141.898 -0.863906 -1.31812 0
M  V30 1447 C 143.146 -0.470904 -1.96537 0
M  V30 1448 C 143.467 0.978771 -1.68657 0
M  V30 1449 O 142.737 1.6853 -0.998717 0
M  V30 1450 H 141.317 -0.171148 -0.72713 0
M  V30 1451 H 143.979 -1.10236 -1.60729 0
M  V30 1452 H 143.075 -0.623616 -3.05806 0
M  V30 1453 N 143.376 1.44774 -0.622745 0
M  V30 1454 C 144.653 1.95522 -0.0551974 0
M  V30 1455 C 145.033 1.5649 1.41683 0
M  V30 1456 O 144.381 0.834848 2.12703 0
M  V30 1457 C 144.591 3.4796 -0.269242 0
M  V30 1458 C 145.939 4.24306 -0.158014 0
M  V30 1459 O 146.963 3.55637 -0.200162 0
M  V30 1460 O 145.822 5.46471 -0.0558693 0
M  V30 1461 H 142.916 0.826556 0.0271015 0
M  V30 1462 H 145.462 1.54866 -0.693864 0
M  V30 1463 H 144.234 3.6939 -1.29099 0
M  V30 1464 H 143.857 3.95543 0.403966 0
M  V30 1465 N 144.854 0.36279 1.53368 0
M  V30 1466 C 146.079 -0.231226 2.06107 0
M  V30 1467 C 146.504 -1.419 1.23474 0
M  V30 1468 O 145.862 -1.79524 0.253128 0
M  V30 1469 C 145.91 -0.605523 3.5548 0
M  V30 1470 O 145.014 -1.70312 3.7559 0
M  V30 1471 H 144.355 -0.034327 0.663112 0
M  V30 1472 H 146.885 0.522584 1.97814 0
M  V30 1473 H 146.895 -0.877314 3.98456 0
M  V30 1474 H 145.57 0.263004 4.15068 0
M  V30 1475 H 144.147 -1.4271 3.44512 0
M  V30 1476 N 146.332 -1.57332 0.0918853 0
M  V30 1477 C 147.578 -1.94524 -0.573425 0
M  V30 1478 C 147.911 -0.973578 -1.68033 0
M  V30 1479 O 147.186 -0.00609226 -1.94499 0
M  V30 1480 C 147.469 -3.41858 -1.13161 0
M  V30 1481 C 147.322 -4.4979 -0.0299747 0
M  V30 1482 C 148.641 -3.90435 -2.03098 0
M  V30 1483 H 145.76 -0.70734 -0.206975 0
M  V30 1484 H 148.402 -1.89309 0.161942 0
M  V30 1485 H 146.552 -3.46433 -1.7583 0
M  V30 1486 H 148.224 -4.57327 0.604112 0
M  V30 1487 H 146.467 -4.291 0.636833 0
M  V30 1488 H 147.138 -5.50069 -0.461287 0
M  V30 1489 H 149.614 -3.87992 -1.50338 0
M  V30 1490 H 148.49 -4.94097 -2.39081 0
M  V30 1491 H 148.751 -3.29541 -2.94712 0
M  V30 1492 N 147.81 0.181792 -1.56548 0
M  V30 1493 C 148.74 1.22765 -1.98623 0
M  V30 1494 C 149.721 1.46747 -0.860189 0
M  V30 1495 O 150.906 1.58259 -1.12551 0
M  V30 1496 C 148.036 2.56894 -2.33715 0
M  V30 1497 C 146.99 2.475 -3.49182 0
M  V30 1498 C 146.316 3.86023 -3.69986 0
M  V30 1499 C 147.616 1.98866 -4.82959 0
M  V30 1500 H 149.31 0.877942 -2.86239 0
M  V30 1501 H 146.856 0.42088 -1.37712 0
M  V30 1502 H 148.809 3.30253 -2.61746 0
M  V30 1503 H 147.533 2.93632 -1.42997 0
M  V30 1504 H 146.192 1.76596 -3.21262 0
M  V30 1505 H 145.84 4.20136 -2.76576 0
M  V30 1506 H 145.54 3.80609 -4.47672 0
M  V30 1507 H 147.064 4.60984 -4.00407 0
M  V30 1508 H 148.478 2.61992 -5.09934 0
M  V30 1509 H 146.875 2.04424 -5.64208 0
M  V30 1510 H 147.945 0.942465 -4.75653 0
M  V30 1511 N 149.288 1.51039 0.449983 0
M  V30 1512 C 150.704 1.38934 0.785462 0
M  V30 1513 C 150.904 0.461817 1.96136 0
M  V30 1514 O 149.96 -0.0877389 2.52348 0
M  V30 1515 C 151.273 2.80724 1.0777 0
M  V30 1516 C 152.821 2.89787 1.1829 0
M  V30 1517 C 153.296 4.32457 1.50815 0
M  V30 1518 N 154.787 4.35505 1.57764 0
M  V30 1519 C 155.522 5.42914 1.84477 0
M  V30 1520 N 155.018 6.60502 2.09068 0
M  V30 1521 N 156.811 5.3038 1.86155 0
M  V30 1522 H 148.962 2.09904 -0.324647 0
M  V30 1523 H 151.225 0.944378 -0.0827957 0
M  V30 1524 H 150.931 3.50531 0.286498 0
M  V30 1525 H 150.805 3.19273 2.00859 0
M  V30 1526 H 153.192 2.20186 1.96474 0
M  V30 1527 H 153.273 2.54752 0.231314 0
M  V30 1528 H 152.917 5.02603 0.731622 0
M  V30 1529 H 152.847 4.64995 2.47158 0
M  V30 1530 H 155.338 3.50724 1.40715 0
M  V30 1531 H 155.651 7.38158 2.28785 0
M  V30 1532 H 153.996 6.63639 2.06416 0
M  V30 1533 H 157.187 4.37505 1.66454 0
M  V30 1534 H 157.36 6.1417 2.06637 0
M  V30 1535 N 150.766 -0.704594 1.40972 0
M  V30 1536 C 151.991 -1.49858 1.43378 0
M  V30 1537 C 152.416 -1.88061 0.038184 0
M  V30 1538 O 151.774 -1.5402 -0.956425 0
M  V30 1539 C 151.822 -2.74333 2.34038 0
M  V30 1540 O 150.926 -3.7147 1.7912 0
M  V30 1541 H 150.267 -0.45139 0.486974 0
M  V30 1542 H 152.797 -0.866832 1.8533 0
M  V30 1543 H 152.807 -3.22741 2.49604 0
M  V30 1544 H 151.482 -2.45863 3.35446 0
M  V30 1545 H 150.059 -3.30363 1.72958 0
M  V30 1546 N 152.244 -1.26651 -0.937939 0
M  V30 1547 C 153.207 -1.08546 -2.01867 0
M  V30 1548 C 154.207 -0.0327327 -1.60767 0
M  V30 1549 O 155.397 -0.276427 -1.71993 0
M  V30 1550 C 152.529 -0.651711 -3.34613 0
M  V30 1551 H 153.722 -2.04502 -2.1936 0
M  V30 1552 H 151.275 -1.09294 -1.11734 0
M  V30 1553 H 152.01 0.309696 -3.22818 0
M  V30 1554 H 151.795 -1.41189 -3.65798 0
M  V30 1555 H 153.285 -0.546973 -4.14002 0
M  V30 1556 N 153.722 1.14298 -1.08507 0
M  V30 1557 C 154.95 1.89219 -0.836876 0
M  V30 1558 C 155.365 1.78638 0.611054 0
M  V30 1559 O 154.722 1.14643 1.41998 0
M  V30 1560 C 154.773 3.39158 -1.25116 0
M  V30 1561 O 154.494 3.49449 -2.64229 0
M  V30 1562 C 155.995 4.31073 -1.03398 0
M  V30 1563 H 153.215 0.599328 -0.301739 0
M  V30 1564 H 155.759 1.44746 -1.44461 0
M  V30 1565 H 153.914 3.81251 -0.687514 0
M  V30 1566 H 154.328 4.42589 -2.81452 0
M  V30 1567 H 155.802 5.34646 -1.37323 0
M  V30 1568 H 156.279 4.3919 0.0289259 0
M  V30 1569 H 156.885 3.94738 -1.58311 0
M  V30 1570 N 155.201 0.870884 1.31352 0
M  V30 1571 C 156.617 0.562932 1.49343 0
M  V30 1572 C 156.817 -0.902725 1.80148 0
M  V30 1573 O 155.873 -1.68484 1.88067 0
M  V30 1574 C 157.186 1.46393 2.62659 0
M  V30 1575 C 158.734 1.46607 2.76542 0
M  V30 1576 C 159.209 2.35266 3.92955 0
M  V30 1577 N 160.7 2.33151 4.00243 0
M  V30 1578 C 161.435 2.98471 4.89594 0
M  V30 1579 N 160.931 3.72964 5.8384 0
M  V30 1580 N 162.724 2.87775 4.82848 0
M  V30 1581 H 154.875 1.81923 1.09626 0
M  V30 1582 H 157.138 0.777934 0.541777 0
M  V30 1583 H 156.844 2.50689 2.46674 0
M  V30 1584 H 156.718 1.16314 3.58819 0
M  V30 1585 H 159.105 0.43069 2.9194 0
M  V30 1586 H 159.186 1.8071 1.81046 0
M  V30 1587 H 158.83 3.38881 3.78315 0
M  V30 1588 H 158.76 1.98487 4.87761 0
M  V30 1589 H 161.251 1.79006 3.32814 0
M  V30 1590 H 161.564 4.19932 6.4875 0
M  V30 1591 H 159.909 3.77073 5.83816 0
M  V30 1592 H 163.1 2.29116 4.08195 0
M  V30 1593 H 163.273 3.38961 5.52277 0
M  V30 1594 N 156.679 -1.44442 0.630414 0
M  V30 1595 C 157.904 -2.06927 0.139944 0
M  V30 1596 C 158.329 -1.46795 -1.17613 0
M  V30 1597 O 157.687 -0.569144 -1.72135 0
M  V30 1598 C 157.735 -3.6058 0.0379581 0
M  V30 1599 O 156.839 -3.99937 -1.0062 0
M  V30 1600 H 156.18 -0.658608 0.0844483 0
M  V30 1601 H 158.71 -1.85327 0.866891 0
M  V30 1602 H 158.72 -4.07714 -0.152856 0
M  V30 1603 H 157.395 -4.03728 0.998809 0
M  V30 1604 H 155.972 -3.64436 -0.79001 0
M  V30 1605 N 158.157 -0.370918 -1.53173 0
M  V30 1606 C 159.087 0.464847 -2.28826 0
M  V30 1607 C 160.068 1.07936 -1.31468 0
M  V30 1608 O 161.253 1.0956 -1.60344 0
M  V30 1609 C 158.383 1.60196 -3.08147 0
M  V30 1610 C 157.337 1.11443 -4.13237 0
M  V30 1611 C 156.663 2.3422 -4.80672 0
M  V30 1612 C 157.963 0.195384 -5.21934 0
M  V30 1613 H 159.657 -0.166329 -2.98938 0
M  V30 1614 H 157.203 -0.0814359 -1.4377 0
M  V30 1615 H 159.156 2.19332 -3.59822 0
M  V30 1616 H 157.88 2.26045 -2.35735 0
M  V30 1617 H 156.539 0.545727 -3.62515 0
M  V30 1618 H 156.187 2.98537 -4.04827 0
M  V30 1619 H 155.887 2.02269 -5.51689 0
M  V30 1620 H 157.411 2.94032 -5.35143 0
M  V30 1621 H 158.825 0.694375 -5.69079 0
M  V30 1622 H 157.222 -0.0335027 -6.00091 0
M  V30 1623 H 158.292 -0.760961 -4.78892 0
M  V30 1624 N 159.635 1.57281 -0.100228 0
M  V30 1625 C 160.565 2.17328 0.853857 0
M  V30 1626 C 161.546 1.10804 1.2906 0
M  V30 1627 O 162.731 1.38963 1.35657 0
M  V30 1628 C 159.861 2.75772 2.11109 0
M  V30 1629 C 158.815 3.87713 1.81279 0
M  V30 1630 C 158.141 4.32882 3.13874 0
M  V30 1631 C 159.441 5.10677 1.09574 0
M  V30 1632 H 161.135 2.97305 0.353545 0
M  V30 1633 H 158.681 1.43009 0.168612 0
M  V30 1634 H 160.634 3.16433 2.78296 0
M  V30 1635 H 159.358 1.93057 2.63432 0
M  V30 1636 H 158.017 3.476 1.16489 0
M  V30 1637 H 157.665 3.47051 3.64095 0
M  V30 1638 H 157.365 5.08358 2.94696 0
M  V30 1639 H 158.889 4.7618 3.82211 0
M  V30 1640 H 160.303 5.48474 1.66879 0
M  V30 1641 H 158.7 5.91615 1.00557 0
M  V30 1642 H 159.77 4.84835 0.0793299 0
M  V30 1643 N 161.113 -0.173488 1.56642 0
M  V30 1644 C 162.023 -1.23482 1.99473 0
M  V30 1645 C 163.039 -1.48567 0.905752 0
M  V30 1646 O 164.215 -1.60758 1.21321 0
M  V30 1647 C 161.28 -2.55444 2.34413 0
M  V30 1648 C 160.341 -2.38241 3.57127 0
M  V30 1649 C 159.574 -3.63909 3.90392 0
M  V30 1650 O 159.797 -4.68996 3.24653 0
M  V30 1651 O 158.731 -3.58149 4.83749 0
M  V30 1652 H 162.557 -0.901279 2.90018 0
M  V30 1653 H 160.142 -0.380185 1.44482 0
M  V30 1654 H 162.024 -3.33292 2.57865 0
M  V30 1655 H 160.699 -2.88382 1.4703 0
M  V30 1656 H 159.606 -1.58431 3.38896 0
M  V30 1657 H 160.939 -2.10228 4.45045 0
M  V30 1658 N 162.591 -1.51276 -0.441967 0
M  V30 1659 C 163.838 -1.63715 -1.19179 0
M  V30 1660 C 164.166 -0.351175 -1.91303 0
M  V30 1661 O 163.421 0.664524 -1.84072 0
M  V30 1662 C 163.72 -2.78746 -2.23686 0
M  V30 1663 C 163.386 -4.18189 -1.68607 0
M  V30 1664 C 162.048 -4.56125 -1.53308 0
M  V30 1665 C 164.4 -5.05222 -1.28062 0
M  V30 1666 C 161.728 -5.78804 -0.959317 0
M  V30 1667 C 164.08 -6.28476 -0.721162 0
M  V30 1668 C 162.744 -6.65188 -0.55504 0
M  V30 1669 H 162.014 -0.599076 -0.436106 0
M  V30 1670 H 164.661 -1.85296 -0.48351 0
M  V30 1671 H 162.966 -2.51369 -3.00535 0
M  V30 1672 H 164.663 -2.8557 -2.81515 0
M  V30 1673 H 161.253 -3.88277 -1.8149 0
M  V30 1674 H 165.437 -4.76524 -1.38704 0
M  V30 1675 H 160.693 -6.05899 -0.81833 0
M  V30 1676 H 164.867 -6.95259 -0.398458 0
M  V30 1677 H 162.494 -7.60123 -0.108311 0
M  V30 1678 N 164.069 0.697108 -1.41344 0
M  V30 1679 C 165.017 1.83237 -1.43272 0
M  V30 1680 C 166.011 1.66522 -0.310947 0
M  V30 1681 O 167.217 1.73402 -0.482899 0
M  V30 1682 H 163.592 0.603802 -0.448249 0
M  V30 1683 H 165.563 1.78727 -2.38954 0
M  V30 1684 C 164.312 3.21245 -1.33029 0
M  V30 1685 H 163.635 3.34723 -2.18633 0
M  V30 1686 H 165.075 4.00763 -1.38439 0
M  V30 1687 C 163.534 3.36873 -0.0424635 0
M  V30 1688 O 164.064 3.91177 0.913421 0
M  V30 1689 N 162.27 2.90581 0.0331145 0
M  V30 1690 H 161.817 2.46577 -0.745506 0
M  V30 1691 H 161.775 3.01416 0.894199 0
M  V30 1692 N 165.547 1.27147 0.931209 0
M  V30 1693 C 166.775 1.16082 1.71267 0
M  V30 1694 C 167.19 -0.282772 1.8667 0
M  V30 1695 O 166.547 -1.19283 1.38122 0
M  V30 1696 C 166.598 1.8358 3.11417 0
M  V30 1697 O 166.319 3.22299 2.96741 0
M  V30 1698 C 167.82 1.78597 4.05732 0
M  V30 1699 H 165.04 0.403758 0.535929 0
M  V30 1700 H 167.584 1.67953 1.16671 0
M  V30 1701 H 165.739 1.35623 3.62885 0
M  V30 1702 H 166.153 3.55851 3.85319 0
M  V30 1703 H 167.627 2.30444 5.01597 0
M  V30 1704 H 168.104 0.754564 4.3267 0
M  V30 1705 H 168.71 2.26152 3.60188 0
M  V30 1706 N 167.025 -1.13721 1.09112 0
M  V30 1707 C 168.253 -1.88773 0.846899 0
M  V30 1708 C 168.668 -1.7896 -0.601572 0
M  V30 1709 O 168.025 -1.15394 -1.41388 0
M  V30 1710 C 168.076 -3.3849 1.26913 0
M  V30 1711 O 167.797 -3.48043 2.66079 0
M  V30 1712 C 169.298 -4.30518 1.05682 0
M  V30 1713 H 166.518 -0.59772 0.304914 0
M  V30 1714 H 169.062 -1.43977 1.45227 0
M  V30 1715 H 167.217 -3.80881 0.707723 0
M  V30 1716 H 167.631 -4.4109 2.83795 0
M  V30 1717 H 169.105 -5.3391 1.40156 0
M  V30 1718 H 169.582 -4.392 -0.00563416 0
M  V30 1719 H 170.188 -3.93893 1.60402 0
M  V30 1720 N 168.503 -0.877838 -1.30888 0
M  V30 1721 C 169.749 -0.493426 -1.96706 0
M  V30 1722 C 170.082 0.953504 -1.6918 0
M  V30 1723 O 169.357 1.67266 -0.992594 0
M  V30 1724 C 169.64 -0.760429 -3.51979 0
M  V30 1725 C 169.493 -2.25747 -3.89048 0
M  V30 1726 C 170.812 -0.232148 -4.39487 0
M  V30 1727 H 167.931 -0.180746 -0.714493 0
M  V30 1728 H 170.573 -1.10052 -1.54882 0
M  V30 1729 H 168.723 -0.243715 -3.87735 0
M  V30 1730 H 170.395 -2.84204 -3.63354 0
M  V30 1731 H 168.638 -2.72694 -3.37373 0
M  V30 1732 H 169.309 -2.39491 -4.97341 0
M  V30 1733 H 171.785 -0.674314 -4.106 0
M  V30 1734 H 170.661 -0.448355 -5.47066 0
M  V30 1735 H 170.922 0.866297 -4.33529 0
M  V30 1736 N 169.982 1.44106 -0.638065 0
M  V30 1737 C 171.207 2.0685 -0.150916 0
M  V30 1738 C 171.632 1.47417 1.16833 0
M  V30 1739 O 170.99 0.578264 1.71831 0
M  V30 1740 C 171.038 3.60555 -0.05708 0
M  V30 1741 O 170.142 4.00465 0.984972 0
M  V30 1742 H 169.483 0.658151 -0.0879399 0
M  V30 1743 H 172.013 1.84865 -0.876707 0
M  V30 1744 H 172.023 4.07789 0.131232 0
M  V30 1745 H 170.698 4.03193 -1.02021 0
M  V30 1746 H 169.275 3.64849 0.770672 0
M  V30 1747 N 171.46 0.379036 1.52974 0
M  V30 1748 C 172.7 -0.206325 2.03356 0
M  V30 1749 C 173.064 -1.44892 1.25977 0
M  V30 1750 O 174.265 -2.11078 1.66432 0
M  V30 1751 C 172.536 -0.477887 3.54191 0
M  V30 1752 S 174.095 -1.035 4.26419 0
M  V30 1753 H 170.913 -0.0590259 0.708546 0
M  V30 1754 H 173.515 0.525013 1.88319 0
M  V30 1755 H 172.219 0.433745 4.08101 0
M  V30 1756 H 171.75 -1.23793 3.73415 0
M  V30 1757 H 173.765 -2.31821 4.38718 0
M  V30 1758 N 172.938 -1.57226 0.108567 0
M  V30 1759 C 174.215 -1.86333 -0.594939 0
M  V30 1760 C 174.595 -1.00788 -1.85486 0
M  V30 1761 O 173.943 -0.0839293 -2.28346 0
M  V30 1762 C 174.153 -3.37265 -0.897405 0
M  V30 1763 C 175.501 -4.05629 -1.25501 0
M  V30 1764 O 176.525 -3.42224 -0.987998 0
M  V30 1765 O 175.384 -5.17531 -1.75567 0
M  V30 1766 H 172.478 -0.771018 -0.2991 0
M  V30 1767 H 175.024 -1.69102 0.142283 0
M  V30 1768 H 173.796 -3.913 -0.00413806 0
M  V30 1769 H 173.419 -3.59889 -1.69014 0
M  V30 1770 N 174.416 0.165178 -1.56732 0
M  V30 1771 C 175.348 1.22911 -1.93457 0
M  V30 1772 C 176.361 1.40152 -0.828333 0
M  V30 1773 O 177.55 1.40046 -1.10677 0
M  V30 1774 C 174.65 2.59686 -2.17753 0
M  V30 1775 C 173.823 2.63663 -3.48999 0
M  V30 1776 C 172.882 3.81845 -3.62051 0
M  V30 1777 O 171.908 3.67559 -4.34613 0
M  V30 1778 N 173.11 4.98557 -2.97357 0
M  V30 1779 H 175.875 0.917118 -2.85323 0
M  V30 1780 H 173.436 0.354895 -1.57962 0
M  V30 1781 H 175.428 3.37225 -2.23743 0
M  V30 1782 H 173.998 2.83251 -1.32242 0
M  V30 1783 H 173.218 1.72173 -3.54612 0
M  V30 1784 H 174.506 2.63336 -4.35352 0
M  V30 1785 H 173.904 5.13065 -2.38287 0
M  V30 1786 H 172.461 5.73936 -3.08934 0
M  V30 1787 N 175.894 1.51508 0.433938 0
M  V30 1788 C 176.826 1.69266 1.54537 0
M  V30 1789 C 177.839 0.573276 1.52373 0
M  V30 1790 O 179.028 0.847698 1.57087 0
M  V30 1791 C 176.128 1.69524 2.93453 0
M  V30 1792 C 175.301 2.98101 3.20085 0
M  V30 1793 C 174.36 2.90502 4.38742 0
M  V30 1794 O 173.386 3.64442 4.3723 0
M  V30 1795 N 174.588 2.06586 5.42496 0
M  V30 1796 H 177.353 2.65145 1.39708 0
M  V30 1797 H 174.914 1.49437 0.622922 0
M  V30 1798 H 176.906 1.62004 3.70859 0
M  V30 1799 H 175.476 0.812245 3.01863 0
M  V30 1800 H 174.696 3.19464 2.30947 0
M  V30 1801 H 175.984 3.83207 3.34708 0
M  V30 1802 H 175.382 1.45896 5.46563 0
M  V30 1803 H 173.939 2.04943 6.18742 0
M  V30 1804 N 177.372 -0.689602 1.41712 0
M  V30 1805 C 178.62 -1.4468 1.4111 0
M  V30 1806 C 178.941 -1.94986 0.0232196 0
M  V30 1807 O 178.211 -1.72097 -0.935913 0
M  V30 1808 H 176.791 -0.536847 0.519427 0
M  V30 1809 H 179.453 -0.815825 1.77004 0
M  V30 1810 H 178.549 -2.30706 2.10193 0
M  V30 1811 N 178.85 -1.27639 -0.924453 0
M  V30 1812 C 180.078 -1.16989 -1.70649 0
M  V30 1813 C 180.493 0.272869 -1.86818 0
M  V30 1814 O 179.85 1.18549 -1.38753 0
M  V30 1815 C 179.901 -1.85229 -3.10439 0
M  V30 1816 O 179.622 -3.23868 -2.95028 0
M  V30 1817 C 181.123 -1.80746 -4.04779 0
M  V30 1818 H 178.343 -0.406595 -0.53378 0
M  V30 1819 H 180.887 -1.68569 -1.15778 0
M  V30 1820 H 179.042 -1.37545 -3.6216 0
M  V30 1821 H 179.456 -3.57889 -3.83426 0
M  V30 1822 H 180.93 -2.33101 -5.00368 0
M  V30 1823 H 181.407 -0.777499 -4.32263 0
M  V30 1824 H 182.013 -2.28059 -3.58984 0
M  V30 1825 N 180.328 1.1314 -1.09713 0
M  V30 1826 C 181.276 2.20717 -0.733934 0
M  V30 1827 C 182.27 1.6729 0.266506 0
M  V30 1828 O 183.476 1.79547 0.127656 0
M  V30 1829 H 179.851 0.719292 -0.21937 0
M  V30 1830 H 181.822 2.48611 -1.6503 0
M  V30 1831 C 180.571 3.47265 -0.173849 0
M  V30 1832 H 179.894 3.88716 -0.934873 0
M  V30 1833 H 181.334 4.23979 0.0423126 0
M  V30 1834 C 179.793 3.18724 1.09164 0
M  V30 1835 O 180.323 3.37762 2.17439 0
M  V30 1836 N 178.529 2.72583 1.00732 0
M  V30 1837 H 178.076 2.57291 0.126121 0
M  V30 1838 H 178.034 2.53862 1.85476 0
M  V30 1839 N 181.806 0.884767 1.30421 0
M  V30 1840 C 182.756 0.322846 2.25703 0
M  V30 1841 C 183.74 -0.548582 1.51259 0
M  V30 1842 O 184.932 -0.39304 1.72581 0
M  V30 1843 C 182.061 -0.461787 3.4018 0
M  V30 1844 C 181.147 0.423717 4.21978 0
M  V30 1845 N 181.538 1.52408 4.82292 0
M  V30 1846 C 179.836 0.218795 4.45463 0
M  V30 1847 C 180.537 2.07136 5.43571 0
M  V30 1848 N 179.513 1.36635 5.26148 0
M  V30 1849 H 183.315 1.16363 2.69883 0
M  V30 1850 H 180.829 0.73415 1.44859 0
M  V30 1851 H 182.826 -0.880985 4.07485 0
M  V30 1852 H 181.486 -1.30001 2.9754 0
M  V30 1853 H 182.497 1.90693 4.81515 0
M  V30 1854 H 179.174 -0.582275 4.1342 0
M  V30 1855 H 180.564 2.99538 6.01437 0
M  V30 1856 N 183.284 -1.43765 0.645699 0
M  V30 1857 C 184.7 -1.56509 0.312591 0
M  V30 1858 C 184.9 -1.6307 -1.18365 0
M  V30 1859 O 183.956 -1.58167 -1.96824 0
M  V30 1860 C 185.269 -2.82968 1.01733 0
M  V30 1861 C 186.817 -2.96701 0.996865 0
M  V30 1862 C 187.292 -4.25982 1.68236 0
M  V30 1863 N 188.783 -4.32829 1.64964 0
M  V30 1864 C 189.518 -5.31613 2.14885 0
M  V30 1865 N 189.014 -6.36718 2.73061 0
M  V30 1866 N 190.807 -5.23217 2.05428 0
M  V30 1867 H 182.958 -1.3775 1.61675 0
M  V30 1868 H 185.221 -0.661067 0.679481 0
M  V30 1869 H 184.927 -2.84156 2.0724 0
M  V30 1870 H 184.801 -3.72957 0.564177 0
M  V30 1871 H 187.188 -2.95058 -0.0497719 0
M  V30 1872 H 187.269 -2.08022 1.48865 0
M  V30 1873 H 186.913 -4.28386 2.72852 0
M  V30 1874 H 186.843 -5.13545 1.16529 0
M  V30 1875 H 189.334 -3.57493 1.22503 0
M  V30 1876 H 189.647 -7.08401 3.08848 0
M  V30 1877 H 187.992 -6.37362 2.77118 0
M  V30 1878 H 191.183 -4.40019 1.59689 0
M  V30 1879 H 191.356 -6.00045 2.44643 0
M  V30 1880 N 184.763 -0.387143 -1.52771 0
M  V30 1881 C 186.009 0.196025 -2.0185 0
M  V30 1882 C 186.342 1.46641 -1.27319 0
M  V30 1883 O 185.617 1.90889 -0.373032 0
M  V30 1884 C 185.9 0.466136 -3.5707 0
M  V30 1885 C 185.753 -0.819385 -4.42274 0
M  V30 1886 C 187.072 1.25768 -4.21747 0
M  V30 1887 H 184.191 0.0697708 -0.73369 0
M  V30 1888 H 186.833 -0.516286 -1.82851 0
M  V30 1889 H 184.983 1.07293 -3.7339 0
M  V30 1890 H 186.655 -1.4563 -4.37709 0
M  V30 1891 H 184.898 -1.43517 -4.09372 0
M  V30 1892 H 185.569 -0.585065 -5.48891 0
M  V30 1893 H 188.045 0.744167 -4.09391 0
M  V30 1894 H 186.921 1.41541 -5.30337 0
M  V30 1895 H 187.182 2.27228 -3.79236 0
M  V30 1896 N 186.241 1.57166 -0.116904 0
M  V30 1897 C 187.173 2.12271 0.864507 0
M  V30 1898 C 188.186 1.06494 1.23138 0
M  V30 1899 O 189.375 1.33873 1.18069 0
M  V30 1900 C 186.475 2.60564 2.16702 0
M  V30 1901 C 185.648 3.90416 1.97216 0
M  V30 1902 C 184.707 4.24329 3.11178 0
M  V30 1903 O 183.733 4.93182 2.84184 0
M  V30 1904 N 184.935 3.8148 4.37554 0
M  V30 1905 H 187.7 2.97102 0.393726 0
M  V30 1906 H 185.261 1.61759 0.0675805 0
M  V30 1907 H 187.253 2.80282 2.91932 0
M  V30 1908 H 185.823 1.80623 2.55135 0
M  V30 1909 H 185.043 3.79627 1.06192 0
M  V30 1910 H 186.331 4.75327 1.81499 0
M  V30 1911 H 185.729 3.25943 4.62361 0
M  V30 1912 H 184.286 4.06311 5.09661 0
M  V30 1913 N 187.719 -0.156864 1.56817 0
M  V30 1914 C 188.944 -0.890331 1.87318 0
M  V30 1915 C 189.369 -1.74394 0.704855 0
M  V30 1916 O 188.727 -1.77972 -0.345786 0
M  V30 1917 C 188.775 -1.73102 3.16336 0
M  V30 1918 O 187.879 -2.83422 2.99576 0
M  V30 1919 H 187.22 -0.24857 0.615718 0
M  V30 1920 H 189.75 -0.150649 2.04045 0
M  V30 1921 H 189.76 -2.12803 3.48107 0
M  V30 1922 H 188.435 -1.10412 4.00976 0
M  V30 1923 H 187.012 -2.47199 2.7919 0
M  V30 1924 N 189.197 -1.51736 -0.425897 0
M  V30 1925 C 190.422 -1.69082 -1.20108 0
M  V30 1926 C 190.847 -0.392398 -1.83962 0
M  V30 1927 O 190.205 0.64858 -1.69302 0
M  V30 1928 C 190.253 -2.81604 -2.25237 0
M  V30 1929 O 189.357 -2.46004 -3.30992 0
M  V30 1930 H 188.698 -0.563408 -0.35138 0
M  V30 1931 H 191.228 -1.98358 -0.501512 0
M  V30 1932 H 191.238 -3.06025 -2.69838 0
M  V30 1933 H 189.913 -3.75817 -1.78142 0
M  V30 1934 H 188.49 -2.32195 -2.91787 0
M  V30 1935 N 190.675 0.682077 -1.42076 0
M  V30 1936 C 191.924 1.43786 -1.41451 0
M  V30 1937 C 192.237 1.95574 -0.0317074 0
M  V30 1938 O 193.443 2.71326 0.0971462 0
M  V30 1939 C 191.899 2.60071 -2.48779 0
M  V30 1940 C 191.507 2.15013 -3.93031 0
M  V30 1941 C 193.251 3.37626 -2.57311 0
M  V30 1942 C 191.158 3.28336 -4.91883 0
M  V30 1943 H 190.088 0.540143 -0.526082 0
M  V30 1944 H 192.739 0.739157 -1.67955 0
M  V30 1945 H 191.121 3.32275 -2.15429 0
M  V30 1946 H 192.295 1.5001 -4.35699 0
M  V30 1947 H 190.61 1.50416 -3.88284 0
M  V30 1948 H 193.207 4.22012 -3.28345 0
M  V30 1949 H 193.55 3.83727 -1.61429 0
M  V30 1950 H 194.083 2.72488 -2.89819 0
M  V30 1951 H 190.822 2.87234 -5.89217 0
M  V30 1952 H 190.342 3.92145 -4.53853 0
M  V30 1953 H 192.021 3.93913 -5.13265 0
M  V30 1954 N 192.153 1.28127 0.917671 0
M  V30 1955 C 193.116 1.11744 2.00115 0
M  V30 1956 C 194.116 0.0583052 1.60694 0
M  V30 1957 O 195.306 0.303755 1.71531 0
M  V30 1958 C 192.438 0.704862 3.33533 0
M  V30 1959 H 193.631 2.07966 2.16079 0
M  V30 1960 H 191.184 1.11058 1.09981 0
M  V30 1961 H 191.919 -0.258299 3.2327 0
M  V30 1962 H 191.704 1.4699 3.63505 0
M  V30 1963 H 193.194 0.612768 4.1308 0
M  V30 1964 N 193.631 -1.12557 1.10312 0
M  V30 1965 C 194.878 -1.84038 0.844759 0
M  V30 1966 C 195.206 -1.84026 -0.629668 0
M  V30 1967 O 194.461 -1.28026 -1.48013 0
M  V30 1968 C 194.76 -3.31462 1.33669 0
M  V30 1969 C 194.426 -3.51647 2.82232 0
M  V30 1970 C 193.088 -3.56864 3.22802 0
M  V30 1971 C 195.44 -3.58867 3.77974 0
M  V30 1972 C 192.768 -3.66844 4.57867 0
M  V30 1973 C 195.12 -3.70375 5.1284 0
M  V30 1974 C 193.784 -3.73848 5.52986 0
M  V30 1975 H 193.054 -0.673444 0.309119 0
M  V30 1976 H 195.701 -1.32824 1.37949 0
M  V30 1977 H 194.006 -3.85091 0.721949 0
M  V30 1978 H 195.703 -3.85236 1.11329 0
M  V30 1979 H 192.293 -3.48249 2.49842 0
M  V30 1980 H 196.477 -3.54107 3.47738 0
M  V30 1981 H 191.733 -3.67804 4.88396 0
M  V30 1982 H 195.907 -3.74904 5.86873 0
M  V30 1983 H 193.534 -3.81333 6.57639 0
M  V30 1984 N 195.109 -0.891671 -1.2995 0
M  V30 1985 C 196.039 -0.379797 -2.30391 0
M  V30 1986 C 197.02 0.540919 -1.6127 0
M  V30 1987 O 198.205 0.453352 -1.88834 0
M  V30 1988 C 195.335 0.400654 -3.44981 0
M  V30 1989 C 194.289 -0.428905 -4.25846 0
M  V30 1990 C 193.615 0.478557 -5.32554 0
M  V30 1991 C 194.915 -1.67458 -4.94727 0
M  V30 1992 H 196.609 -1.21914 -2.73454 0
M  V30 1993 H 194.155 -0.587675 -1.31462 0
M  V30 1994 H 196.108 0.769434 -4.14316 0
M  V30 1995 H 194.832 1.27371 -3.0074 0
M  V30 1996 H 193.491 -0.779911 -3.58208 0
M  V30 1997 H 193.139 1.34951 -4.84559 0
M  V30 1998 H 192.839 -0.0727433 -5.87555 0
M  V30 1999 H 194.363 0.843705 -6.04743 0
M  V30 2000 H 195.777 -1.376 -5.56542 0
M  V30 2001 H 194.174 -2.16659 -5.59624 0
M  V30 2002 H 195.244 -2.41518 -4.20473 0
M  V30 2003 N 196.587 1.43421 -0.653314 0
M  V30 2004 C 197.827 2.03689 -0.170346 0
M  V30 2005 C 198.191 1.50427 1.19314 0
M  V30 2006 O 199.392 2.0234 1.76952 0
M  V30 2007 C 197.663 3.56946 -0.180183 0
M  V30 2008 S 199.222 4.38171 0.234925 0
M  V30 2009 H 196.04 0.707345 -0.0719976 0
M  V30 2010 H 198.642 1.75486 -0.86167 0
M  V30 2011 H 197.346 3.93212 -1.17526 0
M  V30 2012 H 196.877 3.89791 0.531675 0
M  V30 2013 H 198.892 4.73808 1.47378 0
M  V30 2014 N 198.065 0.39524 1.52563 0
M  V30 2015 C 199.313 -0.184678 2.01254 0
M  V30 2016 C 199.634 -1.46822 1.28329 0
M  V30 2017 O 198.904 -1.91666 0.405094 0
M  V30 2018 H 197.484 -0.0712355 0.743596 0
M  V30 2019 H 200.146 0.528293 1.87603 0
M  V30 2020 H 199.242 -0.390681 3.09645 0
M  V30 2021 N 199.544 -1.57102 0.125237 0
M  V30 2022 C 200.491 -2.15641 -0.822655 0
M  V30 2023 C 201.461 -1.08313 -1.25927 0
M  V30 2024 O 202.646 -1.36251 -1.33567 0
M  V30 2025 C 199.786 -2.76504 -2.06494 0
M  V30 2026 C 198.899 -3.98158 -1.67612 0
M  V30 2027 C 198.034 -4.47088 -2.86854 0
M  V30 2028 C 197.073 -5.6126 -2.44242 0
M  V30 2029 N 196.21 -6.04905 -3.56419 0
M  V30 2030 H 201.05 -2.96313 -0.316625 0
M  V30 2031 H 198.587 -1.46388 -0.144588 0
M  V30 2032 H 200.545 -3.09925 -2.79289 0
M  V30 2033 H 199.175 -1.98512 -2.54545 0
M  V30 2034 H 198.227 -3.70858 -0.846661 0
M  V30 2035 H 199.539 -4.80934 -1.32301 0
M  V30 2036 H 198.693 -4.82451 -3.67867 0
M  V30 2037 H 197.432 -3.63275 -3.25396 0
M  V30 2038 H 196.437 -5.25495 -1.61663 0
M  V30 2039 H 197.662 -6.46843 -2.0681 0
M  V30 2040 H 195.608 -5.24032 -3.94623 0
M  V30 2041 H 195.525 -6.82552 -3.25051 0
M  V30 2042 H 196.793 -6.44907 -4.37853 0
M  V30 2043 N 201.022 0.148545 -1.56898 0
M  V30 2044 C 202.25 0.876389 -1.87422 0
M  V30 2045 C 202.665 1.74809 -0.713256 0
M  V30 2046 O 202.022 1.79725 0.317025 0
M  V30 2047 C 202.073 1.73438 -3.17178 0
M  V30 2048 O 201.794 0.897809 -4.28802 0
M  V30 2049 C 203.295 2.56993 -3.61205 0
M  V30 2050 H 200.515 0.253489 -0.621277 0
M  V30 2051 H 203.059 0.141798 -2.04008 0
M  V30 2052 H 201.214 2.42205 -3.0235 0
M  V30 2053 H 201.628 1.48672 -5.02988 0
M  V30 2054 H 203.102 3.12773 -4.54838 0
M  V30 2055 H 203.579 3.32958 -2.86419 0
M  V30 2056 H 204.185 1.9352 -3.78722 0
M  V30 2057 N 202.5 1.5196 0.417844 0
M  V30 2058 C 203.43 1.77634 1.51554 0
M  V30 2059 C 204.411 0.626918 1.58126 0
M  V30 2060 O 205.596 0.871632 1.7354 0
M  V30 2061 C 202.726 1.91911 2.8946 0
M  V30 2062 C 201.68 3.07463 2.97743 0
M  V30 2063 C 201.006 3.06951 4.37819 0
M  V30 2064 C 202.306 4.47082 2.70027 0
M  V30 2065 H 204 2.6955 1.3032 0
M  V30 2066 H 201.546 1.29706 0.625492 0
M  V30 2067 H 203.499 2.08455 3.6623 0
M  V30 2068 H 202.223 0.966598 3.11969 0
M  V30 2069 H 200.882 2.90656 2.23416 0
M  V30 2070 H 200.53 2.09438 4.57323 0
M  V30 2071 H 200.23 3.84556 4.44286 0
M  V30 2072 H 201.754 3.25613 5.16535 0
M  V30 2073 H 203.168 4.6414 3.36522 0
M  V30 2074 H 201.565 5.2654 2.87881 0
M  V30 2075 H 202.635 4.55777 1.65514 0
M  V30 2076 N 203.978 -0.674533 1.42435 0
M  V30 2077 C 205.226 -1.43175 1.42637 0
M  V30 2078 C 205.547 -1.94951 0.0438992 0
M  V30 2079 O 204.817 -1.7308 -0.917607 0
M  V30 2080 H 203.397 -0.531307 0.525092 0
M  V30 2081 H 206.059 -0.797006 1.77859 0
M  V30 2082 H 205.155 -2.28463 2.12629 0
M  V30 2083 N 205.456 -1.28612 -0.910864 0
M  V30 2084 C 206.684 -1.18792 -1.69399 0
M  V30 2085 C 207.099 0.253039 -1.87097 0
M  V30 2086 O 206.456 1.17071 -1.40003 0
M  V30 2087 C 206.507 -1.88511 -3.08457 0
M  V30 2088 O 206.228 -3.26979 -2.91576 0
M  V30 2089 C 207.729 -1.85029 -4.02839 0
M  V30 2090 H 204.949 -0.412233 -0.529438 0
M  V30 2091 H 207.493 -1.69788 -1.13984 0
M  V30 2092 H 205.648 -1.41379 -3.60681 0
M  V30 2093 H 206.062 -3.61936 -3.79608 0
M  V30 2094 H 207.536 -2.38395 -4.97867 0
M  V30 2095 H 208.013 -0.823303 -4.31414 0
M  V30 2096 H 208.619 -2.31853 -3.56545 0
M  V30 2097 N 206.934 1.1197 -1.10907 0
M  V30 2098 C 208.345 1.65114 -0.871446 0
M  V30 2099 C 208.696 1.86885 0.597353 0
M  V30 2100 O 207.821 1.59896 1.45816 0
M  V30 2101 C 208.416 2.99944 -1.5754 0
M  V30 2102 C 206.975 3.50018 -1.38435 0
M  V30 2103 C 206.122 2.24941 -1.62164 0
M  V30 2104 H 209.073 0.956851 -1.2661 0
M  V30 2105 H 209.094 3.66651 -1.01721 0
M  V30 2106 H 208.606 2.84067 -2.64438 0
M  V30 2107 H 206.707 3.71071 -0.337214 0
M  V30 2108 H 206.82 4.29165 -2.12965 0
M  V30 2109 H 205.184 2.3229 -1.04467 0
M  V30 2110 H 205.967 2.11612 -2.70324 0
M  V30 2111 N 208.412 0.89855 1.29475 0
M  V30 2112 C 209.322 0.379974 2.31502 0
M  V30 2113 C 210.338 -0.524695 1.659 0
M  V30 2114 O 211.514 -0.414551 1.97087 0
M  V30 2115 C 208.579 -0.385138 3.44554 0
M  V30 2116 C 207.64 0.550914 4.2575 0
M  V30 2117 C 206.873 -0.177778 5.33404 0
M  V30 2118 O 207.096 -1.40189 5.52904 0
M  V30 2119 O 206.03 0.479106 5.9999 0
M  V30 2120 H 209.856 1.22639 2.77837 0
M  V30 2121 H 207.441 0.662834 1.33891 0
M  V30 2122 H 209.323 -0.817841 4.13388 0
M  V30 2123 H 207.998 -1.20763 3.0033 0
M  V30 2124 H 206.905 1.03271 3.59564 0
M  V30 2125 H 208.238 1.33979 4.73614 0
M  V30 2126 N 209.89 -1.43072 0.660911 0
M  V30 2127 C 211.137 -2.01721 0.177445 0
M  V30 2128 C 211.465 -1.5218 -1.21126 0
M  V30 2129 O 210.72 -0.708659 -1.82419 0
M  V30 2130 C 211.019 -3.57103 0.145563 0
M  V30 2131 C 210.685 -4.26021 1.47705 0
M  V30 2132 C 209.347 -4.44563 1.84165 0
M  V30 2133 C 211.699 -4.64983 2.35458 0
M  V30 2134 C 209.027 -4.99334 3.0803 0
M  V30 2135 C 211.379 -5.21127 3.58622 0
M  V30 2136 C 210.043 -5.37884 3.95268 0
M  V30 2137 H 209.313 -0.73815 0.0649317 0
M  V30 2138 H 211.96 -1.71446 0.853144 0
M  V30 2139 H 210.265 -3.86965 -0.61361 0
M  V30 2140 H 211.962 -4.00248 -0.2455 0
M  V30 2141 H 208.552 -4.11939 1.18339 0
M  V30 2142 H 212.736 -4.50343 2.08579 0
M  V30 2143 H 207.992 -5.10493 3.36462 0
M  V30 2144 H 212.166 -5.50262 4.26831 0
M  V30 2145 H 209.793 -5.80089 4.91325 0
M  V30 2146 N 211.368 -0.403325 -1.52352 0
M  V30 2147 C 212.614 0.174605 -2.02047 0
M  V30 2148 C 212.947 1.45282 -1.28867 0
M  V30 2149 O 212.222 1.90483 -0.393257 0
M  V30 2150 C 212.505 0.428238 -3.57545 0
M  V30 2151 C 212.358 -0.866248 -4.4138 0
M  V30 2152 C 213.677 1.21287 -4.23057 0
M  V30 2153 H 210.796 0.0619851 -0.734389 0
M  V30 2154 H 213.438 -0.53565 -1.82293 0
M  V30 2155 H 211.588 1.03327 -3.74507 0
M  V30 2156 H 213.26 -1.50265 -4.3614 0
M  V30 2157 H 211.503 -1.47851 -4.07827 0
M  V30 2158 H 212.174 -0.643249 -5.48239 0
M  V30 2159 H 214.65 0.700703 -4.10158 0
M  V30 2160 H 213.526 1.35909 -5.31808 0
M  V30 2161 H 213.787 2.23193 -3.81625 0
M  V30 2162 N 212.846 1.57033 -0.133567 0
M  V30 2163 C 214.074 2.00044 0.528195 0
M  V30 2164 C 214.489 1.01349 1.59291 0
M  V30 2165 O 213.846 0.00848369 1.82498 0
M  V30 2166 C 213.897 3.43018 1.1411 0
M  V30 2167 O 213.618 4.37939 0.11892 0
M  V30 2168 C 215.119 4.01237 1.88477 0
M  V30 2169 H 212.339 0.656517 0.138661 0
M  V30 2170 H 214.883 2.03267 -0.224196 0
M  V30 2171 H 213.038 3.40688 1.84418 0
M  V30 2172 H 213.452 5.21436 0.56613 0
M  V30 2173 H 214.926 5.03314 2.26669 0
M  V30 2174 H 215.403 3.41193 2.76558 0
M  V30 2175 H 216.009 4.07156 1.22898 0
M  V30 2176 N 214.325 -0.140222 1.56975 0
M  V30 2177 C 215.288 -1.15689 1.97861 0
M  V30 2178 C 216.288 -1.3549 0.865974 0
M  V30 2179 O 217.478 -1.32367 1.13246 0
M  V30 2180 C 214.61 -2.51582 2.30042 0
M  V30 2181 H 215.803 -0.805971 2.88867 0
M  V30 2182 H 213.356 -0.383801 1.51515 0
M  V30 2183 H 214.091 -2.91632 1.41849 0
M  V30 2184 H 213.876 -2.38569 3.11171 0
M  V30 2185 H 215.366 -3.24792 2.62488 0
M  V30 2186 N 215.803 -1.52179 -0.40978 0
M  V30 2187 C 217.031 -1.70054 -1.17853 0
M  V30 2188 C 217.446 -0.409735 -1.843 0
M  V30 2189 O 216.803 0.614183 -1.71855 0
M  V30 2190 C 216.854 -2.83568 -2.24213 0
M  V30 2191 O 216.575 -4.0765 -1.60478 0
M  V30 2192 C 218.076 -3.12947 -3.13973 0
M  V30 2193 H 215.296 -0.569917 -0.354169 0
M  V30 2194 H 217.84 -1.98734 -0.482198 0
M  V30 2195 H 215.995 -2.57409 -2.89516 0
M  V30 2196 H 216.409 -4.70899 -2.30986 0
M  V30 2197 H 217.883 -3.95889 -3.84677 0
M  V30 2198 H 218.36 -2.26472 -3.76307 0
M  V30 2199 H 218.966 -3.40868 -2.5434 0
M  V30 2200 N 217.281 0.66697 -1.42791 0
M  V30 2201 C 218.191 1.80962 -1.49299 0
M  V30 2202 C 219.207 1.69775 -0.381108 0
M  V30 2203 O 220.383 1.91188 -0.633188 0
M  V30 2204 C 217.448 3.17156 -1.40045 0
M  V30 2205 C 216.509 3.40242 -2.6179 0
M  V30 2206 C 215.742 4.69939 -2.52969 0
M  V30 2207 O 215.965 5.48372 -1.56985 0
M  V30 2208 O 214.899 4.94441 -3.43237 0
M  V30 2209 H 218.725 1.78427 -2.45759 0
M  V30 2210 H 216.31 0.823713 -1.24641 0
M  V30 2211 H 218.192 3.98413 -1.37276 0
M  V30 2212 H 216.867 3.20312 -0.467138 0
M  V30 2213 H 215.774 2.58802 -2.70134 0
M  V30 2214 H 217.107 3.41923 -3.54047 0
M  V30 2215 N 218.759 1.29093 0.90403 0
M  V30 2216 C 219.999 1.18076 1.66845 0
M  V30 2217 C 220.363 -0.26436 1.90171 0
M  V30 2218 O 221.564 -0.497423 2.64157 0
M  V30 2219 C 219.835 1.96722 2.98388 0
M  V30 2220 S 221.394 2.0219 3.89441 0
M  V30 2221 H 218.212 0.421104 0.572881 0
M  V30 2222 H 220.814 1.63322 1.07453 0
M  V30 2223 H 219.518 3.00866 2.7912 0
M  V30 2224 H 219.049 1.52064 3.62823 0
M  V30 2225 H 221.064 1.13545 4.83034 0
M  V30 2226 N 220.237 -1.11381 1.11499 0
M  V30 2227 C 221.483 -1.83403 0.865512 0
M  V30 2228 C 221.816 -1.84459 -0.607329 0
M  V30 2229 O 221.091 -1.29811 -1.44842 0
M  V30 2230 C 221.374 -3.30552 1.42855 0
M  V30 2231 C 221.227 -3.37886 2.96906 0
M  V30 2232 C 222.546 -4.26643 1.08 0
M  V30 2233 H 219.665 -0.665879 0.31587 0
M  V30 2234 H 222.307 -1.30601 1.37998 0
M  V30 2235 H 220.457 -3.75648 0.990985 0
M  V30 2236 H 222.129 -3.01343 3.49271 0
M  V30 2237 H 220.372 -2.78088 3.32941 0
M  V30 2238 H 221.043 -4.41458 3.31389 0
M  V30 2239 H 223.519 -3.89729 1.45775 0
M  V30 2240 H 222.395 -5.27986 1.50072 0
M  V30 2241 H 222.656 -4.42099 -0.00915037 0
M  V30 2242 N 221.715 -0.905404 -1.28997 0
M  V30 2243 C 222.665 -0.358713 -2.25161 0
M  V30 2244 C 223.649 0.524449 -1.52113 0
M  V30 2245 O 224.841 0.365534 -1.73184 0
M  V30 2246 C 221.97 0.407609 -3.40872 0
M  V30 2247 C 221.056 -0.490797 -4.21251 0
M  V30 2248 N 221.447 -1.60061 -4.79806 0
M  V30 2249 C 219.745 -0.289636 -4.45059 0
M  V30 2250 C 220.446 -2.15757 -5.40207 0
M  V30 2251 N 219.422 -1.44988 -5.23908 0
M  V30 2252 H 223.224 -1.20642 -2.67998 0
M  V30 2253 H 220.738 -0.757103 -1.43672 0
M  V30 2254 H 222.735 0.816046 -4.08835 0
M  V30 2255 H 221.395 1.25251 -2.9957 0
M  V30 2256 H 222.406 -1.98329 -4.7842 0
M  V30 2257 H 219.083 0.51643 -4.14294 0
M  V30 2258 H 220.473 -3.09069 -5.96595 0
M  V30 2259 N 223.193 1.4272 -0.668489 0
M  V30 2260 C 224.423 2.05668 -0.196063 0
M  V30 2261 C 224.831 1.5028 1.14946 0
M  V30 2262 O 224.174 0.6348 1.72383 0
M  V30 2263 C 224.236 3.59469 -0.0468879 0
M  V30 2264 C 223.9 4.37518 -1.32012 0
M  V30 2265 C 224.897 4.68584 -2.25222 0
M  V30 2266 C 222.582 4.77266 -1.56596 0
M  V30 2267 C 224.576 5.38326 -3.41297 0
M  V30 2268 C 222.263 5.4675 -2.72962 0
M  V30 2269 C 223.261 5.77204 -3.65137 0
M  V30 2270 O 222.949 6.45264 -4.79468 0
M  V30 2271 H 222.681 0.669382 -0.0943599 0
M  V30 2272 H 225.235 1.83954 -0.913788 0
M  V30 2273 H 223.465 3.79817 0.726357 0
M  V30 2274 H 225.154 4.04071 0.384852 0
M  V30 2275 H 225.92 4.38382 -2.07477 0
M  V30 2276 H 221.799 4.52959 -0.857249 0
M  V30 2277 H 225.343 5.62014 -4.13263 0
M  V30 2278 H 221.24 5.76369 -2.90635 0
M  V30 2279 H 222.008 6.63753 -4.78931 0
M  V30 2280 N 224.671 0.411399 1.52136 0
M  V30 2281 C 225.918 -0.163645 2.01838 0
M  V30 2282 C 226.246 -1.4495 1.29691 0
M  V30 2283 O 225.501 -1.91725 0.392431 0
M  V30 2284 C 225.8 -0.455872 3.54481 0
M  V30 2285 C 225.466 0.741055 4.44769 0
M  V30 2286 C 224.128 1.06936 4.69167 0
M  V30 2287 C 226.48 1.54075 4.97906 0
M  V30 2288 C 223.808 2.19851 5.43951 0
M  V30 2289 C 226.16 2.66067 5.73926 0
M  V30 2290 C 224.824 2.99381 5.96596 0
M  V30 2291 H 224.094 -0.0598821 0.738576 0
M  V30 2292 H 226.741 0.553283 1.83333 0
M  V30 2293 H 225.046 -1.2544 3.71177 0
M  V30 2294 H 226.743 -0.913802 3.90449 0
M  V30 2295 H 223.333 0.475192 4.25958 0
M  V30 2296 H 227.517 1.30033 4.78963 0
M  V30 2297 H 222.773 2.46006 5.59724 0
M  V30 2298 H 226.947 3.28419 6.14096 0
M  V30 2299 H 224.574 3.86992 6.54325 0
M  V30 2300 N 226.149 -1.5696 0.141893 0
M  V30 2301 C 227.059 -2.20066 -0.812905 0
M  V30 2302 C 228.075 -1.18344 -1.27557 0
M  V30 2303 O 229.251 -1.50902 -1.33381 0
M  V30 2304 C 226.316 -2.80583 -2.03652 0
M  V30 2305 C 225.377 -3.97414 -1.62359 0
M  V30 2306 C 224.61 -4.55036 -2.78887 0
M  V30 2307 O 224.833 -4.11538 -3.94959 0
M  V30 2308 O 223.767 -5.45376 -2.54653 0
M  V30 2309 H 227.593 -3.02157 -0.305746 0
M  V30 2310 H 225.178 -1.49159 -0.0848799 0
M  V30 2311 H 227.06 -3.19067 -2.75272 0
M  V30 2312 H 225.735 -2.01508 -2.5333 0
M  V30 2313 H 224.642 -3.63656 -0.877775 0
M  V30 2314 H 225.975 -4.77994 -1.17401 0
M  V30 2315 N 227.627 0.131896 -1.57047 0
M  V30 2316 C 228.873 0.838268 -1.85323 0
M  V30 2317 C 229.228 1.78098 -0.727937 0
M  V30 2318 O 228.521 1.89645 0.27304 0
M  V30 2319 C 228.715 1.63703 -3.17704 0
M  V30 2320 C 228.544 0.773167 -4.43004 0
M  V30 2321 C 227.314 0.432956 -5.03442 0
M  V30 2322 C 229.512 0.0966216 -5.14209 0
M  V30 2323 N 227.494 -0.442924 -6.123 0
M  V30 2324 C 228.865 -0.638778 -6.16701 0
M  V30 2325 C 230.92 0.018861 -4.97896 0
M  V30 2326 C 229.623 -1.44462 -7.04644 0
M  V30 2327 C 231.649 -0.773762 -5.86316 0
M  V30 2328 C 231.011 -1.4974 -6.883 0
M  V30 2329 H 227.11 0.284086 -0.728573 0
M  V30 2330 H 229.694 0.102731 -1.94429 0
M  V30 2331 H 227.865 2.3437 -3.09718 0
M  V30 2332 H 229.597 2.28774 -3.33833 0
M  V30 2333 H 226.352 0.772237 -4.67262 0
M  V30 2334 H 226.776 -0.872332 -6.71356 0
M  V30 2335 H 231.418 0.56397 -4.19022 0
M  V30 2336 H 229.136 -2.00093 -7.82936 0
M  V30 2337 H 232.722 -0.83612 -5.75761 0
M  V30 2338 H 231.602 -2.10087 -7.55535 0
M  V30 2339 N 229.106 1.52395 0.401703 0
M  V30 2340 C 230.522 1.41363 0.740864 0
M  V30 2341 C 230.722 0.523982 1.94568 0
M  V30 2342 O 229.778 -0.00741204 2.52499 0
M  V30 2343 C 231.091 2.84011 0.987847 0
M  V30 2344 C 232.639 2.93404 1.09011 0
M  V30 2345 C 233.114 4.37036 1.3698 0
M  V30 2346 N 234.605 4.40304 1.43829 0
M  V30 2347 C 235.34 5.48508 1.67112 0
M  V30 2348 N 234.836 6.66819 1.87949 0
M  V30 2349 N 236.629 5.36034 1.69187 0
M  V30 2350 H 228.78 2.08765 -0.391262 0
M  V30 2351 H 231.043 0.941265 -0.112798 0
M  V30 2352 H 230.749 3.51265 0.174835 0
M  V30 2353 H 230.623 3.25502 1.906 0
M  V30 2354 H 233.01 2.26325 1.8937 0
M  V30 2355 H 233.091 2.55359 0.15015 0
M  V30 2356 H 232.735 5.04676 0.571353 0
M  V30 2357 H 232.665 4.72623 2.3224 0
M  V30 2358 H 235.156 3.55024 1.29486 0
M  V30 2359 H 235.469 7.45063 2.05185 0
M  V30 2360 H 233.814 6.6987 1.85199 0
M  V30 2361 H 237.005 4.42579 1.52451 0
M  V30 2362 H 237.178 6.20434 1.86993 0
M  V30 2363 N 230.584 -0.659388 1.43143 0
M  V30 2364 C 231.812 -1.44723 1.47861 0
M  V30 2365 C 232.227 -1.88563 0.0945886 0
M  V30 2366 O 231.584 -1.59108 -0.893915 0
M  V30 2367 C 231.635 -2.68627 2.41913 0
M  V30 2368 O 231.356 -2.26623 3.74932 0
M  V30 2369 C 232.857 -3.62045 2.55809 0
M  V30 2370 H 230.077 -0.444801 0.502387 0
M  V30 2371 H 232.621 -0.808916 1.87821 0
M  V30 2372 H 230.776 -3.28613 2.05164 0
M  V30 2373 H 231.19 -3.06745 4.2545 0
M  V30 2374 H 232.664 -4.45666 3.25708 0
M  V30 2375 H 233.141 -4.08981 1.60099 0
M  V30 2376 H 233.747 -3.07944 2.93344 0
M  V30 2377 N 232.062 -1.29571 -0.897171 0
M  V30 2378 C 233.29 -1.20583 -1.68129 0
M  V30 2379 C 233.705 0.233181 -1.87354 0
M  V30 2380 O 233.062 1.15579 -1.41236 0
M  V30 2381 C 233.113 -1.91772 -3.06441 0
M  V30 2382 O 232.834 -3.30053 -2.88091 0
M  V30 2383 C 234.335 -1.89291 -4.00854 0
M  V30 2384 H 231.555 -0.417826 -0.525036 0
M  V30 2385 H 234.099 -1.70987 -1.12177 0
M  V30 2386 H 232.254 -1.45196 -3.59161 0
M  V30 2387 H 232.668 -3.65942 -3.75748 0
M  V30 2388 H 234.142 -2.43662 -4.95311 0
M  V30 2389 H 234.619 -0.869014 -4.30517 0
M  V30 2390 H 235.225 -2.35622 -3.54066 0
M  V30 2391 N 233.54 1.10788 -1.12088 0
M  V30 2392 C 234.503 2.15207 -0.788577 0
M  V30 2393 C 235.503 1.59609 0.195317 0
M  V30 2394 O 236.693 1.74174 -0.0300193 0
M  V30 2395 C 233.825 3.4047 -0.171174 0
M  V30 2396 H 235.018 2.46116 -1.71368 0
M  V30 2397 H 232.571 1.26089 -0.923652 0
M  V30 2398 H 233.306 3.15176 0.763832 0
M  V30 2399 H 233.091 3.82109 -0.879514 0
M  V30 2400 H 234.581 4.17576 0.04496 0
M  V30 2401 N 235.018 0.912232 1.28515 0
M  V30 2402 C 235.981 0.404223 2.25607 0
M  V30 2403 C 236.981 -0.468602 1.53821 0
M  V30 2404 O 238.171 -0.271873 1.72065 0
M  V30 2405 C 235.303 -0.420653 3.38295 0
M  V30 2406 H 236.496 1.26188 2.7206 0
M  V30 2407 H 234.049 0.691495 1.40171 0
M  V30 2408 H 234.784 -1.29777 2.97201 0
M  V30 2409 H 234.569 0.204935 3.91564 0
M  V30 2410 H 236.059 -0.766971 4.10496 0
M  V30 2411 N 236.496 -1.42363 0.676048 0
M  V30 2412 C 237.736 -2.03392 0.20273 0
M  V30 2413 C 238.1 -1.52306 -1.16906 0
M  V30 2414 O 239.301 -2.05129 -1.73711 0
M  V30 2415 C 237.572 -3.56614 0.236947 0
M  V30 2416 S 239.131 -4.38489 -0.165186 0
M  V30 2417 H 235.949 -0.70611 0.0832418 0
M  V30 2418 H 238.551 -1.74093 0.88948 0
M  V30 2419 H 237.255 -3.91293 1.23767 0
M  V30 2420 H 236.786 -3.90587 -0.469596 0
M  V30 2421 H 238.801 -4.76093 -1.39822 0
M  V30 2422 N 237.974 -0.419461 -1.51915 0
M  V30 2423 C 238.921 0.400927 -2.27291 0
M  V30 2424 C 239.891 1.03224 -1.30131 0
M  V30 2425 O 241.076 1.05455 -1.59009 0
M  V30 2426 C 238.216 1.50603 -3.10504 0
M  V30 2427 C 237.329 0.89462 -4.22635 0
M  V30 2428 C 236.464 1.97328 -4.93189 0
M  V30 2429 C 235.503 1.33935 -5.97267 0
M  V30 2430 N 234.64 2.3586 -6.61298 0
M  V30 2431 H 239.48 -0.248251 -2.96964 0
M  V30 2432 H 237.017 -0.134266 -1.46486 0
M  V30 2433 H 238.975 2.15783 -3.57062 0
M  V30 2434 H 237.605 2.12509 -2.42981 0
M  V30 2435 H 236.657 0.131583 -3.80172 0
M  V30 2436 H 237.969 0.391641 -4.9726 0
M  V30 2437 H 237.123 2.70211 -5.43204 0
M  V30 2438 H 235.862 2.50994 -4.18155 0
M  V30 2439 H 234.867 0.595896 -5.46561 0
M  V30 2440 H 236.092 0.810252 -6.74249 0
M  V30 2441 H 234.038 2.88639 -5.89087 0
M  V30 2442 H 233.955 1.90403 -7.3163 0
M  V30 2443 H 235.223 3.08282 -7.15949 0
M  V30 2444 N 239.452 1.56882 -0.150215 0
M  V30 2445 C 240.399 2.16922 0.788244 0
M  V30 2446 C 241.369 1.10303 1.24187 0
M  V30 2447 O 242.554 1.38359 1.31383 0
M  V30 2448 C 239.694 2.79754 2.02068 0
M  V30 2449 C 238.807 4.00775 1.61257 0
M  V30 2450 C 237.942 4.51595 2.79705 0
M  V30 2451 C 236.981 5.65074 2.35282 0
M  V30 2452 N 236.118 6.10499 3.4675 0
M  V30 2453 H 240.958 2.96779 0.269444 0
M  V30 2454 H 238.495 1.46599 0.12128 0
M  V30 2455 H 240.453 3.14329 2.74323 0
M  V30 2456 H 239.083 2.02536 2.51354 0
M  V30 2457 H 238.135 3.72158 0.787553 0
M  V30 2458 H 239.447 4.82978 1.24633 0
M  V30 2459 H 238.601 4.88242 3.60145 0
M  V30 2460 H 237.34 3.68406 3.19576 0
M  V30 2461 H 236.345 5.28 1.53283 0
M  V30 2462 H 237.57 6.50052 1.96493 0
M  V30 2463 H 235.516 5.30243 3.86236 0
M  V30 2464 H 235.433 6.87637 3.14152 0
M  V30 2465 H 236.701 6.51791 4.27537 0
M  V30 2466 N 240.93 -0.123565 1.57115 0
M  V30 2467 C 242.207 -0.862196 1.75572 0
M  V30 2468 C 242.587 -1.98279 0.724475 0
M  V30 2469 O 241.935 -2.27102 -0.252407 0
M  V30 2470 C 242.145 -1.38309 3.20424 0
M  V30 2471 C 243.493 -1.83724 3.82793 0
M  V30 2472 O 244.517 -1.47999 3.23998 0
M  V30 2473 O 243.376 -2.49685 4.86127 0
M  V30 2474 H 240.47 -0.409113 0.718718 0
M  V30 2475 H 243.016 -0.107661 1.69358 0
M  V30 2476 H 241.788 -0.578889 3.86994 0
M  V30 2477 H 241.411 -2.20046 3.31158 0
M  V30 2478 N 242.408 -1.52605 -0.393616 0
M  V30 2479 C 243.657 -1.66649 -1.13627 0
M  V30 2480 C 243.97 -0.410364 -1.91247 0
M  V30 2481 O 245.176 -0.430854 -2.68059 0
M  V30 2482 C 243.632 -2.9449 -2.06891 0
M  V30 2483 C 243.24 -4.27266 -1.34714 0
M  V30 2484 C 244.984 -3.17899 -2.81319 0
M  V30 2485 C 242.891 -5.46217 -2.26717 0
M  V30 2486 H 241.821 -0.62084 -0.427871 0
M  V30 2487 H 244.472 -1.791 -0.399428 0
M  V30 2488 H 242.854 -2.75774 -2.84191 0
M  V30 2489 H 244.028 -4.56518 -0.626714 0
M  V30 2490 H 242.343 -4.10081 -0.722643 0
M  V30 2491 H 244.94 -4.03949 -3.50328 0
M  V30 2492 H 245.283 -2.32777 -3.45139 0
M  V30 2493 H 245.816 -3.37159 -2.11113 0
M  V30 2494 H 242.555 -6.33733 -1.67521 0
M  V30 2495 H 242.075 -5.21283 -2.96689 0
M  V30 2496 H 243.754 -5.7991 -2.86903 0
M  V30 2497 N 243.887 0.651787 -1.4349 0
M  V30 2498 C 245.134 1.41167 -1.45183 0
M  V30 2499 C 245.462 1.94349 -0.0766601 0
M  V30 2500 O 244.717 1.72804 0.918555 0
M  V30 2501 C 245.016 2.60914 -2.44251 0
M  V30 2502 C 244.682 2.26142 -3.9009 0
M  V30 2503 C 243.344 2.16371 -4.2981 0
M  V30 2504 C 245.696 1.98334 -4.81989 0
M  V30 2505 C 243.024 1.7695 -5.5938 0
M  V30 2506 C 245.376 1.6041 -6.11924 0
M  V30 2507 C 244.04 1.49166 -6.5062 0
M  V30 2508 H 243.31 0.516566 -0.531263 0
M  V30 2509 H 245.957 0.741099 -1.76579 0
M  V30 2510 H 244.262 3.3311 -2.06265 0
M  V30 2511 H 245.959 3.19127 -2.42815 0
M  V30 2512 H 242.549 2.34658 -3.58655 0
M  V30 2513 H 246.733 2.04803 -4.52072 0
M  V30 2514 H 241.989 1.66831 -5.88198 0
M  V30 2515 H 246.163 1.37925 -6.82605 0
M  V30 2516 H 243.79 1.1839 -7.50925 0
M  V30 2517 N 245.365 1.30045 0.890287 0
M  V30 2518 C 246.312 1.15976 1.99545 0
M  V30 2519 C 247.282 0.0506202 1.66023 0
M  V30 2520 O 248.467 0.219847 1.89529 0
M  V30 2521 C 245.607 0.852054 3.34416 0
M  V30 2522 C 244.72 2.04255 3.80662 0
M  V30 2523 C 243.855 1.6734 5.04154 0
M  V30 2524 C 242.894 2.82916 5.42794 0
M  V30 2525 N 242.031 2.46333 6.57468 0
M  V30 2526 H 246.871 2.10524 2.10911 0
M  V30 2527 H 244.408 1.04749 1.03276 0
M  V30 2528 H 246.366 0.654296 4.12037 0
M  V30 2529 H 244.996 -0.0565502 3.2275 0
M  V30 2530 H 244.048 2.35172 2.98995 0
M  V30 2531 H 245.36 2.90826 4.05242 0
M  V30 2532 H 244.514 1.43908 5.89386 0
M  V30 2533 H 243.253 0.779308 4.81433 0
M  V30 2534 H 242.258 3.0702 4.56091 0
M  V30 2535 H 243.483 3.73004 5.6749 0
M  V30 2536 H 241.429 1.59423 6.36334 0
M  V30 2537 H 241.346 3.26436 6.81891 0
M  V30 2538 H 242.614 2.26244 7.45945 0
M  V30 2539 N 246.843 -1.10192 1.12674 0
M  V30 2540 C 247.806 -2.14786 0.799979 0
M  V30 2541 C 248.806 -1.59711 -0.18685 0
M  V30 2542 O 249.996 -1.74156 0.0392558 0
M  V30 2543 C 247.128 -3.40374 0.189228 0
M  V30 2544 H 248.321 -2.45203 1.72671 0
M  V30 2545 H 245.874 -1.25597 0.930326 0
M  V30 2546 H 246.609 -3.15577 -0.747107 0
M  V30 2547 H 246.394 -3.81637 0.899766 0
M  V30 2548 H 247.884 -4.17594 -0.0228143 0
M  V30 2549 N 248.321 -0.919034 -1.28029 0
M  V30 2550 C 249.269 -0.401753 -2.29104 0
M  V30 2551 C 250.263 0.509354 -1.61561 0
M  V30 2552 O 251.469 0.390014 -1.75724 0
M  V30 2553 H 247.844 -0.111331 -0.743713 0
M  V30 2554 H 249.815 -1.2672 -2.70156 0
M  V30 2555 C 248.564 0.338148 -3.46052 0
M  V30 2556 H 247.887 -0.353732 -3.98232 0
M  V30 2557 H 249.327 0.664653 -4.18758 0
M  V30 2558 C 247.786 1.54798 -2.99231 0
M  V30 2559 O 248.316 2.64696 -3.02157 0
M  V30 2560 N 246.522 1.3968 -2.54829 0
M  V30 2561 H 246.069 0.502698 -2.52647 0
M  V30 2562 H 246.027 2.20755 -2.23863 0
M  V30 2563 N 249.799 1.42003 -0.683588 0
M  V30 2564 C 250.746 2.30798 -0.0107309 0
M  V30 2565 C 251.716 1.4645 0.783688 0
M  V30 2566 O 252.901 1.75263 0.754156 0
M  V30 2567 C 250.041 3.3238 0.928306 0
M  V30 2568 C 249.154 4.31814 0.126776 0
M  V30 2569 C 248.289 5.20468 1.06236 0
M  V30 2570 C 247.328 6.11577 0.253035 0
M  V30 2571 N 246.465 6.92754 1.14179 0
M  V30 2572 H 251.305 2.8778 -0.773727 0
M  V30 2573 H 248.842 1.41745 -0.393283 0
M  V30 2574 H 250.8 3.89813 1.48666 0
M  V30 2575 H 249.43 2.76976 1.65783 0
M  V30 2576 H 248.482 3.76427 -0.54833 0
M  V30 2577 H 249.794 4.96276 -0.501192 0
M  V30 2578 H 248.948 5.82677 1.69035 0
M  V30 2579 H 247.687 4.56204 1.7242 0
M  V30 2580 H 246.692 5.48428 -0.388108 0
M  V30 2581 H 247.917 6.77892 -0.404839 0
M  V30 2582 H 245.863 6.3111 1.78987 0
M  V30 2583 H 245.78 7.53855 0.569111 0
M  V30 2584 H 247.048 7.59441 1.75697 0
M  V30 2585 N 251.277 0.427512 1.51691 0
M  V30 2586 C 252.187 -0.39527 2.31246 0
M  V30 2587 C 253.203 -1.03674 1.39742 0
M  V30 2588 O 254.379 -1.03425 1.72816 0
M  V30 2589 C 251.444 -1.48706 3.13189 0
M  V30 2590 C 250.505 -0.866743 4.20459 0
M  V30 2591 C 249.738 -1.90651 4.98486 0
M  V30 2592 O 249.961 -3.12733 4.77026 0
M  V30 2593 O 248.895 -1.5025 5.82845 0
M  V30 2594 H 252.721 0.253918 3.02637 0
M  V30 2595 H 250.306 0.190274 1.48183 0
M  V30 2596 H 252.188 -2.12047 3.64162 0
M  V30 2597 H 250.863 -2.12051 2.44573 0
M  V30 2598 H 249.77 -0.195544 3.73589 0
M  V30 2599 H 251.103 -0.276934 4.9142 0
M  V30 2600 N 252.755 -1.56801 0.158532 0
M  V30 2601 C 254.001 -1.96781 -0.490405 0
M  V30 2602 C 254.334 -1.04397 -1.63753 0
M  V30 2603 O 253.609 -0.0885805 -1.94298 0
M  V30 2604 C 253.892 -3.4635 -0.985594 0
M  V30 2605 C 253.745 -4.49512 0.160824 0
M  V30 2606 C 255.064 -3.98697 -1.86355 0
M  V30 2607 H 252.183 -0.715482 -0.176788 0
M  V30 2608 H 254.825 -1.88451 0.242088 0
M  V30 2609 H 252.975 -3.53579 -1.60978 0
M  V30 2610 H 254.647 -4.54353 0.797537 0
M  V30 2611 H 252.89 -4.26013 0.818256 0
M  V30 2612 H 253.561 -5.51531 -0.227569 0
M  V30 2613 H 256.037 -3.94019 -1.33746 0
M  V30 2614 H 254.913 -5.03792 -2.17909 0
M  V30 2615 H 255.174 -3.41744 -2.8047 0
M  V30 2616 N 254.233 0.115231 -1.57178 0
M  V30 2617 C 255.644 0.67197 -1.74188 0
M  V30 2618 C 255.995 1.80125 -0.777777 0
M  V30 2619 O 255.12 2.16346 0.0484376 0
M  V30 2620 C 255.715 1.22573 -3.1585 0
M  V30 2621 C 254.274 1.72872 -3.34353 0
M  V30 2622 C 253.421 0.629972 -2.70049 0
M  V30 2623 H 256.372 -0.110712 -1.58313 0
M  V30 2624 H 256.393 2.09535 -3.17609 0
M  V30 2625 H 255.905 0.403598 -3.85996 0
M  V30 2626 H 254.006 2.5755 -2.69256 0
M  V30 2627 H 254.119 1.83557 -4.42542 0
M  V30 2628 H 252.483 1.0645 -2.31388 0
M  V30 2629 H 253.266 -0.181241 -3.42821 0
M  V30 2630 N 255.711 1.52812 0.385517 0
M  V30 2631 C 256.951 1.69716 1.13911 0
M  V30 2632 C 257.315 0.42962 1.87132 0
M  V30 2633 O 258.516 0.475071 2.64569 0
M  V30 2634 C 256.787 2.90021 2.0886 0
M  V30 2635 S 258.346 3.27531 2.92009 0
M  V30 2636 H 255.164 0.59739 0.385547 0
M  V30 2637 H 257.766 1.90868 0.423061 0
M  V30 2638 H 256.47 3.80493 1.53797 0
M  V30 2639 H 256.001 2.71213 2.84969 0
M  V30 2640 H 258.016 2.77989 4.11019 0
M  V30 2641 N 257.189 -0.644168 1.43834 0
M  V30 2642 C 258.419 -1.42939 1.49171 0
M  V30 2643 C 258.827 -1.88874 0.111048 0
M  V30 2644 O 258.17 -1.60656 -0.8908 0
M  V30 2645 C 258.232 -2.69151 2.38324 0
M  V30 2646 C 257.896 -2.45097 3.85715 0
M  V30 2647 C 258.893 -2.07747 4.76589 0
M  V30 2648 C 256.578 -2.59141 4.30292 0
M  V30 2649 C 258.572 -1.8475 6.10038 0
M  V30 2650 C 256.259 -2.35759 5.63792 0
M  V30 2651 C 257.257 -1.9862 6.53482 0
M  V30 2652 O 256.945 -1.75489 7.84512 0
M  V30 2653 H 256.677 -0.445271 0.508635 0
M  V30 2654 H 259.231 -0.79621 1.8934 0
M  V30 2655 H 257.461 -3.3506 1.93058 0
M  V30 2656 H 259.15 -3.31123 2.3476 0
M  V30 2657 H 259.916 -1.96465 4.43426 0
M  V30 2658 H 255.795 -2.87022 3.60749 0
M  V30 2659 H 259.339 -1.55686 6.80006 0
M  V30 2660 H 255.236 -2.46646 5.9652 0
M  V30 2661 H 256.004 -1.89841 7.9618 0
M  V30 2662 N 258.668 -1.30515 -0.883378 0
M  V30 2663 C 259.914 -1.19607 -1.63774 0
M  V30 2664 C 260.247 0.248314 -1.92606 0
M  V30 2665 O 259.522 1.17742 -1.54813 0
M  V30 2666 C 259.805 -2.02669 -2.97653 0
M  V30 2667 C 259.658 -3.55335 -2.75784 0
M  V30 2668 C 260.977 -1.86573 -3.98596 0
M  V30 2669 H 258.096 -0.435856 -0.594305 0
M  V30 2670 H 260.738 -1.60165 -1.02212 0
M  V30 2671 H 258.888 -1.68208 -3.50197 0
M  V30 2672 H 260.56 -3.99863 -2.30016 0
M  V30 2673 H 258.803 -3.79438 -2.1026 0
M  V30 2674 H 259.474 -4.08745 -3.70988 0
M  V30 2675 H 261.95 -2.16703 -3.55217 0
M  V30 2676 H 260.826 -2.47014 -4.90179 0
M  V30 2677 H 261.087 -0.825321 -4.34328 0
M  V30 2678 N 260.146 1.09593 -1.13257 0
M  V30 2679 C 261.393 1.81734 -0.893257 0
M  V30 2680 C 261.721 1.8563 0.580656 0
M  V30 2681 O 260.976 1.31906 1.44566 0
M  V30 2682 C 261.275 3.27802 -1.42411 0
M  V30 2683 C 260.941 3.44041 -2.91456 0
M  V30 2684 C 259.603 3.48181 -3.3215 0
M  V30 2685 C 261.955 3.48719 -3.87356 0
M  V30 2686 C 259.283 3.54575 -4.67433 0
M  V30 2687 C 261.635 3.56648 -5.2248 0
M  V30 2688 C 260.299 3.59055 -5.62704 0
M  V30 2689 H 259.569 0.665011 -0.326866 0
M  V30 2690 H 262.216 1.2912 -1.41422 0
M  V30 2691 H 260.521 3.83042 -0.823795 0
M  V30 2692 H 262.218 3.82149 -1.21503 0
M  V30 2693 H 258.808 3.41502 -2.58987 0
M  V30 2694 H 262.992 3.44763 -3.57004 0
M  V30 2695 H 258.248 3.54725 -4.97976 0
M  V30 2696 H 262.422 3.59212 -5.96607 0
M  V30 2697 H 260.049 3.63763 -6.67518 0
M  V30 2698 N 261.624 0.925811 1.2754 0
M  V30 2699 C 262.901 0.483726 1.89524 0
M  V30 2700 C 263.281 -1.03809 1.83812 0
M  V30 2701 O 262.629 -1.89143 1.28207 0
M  V30 2702 C 262.839 1.02769 3.33526 0
M  V30 2703 C 264.187 1.08703 4.10449 0
M  V30 2704 O 265.211 0.977175 3.42534 0
M  V30 2705 O 264.07 1.25599 5.31871 0
M  V30 2706 H 261.164 0.15529 0.812289 0
M  V30 2707 H 263.71 1.01738 1.35822 0
M  V30 2708 H 262.482 2.07155 3.31967 0
M  V30 2709 H 262.105 0.475567 3.94746 0
M  V30 2710 N 263.102 -1.41638 0.69111 0
M  V30 2711 C 264.012 -2.34588 0.0233487 0
M  V30 2712 C 265.028 -1.55987 -0.770984 0
M  V30 2713 O 266.204 -1.88486 -0.709569 0
M  V30 2714 C 263.269 -3.34684 -0.904851 0
M  V30 2715 C 262.33 -4.29176 -0.103225 0
M  V30 2716 C 261.563 -5.2449 -0.987216 0
M  V30 2717 O 261.786 -5.2514 -2.22674 0
M  V30 2718 O 260.72 -6.00295 -0.439281 0
M  V30 2719 H 264.546 -2.93261 0.789416 0
M  V30 2720 H 262.131 -1.42417 0.45142 0
M  V30 2721 H 264.013 -3.96133 -1.43724 0
M  V30 2722 H 262.688 -2.78461 -1.65049 0
M  V30 2723 H 261.595 -3.71089 0.473655 0
M  V30 2724 H 262.928 -4.88484 0.60365 0
M  V30 2725 N 264.58 -0.43555 -1.51462 0
M  V30 2726 C 265.49 0.383001 -2.31453 0
M  V30 2727 C 266.506 1.02931 -1.4029 0
M  V30 2728 O 267.682 1.02507 -1.73362 0
M  V30 2729 C 264.747 1.47043 -3.13973 0
M  V30 2730 C 263.808 0.844433 -4.20913 0
M  V30 2731 C 263.041 1.88004 -4.9949 0
M  V30 2732 O 263.264 3.10199 -4.78678 0
M  V30 2733 O 262.198 1.47157 -5.83634 0
M  V30 2734 H 266.024 -0.269964 -3.02498 0
M  V30 2735 H 263.609 -0.19813 -1.4808 0
M  V30 2736 H 265.491 2.10113 -3.65281 0
M  V30 2737 H 264.166 2.10751 -2.45695 0
M  V30 2738 H 263.073 0.175729 -3.73687 0
M  V30 2739 H 264.406 0.250869 -4.9156 0
M  V30 2740 N 266.058 1.56714 -0.166846 0
M  V30 2741 C 266.988 2.20754 0.760913 0
M  V30 2742 C 267.969 1.16178 1.24244 0
M  V30 2743 O 269.154 1.44592 1.29641 0
M  V30 2744 C 266.284 2.84478 1.99223 0
M  V30 2745 C 265.238 3.95053 1.64672 0
M  V30 2746 C 264.564 4.45805 2.95232 0
M  V30 2747 C 265.864 5.14865 0.878155 0
M  V30 2748 H 267.558 2.98537 0.22713 0
M  V30 2749 H 265.104 1.43596 0.107805 0
M  V30 2750 H 267.057 3.27951 2.64624 0
M  V30 2751 H 265.781 2.04056 2.55007 0
M  V30 2752 H 264.44 3.52228 1.01641 0
M  V30 2753 H 264.088 3.62181 3.49047 0
M  V30 2754 H 263.788 5.204 2.7287 0
M  V30 2755 H 265.312 4.91962 3.6167 0
M  V30 2756 H 266.726 5.55059 1.43466 0
M  V30 2757 H 265.123 5.95348 0.753738 0
M  V30 2758 H 266.193 4.84735 -0.126377 0
M  V30 2759 N 267.536 -0.106894 1.57237 0
M  V30 2760 C 268.952 -0.46078 1.52804 0
M  V30 2761 C 269.152 -1.81184 0.881746 0
M  V30 2762 O 268.208 -2.48102 0.469224 0
M  V30 2763 C 269.521 -0.434127 2.9755 0
M  V30 2764 C 271.069 -0.516821 3.08704 0
M  V30 2765 C 271.544 -0.520436 4.55033 0
M  V30 2766 N 273.035 -0.58153 4.59535 0
M  V30 2767 C 273.77 -0.605973 5.70189 0
M  V30 2768 N 273.266 -0.587331 6.90306 0
M  V30 2769 N 275.059 -0.649895 5.5833 0
M  V30 2770 H 267.21 0.778203 1.9763 0
M  V30 2771 H 269.473 0.288403 0.903066 0
M  V30 2772 H 269.179 0.491197 3.48253 0
M  V30 2773 H 269.053 -1.25748 3.55622 0
M  V30 2774 H 271.44 -1.43256 2.57995 0
M  V30 2775 H 271.521 0.334449 2.53604 0
M  V30 2776 H 271.165 0.391313 5.0639 0
M  V30 2777 H 271.095 -1.38876 5.07958 0
M  V30 2778 H 273.586 -0.60161 3.73081 0
M  V30 2779 H 273.899 -0.60894 7.70397 0
M  V30 2780 H 272.244 -0.554564 6.92784 0
M  V30 2781 H 275.435 -0.661907 4.63397 0
M  V30 2782 H 275.608 -0.665476 6.44574 0
M  V30 2783 N 269.014 -1.53014 -0.377408 0
M  V30 2784 C 269.961 -1.78616 -1.46168 0
M  V30 2785 C 270.931 -0.629917 -1.53692 0
M  V30 2786 O 272.116 -0.870861 -1.69766 0
M  V30 2787 C 269.256 -1.97123 -2.8326 0
M  V30 2788 C 268.369 -3.24831 -2.84796 0
M  V30 2789 C 267.504 -3.33591 -4.13389 0
M  V30 2790 C 266.543 -4.55377 -4.09021 0
M  V30 2791 N 265.68 -4.61355 -5.29241 0
M  V30 2792 H 270.52 -2.71142 -1.23637 0
M  V30 2793 H 268.057 -1.34326 -0.599577 0
M  V30 2794 H 270.015 -2.05839 -3.62886 0
M  V30 2795 H 268.645 -1.07946 -3.04216 0
M  V30 2796 H 267.697 -3.25128 -1.97474 0
M  V30 2797 H 269.009 -4.14523 -2.77439 0
M  V30 2798 H 268.163 -3.41554 -5.01424 0
M  V30 2799 H 266.902 -2.41894 -4.23484 0
M  V30 2800 H 265.907 -4.47527 -3.19373 0
M  V30 2801 H 267.132 -5.48402 -4.00539 0
M  V30 2802 H 265.078 -3.72554 -5.39944 0
M  V30 2803 H 264.995 -5.44935 -5.24006 0
M  V30 2804 H 266.263 -4.73586 -6.19141 0
M  V30 2805 N 270.492 0.636531 -1.44174 0
M  V30 2806 C 271.442 1.74233 -1.47061 0
M  V30 2807 C 272.426 1.57331 -0.337034 0
M  V30 2808 O 273.618 1.67159 -0.581973 0
M  V30 2809 C 270.747 3.12897 -1.41246 0
M  V30 2810 C 269.833 3.35288 -2.59698 0
M  V30 2811 N 270.224 3.2807 -3.84972 0
M  V30 2812 C 268.522 3.66065 -2.54778 0
M  V30 2813 C 269.223 3.51001 -4.63867 0
M  V30 2814 N 268.199 3.73616 -3.94857 0
M  V30 2815 H 272.001 1.67103 -2.41773 0
M  V30 2816 H 269.515 0.838806 -1.3906 0
M  V30 2817 H 271.512 3.92189 -1.41398 0
M  V30 2818 H 270.172 3.21197 -0.47569 0
M  V30 2819 H 271.183 3.07109 -4.17019 0
M  V30 2820 H 267.86 3.81379 -1.6987 0
M  V30 2821 H 269.25 3.51059 -5.72894 0
M  V30 2822 N 271.97 1.30982 0.876444 0
M  V30 2823 C 273.247 1.10942 1.61094 0
M  V30 2824 C 273.627 -0.338223 2.08373 0
M  V30 2825 O 272.975 -1.33122 1.85717 0
M  V30 2826 C 273.185 2.11789 2.77392 0
M  V30 2827 C 274.533 2.43965 3.47514 0
M  V30 2828 O 275.557 2.10166 2.87591 0
M  V30 2829 O 274.416 3.01817 4.55597 0
M  V30 2830 H 271.51 0.42667 0.708436 0
M  V30 2831 H 274.056 1.42438 0.922474 0
M  V30 2832 H 272.828 3.09194 2.39823 0
M  V30 2833 H 272.451 1.81161 3.5393 0
M  V30 2834 N 273.449 -1.08991 1.13837 0
M  V30 2835 C 274.379 -2.17771 0.842507 0
M  V30 2836 C 275.36 -1.6892 -0.20001 0
M  V30 2837 O 276.545 -1.94113 -0.0579731 0
M  V30 2838 C 273.675 -3.4589 0.312644 0
M  V30 2839 C 272.629 -4.08099 1.28992 0
M  V30 2840 C 271.955 -5.31098 0.619623 0
M  V30 2841 C 273.255 -4.50077 2.65005 0
M  V30 2842 H 274.949 -2.42777 1.75213 0
M  V30 2843 H 272.495 -1.16682 0.843875 0
M  V30 2844 H 274.448 -4.21297 0.0933043 0
M  V30 2845 H 273.172 -3.20419 -0.632382 0
M  V30 2846 H 271.831 -3.34717 1.49533 0
M  V30 2847 H 271.479 -5.0191 -0.33102 0
M  V30 2848 H 271.179 -5.73674 1.27167 0
M  V30 2849 H 272.703 -6.09224 0.409669 0
M  V30 2850 H 274.117 -5.16688 2.48407 0
M  V30 2851 H 272.514 -5.03553 3.26427 0
M  V30 2852 H 273.584 -3.62257 3.22332 0
M  V30 2853 N 274.927 -0.932562 -1.27047 0
M  V30 2854 C 275.875 -0.42603 -2.28665 0
M  V30 2855 C 276.869 0.49219 -1.62092 0
M  V30 2856 O 278.075 0.371355 -1.76128 0
M  V30 2857 H 274.45 -0.119213 -0.742491 0
M  V30 2858 H 276.421 -1.29579 -2.68797 0
M  V30 2859 C 275.17 0.301426 -3.46391 0
M  V30 2860 H 274.493 -0.39595 -3.97834 0
M  V30 2861 H 275.933 0.6202 -4.1944 0
M  V30 2862 C 274.392 1.51616 -3.00856 0
M  V30 2863 O 274.922 2.61476 -3.04948 0
M  V30 2864 N 273.128 1.36969 -2.56296 0
M  V30 2865 H 272.675 0.475873 -2.53166 0
M  V30 2866 H 272.633 2.18368 -2.26192 0
M  V30 2867 N 276.405 1.4127 -0.698611 0
M  V30 2868 C 277.816 1.84187 -0.305289 0
M  V30 2869 C 278.167 1.58449 1.15708 0
M  V30 2870 O 277.292 1.05651 1.88856 0
M  V30 2871 C 277.887 3.3435 -0.547314 0
M  V30 2872 C 276.446 3.75826 -0.207878 0
M  V30 2873 C 275.593 2.64647 -0.828099 0
M  V30 2874 H 278.544 1.30778 -0.89904 0
M  V30 2875 H 278.565 3.8001 0.192998 0
M  V30 2876 H 278.077 3.53051 -1.61172 0
M  V30 2877 H 276.178 3.62725 0.852143 0
M  V30 2878 H 276.291 4.74462 -0.665021 0
M  V30 2879 H 274.655 2.53395 -0.257458 0
M  V30 2880 H 275.438 2.86165 -1.89643 0
M  V30 2881 N 277.883 0.443576 1.51229 0
M  V30 2882 C 278.813 -0.355142 2.30783 0
M  V30 2883 C 279.794 -1.0154 1.36468 0
M  V30 2884 O 280.979 -1.01785 1.65389 0
M  V30 2885 C 278.109 -1.45312 3.15439 0
M  V30 2886 C 277.063 -0.916002 4.18083 0
M  V30 2887 C 276.389 -2.1102 4.91299 0
M  V30 2888 C 277.689 0.0538602 5.22272 0
M  V30 2889 H 279.383 0.308767 2.97804 0
M  V30 2890 H 276.929 0.149937 1.43217 0
M  V30 2891 H 278.882 -2.01914 3.69876 0
M  V30 2892 H 277.606 -2.14541 2.46252 0
M  V30 2893 H 276.265 -0.372145 3.64706 0
M  V30 2894 H 275.913 -2.78882 4.18609 0
M  V30 2895 H 275.613 -1.75717 5.60712 0
M  V30 2896 H 277.137 -2.68164 5.48562 0
M  V30 2897 H 278.551 -0.422069 5.71744 0
M  V30 2898 H 276.948 0.319776 5.99247 0
M  V30 2899 H 278.018 0.98858 4.74716 0
M  V30 2900 N 279.361 -1.56624 0.175154 0
M  V30 2901 C 280.61 -1.96173 -0.468921 0
M  V30 2902 C 280.923 -1.06401 -1.64128 0
M  V30 2903 O 282.129 -1.35648 -2.35185 0
M  V30 2904 C 280.585 -3.48833 -0.885633 0
M  V30 2905 C 280.193 -4.47237 0.261343 0
M  V30 2906 C 281.937 -3.97194 -1.49791 0
M  V30 2907 C 279.844 -5.9114 -0.175214 0
M  V30 2908 H 278.774 -0.732455 -0.178958 0
M  V30 2909 H 281.425 -1.81591 0.263997 0
M  V30 2910 H 279.807 -3.58848 -1.67464 0
M  V30 2911 H 280.981 -4.4894 1.03871 0
M  V30 2912 H 279.296 -4.08956 0.783827 0
M  V30 2913 H 281.893 -5.02167 -1.83665 0
M  V30 2914 H 282.236 -3.40351 -2.39722 0
M  V30 2915 H 282.769 -3.90212 -0.773267 0
M  V30 2916 H 279.508 -6.51865 0.689414 0
M  V30 2917 H 279.028 -5.92735 -0.91786 0
M  V30 2918 H 280.707 -6.44044 -0.617792 0
M  V30 2919 N 280.839 0.0985539 -1.57292 0
M  V30 2920 C 281.786 1.11981 -2.01814 0
M  V30 2921 C 282.756 1.39999 -0.89384 0
M  V30 2922 O 283.941 1.5152 -1.15958 0
M  V30 2923 C 281.081 2.43577 -2.44467 0
M  V30 2924 C 280.194 2.2232 -3.70402 0
M  V30 2925 C 279.329 3.4729 -4.01949 0
M  V30 2926 C 278.368 3.2128 -5.21005 0
M  V30 2927 N 277.505 4.38507 -5.48321 0
M  V30 2928 H 282.345 0.733149 -2.88841 0
M  V30 2929 H 279.882 0.350482 -1.42864 0
M  V30 2930 H 281.84 3.20373 -2.6724 0
M  V30 2931 H 280.47 2.80097 -1.60455 0
M  V30 2932 H 279.522 1.36343 -3.55126 0
M  V30 2933 H 280.834 1.99089 -4.57345 0
M  V30 2934 H 279.988 4.32495 -4.25479 0
M  V30 2935 H 278.727 3.73572 -3.13521 0
M  V30 2936 H 277.732 2.34468 -4.97298 0
M  V30 2937 H 278.957 2.96348 -6.11028 0
M  V30 2938 H 276.903 4.64871 -4.62851 0
M  V30 2939 H 276.82 4.18455 -6.29628 0
M  V30 2940 H 278.088 5.24787 -5.76385 0
M  V30 2941 N 282.317 1.53212 0.369288 0
M  V30 2942 C 283.247 1.82365 1.45826 0
M  V30 2943 C 284.228 0.676907 1.56051 0
M  V30 2944 O 285.413 0.926401 1.70679 0
M  V30 2945 C 282.543 2.01023 2.83208 0
M  V30 2946 C 281.497 3.1678 2.8781 0
M  V30 2947 C 280.823 3.20724 4.27832 0
M  V30 2948 C 282.123 4.55447 2.55667 0
M  V30 2949 H 283.817 2.73559 1.21678 0
M  V30 2950 H 281.363 1.3163 0.583911 0
M  V30 2951 H 283.316 2.20001 3.59413 0
M  V30 2952 H 282.04 1.06536 3.08736 0
M  V30 2953 H 280.699 2.97616 2.14056 0
M  V30 2954 H 280.347 2.23882 4.50429 0
M  V30 2955 H 280.047 3.98496 4.31827 0
M  V30 2956 H 281.571 3.41881 5.05915 0
M  V30 2957 H 282.985 4.74611 3.21586 0
M  V30 2958 H 281.382 5.35432 2.70984 0
M  V30 2959 H 282.452 4.60812 1.5093 0
M  V30 2960 N 283.795 -0.628877 1.44509 0
M  V30 2961 C 285.02 -1.42048 1.5112 0
M  V30 2962 C 285.445 -1.87594 0.137818 0
M  V30 2963 O 284.803 -1.58873 -0.873437 0
M  V30 2964 C 284.851 -2.61541 2.48251 0
M  V30 2965 O 283.955 -3.61453 1.98559 0
M  V30 2966 H 283.296 -0.424942 0.510216 0
M  V30 2967 H 285.826 -0.767374 1.89664 0
M  V30 2968 H 285.836 -3.09057 2.66361 0
M  V30 2969 H 284.511 -2.27736 3.48007 0
M  V30 2970 H 283.088 -3.20731 1.90227 0
M  V30 2971 N 285.273 -1.31445 -0.869486 0
M  V30 2972 C 286.521 -1.20918 -1.61936 0
M  V30 2973 C 286.842 0.232683 -1.93607 0
M  V30 2974 O 286.112 1.15352 -1.58338 0
M  V30 2975 H 284.692 -0.44454 -0.600328 0
M  V30 2976 H 287.354 -1.64776 -1.0409 0
M  V30 2977 H 286.45 -1.78124 -2.56278 0
M  V30 2978 N 286.751 1.08385 -1.14413 0
M  V30 2979 C 287.714 2.13486 -0.834048 0
M  V30 2980 C 288.714 1.59988 0.161418 0
M  V30 2981 O 289.904 1.74071 -0.0669575 0
M  V30 2982 C 287.036 3.4003 -0.243354 0
M  V30 2983 H 288.229 2.42425 -1.7655 0
M  V30 2984 H 285.782 1.24101 -0.950189 0
M  V30 2985 H 286.517 3.16726 0.696807 0
M  V30 2986 H 286.302 3.80157 -0.960367 0
M  V30 2987 H 287.792 4.17577 -0.0436242 0
M  V30 2988 N 288.23 0.939286 1.26551 0
M  V30 2989 C 289.46 0.601663 1.97645 0
M  V30 2990 C 289.868 -0.827206 1.70159 0
M  V30 2991 O 289.211 -1.56291 0.965338 0
M  V30 2992 C 289.273 0.761725 3.51337 0
M  V30 2993 C 288.937 2.16487 4.0247 0
M  V30 2994 C 289.934 3.14016 4.14355 0
M  V30 2995 C 287.619 2.48494 4.36527 0
M  V30 2996 C 289.613 4.41654 4.59587 0
M  V30 2997 C 287.3 3.76364 4.81449 0
M  V30 2998 C 288.298 4.72758 4.92939 0
M  V30 2999 O 287.986 5.98352 5.36871 0
M  V30 3000 H 287.718 0.225758 0.637189 0
M  V30 3001 H 290.272 1.26178 1.62075 0
M  V30 3002 H 288.502 0.0444808 3.86674 0
M  V30 3003 H 290.191 0.427442 4.03643 0
M  V30 3004 H 290.957 2.90613 3.8829 0
M  V30 3005 H 286.836 1.74202 4.26819 0
M  V30 3006 H 290.38 5.16896 4.68471 0
M  V30 3007 H 286.277 3.99582 5.06956 0
M  V30 3008 H 287.045 6.01507 5.55096 0
M  V30 3009 N 289.708 -1.40897 0.706093 0
M  V30 3010 C 290.638 -2.33418 0.0620085 0
M  V30 3011 C 291.619 -1.52385 -0.755827 0
M  V30 3012 O 292.804 -1.80886 -0.706674 0
M  V30 3013 C 289.934 -3.36293 -0.867445 0
M  V30 3014 C 288.888 -4.27716 -0.155932 0
M  V30 3015 C 288.214 -5.2105 -1.20046 0
M  V30 3016 C 289.514 -5.12944 0.984149 0
M  V30 3017 H 291.208 -2.87527 0.83477 0
M  V30 3018 H 288.754 -1.38249 0.402875 0
M  V30 3019 H 290.707 -3.99949 -1.32735 0
M  V30 3020 H 289.431 -2.80556 -1.67199 0
M  V30 3021 H 288.09 -3.65498 0.284047 0
M  V30 3022 H 287.738 -4.61624 -1.99781 0
M  V30 3023 H 287.438 -5.83056 -0.729328 0
M  V30 3024 H 288.962 -5.87584 -1.66066 0
M  V30 3025 H 290.376 -5.70109 0.604048 0
M  V30 3026 H 288.773 -5.83945 1.38304 0
M  V30 3027 H 289.843 -4.49485 1.81911 0
M  V30 3028 N 291.186 -0.45159 -1.50991 0
M  V30 3029 C 292.432 0.110237 -2.025 0
M  V30 3030 C 292.765 1.41109 -1.33424 0
M  V30 3031 O 292.04 1.89135 -0.453659 0
M  V30 3032 C 292.323 0.314271 -3.58726 0
M  V30 3033 C 292.176 -1.00623 -4.38401 0
M  V30 3034 C 293.495 1.07767 -4.26702 0
M  V30 3035 H 290.614 0.0385897 -0.735989 0
M  V30 3036 H 293.256 -0.593374 -1.80497 0
M  V30 3037 H 291.406 0.913601 -3.77605 0
M  V30 3038 H 293.078 -1.64064 -4.31139 0
M  V30 3039 H 291.321 -1.6075 -4.02917 0
M  V30 3040 H 291.992 -0.817341 -5.45915 0
M  V30 3041 H 294.468 0.56986 -4.12179 0
M  V30 3042 H 293.344 1.18921 -5.35863 0
M  V30 3043 H 293.605 2.10939 -3.88532 0
M  V30 3044 N 292.664 1.56529 -0.183458 0
M  V30 3045 C 293.941 1.88959 0.50536 0
M  V30 3046 C 294.321 1.09523 1.80466 0
M  V30 3047 O 293.669 0.19278 2.27685 0
M  V30 3048 C 293.879 3.41162 0.73547 0
M  V30 3049 C 295.227 4.11155 1.06005 0
M  V30 3050 O 296.251 3.46548 0.823594 0
M  V30 3051 O 295.11 5.25318 1.50675 0
M  V30 3052 H 292.204 0.78441 0.261973 0
M  V30 3053 H 294.75 1.68231 -0.222802 0
M  V30 3054 H 293.522 3.90874 -0.182561 0
M  V30 3055 H 293.145 3.67543 1.51651 0
M  V30 3056 N 294.142 -0.090211 1.57342 0
M  V30 3057 C 295.419 -0.824761 1.77361 0
M  V30 3058 C 295.799 -1.96698 0.76637 0
M  V30 3059 O 295.147 -2.27586 -0.204179 0
M  V30 3060 C 295.357 -1.31481 3.23286 0
M  V30 3061 C 296.705 -1.75563 3.86604 0
M  V30 3062 O 297.729 -1.41093 3.27065 0
M  V30 3063 O 296.588 -2.39317 4.91314 0
M  V30 3064 H 293.682 -0.393776 0.727234 0
M  V30 3065 H 296.228 -0.0717138 1.69548 0
M  V30 3066 H 295 -0.496671 3.88135 0
M  V30 3067 H 294.623 -2.12973 3.35751 0
M  V30 3068 N 295.62 -1.53406 -0.361157 0
M  V30 3069 C 296.845 -1.74024 -1.12829 0
M  V30 3070 C 297.27 -0.470069 -1.82132 0
M  V30 3071 O 296.628 0.57619 -1.719 0
M  V30 3072 C 296.676 -2.90903 -2.13091 0
M  V30 3073 O 295.78 -2.59821 -3.20261 0
M  V30 3074 H 295.121 -0.577804 -0.327168 0
M  V30 3075 H 297.651 -2.00307 -0.41693 0
M  V30 3076 H 297.661 -3.17194 -2.56616 0
M  V30 3077 H 296.336 -3.83034 -1.62042 0
M  V30 3078 H 294.913 -2.44362 -2.81677 0
M  V30 3079 N 297.098 0.621204 -1.44841 0
M  V30 3080 C 298.375 1.38 -1.38619 0
M  V30 3081 C 298.755 2.11041 -0.0498935 0
M  V30 3082 O 298.103 2.06992 0.967816 0
M  V30 3083 C 298.313 2.33817 -2.59096 0
M  V30 3084 C 299.661 2.96844 -3.03593 0
M  V30 3085 O 300.685 2.44141 -2.59371 0
M  V30 3086 O 299.544 3.92476 -3.80296 0
M  V30 3087 H 296.638 0.61811 -0.549426 0
M  V30 3088 H 299.184 0.645429 -1.56947 0
M  V30 3089 H 297.956 1.79012 -3.47952 0
M  V30 3090 H 297.579 3.14676 -2.43032 0
M  V30 3091 N 298.576 1.31904 0.862503 0
M  V30 3092 C 299.987 1.19803 1.43193 0
M  V30 3093 C 300.338 -0.192567 1.95253 0
M  V30 3094 O 299.463 -1.09081 1.86896 0
M  V30 3095 C 300.058 2.16883 2.60283 0
M  V30 3096 C 298.617 2.08692 3.13248 0
M  V30 3097 C 297.764 2.05691 1.85975 0
M  V30 3098 H 300.715 1.43846 0.670365 0
M  V30 3099 H 300.736 1.76278 3.37204 0
M  V30 3100 H 300.248 3.18083 2.22363 0
M  V30 3101 H 298.349 1.10713 3.55771 0
M  V30 3102 H 298.462 2.9815 3.75025 0
M  V30 3103 H 296.826 1.50814 2.05249 0
M  V30 3104 H 297.609 3.08659 1.50282 0
M  V30 3105 N 300.054 -1.07777 1.14986 0
M  V30 3106 C 301.331 -1.7699 0.832695 0
M  V30 3107 C 301.711 -2.001 -0.672561 0
M  V30 3108 O 301.059 -1.61598 -1.6155 0
M  V30 3109 C 301.269 -3.08139 1.63863 0
M  V30 3110 C 302.617 -3.8256 1.84208 0
M  V30 3111 O 303.641 -3.17939 1.60603 0
M  V30 3112 O 302.5 -4.98612 2.23714 0
M  V30 3113 H 299.594 -0.768389 0.305791 0
M  V30 3114 H 302.14 -1.14182 1.25541 0
M  V30 3115 H 300.912 -2.86909 2.6608 0
M  V30 3116 H 300.535 -3.78678 1.21197 0
M  V30 3117 N 301.532 -0.945985 -1.26051 0
M  V30 3118 C 302.76 -0.613025 -1.9761 0
M  V30 3119 C 303.175 0.813035 -1.70397 0
M  V30 3120 O 302.532 1.54274 -0.974979 0
M  V30 3121 C 302.583 -0.85159 -3.51326 0
M  V30 3122 O 302.304 -2.22157 -3.77595 0
M  V30 3123 C 303.805 -0.529831 -4.40122 0
M  V30 3124 H 301.025 -0.230593 -0.630133 0
M  V30 3125 H 303.569 -1.268 -1.60443 0
M  V30 3126 H 301.724 -0.243151 -3.86636 0
M  V30 3127 H 302.138 -2.2852 -4.721 0
M  V30 3128 H 303.612 -0.747348 -5.46917 0
M  V30 3129 H 304.089 0.535341 -4.35925 0
M  V30 3130 H 304.695 -1.11721 -4.10364 0
M  V30 3131 N 303.011 1.40521 -0.713556 0
M  V30 3132 C 304.236 2.05759 -0.26035 0
M  V30 3133 C 304.661 1.53403 1.08854 0
M  V30 3134 O 304.019 0.668535 1.68524 0
M  V30 3135 C 304.067 3.59745 -0.248122 0
M  V30 3136 O 303.171 4.05123 0.77131 0
M  V30 3137 H 302.512 0.652564 -0.122703 0
M  V30 3138 H 305.042 1.79958 -0.973467 0
M  V30 3139 H 305.052 4.07911 -0.0851129 0
M  V30 3140 H 303.727 3.97218 -1.2325 0
M  V30 3141 H 302.304 3.68422 0.57619 0
M  V30 3142 N 304.489 0.459591 1.5075 0
M  V30 3143 C 305.419 -0.330644 2.31147 0
M  V30 3144 C 306.4 -1.00087 1.37538 0
M  V30 3145 O 307.585 -1.00025 1.66459 0
M  V30 3146 C 304.715 -1.41958 3.16962 0
M  V30 3147 C 303.669 -0.871608 4.19031 0
M  V30 3148 C 302.995 -2.05797 4.9351 0
M  V30 3149 C 304.295 0.109251 5.22186 0
M  V30 3150 H 305.989 0.340336 2.97459 0
M  V30 3151 H 303.535 0.165119 1.4305 0
M  V30 3152 H 305.488 -1.9798 3.71997 0
M  V30 3153 H 304.212 -2.11917 2.48513 0
M  V30 3154 H 302.871 -0.333442 3.6508 0
M  V30 3155 H 302.519 -2.74427 4.21544 0
M  V30 3156 H 302.219 -1.6976 5.62544 0
M  V30 3157 H 303.743 -2.62331 5.51375 0
M  V30 3158 H 305.157 -0.361405 5.7216 0
M  V30 3159 H 303.554 0.383316 5.98875 0
M  V30 3160 H 304.624 1.03887 4.73641 0
M  V30 3161 N 305.967 -1.56429 0.191757 0
M  V30 3162 C 307.214 -1.97485 -0.447891 0
M  V30 3163 C 307.542 -1.07852 -1.61859 0
M  V30 3164 O 306.797 -0.116903 -1.95351 0
M  V30 3165 C 307.096 -3.44449 -0.953384 0
M  V30 3166 C 306.762 -4.50781 0.103586 0
M  V30 3167 C 305.424 -4.79584 0.394023 0
M  V30 3168 C 307.776 -5.1471 0.819946 0
M  V30 3169 C 305.104 -5.69607 1.40585 0
M  V30 3170 C 307.456 -6.05827 1.8209 0
M  V30 3171 C 306.12 -6.32987 2.11857 0
M  V30 3172 H 305.39 -0.722648 -0.163895 0
M  V30 3173 H 308.037 -1.89322 0.28802 0
M  V30 3174 H 306.342 -3.49666 -1.76751 0
M  V30 3175 H 308.039 -3.73569 -1.45765 0
M  V30 3176 H 304.629 -4.28394 -0.132951 0
M  V30 3177 H 308.813 -4.92552 0.608789 0
M  V30 3178 H 304.069 -5.88926 1.64243 0
M  V30 3179 H 308.243 -6.54424 2.38123 0
M  V30 3180 H 305.87 -7.02544 2.90407 0
M  V30 3181 N 307.445 0.0818655 -1.57387 0
M  V30 3182 C 308.694 0.781681 -1.85937 0
M  V30 3183 C 309.007 1.79246 -0.782957 0
M  V30 3184 O 310.213 2.54112 -0.955987 0
M  V30 3185 C 308.669 1.44109 -3.29789 0
M  V30 3186 C 308.277 0.469396 -4.45534 0
M  V30 3187 C 310.021 2.12386 -3.67549 0
M  V30 3188 C 307.928 1.13415 -5.80423 0
M  V30 3189 H 306.858 0.295682 -0.693605 0
M  V30 3190 H 309.509 0.0348051 -1.83467 0
M  V30 3191 H 307.891 2.23588 -3.2684 0
M  V30 3192 H 309.065 -0.294856 -4.59856 0
M  V30 3193 H 307.38 -0.108383 -4.16259 0
M  V30 3194 H 309.977 2.62878 -4.65617 0
M  V30 3195 H 310.32 2.91877 -2.96839 0
M  V30 3196 H 310.853 1.39751 -3.72444 0
M  V30 3197 H 307.592 0.379771 -6.54399 0
M  V30 3198 H 307.112 1.8695 -5.69921 0
M  V30 3199 H 308.791 1.65686 -6.25426 0
M  V30 3200 N 308.923 1.53595 0.353017 0
M  V30 3201 C 309.871 1.81605 1.45335 0
M  V30 3202 C 310.865 0.685923 1.54892 0
M  V30 3203 O 312.071 0.869095 1.57628 0
M  V30 3204 H 308.446 0.575204 0.484401 0
M  V30 3205 H 310.417 2.73679 1.18921 0
M  V30 3206 C 309.166 2.03406 2.81995 0
M  V30 3207 H 308.489 2.89814 2.75405 0
M  V30 3208 H 309.929 2.26975 3.58132 0
M  V30 3209 C 308.388 0.816794 3.26849 0
M  V30 3210 O 308.918 0.0115856 4.01698 0
M  V30 3211 N 307.124 0.636682 2.8354 0
M  V30 3212 H 306.671 1.2931 2.22793 0
M  V30 3213 H 306.629 -0.176336 3.13905 0
M  V30 3214 N 310.401 -0.613514 1.45168 0
M  V30 3215 C 311.647 -1.37471 1.49096 0
M  V30 3216 C 311.98 -1.93765 0.129901 0
M  V30 3217 O 311.255 -1.74707 -0.854858 0
M  V30 3218 C 311.538 -2.52701 2.56542 0
M  V30 3219 C 311.391 -2.01643 4.0207 0
M  V30 3220 C 312.71 -3.54849 2.60327 0
M  V30 3221 H 309.829 -0.498502 0.54283 0
M  V30 3222 H 312.471 -0.692125 1.76945 0
M  V30 3223 H 310.621 -3.10931 2.32926 0
M  V30 3224 H 312.293 -1.48108 4.36877 0
M  V30 3225 H 310.536 -1.32688 4.13009 0
M  V30 3226 H 311.207 -2.84681 4.72928 0
M  V30 3227 H 313.683 -3.0645 2.81474 0
M  V30 3228 H 312.559 -4.32973 3.37381 0
M  V30 3229 H 312.82 -4.10079 1.6519 0
M  V30 3230 N 311.879 -1.3236 -0.855495 0
M  V30 3231 C 313.119 -1.24187 -1.62348 0
M  V30 3232 C 313.483 0.193597 -1.91021 0
M  V30 3233 O 314.684 0.39904 -2.65822 0
M  V30 3234 C 312.955 -2.07661 -2.90881 0
M  V30 3235 S 314.514 -2.16505 -3.81669 0
M  V30 3236 H 311.332 -0.442076 -0.556857 0
M  V30 3237 H 313.934 -1.67198 -1.01317 0
M  V30 3238 H 312.638 -3.11018 -2.67761 0
M  V30 3239 H 312.169 -1.65425 -3.56929 0
M  V30 3240 H 314.184 -1.31394 -4.78487 0
M  V30 3241 N 313.357 1.07166 -1.15556 0
M  V30 3242 C 314.773 1.31899 -0.898603 0
M  V30 3243 C 314.973 1.96333 0.453383 0
M  V30 3244 O 314.029 2.22438 1.19489 0
M  V30 3245 C 315.342 2.20826 -2.04099 0
M  V30 3246 C 316.89 2.34269 -2.07574 0
M  V30 3247 C 317.365 3.26546 -3.21141 0
M  V30 3248 N 318.856 3.34127 -3.20801 0
M  V30 3249 C 319.591 4.05595 -4.05315 0
M  V30 3250 N 319.087 4.79661 -4.99897 0
M  V30 3251 N 320.88 4.01555 -3.93332 0
M  V30 3252 H 313.031 0.637302 -2.02613 0
M  V30 3253 H 315.294 0.343468 -0.883591 0
M  V30 3254 H 315 1.80744 -3.01703 0
M  V30 3255 H 314.874 3.21364 -1.97496 0
M  V30 3256 H 317.261 2.73603 -1.10568 0
M  V30 3257 H 317.342 1.33429 -2.18244 0
M  V30 3258 H 316.986 2.87931 -4.184 0
M  V30 3259 H 316.916 4.27345 -3.07708 0
M  V30 3260 H 319.407 2.81336 -2.52306 0
M  V30 3261 H 319.72 5.31694 -5.60822 0
M  V30 3262 H 318.065 4.78671 -5.03884 0
M  V30 3263 H 321.256 3.42806 -3.18751 0
M  V30 3264 H 321.429 4.56987 -4.5942 0
M  V30 3265 N 314.835 0.952656 1.25548 0
M  V30 3266 C 316.112 0.523818 1.88456 0
M  V30 3267 C 316.492 -0.998871 1.85973 0
M  V30 3268 O 315.84 -1.86381 1.3219 0
M  V30 3269 C 316.05 1.0982 3.31271 0
M  V30 3270 C 317.398 1.17385 4.08051 0
M  V30 3271 O 318.422 1.04961 3.40384 0
M  V30 3272 O 317.281 1.36852 5.29088 0
M  V30 3273 H 314.375 0.172485 0.808813 0
M  V30 3274 H 316.921 1.04596 1.33633 0
M  V30 3275 H 315.693 2.1415 3.27499 0
M  V30 3276 H 315.316 0.559191 3.93648 0
M  V30 3277 N 316.313 -1.40141 0.720998 0
M  V30 3278 C 317.562 -2.0002 0.259804 0
M  V30 3279 C 317.875 -1.57839 -1.15526 0
M  V30 3280 O 319.081 -2.10455 -1.71525 0
M  V30 3281 C 317.537 -3.57516 0.413566 0
M  V30 3282 C 317.145 -4.08667 1.83562 0
M  V30 3283 C 318.889 -4.24498 0.0134387 0
M  V30 3284 C 316.796 -5.58686 1.93968 0
M  V30 3285 H 315.726 -0.748195 0.0933806 0
M  V30 3286 H 318.377 -1.60313 0.892866 0
M  V30 3287 H 316.759 -3.9495 -0.288169 0
M  V30 3288 H 317.933 -3.82598 2.56817 0
M  V30 3289 H 316.248 -3.543 2.1877 0
M  V30 3290 H 318.845 -5.34654 0.0703954 0
M  V30 3291 H 319.188 -4.03375 -1.02927 0
M  V30 3292 H 319.721 -3.92188 0.665815 0
M  V30 3293 H 316.46 -5.8467 2.96379 0
M  V30 3294 H 315.98 -5.86602 1.25131 0
M  V30 3295 H 317.659 -6.23875 1.71431 0
M  V30 3296 N 317.792 -0.46758 -1.50504 0
M  V30 3297 C 319.069 0.15003 -1.95024 0
M  V30 3298 C 319.449 1.57304 -1.40779 0
M  V30 3299 O 318.797 2.20281 -0.607319 0
M  V30 3300 C 319.007 0.0969324 -3.48865 0
M  V30 3301 C 320.355 0.287565 -4.23625 0
M  V30 3302 O 321.379 0.173678 -3.55776 0
M  V30 3303 O 320.238 0.517186 -5.44047 0
M  V30 3304 H 317.332 0.113582 -0.819163 0
M  V30 3305 H 319.878 -0.52773 -1.61286 0
M  V30 3306 H 318.65 -0.896732 -3.80886 0
M  V30 3307 H 318.273 0.816303 -3.8913 0
M  V30 3308 N 319.27 1.56325 -0.20005 0
M  V30 3309 C 320.498 2.02105 0.442874 0
M  V30 3310 C 320.913 1.08014 1.5485 0
M  V30 3311 O 320.27 0.0858797 1.82298 0
M  V30 3312 C 320.321 3.47549 0.994583 0
M  V30 3313 O 320.042 4.38049 -0.0669322 0
M  V30 3314 C 321.543 4.0887 1.7129 0
M  V30 3315 H 318.763 0.661807 0.110691 0
M  V30 3316 H 321.307 2.02134 -0.310207 0
M  V30 3317 H 319.462 3.48204 1.69803 0
M  V30 3318 H 319.876 5.23368 0.344462 0
M  V30 3319 H 321.35 5.12475 2.05118 0
M  V30 3320 H 321.827 3.52615 2.61838 0
M  V30 3321 H 322.433 4.12002 1.05518 0
M  V30 3322 N 320.748 -0.0735177 1.57428 0
M  V30 3323 C 321.678 -1.0879 2.06608 0
M  V30 3324 C 322.659 -1.40473 0.959237 0
M  V30 3325 O 323.844 -1.5013 1.23185 0
M  V30 3326 C 320.974 -2.40183 2.50857 0
M  V30 3327 C 319.928 -2.22858 3.65402 0
M  V30 3328 C 319.254 -3.59619 3.957 0
M  V30 3329 C 320.554 -1.65123 4.95511 0
M  V30 3330 H 322.248 -0.678673 2.91607 0
M  V30 3331 H 319.794 -0.325013 1.40284 0
M  V30 3332 H 321.747 -3.11437 2.83874 0
M  V30 3333 H 320.471 -2.83083 1.62885 0
M  V30 3334 H 319.13 -1.54045 3.32664 0
M  V30 3335 H 318.778 -4.00086 3.04861 0
M  V30 3336 H 318.478 -3.48866 4.72828 0
M  V30 3337 H 320.002 -4.32306 4.31212 0
M  V30 3338 H 321.416 -2.26241 5.26771 0
M  V30 3339 H 319.813 -1.65071 5.7695 0
M  V30 3340 H 320.883 -0.612559 4.81015 0
M  V30 3341 N 322.226 -1.5378 -0.344866 0
M  V30 3342 C 323.642 -1.44015 -0.687888 0
M  V30 3343 C 323.842 -0.595834 -1.92489 0
M  V30 3344 O 322.898 -0.0863064 -2.52352 0
M  V30 3345 C 324.211 -2.87481 -0.881758 0
M  V30 3346 C 325.759 -2.97247 -0.980459 0
M  V30 3347 C 326.234 -4.41819 -1.20665 0
M  V30 3348 N 327.725 -4.45339 -1.27389 0
M  V30 3349 C 328.46 -5.54333 -1.46639 0
M  V30 3350 N 327.956 -6.73335 -1.63071 0
M  V30 3351 N 329.749 -5.41944 -1.49176 0
M  V30 3352 H 321.9 -2.07169 0.468475 0
M  V30 3353 H 324.163 -0.93643 0.147655 0
M  V30 3354 H 323.869 -3.51672 -0.0443444 0
M  V30 3355 H 323.743 -3.32352 -1.78388 0
M  V30 3356 H 326.13 -2.33197 -1.8084 0
M  V30 3357 H 326.211 -2.5574 -0.0552713 0
M  V30 3358 H 325.855 -5.06449 -0.383652 0
M  V30 3359 H 325.785 -4.80917 -2.14539 0
M  V30 3360 H 328.276 -3.59585 -1.1622 0
M  V30 3361 H 328.589 -7.52165 -1.77391 0
M  V30 3362 H 326.934 -6.76282 -1.60209 0
M  V30 3363 H 330.125 -4.47932 -1.3592 0
M  V30 3364 H 330.298 -6.26946 -1.63837 0
M  V30 3365 N 323.704 0.605807 -1.45491 0
M  V30 3366 C 324.981 1.36522 -1.40075 0
M  V30 3367 C 325.361 2.10976 -0.0722744 0
M  V30 3368 O 324.709 2.08007 0.945808 0
M  V30 3369 C 324.919 2.31056 -2.61561 0
M  V30 3370 C 326.267 2.93608 -3.06724 0
M  V30 3371 O 327.291 2.41376 -2.61946 0
M  V30 3372 O 326.15 3.88421 -3.84437 0
M  V30 3373 H 323.244 0.612248 -0.555951 0
M  V30 3374 H 325.79 0.628747 -1.57623 0
M  V30 3375 H 324.562 1.75311 -3.49831 0
M  V30 3376 H 324.185 3.12081 -2.46356 0
M  V30 3377 N 325.182 1.32811 0.848464 0
M  V30 3378 C 326.593 1.21315 1.41914 0
M  V30 3379 C 326.944 -0.171847 1.95446 0
M  V30 3380 O 326.069 -1.07093 1.88043 0
M  V30 3381 C 326.664 2.19631 2.57968 0
M  V30 3382 C 325.223 2.12003 3.11017 0
M  V30 3383 C 324.37 2.07651 1.83783 0
M  V30 3384 H 327.321 1.44549 0.655071 0
M  V30 3385 H 327.342 1.79845 3.35315 0
M  V30 3386 H 326.854 3.20423 2.18976 0
M  V30 3387 H 324.955 1.14481 3.54577 0
M  V30 3388 H 325.068 3.02111 3.71841 0
M  V30 3389 H 323.432 1.52983 2.03638 0
M  V30 3390 H 324.215 3.10235 1.47 0
M  V30 3391 N 326.66 -1.06551 1.16123 0
M  V30 3392 C 327.908 -1.78947 0.939267 0
M  V30 3393 C 328.229 -1.87532 -0.534476 0
M  V30 3394 O 327.499 -1.38211 -1.38833 0
M  V30 3395 H 326.079 -0.662807 0.344523 0
M  V30 3396 H 328.741 -1.28725 1.46342 0
M  V30 3397 H 327.837 -2.81117 1.35572 0
M  V30 3398 N 328.138 -0.959301 -1.25041 0
M  V30 3399 C 329.363 -0.633507 -1.97488 0
M  V30 3400 C 329.788 0.788555 -1.70773 0
M  V30 3401 O 329.146 1.53394 -0.966431 0
M  V30 3402 C 329.194 -0.904057 -3.49083 0
M  V30 3403 O 328.298 0.0147939 -4.12397 0
M  V30 3404 H 327.639 -0.240368 -0.618966 0
M  V30 3405 H 330.169 -1.28717 -1.59038 0
M  V30 3406 H 330.179 -0.832203 -3.99423 0
M  V30 3407 H 328.854 -1.94048 -3.67856 0
M  V30 3408 H 327.431 -0.109664 -3.72739 0
M  V30 3409 N 329.616 1.39756 -0.72842 0
M  V30 3410 C 330.548 2.29157 -0.0446202 0
M  V30 3411 C 331.561 1.46484 0.710367 0
M  V30 3412 O 332.75 1.69632 0.55562 0
M  V30 3413 C 329.85 3.24987 0.961071 0
M  V30 3414 C 329.023 4.36572 0.268967 0
M  V30 3415 C 328.082 5.12756 1.18184 0
M  V30 3416 O 327.108 5.6534 0.661794 0
M  V30 3417 N 328.31 5.23331 2.51206 0
M  V30 3418 H 331.075 2.88482 -0.812295 0
M  V30 3419 H 328.636 1.51265 -0.577098 0
M  V30 3420 H 330.628 3.72827 1.57423 0
M  V30 3421 H 329.198 2.66739 1.63 0
M  V30 3422 H 328.418 3.90694 -0.524574 0
M  V30 3423 H 329.706 5.08363 -0.210934 0
M  V30 3424 H 329.104 4.82116 2.9594 0
M  V30 3425 H 327.661 5.74634 3.07634 0
M  V30 3426 N 331.094 0.475555 1.50254 0
M  V30 3427 C 332.024 -0.30611 2.31485 0
M  V30 3428 C 333.005 -0.986228 1.38591 0
M  V30 3429 O 334.19 -0.982541 1.67511 0
M  V30 3430 C 331.32 -1.38588 3.1845 0
M  V30 3431 C 330.274 -0.827115 4.19932 0
M  V30 3432 C 329.6 -2.00551 4.95665 0
M  V30 3433 C 330.9 0.16463 5.2204 0
M  V30 3434 H 332.594 0.371866 2.97082 0
M  V30 3435 H 330.14 0.180282 1.42867 0
M  V30 3436 H 332.093 -1.94023 3.74076 0
M  V30 3437 H 330.817 -2.09269 2.50747 0
M  V30 3438 H 329.476 -0.294702 3.65414 0
M  V30 3439 H 329.124 -2.6994 4.2443 0
M  V30 3440 H 328.824 -1.63784 5.64313 0
M  V30 3441 H 330.348 -2.56468 5.54127 0
M  V30 3442 H 331.762 -0.300699 5.72511 0
M  V30 3443 H 330.159 0.446813 5.98434 0
M  V30 3444 H 331.229 1.08905 4.72512 0
M  V30 3445 N 332.573 -1.56217 0.208337 0
M  V30 3446 C 333.989 -1.58919 -0.14729 0
M  V30 3447 C 334.189 -1.22486 -1.59998 0
M  V30 3448 O 333.245 -0.953849 -2.3379 0
M  V30 3449 C 334.558 -3.00236 0.167048 0
M  V30 3450 C 336.106 -3.12813 0.108219 0
M  V30 3451 C 336.581 -4.56284 0.396049 0
M  V30 3452 N 338.072 -4.61912 0.345142 0
M  V30 3453 C 338.807 -5.70837 0.541523 0
M  V30 3454 N 338.303 -6.88178 0.798968 0
M  V30 3455 N 340.096 -5.60091 0.474867 0
M  V30 3456 H 332.247 -1.78177 1.15614 0
M  V30 3457 H 334.51 -0.827555 0.462446 0
M  V30 3458 H 334.216 -3.31499 1.1748 0
M  V30 3459 H 334.09 -3.7354 -0.524184 0
M  V30 3460 H 336.477 -2.81354 -0.890157 0
M  V30 3461 H 336.558 -2.41866 0.832729 0
M  V30 3462 H 336.202 -4.88458 1.3918 0
M  V30 3463 H 336.132 -5.25439 -0.349502 0
M  V30 3464 H 338.623 -3.77589 0.153316 0
M  V30 3465 H 338.936 -7.67095 0.93727 0
M  V30 3466 H 337.281 -6.89953 0.836013 0
M  V30 3467 H 340.472 -4.67297 0.274064 0
M  V30 3468 H 340.645 -6.44917 0.631326 0
M  V30 3469 N 334.051 0.0651679 -1.57465 0
M  V30 3470 C 335.014 1.06117 -2.03155 0
M  V30 3471 C 336.014 1.31204 -0.929632 0
M  V30 3472 O 337.204 1.26813 -1.19432 0
M  V30 3473 C 334.336 2.4032 -2.41783 0
M  V30 3474 H 335.529 0.667231 -2.92383 0
M  V30 3475 H 333.082 0.311075 -1.53173 0
M  V30 3476 H 333.817 2.84532 -1.55601 0
M  V30 3477 H 333.602 2.23451 -3.22199 0
M  V30 3478 H 335.092 3.11898 -2.77685 0
M  V30 3479 N 335.529 1.53961 0.336706 0
M  V30 3480 C 336.769 1.73254 1.08454 0
M  V30 3481 C 337.133 0.488937 1.8567 0
M  V30 3482 O 338.334 0.559001 2.62923 0
M  V30 3483 C 336.605 2.96519 1.99528 0
M  V30 3484 S 338.164 3.36655 2.81441 0
M  V30 3485 H 334.982 0.609353 0.366347 0
M  V30 3486 H 337.584 1.92117 0.362124 0
M  V30 3487 H 336.288 3.85193 1.41614 0
M  V30 3488 H 335.819 2.80142 2.76196 0
M  V30 3489 H 337.834 2.90925 4.01967 0
M  V30 3490 N 337.007 -0.598083 1.45811 0
M  V30 3491 C 338.418 -1.18011 1.44673 0
M  V30 3492 C 338.769 -1.95378 0.179364 0
M  V30 3493 O 337.894 -2.04124 -0.718509 0
M  V30 3494 C 338.489 -2.14677 2.62105 0
M  V30 3495 C 337.048 -2.68236 2.64057 0
M  V30 3496 C 336.195 -1.43816 2.37091 0
M  V30 3497 H 339.146 -0.38686 1.53913 0
M  V30 3498 H 339.167 -2.97878 2.36746 0
M  V30 3499 H 338.679 -1.5834 3.5433 0
M  V30 3500 H 336.78 -3.28486 1.75864 0
M  V30 3501 H 336.893 -3.12021 3.63566 0
M  V30 3502 H 335.257 -1.731 1.86838 0
M  V30 3503 H 336.04 -0.893333 3.31473 0
M  V30 3504 N 338.485 -1.33259 -0.841409 0
M  V30 3505 C 339.896 -1.22066 -1.41269 0
M  V30 3506 C 340.247 0.161479 -1.95534 0
M  V30 3507 O 339.372 1.06094 -1.88608 0
M  V30 3508 C 339.967 -2.20996 -2.568 0
M  V30 3509 C 338.526 -2.13649 -3.09888 0
M  V30 3510 C 337.673 -2.08623 -1.82679 0
M  V30 3511 H 340.624 -1.44895 -0.647395 0
M  V30 3512 H 340.645 -1.81621 -3.34356 0
M  V30 3513 H 340.157 -3.2158 -2.17274 0
M  V30 3514 H 338.258 -1.16359 -3.53965 0
M  V30 3515 H 338.371 -3.04079 -3.70234 0
M  V30 3516 H 336.735 -1.54061 -2.02824 0
M  V30 3517 H 337.518 -3.1101 -1.45353 0
M  V30 3518 N 339.963 1.05934 -1.16686 0
M  V30 3519 C 341.211 1.78447 -0.948744 0
M  V30 3520 C 341.532 1.87813 0.524523 0
M  V30 3521 O 340.802 1.38945 1.38098 0
M  V30 3522 H 339.382 0.660971 -0.348033 0
M  V30 3523 H 342.044 1.27947 -1.47022 0
M  V30 3524 H 341.14 2.80394 -1.37061 0
M  V30 3525 N 341.441 0.965919 1.2453 0
M  V30 3526 C 342.669 0.644385 1.96609 0
M  V30 3527 C 343.084 -0.785823 1.71669 0
M  V30 3528 O 342.441 -1.52703 0.999399 0
M  V30 3529 C 342.492 0.907375 3.49927 0
M  V30 3530 O 342.213 2.28136 3.74013 0
M  V30 3531 C 343.714 0.599784 4.39224 0
M  V30 3532 H 340.934 0.240588 0.626385 0
M  V30 3533 H 343.478 1.29337 1.58405 0
M  V30 3534 H 341.633 0.304631 3.862 0
M  V30 3535 H 342.047 2.36002 4.68405 0
M  V30 3536 H 343.521 0.834263 5.45659 0
M  V30 3537 H 343.998 -0.465921 4.36722 0
M  V30 3538 H 344.604 1.18235 4.08535 0
M  V30 3539 N 342.919 -1.39368 0.735821 0
M  V30 3540 C 343.882 -2.2896 0.104874 0
M  V30 3541 C 344.882 -1.46347 -0.666274 0
M  V30 3542 O 346.072 -1.67014 -0.49517 0
M  V30 3543 C 343.204 -3.29857 -0.860656 0
M  V30 3544 H 344.397 -2.86259 0.894205 0
M  V30 3545 H 341.95 -1.48029 0.501704 0
M  V30 3546 H 342.685 -2.77615 -1.67631 0
M  V30 3547 H 342.47 -3.9087 -0.310327 0
M  V30 3548 H 343.96 -3.96893 -1.29867 0
M  V30 3549 N 344.397 -0.483516 -1.5 0
M  V30 3550 C 345.36 0.292965 -2.2732 0
M  V30 3551 C 346.36 0.909499 -1.32608 0
M  V30 3552 O 347.55 0.776745 -1.55924 0
M  V30 3553 C 344.682 1.41854 -3.09984 0
M  V30 3554 H 345.875 -0.385289 -2.97415 0
M  V30 3555 H 343.428 -0.237942 -1.54478 0
M  V30 3556 H 344.163 2.13148 -2.44414 0
M  V30 3557 H 343.948 0.982114 -3.79601 0
M  V30 3558 H 345.438 1.96597 -3.68429 0
M  V30 3559 N 345.875 1.56104 -0.216619 0
M  V30 3560 C 347.115 2.00074 0.418322 0
M  V30 3561 C 347.479 1.10098 1.57297 0
M  V30 3562 O 348.68 1.43393 2.27359 0
M  V30 3563 C 346.951 3.47231 0.846477 0
M  V30 3564 S 348.51 4.13223 1.47622 0
M  V30 3565 H 345.328 0.698457 0.132962 0
M  V30 3566 H 347.93 1.92784 -0.324748 0
M  V30 3567 H 346.634 4.104 -0.0036319 0
M  V30 3568 H 346.165 3.58384 1.62248 0
M  V30 3569 H 348.18 4.12005 2.76526 0
M  V30 3570 N 347.353 -0.0568162 1.57498 0
M  V30 3571 C 348.283 -1.06593 2.0775 0
M  V30 3572 C 349.264 -1.39448 0.974082 0
M  V30 3573 O 350.449 -1.48815 1.24771 0
M  V30 3574 C 347.579 -2.37509 2.5339 0
M  V30 3575 C 346.533 -2.1897 3.67745 0
M  V30 3576 C 345.859 -3.55402 3.99492 0
M  V30 3577 C 347.159 -1.59859 4.97235 0
M  V30 3578 H 348.853 -0.647706 2.9231 0
M  V30 3579 H 346.399 -0.310116 1.40621 0
M  V30 3580 H 348.352 -3.08409 2.87162 0
M  V30 3581 H 347.076 -2.8134 1.65878 0
M  V30 3582 H 345.735 -1.50508 3.3428 0
M  V30 3583 H 345.383 -3.9683 3.09088 0
M  V30 3584 H 345.083 -3.43831 4.76502 0
M  V30 3585 H 346.607 -4.27708 4.35773 0
M  V30 3586 H 348.021 -2.20642 5.29141 0
M  V30 3587 H 346.418 -1.58942 5.78669 0
M  V30 3588 H 347.488 -0.561506 4.81638 0
M  V30 3589 N 348.832 -1.54138 -0.328536 0
M  V30 3590 C 350.078 -1.7236 -1.06865 0
M  V30 3591 C 350.411 -0.493231 -1.87832 0
M  V30 3592 O 349.686 0.5098 -1.877 0
M  V30 3593 C 349.969 -2.99621 -1.99747 0
M  V30 3594 C 349.822 -4.32899 -1.22143 0
M  V30 3595 C 351.141 -3.22615 -2.99345 0
M  V30 3596 H 348.26 -0.627151 -0.387105 0
M  V30 3597 H 350.902 -1.86827 -0.345767 0
M  V30 3598 H 349.052 -2.87418 -2.61387 0
M  V30 3599 H 350.724 -4.56978 -0.630017 0
M  V30 3600 H 348.967 -4.30628 -0.523628 0
M  V30 3601 H 349.638 -5.18154 -1.90318 0
M  V30 3602 H 352.114 -3.34248 -2.47826 0
M  V30 3603 H 350.99 -4.13027 -3.61524 0
M  V30 3604 H 351.251 -2.3961 -3.71536 0
M  V30 3605 N 350.31 0.590341 -1.46126 0
M  V30 3606 C 351.726 0.912917 -1.30912 0
M  V30 3607 C 351.926 1.99616 -0.274893 0
M  V30 3608 O 350.982 2.50397 0.325197 0
M  V30 3609 C 352.295 1.3375 -2.69317 0
M  V30 3610 C 353.843 1.45077 -2.77348 0
M  V30 3611 C 354.318 1.90904 -4.16317 0
M  V30 3612 N 355.809 1.9811 -4.18696 0
M  V30 3613 C 356.544 2.34828 -5.23109 0
M  V30 3614 N 356.04 2.70393 -6.37856 0
M  V30 3615 N 357.833 2.35317 -5.10473 0
M  V30 3616 H 349.984 -0.125358 -2.1203 0
M  V30 3617 H 352.247 0.00658481 -0.947977 0
M  V30 3618 H 351.953 0.615614 -3.4627 0
M  V30 3619 H 351.827 2.30058 -2.9892 0
M  V30 3620 H 354.214 2.16353 -2.00687 0
M  V30 3621 H 354.295 0.4704 -2.51438 0
M  V30 3622 H 353.939 1.20209 -4.9347 0
M  V30 3623 H 353.869 2.89886 -4.39629 0
M  V30 3624 H 356.36 1.73146 -3.359 0
M  V30 3625 H 356.673 2.97341 -7.13308 0
M  V30 3626 H 355.018 2.68048 -6.41229 0
M  V30 3627 H 358.209 2.0695 -4.19868 0
M  V30 3628 H 358.382 2.63605 -5.9196 0
M  V30 3629 N 351.788 1.33704 0.83433 0
M  V30 3630 C 353.036 1.25169 1.58673 0
M  V30 3631 C 353.357 -0.18127 1.94156 0
M  V30 3632 O 352.627 -1.11113 1.6134 0
M  V30 3633 H 351.207 0.4603 0.58833 0
M  V30 3634 H 353.869 1.67478 0.996847 0
M  V30 3635 H 352.965 1.84856 2.51465 0
M  V30 3636 N 353.266 -1.05314 1.17247 0
M  V30 3637 C 354.216 -2.11313 0.856196 0
M  V30 3638 C 355.2 -1.60013 -0.168694 0
M  V30 3639 O 356.392 -1.76968 0.0335624 0
M  V30 3640 C 353.521 -3.41301 0.369917 0
M  V30 3641 C 352.607 -3.99401 1.42616 0
M  V30 3642 N 352.998 -4.31481 2.63928 0
M  V30 3643 C 351.296 -4.27126 1.28373 0
M  V30 3644 C 351.997 -4.77799 3.31787 0
M  V30 3645 N 350.973 -4.77843 2.59166 0
M  V30 3646 H 354.775 -2.33976 1.77856 0
M  V30 3647 H 352.289 -1.2295 1.06099 0
M  V30 3648 H 354.286 -4.16713 0.124897 0
M  V30 3649 H 352.946 -3.20072 -0.546253 0
M  V30 3650 H 353.957 -4.21519 3.00902 0
M  V30 3651 H 350.634 -4.15289 0.429111 0
M  V30 3652 H 352.024 -5.11743 4.35395 0
M  V30 3653 N 354.744 -0.972509 -1.24016 0
M  V30 3654 C 355.676 -0.464375 -2.24446 0
M  V30 3655 C 356.689 0.4295 -1.57032 0
M  V30 3656 O 357.878 0.234902 -1.76948 0
M  V30 3657 C 354.978 0.348385 -3.37105 0
M  V30 3658 C 354.151 -0.53673 -4.34094 0
M  V30 3659 C 353.21 0.220838 -5.25736 0
M  V30 3660 O 352.236 -0.386867 -5.67884 0
M  V30 3661 N 353.438 1.50907 -5.60542 0
M  V30 3662 H 356.203 -1.32788 -2.68677 0
M  V30 3663 H 353.764 -0.844877 -1.38107 0
M  V30 3664 H 355.756 0.863341 -3.95384 0
M  V30 3665 H 354.326 1.11285 -2.92121 0
M  V30 3666 H 353.546 -1.23261 -3.74433 0
M  V30 3667 H 354.834 -1.14022 -4.95859 0
M  V30 3668 H 354.232 2.02444 -5.28236 0
M  V30 3669 H 352.789 1.96962 -6.21329 0
M  V30 3670 N 356.222 1.38976 -0.743202 0
M  V30 3671 C 357.185 2.28901 -0.117014 0
M  V30 3672 C 358.185 1.46698 0.658503 0
M  V30 3673 O 359.375 1.67274 0.486305 0
M  V30 3674 C 356.507 3.30309 0.84315 0
M  V30 3675 H 357.7 2.8578 -0.909373 0
M  V30 3676 H 355.253 1.47761 -0.509547 0
M  V30 3677 H 355.988 2.785 1.66157 0
M  V30 3678 H 355.773 3.91029 0.289594 0
M  V30 3679 H 357.263 3.97577 1.2776 0
M  V30 3680 N 357.7 0.491464 1.49741 0
M  V30 3681 C 358.947 -0.0564256 2.02421 0
M  V30 3682 C 359.275 -1.37872 1.37192 0
M  V30 3683 O 358.53 -1.89375 0.493508 0
M  V30 3684 C 358.829 -0.267329 3.56399 0
M  V30 3685 C 358.495 0.975775 4.40215 0
M  V30 3686 C 357.157 1.31655 4.62839 0
M  V30 3687 C 359.509 1.80251 4.89039 0
M  V30 3688 C 356.837 2.48375 5.31532 0
M  V30 3689 C 359.189 2.96116 5.59015 0
M  V30 3690 C 357.853 3.30585 5.79888 0
M  V30 3691 H 357.123 -0.0206476 0.740712 0
M  V30 3692 H 359.77 0.649686 1.80143 0
M  V30 3693 H 358.075 -1.05588 3.77304 0
M  V30 3694 H 359.772 -0.705549 3.94744 0
M  V30 3695 H 356.362 0.700315 4.2284 0
M  V30 3696 H 360.546 1.55239 4.71396 0
M  V30 3697 H 355.802 2.7533 5.45897 0
M  V30 3698 H 359.976 3.60509 5.95824 0
M  V30 3699 H 357.603 4.21132 6.32892 0
M  V30 3700 N 359.178 -1.55987 0.224894 0
M  V30 3701 C 360.455 -1.90232 -0.455083 0
M  V30 3702 C 360.835 -1.14269 -1.77499 0
M  V30 3703 O 360.183 -0.253079 -2.27094 0
M  V30 3704 C 360.393 -3.42993 -0.644758 0
M  V30 3705 C 361.741 -4.13821 -0.950669 0
M  V30 3706 O 362.765 -3.4861 -0.731423 0
M  V30 3707 O 361.624 -5.29128 -1.36695 0
M  V30 3708 H 358.718 -0.79108 -0.241084 0
M  V30 3709 H 361.264 -1.67581 0.267327 0
M  V30 3710 H 360.036 -3.90252 0.28613 0
M  V30 3711 H 359.659 -3.71434 -1.41853 0
M  V30 3712 N 360.656 0.0484629 -1.57525 0
M  V30 3713 C 361.902 0.744226 -1.88651 0
M  V30 3714 C 362.235 1.76029 -0.820212 0
M  V30 3715 O 361.51 1.93782 0.166985 0
M  V30 3716 C 361.793 1.43128 -3.30434 0
M  V30 3717 C 361.646 0.43005 -4.47739 0
M  V30 3718 C 362.965 2.37031 -3.70816 0
M  V30 3719 H 360.084 0.269089 -0.68612 0
M  V30 3720 H 362.726 0.00713532 -1.89999 0
M  V30 3721 H 360.876 2.05956 -3.29415 0
M  V30 3722 H 362.548 -0.194816 -4.60888 0
M  V30 3723 H 360.791 -0.252522 -4.33064 0
M  V30 3724 H 361.462 0.948874 -5.43783 0
M  V30 3725 H 363.938 1.84263 -3.73077 0
M  V30 3726 H 362.814 2.82094 -4.70865 0
M  V30 3727 H 363.075 3.22864 -3.02012 0
M  V30 3728 N 362.134 1.5431 0.320358 0
M  V30 3729 C 363.382 1.72327 1.05583 0
M  V30 3730 C 363.703 0.50149 1.88441 0
M  V30 3731 O 362.973 -0.48448 1.89815 0
M  V30 3732 H 361.553 0.635387 0.3928 0
M  V30 3733 H 364.215 1.91621 0.356019 0
M  V30 3734 H 363.311 2.60426 1.72003 0
M  V30 3735 N 363.613 -0.582584 1.46437 0
M  V30 3736 C 364.545 -1.70618 1.53043 0
M  V30 3737 C 365.558 -1.57322 0.418769 0
M  V30 3738 O 366.747 -1.64744 0.687136 0
M  V30 3739 C 363.847 -3.08869 1.39474 0
M  V30 3740 C 363.02 -3.48166 2.64762 0
M  V30 3741 C 362.079 -4.65478 2.4539 0
M  V30 3742 O 361.105 -4.71333 3.19114 0
M  V30 3743 N 362.307 -5.60365 1.51564 0
M  V30 3744 H 365.072 -1.65405 2.49923 0
M  V30 3745 H 362.633 -0.768567 1.42494 0
M  V30 3746 H 364.625 -3.85143 1.24287 0
M  V30 3747 H 363.195 -3.08449 0.507758 0
M  V30 3748 H 362.415 -2.61598 2.9489 0
M  V30 3749 H 363.703 -3.71188 3.4799 0
M  V30 3750 H 363.101 -5.5837 0.907705 0
M  V30 3751 H 361.658 -6.36068 1.4234 0
M  V30 3752 N 365.091 -1.34144 -0.827227 0
M  V30 3753 C 366.502 -1.23557 -1.39966 0
M  V30 3754 C 366.853 0.140731 -1.95695 0
M  V30 3755 O 365.978 1.04087 -1.89723 0
M  V30 3756 C 366.573 -2.23708 -2.54441 0
M  V30 3757 C 365.132 -2.16924 -3.07605 0
M  V30 3758 C 364.279 -2.10549 -1.80456 0
M  V30 3759 H 367.23 -1.45573 -0.631991 0
M  V30 3760 H 367.251 -1.85157 -3.32411 0
M  V30 3761 H 366.763 -3.23866 -2.13851 0
M  V30 3762 H 364.864 -1.20107 -3.52711 0
M  V30 3763 H 364.977 -3.07988 -3.66988 0
M  V30 3764 H 363.341 -1.56203 -2.01178 0
M  V30 3765 H 364.124 -3.12535 -1.42046 0
M  V30 3766 N 366.569 1.04691 -1.17803 0
M  V30 3767 C 367.985 1.29963 -0.926379 0
M  V30 3768 C 368.185 1.97251 0.411635 0
M  V30 3769 O 367.241 2.24922 1.14744 0
M  V30 3770 C 368.554 2.16447 -2.08737 0
M  V30 3771 C 370.102 2.29814 -2.12496 0
M  V30 3772 C 370.577 3.19661 -3.27995 0
M  V30 3773 N 372.068 3.27247 -3.27816 0
M  V30 3774 C 372.803 3.96906 -4.13827 0
M  V30 3775 N 372.299 4.6895 -5.09959 0
M  V30 3776 N 374.092 3.93122 -4.01761 0
M  V30 3777 H 366.243 0.594182 -2.0392 0
M  V30 3778 H 368.506 0.324649 -0.890678 0
M  V30 3779 H 368.212 1.74304 -3.05469 0
M  V30 3780 H 368.086 3.17103 -2.04268 0
M  V30 3781 H 370.473 2.71196 -1.16347 0
M  V30 3782 H 370.554 1.2877 -2.21025 0
M  V30 3783 H 370.198 2.78991 -4.24413 0
M  V30 3784 H 370.128 4.20722 -3.16703 0
M  V30 3785 H 372.619 2.75921 -2.58217 0
M  V30 3786 H 372.932 5.19679 -5.71974 0
M  V30 3787 H 371.277 4.67875 -5.13924 0
M  V30 3788 H 374.468 3.35967 -3.2595 0
M  V30 3789 H 374.641 4.47139 -4.6901 0
M  V30 3790 N 368.047 0.979072 1.23499 0
M  V30 3791 C 369.324 0.563674 1.87302 0
M  V30 3792 C 369.704 -0.959199 1.88049 0
M  V30 3793 O 369.052 -1.83535 1.36114 0
M  V30 3794 C 369.262 1.16822 3.28867 0
M  V30 3795 C 370.61 1.26014 4.0547 0
M  V30 3796 O 371.634 1.12158 3.38082 0
M  V30 3797 O 370.493 1.48044 5.26066 0
M  V30 3798 H 367.587 0.189602 0.804972 0
M  V30 3799 H 370.133 1.07407 1.31384 0
M  V30 3800 H 368.905 2.21049 3.22883 0
M  V30 3801 H 368.528 0.642564 3.92373 0
M  V30 3802 N 369.525 -1.3858 0.750561 0
M  V30 3803 C 370.773 -1.99789 0.30477 0
M  V30 3804 C 371.094 -1.59874 -1.11649 0
M  V30 3805 O 370.364 -0.85417 -1.76297 0
M  V30 3806 H 368.944 -0.738902 0.109694 0
M  V30 3807 H 371.606 -1.69391 0.963983 0
M  V30 3808 H 370.702 -3.09952 0.365499 0
M  V30 3809 N 371.003 -0.499398 -1.49478 0
M  V30 3810 C 371.933 0.269244 -2.31943 0
M  V30 3811 C 372.914 0.964054 -1.40143 0
M  V30 3812 O 374.099 0.955767 -1.69052 0
M  V30 3813 C 371.229 1.33504 -3.20615 0
M  V30 3814 C 370.183 0.760202 -4.21195 0
M  V30 3815 C 369.509 1.9264 -4.98792 0
M  V30 3816 C 370.809 -0.247661 -5.21712 0
M  V30 3817 H 372.503 -0.419082 -2.96452 0
M  V30 3818 H 370.049 -0.202988 -1.42562 0
M  V30 3819 H 372.002 1.88048 -3.77115 0
M  V30 3820 H 370.726 2.05253 -2.54045 0
M  V30 3821 H 369.385 0.23653 -3.65836 0
M  V30 3822 H 369.033 2.63154 -4.28671 0
M  V30 3823 H 368.733 1.54785 -5.66847 0
M  V30 3824 H 370.257 2.4762 -5.58137 0
M  V30 3825 H 371.671 0.209579 -5.72917 0
M  V30 3826 H 370.068 -0.541962 -5.97648 0
M  V30 3827 H 371.138 -1.16409 -4.7072 0
M  V30 3828 N 372.481 1.55866 -0.233164 0
M  V30 3829 C 373.428 2.20796 0.67215 0
M  V30 3830 C 374.398 1.16731 1.18166 0
M  V30 3831 O 375.583 1.45129 1.23864 0
M  V30 3832 C 372.723 2.90072 1.86955 0
M  V30 3833 C 371.836 4.08759 1.39786 0
M  V30 3834 C 370.971 4.65787 2.55374 0
M  V30 3835 C 370.01 5.76752 2.04998 0
M  V30 3836 N 369.147 6.28021 3.13901 0
M  V30 3837 H 373.987 2.9779 0.111749 0
M  V30 3838 H 371.524 1.47036 0.0434007 0
M  V30 3839 H 373.482 3.28428 2.57276 0
M  V30 3840 H 372.112 2.15575 2.40265 0
M  V30 3841 H 371.164 3.7581 0.589173 0
M  V30 3842 H 372.476 4.88906 0.98856 0
M  V30 3843 H 371.63 5.06646 3.33758 0
M  V30 3844 H 370.369 3.84828 2.99598 0
M  V30 3845 H 369.374 5.35383 1.25079 0
M  V30 3846 H 370.599 6.59553 1.61759 0
M  V30 3847 H 368.545 5.49971 3.57586 0
M  V30 3848 H 368.462 7.03323 2.7726 0
M  V30 3849 H 369.73 6.73538 3.92386 0
M  V30 3850 N 373.959 -0.0401083 1.57549 0
M  V30 3851 C 374.889 -1.04384 2.08869 0
M  V30 3852 C 375.87 -1.38407 0.988817 0
M  V30 3853 O 377.055 -1.47483 1.26342 0
M  V30 3854 C 374.185 -2.34808 2.55895 0
M  V30 3855 C 373.139 -2.15057 3.70047 0
M  V30 3856 C 372.465 -3.51145 4.03239 0
M  V30 3857 C 373.765 -1.54576 4.98902 0
M  V30 3858 H 375.459 -0.616666 2.92981 0
M  V30 3859 H 373.005 -0.295184 1.40942 0
M  V30 3860 H 374.958 -3.05346 2.90417 0
M  V30 3861 H 373.682 -2.79565 1.68853 0
M  V30 3862 H 372.341 -1.46954 3.35857 0
M  V30 3863 H 371.989 -3.93529 3.13279 0
M  V30 3864 H 371.689 -3.38758 4.80122 0
M  V30 3865 H 373.213 -4.23062 4.40285 0
M  V30 3866 H 374.627 -2.15017 5.31451 0
M  V30 3867 H 373.024 -1.52796 5.80322 0
M  V30 3868 H 374.094 -0.51039 4.82206 0
M  V30 3869 N 375.437 -1.54477 -0.31217 0
M  V30 3870 C 376.683 -1.73483 -1.0503 0
M  V30 3871 C 377.016 -0.513125 -1.87298 0
M  V30 3872 O 376.291 0.489864 -1.8823 0
M  V30 3873 C 376.574 -3.01723 -1.96558 0
M  V30 3874 C 376.427 -4.3417 -1.17545 0
M  V30 3875 C 377.746 -3.25772 -2.95907 0
M  V30 3876 H 374.865 -0.631222 -0.380432 0
M  V30 3877 H 377.507 -1.87184 -0.325932 0
M  V30 3878 H 375.657 -2.90174 -2.58324 0
M  V30 3879 H 377.329 -4.5762 -0.581513 0
M  V30 3880 H 375.572 -4.31159 -0.477925 0
M  V30 3881 H 376.243 -5.20143 -1.84811 0
M  V30 3882 H 378.719 -3.36857 -2.44267 0
M  V30 3883 H 377.595 -4.16838 -3.57123 0
M  V30 3884 H 377.856 -2.43537 -3.68974 0
M  V30 3885 N 376.915 0.57481 -1.46744 0
M  V30 3886 C 378.331 0.898981 -1.31873 0
M  V30 3887 C 378.531 1.99313 -0.29605 0
M  V30 3888 O 377.587 2.50728 0.298621 0
M  V30 3889 C 378.9 1.30886 -2.7072 0
M  V30 3890 C 380.448 1.42127 -2.78871 0
M  V30 3891 C 380.923 1.86478 -4.18318 0
M  V30 3892 N 382.414 1.93658 -4.20774 0
M  V30 3893 C 383.149 2.29267 -5.2557 0
M  V30 3894 N 382.645 2.63612 -6.40688 0
M  V30 3895 N 384.438 2.29889 -5.1294 0
M  V30 3896 H 376.589 -0.147839 -2.11885 0
M  V30 3897 H 378.852 -0.00347013 -0.947994 0
M  V30 3898 H 378.558 0.578853 -3.46904 0
M  V30 3899 H 378.432 2.26874 -3.01343 0
M  V30 3900 H 380.819 2.14213 -2.0297 0
M  V30 3901 H 380.9 0.443705 -2.51922 0
M  V30 3902 H 380.544 1.14968 -4.94717 0
M  V30 3903 H 380.474 2.85207 -4.42679 0
M  V30 3904 H 382.965 1.69574 -3.37718 0
M  V30 3905 H 383.278 2.89759 -7.16421 0
M  V30 3906 H 381.623 2.61232 -6.44036 0
M  V30 3907 H 384.814 2.02485 -4.22039 0
M  V30 3908 H 384.987 2.57312 -5.94722 0
M  V30 3909 N 378.394 1.34581 0.820102 0
M  V30 3910 C 379.341 1.2639 1.93117 0
M  V30 3911 C 380.311 0.138554 1.65521 0
M  V30 3912 O 381.496 0.320004 1.88097 0
M  V30 3913 C 378.636 1.02812 3.29429 0
M  V30 3914 C 377.749 2.24146 3.693 0
M  V30 3915 C 376.884 1.93829 4.94574 0
M  V30 3916 C 375.923 3.1129 5.27034 0
M  V30 3917 N 375.06 2.80838 6.43486 0
M  V30 3918 H 379.9 2.21408 1.99455 0
M  V30 3919 H 377.437 1.10077 0.975784 0
M  V30 3920 H 379.395 0.871788 4.0799 0
M  V30 3921 H 378.025 0.114612 3.22596 0
M  V30 3922 H 377.077 2.50691 2.86109 0
M  V30 3923 H 378.389 3.11899 3.89257 0
M  V30 3924 H 377.543 1.74948 5.80929 0
M  V30 3925 H 376.282 1.03341 4.76626 0
M  V30 3926 H 375.287 3.30764 4.39175 0
M  V30 3927 H 376.512 4.02561 5.4692 0
M  V30 3928 H 374.458 1.92929 6.26988 0
M  V30 3929 H 374.375 3.62123 6.63629 0
M  V30 3930 H 375.643 2.65467 7.32903 0
M  V30 3931 N 379.872 -1.04064 1.18357 0
M  V30 3932 C 381.149 -1.74252 0.888581 0
M  V30 3933 C 381.529 -2.02138 -0.60856 0
M  V30 3934 O 380.877 -1.66656 -1.56327 0
M  V30 3935 C 381.087 -3.0277 1.73584 0
M  V30 3936 C 382.435 -3.76506 1.96286 0
M  V30 3937 O 383.459 -3.12668 1.70637 0
M  V30 3938 O 382.318 -4.91243 2.39464 0
M  V30 3939 H 379.412 -0.758271 0.330082 0
M  V30 3940 H 381.958 -1.1013 1.2911 0
M  V30 3941 H 380.73 -2.78299 2.75073 0
M  V30 3942 H 380.353 -3.74631 1.33183 0
M  V30 3943 N 381.35 -0.985608 -1.22978 0
M  V30 3944 C 382.766 -0.695104 -1.43668 0
M  V30 3945 C 382.966 0.736866 -1.87543 0
M  V30 3946 O 382.022 1.50868 -2.02473 0
M  V30 3947 C 383.335 -1.69447 -2.48412 0
M  V30 3948 C 384.883 -1.70909 -2.62219 0
M  V30 3949 C 385.358 -2.6969 -3.70178 0
M  V30 3950 N 386.849 -2.6824 -3.77626 0
M  V30 3951 C 387.584 -3.41339 -4.60733 0
M  V30 3952 N 387.08 -4.24015 -5.4789 0
M  V30 3953 N 388.873 -3.30079 -4.54977 0
M  V30 3954 H 381.024 -1.91054 -0.928016 0
M  V30 3955 H 383.287 -0.823553 -0.469536 0
M  V30 3956 H 382.993 -2.7188 -2.23102 0
M  V30 3957 H 382.867 -1.48147 -3.46889 0
M  V30 3958 H 385.254 -0.691785 -2.86877 0
M  V30 3959 H 385.335 -1.96276 -1.6404 0
M  V30 3960 H 384.979 -3.71566 -3.46268 0
M  V30 3961 H 384.909 -2.41595 -4.67909 0
M  V30 3962 H 387.4 -2.08243 -3.15346 0
M  V30 3963 H 387.713 -4.76636 -6.08308 0
M  V30 3964 H 386.058 -4.28104 -5.47496 0
M  V30 3965 H 389.249 -2.64937 -3.85909 0
M  V30 3966 H 389.422 -3.87308 -5.19516 0
M  V30 3967 N 382.828 1.3818 -0.7579 0
M  V30 3968 C 383.758 2.33027 -0.148597 0
M  V30 3969 C 384.739 1.55085 0.69875 0
M  V30 3970 O 385.924 1.83384 0.639053 0
M  V30 3971 C 383.054 3.3928 0.742034 0
M  V30 3972 C 382.008 4.28 -0.00291946 0
M  V30 3973 C 381.334 5.25146 1.00625 0
M  V30 3974 C 382.634 5.08938 -1.17385 0
M  V30 3975 H 384.328 2.84231 -0.940909 0
M  V30 3976 H 381.874 1.36659 -0.453908 0
M  V30 3977 H 383.827 4.046 1.17799 0
M  V30 3978 H 382.551 2.86569 1.56671 0
M  V30 3979 H 381.21 3.64192 -0.419504 0
M  V30 3980 H 380.858 4.68721 1.8251 0
M  V30 3981 H 380.558 5.85361 0.512428 0
M  V30 3982 H 382.082 5.93342 1.44143 0
M  V30 3983 H 383.496 5.67474 -0.815224 0
M  V30 3984 H 381.893 5.7841 -1.59882 0
M  V30 3985 H 382.963 4.42424 -1.98468 0
M  V30 3986 N 384.306 0.507319 1.49211 0
M  V30 3987 C 385.552 -0.0350047 2.0277 0
M  V30 3988 C 385.885 -1.3606 1.38569 0
M  V30 3989 O 385.16 -1.87321 0.523542 0
M  V30 3990 C 385.443 -0.180916 3.59645 0
M  V30 3991 C 385.296 1.16825 4.34364 0
M  V30 3992 C 386.615 -0.918558 4.30407 0
M  V30 3993 H 383.734 -0.0112473 0.736914 0
M  V30 3994 H 386.376 0.659956 1.7817 0
M  V30 3995 H 384.526 -0.772826 3.80736 0
M  V30 3996 H 386.198 1.79952 4.24753 0
M  V30 3997 H 384.441 1.75594 3.96673 0
M  V30 3998 H 385.112 1.01939 5.42506 0
M  V30 3999 H 387.588 -0.41649 4.1401 0
M  V30 4000 H 386.464 -0.989505 5.39907 0
M  V30 4001 H 386.725 -1.96373 3.96093 0
M  V30 4002 N 385.784 -1.5574 0.241426 0
M  V30 4003 C 386.714 -2.24133 -0.654722 0
M  V30 4004 C 387.695 -1.21974 -1.1856 0
M  V30 4005 O 388.88 -1.50612 -1.22595 0
M  V30 4006 C 386.01 -2.93659 -1.85423 0
M  V30 4007 C 384.964 -4.0246 -1.45636 0
M  V30 4008 C 384.29 -4.59383 -2.73626 0
M  V30 4009 C 385.59 -5.18468 -0.631506 0
M  V30 4010 H 387.284 -2.99281 -0.0844353 0
M  V30 4011 H 384.83 -1.43947 -0.0391707 0
M  V30 4012 H 386.783 -3.40203 -2.48676 0
M  V30 4013 H 385.507 -2.15991 -2.44981 0
M  V30 4014 H 384.166 -3.56676 -0.847202 0
M  V30 4015 H 383.814 -3.78422 -3.3137 0
M  V30 4016 H 383.514 -5.32826 -2.4773 0
M  V30 4017 H 385.038 -5.08658 -3.37786 0
M  V30 4018 H 386.452 -5.61272 -1.1682 0
M  V30 4019 H 384.849 -5.98266 -0.468831 0
M  V30 4020 H 385.919 -4.8358 0.357506 0
M  V30 4021 N 387.262 0.0317525 -1.57568 0
M  V30 4022 C 388.487 0.738664 -1.938 0
M  V30 4023 C 388.912 1.68242 -0.841208 0
M  V30 4024 O 388.27 1.80157 0.203267 0
M  V30 4025 C 388.318 1.47417 -3.29091 0
M  V30 4026 O 387.422 2.5872 -3.2115 0
M  V30 4027 H 386.763 0.198856 -0.633524 0
M  V30 4028 H 389.293 -0.0119713 -2.04596 0
M  V30 4029 H 389.303 1.84468 -3.63917 0
M  V30 4030 H 387.978 0.781988 -4.08482 0
M  V30 4031 H 386.555 2.24231 -2.97951 0
M  V30 4032 N 388.74 1.54641 0.303973 0
M  V30 4033 C 389.97 1.77511 1.05705 0
M  V30 4034 C 390.378 0.533228 1.81531 0
M  V30 4035 O 389.721 -0.506423 1.76582 0
M  V30 4036 C 389.783 2.92779 2.08617 0
M  V30 4037 C 389.447 4.30977 1.52013 0
M  V30 4038 C 390.444 5.11115 0.9517 0
M  V30 4039 C 388.129 4.77571 1.55665 0
M  V30 4040 C 390.123 6.35966 0.427327 0
M  V30 4041 C 387.81 6.02384 1.02841 0
M  V30 4042 C 388.808 6.81417 0.464713 0
M  V30 4043 O 388.496 8.03881 -0.0555283 0
M  V30 4044 H 388.228 0.59579 0.319391 0
M  V30 4045 H 390.782 2.02401 0.349712 0
M  V30 4046 H 389.012 2.63506 2.83022 0
M  V30 4047 H 390.701 3.03252 2.69802 0
M  V30 4048 H 391.467 4.76264 0.916407 0
M  V30 4049 H 387.346 4.16085 1.9848 0
M  V30 4050 H 390.89 6.97599 -0.0133062 0
M  V30 4051 H 386.787 6.36723 1.06084 0
M  V30 4052 H 387.555 8.18479 0.0580522 0
M  V30 4053 N 390.218 -0.567019 1.47046 0
M  V30 4054 C 391.464 -1.32658 1.53394 0
M  V30 4055 C 391.797 -1.93254 0.19148 0
M  V30 4056 O 391.072 -1.77338 -0.798844 0
M  V30 4057 C 391.355 -2.44412 2.64452 0
M  V30 4058 C 391.208 -1.88749 4.08282 0
M  V30 4059 C 392.527 -3.46387 2.71485 0
M  V30 4060 H 389.646 -0.48098 0.558415 0
M  V30 4061 H 392.288 -0.635481 1.79058 0
M  V30 4062 H 390.438 -3.03363 2.427 0
M  V30 4063 H 392.11 -1.34134 4.41368 0
M  V30 4064 H 390.353 -1.19481 4.17021 0
M  V30 4065 H 391.024 -2.69491 4.81745 0
M  V30 4066 H 393.5 -2.9734 2.91081 0
M  V30 4067 H 392.376 -4.2202 3.50985 0
M  V30 4068 H 392.637 -4.04616 1.78153 0
M  V30 4069 N 391.696 -1.35014 -0.812953 0
M  V30 4070 C 393.112 -1.14914 -1.10757 0
M  V30 4071 C 393.312 0.0426818 -2.01455 0
M  V30 4072 O 392.368 0.715212 -2.42159 0
M  V30 4073 C 393.681 -2.44911 -1.74468 0
M  V30 4074 C 395.229 -2.5106 -1.86917 0
M  V30 4075 C 395.704 -3.81085 -2.54044 0
M  V30 4076 N 397.195 -3.82301 -2.61535 0
M  V30 4077 C 397.93 -4.79634 -3.14227 0
M  V30 4078 N 397.426 -5.87353 -3.67407 0
M  V30 4079 N 399.219 -4.67078 -3.12721 0
M  V30 4080 H 391.37 -2.1136 -0.20989 0
M  V30 4081 H 393.633 -0.935128 -0.155692 0
M  V30 4082 H 393.339 -3.32267 -1.15289 0
M  V30 4083 H 393.213 -2.58989 -2.74234 0
M  V30 4084 H 395.6 -1.64137 -2.45241 0
M  V30 4085 H 395.681 -2.40901 -0.860242 0
M  V30 4086 H 395.325 -4.68402 -1.96372 0
M  V30 4087 H 395.255 -3.88529 -3.55461 0
M  V30 4088 H 397.746 -3.04465 -2.23851 0
M  V30 4089 H 398.059 -6.57624 -4.05894 0
M  V30 4090 H 396.404 -5.91054 -3.65623 0
M  V30 4091 H 399.595 -3.82067 -2.70449 0
M  V30 4092 H 399.768 -5.43098 -3.53481 0
M  V30 4093 N 393.175 1.03435 -1.18907 0
M  V30 4094 C 394.085 2.15075 -0.937015 0
M  V30 4095 C 395.101 1.73706 0.101085 0
M  V30 4096 O 396.277 2.01232 -0.0822948 0
M  V30 4097 C 393.342 3.43458 -0.473057 0
M  V30 4098 C 392.403 3.99172 -1.57989 0
M  V30 4099 C 391.636 5.21427 -1.13797 0
M  V30 4100 O 391.859 5.704 0.000725941 0
M  V30 4101 O 390.793 5.69837 -1.9383 0
M  V30 4102 H 394.619 2.39198 -1.87131 0
M  V30 4103 H 392.204 1.13506 -0.971427 0
M  V30 4104 H 394.086 4.20811 -0.222702 0
M  V30 4105 H 392.761 3.20793 0.432869 0
M  V30 4106 H 391.668 3.23178 -1.88433 0
M  V30 4107 H 393.001 4.2619 -2.46217 0
M  V30 4108 N 394.653 0.992116 1.22453 0
M  V30 4109 C 395.563 0.55065 2.28046 0
M  V30 4110 C 396.579 -0.400189 1.69335 0
M  V30 4111 O 397.755 -0.267215 1.99619 0
M  V30 4112 C 394.82 -0.128496 3.46462 0
M  V30 4113 C 393.881 0.865208 4.20491 0
M  V30 4114 C 393.114 0.218377 5.33253 0
M  V30 4115 O 393.337 -0.987894 5.6178 0
M  V30 4116 O 392.271 0.922845 5.94783 0
M  V30 4117 H 396.097 1.4291 2.67975 0
M  V30 4118 H 393.682 0.760326 1.28606 0
M  V30 4119 H 395.564 -0.508947 4.18315 0
M  V30 4120 H 394.239 -0.981526 3.0846 0
M  V30 4121 H 393.146 1.29658 3.50913 0
M  V30 4122 H 394.479 1.68741 4.62371 0
M  V30 4123 N 396.131 -1.37776 0.765217 0
M  V30 4124 C 397.094 -2.28686 0.153416 0
M  V30 4125 C 398.094 -1.47727 -0.635081 0
M  V30 4126 O 399.284 -1.68027 -0.459632 0
M  V30 4127 C 396.416 -3.31608 -0.790495 0
M  V30 4128 H 397.609 -2.84297 0.954723 0
M  V30 4129 H 395.162 -1.46932 0.53299 0
M  V30 4130 H 395.897 -2.81109 -1.61705 0
M  V30 4131 H 395.682 -3.9144 -0.227348 0
M  V30 4132 H 397.172 -3.99559 -1.21419 0
M  V30 4133 N 397.609 -0.515225 -1.4894 0
M  V30 4134 C 398.857 0.0241671 -2.02086 0
M  V30 4135 C 399.178 1.3616 -1.3959 0
M  V30 4136 O 398.448 1.87841 -0.556121 0
M  V30 4137 H 397.028 0.0119203 -0.746905 0
M  V30 4138 H 399.69 -0.675702 -1.82812 0
M  V30 4139 H 398.786 0.143385 -3.1177 0
M  V30 4140 N 399.087 1.5561 -0.249682 0
M  V30 4141 C 400.034 2.21496 0.648694 0
M  V30 4142 C 401.004 1.17977 1.16921 0
M  V30 4143 O 402.189 1.46434 1.22318 0
M  V30 4144 C 399.329 2.92039 1.83868 0
M  V30 4145 C 398.442 4.10219 1.35442 0
M  V30 4146 C 397.577 4.6847 2.50419 0
M  V30 4147 C 396.616 5.78893 1.98869 0
M  V30 4148 N 395.753 6.31315 3.07223 0
M  V30 4149 H 400.593 2.97892 0.0801582 0
M  V30 4150 H 398.13 1.47074 0.0278031 0
M  V30 4151 H 400.088 3.31138 2.53778 0
M  V30 4152 H 398.718 2.18111 2.37965 0
M  V30 4153 H 397.77 3.76413 0.54928 0
M  V30 4154 H 399.082 4.89927 0.936649 0
M  V30 4155 H 398.236 5.10158 3.28366 0
M  V30 4156 H 396.975 3.87984 2.95499 0
M  V30 4157 H 395.98 5.3668 1.19393 0
M  V30 4158 H 397.205 6.61232 1.54755 0
M  V30 4159 H 395.151 5.53733 3.51732 0
M  V30 4160 H 395.068 7.06224 2.69784 0
M  V30 4161 H 396.336 6.77662 3.8522 0
M  V30 4162 N 400.565 -0.0233959 1.57583 0
M  V30 4163 C 401.495 -1.02162 2.09965 0
M  V30 4164 C 402.476 -1.3735 1.00344 0
M  V30 4165 O 403.661 -1.46135 1.27899 0
M  V30 4166 C 400.791 -2.32081 2.58371 0
M  V30 4167 C 399.745 -2.1112 3.72307 0
M  V30 4168 C 399.071 -3.46848 4.06941 0
M  V30 4169 C 400.371 -1.49276 5.00514 0
M  V30 4170 H 402.065 -0.585557 2.93618 0
M  V30 4171 H 399.611 -0.280218 1.41247 0
M  V30 4172 H 401.564 -3.02249 2.93639 0
M  V30 4173 H 400.288 -2.77758 1.71808 0
M  V30 4174 H 398.947 -1.43384 3.37397 0
M  V30 4175 H 398.595 -3.90184 3.17436 0
M  V30 4176 H 398.295 -3.33646 4.83688 0
M  V30 4177 H 399.819 -4.18369 4.44747 0
M  V30 4178 H 401.233 -2.09368 5.33702 0
M  V30 4179 H 399.63 -1.46632 5.8191 0
M  V30 4180 H 400.7 -0.459217 4.82721 0
M  V30 4181 N 402.043 -1.548 -0.295768 0
M  V30 4182 C 403.32 -1.65014 -1.05023 0
M  V30 4183 C 403.7 -0.501805 -2.05049 0
M  V30 4184 O 403.048 0.500869 -2.22943 0
M  V30 4185 C 403.258 -3.03252 -1.72741 0
M  V30 4186 C 404.606 -3.60242 -2.24746 0
M  V30 4187 O 405.63 -3.05737 -1.82765 0
M  V30 4188 O 404.489 -4.55687 -3.01681 0
M  V30 4189 H 401.583 -0.669314 -0.485744 0
M  V30 4190 H 404.129 -1.67144 -0.293438 0
M  V30 4191 H 402.901 -3.7827 -1.00138 0
M  V30 4192 H 402.524 -3.04922 -2.55163 0
M  V30 4193 N 403.521 0.559213 -1.47345 0
M  V30 4194 C 404.768 1.31648 -1.53867 0
M  V30 4195 C 405.096 1.93468 -0.200104 0
M  V30 4196 O 404.351 1.78295 0.806799 0
M  V30 4197 C 404.65 2.44853 -2.6035 0
M  V30 4198 C 404.316 2.00876 -4.03683 0
M  V30 4199 C 402.978 1.88599 -4.42701 0
M  V30 4200 C 405.33 1.67279 -4.93626 0
M  V30 4201 C 402.658 1.41017 -5.69501 0
M  V30 4202 C 405.01 1.21169 -6.20887 0
M  V30 4203 C 403.674 1.07487 -6.58789 0
M  V30 4204 H 402.944 0.481734 -0.56304 0
M  V30 4205 H 405.591 0.627301 -1.80934 0
M  V30 4206 H 403.896 3.19318 -2.27032 0
M  V30 4207 H 405.593 3.03039 -2.62619 0
M  V30 4208 H 402.183 2.11374 -3.72853 0
M  V30 4209 H 406.367 1.75638 -4.64182 0
M  V30 4210 H 401.623 1.29086 -5.97618 0
M  V30 4211 H 405.797 0.942345 -6.89995 0
M  V30 4212 H 403.424 0.703946 -7.56934 0
M  V30 4213 N 404.999 1.35443 0.805782 0
M  V30 4214 C 406.239 1.30127 1.57627 0
M  V30 4215 C 406.603 -0.122567 1.91608 0
M  V30 4216 O 407.804 -0.300107 2.67119 0
M  V30 4217 C 406.075 2.18314 2.82973 0
M  V30 4218 S 407.634 2.30521 3.7337 0
M  V30 4219 H 404.452 0.462439 0.540066 0
M  V30 4220 H 407.054 1.70843 0.95042 0
M  V30 4221 H 405.758 3.20741 2.56034 0
M  V30 4222 H 405.289 1.78558 3.50543 0
M  V30 4223 H 407.304 1.49062 4.73281 0
M  V30 4224 N 406.477 -1.02803 1.19454 0
M  V30 4225 C 407.754 -1.73299 0.907013 0
M  V30 4226 C 408.134 -2.02772 -0.587086 0
M  V30 4227 O 407.482 -1.68304 -1.54551 0
M  V30 4228 C 407.692 -3.00912 1.76785 0
M  V30 4229 C 409.04 -3.74403 2.00268 0
M  V30 4230 O 410.064 -3.10841 1.73943 0
M  V30 4231 O 408.923 -4.88675 2.4466 0
M  V30 4232 H 406.017 -0.754727 0.338106 0
M  V30 4233 H 408.563 -1.08754 1.30271 0
M  V30 4234 H 407.335 -2.75366 2.7801 0
M  V30 4235 H 406.958 -3.73197 1.37149 0
M  V30 4236 N 407.956 -0.998596 -1.21925 0
M  V30 4237 C 409.204 -0.676325 -1.90448 0
M  V30 4238 C 409.525 0.794719 -1.78071 0
M  V30 4239 O 408.795 1.5701 -1.17152 0
M  V30 4240 H 407.375 -0.247165 -0.704925 0
M  V30 4241 H 410.037 -1.26633 -1.48156 0
M  V30 4242 H 409.133 -0.943858 -2.97486 0
M  V30 4243 N 409.434 1.37368 -0.772513 0
M  V30 4244 C 410.384 2.27613 -0.132823 0
M  V30 4245 C 411.368 1.46138 0.673247 0
M  V30 4246 O 412.56 1.68686 0.536095 0
M  V30 4247 C 409.689 3.35122 0.744864 0
M  V30 4248 C 408.775 4.24044 -0.0690771 0
M  V30 4249 N 409.166 4.93355 -1.1151 0
M  V30 4250 C 407.464 4.45731 0.154782 0
M  V30 4251 C 408.165 5.59 -1.60917 0
M  V30 4252 N 407.141 5.35737 -0.921222 0
M  V30 4253 H 410.943 2.78675 -0.933681 0
M  V30 4254 H 408.457 1.50494 -0.610342 0
M  V30 4255 H 410.454 3.98683 1.21892 0
M  V30 4256 H 409.114 2.85616 1.54446 0
M  V30 4257 H 410.125 4.95785 -1.49726 0
M  V30 4258 H 406.802 4.07096 0.926224 0
M  V30 4259 H 408.192 6.24395 -2.48153 0
M  V30 4260 N 410.912 0.523116 1.48665 0
M  V30 4261 C 412.137 -0.0117284 2.07397 0
M  V30 4262 C 412.562 -1.28031 1.37803 0
M  V30 4263 O 411.92 -1.75836 0.441762 0
M  V30 4264 C 411.968 -0.225786 3.59892 0
M  V30 4265 O 411.072 -1.29592 3.91509 0
M  V30 4266 H 410.413 0.0360673 0.66302 0
M  V30 4267 H 412.943 0.729066 1.9117 0
M  V30 4268 H 412.953 -0.450552 4.05505 0
M  V30 4269 H 411.628 0.700944 4.09951 0
M  V30 4270 H 410.205 -1.05436 3.57684 0
M  V30 4271 N 412.39 -1.55475 0.257931 0
M  V30 4272 C 413.801 -1.8511 -0.243135 0
M  V30 4273 C 414.152 -1.17986 -1.5676 0
M  V30 4274 O 413.277 -0.462102 -2.11409 0
M  V30 4275 C 413.872 -3.35826 -0.447929 0
M  V30 4276 C 412.431 -3.65647 -0.893245 0
M  V30 4277 C 411.578 -2.7729 0.0232965 0
M  V30 4278 H 414.529 -1.51261 0.480199 0
M  V30 4279 H 414.55 -3.58002 -1.28898 0
M  V30 4280 H 414.062 -3.84652 0.516196 0
M  V30 4281 H 412.163 -3.22308 -1.86945 0
M  V30 4282 H 412.276 -4.73312 -0.742469 0
M  V30 4283 H 410.64 -2.49942 -0.490021 0
M  V30 4284 H 411.423 -3.28926 0.982994 0
M  V30 4285 N 413.868 0.0150385 -1.57593 0
M  V30 4286 C 414.831 0.995996 -2.06428 0
M  V30 4287 C 415.831 1.2818 -0.970903 0
M  V30 4288 O 417.021 1.22949 -1.23406 0
M  V30 4289 C 414.153 2.32506 -2.49307 0
M  V30 4290 H 415.346 0.573873 -2.94358 0
M  V30 4291 H 412.899 0.262186 -1.54085 0
M  V30 4292 H 413.634 2.79438 -1.64575 0
M  V30 4293 H 413.419 2.13087 -3.29145 0
M  V30 4294 H 414.909 3.02906 -2.87468 0
M  V30 4295 N 415.346 1.54954 0.287554 0
M  V30 4296 C 416.592 1.75132 1.02257 0
M  V30 4297 C 416.925 0.542858 1.86458 0
M  V30 4298 O 416.2 -0.459856 1.88986 0
M  V30 4299 C 416.483 3.04812 1.91733 0
M  V30 4300 C 416.336 4.35985 1.10622 0
M  V30 4301 C 417.655 3.30438 2.90687 0
M  V30 4302 H 414.774 0.637194 0.370341 0
M  V30 4303 H 417.416 1.87678 0.296111 0
M  V30 4304 H 415.566 2.94247 2.53675 0
M  V30 4305 H 417.238 4.58487 0.508636 0
M  V30 4306 H 415.481 4.31865 0.409271 0
M  V30 4307 H 416.152 5.23017 1.76513 0
M  V30 4308 H 418.628 3.40701 2.38877 0
M  V30 4309 H 417.504 4.22467 3.50447 0
M  V30 4310 H 417.765 2.49377 3.65053 0
M  V30 4311 N 416.824 -0.551391 1.4764 0
M  V30 4312 C 418.052 -1.33357 1.58189 0
M  V30 4313 C 418.467 -1.87342 0.234199 0
M  V30 4314 O 417.824 -1.65301 -0.77343 0
M  V30 4315 C 417.875 -2.49942 2.61173 0
M  V30 4316 O 417.596 -1.98187 3.90709 0
M  V30 4317 C 419.097 -3.42072 2.8196 0
M  V30 4318 H 416.317 -0.40631 0.533998 0
M  V30 4319 H 418.861 -0.667367 1.93304 0
M  V30 4320 H 417.016 -3.12489 2.28975 0
M  V30 4321 H 417.43 -2.74342 4.47031 0
M  V30 4322 H 418.904 -4.20278 3.57869 0
M  V30 4323 H 419.381 -3.95978 1.89995 0
M  V30 4324 H 419.987 -2.85336 3.15378 0
M  V30 4325 N 418.302 -1.35869 -0.798587 0
M  V30 4326 C 419.551 -1.28921 -1.5512 0
M  V30 4327 C 419.864 0.13208 -1.95154 0
M  V30 4328 O 421.07 0.323879 -2.69561 0
M  V30 4329 C 419.526 -2.26141 -2.79979 0
M  V30 4330 C 419.134 -3.73658 -2.47151 0
M  V30 4331 C 420.878 -2.28152 -3.57976 0
M  V30 4332 C 418.785 -4.62679 -3.6835 0
M  V30 4333 H 417.715 -0.479031 -0.582276 0
M  V30 4334 H 420.366 -1.61179 -0.877125 0
M  V30 4335 H 418.748 -1.86865 -3.49138 0
M  V30 4336 H 419.922 -4.21616 -1.85947 0
M  V30 4337 H 418.237 -3.74333 -1.82383 0
M  V30 4338 H 420.834 -2.91875 -4.4801 0
M  V30 4339 H 421.177 -1.28748 -3.95891 0
M  V30 4340 H 421.71 -2.65998 -2.95787 0
M  V30 4341 H 418.449 -5.63111 -3.35538 0
M  V30 4342 H 417.969 -4.19442 -4.28752 0
M  V30 4343 H 419.648 -4.78498 -4.35487 0
M  V30 4344 N 419.78 1.02168 -1.19998 0
M  V30 4345 C 421.008 1.79296 -1.03249 0
M  V30 4346 C 421.423 1.84103 0.418502 0
M  V30 4347 O 420.78 1.29031 1.29063 0
M  V30 4348 C 420.831 3.24007 -1.60319 0
M  V30 4349 O 420.552 3.19512 -2.99739 0
M  V30 4350 C 422.053 4.17704 -1.48453 0
M  V30 4351 H 419.273 0.564016 -0.363493 0
M  V30 4352 H 421.817 1.28639 -1.58973 0
M  V30 4353 H 419.972 3.7183 -1.08727 0
M  V30 4354 H 420.386 4.10306 -3.26725 0
M  V30 4355 H 421.86 5.17104 -1.93153 0
M  V30 4356 H 422.337 4.37029 -0.436193 0
M  V30 4357 H 422.943 3.7576 -1.99211 0
M  V30 4358 N 421.258 1.00505 1.21394 0
M  V30 4359 C 422.505 0.687774 1.90462 0
M  V30 4360 C 422.833 -0.78147 1.7811 0
M  V30 4361 O 422.088 -1.58208 1.1519 0
M  V30 4362 C 422.387 1.0546 3.41486 0
M  V30 4363 C 422.053 2.51812 3.74034 0
M  V30 4364 C 420.715 2.91804 3.82628 0
M  V30 4365 C 423.067 3.46614 3.8924 0
M  V30 4366 C 420.395 4.2556 4.03876 0
M  V30 4367 C 422.747 4.80044 4.11995 0
M  V30 4368 C 421.411 5.19759 4.18816 0
M  V30 4369 H 420.681 0.251674 0.696951 0
M  V30 4370 H 423.328 1.26349 1.43903 0
M  V30 4371 H 421.633 0.397133 3.89782 0
M  V30 4372 H 423.33 0.786976 3.93202 0
M  V30 4373 H 419.92 2.1982 3.67936 0
M  V30 4374 H 424.104 3.16883 3.81967 0
M  V30 4375 H 419.36 4.55901 4.07387 0
M  V30 4376 H 423.534 5.53439 4.22704 0
M  V30 4377 H 421.161 6.23418 4.35033 0
M  V30 4378 N 422.737 -1.36956 0.779787 0
M  V30 4379 C 423.983 -1.99787 0.348281 0
M  V30 4380 C 424.316 -1.61756 -1.07465 0
M  V30 4381 O 423.591 -0.867639 -1.74075 0
M  V30 4382 C 423.874 -3.56597 0.50104 0
M  V30 4383 C 423.727 -4.04513 1.96697 0
M  V30 4384 C 425.046 -4.40008 -0.0898097 0
M  V30 4385 H 422.165 -0.725796 0.128022 0
M  V30 4386 H 424.807 -1.62514 0.984331 0
M  V30 4387 H 422.957 -3.88479 -0.0404347 0
M  V30 4388 H 424.629 -3.83161 2.56876 0
M  V30 4389 H 422.872 -3.56408 2.47297 0
M  V30 4390 H 423.543 -5.1352 2.02486 0
M  V30 4391 H 426.019 -4.14431 0.372293 0
M  V30 4392 H 424.895 -5.4888 0.0471605 0
M  V30 4393 H 425.156 -4.26035 -1.18096 0
M  V30 4394 N 424.215 -0.530993 -1.48385 0
M  V30 4395 C 425.455 0.000718982 -2.044 0
M  V30 4396 C 425.819 1.31485 -1.39913 0
M  V30 4397 O 427.02 1.93265 -1.86821 0
M  V30 4398 C 425.291 0.119177 -3.57201 0
M  V30 4399 S 426.85 0.600806 -4.34667 0
M  V30 4400 H 423.668 -0.0125473 -0.710889 0
M  V30 4401 H 426.27 -0.711783 -1.82082 0
M  V30 4402 H 424.974 -0.842061 -4.01668 0
M  V30 4403 H 424.505 0.856026 -3.83974 0
M  V30 4404 H 426.52 1.86514 -4.59812 0
M  V30 4405 N 425.693 1.55336 -0.266172 0
M  V30 4406 C 427.104 1.85236 0.233315 0
M  V30 4407 C 427.455 1.18816 1.56132 0
M  V30 4408 O 426.58 0.473307 2.11161 0
M  V30 4409 C 427.175 3.36059 0.430113 0
M  V30 4410 C 425.734 3.66116 0.873842 0
M  V30 4411 C 424.881 2.77274 -0.0380016 0
M  V30 4412 H 427.832 1.51004 -0.488214 0
M  V30 4413 H 427.853 3.58681 1.26998 0
M  V30 4414 H 427.365 3.84373 -0.536588 0
M  V30 4415 H 425.466 3.23295 1.85233 0
M  V30 4416 H 425.579 4.73699 0.717358 0
M  V30 4417 H 423.943 2.50198 0.476759 0
M  V30 4418 H 424.726 3.284 -1.00042 0
M  V30 4419 N 427.171 -0.0066808 1.57599 0
M  V30 4420 C 428.396 -0.707738 1.94951 0
M  V30 4421 C 428.821 -1.66882 0.867868 0
M  V30 4422 O 428.179 -1.80457 -0.17458 0
M  V30 4423 C 428.227 -1.42162 3.31394 0
M  V30 4424 O 427.331 -2.53578 3.25226 0
M  V30 4425 H 426.672 -0.188752 0.636607 0
M  V30 4426 H 429.202 0.0445193 2.04552 0
M  V30 4427 H 429.212 -1.78655 3.66806 0
M  V30 4428 H 427.887 -0.716903 4.09675 0
M  V30 4429 H 426.464 -2.19463 3.01481 0
M  V30 4430 N 428.649 -1.55105 -0.279332 0
M  V30 4431 C 429.559 -1.90638 -1.36727 0
M  V30 4432 C 430.575 -0.802899 -1.54368 0
M  V30 4433 O 431.751 -1.10138 -1.68616 0
M  V30 4434 C 428.816 -2.16547 -2.70755 0
M  V30 4435 C 427.877 -3.40146 -2.61915 0
M  V30 4436 C 427.11 -3.6481 -3.8955 0
M  V30 4437 O 427.333 -2.92095 -4.89935 0
M  V30 4438 O 426.267 -4.58343 -3.90135 0
M  V30 4439 H 430.093 -2.83237 -1.09591 0
M  V30 4440 H 427.678 -1.4157 -0.477306 0
M  V30 4441 H 429.56 -2.34665 -3.50014 0
M  V30 4442 H 428.235 -1.27131 -2.9769 0
M  V30 4443 H 427.142 -3.2737 -1.81052 0
M  V30 4444 H 428.475 -4.29761 -2.3993 0
M  V30 4445 N 430.127 0.543554 -1.4793 0
M  V30 4446 C 431.543 0.870806 -1.3375 0
M  V30 4447 C 431.743 1.9864 -0.338261 0
M  V30 4448 O 430.799 2.51305 0.245371 0
M  V30 4449 C 432.112 1.25114 -2.73435 0
M  V30 4450 C 433.66 1.3618 -2.81823 0
M  V30 4451 C 434.135 1.77563 -4.22179 0
M  V30 4452 N 435.626 1.8469 -4.24787 0
M  V30 4453 C 436.361 2.18067 -5.30315 0
M  V30 4454 N 435.857 2.49963 -6.46135 0
M  V30 4455 N 437.65 2.18958 -5.17701 0
M  V30 4456 H 429.801 -0.19275 -2.11524 0
M  V30 4457 H 432.064 -0.0235777 -0.947707 0
M  V30 4458 H 431.77 0.50514 -3.48053 0
M  V30 4459 H 431.644 2.20431 -3.06088 0
M  V30 4460 H 434.031 2.09859 -2.07468 0
M  V30 4461 H 434.112 0.390169 -2.52807 0
M  V30 4462 H 433.756 1.04449 -4.97044 0
M  V30 4463 H 433.686 2.75753 -4.48629 0
M  V30 4464 H 436.177 1.62372 -3.41239 0
M  V30 4465 H 436.49 2.74497 -7.22406 0
M  V30 4466 H 434.835 2.47513 -6.49432 0
M  V30 4467 H 438.026 1.93488 -4.2624 0
M  V30 4468 H 438.199 2.44639 -6.00047 0
M  V30 4469 N 431.605 1.3629 0.791371 0
M  V30 4470 C 433.021 1.16661 1.08914 0
M  V30 4471 C 433.221 -0.0106266 2.01497 0
M  V30 4472 O 432.277 -0.676596 2.43266 0
M  V30 4473 C 433.59 2.47656 1.70549 0
M  V30 4474 C 435.138 2.54002 1.82899 0
M  V30 4475 C 435.613 3.85078 2.47949 0
M  V30 4476 N 437.104 3.86413 2.5542 0
M  V30 4477 C 437.839 4.84572 3.06557 0
M  V30 4478 N 437.335 5.93124 3.58016 0
M  V30 4479 N 439.128 4.71994 3.05251 0
M  V30 4480 H 431.279 2.11668 0.176238 0
M  V30 4481 H 433.542 0.937486 0.140796 0
M  V30 4482 H 433.248 3.34059 1.09989 0
M  V30 4483 H 433.122 2.63319 2.70079 0
M  V30 4484 H 435.509 1.68018 2.42598 0
M  V30 4485 H 435.59 2.42239 0.821808 0
M  V30 4486 H 435.234 4.71467 1.88895 0
M  V30 4487 H 435.164 3.94135 3.49235 0
M  V30 4488 H 437.655 3.07988 2.18979 0
M  V30 4489 H 437.968 6.63999 3.95381 0
M  V30 4490 H 436.313 5.96796 3.56173 0
M  V30 4491 H 439.504 3.86321 2.64336 0
M  V30 4492 H 439.677 5.48653 3.44796 0
M  V30 4493 N 433.083 -1.0153 1.20538 0
M  V30 4494 C 433.993 -2.13557 0.971113 0
M  V30 4495 C 435.009 -1.73845 -0.0734366 0
M  V30 4496 O 436.185 -2.01075 0.114299 0
M  V30 4497 C 433.25 -3.42661 0.527639 0
M  V30 4498 C 432.311 -3.96608 1.64319 0
M  V30 4499 C 431.544 -5.1955 1.22078 0
M  V30 4500 O 431.767 -5.70329 0.0900198 0
M  V30 4501 O 430.701 -5.66681 2.02871 0
M  V30 4502 H 434.527 -2.3619 1.90913 0
M  V30 4503 H 432.112 -1.11946 0.989362 0
M  V30 4504 H 433.994 -4.20404 0.289621 0
M  V30 4505 H 432.669 -3.21441 -0.381779 0
M  V30 4506 H 431.576 -3.20139 1.93551 0
M  V30 4507 H 432.909 -4.22219 2.52966 0
M  V30 4508 N 434.561 -1.01147 -1.20859 0
M  V30 4509 C 435.809 -0.696486 -1.89719 0
M  V30 4510 C 436.13 0.775788 -1.78904 0
M  V30 4511 O 435.4 1.55759 -1.18811 0
M  V30 4512 H 433.98 -0.254628 -0.702263 0
M  V30 4513 H 436.642 -1.28197 -1.46804 0
M  V30 4514 H 435.738 -0.975357 -2.96468 0
M  V30 4515 N 436.039 1.36541 -0.78704 0
M  V30 4516 C 437.267 2.03561 -0.370199 0
M  V30 4517 C 437.682 1.59347 1.01263 0
M  V30 4518 O 437.039 0.781781 1.64907 0
M  V30 4519 C 437.09 3.59033 -0.421614 0
M  V30 4520 O 436.811 4.01634 -1.7499 0
M  V30 4521 C 438.312 4.433 0.00489763 0
M  V30 4522 H 435.532 0.653346 -0.152904 0
M  V30 4523 H 438.076 1.74566 -1.06522 0
M  V30 4524 H 436.231 3.86746 0.224971 0
M  V30 4525 H 436.645 4.96217 -1.69909 0
M  V30 4526 H 438.119 5.51939 -0.0822184 0
M  V30 4527 H 438.596 4.26285 1.05723 0
M  V30 4528 H 439.202 4.20843 -0.614085 0
M  V30 4529 N 437.518 0.538854 1.48102 0
M  V30 4530 C 438.767 0.0059532 2.01699 0
M  V30 4531 C 439.08 -1.34476 1.42041 0
M  V30 4532 O 440.286 -1.96653 1.87189 0
M  V30 4533 C 438.742 -0.0397627 3.59878 0
M  V30 4534 C 438.35 1.30659 4.28523 0
M  V30 4535 C 440.094 -0.521024 4.2129 0
M  V30 4536 C 438.001 1.22098 5.78659 0
M  V30 4537 H 436.931 -0.00154456 0.753998 0
M  V30 4538 H 439.582 0.683963 1.70277 0
M  V30 4539 H 437.964 -0.783037 3.88181 0
M  V30 4540 H 439.138 2.06613 4.11883 0
M  V30 4541 H 437.453 1.7243 3.79021 0
M  V30 4542 H 440.05 -0.603184 5.31287 0
M  V30 4543 H 440.393 -1.52885 3.8721 0
M  V30 4544 H 440.926 0.166834 3.9745 0
M  V30 4545 H 437.665 2.20424 6.17328 0
M  V30 4546 H 437.185 0.50295 5.97688 0
M  V30 4547 H 438.864 0.915345 6.40492 0
M  V30 4548 N 438.996 -1.55193 0.274407 0
M  V30 4549 C 440.407 -1.85358 -0.223488 0
M  V30 4550 C 440.758 -1.19642 -1.555 0
M  V30 4551 O 439.883 -0.484498 -2.10907 0
M  V30 4552 C 440.478 -3.36282 -0.412285 0
M  V30 4553 C 439.037 -3.66574 -0.854413 0
M  V30 4554 C 438.184 -2.7725 0.0527056 0
M  V30 4555 H 441.135 -1.50743 0.496215 0
M  V30 4556 H 441.156 -3.59349 -1.25094 0
M  V30 4557 H 440.668 -3.84083 0.556965 0
M  V30 4558 H 438.769 -3.24273 -1.83516 0
M  V30 4559 H 438.882 -4.74073 -0.692226 0
M  V30 4560 H 437.246 -2.50447 -0.463484 0
M  V30 4561 H 438.029 -3.27865 1.01783 0
M  V30 4562 N 440.474 -0.00167713 -1.576 0
M  V30 4563 C 441.421 0.989195 -2.08527 0
M  V30 4564 C 442.391 1.34031 -0.981065 0
M  V30 4565 O 443.576 1.43839 -1.2536 0
M  V30 4566 C 440.716 2.27537 -2.59463 0
M  V30 4567 C 439.829 1.98314 -3.83791 0
M  V30 4568 C 438.964 3.21025 -4.23222 0
M  V30 4569 C 438.003 2.87495 -5.40382 0
M  V30 4570 N 437.14 4.02749 -5.75098 0
M  V30 4571 H 441.98 0.547973 -2.92919 0
M  V30 4572 H 439.517 0.258917 -1.44803 0
M  V30 4573 H 441.475 3.02729 -2.87073 0
M  V30 4574 H 440.105 2.69325 -1.77943 0
M  V30 4575 H 439.157 1.13482 -3.63078 0
M  V30 4576 H 440.469 1.69601 -4.69081 0
M  V30 4577 H 439.623 4.04561 -4.52123 0
M  V30 4578 H 438.362 3.52877 -3.36644 0
M  V30 4579 H 437.367 2.02367 -5.11202 0
M  V30 4580 H 438.592 2.56889 -6.28637 0
M  V30 4581 H 436.538 4.34494 -4.91478 0
M  V30 4582 H 436.455 3.77566 -6.54966 0
M  V30 4583 H 437.723 4.87068 -6.08592 0
M  V30 4584 N 441.952 1.55251 0.271103 0
M  V30 4585 C 442.882 1.9127 1.33933 0
M  V30 4586 C 443.863 0.77478 1.5143 0
M  V30 4587 O 445.048 1.03307 1.64442 0
M  V30 4588 C 442.178 2.18627 2.69851 0
M  V30 4589 C 441.132 3.34442 2.67081 0
M  V30 4590 C 440.458 3.47284 4.06569 0
M  V30 4591 C 441.758 4.70784 2.26185 0
M  V30 4592 H 443.452 2.80744 1.04035 0
M  V30 4593 H 440.998 1.35077 0.499017 0
M  V30 4594 H 442.951 2.42413 3.44694 0
M  V30 4595 H 441.675 1.25955 3.01335 0
M  V30 4596 H 440.334 3.10627 1.94695 0
M  V30 4597 H 439.982 2.52074 4.35279 0
M  V30 4598 H 439.682 4.25152 4.0561 0
M  V30 4599 H 441.206 3.73363 4.83148 0
M  V30 4600 H 442.62 4.94102 2.90751 0
M  V30 4601 H 441.017 5.51582 2.36384 0
M  V30 4602 H 442.087 4.69478 1.21319 0
M  V30 4603 N 443.43 -0.535701 1.48216 0
M  V30 4604 C 444.658 -1.31671 1.59594 0
M  V30 4605 C 445.073 -1.87083 0.254056 0
M  V30 4606 O 444.43 -1.66112 -0.755854 0
M  V30 4607 C 444.481 -2.47158 2.63809 0
M  V30 4608 O 444.202 -1.94032 3.92789 0
M  V30 4609 C 445.703 -3.39062 2.85573 0
M  V30 4610 H 442.923 -0.400623 0.538277 0
M  V30 4611 H 445.467 -0.646827 1.94001 0
M  V30 4612 H 443.622 -3.10043 2.32276 0
M  V30 4613 H 444.036 -2.69585 4.49916 0
M  V30 4614 H 445.51 -4.16459 3.62306 0
M  V30 4615 H 445.987 -3.93941 1.94184 0
M  V30 4616 H 446.593 -2.81975 3.18387 0
M  V30 4617 N 444.908 -1.36708 -0.784132 0
M  V30 4618 C 445.871 -1.31307 -1.87859 0
M  V30 4619 C 446.871 -0.219654 -1.59293 0
M  V30 4620 O 448.061 -0.47476 -1.67606 0
M  V30 4621 C 445.193 -1.03679 -3.24751 0
M  V30 4622 H 446.386 -2.28647 -1.94064 0
M  V30 4623 H 443.939 -1.21558 -0.98252 0
M  V30 4624 H 444.674 -0.0681936 -3.24228 0
M  V30 4625 H 444.459 -1.82811 -3.46876 0
M  V30 4626 H 445.949 -1.02518 -4.04821 0
M  V30 4627 N 446.386 1.0089 -1.21074 0
M  V30 4628 C 447.333 2.09588 -0.966512 0
M  V30 4629 C 448.303 1.65761 0.106089 0
M  V30 4630 O 449.488 1.90758 -0.0402287 0
M  V30 4631 C 446.628 3.40958 -0.533058 0
M  V30 4632 C 445.741 3.9822 -1.67467 0
M  V30 4633 C 444.876 5.17682 -1.19076 0
M  V30 4634 C 443.915 5.67043 -2.30496 0
M  V30 4635 N 443.052 6.77759 -1.83267 0
M  V30 4636 H 447.892 2.29815 -1.89708 0
M  V30 4637 H 445.429 1.12689 -0.945489 0
M  V30 4638 H 447.387 4.1637 -0.263019 0
M  V30 4639 H 446.017 3.20781 0.360505 0
M  V30 4640 H 445.069 3.1983 -2.05944 0
M  V30 4641 H 446.381 4.3085 -2.51336 0
M  V30 4642 H 445.535 6.00326 -0.877151 0
M  V30 4643 H 444.274 4.86635 -0.322066 0
M  V30 4644 H 443.279 4.82999 -2.62664 0
M  V30 4645 H 444.504 6.00121 -3.17855 0
M  V30 4646 H 442.45 6.48527 -0.987356 0
M  V30 4647 H 442.367 7.09624 -2.60711 0
M  V30 4648 H 443.635 7.63949 -1.54928 0
M  V30 4649 N 447.864 1.01787 1.20321 0
M  V30 4650 C 449.089 0.727009 1.9424 0
M  V30 4651 C 449.514 -0.706179 1.74341 0
M  V30 4652 O 448.872 -1.48609 1.03852 0
M  V30 4653 C 448.92 1.06958 3.44372 0
M  V30 4654 O 448.024 0.181983 4.11998 0
M  V30 4655 H 447.365 0.269626 0.606793 0
M  V30 4656 H 449.895 1.36158 1.52716 0
M  V30 4657 H 449.905 1.02182 3.94997 0
M  V30 4658 H 448.58 2.11378 3.58179 0
M  V30 4659 H 447.157 0.287378 3.71791 0
M  V30 4660 N 449.342 -1.36122 0.79427 0
M  V30 4661 C 450.29 -2.31871 0.184023 0
M  V30 4662 C 451.284 -1.56041 -0.659365 0
M  V30 4663 O 452.49 -1.71266 -0.553906 0
M  V30 4664 H 448.865 -0.750896 0.0407373 0
M  V30 4665 H 450.836 -2.80898 1.00693 0
M  V30 4666 C 449.585 -3.41324 -0.662813 0
M  V30 4667 H 448.908 -3.99793 -0.0231944 0
M  V30 4668 H 450.348 -4.10629 -1.05639 0
M  V30 4669 C 448.807 -2.83308 -1.82313 0
M  V30 4670 O 449.337 -2.75863 -2.91997 0
M  V30 4671 N 447.543 -2.40529 -1.63077 0
M  V30 4672 H 447.09 -2.46785 -0.738591 0
M  V30 4673 H 447.048 -2.02059 -2.40872 0
M  V30 4674 N 450.82 -0.546701 -1.47814 0
M  V30 4675 C 452.06 -0.0209604 -2.04389 0
M  V30 4676 C 452.424 1.29993 -1.413 0
M  V30 4677 O 453.625 1.91273 -1.8886 0
M  V30 4678 C 451.896 0.0812844 -3.57308 0
M  V30 4679 S 453.455 0.55467 -4.3528 0
M  V30 4680 H 450.273 -0.0200865 -0.710716 0
M  V30 4681 H 452.875 -0.731055 -1.81317 0
M  V30 4682 H 451.579 -0.884616 -4.00753 0
M  V30 4683 H 451.11 0.815253 -3.8486 0
M  V30 4684 H 453.125 1.81627 -4.61764 0
M  V30 4685 N 452.299 1.55045 -0.282633 0
M  V30 4686 C 453.715 1.59441 0.0712997 0
M  V30 4687 C 453.915 1.2998 1.53972 0
M  V30 4688 O 452.971 1.06431 2.28973 0
M  V30 4689 C 454.284 2.99097 -0.310104 0
M  V30 4690 C 455.832 3.1194 -0.257343 0
M  V30 4691 C 456.307 4.53875 -0.613297 0
M  V30 4692 N 457.798 4.5974 -0.565134 0
M  V30 4693 C 458.533 5.67603 -0.81326 0
M  V30 4694 N 458.029 6.83582 -1.1264 0
M  V30 4695 N 459.822 5.57187 -0.741553 0
M  V30 4696 H 451.973 1.72458 -1.23984 0
M  V30 4697 H 454.236 0.804549 -0.501403 0
M  V30 4698 H 453.942 3.25516 -1.33163 0
M  V30 4699 H 453.816 3.75616 0.345366 0
M  V30 4700 H 456.203 2.85281 0.754905 0
M  V30 4701 H 456.284 2.37618 -0.947178 0
M  V30 4702 H 455.928 4.81261 -1.62327 0
M  V30 4703 H 455.858 5.26508 0.09841 0
M  V30 4704 H 458.349 3.76427 -0.333294 0
M  V30 4705 H 458.662 7.6175 -1.30219 0
M  V30 4706 H 457.007 6.85179 -1.16425 0
M  V30 4707 H 460.198 4.65457 -0.496705 0
M  V30 4708 H 460.371 6.41171 -0.938306 0
M  V30 4709 N 453.777 0.010035 1.57597 0
M  V30 4710 C 455.007 -0.682422 1.95004 0
M  V30 4711 C 455.415 -1.67278 0.884014 0
M  V30 4712 O 454.758 -1.83129 -0.144672 0
M  V30 4713 C 454.82 -1.46141 3.28456 0
M  V30 4714 C 454.484 -0.631523 4.52615 0
M  V30 4715 C 455.481 0.0850905 5.1983 0
M  V30 4716 C 453.166 -0.574539 4.99003 0
M  V30 4717 C 455.16 0.847566 6.3174 0
M  V30 4718 C 452.847 0.191655 6.10799 0
M  V30 4719 C 453.845 0.901432 6.77025 0
M  V30 4720 O 453.533 1.65511 7.86677 0
M  V30 4721 H 453.265 -0.194361 0.647456 0
M  V30 4722 H 455.819 0.060312 2.05311 0
M  V30 4723 H 454.049 -2.24885 3.14585 0
M  V30 4724 H 455.738 -2.04016 3.50902 0
M  V30 4725 H 456.504 0.0502812 4.84974 0
M  V30 4726 H 452.383 -1.11654 4.47274 0
M  V30 4727 H 455.927 1.4021 6.83364 0
M  V30 4728 H 451.824 0.228249 6.45096 0
M  V30 4729 H 452.592 1.57287 8.03245 0
M  V30 4730 N 455.255 -1.55392 -0.262866 0
M  V30 4731 C 456.165 -1.92077 -1.34698 0
M  V30 4732 C 457.181 -0.819227 -1.53508 0
M  V30 4733 O 458.357 -1.11921 -1.67439 0
M  V30 4734 C 455.422 -2.19407 -2.68443 0
M  V30 4735 C 454.483 -3.42905 -2.58292 0
M  V30 4736 C 453.716 -3.68921 -3.85659 0
M  V30 4737 O 453.939 -2.97275 -4.8681 0
M  V30 4738 O 452.873 -4.62455 -3.85252 0
M  V30 4739 H 456.699 -2.84384 -1.06581 0
M  V30 4740 H 454.284 -1.42069 -0.462264 0
M  V30 4741 H 456.166 -2.38365 -3.47506 0
M  V30 4742 H 454.841 -1.30282 -2.96325 0
M  V30 4743 H 453.748 -3.29272 -1.7757 0
M  V30 4744 H 455.081 -4.32282 -2.35358 0
M  V30 4745 N 456.733 0.527833 -1.48498 0
M  V30 4746 C 457.982 1.28003 -1.55878 0
M  V30 4747 C 458.295 1.9414 -0.238577 0
M  V30 4748 O 459.501 2.7083 -0.190643 0
M  V30 4749 C 457.957 2.32272 -2.74914 0
M  V30 4750 C 457.565 1.72196 -4.13585 0
M  V30 4751 C 459.309 3.08488 -2.91608 0
M  V30 4752 C 457.216 2.74417 -5.23879 0
M  V30 4753 H 456.146 0.481413 -0.580308 0
M  V30 4754 H 458.797 0.557195 -1.74836 0
M  V30 4755 H 457.179 3.07601 -2.49395 0
M  V30 4756 H 458.353 1.03041 -4.49132 0
M  V30 4757 H 456.668 1.08464 -4.02025 0
M  V30 4758 H 459.265 3.84879 -3.71177 0
M  V30 4759 H 459.608 3.64481 -2.01145 0
M  V30 4760 H 460.141 2.40274 -3.17038 0
M  V30 4761 H 456.88 2.23242 -6.16314 0
M  V30 4762 H 456.4 3.41893 -4.92818 0
M  V30 4763 H 458.079 3.37362 -5.52083 0
M  V30 4764 N 458.211 1.37122 0.776871 0
M  V30 4765 C 459.121 1.34651 1.9211 0
M  V30 4766 C 460.137 0.246824 1.7224 0
M  V30 4767 O 461.313 0.48134 1.95563 0
M  V30 4768 C 458.378 1.14748 3.2716 0
M  V30 4769 C 457.439 2.34308 3.5972 0
M  V30 4770 C 456.672 2.15345 4.88326 0
M  V30 4771 O 456.895 1.13507 5.58992 0
M  V30 4772 O 455.829 3.03414 5.1983 0
M  V30 4773 H 459.655 2.31013 1.97146 0
M  V30 4774 H 457.24 1.17799 0.918901 0
M  V30 4775 H 459.122 1.05616 4.0795 0
M  V30 4776 H 457.797 0.214562 3.22988 0
M  V30 4777 H 456.704 2.49011 2.79185 0
M  V30 4778 H 458.037 3.26149 3.68629 0
M  V30 4779 N 459.689 -1.00246 1.21608 0
M  V30 4780 C 460.935 -1.74417 1.04643 0
M  V30 4781 C 461.29 -1.87862 -0.415387 0
M  V30 4782 O 460.583 -1.40373 -1.30407 0
M  V30 4783 C 460.777 -3.15448 1.68009 0
M  V30 4784 C 460.606 -3.15755 3.20201 0
M  V30 4785 C 459.376 -3.2219 3.89258 0
M  V30 4786 C 461.574 -3.00668 4.17257 0
M  V30 4787 N 459.556 -3.1215 5.28617 0
M  V30 4788 C 460.927 -2.98553 5.43384 0
M  V30 4789 C 462.982 -2.84989 4.08272 0
M  V30 4790 C 461.685 -2.82364 6.61561 0
M  V30 4791 C 463.711 -2.70158 5.26088 0
M  V30 4792 C 463.073 -2.68721 6.51128 0
M  V30 4793 H 459.172 -0.648317 0.437274 0
M  V30 4794 H 461.756 -1.19129 1.54001 0
M  V30 4795 H 459.927 -3.69001 1.21215 0
M  V30 4796 H 461.659 -3.78128 1.44226 0
M  V30 4797 H 458.414 -3.29488 3.40198 0
M  V30 4798 H 458.838 -3.10465 6.01615 0
M  V30 4799 H 463.48 -2.84904 3.12393 0
M  V30 4800 H 461.198 -2.81196 7.57598 0
M  V30 4801 H 464.784 -2.59022 5.20959 0
M  V30 4802 H 463.664 -2.57382 7.40759 0
M  V30 4803 N 461.167 -1.02423 -1.1978 0
M  V30 4804 C 462.416 -0.713265 -1.88667 0
M  V30 4805 C 462.729 0.7609 -1.80193 0
M  V30 4806 O 463.935 1.18473 -2.44288 0
M  V30 4807 C 462.391 -1.22545 -3.38394 0
M  V30 4808 C 461.999 -2.72706 -3.55437 0
M  V30 4809 C 463.743 -0.990257 -4.12788 0
M  V30 4810 C 461.65 -3.17367 -4.99031 0
M  V30 4811 H 460.58 -0.263105 -0.706606 0
M  V30 4812 H 463.231 -1.23792 -1.35454 0
M  V30 4813 H 461.613 -0.628732 -3.90977 0
M  V30 4814 H 462.787 -3.37993 -3.13205 0
M  V30 4815 H 461.102 -2.94453 -2.94425 0
M  V30 4816 H 463.699 -1.29926 -5.18675 0
M  V30 4817 H 464.042 0.0730761 -4.16236 0
M  V30 4818 H 464.575 -1.55074 -3.66329 0
M  V30 4819 H 461.314 -4.23009 -5.00743 0
M  V30 4820 H 460.834 -2.56805 -5.42044 0
M  V30 4821 H 462.513 -3.10441 -5.67658 0
M  V30 4822 N 462.645 1.35699 -0.801477 0
M  V30 4823 C 463.873 2.03157 -0.391768 0
M  V30 4824 C 464.288 1.60412 0.995668 0
M  V30 4825 O 463.645 0.799228 1.64069 0
M  V30 4826 C 463.696 3.58566 -0.459671 0
M  V30 4827 O 463.417 3.99756 -1.7924 0
M  V30 4828 C 464.918 4.4328 -0.0421205 0
M  V30 4829 H 462.138 0.651688 -0.159825 0
M  V30 4830 H 464.682 1.73426 -1.08368 0
M  V30 4831 H 462.837 3.86963 0.183939 0
M  V30 4832 H 463.251 4.94387 -1.75162 0
M  V30 4833 H 464.725 5.51821 -0.140754 0
M  V30 4834 H 465.202 4.27383 1.01196 0
M  V30 4835 H 465.808 4.20168 -0.658687 0
M  V30 4836 N 464.123 0.554532 1.47522 0
M  V30 4837 C 465.033 -0.197865 2.33764 0
M  V30 4838 C 466.049 -0.914576 1.48025 0
M  V30 4839 O 467.225 -0.884067 1.80959 0
M  V30 4840 C 464.29 -1.21628 3.24665 0
M  V30 4841 C 463.351 -0.507283 4.26292 0
M  V30 4842 C 462.584 -1.47718 5.1285 0
M  V30 4843 O 462.807 -2.7118 5.01814 0
M  V30 4844 O 461.741 -1.00313 5.93482 0
M  V30 4845 H 465.567 0.50949 2.99396 0
M  V30 4846 H 463.152 0.315176 1.46038 0
M  V30 4847 H 465.034 -1.80421 3.80823 0
M  V30 4848 H 463.709 -1.9056 2.61665 0
M  V30 4849 H 462.616 0.121778 3.73902 0
M  V30 4850 H 463.949 0.140544 4.91999 0
M  V30 4851 N 465.601 -1.54893 0.290851 0
M  V30 4852 C 466.831 -2.04047 -0.323818 0
M  V30 4853 C 467.239 -1.16809 -1.48837 0
M  V30 4854 O 466.582 -0.184145 -1.82775 0
M  V30 4855 C 466.644 -3.49248 -0.852395 0
M  V30 4856 C 466.308 -4.56623 0.185557 0
M  V30 4857 C 467.305 -5.09985 1.01053 0
M  V30 4858 C 464.99 -5.01252 0.324332 0
M  V30 4859 C 466.984 -6.06507 1.96031 0
M  V30 4860 C 464.671 -5.97596 1.27757 0
M  V30 4861 C 465.669 -6.50107 2.09405 0
M  V30 4862 O 465.357 -7.44565 3.03114 0
M  V30 4863 H 465.089 -0.671735 -0.0758129 0
M  V30 4864 H 467.643 -2.00947 0.425393 0
M  V30 4865 H 465.873 -3.49639 -1.65195 0
M  V30 4866 H 467.562 -3.81654 -1.38185 0
M  V30 4867 H 468.328 -4.76307 0.914129 0
M  V30 4868 H 464.207 -4.60015 -0.301213 0
M  V30 4869 H 467.751 -6.47418 2.598 0
M  V30 4870 H 463.648 -6.30691 1.37473 0
M  V30 4871 H 464.416 -7.62334 2.97976 0
M  V30 4872 N 467.08 -0.0183926 -1.57589 0
M  V30 4873 C 468.043 0.951986 -2.08494 0
M  V30 4874 C 469.043 1.26092 -0.997874 0
M  V30 4875 O 470.233 1.20304 -1.25987 0
M  V30 4876 C 467.365 2.27165 -2.54182 0
M  V30 4877 H 468.558 0.511307 -2.95509 0
M  V30 4878 H 466.111 0.229444 -1.54607 0
M  V30 4879 H 466.846 2.75884 -1.70465 0
M  V30 4880 H 466.631 2.06057 -3.33591 0
M  V30 4881 H 468.121 2.9674 -2.93828 0
M  V30 4882 N 468.558 1.5553 0.254621 0
M  V30 4883 C 469.798 1.7876 0.991179 0
M  V30 4884 C 470.162 0.586669 1.82817 0
M  V30 4885 O 471.363 0.697585 2.5959 0
M  V30 4886 C 469.634 3.06679 1.83529 0
M  V30 4887 S 471.193 3.511 2.632 0
M  V30 4888 H 468.011 0.627916 0.333531 0
M  V30 4889 H 470.613 1.93766 0.259778 0
M  V30 4890 H 469.317 3.92158 1.20996 0
M  V30 4891 H 468.848 2.94388 2.60958 0
M  V30 4892 H 470.863 3.11823 3.8598 0
M  V30 4893 N 470.036 -0.519951 1.48776 0
M  V30 4894 C 470.986 -1.61995 1.60442 0
M  V30 4895 C 471.97 -1.54155 0.460991 0
M  V30 4896 O 473.162 -1.62006 0.712965 0
M  V30 4897 C 470.291 -3.00683 1.65664 0
M  V30 4898 C 469.377 -3.1359 2.8552 0
M  V30 4899 N 469.768 -2.96441 4.09825 0
M  V30 4900 C 468.066 -3.44662 2.83062 0
M  V30 4901 C 468.767 -3.1303 4.90293 0
M  V30 4902 N 467.743 -3.41058 4.23297 0
M  V30 4903 H 471.545 -1.47362 2.54287 0
M  V30 4904 H 469.059 -0.725649 1.45286 0
M  V30 4905 H 471.056 -3.79712 1.72117 0
M  V30 4906 H 469.716 -3.16401 0.729425 0
M  V30 4907 H 470.727 -2.72999 4.40104 0
M  V30 4908 H 467.404 -3.66675 1.9964 0
M  V30 4909 H 468.794 -3.04424 5.98979 0
M  V30 4910 N 471.514 -1.37532 -0.769588 0
M  V30 4911 C 472.93 -1.18379 -1.07045 0
M  V30 4912 C 473.13 -0.0214312 -2.01489 0
M  V30 4913 O 472.186 0.637809 -2.44312 0
M  V30 4914 C 473.499 -2.50338 -1.66588 0
M  V30 4915 C 475.047 -2.56879 -1.78835 0
M  V30 4916 C 475.522 -3.88974 -2.41792 0
M  V30 4917 N 477.013 -3.90428 -2.4924 0
M  V30 4918 C 477.748 -4.89388 -2.98809 0
M  V30 4919 N 477.244 -5.98745 -3.48535 0
M  V30 4920 N 479.037 -4.76791 -2.97703 0
M  V30 4921 H 471.188 -2.11921 -0.142541 0
M  V30 4922 H 473.451 -0.939608 -0.125863 0
M  V30 4923 H 473.157 -3.35767 -1.0466 0
M  V30 4924 H 473.031 -2.67583 -2.65856 0
M  V30 4925 H 475.418 -1.71856 -2.39895 0
M  V30 4926 H 475.499 -2.43516 -0.783166 0
M  V30 4927 H 475.143 -4.74412 -1.81371 0
M  V30 4928 H 475.073 -3.99641 -3.4292 0
M  V30 4929 H 477.564 -3.11433 -2.14052 0
M  V30 4930 H 477.877 -6.70205 -3.84767 0
M  V30 4931 H 476.222 -6.02387 -3.46634 0
M  V30 4932 H 479.413 -3.90478 -2.58157 0
M  V30 4933 H 479.586 -5.54069 -3.36024 0
M  V30 4934 N 472.992 0.995999 -1.22138 0
M  V30 4935 C 474.269 1.70834 -0.952642 0
M  V30 4936 C 474.649 2.04257 0.533119 0
M  V30 4937 O 473.997 1.72343 1.50034 0
M  V30 4938 C 474.207 2.96119 -1.84701 0
M  V30 4939 C 475.555 3.68962 -2.10124 0
M  V30 4940 O 476.579 3.0612 -1.82124 0
M  V30 4941 O 475.438 4.82017 -2.57531 0
M  V30 4942 H 472.532 0.745498 -0.357997 0
M  V30 4943 H 475.078 1.05262 -1.33109 0
M  V30 4944 H 473.85 2.67898 -2.85213 0
M  V30 4945 H 473.473 3.6943 -1.46995 0
M  V30 4946 N 474.47 1.03057 1.19235 0
M  V30 4947 C 475.7 0.746613 1.92638 0
M  V30 4948 C 476.108 -0.698708 1.75826 0
M  V30 4949 O 475.451 -1.487 1.07861 0
M  V30 4950 C 475.513 1.02024 3.44719 0
M  V30 4951 C 475.177 2.45745 3.85303 0
M  V30 4952 C 476.174 3.43887 3.8992 0
M  V30 4953 C 473.859 2.8019 4.16892 0
M  V30 4954 C 475.853 4.74529 4.2556 0
M  V30 4955 C 473.54 4.1104 4.52205 0
M  V30 4956 C 474.538 5.0802 4.56513 0
M  V30 4957 O 474.226 6.36527 4.91008 0
M  V30 4958 H 473.958 0.272401 0.618687 0
M  V30 4959 H 476.512 1.37853 1.52269 0
M  V30 4960 H 474.742 0.331184 3.85279 0
M  V30 4961 H 476.431 0.725677 3.9936 0
M  V30 4962 H 477.197 3.18614 3.65664 0
M  V30 4963 H 473.076 2.05382 4.12722 0
M  V30 4964 H 476.62 5.50222 4.28838 0
M  V30 4965 H 472.517 4.36086 4.7592 0
M  V30 4966 H 473.285 6.41025 5.08949 0
M  V30 4967 N 475.948 -1.35272 0.808662 0
M  V30 4968 C 476.878 -2.32315 0.234981 0
M  V30 4969 C 477.859 -1.57572 -0.64071 0
M  V30 4970 O 479.044 -1.8563 -0.570551 0
M  V30 4971 C 476.174 -3.41801 -0.615601 0
M  V30 4972 C 475.128 -4.27694 0.161767 0
M  V30 4973 C 474.454 -5.28519 -0.810649 0
M  V30 4974 C 475.754 -5.04231 1.36193 0
M  V30 4975 H 477.448 -2.80543 1.04575 0
M  V30 4976 H 474.994 -1.3488 0.504315 0
M  V30 4977 H 476.947 -4.08693 -1.02702 0
M  V30 4978 H 475.671 -2.92186 -1.45928 0
M  V30 4979 H 474.33 -3.62384 0.554382 0
M  V30 4980 H 473.978 -4.75171 -1.64988 0
M  V30 4981 H 473.678 -5.8686 -0.294822 0
M  V30 4982 H 475.202 -5.98283 -1.22023 0
M  V30 4983 H 476.616 -5.64058 1.02528 0
M  V30 4984 H 475.013 -5.72077 1.81239 0
M  V30 4985 H 476.083 -4.34753 2.14751 0
M  V30 4986 N 477.426 -0.562348 -1.47226 0
M  V30 4987 C 478.336 0.185466 -2.33866 0
M  V30 4988 C 479.352 0.906713 -1.48508 0
M  V30 4989 O 480.528 0.874458 -1.81425 0
M  V30 4990 C 477.593 1.19904 -3.25306 0
M  V30 4991 C 476.654 0.484669 -4.26555 0
M  V30 4992 C 475.887 1.44996 -5.13626 0
M  V30 4993 O 476.11 2.68515 -5.03245 0
M  V30 4994 O 475.044 0.971642 -5.94006 0
M  V30 4995 H 478.87 -0.525361 -2.99121 0
M  V30 4996 H 476.455 -0.322916 -1.45868 0
M  V30 4997 H 478.337 1.78399 -3.81774 0
M  V30 4998 H 477.012 1.8917 -2.62672 0
M  V30 4999 H 475.919 -0.141605 -3.73832 0
M  V30 5000 H 477.252 -0.166634 -4.91918 0
M  V30 5001 N 478.904 1.54736 -0.299062 0
M  V30 5002 C 480.129 2.04975 0.316254 0
M  V30 5003 C 480.554 1.17501 1.46885 0
M  V30 5004 O 479.912 0.178678 1.80417 0
M  V30 5005 C 479.96 3.52672 0.751997 0
M  V30 5006 O 479.064 3.68226 1.85697 0
M  V30 5007 H 478.405 0.661126 0.0617175 0
M  V30 5008 H 480.935 1.99805 -0.440341 0
M  V30 5009 H 480.945 3.94488 1.04133 0
M  V30 5010 H 479.62 4.158 -0.0911482 0
M  V30 5011 H 478.197 3.38316 1.56834 0
M  V30 5012 N 480.382 0.0267497 1.57577 0
M  V30 5013 C 481.329 -0.955894 2.10075 0
M  V30 5014 C 482.299 -1.32453 1.00226 0
M  V30 5015 O 483.484 -1.41826 1.27632 0
M  V30 5016 C 480.624 -2.2338 2.6305 0
M  V30 5017 C 479.737 -1.92183 3.86898 0
M  V30 5018 C 478.872 -3.14251 4.28275 0
M  V30 5019 C 477.911 -2.78862 5.44888 0
M  V30 5020 N 477.048 -3.93548 5.81433 0
M  V30 5021 H 481.888 -0.501303 2.93753 0
M  V30 5022 H 479.425 -0.235847 1.45197 0
M  V30 5023 H 481.383 -2.98124 2.91853 0
M  V30 5024 H 480.013 -2.6646 1.82205 0
M  V30 5025 H 479.065 -1.07692 3.64838 0
M  V30 5026 H 480.377 -1.62117 4.7172 0
M  V30 5027 H 479.531 -3.97317 4.58502 0
M  V30 5028 H 478.27 -3.47476 3.42215 0
M  V30 5029 H 477.275 -1.94208 5.14357 0
M  V30 5030 H 478.5 -2.46855 6.32645 0
M  V30 5031 H 476.446 -4.2662 4.98328 0
M  V30 5032 H 476.363 -3.67098 6.6089 0
M  V30 5033 H 477.631 -4.77325 6.16264 0
M  V30 5034 N 481.861 -1.55662 -0.24637 0
M  V30 5035 C 483.089 -1.81575 -0.991876 0
M  V30 5036 C 483.504 -0.602545 -1.78927 0
M  V30 5037 O 482.861 0.428795 -1.77391 0
M  V30 5038 C 482.912 -3.05711 -1.92933 0
M  V30 5039 O 482.633 -4.22348 -1.1642 0
M  V30 5040 C 484.134 -3.44428 -2.79078 0
M  V30 5041 H 481.354 -0.604209 -0.291844 0
M  V30 5042 H 483.898 -2.02722 -0.269095 0
M  V30 5043 H 482.053 -2.86612 -2.60638 0
M  V30 5044 H 482.467 -4.92706 -1.79835 0
M  V30 5045 H 483.941 -4.34388 -3.40603 0
M  V30 5046 H 484.418 -2.65037 -3.50217 0
M  V30 5047 H 485.024 -3.65879 -2.16824 0
M  V30 5048 N 483.339 0.512053 -1.4905 0
M  V30 5049 C 484.579 1.27715 -1.59588 0
M  V30 5050 C 484.943 1.90071 -0.271502 0
M  V30 5051 O 486.144 2.67616 -0.251987 0
M  V30 5052 C 484.415 2.32399 -2.71524 0
M  V30 5053 S 485.974 3.18396 -3.01943 0
M  V30 5054 H 482.792 0.43419 -0.563027 0
M  V30 5055 H 485.394 0.581315 -1.86657 0
M  V30 5056 H 484.098 1.85101 -3.66287 0
M  V30 5057 H 483.629 3.06667 -2.46412 0
M  V30 5058 H 485.644 4.32842 -2.42616 0
M  V30 5059 N 484.817 1.37938 0.762283 0
M  V30 5060 C 486.042 1.37059 1.55659 0
M  V30 5061 C 486.467 -0.0396123 1.88058 0
M  V30 5062 O 485.825 -1.01929 1.49934 0
M  V30 5063 C 485.873 2.22494 2.83776 0
M  V30 5064 O 484.977 1.63607 3.78559 0
M  V30 5065 H 484.318 0.467892 0.47114 0
M  V30 5066 H 486.848 1.81587 0.942725 0
M  V30 5067 H 486.858 2.36045 3.32786 0
M  V30 5068 H 485.533 3.24993 2.59524 0
M  V30 5069 H 484.11 1.5915 3.37233 0
M  V30 5070 N 486.295 -0.989507 1.22664 0
M  V30 5071 C 487.225 -2.09847 1.02404 0
M  V30 5072 C 488.206 -1.70007 -0.0561303 0
M  V30 5073 O 489.391 -1.93906 0.106748 0
M  V30 5074 C 486.521 -3.41996 0.604663 0
M  V30 5075 C 485.475 -3.95699 1.63115 0
M  V30 5076 C 484.801 -5.23936 1.0675 0
M  V30 5077 C 486.101 -4.25999 3.02196 0
M  V30 5078 H 487.795 -2.27054 1.95158 0
M  V30 5079 H 485.341 -1.09111 0.939727 0
M  V30 5080 H 487.294 -4.1899 0.45002 0
M  V30 5081 H 486.018 -3.24626 -0.35855 0
M  V30 5082 H 484.677 -3.2084 1.77362 0
M  V30 5083 H 484.325 -5.02909 0.0955422 0
M  V30 5084 H 484.025 -5.60833 1.75328 0
M  V30 5085 H 485.549 -6.0356 0.924516 0
M  V30 5086 H 486.963 -4.93777 2.91303 0
M  V30 5087 H 485.36 -4.74076 3.67929 0
M  V30 5088 H 486.43 -3.33636 3.51873 0
M  V30 5089 N 487.773 -1.03688 -1.18687 0
M  V30 5090 C 488.998 -0.757819 -1.93059 0
M  V30 5091 C 489.423 0.678353 -1.75442 0
M  V30 5092 O 488.781 1.46938 -1.06203 0
M  V30 5093 C 488.829 -1.12423 -3.42627 0
M  V30 5094 O 487.933 -0.247505 -4.11657 0
M  V30 5095 H 487.274 -0.279245 -0.602427 0
M  V30 5096 H 489.804 -1.3857 -1.5053 0
M  V30 5097 H 489.814 -1.08454 -3.93322 0
M  V30 5098 H 488.489 -2.17049 -3.54771 0
M  V30 5099 H 487.066 -0.34649 -3.71287 0
M  V30 5100 N 489.251 1.34841 -0.815825 0
M  V30 5101 C 490.499 1.98107 -0.399744 0
M  V30 5102 C 490.82 1.65019 1.03894 0
M  V30 5103 O 490.09 0.937311 1.72021 0
M  V30 5104 H 488.67 0.732827 -0.144823 0
M  V30 5105 H 491.332 1.64599 -1.0437 0
M  V30 5106 H 490.428 3.07856 -0.512965 0
M  V30 5107 N 490.729 0.570148 1.46925 0
M  V30 5108 C 491.639 -0.173061 2.33961 0
M  V30 5109 C 492.655 -0.898825 1.48987 0
M  V30 5110 O 493.831 -0.864825 1.81887 0
M  V30 5111 C 490.896 -1.18177 3.25937 0
M  V30 5112 C 489.957 -0.462041 4.26806 0
M  V30 5113 C 489.19 -1.4227 5.14388 0
M  V30 5114 O 489.413 -2.65842 5.04662 0
M  V30 5115 O 488.347 -0.940127 5.94513 0
M  V30 5116 H 492.173 0.541216 2.98839 0
M  V30 5117 H 489.758 0.330647 1.45695 0
M  V30 5118 H 491.64 -1.76372 3.82715 0
M  V30 5119 H 490.315 -1.87774 2.63671 0
M  V30 5120 H 489.222 0.161429 3.73752 0
M  V30 5121 H 490.555 0.192719 4.91823 0
M  V30 5122 N 492.207 -1.54576 0.307264 0
M  V30 5123 C 493.139 -2.21212 -0.599807 0
M  V30 5124 C 494.152 -1.20685 -1.09266 0
M  V30 5125 O 495.341 -1.47244 -1.00903 0
M  V30 5126 C 492.441 -2.84994 -1.83389 0
M  V30 5127 C 491.614 -4.11511 -1.48248 0
M  V30 5128 C 490.673 -4.59038 -2.57237 0
M  V30 5129 O 489.699 -5.24095 -2.22065 0
M  V30 5130 N 490.901 -4.31884 -3.87887 0
M  V30 5131 H 493.666 -2.99686 -0.0293075 0
M  V30 5132 H 491.227 -1.61379 0.129738 0
M  V30 5133 H 493.219 -3.1372 -2.5566 0
M  V30 5134 H 491.789 -2.10324 -2.31263 0
M  V30 5135 H 491.009 -3.89728 -0.592122 0
M  V30 5136 H 492.297 -4.93879 -1.22316 0
M  V30 5137 H 491.695 -3.79778 -4.19268 0
M  V30 5138 H 490.252 -4.65304 -4.56438 0
M  V30 5139 N 493.685 -0.035106 -1.57561 0
M  V30 5140 C 494.617 0.973604 -2.07494 0
M  V30 5141 C 495.63 1.28504 -0.999534 0
M  V30 5142 O 496.819 1.24864 -1.27559 0
M  V30 5143 C 493.919 2.29945 -2.48955 0
M  V30 5144 C 493.092 2.1723 -3.79644 0
M  V30 5145 C 492.151 3.328 -4.07592 0
M  V30 5146 O 491.177 3.09418 -4.77754 0
M  V30 5147 N 492.379 4.56779 -3.58236 0
M  V30 5148 H 495.144 0.547525 -2.94656 0
M  V30 5149 H 492.705 0.151515 -1.61189 0
M  V30 5150 H 494.697 3.06097 -2.64739 0
M  V30 5151 H 493.267 2.64173 -1.67126 0
M  V30 5152 H 492.487 1.25768 -3.73599 0
M  V30 5153 H 493.775 2.05945 -4.65257 0
M  V30 5154 H 493.173 4.78668 -3.01485 0
M  V30 5155 H 491.73 5.30079 -3.79288 0
M  V30 5156 N 495.163 1.55791 0.238111 0
M  V30 5157 C 496.44 1.68798 0.98826 0
M  V30 5158 C 496.82 0.577562 2.03045 0
M  V30 5159 O 496.168 -0.41778 2.24648 0
M  V30 5160 C 496.378 3.09454 1.61367 0
M  V30 5161 C 497.726 3.68335 2.11221 0
M  V30 5162 O 498.75 3.1231 1.71292 0
M  V30 5163 O 497.609 4.6657 2.84561 0
M  V30 5164 H 494.703 0.686881 0.460568 0
M  V30 5165 H 497.249 1.68118 0.231202 0
M  V30 5166 H 496.021 3.81726 0.860295 0
M  V30 5167 H 495.644 3.14182 2.4367 0
M  V30 5168 N 496.642 -0.504142 1.49319 0
M  V30 5169 C 497.888 -1.26033 1.58882 0
M  V30 5170 C 498.221 -1.92268 0.273274 0
M  V30 5171 O 497.496 -1.80567 -0.72291 0
M  V30 5172 C 497.779 -2.32976 2.7458 0
M  V30 5173 C 497.632 -1.71263 4.1592 0
M  V30 5174 C 498.951 -3.34561 2.85932 0
M  V30 5175 H 496.07 -0.456863 0.578312 0
M  V30 5176 H 498.712 -0.558965 1.81592 0
M  V30 5177 H 496.862 -2.92796 2.55348 0
M  V30 5178 H 498.534 -1.15294 4.4666 0
M  V30 5179 H 496.777 -1.01686 4.21714 0
M  V30 5180 H 497.448 -2.48816 4.92742 0
M  V30 5181 H 499.924 -2.84727 3.0343 0
M  V30 5182 H 498.8 -4.06754 3.68568 0
M  V30 5183 H 499.061 -3.96695 1.95154 0
M  V30 5184 N 498.12 -1.38341 -0.754957 0
M  V30 5185 C 499.345 -1.37882 -1.5493 0
M  V30 5186 C 499.77 0.0296385 -1.88077 0
M  V30 5187 O 499.128 1.01133 -1.50472 0
M  V30 5188 C 499.176 -2.23996 -2.82592 0
M  V30 5189 O 498.28 -1.65612 -3.77686 0
M  V30 5190 H 497.621 -0.470384 -0.468652 0
M  V30 5191 H 500.151 -1.82084 -0.933082 0
M  V30 5192 H 500.161 -2.37806 -3.3153 0
M  V30 5193 H 498.836 -3.26365 -2.57796 0
M  V30 5194 H 497.413 -1.60936 -3.36384 0
M  V30 5195 N 499.598 0.982988 -1.23187 0
M  V30 5196 C 500.847 1.71817 -1.05649 0
M  V30 5197 C 501.16 1.91315 0.407176 0
M  V30 5198 O 502.366 2.62256 0.702436 0
M  V30 5199 C 500.822 3.09188 -1.84203 0
M  V30 5200 C 500.43 2.97586 -3.34882 0
M  V30 5201 C 502.174 3.86684 -1.75146 0
M  V30 5202 C 500.081 4.30173 -4.05839 0
M  V30 5203 H 499.011 0.644258 -0.391724 0
M  V30 5204 H 501.662 1.09659 -1.4713 0
M  V30 5205 H 500.044 3.72087 -1.35527 0
M  V30 5206 H 501.218 2.43793 -3.91026 0
M  V30 5207 H 499.533 2.33567 -3.44725 0
M  V30 5208 H 502.13 4.84836 -2.25473 0
M  V30 5209 H 502.473 4.10136 -0.713737 0
M  V30 5210 H 503.006 3.30482 -2.21419 0
M  V30 5211 H 499.745 4.11918 -5.09906 0
M  V30 5212 H 499.265 4.83841 -3.54482 0
M  V30 5213 H 500.944 4.98873 -4.11989 0
M  V30 5214 N 501.076 1.04316 1.18135 0
M  V30 5215 C 502.353 0.662166 1.84051 0
M  V30 5216 C 502.733 -0.858169 1.9287 0
M  V30 5217 O 502.081 -1.76062 1.45652 0
M  V30 5218 C 502.291 1.3409 3.22212 0
M  V30 5219 C 503.639 1.4733 3.9822 0
M  V30 5220 O 504.663 1.29921 3.31661 0
M  V30 5221 O 503.522 1.75722 5.17479 0
M  V30 5222 H 500.616 0.232005 0.79379 0
M  V30 5223 H 503.162 1.1422 1.25506 0
M  V30 5224 H 501.934 2.37853 3.10711 0
M  V30 5225 H 501.557 0.849649 3.88416 0
M  V30 5226 N 502.554 -1.34406 0.822964 0
M  V30 5227 C 503.484 -2.32052 0.259608 0
M  V30 5228 C 504.465 -1.58243 -0.623961 0
M  V30 5229 O 505.65 -1.86224 -0.55083 0
M  V30 5230 C 502.78 -3.42434 -0.579314 0
M  V30 5231 C 501.734 -4.27499 0.20712 0
M  V30 5232 C 501.06 -5.29349 -0.754547 0
M  V30 5233 C 502.36 -5.02758 1.41533 0
M  V30 5234 H 504.054 -2.79418 1.07545 0
M  V30 5235 H 501.6 -1.34338 0.518593 0
M  V30 5236 H 503.553 -4.0976 -0.983612 0
M  V30 5237 H 502.277 -2.93717 -1.4282 0
M  V30 5238 H 500.936 -3.61776 0.592787 0
M  V30 5239 H 500.584 -4.76895 -1.59939 0
M  V30 5240 H 500.284 -5.8714 -0.232561 0
M  V30 5241 H 501.808 -5.99544 -1.1567 0
M  V30 5242 H 503.222 -5.62938 1.08504 0
M  V30 5243 H 501.619 -5.70123 1.87296 0
M  V30 5244 H 502.689 -4.32451 2.1935 0
M  V30 5245 N 504.032 -0.577932 -1.46621 0
M  V30 5246 C 505.26 -0.0671642 -2.06791 0
M  V30 5247 C 505.675 1.23571 -1.42743 0
M  V30 5248 O 505.032 1.74602 -0.531062 0
M  V30 5249 C 505.083 0.110357 -3.61332 0
M  V30 5250 O 504.804 -1.14095 -4.22982 0
M  V30 5251 C 506.305 0.656025 -4.38419 0
M  V30 5252 H 503.525 -0.0552732 -0.66872 0
M  V30 5253 H 506.069 -0.797242 -1.8832 0
M  V30 5254 H 504.224 0.790637 -3.79246 0
M  V30 5255 H 504.638 -0.951742 -5.15793 0
M  V30 5256 H 506.112 0.729438 -5.47159 0
M  V30 5257 H 506.589 1.67195 -4.06131 0
M  V30 5258 H 507.195 0.0107692 -4.25299 0
M  V30 5259 N 505.51 1.54411 -0.315457 0
M  V30 5260 C 506.921 1.85885 0.174265 0
M  V30 5261 C 507.272 1.23723 1.52273 0
M  V30 5262 O 506.397 0.540246 2.09548 0
M  V30 5263 C 506.992 3.37257 0.322981 0
M  V30 5264 C 505.551 3.68711 0.756922 0
M  V30 5265 C 504.698 2.77013 -0.126195 0
M  V30 5266 H 507.649 1.49374 -0.536007 0
M  V30 5267 H 507.67 3.62539 1.15522 0
M  V30 5268 H 507.182 3.82471 -0.658602 0
M  V30 5269 H 505.283 3.29024 1.74854 0
M  V30 5270 H 505.396 4.75741 0.566291 0
M  V30 5271 H 503.76 2.51588 0.39692 0
M  V30 5272 H 504.543 3.25051 -1.1044 0
M  V30 5273 N 506.988 0.0434614 1.5754 0
M  V30 5274 C 507.918 -0.931651 2.14109 0
M  V30 5275 C 508.899 -1.32971 1.06079 0
M  V30 5276 O 510.084 -1.40579 1.33982 0
M  V30 5277 C 507.214 -2.20914 2.67982 0
M  V30 5278 C 506.168 -1.95139 3.80926 0
M  V30 5279 C 505.494 -3.29276 4.21285 0
M  V30 5280 C 506.794 -1.27913 5.06395 0
M  V30 5281 H 508.488 -0.460497 2.95837 0
M  V30 5282 H 506.034 -0.220058 1.42309 0
M  V30 5283 H 507.987 -2.89522 3.06194 0
M  V30 5284 H 506.711 -2.70221 1.83434 0
M  V30 5285 H 505.37 -1.28945 3.43175 0
M  V30 5286 H 505.018 -3.76369 3.33699 0
M  V30 5287 H 504.718 -3.12831 4.97404 0
M  V30 5288 H 506.242 -3.99129 4.62091 0
M  V30 5289 H 507.656 -1.86544 5.42102 0
M  V30 5290 H 506.053 -1.2182 5.87605 0
M  V30 5291 H 507.123 -0.254066 4.84234 0
M  V30 5292 N 508.466 -1.55915 -0.229846 0
M  V30 5293 C 509.429 -1.90914 -1.26824 0
M  V30 5294 C 510.429 -0.786999 -1.40225 0
M  V30 5295 O 511.619 -1.05484 -1.38632 0
M  V30 5296 C 508.751 -2.15264 -2.64337 0
M  V30 5297 H 509.944 -2.8378 -0.969998 0
M  V30 5298 H 507.497 -1.49069 -0.4699 0
M  V30 5299 H 508.232 -1.24923 -2.99274 0
M  V30 5300 H 508.017 -2.97005 -2.55989 0
M  V30 5301 H 509.507 -2.43467 -3.39284 0
M  V30 5302 N 509.944 0.496216 -1.49584 0
M  V30 5303 C 510.876 1.61404 -1.62731 0
M  V30 5304 C 511.889 1.54613 -0.50978 0
M  V30 5305 O 513.078 1.60458 -0.782017 0
M  V30 5306 C 510.178 3.00212 -1.57245 0
M  V30 5307 C 509.351 3.32138 -2.84611 0
M  V30 5308 C 508.41 4.5038 -2.72112 0
M  V30 5309 O 507.436 4.51926 -3.46051 0
M  V30 5310 N 508.638 5.50575 -1.83977 0
M  V30 5311 H 511.403 1.50552 -2.59141 0
M  V30 5312 H 508.964 0.684182 -1.46733 0
M  V30 5313 H 510.956 3.77241 -1.4653 0
M  V30 5314 H 509.526 3.04964 -0.686729 0
M  V30 5315 H 508.746 2.4396 -3.09641 0
M  V30 5316 H 510.034 3.50268 -3.69039 0
M  V30 5317 H 509.432 5.52128 -1.23171 0
M  V30 5318 H 507.989 6.26687 -1.79182 0
M  V30 5319 N 511.423 1.38739 0.74761 0
M  V30 5320 C 512.648 1.38702 1.54197 0
M  V30 5321 C 513.073 -0.019664 1.8809 0
M  V30 5322 O 512.431 -1.00333 1.51006 0
M  V30 5323 C 512.479 2.25492 2.814 0
M  V30 5324 O 511.583 1.67613 3.76802 0
M  V30 5325 H 510.924 0.472863 0.466151 0
M  V30 5326 H 513.454 1.82577 0.923413 0
M  V30 5327 H 513.464 2.39561 3.30264 0
M  V30 5328 H 512.139 3.27727 2.56062 0
M  V30 5329 H 510.716 1.62718 3.35526 0
M  V30 5330 N 512.901 -0.976442 1.23707 0
M  V30 5331 C 514.149 -1.71487 1.06942 0
M  V30 5332 C 514.47 -1.9098 -0.393897 0
M  V30 5333 O 513.74 -1.48128 -1.28198 0
M  V30 5334 H 512.32 -0.635425 0.392739 0
M  V30 5335 H 514.982 -1.17515 1.55487 0
M  V30 5336 H 514.078 -2.70286 1.56051 0
M  V30 5337 N 514.379 -1.04941 -1.1758 0
M  V30 5338 C 515.627 -0.756492 -1.87408 0
M  V30 5339 C 515.948 0.718478 -1.81281 0
M  V30 5340 O 515.218 1.519 -1.23706 0
M  V30 5341 H 513.798 -0.276841 -0.693807 0
M  V30 5342 H 516.46 -1.32803 -1.42652 0
M  V30 5343 H 515.556 -1.06918 -2.93215 0
M  V30 5344 N 515.857 1.33968 -0.830081 0
M  V30 5345 C 517.082 2.02813 -0.433796 0
M  V30 5346 C 517.507 1.62076 0.954614 0
M  V30 5347 O 516.865 0.808955 1.62252 0
M  V30 5348 C 516.913 3.56348 -0.552115 0
M  V30 5349 O 516.017 4.10202 0.425191 0
M  V30 5350 H 515.358 0.639817 -0.177567 0
M  V30 5351 H 517.888 1.7106 -1.12248 0
M  V30 5352 H 517.898 4.05722 -0.430513 0
M  V30 5353 H 516.573 3.85344 -1.56471 0
M  V30 5354 H 515.15 3.71979 0.261878 0
M  V30 5355 N 517.335 0.585699 1.46312 0
M  V30 5356 C 518.56 0.0762461 2.0726 0
M  V30 5357 C 518.985 -1.22071 1.43109 0
M  V30 5358 O 518.343 -1.73804 0.515942 0
M  V30 5359 C 518.391 -0.0729404 3.60526 0
M  V30 5360 O 517.495 -1.1287 3.96654 0
M  V30 5361 H 516.836 0.0641558 0.660893 0
M  V30 5362 H 519.366 0.809492 1.87905 0
M  V30 5363 H 519.376 -0.278158 4.07051 0
M  V30 5364 H 518.051 0.874188 4.06609 0
M  V30 5365 H 516.628 -0.901703 3.61834 0
M  V30 5366 N 518.813 -1.54241 0.323641 0
M  V30 5367 C 520.043 -2.04687 -0.280464 0
M  V30 5368 C 520.451 -1.19939 -1.46326 0
M  V30 5369 O 519.794 -0.222872 -1.82343 0
M  V30 5370 C 519.856 -3.50978 -0.778123 0
M  V30 5371 C 519.52 -4.56127 0.282371 0
M  V30 5372 C 520.517 -5.07726 1.11847 0
M  V30 5373 C 518.202 -5.00451 0.430582 0
M  V30 5374 C 520.196 -6.02212 2.08851 0
M  V30 5375 C 517.883 -5.94752 1.40404 0
M  V30 5376 C 518.881 -6.45519 2.23147 0
M  V30 5377 O 518.569 -7.37968 3.1884 0
M  V30 5378 H 518.301 -0.673192 -0.0615473 0
M  V30 5379 H 520.855 -1.99999 0.467921 0
M  V30 5380 H 519.085 -3.53064 -1.57742 0
M  V30 5381 H 520.774 -3.84499 -1.30058 0
M  V30 5382 H 521.54 -4.74261 1.01496 0
M  V30 5383 H 517.419 -4.6055 -0.203569 0
M  V30 5384 H 520.963 -6.41761 2.73474 0
M  V30 5385 H 516.86 -6.27633 1.5082 0
M  V30 5386 H 517.628 -7.55841 3.14079 0
M  V30 5387 N 520.291 -0.0518155 -1.57515 0
M  V30 5388 C 521.54 0.621286 -1.91893 0
M  V30 5389 C 521.853 1.71966 -0.932052 0
M  V30 5390 O 523.059 2.45096 -1.16791 0
M  V30 5391 C 521.515 1.15641 -3.40816 0
M  V30 5392 C 521.123 0.0901146 -4.47909 0
M  V30 5393 C 522.867 1.80472 -3.84227 0
M  V30 5394 C 520.774 0.638154 -5.87947 0
M  V30 5395 H 519.704 0.235835 -0.716169 0
M  V30 5396 H 522.355 -0.120809 -1.83102 0
M  V30 5397 H 520.737 1.95084 -3.44613 0
M  V30 5398 H 521.911 -0.683525 -4.55702 0
M  V30 5399 H 520.226 -0.460774 -4.13843 0
M  V30 5400 H 522.823 2.22471 -4.86221 0
M  V30 5401 H 523.166 2.65669 -3.20508 0
M  V30 5402 H 523.699 1.07683 -3.82948 0
M  V30 5403 H 520.438 -0.176202 -6.55263 0
M  V30 5404 H 519.958 1.37976 -5.83714 0
M  V30 5405 H 521.637 1.12085 -6.37217 0
M  V30 5406 N 521.769 1.56035 0.221574 0
M  V30 5407 C 522.994 1.83476 0.967026 0
M  V30 5408 C 523.419 0.632139 1.7716 0
M  V30 5409 O 522.777 -0.419082 1.7639 0
M  V30 5410 C 522.825 3.08907 1.86034 0
M  V30 5411 O 521.929 2.876 2.95567 0
M  V30 5412 H 521.27 0.604913 0.273817 0
M  V30 5413 H 523.8 2.03247 0.234893 0
M  V30 5414 H 523.81 3.3901 2.27016 0
M  V30 5415 H 522.485 3.96068 1.26898 0
M  V30 5416 H 521.062 2.6873 2.58532 0
M  V30 5417 N 523.247 -0.488276 1.49845 0
M  V30 5418 C 524.524 -1.24959 1.50481 0
M  V30 5419 C 524.904 -2.09735 0.239698 0
M  V30 5420 O 524.252 -2.14865 -0.777524 0
M  V30 5421 C 524.462 -2.0954 2.79095 0
M  V30 5422 C 525.81 -2.68305 3.29086 0
M  V30 5423 O 526.834 -2.19797 2.80299 0
M  V30 5424 O 525.693 -3.56643 4.14087 0
M  V30 5425 H 522.787 -0.566133 0.602845 0
M  V30 5426 H 525.333 -0.501504 1.6212 0
M  V30 5427 H 524.105 -1.46958 3.62656 0
M  V30 5428 H 523.728 -2.91517 2.70377 0
M  V30 5429 N 524.725 -1.39134 -0.740242 0
M  V30 5430 C 525.973 -1.35803 -1.49673 0
M  V30 5431 C 526.294 0.0470897 -1.94943 0
M  V30 5432 O 525.564 0.997347 -1.68611 0
M  V30 5433 H 524.144 -0.499736 -0.555224 0
M  V30 5434 H 526.806 -1.73947 -0.879107 0
M  V30 5435 H 525.902 -2.0174 -2.38133 0
M  V30 5436 N 526.204 0.969867 -1.24223 0
M  V30 5437 C 527.151 2.06407 -1.0327 0
M  V30 5438 C 528.121 1.66014 0.0533 0
M  V30 5439 O 529.306 1.90533 -0.100896 0
M  V30 5440 C 526.446 3.3909 -0.641262 0
M  V30 5441 C 525.559 3.9269 -1.80051 0
M  V30 5442 C 524.694 5.13631 -1.35486 0
M  V30 5443 C 523.733 5.59423 -2.48419 0
M  V30 5444 N 522.87 6.71586 -2.04737 0
M  V30 5445 H 527.71 2.23663 -1.96923 0
M  V30 5446 H 525.247 1.09624 -0.980862 0
M  V30 5447 H 527.205 4.15323 -0.395351 0
M  V30 5448 H 525.835 3.21765 0.258269 0
M  V30 5449 H 524.887 3.13116 -2.16014 0
M  V30 5450 H 526.199 4.22636 -2.64916 0
M  V30 5451 H 525.353 5.97231 -1.0677 0
M  V30 5452 H 524.092 4.85364 -0.476722 0
M  V30 5453 H 523.097 4.74398 -2.77897 0
M  V30 5454 H 524.322 5.89705 -3.36786 0
M  V30 5455 H 522.268 6.45058 -1.19318 0
M  V30 5456 H 522.185 7.0097 -2.83156 0
M  V30 5457 H 523.453 7.58633 -1.79154 0
M  V30 5458 N 527.682 1.05563 1.17022 0
M  V30 5459 C 528.592 0.670758 2.24807 0
M  V30 5460 C 529.608 -0.309865 1.71219 0
M  V30 5461 O 530.784 -0.161025 2.00755 0
M  V30 5462 C 527.849 0.055337 3.46656 0
M  V30 5463 C 526.91 1.08688 4.15314 0
M  V30 5464 C 526.143 0.500736 5.31346 0
M  V30 5465 O 526.366 -0.688718 5.66227 0
M  V30 5466 O 525.3 1.23683 5.89055 0
M  V30 5467 H 529.126 1.56914 2.60023 0
M  V30 5468 H 526.711 0.827428 1.24395 0
M  V30 5469 H 528.593 -0.286492 4.20425 0
M  V30 5470 H 527.268 -0.816638 3.13229 0
M  V30 5471 H 526.175 1.48077 3.43546 0
M  V30 5472 H 527.508 1.93014 4.52777 0
M  V30 5473 N 529.16 -1.33526 0.837174 0
M  V30 5474 C 530.39 -2.01754 0.444848 0
M  V30 5475 C 530.798 -1.63149 -0.958072 0
M  V30 5476 O 530.141 -0.839827 -1.63379 0
M  V30 5477 C 530.203 -3.56228 0.483917 0
M  V30 5478 C 529.867 -4.18205 1.84265 0
M  V30 5479 C 530.864 -4.37699 2.80563 0
M  V30 5480 C 528.549 -4.54667 2.13503 0
M  V30 5481 C 530.543 -4.928 4.04261 0
M  V30 5482 C 528.23 -5.09475 3.37458 0
M  V30 5483 C 529.228 -5.28488 4.32654 0
M  V30 5484 O 528.916 -5.82132 5.54417 0
M  V30 5485 H 528.648 -0.652928 0.175104 0
M  V30 5486 H 531.202 -1.71469 1.13082 0
M  V30 5487 H 529.432 -3.85833 -0.258826 0
M  V30 5488 H 531.121 -4.05752 0.109653 0
M  V30 5489 H 531.887 -4.0988 2.59274 0
M  V30 5490 H 527.766 -4.39164 1.40201 0
M  V30 5491 H 531.31 -5.07555 4.78574 0
M  V30 5492 H 527.207 -5.36725 3.58604 0
M  V30 5493 H 527.975 -6.00548 5.56133 0
M  V30 5494 N 530.638 -0.59345 -1.46 0
M  V30 5495 C 531.568 0.121192 -2.33185 0
M  V30 5496 C 532.549 0.872977 -1.4599 0
M  V30 5497 O 533.734 0.846321 -1.74789 0
M  V30 5498 C 530.864 1.12844 -3.28456 0
M  V30 5499 C 529.818 0.4908 -4.25177 0
M  V30 5500 C 529.144 1.60529 -5.10034 0
M  V30 5501 C 530.444 -0.578949 -5.19081 0
M  V30 5502 H 532.138 -0.606767 -2.93187 0
M  V30 5503 H 529.684 -0.293242 -1.40983 0
M  V30 5504 H 531.637 1.63684 -3.88311 0
M  V30 5505 H 530.361 1.88681 -2.66584 0
M  V30 5506 H 529.02 0.00339328 -3.666 0
M  V30 5507 H 528.668 2.35359 -4.44539 0
M  V30 5508 H 528.368 1.18422 -5.75543 0
M  V30 5509 H 529.892 2.11623 -5.72755 0
M  V30 5510 H 531.306 -0.155199 -5.7309 0
M  V30 5511 H 529.703 -0.920947 -5.92991 0
M  V30 5512 H 530.773 -1.46109 -4.62364 0
M  V30 5513 N 532.116 1.54067 -0.331816 0
M  V30 5514 C 533.363 2.00715 0.268269 0
M  V30 5515 C 533.691 1.21986 1.51491 0
M  V30 5516 O 532.946 0.292309 1.93505 0
M  V30 5517 C 533.245 3.51634 0.639392 0
M  V30 5518 C 532.911 4.48018 -0.509019 0
M  V30 5519 C 531.573 4.74089 -0.824209 0
M  V30 5520 C 533.925 5.05237 -1.28003 0
M  V30 5521 C 531.253 5.54637 -1.91298 0
M  V30 5522 C 533.605 5.86972 -2.35895 0
M  V30 5523 C 532.269 6.11342 -2.67987 0
M  V30 5524 H 531.539 0.734469 0.0981667 0
M  V30 5525 H 534.186 1.8596 -0.457304 0
M  V30 5526 H 532.491 3.6416 1.44551 0
M  V30 5527 H 534.188 3.85175 1.11539 0
M  V30 5528 H 530.778 4.27851 -0.253287 0
M  V30 5529 H 534.962 4.8507 -1.04978 0
M  V30 5530 H 530.218 5.71747 -2.16599 0
M  V30 5531 H 534.392 6.30327 -2.96076 0
M  V30 5532 H 532.019 6.73544 -3.5248 0
M  V30 5533 N 533.594 0.0601682 1.57485 0
M  V30 5534 C 534.824 -0.620037 1.97076 0
M  V30 5535 C 535.232 -1.64381 0.936784 0
M  V30 5536 O 534.575 -1.83497 -0.0863377 0
M  V30 5537 C 534.637 -1.35617 3.32939 0
M  V30 5538 C 534.301 -0.487208 4.54396 0
M  V30 5539 C 535.298 0.250428 5.19297 0
M  V30 5540 C 532.983 -0.415494 5.00579 0
M  V30 5541 C 534.977 1.04812 6.28723 0
M  V30 5542 C 532.664 0.385879 6.0988 0
M  V30 5543 C 533.662 1.11637 6.73815 0
M  V30 5544 O 533.35 1.90454 7.81014 0
M  V30 5545 H 533.082 -0.173664 0.653312 0
M  V30 5546 H 535.636 0.1256 2.05016 0
M  V30 5547 H 533.866 -2.14763 3.2158 0
M  V30 5548 H 535.555 -1.92749 3.57215 0
M  V30 5549 H 536.321 0.204546 4.84568 0
M  V30 5550 H 532.2 -0.973679 4.506 0
M  V30 5551 H 535.744 1.6188 6.78558 0
M  V30 5552 H 531.641 0.433366 6.44044 0
M  V30 5553 H 532.409 1.82762 7.97835 0
M  V30 5554 N 535.072 -1.5615 -0.213296 0
M  V30 5555 C 536.002 -1.96109 -1.26742 0
M  V30 5556 C 536.983 -0.830448 -1.48451 0
M  V30 5557 O 538.168 -1.09339 -1.60495 0
M  V30 5558 C 535.298 -2.28492 -2.61551 0
M  V30 5559 C 534.252 -3.44124 -2.54485 0
M  V30 5560 C 533.578 -3.62134 -3.93399 0
M  V30 5561 C 534.878 -4.78855 -2.08556 0
M  V30 5562 H 536.572 -2.84412 -0.935434 0
M  V30 5563 H 534.118 -1.36836 -0.44854 0
M  V30 5564 H 536.071 -2.55039 -3.3546 0
M  V30 5565 H 534.795 -1.37052 -2.96453 0
M  V30 5566 H 533.454 -3.17639 -1.83033 0
M  V30 5567 H 533.102 -2.68055 -4.25623 0
M  V30 5568 H 532.802 -4.39913 -3.89551 0
M  V30 5569 H 534.326 -3.91038 -4.68958 0
M  V30 5570 H 535.74 -5.04552 -2.72213 0
M  V30 5571 H 534.137 -5.59975 -2.1575 0
M  V30 5572 H 535.207 -4.73657 -1.03811 0
M  V30 5573 N 536.55 0.480323 -1.50102 0
M  V30 5574 C 537.498 1.60024 -1.68805 0
M  V30 5575 C 538.492 1.60089 -0.553888 0
M  V30 5576 O 539.698 1.64349 -0.734127 0
M  V30 5577 H 536.073 0.530841 -0.532646 0
M  V30 5578 H 538.044 1.41408 -2.62767 0
M  V30 5579 C 536.793 2.98029 -1.79092 0
M  V30 5580 H 536.116 2.98694 -2.65748 0
M  V30 5581 H 537.556 3.75871 -1.96206 0
M  V30 5582 C 536.015 3.32538 -0.540388 0
M  V30 5583 O 536.545 4.00386 0.324637 0
M  V30 5584 N 534.751 2.87873 -0.397154 0
M  V30 5585 H 534.298 2.32834 -1.1021 0
M  V30 5586 H 534.256 3.11328 0.438425 0
M  V30 5587 N 538.028 1.39524 0.732853 0
M  V30 5588 C 539.274 1.37068 1.49467 0
M  V30 5589 C 539.607 -0.0327166 1.94172 0
M  V30 5590 O 538.882 -0.998071 1.66939 0
M  V30 5591 C 539.165 2.34494 2.73285 0
M  V30 5592 C 539.018 3.83784 2.34585 0
M  V30 5593 C 540.337 2.29717 3.75391 0
M  V30 5594 H 537.456 0.499206 0.542183 0
M  V30 5595 H 540.098 1.70532 0.837783 0
M  V30 5596 H 538.248 2.06087 3.29333 0
M  V30 5597 H 539.92 4.22949 1.84151 0
M  V30 5598 H 538.163 4.00455 1.66787 0
M  V30 5599 H 538.834 4.47444 3.23262 0
M  V30 5600 H 541.31 2.54839 3.28932 0
M  V30 5601 H 540.186 2.99962 4.59689 0
M  V30 5602 H 540.447 1.30291 4.22465 0
M  V30 5603 N 539.506 -0.963266 1.24736 0
M  V30 5604 C 540.746 -1.72172 1.10165 0
M  V30 5605 C 541.11 -1.88731 -0.352784 0
M  V30 5606 O 542.311 -2.61549 -0.620107 0
M  V30 5607 C 540.582 -3.0724 1.82589 0
M  V30 5608 S 542.141 -3.98449 1.83803 0
M  V30 5609 H 538.959 -0.591901 0.393922 0
M  V30 5610 H 541.561 -1.14955 1.58132 0
M  V30 5611 H 540.265 -2.92851 2.87518 0
M  V30 5612 H 539.796 -3.69521 1.34973 0
M  V30 5613 H 541.811 -4.87805 0.908883 0
M  V30 5614 N 540.985 -1.06182 -1.16461 0
M  V30 5615 C 542.233 -0.776326 -1.86595 0
M  V30 5616 C 542.554 0.69921 -1.82033 0
M  V30 5617 O 541.824 1.50579 -1.2531 0
M  V30 5618 H 540.404 -0.284184 -0.690832 0
M  V30 5619 H 543.066 -1.34308 -1.41235 0
M  V30 5620 H 542.162 -1.10022 -2.92064 0
M  V30 5621 N 542.463 1.3308 -0.844243 0
M  V30 5622 C 543.373 2.32876 -0.283922 0
M  V30 5623 C 544.389 1.63589 0.592846 0
M  V30 5624 O 545.565 1.95205 0.495693 0
M  V30 5625 C 542.63 3.42667 0.527283 0
M  V30 5626 C 541.691 4.27664 -0.374394 0
M  V30 5627 C 540.924 5.32212 0.39819 0
M  V30 5628 O 541.147 5.46635 1.62932 0
M  V30 5629 O 540.081 6.01458 -0.2306 0
M  V30 5630 H 543.907 2.82671 -1.11045 0
M  V30 5631 H 541.492 1.36518 -0.606903 0
M  V30 5632 H 543.374 4.09652 0.988078 0
M  V30 5633 H 542.049 2.95079 1.33078 0
M  V30 5634 H 540.956 3.63526 -0.883144 0
M  V30 5635 H 542.289 4.78749 -1.1428 0
M  V30 5636 N 543.941 0.601185 1.45683 0
M  V30 5637 C 545.169 0.100054 2.06658 0
M  V30 5638 C 545.584 -1.21285 1.44691 0
M  V30 5639 O 544.941 -1.73735 0.558772 0
M  V30 5640 C 544.992 -0.0528579 3.61461 0
M  V30 5641 O 544.713 1.20809 4.21114 0
M  V30 5642 C 546.214 -0.586193 4.39407 0
M  V30 5643 H 543.434 0.065905 0.667756 0
M  V30 5644 H 545.978 0.827101 1.87028 0
M  V30 5645 H 544.133 -0.730203 3.80456 0
M  V30 5646 H 544.547 1.03368 5.14213 0
M  V30 5647 H 546.021 -0.642297 5.4825 0
M  V30 5648 H 546.498 -1.60713 4.0874 0
M  V30 5649 H 547.104 0.0568935 4.25262 0
M  V30 5650 N 545.419 -1.53889 0.339982 0
M  V30 5651 C 546.329 -2.28604 -0.526988 0
M  V30 5652 C 547.345 -1.33578 -1.11503 0
M  V30 5653 O 548.521 -1.66612 -1.13148 0
M  V30 5654 C 545.586 -3.04164 -1.66389 0
M  V30 5655 C 544.647 -4.14809 -1.10599 0
M  V30 5656 C 543.88 -4.86756 -2.18871 0
M  V30 5657 O 544.103 -4.58343 -3.39526 0
M  V30 5658 O 543.037 -5.73289 -1.83366 0
M  V30 5659 H 546.863 -3.03594 0.0802707 0
M  V30 5660 H 544.448 -1.4903 0.105141 0
M  V30 5661 H 546.33 -3.51427 -2.32544 0
M  V30 5662 H 545.005 -2.32035 -2.25703 0
M  V30 5663 H 543.912 -3.71857 -0.409067 0
M  V30 5664 H 545.245 -4.89029 -0.557771 0
M  V30 5665 N 546.897 -0.0685191 -1.57451 0
M  V30 5666 C 548.146 0.600898 -1.92541 0
M  V30 5667 C 548.459 1.70967 -0.950239 0
M  V30 5668 O 549.665 2.43844 -1.19384 0
M  V30 5669 C 548.121 1.12019 -3.42023 0
M  V30 5670 C 547.729 0.0426028 -4.4798 0
M  V30 5671 C 549.473 1.76386 -3.86119 0
M  V30 5672 C 547.38 0.575759 -5.88591 0
M  V30 5673 H 546.31 0.228225 -0.71863 0
M  V30 5674 H 548.961 -0.140223 -1.82963 0
M  V30 5675 H 547.343 1.91418 -3.46663 0
M  V30 5676 H 548.517 -0.73182 -4.54952 0
M  V30 5677 H 546.832 -0.504642 -4.13331 0
M  V30 5678 H 549.429 2.17302 -4.88553 0
M  V30 5679 H 549.772 2.62255 -3.23308 0
M  V30 5680 H 550.305 1.03615 -3.84069 0
M  V30 5681 H 547.044 -0.245691 -6.55039 0
M  V30 5682 H 546.564 1.31778 -5.85145 0
M  V30 5683 H 548.243 1.0532 -6.3837 0
M  V30 5684 N 548.375 1.56261 0.205012 0
M  V30 5685 C 549.307 1.90266 1.27795 0
M  V30 5686 C 550.32 0.792397 1.42214 0
M  V30 5687 O 551.509 1.07077 1.42817 0
M  V30 5688 C 548.609 2.11074 2.65143 0
M  V30 5689 C 547.782 3.42176 2.7246 0
M  V30 5690 C 546.841 3.52216 3.90936 0
M  V30 5691 O 545.867 4.25119 3.78501 0
M  V30 5692 N 547.069 2.84573 5.05963 0
M  V30 5693 H 549.834 2.82896 0.989434 0
M  V30 5694 H 547.395 1.57008 0.394981 0
M  V30 5695 H 549.387 2.15089 3.4281 0
M  V30 5696 H 547.957 1.2499 2.86524 0
M  V30 5697 H 547.177 3.50116 1.81142 0
M  V30 5698 H 548.465 4.28509 2.74331 0
M  V30 5699 H 547.863 2.25152 5.18963 0
M  V30 5700 H 546.42 2.94228 5.81613 0
M  V30 5701 N 549.853 -0.472356 1.50355 0
M  V30 5702 C 551.1 -1.22453 1.61281 0
M  V30 5703 C 551.428 -1.91972 0.31256 0
M  V30 5704 O 550.683 -1.82696 -0.701475 0
M  V30 5705 C 550.982 -2.29257 2.74182 0
M  V30 5706 C 550.648 -1.76999 4.14708 0
M  V30 5707 C 549.31 -1.62467 4.52944 0
M  V30 5708 C 551.662 -1.38215 5.0254 0
M  V30 5709 C 548.99 -1.07574 5.76754 0
M  V30 5710 C 551.342 -0.847638 6.26895 0
M  V30 5711 C 550.006 -0.688946 6.63935 0
M  V30 5712 H 549.276 -0.448087 0.590168 0
M  V30 5713 H 551.923 -0.520744 1.84284 0
M  V30 5714 H 550.228 -3.05538 2.45263 0
M  V30 5715 H 551.925 -2.87212 2.7984 0
M  V30 5716 H 548.515 -1.89276 3.84542 0
M  V30 5717 H 552.699 -1.48276 4.73633 0
M  V30 5718 H 547.955 -0.940237 6.04127 0
M  V30 5719 H 552.129 -0.538455 6.94315 0
M  V30 5720 H 549.756 -0.261435 7.5975 0
M  V30 5721 N 551.331 -1.39911 -0.725443 0
M  V30 5722 C 552.571 -1.39096 -1.49772 0
M  V30 5723 C 552.935 0.0106452 -1.91997 0
M  V30 5724 O 554.136 0.143859 -2.68415 0
M  V30 5725 C 552.407 -2.34441 -2.69764 0
M  V30 5726 S 553.966 -2.51898 -3.59295 0
M  V30 5727 H 550.784 -0.49314 -0.512186 0
M  V30 5728 H 553.386 -1.76093 -0.849197 0
M  V30 5729 H 552.09 -3.35123 -2.36898 0
M  V30 5730 H 551.621 -1.98692 -3.39537 0
M  V30 5731 H 553.636 -1.76402 -4.63785 0
M  V30 5732 N 552.809 0.956637 -1.25245 0
M  V30 5733 C 553.757 2.0743 -1.0524 0
M  V30 5734 C 554.751 1.69392 0.0160725 0
M  V30 5735 O 555.957 1.7946 -0.139382 0
M  V30 5736 H 552.332 0.678921 -0.323373 0
M  V30 5737 H 554.303 2.2146 -1.99995 0
M  V30 5738 C 553.052 3.40872 -0.685702 0
M  V30 5739 H 552.375 3.70607 -1.49968 0
M  V30 5740 H 553.815 4.19939 -0.585415 0
M  V30 5741 C 552.274 3.31367 0.608082 0
M  V30 5742 O 552.804 3.66214 1.65076 0
M  V30 5743 N 551.01 2.84486 0.592955 0
M  V30 5744 H 550.557 2.56326 -0.25592 0
M  V30 5745 H 550.515 2.78509 1.45877 0
M  V30 5746 N 554.287 1.06798 1.15896 0
M  V30 5747 C 555.234 0.683314 2.20453 0
M  V30 5748 C 556.204 -0.32255 1.62938 0
M  V30 5749 O 557.389 -0.210276 1.89638 0
M  V30 5750 C 554.529 0.0813266 3.45004 0
M  V30 5751 C 553.642 1.13799 4.16742 0
M  V30 5752 C 552.777 0.501598 5.28826 0
M  V30 5753 C 551.816 1.54144 5.92373 0
M  V30 5754 N 550.953 0.928038 6.9594 0
M  V30 5755 H 555.793 1.57932 2.52708 0
M  V30 5756 H 553.33 0.789544 1.24115 0
M  V30 5757 H 555.288 -0.285274 4.16224 0
M  V30 5758 H 553.918 -0.77806 3.13283 0
M  V30 5759 H 552.97 1.62223 3.44075 0
M  V30 5760 H 554.282 1.92664 4.60089 0
M  V30 5761 H 553.436 0.0823162 6.06644 0
M  V30 5762 H 552.175 -0.318883 4.86656 0
M  V30 5763 H 551.18 1.97056 5.13273 0
M  V30 5764 H 552.405 2.3641 6.36621 0
M  V30 5765 H 550.351 0.12836 6.55874 0
M  V30 5766 H 550.268 1.65401 7.37685 0
M  V30 5767 H 551.536 0.534071 7.77668 0
M  V30 5768 N 555.766 -1.3263 0.851289 0
M  V30 5769 C 556.713 -2.28952 0.291469 0
M  V30 5770 C 557.683 -1.54897 -0.599676 0
M  V30 5771 O 558.868 -1.83137 -0.535305 0
M  V30 5772 C 556.008 -3.41206 -0.516992 0
M  V30 5773 C 555.121 -4.30148 0.399566 0
M  V30 5774 C 554.256 -5.29527 -0.4212 0
M  V30 5775 C 553.295 -6.10112 0.492969 0
M  V30 5776 N 552.432 -7.01499 -0.290414 0
M  V30 5777 H 557.272 -2.76228 1.11813 0
M  V30 5778 H 554.809 -1.35907 0.562826 0
M  V30 5779 H 556.767 -4.05005 -1.00132 0
M  V30 5780 H 555.397 -2.9509 -1.30851 0
M  V30 5781 H 554.449 -3.66959 1.00227 0
M  V30 5782 H 555.761 -4.8649 1.1013 0
M  V30 5783 H 554.915 -5.98914 -0.968832 0
M  V30 5784 H 553.654 -4.73794 -1.15632 0
M  V30 5785 H 552.659 -5.39632 1.05251 0
M  V30 5786 H 553.884 -6.6793 1.22664 0
M  V30 5787 H 551.83 -6.48199 -1.00868 0
M  V30 5788 H 551.747 -7.55178 0.352354 0
M  V30 5789 H 553.015 -7.75176 -0.819882 0
M  V30 5790 N 557.244 -0.608902 -1.45362 0
M  V30 5791 C 558.176 0.147318 -2.28726 0
M  V30 5792 C 559.189 0.830468 -1.40025 0
M  V30 5793 O 560.378 0.695636 -1.64387 0
M  V30 5794 C 557.478 1.22968 -3.15804 0
M  V30 5795 C 556.651 0.633391 -4.3279 0
M  V30 5796 C 555.71 1.60682 -5.01067 0
M  V30 5797 O 554.736 1.13261 -5.57818 0
M  V30 5798 N 555.938 2.94123 -5.00472 0
M  V30 5799 H 558.703 -0.568014 -2.94268 0
M  V30 5800 H 556.264 -0.448479 -1.55564 0
M  V30 5801 H 558.256 1.88072 -3.58345 0
M  V30 5802 H 556.826 1.84752 -2.52162 0
M  V30 5803 H 556.046 -0.195762 -3.93714 0
M  V30 5804 H 557.334 0.215255 -5.08344 0
M  V30 5805 H 556.732 3.3525 -4.55657 0
M  V30 5806 H 555.289 3.54646 -5.46872 0
M  V30 5807 N 558.722 1.53707 -0.348139 0
M  V30 5808 C 559.685 2.23812 0.494058 0
M  V30 5809 C 560.685 1.23989 1.02388 0
M  V30 5810 O 561.875 1.48395 0.912396 0
M  V30 5811 C 559.007 2.96133 1.68872 0
M  V30 5812 H 560.2 2.99663 -0.119141 0
M  V30 5813 H 557.753 1.55983 -0.0995539 0
M  V30 5814 H 558.488 2.24481 2.34049 0
M  V30 5815 H 558.273 3.69357 1.31596 0
M  V30 5816 H 559.763 3.49475 2.28597 0
M  V30 5817 N 560.2 0.0768682 1.57412 0
M  V30 5818 C 561.163 -0.873949 2.11884 0
M  V30 5819 C 562.163 -1.22301 1.04398 0
M  V30 5820 O 563.353 -1.15545 1.30365 0
M  V30 5821 C 560.485 -2.17575 2.62438 0
M  V30 5822 H 561.678 -0.401278 2.97203 0
M  V30 5823 H 559.231 -0.171904 1.55352 0
M  V30 5824 H 559.966 -2.69368 1.80587 0
M  V30 5825 H 559.751 -1.93534 3.41009 0
M  V30 5826 H 561.241 -2.85631 3.04639 0
M  V30 5827 N 561.678 -1.56367 -0.196722 0
M  V30 5828 C 562.924 -1.80796 -0.918725 0
M  V30 5829 C 563.257 -0.650645 -1.82976 0
M  V30 5830 O 562.532 0.348889 -1.91345 0
M  V30 5831 C 562.815 -3.15472 -1.73636 0
M  V30 5832 C 562.668 -4.41693 -0.85015 0
M  V30 5833 C 563.987 -3.46824 -2.70927 0
M  V30 5834 H 561.106 -0.657702 -0.332561 0
M  V30 5835 H 563.748 -1.89086 -0.186186 0
M  V30 5836 H 561.898 -3.08536 -2.36088 0
M  V30 5837 H 563.57 -4.60673 -0.240459 0
M  V30 5838 H 561.813 -4.33517 -0.156785 0
M  V30 5839 H 562.484 -5.32419 -1.45719 0
M  V30 5840 H 564.96 -3.54049 -2.18607 0
M  V30 5841 H 563.836 -4.4218 -3.25219 0
M  V30 5842 H 564.097 -2.70236 -3.49893 0
M  V30 5843 N 563.156 0.464375 -1.50603 0
M  V30 5844 C 564.396 1.22573 -1.6357 0
M  V30 5845 C 564.76 1.89111 -0.331834 0
M  V30 5846 O 565.961 2.66679 -0.336999 0
M  V30 5847 C 564.232 2.23643 -2.7878 0
M  V30 5848 S 565.791 3.08628 -3.1192 0
M  V30 5849 H 562.609 0.416058 -0.576556 0
M  V30 5850 H 565.211 0.521637 -1.88412 0
M  V30 5851 H 563.915 1.73354 -3.7199 0
M  V30 5852 H 563.446 2.98672 -2.56044 0
M  V30 5853 H 565.461 4.24904 -2.56264 0
M  V30 5854 N 564.634 1.40294 0.718013 0
M  V30 5855 C 565.566 1.36281 1.84283 0
M  V30 5856 C 566.579 0.268621 1.60569 0
M  V30 5857 O 567.768 0.528798 1.70487 0
M  V30 5858 C 564.868 1.09741 3.2064 0
M  V30 5859 C 564.041 2.30767 3.71571 0
M  V30 5860 C 563.1 2.00424 4.86535 0
M  V30 5861 O 562.126 2.73268 4.99313 0
M  V30 5862 N 563.328 0.980724 5.72156 0
M  V30 5863 H 566.093 2.3322 1.88225 0
M  V30 5864 H 563.654 1.34616 0.899453 0
M  V30 5865 H 565.646 0.874322 3.95143 0
M  V30 5866 H 564.216 0.214771 3.11861 0
M  V30 5867 H 563.436 2.68921 2.88228 0
M  V30 5868 H 564.724 3.11455 4.02335 0
M  V30 5869 H 564.122 0.377375 5.6444 0
M  V30 5870 H 562.679 0.817538 6.46653 0
M  V30 5871 N 566.112 -0.949982 1.2575 0
M  V30 5872 C 567.358 -1.69766 1.10938 0
M  V30 5873 C 567.691 -1.91056 -0.348028 0
M  V30 5874 O 566.966 -1.48488 -1.25625 0
M  V30 5875 C 567.249 -3.07779 1.86933 0
M  V30 5876 C 567.102 -2.9387 3.4053 0
M  V30 5877 C 568.421 -4.07749 1.65616 0
M  V30 5878 H 565.54 -0.616144 0.404396 0
M  V30 5879 H 568.182 -1.10394 1.54639 0
M  V30 5880 H 566.332 -3.58462 1.4979 0
M  V30 5881 H 568.004 -2.50476 3.87375 0
M  V30 5882 H 566.247 -2.29686 3.68004 0
M  V30 5883 H 566.918 -3.91719 3.88922 0
M  V30 5884 H 569.394 -3.65994 1.97959 0
M  V30 5885 H 568.27 -5.02348 2.21218 0
M  V30 5886 H 568.531 -4.38029 0.598595 0
M  V30 5887 N 567.59 -1.07411 -1.15328 0
M  V30 5888 C 568.537 -0.694995 -2.20087 0
M  V30 5889 C 569.507 0.313904 -1.63107 0
M  V30 5890 O 570.692 0.200216 -1.89747 0
M  V30 5891 C 567.832 -0.0996218 -3.44956 0
M  V30 5892 C 566.945 -1.16007 -4.16133 0
M  V30 5893 C 566.08 -0.529636 -5.28553 0
M  V30 5894 C 565.119 -1.57283 -5.91548 0
M  V30 5895 N 564.256 -0.964932 -6.95438 0
M  V30 5896 H 569.096 -1.5927 -2.51867 0
M  V30 5897 H 566.633 -0.796115 -1.23695 0
M  V30 5898 H 568.591 0.263197 -4.16369 0
M  V30 5899 H 567.221 0.761435 -3.13691 0
M  V30 5900 H 566.273 -1.64045 -3.4321 0
M  V30 5901 H 567.585 -1.95101 -4.59061 0
M  V30 5902 H 566.739 -0.114487 -6.06592 0
M  V30 5903 H 565.478 0.29307 -4.86819 0
M  V30 5904 H 564.483 -1.99775 -5.12221 0
M  V30 5905 H 565.708 -2.39783 -6.35359 0
M  V30 5906 H 563.654 -0.16314 -6.55797 0
M  V30 5907 H 563.571 -1.69311 -7.36797 0
M  V30 5908 H 564.839 -0.575305 -7.77374 0
M  V30 5909 N 569.068 1.32177 -0.85831 0
M  V30 5910 C 570.015 2.28794 -0.303607 0
M  V30 5911 C 570.985 1.55213 0.591453 0
M  V30 5912 O 572.17 1.83418 0.525585 0
M  V30 5913 C 569.31 3.41475 0.49889 0
M  V30 5914 C 568.423 4.2993 -0.422373 0
M  V30 5915 C 567.558 5.29743 0.393111 0
M  V30 5916 C 566.597 6.09842 -0.525317 0
M  V30 5917 N 565.734 7.01643 0.253208 0
M  V30 5918 H 570.574 2.75631 -1.13276 0
M  V30 5919 H 568.111 1.35606 -0.570026 0
M  V30 5920 H 570.069 4.05531 0.979826 0
M  V30 5921 H 568.699 2.95779 1.29284 0
M  V30 5922 H 567.751 3.66422 -1.02171 0
M  V30 5923 H 569.063 4.85899 -1.12709 0
M  V30 5924 H 568.217 5.9942 0.937056 0
M  V30 5925 H 566.956 4.744 1.13117 0
M  V30 5926 H 565.961 5.39066 -1.08112 0
M  V30 5927 H 567.186 6.6727 -1.26205 0
M  V30 5928 H 565.132 6.48725 0.974295 0
M  V30 5929 H 565.049 7.54981 -0.392398 0
M  V30 5930 H 566.317 7.756 0.778761 0
M  V30 5931 N 570.547 0.616602 1.45037 0
M  V30 5932 C 571.772 0.120192 2.07051 0
M  V30 5933 C 572.197 -1.19008 1.45666 0
M  V30 5934 O 571.555 -1.7267 0.552692 0
M  V30 5935 C 571.603 0.00354901 3.606 0
M  V30 5936 O 570.707 -1.04431 3.98958 0
M  V30 5937 H 570.048 0.0781599 0.659384 0
M  V30 5938 H 572.578 0.849167 1.86146 0
M  V30 5939 H 572.588 -0.191754 4.07549 0
M  V30 5940 H 571.263 0.960239 4.04663 0
M  V30 5941 H 569.84 -0.824749 3.63665 0
M  V30 5942 N 572.025 -1.5352 0.356285 0
M  V30 5943 C 573.302 -1.93405 -0.292223 0
M  V30 5944 C 573.682 -1.28901 -1.67176 0
M  V30 5945 O 573.03 -0.444632 -2.24132 0
M  V30 5946 C 573.24 -3.47223 -0.35175 0
M  V30 5947 C 574.588 -4.20389 -0.596534 0
M  V30 5948 O 575.612 -3.53554 -0.433344 0
M  V30 5949 O 574.471 -5.3881 -0.913589 0
M  V30 5950 H 571.565 -0.808666 -0.173172 0
M  V30 5951 H 574.111 -1.64713 0.408391 0
M  V30 5952 H 572.883 -3.86423 0.615841 0
M  V30 5953 H 572.506 -3.8212 -1.09864 0
M  V30 5954 N 573.503 -0.0852151 -1.57369 0
M  V30 5955 C 574.731 0.58946 -1.98325 0
M  V30 5956 C 575.146 1.62333 -0.96403 0
M  V30 5957 O 574.503 1.82438 0.0476395 0
M  V30 5958 C 574.554 1.24604 -3.39347 0
M  V30 5959 O 574.275 0.253532 -4.37366 0
M  V30 5960 C 575.776 2.00726 -3.95252 0
M  V30 5961 H 572.996 0.158783 -0.651942 0
M  V30 5962 H 575.54 -0.161584 -2.03861 0
M  V30 5963 H 573.695 1.94808 -3.34856 0
M  V30 5964 H 574.109 0.726207 -5.19448 0
M  V30 5965 H 575.583 2.42039 -4.96106 0
M  V30 5966 H 576.06 2.86919 -3.32527 0
M  V30 5967 H 576.666 1.3536 -4.03185 0
M  V30 5968 N 574.981 1.5647 0.188427 0
M  V30 5969 C 576.206 1.85486 0.927891 0
M  V30 5970 C 576.631 0.669575 1.75779 0
M  V30 5971 O 575.989 -0.381573 1.77239 0
M  V30 5972 C 576.037 3.12784 1.7944 0
M  V30 5973 O 575.141 2.93805 2.894 0
M  V30 5974 H 574.482 0.610585 0.260925 0
M  V30 5975 H 577.012 2.037 0.191729 0
M  V30 5976 H 577.022 3.43749 2.19774 0
M  V30 5977 H 575.697 3.98671 1.18468 0
M  V30 5978 H 574.274 2.74153 2.52774 0
M  V30 5979 N 576.459 -0.456382 1.50847 0
M  V30 5980 C 577.391 -1.57033 1.66953 0
M  V30 5981 C 578.404 -1.53207 0.550593 0
M  V30 5982 O 579.593 -1.58328 0.824285 0
M  V30 5983 C 576.693 -2.95937 1.65149 0
M  V30 5984 C 575.866 -3.24475 2.93317 0
M  V30 5985 C 574.925 -4.43007 2.83957 0
M  V30 5986 O 573.951 -4.42592 3.57912 0
M  V30 5987 N 575.153 -5.45503 1.9851 0
M  V30 5988 H 577.918 -1.43629 2.63042 0
M  V30 5989 H 575.479 -0.645037 1.48495 0
M  V30 5990 H 577.471 -3.73224 1.56481 0
M  V30 5991 H 576.041 -3.03036 0.767343 0
M  V30 5992 H 575.261 -2.35664 3.16 0
M  V30 5993 H 576.549 -3.4036 3.78196 0
M  V30 5994 H 575.947 -5.48668 1.37766 0
M  V30 5995 H 574.504 -6.21716 1.95735 0
M  V30 5996 N 577.937 -1.40673 -0.710563 0
M  V30 5997 C 579.183 -1.39428 -1.47267 0
M  V30 5998 C 579.516 0.00182129 -1.942 0
M  V30 5999 O 578.791 0.971387 -1.68506 0
M  V30 6000 C 579.074 -2.38812 -2.6952 0
M  V30 6001 C 578.927 -3.87467 -2.28449 0
M  V30 6002 C 580.246 -2.3566 -3.71689 0
M  V30 6003 H 577.365 -0.507768 -0.534173 0
M  V30 6004 H 580.007 -1.71843 -0.810547 0
M  V30 6005 H 578.157 -2.113 -3.26013 0
M  V30 6006 H 579.829 -4.25825 -1.77399 0
M  V30 6007 H 578.072 -4.03058 -1.60395 0
M  V30 6008 H 578.743 -4.5253 -3.16103 0
M  V30 6009 H 581.219 -2.6004 -3.24836 0
M  V30 6010 H 580.095 -3.07237 -4.54859 0
M  V30 6011 H 580.356 -1.36996 -4.20339 0
M  V30 6012 N 579.415 0.9433 -1.26252 0
M  V30 6013 C 580.362 2.0417 -1.07625 0
M  V30 6014 C 581.332 1.6609 0.0180738 0
M  V30 6015 O 582.517 1.90276 -0.141289 0
M  V30 6016 C 579.657 3.37653 -0.713043 0
M  V30 6017 C 578.77 3.88783 -1.8834 0
M  V30 6018 C 577.905 5.10642 -1.4635 0
M  V30 6019 C 576.944 5.54028 -2.60229 0
M  V30 6020 N 576.081 6.67092 -2.18936 0
M  V30 6021 H 580.921 2.19436 -2.01623 0
M  V30 6022 H 578.458 1.07519 -1.00389 0
M  V30 6023 H 580.416 4.14391 -0.483358 0
M  V30 6024 H 579.046 3.22241 0.18996 0
M  V30 6025 H 578.098 3.08464 -2.22608 0
M  V30 6026 H 579.41 4.16922 -2.73821 0
M  V30 6027 H 578.564 5.94832 -1.19414 0
M  V30 6028 H 577.303 4.84244 -0.579568 0
M  V30 6029 H 576.308 4.68396 -2.87898 0
M  V30 6030 H 577.533 5.82429 -3.49219 0
M  V30 6031 H 575.479 6.42381 -1.32974 0
M  V30 6032 H 575.396 6.94806 -2.97961 0
M  V30 6033 H 576.664 7.54662 -1.95206 0
M  V30 6034 N 580.893 1.08022 1.14757 0
M  V30 6035 C 581.856 0.71048 2.1791 0
M  V30 6036 C 582.856 -0.252731 1.58801 0
M  V30 6037 O 584.046 -0.0327915 1.74169 0
M  V30 6038 C 581.178 0.0483203 3.40866 0
M  V30 6039 H 582.371 1.62384 2.52134 0
M  V30 6040 H 579.924 0.877595 1.29337 0
M  V30 6041 H 580.659 -0.876959 3.12218 0
M  V30 6042 H 580.444 0.741189 3.85031 0
M  V30 6043 H 581.934 -0.195471 4.17142 0
M  V30 6044 N 582.371 -1.3172 0.865308 0
M  V30 6045 C 583.334 -2.26918 0.322627 0
M  V30 6046 C 584.334 -1.52031 -0.523751 0
M  V30 6047 O 585.524 -1.70973 -0.333727 0
M  V30 6048 C 582.656 -3.36558 -0.542338 0
M  V30 6049 H 583.849 -2.76432 1.16298 0
M  V30 6050 H 581.402 -1.42573 0.640512 0
M  V30 6051 H 582.137 -2.92329 -1.40407 0
M  V30 6052 H 581.922 -3.92048 0.0636395 0
M  V30 6053 H 583.412 -4.07465 -0.91446 0
M  V30 6054 N 583.85 -0.624285 -1.44708 0
M  V30 6055 C 585.098 -0.125802 -2.01708 0
M  V30 6056 C 585.418 1.2543 -1.49306 0
M  V30 6057 O 584.689 1.83198 -0.693924 0
M  V30 6058 H 583.269 -0.0435161 -0.745731 0
M  V30 6059 H 585.931 -0.809446 -1.77296 0
M  V30 6060 H 585.027 -0.0882734 -3.11975 0
M  V30 6061 N 585.328 1.53329 -0.364422 0
M  V30 6062 C 586.744 1.59594 -0.0133165 0
M  V30 6063 C 586.944 1.37959 1.46865 0
M  V30 6064 O 586 1.18418 2.2301 0
M  V30 6065 C 587.313 2.97032 -0.468213 0
M  V30 6066 C 588.861 3.10138 -0.422334 0
M  V30 6067 C 589.336 4.49986 -0.853024 0
M  V30 6068 N 590.827 4.56098 -0.808037 0
M  V30 6069 C 591.562 5.62495 -1.11299 0
M  V30 6070 N 591.058 6.7665 -1.48717 0
M  V30 6071 N 592.851 5.52473 -1.03586 0
M  V30 6072 H 585.002 1.65644 -1.32951 0
M  V30 6073 H 587.265 0.77684 -0.543345 0
M  V30 6074 H 586.971 3.18 -1.5023 0
M  V30 6075 H 586.845 3.76918 0.145775 0
M  V30 6076 H 589.232 2.88881 0.602622 0
M  V30 6077 H 589.313 2.32263 -1.0718 0
M  V30 6078 H 588.957 4.7198 -1.87609 0
M  V30 6079 H 588.887 5.26289 -0.180819 0
M  V30 6080 H 591.378 3.74131 -0.532361 0
M  V30 6081 H 591.691 7.53776 -1.70415 0
M  V30 6082 H 590.036 6.78044 -1.52581 0
M  V30 6083 H 593.227 4.6217 -0.742736 0
M  V30 6084 H 593.4 6.35295 -1.27686 0
M  V30 6085 N 586.806 0.0935595 1.57322 0
M  V30 6086 C 588.036 -0.578095 1.98347 0
M  V30 6087 C 588.444 -1.62357 0.971441 0
M  V30 6088 O 587.787 -1.83639 -0.0473959 0
M  V30 6089 C 587.849 -1.28525 3.3574 0
M  V30 6090 C 587.513 -0.390714 4.55327 0
M  V30 6091 C 588.51 0.360522 5.18648 0
M  V30 6092 C 586.195 -0.309221 5.01347 0
M  V30 6093 C 588.189 1.18125 6.26359 0
M  V30 6094 C 585.876 0.515157 6.08925 0
M  V30 6095 C 586.874 1.25904 6.71295 0
M  V30 6096 O 586.562 2.06978 7.76798 0
M  V30 6097 H 586.294 -0.159767 0.656849 0
M  V30 6098 H 588.848 0.169058 2.04703 0
M  V30 6099 H 587.078 -2.07894 3.26063 0
M  V30 6100 H 588.767 -1.85128 3.61223 0
M  V30 6101 H 589.533 0.307285 4.84026 0
M  V30 6102 H 585.412 -0.877881 4.52564 0
M  V30 6103 H 588.956 1.76236 6.74971 0
M  V30 6104 H 584.853 0.56988 6.42979 0
M  V30 6105 H 585.621 1.99644 7.93779 0
M  V30 6106 N 588.284 -1.56567 -0.180126 0
M  V30 6107 C 589.234 -1.92132 -1.22756 0
M  V30 6108 C 590.218 -0.788639 -1.40247 0
M  V30 6109 O 591.41 -1.05171 -1.42366 0
M  V30 6110 C 588.539 -2.27719 -2.56902 0
M  V30 6111 C 587.625 -3.47481 -2.43142 0
M  V30 6112 N 588.016 -4.64973 -1.99082 0
M  V30 6113 C 586.314 -3.51914 -2.73994 0
M  V30 6114 C 587.015 -5.47119 -1.97574 0
M  V30 6115 N 585.991 -4.87925 -2.39645 0
M  V30 6116 H 589.793 -2.80464 -0.878478 0
M  V30 6117 H 587.307 -1.57686 -0.388463 0
M  V30 6118 H 589.304 -2.51389 -3.32579 0
M  V30 6119 H 587.964 -1.40722 -2.92621 0
M  V30 6120 H 588.975 -4.89358 -1.69557 0
M  V30 6121 H 585.652 -2.75372 -3.13809 0
M  V30 6122 H 587.042 -6.51254 -1.65282 0
M  V30 6123 N 589.762 0.448376 -1.51087 0
M  V30 6124 C 590.71 1.56407 -1.72161 0
M  V30 6125 C 591.704 1.58878 -0.587721 0
M  V30 6126 O 592.91 1.62755 -0.768822 0
M  V30 6127 H 589.285 0.519423 -0.543786 0
M  V30 6128 H 591.256 1.35803 -2.65707 0
M  V30 6129 C 590.005 2.94163 -1.85373 0
M  V30 6130 H 589.328 2.9299 -2.72024 0
M  V30 6131 H 590.768 3.71625 -2.04135 0
M  V30 6132 C 589.227 3.31317 -0.610803 0
M  V30 6133 O 589.757 4.00985 0.239636 0
M  V30 6134 N 587.963 2.86966 -0.458127 0
M  V30 6135 H 587.51 2.30443 -1.15124 0
M  V30 6136 H 587.468 3.12188 0.372289 0
M  V30 6137 N 591.24 1.41047 0.703093 0
M  V30 6138 C 592.172 1.38228 1.82827 0
M  V30 6139 C 593.185 0.285637 1.60275 0
M  V30 6140 O 594.374 0.54685 1.69917 0
M  V30 6141 C 591.474 1.13136 3.19458 0
M  V30 6142 C 590.647 2.34695 3.69103 0
M  V30 6143 C 589.706 2.05574 4.84382 0
M  V30 6144 O 588.732 2.78549 4.96386 0
M  V30 6145 N 589.934 1.04135 5.71083 0
M  V30 6146 H 592.699 2.35203 1.85741 0
M  V30 6147 H 590.26 1.35562 0.885125 0
M  V30 6148 H 592.252 0.916183 3.94193 0
M  V30 6149 H 590.822 0.247836 3.11616 0
M  V30 6150 H 590.042 2.71963 2.85359 0
M  V30 6151 H 591.33 3.15705 3.99009 0
M  V30 6152 H 590.728 0.43722 5.64008 0
M  V30 6153 H 589.285 0.886078 6.45749 0
M  V30 6154 N 592.718 -0.936591 1.26751 0
M  V30 6155 C 593.946 -1.71758 1.15355 0
M  V30 6156 C 594.361 -1.86549 -0.290683 0
M  V30 6157 O 593.718 -1.37616 -1.19868 0
M  V30 6158 C 593.769 -3.12193 1.82258 0
M  V30 6159 O 593.49 -2.98105 3.21038 0
M  V30 6160 C 594.991 -4.06485 1.76875 0
M  V30 6161 H 592.211 -0.537636 0.401483 0
M  V30 6162 H 594.755 -1.17382 1.67457 0
M  V30 6163 H 592.91 -3.63456 1.34083 0
M  V30 6164 H 593.324 -3.86824 3.54214 0
M  V30 6165 H 594.798 -5.02569 2.28316 0
M  V30 6166 H 595.275 -4.32986 0.736216 0
M  V30 6167 H 595.881 -3.61144 2.24623 0
M  V30 6168 N 594.196 -1.08629 -1.14182 0
M  V30 6169 C 595.126 -0.740003 -2.21464 0
M  V30 6170 C 596.107 0.278591 -1.67803 0
M  V30 6171 O 597.292 0.148461 -1.93632 0
M  V30 6172 C 594.422 -0.150952 -3.46972 0
M  V30 6173 C 593.376 -1.09815 -4.13672 0
M  V30 6174 C 592.702 -0.3712 -5.3341 0
M  V30 6175 C 594.002 -2.43722 -4.61949 0
M  V30 6176 H 595.696 -1.63697 -2.50686 0
M  V30 6177 H 593.242 -0.788526 -1.20492 0
M  V30 6178 H 595.195 0.103325 -4.21273 0
M  V30 6179 H 593.919 0.781164 -3.1712 0
M  V30 6180 H 592.578 -1.33756 -3.41328 0
M  V30 6181 H 592.226 0.564792 -4.99819 0
M  V30 6182 H 591.926 -1.00267 -5.78982 0
M  V30 6183 H 593.45 -0.12503 -6.10472 0
M  V30 6184 H 594.864 -2.24034 -5.27714 0
M  V30 6185 H 593.261 -3.02582 -5.18232 0
M  V30 6186 H 594.331 -3.05082 -3.76899 0
M  V30 6187 N 595.674 1.31259 -0.872281 0
M  V30 6188 C 597.09 1.49283 -0.564521 0
M  V30 6189 C 597.29 1.80243 0.900807 0
M  V30 6190 O 596.346 1.88246 1.68284 0
M  V30 6191 C 597.659 2.62503 -1.46673 0
M  V30 6192 C 599.207 2.76386 -1.46901 0
M  V30 6193 C 599.682 3.92705 -2.35684 0
M  V30 6194 N 601.173 3.99995 -2.33577 0
M  V30 6195 C 601.908 4.89276 -2.98992 0
M  V30 6196 N 601.404 5.83443 -3.73585 0
M  V30 6197 N 603.197 4.82541 -2.88289 0
M  V30 6198 H 595.348 1.09432 -1.82039 0
M  V30 6199 H 597.611 0.540949 -0.77851 0
M  V30 6200 H 597.317 2.46407 -2.50951 0
M  V30 6201 H 597.191 3.58695 -1.16696 0
M  V30 6202 H 599.578 2.91894 -0.433796 0
M  V30 6203 H 599.659 1.80853 -1.80903 0
M  V30 6204 H 599.303 3.77954 -3.39283 0
M  V30 6205 H 599.233 4.87549 -1.99006 0
M  V30 6206 H 601.724 3.32624 -1.7936 0
M  V30 6207 H 602.037 6.48303 -4.20622 0
M  V30 6208 H 600.382 5.83415 -3.77694 0
M  V30 6209 H 603.573 4.07951 -2.2955 0
M  V30 6210 H 603.746 5.51916 -3.39549 0
M  V30 6211 N 597.152 0.631951 1.44375 0
M  V30 6212 C 598.382 0.143658 2.061 0
M  V30 6213 C 598.79 -1.18733 1.47306 0
M  V30 6214 O 598.133 -1.73943 0.590724 0
M  V30 6215 C 598.195 -0.0446102 3.59472 0
M  V30 6216 C 597.859 1.20835 4.40736 0
M  V30 6217 C 598.856 2.13224 4.74164 0
M  V30 6218 C 596.541 1.44399 4.81097 0
M  V30 6219 C 598.535 3.27487 5.46838 0
M  V30 6220 C 596.222 2.58959 5.53519 0
M  V30 6221 C 597.22 3.50329 5.86309 0
M  V30 6222 O 596.908 4.62891 6.57257 0
M  V30 6223 H 596.64 0.0772939 0.671567 0
M  V30 6224 H 599.194 0.866677 1.8622 0
M  V30 6225 H 597.424 -0.822783 3.77845 0
M  V30 6226 H 599.113 -0.487561 4.02961 0
M  V30 6227 H 599.879 1.96253 4.4352 0
M  V30 6228 H 595.758 0.741696 4.54994 0
M  V30 6229 H 599.302 3.98826 5.72349 0
M  V30 6230 H 595.199 2.75873 5.83579 0
M  V30 6231 H 595.967 4.61883 6.75726 0
M  V30 6232 N 598.631 -1.53133 0.372548 0
M  V30 6233 C 599.856 -2.0625 -0.218098 0
M  V30 6234 C 600.281 -1.24375 -1.41111 0
M  V30 6235 O 599.639 -0.264554 -1.79359 0
M  V30 6236 C 599.687 -3.55858 -0.582876 0
M  V30 6237 O 598.791 -3.76667 -1.67917 0
M  V30 6238 H 598.132 -0.663317 -0.030104 0
M  V30 6239 H 600.662 -1.97477 0.535169 0
M  V30 6240 H 600.672 -3.99007 -0.851925 0
M  V30 6241 H 599.347 -4.14892 0.289428 0
M  V30 6242 H 597.924 -3.45413 -1.40513 0
M  V30 6243 N 600.109 -0.101901 -1.5727 0
M  V30 6244 C 601.386 0.602832 -1.86079 0
M  V30 6245 C 601.766 1.85912 -1 0
M  V30 6246 O 601.114 2.28379 -0.0742488 0
M  V30 6247 C 601.324 0.911694 -3.36881 0
M  V30 6248 C 602.672 1.2722 -4.05093 0
M  V30 6249 O 603.696 1.0025 -3.41802 0
M  V30 6250 O 602.555 1.7776 -5.16782 0
M  V30 6251 H 599.649 0.302366 -0.769743 0
M  V30 6252 H 602.195 -0.135113 -1.69161 0
M  V30 6253 H 600.967 0.0207256 -3.91295 0
M  V30 6254 H 600.59 1.70538 -3.59169 0
M  V30 6255 N 601.587 1.56661 0.17182 0
M  V30 6256 C 602.835 1.81606 0.886774 0
M  V30 6257 C 603.156 0.678818 1.82803 0
M  V30 6258 O 602.426 -0.301354 1.93568 0
M  V30 6259 H 601.006 0.669934 0.330451 0
M  V30 6260 H 603.668 1.94142 0.171757 0
M  V30 6261 H 602.764 2.75634 1.46398 0
M  V30 6262 N 603.065 -0.440357 1.51323 0
M  V30 6263 C 604.342 -1.20109 1.5438 0
M  V30 6264 C 604.722 -2.08866 0.306303 0
M  V30 6265 O 604.07 -2.1723 -0.708773 0
M  V30 6266 C 604.28 -2.00555 2.8562 0
M  V30 6267 C 605.628 -2.577 3.37455 0
M  V30 6268 O 606.652 -2.10769 2.8715 0
M  V30 6269 O 605.511 -3.43289 4.25224 0
M  V30 6270 H 602.605 -0.546668 0.620551 0
M  V30 6271 H 605.151 -0.449672 1.63634 0
M  V30 6272 H 603.923 -1.35346 3.67147 0
M  V30 6273 H 603.546 -2.82768 2.79514 0
M  V30 6274 N 604.543 -1.41418 -0.695603 0
M  V30 6275 C 605.473 -1.46035 -1.82197 0
M  V30 6276 C 606.454 -0.319025 -1.67082 0
M  V30 6277 O 607.639 -0.530462 -1.86815 0
M  V30 6278 C 604.769 -1.34179 -3.20333 0
M  V30 6279 C 603.723 -2.46123 -3.50154 0
M  V30 6280 C 603.049 -2.19332 -4.87645 0
M  V30 6281 C 604.349 -3.88463 -3.49133 0
M  V30 6282 H 606.043 -2.40303 -1.78591 0
M  V30 6283 H 603.589 -1.15663 -0.857797 0
M  V30 6284 H 605.542 -1.36021 -3.98844 0
M  V30 6285 H 604.266 -0.363952 -3.24566 0
M  V30 6286 H 602.925 -2.43563 -2.73994 0
M  V30 6287 H 602.573 -1.19891 -4.88503 0
M  V30 6288 H 602.273 -2.94344 -5.08562 0
M  V30 6289 H 603.797 -2.22889 -5.68465 0
M  V30 6290 H 605.211 -3.92738 -4.17648 0
M  V30 6291 H 603.608 -4.63158 -3.81582 0
M  V30 6292 H 604.678 -4.16617 -2.48109 0
M  V30 6293 N 606.021 0.929856 -1.27246 0
M  V30 6294 C 607.249 1.71144 -1.16265 0
M  V30 6295 C 607.664 1.867 0.280786 0
M  V30 6296 O 607.021 1.38249 1.19136 0
M  V30 6297 C 607.072 3.11222 -1.83911 0
M  V30 6298 O 606.793 2.96398 -3.22614 0
M  V30 6299 C 608.294 4.05541 -1.79028 0
M  V30 6300 H 605.514 0.535499 -0.404328 0
M  V30 6301 H 608.058 1.16492 -1.68077 0
M  V30 6302 H 606.213 3.6274 -1.36009 0
M  V30 6303 H 606.627 3.8494 -3.56261 0
M  V30 6304 H 608.101 5.01351 -2.30978 0
M  V30 6305 H 608.578 4.32589 -0.759168 0
M  V30 6306 H 609.184 3.59947 -2.26535 0
M  V30 6307 N 607.499 1.09233 1.13605 0
M  V30 6308 C 608.429 0.751738 2.21068 0
M  V30 6309 C 609.41 -0.269688 1.67948 0
M  V30 6310 O 610.595 -0.13819 1.93708 0
M  V30 6311 C 607.725 0.16935 3.46887 0
M  V30 6312 C 606.679 1.12007 4.13084 0
M  V30 6313 C 606.005 0.399483 5.33206 0
M  V30 6314 C 607.305 2.46168 4.6065 0
M  V30 6315 H 608.999 1.65024 2.49815 0
M  V30 6316 H 606.545 0.794905 1.20072 0
M  V30 6317 H 608.498 -0.0809824 4.21322 0
M  V30 6318 H 607.222 -0.764335 3.1753 0
M  V30 6319 H 605.881 1.35564 3.40614 0
M  V30 6320 H 605.529 -0.538277 5.00112 0
M  V30 6321 H 605.229 1.03337 5.78442 0
M  V30 6322 H 606.753 0.157403 6.10397 0
M  V30 6323 H 608.167 2.26829 5.26518 0
M  V30 6324 H 606.564 3.05326 5.1662 0
M  V30 6325 H 607.634 3.07076 3.75276 0
M  V30 6326 N 608.977 -1.30795 0.87923 0
M  V30 6327 C 610.226 -1.95636 0.490875 0
M  V30 6328 C 610.539 -1.70214 -0.963674 0
M  V30 6329 O 611.745 -2.28991 -1.45861 0
M  V30 6330 C 610.201 -3.50271 0.826929 0
M  V30 6331 C 609.809 -3.84521 2.29886 0
M  V30 6332 C 611.553 -4.21456 0.507494 0
M  V30 6333 C 609.46 -5.32309 2.57685 0
M  V30 6334 H 608.39 -0.732238 0.179841 0
M  V30 6335 H 611.041 -1.48829 1.07341 0
M  V30 6336 H 609.423 -3.9562 0.173542 0
M  V30 6337 H 610.597 -3.50102 2.99609 0
M  V30 6338 H 608.912 -3.26425 2.58526 0
M  V30 6339 H 611.509 -5.30199 0.692293 0
M  V30 6340 H 611.852 -4.12614 -0.552718 0
M  V30 6341 H 612.385 -3.81772 1.11782 0
M  V30 6342 H 609.124 -5.46195 3.62424 0
M  V30 6343 H 608.644 -5.68048 1.92566 0
M  V30 6344 H 610.323 -5.99678 2.42889 0
M  V30 6345 N 610.455 -0.639598 -1.44038 0
M  V30 6346 C 611.685 -0.154586 -2.06021 0
M  V30 6347 C 612.093 1.17951 -1.47933 0
M  V30 6348 O 611.436 1.73627 -0.59994 0
M  V30 6349 C 611.498 0.0255459 -3.59491 0
M  V30 6350 C 611.162 -1.2317 -4.40089 0
M  V30 6351 C 612.159 -2.15735 -4.73027 0
M  V30 6352 C 609.844 -1.46949 -4.80324 0
M  V30 6353 C 611.838 -3.30382 -5.45093 0
M  V30 6354 C 609.525 -2.61891 -5.52138 0
M  V30 6355 C 610.523 -3.53433 -5.84443 0
M  V30 6356 O 610.211 -4.6637 -6.54793 0
M  V30 6357 H 609.943 -0.0808543 -0.671147 0
M  V30 6358 H 612.497 -0.876541 -1.85758 0
M  V30 6359 H 610.727 0.802733 -3.78276 0
M  V30 6360 H 612.416 0.466184 -4.03214 0
M  V30 6361 H 613.182 -1.98602 -4.42473 0
M  V30 6362 H 609.061 -0.765815 -4.54595 0
M  V30 6363 H 612.605 -4.01856 -5.70226 0
M  V30 6364 H 608.502 -2.78964 -5.82108 0
M  V30 6365 H 609.27 -4.6546 -6.73267 0
M  V30 6366 N 611.933 1.52934 -0.380664 0
M  V30 6367 C 613.18 2.01467 0.204278 0
M  V30 6368 C 613.508 1.26744 1.47533 0
M  V30 6369 O 612.763 0.353723 1.92477 0
M  V30 6370 C 613.062 3.5349 0.527199 0
M  V30 6371 C 612.728 4.46171 -0.651295 0
M  V30 6372 C 611.39 4.71227 -0.974619 0
M  V30 6373 C 613.742 5.00909 -1.44012 0
M  V30 6374 C 611.07 5.4827 -2.08847 0
M  V30 6375 C 613.422 5.7917 -2.5445 0
M  V30 6376 C 612.086 6.02507 -2.87301 0
M  V30 6377 H 611.356 0.73722 0.0747504 0
M  V30 6378 H 614.003 1.84411 -0.516234 0
M  V30 6379 H 612.308 3.68574 1.32892 0
M  V30 6380 H 614.005 3.88529 0.992283 0
M  V30 6381 H 610.595 4.26829 -0.389276 0
M  V30 6382 H 614.779 4.81485 -1.20357 0
M  V30 6383 H 610.035 5.64567 -2.34679 0
M  V30 6384 H 614.209 6.20588 -3.1598 0
M  V30 6385 H 611.836 6.61989 -3.7373 0
M  V30 6386 N 613.412 0.11024 1.57214 0
M  V30 6387 C 614.66 -0.548783 1.94506 0
M  V30 6388 C 614.981 -1.67772 0.99386 0
M  V30 6389 O 614.251 -1.9584 0.0485841 0
M  V30 6390 H 612.831 -0.205715 0.718116 0
M  V30 6391 H 615.493 0.177127 1.94093 0
M  V30 6392 H 614.589 -0.949096 2.97319 0
M  V30 6393 N 614.89 -1.56749 -0.16351 0
M  V30 6394 C 616.138 -1.82074 -0.87713 0
M  V30 6395 C 616.459 -0.688503 -1.82441 0
M  V30 6396 O 615.729 0.291085 -1.93725 0
M  V30 6397 H 614.309 -0.671677 -0.326893 0
M  V30 6398 H 616.971 -1.9423 -0.161459 0
M  V30 6399 H 616.067 -2.76407 -1.44934 0
M  V30 6400 N 616.368 0.432326 -1.51554 0
M  V30 6401 C 617.645 1.19288 -1.55015 0
M  V30 6402 C 618.025 2.08701 -0.317375 0
M  V30 6403 O 617.373 2.17602 0.697243 0
M  V30 6404 C 617.583 1.99037 -2.86679 0
M  V30 6405 C 618.931 2.55907 -3.38817 0
M  V30 6406 O 619.955 2.09243 -2.88263 0
M  V30 6407 O 618.814 3.41029 -4.27038 0
M  V30 6408 H 615.908 0.543369 -0.623441 0
M  V30 6409 H 618.454 0.440988 -1.6387 0
M  V30 6410 H 617.226 1.33397 -3.6786 0
M  V30 6411 H 616.849 2.81281 -2.8101 0
M  V30 6412 N 617.846 1.41785 0.688094 0
M  V30 6413 C 618.756 1.46596 1.83158 0
M  V30 6414 C 619.772 0.355862 1.70322 0
M  V30 6415 O 620.948 0.604737 1.92106 0
M  V30 6416 C 618.013 1.35322 3.192 0
M  V30 6417 C 617.074 2.56711 3.4409 0
M  V30 6418 C 616.307 2.45965 4.73642 0
M  V30 6419 O 616.53 1.48827 5.50642 0
M  V30 6420 O 615.464 3.35859 4.99482 0
M  V30 6421 H 619.29 2.43083 1.82056 0
M  V30 6422 H 616.875 1.23404 0.842126 0
M  V30 6423 H 618.757 1.31347 4.00407 0
M  V30 6424 H 617.432 0.419536 3.2097 0
M  V30 6425 H 616.339 2.66262 2.62784 0
M  V30 6426 H 617.672 3.48933 3.47141 0
M  V30 6427 N 619.324 -0.923095 1.27737 0
M  V30 6428 C 620.564 -1.6858 1.15586 0
M  V30 6429 C 620.928 -1.89758 -0.292562 0
M  V30 6430 O 622.129 -2.6339 -0.536583 0
M  V30 6431 C 620.4 -3.01275 1.92271 0
M  V30 6432 S 621.959 -3.924 1.96387 0
M  V30 6433 H 618.777 -0.579069 0.412554 0
M  V30 6434 H 621.379 -1.09866 1.61709 0
M  V30 6435 H 620.083 -2.83556 2.96689 0
M  V30 6436 H 619.614 -3.6504 1.46661 0
M  V30 6437 H 621.629 -4.84667 1.06361 0
M  V30 6438 N 620.802 -1.09834 -1.13024 0
M  V30 6439 C 622.027 -0.85909 -1.88771 0
M  V30 6440 C 622.452 0.584402 -1.78791 0
M  V30 6441 O 621.81 1.41101 -1.13842 0
M  V30 6442 C 621.858 -1.30427 -3.36186 0
M  V30 6443 O 620.962 -0.465368 -4.09766 0
M  V30 6444 H 620.303 -0.310786 -0.586778 0
M  V30 6445 H 622.833 -1.46355 -1.42973 0
M  V30 6446 H 622.843 -1.2915 -3.8702 0
M  V30 6447 H 621.518 -2.3555 -3.42767 0
M  V30 6448 H 620.095 -0.542814 -3.68928 0
M  V30 6449 N 622.28 1.30327 -0.886154 0
M  V30 6450 C 623.505 2.0079 -0.519425 0
M  V30 6451 C 623.93 1.65979 0.885013 0
M  V30 6452 O 623.288 0.877043 1.58675 0
M  V30 6453 C 623.336 3.53686 -0.702758 0
M  V30 6454 O 622.44 4.11637 0.250828 0
M  V30 6455 H 621.781 0.63171 -0.204544 0
M  V30 6456 H 624.311 1.66145 -1.19402 0
M  V30 6457 H 624.321 4.03531 -0.602207 0
M  V30 6458 H 622.996 3.78361 -1.72673 0
M  V30 6459 H 621.573 3.72755 0.103873 0
M  V30 6460 N 623.758 0.647228 1.43697 0
M  V30 6461 C 625.006 0.157876 2.01482 0
M  V30 6462 C 625.327 -1.23039 1.51282 0
M  V30 6463 O 624.597 -1.82071 0.722982 0
M  V30 6464 H 623.177 0.0553745 0.744945 0
M  V30 6465 H 625.839 0.83755 1.75986 0
M  V30 6466 H 624.935 0.137895 3.11795 0
M  V30 6467 N 625.236 -1.5273 0.388769 0
M  V30 6468 C 626.483 -2.01573 -0.19359 0
M  V30 6469 C 626.811 -1.27525 -1.46859 0
M  V30 6470 O 626.066 -0.363926 -1.92286 0
M  V30 6471 C 626.365 -3.53765 -0.508445 0
M  V30 6472 C 626.031 -4.4582 0.674947 0
M  V30 6473 C 624.693 -4.70703 0.999596 0
M  V30 6474 C 627.045 -5.00138 1.46666 0
M  V30 6475 C 624.373 -5.47155 2.11751 0
M  V30 6476 C 626.725 -5.77812 2.57518 0
M  V30 6477 C 625.389 -6.00975 2.90492 0
M  V30 6478 H 624.659 -0.737606 -0.0708397 0
M  V30 6479 H 627.306 -1.84134 0.526006 0
M  V30 6480 H 625.611 -3.69274 -1.30936 0
M  V30 6481 H 627.308 -3.8905 -0.971664 0
M  V30 6482 H 623.898 -4.26616 0.411906 0
M  V30 6483 H 628.082 -4.8084 1.22909 0
M  V30 6484 H 623.338 -5.63314 2.3767 0
M  V30 6485 H 627.512 -6.18904 3.19267 0
M  V30 6486 H 625.139 -6.59998 3.77236 0
M  V30 6487 N 626.714 -0.118576 -1.57153 0
M  V30 6488 C 627.646 0.862247 -2.12363 0
M  V30 6489 C 628.659 1.23025 -1.06625 0
M  V30 6490 O 629.848 1.17927 -1.33998 0
M  V30 6491 C 626.948 2.16425 -2.60794 0
M  V30 6492 C 626.121 1.96801 -3.90626 0
M  V30 6493 C 625.18 3.10726 -4.2466 0
M  V30 6494 O 624.206 2.83659 -4.93484 0
M  V30 6495 N 625.408 4.37147 -3.81946 0
M  V30 6496 H 628.173 0.390564 -2.97144 0
M  V30 6497 H 625.734 0.0658591 -1.61766 0
M  V30 6498 H 627.726 2.91633 -2.80593 0
M  V30 6499 H 626.296 2.54943 -1.80895 0
M  V30 6500 H 625.516 1.05787 -3.7974 0
M  V30 6501 H 626.804 1.80993 -4.7552 0
M  V30 6502 H 626.202 4.62014 -3.26435 0
M  V30 6503 H 624.759 5.09229 -4.06853 0
M  V30 6504 N 628.193 1.56834 0.155195 0
M  V30 6505 C 629.609 1.51315 0.50755 0
M  V30 6506 C 629.809 0.825614 1.83809 0
M  V30 6507 O 628.865 0.39271 2.49427 0
M  V30 6508 C 630.178 2.96074 0.52542 0
M  V30 6509 C 631.726 3.06968 0.611505 0
M  V30 6510 C 632.201 4.53218 0.660115 0
M  V30 6511 N 633.692 4.5753 0.722564 0
M  V30 6512 C 634.427 5.68056 0.781023 0
M  V30 6513 N 633.923 6.88173 0.799327 0
M  V30 6514 N 635.716 5.56068 0.821278 0
M  V30 6515 H 627.867 1.9993 -0.717063 0
M  V30 6516 H 630.13 0.911507 -0.260496 0
M  V30 6517 H 629.836 3.49599 -0.383875 0
M  V30 6518 H 629.71 3.51587 1.36624 0
M  V30 6519 H 632.097 2.53468 1.51122 0
M  V30 6520 H 632.178 2.54513 -0.256306 0
M  V30 6521 H 631.822 5.07354 -0.23541 0
M  V30 6522 H 631.752 5.03447 1.5443 0
M  V30 6523 H 634.243 3.71054 0.716049 0
M  V30 6524 H 634.556 7.6816 0.845553 0
M  V30 6525 H 632.901 6.90751 0.767337 0
M  V30 6526 H 636.092 4.61142 0.804091 0
M  V30 6527 H 636.265 6.42223 0.863372 0
M  V30 6528 N 629.671 -0.424282 1.51781 0
M  V30 6529 C 630.604 -1.53633 1.68737 0
M  V30 6530 C 631.582 -1.53549 0.534915 0
M  V30 6531 O 632.766 -1.72483 0.760391 0
M  V30 6532 C 629.893 -2.92195 1.71288 0
M  V30 6533 C 628.939 -3.10251 2.92654 0
M  V30 6534 S 629.772 -2.85166 4.53256 0
M  V30 6535 C 630.928 -4.25986 4.58571 0
M  V30 6536 H 631.161 -1.39018 2.62795 0
M  V30 6537 H 628.694 -0.614854 1.41629 0
M  V30 6538 H 630.652 -3.72059 1.73443 0
M  V30 6539 H 629.313 -3.04162 0.783847 0
M  V30 6540 H 628.506 -4.1159 2.90877 0
M  V30 6541 H 628.108 -2.38231 2.88308 0
M  V30 6542 H 630.4 -5.19392 4.35015 0
M  V30 6543 H 631.343 -4.32792 5.60444 0
M  V30 6544 H 631.751 -4.1025 3.87757 0
M  V30 6545 N 631.149 -1.42148 -0.680565 0
M  V30 6546 C 632.374 -1.45901 -1.47403 0
M  V30 6547 C 632.799 -0.0700985 -1.87969 0
M  V30 6548 O 632.157 0.930145 -1.55621 0
M  V30 6549 C 632.205 -2.38661 -2.70321 0
M  V30 6550 O 631.309 -1.85399 -3.68376 0
M  V30 6551 H 630.65 -0.494565 -0.443059 0
M  V30 6552 H 633.18 -1.86774 -0.835251 0
M  V30 6553 H 633.19 -2.55046 -3.18458 0
M  V30 6554 H 631.865 -3.39571 -2.40134 0
M  V30 6555 H 630.442 -1.78541 -3.2738 0
M  V30 6556 N 632.627 0.916307 -1.28225 0
M  V30 6557 C 633.873 1.66765 -1.154 0
M  V30 6558 C 634.206 1.91912 0.297251 0
M  V30 6559 O 633.481 1.51766 1.21644 0
M  V30 6560 C 633.764 3.02715 -1.95028 0
M  V30 6561 C 633.617 2.84738 -3.48201 0
M  V30 6562 C 634.936 4.03215 -1.76369 0
M  V30 6563 H 632.055 0.605205 -0.42059 0
M  V30 6564 H 634.697 1.06255 -1.57512 0
M  V30 6565 H 632.847 3.54365 -1.59242 0
M  V30 6566 H 634.519 2.40118 -3.9388 0
M  V30 6567 H 632.762 2.19848 -3.73964 0
M  V30 6568 H 633.433 3.8127 -3.99171 0
M  V30 6569 H 635.909 3.60617 -2.07593 0
M  V30 6570 H 634.785 4.96306 -2.34459 0
M  V30 6571 H 635.046 4.36288 -0.71452 0
M  V30 6572 N 634.105 1.10431 1.1244 0
M  V30 6573 C 635.354 0.841539 1.83306 0
M  V30 6574 C 635.667 -0.634961 1.85007 0
M  V30 6575 O 636.873 -1.01363 2.51869 0
M  V30 6576 C 635.329 1.45565 3.29149 0
M  V30 6577 C 634.937 2.96544 3.35806 0
M  V30 6578 C 636.681 1.27227 4.04986 0
M  V30 6579 C 634.588 3.5099 4.75983 0
M  V30 6580 H 633.518 0.311156 0.686803 0
M  V30 6581 H 636.169 1.32829 1.26604 0
M  V30 6582 H 634.551 0.896574 3.85717 0
M  V30 6583 H 635.725 3.58766 2.89177 0
M  V30 6584 H 634.04 3.14036 2.73442 0
M  V30 6585 H 636.637 1.65348 5.08492 0
M  V30 6586 H 636.98 0.213834 4.1575 0
M  V30 6587 H 637.513 1.79941 3.54776 0
M  V30 6588 H 634.252 4.56499 4.70413 0
M  V30 6589 H 633.772 2.93535 5.23065 0
M  V30 6590 H 635.451 3.48808 5.44924 0
M  V30 6591 N 635.583 -1.29855 0.893053 0
M  V30 6592 C 636.531 -2.29867 0.355512 0
M  V30 6593 C 637.525 -1.60502 -0.541801 0
M  V30 6594 O 638.731 -1.74902 -0.425339 0
M  V30 6595 H 635.106 -0.745805 0.0963247 0
M  V30 6596 H 637.077 -2.72655 1.21252 0
M  V30 6597 C 635.826 -3.453 -0.407801 0
M  V30 6598 H 635.149 -3.98864 0.273426 0
M  V30 6599 H 636.589 -4.17334 -0.748887 0
M  V30 6600 C 635.048 -2.96051 -1.60795 0
M  V30 6601 O 635.578 -2.96763 -2.7073 0
M  V30 6602 N 633.784 -2.51963 -1.44786 0
M  V30 6603 H 633.331 -2.51583 -0.553498 0
M  V30 6604 H 633.289 -2.1937 -2.2522 0
M  V30 6605 N 637.061 -0.65484 -1.43351 0
M  V30 6606 C 638.308 -0.168892 -2.01794 0
M  V30 6607 C 638.636 1.2177 -1.51665 0
M  V30 6608 O 637.891 1.82717 -0.70092 0
M  V30 6609 C 638.19 -0.130424 -3.57162 0
M  V30 6610 C 637.856 -1.45898 -4.26643 0
M  V30 6611 C 636.518 -1.82279 -4.4534 0
M  V30 6612 C 638.87 -2.33485 -4.65976 0
M  V30 6613 C 636.198 -3.0591 -5.00635 0
M  V30 6614 C 638.55 -3.5641 -5.22642 0
M  V30 6615 C 637.214 -3.92985 -5.39555 0
M  V30 6616 H 636.484 -0.061802 -0.738418 0
M  V30 6617 H 639.131 -0.845869 -1.71806 0
M  V30 6618 H 637.436 0.630008 -3.86702 0
M  V30 6619 H 639.133 0.262465 -4.0014 0
M  V30 6620 H 635.723 -1.16591 -4.12437 0
M  V30 6621 H 639.907 -2.06668 -4.51223 0
M  V30 6622 H 635.163 -3.34295 -5.11915 0
M  V30 6623 H 639.337 -4.24495 -5.52066 0
M  V30 6624 H 636.964 -4.88862 -5.82167 0
M  V30 6625 N 638.539 1.52521 -0.396863 0
M  V30 6626 C 639.449 2.30403 0.44178 0
M  V30 6627 C 640.465 1.37625 1.06468 0
M  V30 6628 O 641.641 1.70697 1.06886 0
M  V30 6629 C 638.706 3.1013 1.54986 0
M  V30 6630 C 637.767 4.18628 0.951279 0
M  V30 6631 C 637 4.94543 2.00655 0
M  V30 6632 O 637.223 4.70629 3.22281 0
M  V30 6633 O 636.157 5.797 1.61962 0
M  V30 6634 H 639.983 3.03087 -0.192892 0
M  V30 6635 H 637.568 1.48537 -0.16038 0
M  V30 6636 H 639.45 3.59816 2.19341 0
M  V30 6637 H 638.125 2.40251 2.16935 0
M  V30 6638 H 637.032 3.73119 0.270773 0
M  V30 6639 H 638.365 4.90763 0.375887 0
M  V30 6640 N 640.017 0.126909 1.57088 0
M  V30 6641 C 641.257 -0.53216 1.97351 0
M  V30 6642 C 641.621 -1.63342 1.00913 0
M  V30 6643 O 642.822 -2.35194 1.30144 0
M  V30 6644 C 641.093 -1.04385 3.41817 0
M  V30 6645 S 642.652 -1.71033 4.04095 0
M  V30 6646 H 639.47 -0.172724 0.689701 0
M  V30 6647 H 642.072 0.213865 1.94327 0
M  V30 6648 H 640.776 -0.231289 4.09748 0
M  V30 6649 H 640.307 -1.82496 3.48509 0
M  V30 6650 H 642.322 -2.99656 3.95501 0
M  V30 6651 N 641.495 -1.56914 -0.146875 0
M  V30 6652 C 642.443 -1.99224 -1.20053 0
M  V30 6653 C 643.437 -0.884661 -1.44465 0
M  V30 6654 O 644.643 -1.06984 -1.44756 0
M  V30 6655 H 641.018 -0.634191 -0.404112 0
M  V30 6656 H 642.989 -2.86998 -0.816987 0
M  V30 6657 C 641.738 -2.38899 -2.52632 0
M  V30 6658 H 641.061 -3.23677 -2.34677 0
M  V30 6659 H 642.501 -2.72326 -3.24984 0
M  V30 6660 C 640.96 -1.2417 -3.13183 0
M  V30 6661 O 641.49 -0.542503 -3.9802 0
M  V30 6662 N 639.696 -1.00592 -2.72635 0
M  V30 6663 H 639.243 -1.57627 -2.03744 0
M  V30 6664 H 639.201 -0.240174 -3.13481 0
M  V30 6665 N 642.974 0.416227 -1.52004 0
M  V30 6666 C 643.921 1.50666 -1.74838 0
M  V30 6667 C 644.891 1.55245 -0.590599 0
M  V30 6668 O 646.076 1.71928 -0.827374 0
M  V30 6669 C 643.216 2.88185 -1.89851 0
M  V30 6670 C 642.329 2.92971 -3.17478 0
M  V30 6671 C 641.464 4.21745 -3.22962 0
M  V30 6672 C 640.503 4.20478 -4.4482 0
M  V30 6673 N 639.64 5.40811 -4.47736 0
M  V30 6674 H 644.48 1.30498 -2.67907 0
M  V30 6675 H 642.017 0.633568 -1.32757 0
M  V30 6676 H 643.975 3.68007 -1.96537 0
M  V30 6677 H 642.605 3.06865 -1.00169 0
M  V30 6678 H 641.657 2.05684 -3.19997 0
M  V30 6679 H 642.969 2.87899 -4.07328 0
M  V30 6680 H 642.123 5.09954 -3.28682 0
M  V30 6681 H 640.862 4.29503 -2.31038 0
M  V30 6682 H 639.867 3.30659 -4.39254 0
M  V30 6683 H 641.092 4.14366 -5.38031 0
M  V30 6684 H 639.038 5.4925 -3.58692 0
M  V30 6685 H 638.955 5.37705 -5.31422 0
M  V30 6686 H 640.223 6.30993 -4.57676 0
M  V30 6687 N 644.452 1.42507 0.673017 0
M  V30 6688 C 645.68 1.46473 1.46128 0
M  V30 6689 C 646.095 0.0765912 1.88645 0
M  V30 6690 O 645.452 -0.909057 1.58248 0
M  V30 6691 C 645.503 2.39339 2.70923 0
M  V30 6692 O 645.224 3.72752 2.3019 0
M  V30 6693 C 646.725 2.52343 3.64469 0
M  V30 6694 H 643.945 0.49812 0.449575 0
M  V30 6695 H 646.489 1.87041 0.826802 0
M  V30 6696 H 644.644 2.02019 3.30556 0
M  V30 6697 H 645.058 4.22503 3.10791 0
M  V30 6698 H 646.532 3.2144 4.48754 0
M  V30 6699 H 647.009 1.56189 4.1049 0
M  V30 6700 H 647.615 2.90392 3.10729 0
M  V30 6701 N 645.93 -0.909495 1.28709 0
M  V30 6702 C 646.893 -1.99399 1.13016 0
M  V30 6703 C 647.893 -1.60654 0.068536 0
M  V30 6704 O 649.083 -1.71334 0.314671 0
M  V30 6705 C 646.215 -3.33078 0.726085 0
M  V30 6706 H 647.408 -2.14751 2.09338 0
M  V30 6707 H 644.961 -1.09272 1.11756 0
M  V30 6708 H 645.696 -3.23428 -0.23771 0
M  V30 6709 H 645.481 -3.62562 1.49302 0
M  V30 6710 H 646.971 -4.12681 0.639058 0
M  V30 6711 N 647.408 -1.11026 -1.11852 0
M  V30 6712 C 648.656 -0.854769 -1.83134 0
M  V30 6713 C 648.977 0.621375 -1.84835 0
M  V30 6714 O 648.247 1.45129 -1.31584 0
M  V30 6715 H 646.827 -0.313229 -0.678157 0
M  V30 6716 H 649.489 -1.40178 -1.35411 0
M  V30 6717 H 648.585 -1.22311 -2.87135 0
M  V30 6718 N 648.886 1.2938 -0.899927 0
M  V30 6719 C 649.834 2.29675 -0.367698 0
M  V30 6720 C 650.828 1.60787 0.533282 0
M  V30 6721 O 652.034 1.75126 0.416058 0
M  V30 6722 H 648.409 0.745284 -0.100279 0
M  V30 6723 H 650.38 2.72008 -1.22696 0
M  V30 6724 C 649.129 3.45512 0.389483 0
M  V30 6725 H 648.452 3.98713 -0.294575 0
M  V30 6726 H 649.892 4.17725 0.726744 0
M  V30 6727 C 648.351 2.969 1.59223 0
M  V30 6728 O 648.881 2.98195 2.69152 0
M  V30 6729 N 647.087 2.52728 1.43447 0
M  V30 6730 H 646.634 2.51873 0.540148 0
M  V30 6731 H 646.592 2.20561 2.24054 0
M  V30 6732 N 650.364 0.662433 1.43002 0
M  V30 6733 C 651.641 0.109096 1.95296 0
M  V30 6734 C 652.021 -1.37313 1.60338 0
M  V30 6735 O 651.369 -2.1032 0.893187 0
M  V30 6736 C 651.579 0.365096 3.47085 0
M  V30 6737 C 652.927 0.274964 4.23709 0
M  V30 6738 O 653.951 0.29816 3.5495 0
M  V30 6739 O 652.81 0.206549 5.4611 0
M  V30 6740 H 649.904 -0.00429724 0.826989 0
M  V30 6741 H 652.45 0.736308 1.52894 0
M  V30 6742 H 651.222 1.39237 3.65689 0
M  V30 6743 H 650.845 -0.294733 3.96506 0
M  V30 6744 N 651.842 -1.52309 0.404946 0
M  V30 6745 C 653.09 -2.01368 -0.17186 0
M  V30 6746 C 653.411 -1.29261 -1.46002 0
M  V30 6747 O 652.681 -0.41729 -1.91404 0
M  V30 6748 H 651.261 -0.744034 -0.0664993 0
M  V30 6749 H 653.923 -1.87263 0.540228 0
M  V30 6750 H 653.019 -3.09888 -0.370957 0
M  V30 6751 N 653.32 -0.135238 -1.57019 0
M  V30 6752 C 654.267 0.808908 -2.1616 0
M  V30 6753 C 655.237 1.25234 -1.09113 0
M  V30 6754 O 656.422 1.32697 -1.37099 0
M  V30 6755 C 653.562 2.04729 -2.77813 0
M  V30 6756 C 652.675 1.65074 -3.99218 0
M  V30 6757 C 651.81 2.84002 -4.48906 0
M  V30 6758 C 650.849 2.40663 -5.62803 0
M  V30 6759 N 649.986 3.5256 -6.07162 0
M  V30 6760 H 654.826 0.297751 -2.96509 0
M  V30 6761 H 652.363 0.135264 -1.46477 0
M  V30 6762 H 654.321 2.7731 -3.11697 0
M  V30 6763 H 652.951 2.53275 -2.00128 0
M  V30 6764 H 652.003 0.823029 -3.7139 0
M  V30 6765 H 653.315 1.29236 -4.81767 0
M  V30 6766 H 652.469 3.64788 -4.84783 0
M  V30 6767 H 651.208 3.23076 -3.65339 0
M  V30 6768 H 650.213 1.58314 -5.26514 0
M  V30 6769 H 651.438 2.02687 -6.48147 0
M  V30 6770 H 649.384 3.91278 -5.26534 0
M  V30 6771 H 649.301 3.20699 -6.84608 0
M  V30 6772 H 650.569 4.33738 -6.47682 0
M  V30 6773 N 654.798 1.5699 0.138552 0
M  V30 6774 C 656.046 1.83446 0.848053 0
M  V30 6775 C 656.367 0.71744 1.81322 0
M  V30 6776 O 655.637 -0.260228 1.94164 0
M  V30 6777 H 654.217 0.676792 0.316166 0
M  V30 6778 H 656.879 1.94462 0.130538 0
M  V30 6779 H 655.975 2.78677 1.40518 0
M  V30 6780 N 656.276 -0.40816 1.52223 0
M  V30 6781 C 657.504 -1.17672 1.70179 0
M  V30 6782 C 657.919 -1.84257 0.411696 0
M  V30 6783 O 657.276 -1.7192 -0.612354 0
M  V30 6784 C 657.327 -2.23911 2.83806 0
M  V30 6785 O 657.048 -1.60044 4.0782 0
M  V30 6786 C 658.549 -3.1364 3.13281 0
M  V30 6787 H 655.769 -0.353562 0.570293 0
M  V30 6788 H 658.313 -0.480083 1.98785 0
M  V30 6789 H 656.468 -2.89242 2.57717 0
M  V30 6790 H 656.882 -2.30484 4.71145 0
M  V30 6791 H 658.356 -3.84255 3.96298 0
M  V30 6792 H 658.833 -3.76066 2.26872 0
M  V30 6793 H 659.439 -2.53977 3.41139 0
M  V30 6794 N 657.755 -1.42862 -0.66545 0
M  V30 6795 C 659.166 -1.3901 -1.24632 0
M  V30 6796 C 659.517 -0.0880285 -1.96002 0
M  V30 6797 O 658.642 0.812947 -2.0055 0
M  V30 6798 C 659.237 -2.51806 -2.2667 0
M  V30 6799 C 657.796 -2.51257 -2.80262 0
M  V30 6800 C 656.943 -2.30124 -1.5472 0
M  V30 6801 H 659.894 -1.5194 -0.458237 0
M  V30 6802 H 659.915 -2.22593 -3.08598 0
M  V30 6803 H 659.427 -3.46558 -1.74697 0
M  V30 6804 H 657.528 -1.60349 -3.36332 0
M  V30 6805 H 657.641 -3.48614 -3.28641 0
M  V30 6806 H 656.005 -1.7856 -1.81627 0
M  V30 6807 H 656.788 -3.26945 -1.04699 0
M  V30 6808 N 659.233 0.902656 -1.29189 0
M  V30 6809 C 660.479 1.65532 -1.17163 0
M  V30 6810 C 660.812 1.92216 0.276879 0
M  V30 6811 O 660.087 1.53048 1.20027 0
M  V30 6812 C 660.37 3.00629 -1.98228 0
M  V30 6813 C 660.223 2.81029 -3.51202 0
M  V30 6814 C 661.542 4.01321 -1.80635 0
M  V30 6815 H 658.661 0.60071 -0.426985 0
M  V30 6816 H 661.303 1.04578 -1.5863 0
M  V30 6817 H 659.453 3.52656 -1.62991 0
M  V30 6818 H 661.125 2.35927 -3.96404 0
M  V30 6819 H 659.368 2.1587 -3.76275 0
M  V30 6820 H 660.039 3.77014 -4.03192 0
M  V30 6821 H 662.515 3.58394 -2.11406 0
M  V30 6822 H 661.391 4.93792 -2.3971 0
M  V30 6823 H 661.652 4.35505 -0.760754 0
M  V30 6824 N 660.711 1.11618 1.11262 0
M  V30 6825 C 661.958 0.86618 1.8304 0
M  V30 6826 C 662.286 -0.608149 1.84748 0
M  V30 6827 O 661.541 -1.46508 1.29745 0
M  V30 6828 C 661.84 1.37529 3.2988 0
M  V30 6829 C 661.506 2.86317 3.4833 0
M  V30 6830 C 660.168 3.26945 3.53073 0
M  V30 6831 C 662.52 3.82136 3.54431 0
M  V30 6832 C 659.848 4.62117 3.61475 0
M  V30 6833 C 662.2 5.17128 3.64365 0
M  V30 6834 C 660.864 5.57312 3.67369 0
M  V30 6835 H 660.134 0.316958 0.66979 0
M  V30 6836 H 662.781 1.3949 1.31205 0
M  V30 6837 H 661.086 0.766842 3.84222 0
M  V30 6838 H 662.783 1.15817 3.83911 0
M  V30 6839 H 659.373 2.53889 3.45309 0
M  V30 6840 H 663.557 3.51847 3.50025 0
M  V30 6841 H 658.813 4.92655 3.62079 0
M  V30 6842 H 662.987 5.91208 3.68029 0
M  V30 6843 H 660.614 6.62045 3.73632 0
M  V30 6844 N 662.189 -1.289 0.906776 0
M  V30 6845 C 663.417 -1.99401 0.551969 0
M  V30 6846 C 663.832 -1.67816 -0.865048 0
M  V30 6847 O 663.189 -0.927078 -1.57199 0
M  V30 6848 C 663.24 -3.53779 0.743152 0
M  V30 6849 O 662.961 -3.84248 2.1044 0
M  V30 6850 C 664.462 -4.41543 0.39424 0
M  V30 6851 H 661.682 -0.636926 0.211106 0
M  V30 6852 H 664.226 -1.64266 1.21807 0
M  V30 6853 H 662.381 -3.87201 0.124143 0
M  V30 6854 H 662.795 -4.78904 2.13895 0
M  V30 6855 H 664.269 -5.48957 0.578814 0
M  V30 6856 H 664.746 -4.34073 -0.669137 0
M  V30 6857 H 665.352 -4.13605 0.990491 0
M  V30 6858 N 663.667 -0.670007 -1.42649 0
M  V30 6859 C 664.915 -0.18991 -2.01206 0
M  V30 6860 C 665.236 1.20617 -1.53221 0
M  V30 6861 O 664.506 1.80898 -0.751856 0
M  V30 6862 H 663.086 -0.0672189 -0.743969 0
M  V30 6863 H 665.748 -0.865442 -1.74631 0
M  V30 6864 H 664.844 -0.187481 -3.11536 0
M  V30 6865 N 665.145 1.52092 -0.413018 0
M  V30 6866 C 666.055 2.30858 0.417318 0
M  V30 6867 C 667.071 1.38746 1.05003 0
M  V30 6868 O 668.247 1.71821 1.05069 0
M  V30 6869 C 665.312 3.11756 1.51687 0
M  V30 6870 C 664.373 4.19613 0.906825 0
M  V30 6871 C 663.606 4.96644 1.95399 0
M  V30 6872 O 663.829 4.7402 3.17271 0
M  V30 6873 O 662.763 5.81385 1.55805 0
M  V30 6874 H 666.589 3.02865 -0.225028 0
M  V30 6875 H 664.174 1.48358 -0.176126 0
M  V30 6876 H 666.056 3.62122 2.15512 0
M  V30 6877 H 664.731 2.42539 2.14375 0
M  V30 6878 H 663.638 3.73385 0.231183 0
M  V30 6879 H 664.971 4.91134 0.323814 0
M  V30 6880 N 666.623 0.143563 1.56945 0
M  V30 6881 C 667.869 -0.50916 1.96304 0
M  V30 6882 C 668.202 -1.64741 1.0283 0
M  V30 6883 O 667.477 -1.94374 0.0700361 0
M  V30 6884 C 667.76 -1.0186 3.45393 0
M  V30 6885 C 667.613 0.117923 4.49645 0
M  V30 6886 C 668.932 -1.90151 3.96901 0
M  V30 6887 H 666.051 -0.183608 0.713763 0
M  V30 6888 H 668.693 0.224095 1.88674 0
M  V30 6889 H 666.843 -1.64345 3.52027 0
M  V30 6890 H 668.515 0.754145 4.55094 0
M  V30 6891 H 666.758 0.777568 4.26774 0
M  V30 6892 H 667.429 -0.280187 5.51288 0
M  V30 6893 H 669.905 -1.375 3.92725 0
M  V30 6894 H 668.781 -2.22707 5.0169 0
M  V30 6895 H 669.042 -2.83718 3.39052 0
M  V30 6896 N 668.101 -1.57061 -0.130224 0
M  V30 6897 C 669.378 -1.75205 -0.869631 0
M  V30 6898 C 669.758 -0.716063 -1.98584 0
M  V30 6899 O 669.106 0.262032 -2.26993 0
M  V30 6900 C 669.316 -3.19835 -1.39666 0
M  V30 6901 C 670.664 -3.82011 -1.85345 0
M  V30 6902 O 671.688 -3.23368 -1.49371 0
M  V30 6903 O 670.547 -4.85064 -2.51744 0
M  V30 6904 H 667.641 -0.716977 -0.412157 0
M  V30 6905 H 670.187 -1.69311 -0.11484 0
M  V30 6906 H 668.959 -3.86745 -0.595288 0
M  V30 6907 H 668.582 -3.30222 -2.21448 0
M  V30 6908 N 669.579 0.400081 -1.52437 0
M  V30 6909 C 670.819 1.15526 -1.68622 0
M  V30 6910 C 671.183 1.87533 -0.411744 0
M  V30 6911 O 672.384 2.6501 -0.449804 0
M  V30 6912 C 670.655 2.11618 -2.88015 0
M  V30 6913 S 672.214 2.95121 -3.24729 0
M  V30 6914 H 669.032 0.39123 -0.593683 0
M  V30 6915 H 671.634 0.441255 -1.90455 0
M  V30 6916 H 670.338 1.5742 -3.79008 0
M  V30 6917 H 669.869 2.87544 -2.68481 0
M  V30 6918 H 671.884 4.13653 -2.74055 0
M  V30 6919 N 671.057 1.43213 0.657864 0
M  V30 6920 C 672.285 1.48015 1.44566 0
M  V30 6921 C 672.7 0.0965951 1.88553 0
M  V30 6922 O 672.057 -0.892221 1.59203 0
M  V30 6923 C 672.108 2.42199 2.68369 0
M  V30 6924 O 671.829 3.75173 2.26223 0
M  V30 6925 C 673.33 2.56195 3.61772 0
M  V30 6926 H 670.55 0.502861 0.444266 0
M  V30 6927 H 673.094 1.87907 0.806917 0
M  V30 6928 H 671.249 2.05514 3.28394 0
M  V30 6929 H 671.663 4.25776 3.06293 0
M  V30 6930 H 673.137 3.26182 4.4532 0
M  V30 6931 H 673.614 1.60534 4.0881 0
M  V30 6932 H 674.22 2.93671 3.07632 0
M  V30 6933 N 672.536 -0.895792 1.29666 0
M  V30 6934 C 673.766 -1.67757 1.20586 0
M  V30 6935 C 674.174 -1.87729 -0.235432 0
M  V30 6936 O 673.517 -1.41706 -1.16898 0
M  V30 6937 C 673.579 -3.08117 1.85215 0
M  V30 6938 C 673.243 -3.1136 3.3452 0
M  V30 6939 C 674.24 -2.91217 4.30684 0
M  V30 6940 C 671.925 -3.33302 3.75786 0
M  V30 6941 C 673.919 -2.92955 5.66089 0
M  V30 6942 C 671.606 -3.3467 5.11311 0
M  V30 6943 C 672.604 -3.14519 6.06273 0
M  V30 6944 O 672.292 -3.15684 7.39323 0
M  V30 6945 H 672.024 -0.530601 0.418854 0
M  V30 6946 H 674.578 -1.12831 1.71634 0
M  V30 6947 H 672.808 -3.64661 1.28683 0
M  V30 6948 H 674.497 -3.68399 1.70403 0
M  V30 6949 H 675.263 -2.74074 4.00136 0
M  V30 6950 H 671.142 -3.48025 3.02324 0
M  V30 6951 H 674.686 -2.77145 6.40185 0
M  V30 6952 H 670.583 -3.51346 5.41504 0
M  V30 6953 H 671.351 -3.31924 7.48177 0
M  V30 6954 N 674.014 -1.12206 -1.10668 0
M  V30 6955 C 675.261 -0.875875 -1.82578 0
M  V30 6956 C 675.589 0.598342 -1.85068 0
M  V30 6957 O 674.844 1.45818 -1.3052 0
M  V30 6958 C 675.143 -1.39276 -3.29146 0
M  V30 6959 C 674.809 -2.8816 -3.46806 0
M  V30 6960 C 673.471 -3.28813 -3.51334 0
M  V30 6961 C 675.823 -3.8401 -3.52399 0
M  V30 6962 C 673.151 -4.64028 -3.59019 0
M  V30 6963 C 675.503 -5.19053 -3.61617 0
M  V30 6964 C 674.167 -5.59252 -3.64408 0
M  V30 6965 H 673.437 -0.320505 -0.6681 0
M  V30 6966 H 676.084 -1.40184 -1.30464 0
M  V30 6967 H 674.389 -0.787207 -3.8381 0
M  V30 6968 H 676.086 -1.17851 -3.83291 0
M  V30 6969 H 672.676 -2.55716 -3.43958 0
M  V30 6970 H 676.86 -3.53698 -3.48154 0
M  V30 6971 H 672.116 -4.94568 -3.59461 0
M  V30 6972 H 676.29 -5.93152 -3.64889 0
M  V30 6973 H 673.917 -6.64017 -3.70116 0
M  V30 6974 N 675.492 1.28418 -0.913599 0
M  V30 6975 C 676.739 1.94981 -0.546674 0
M  V30 6976 C 677.067 1.7192 0.909606 0
M  V30 6977 O 676.322 1.03314 1.66207 0
M  V30 6978 C 676.621 3.48283 -0.802099 0
M  V30 6979 C 676.287 3.91444 -2.2379 0
M  V30 6980 C 674.949 4.02939 -2.63046 0
M  V30 6981 C 677.301 4.13542 -3.17227 0
M  V30 6982 C 674.629 4.3391 -3.94891 0
M  V30 6983 C 676.981 4.45992 -4.48636 0
M  V30 6984 C 675.645 4.55698 -4.87746 0
M  V30 6985 H 674.915 0.713487 -0.200042 0
M  V30 6986 H 677.562 1.52756 -1.15489 0
M  V30 6987 H 675.867 3.91643 -0.111076 0
M  V30 6988 H 677.564 3.97903 -0.497375 0
M  V30 6989 H 674.154 3.83024 -1.9233 0
M  V30 6990 H 678.338 4.04114 -2.88107 0
M  V30 6991 H 673.594 4.39631 -4.24894 0
M  V30 6992 H 677.768 4.62038 -5.21051 0
M  V30 6993 H 675.395 4.79451 -5.89942 0
M  V30 6994 N 676.97 0.677563 1.42291 0
M  V30 6995 C 678.198 0.209459 2.05837 0
M  V30 6996 C 678.613 -1.13444 1.50917 0
M  V30 6997 O 677.97 -1.70529 0.65008 0
M  V30 6998 C 678.021 0.138819 3.61233 0
M  V30 6999 O 677.742 1.42962 4.14118 0
M  V30 7000 C 679.243 -0.352449 4.41897 0
M  V30 7001 H 676.463 0.101209 0.663323 0
M  V30 7002 H 679.007 0.925077 1.8238 0
M  V30 7003 H 677.162 -0.527505 3.83792 0
M  V30 7004 H 677.576 1.3048 5.08011 0
M  V30 7005 H 679.05 -0.350778 5.50884 0
M  V30 7006 H 679.527 -1.3882 4.16684 0
M  V30 7007 H 680.133 0.282236 4.24362 0
M  V30 7008 N 678.448 -1.51871 0.421078 0
M  V30 7009 C 679.694 -2.02894 -0.143346 0
M  V30 7010 C 680.049 -1.30054 -1.41787 0
M  V30 7011 O 679.342 -0.401776 -1.8734 0
M  V30 7012 C 679.536 -3.54764 -0.433292 0
M  V30 7013 C 679.365 -4.42316 0.811584 0
M  V30 7014 C 678.135 -4.872 1.34033 0
M  V30 7015 C 680.333 -4.85631 1.69313 0
M  V30 7016 N 678.315 -5.58915 2.53944 0
M  V30 7017 C 679.686 -5.56248 2.7384 0
M  V30 7018 C 681.741 -4.67634 1.70947 0
M  V30 7019 C 680.444 -6.10777 3.79927 0
M  V30 7020 C 682.47 -5.23068 2.7596 0
M  V30 7021 C 681.832 -5.93617 3.79207 0
M  V30 7022 H 677.931 -0.78188 -0.0137104 0
M  V30 7023 H 680.515 -1.85919 0.578105 0
M  V30 7024 H 678.686 -3.71787 -1.12378 0
M  V30 7025 H 680.418 -3.92464 -0.987644 0
M  V30 7026 H 677.173 -4.65035 0.896606 0
M  V30 7027 H 677.597 -5.99408 3.14704 0
M  V30 7028 H 682.239 -4.12566 0.9246 0
M  V30 7029 H 679.957 -6.64909 4.59262 0
M  V30 7030 H 683.543 -5.11005 2.78147 0
M  V30 7031 H 682.423 -6.35743 4.5913 0
M  V30 7032 N 679.926 -0.151884 -1.56866 0
M  V30 7033 C 681.203 0.543328 -1.87902 0
M  V30 7034 C 681.583 1.82636 -1.05864 0
M  V30 7035 O 680.931 2.28028 -0.146868 0
M  V30 7036 C 681.141 0.804056 -3.39611 0
M  V30 7037 C 682.489 1.14267 -4.08935 0
M  V30 7038 O 683.513 0.893248 -3.44818 0
M  V30 7039 O 682.372 1.61229 -5.22176 0
M  V30 7040 H 679.466 0.277724 -0.778973 0
M  V30 7041 H 682.012 -0.188862 -1.68646 0
M  V30 7042 H 680.784 -0.103772 -3.91162 0
M  V30 7043 H 680.407 1.59025 -3.64413 0
M  V30 7044 N 681.404 1.57128 0.121893 0
M  V30 7045 C 682.632 1.88883 0.844451 0
M  V30 7046 C 683.047 0.742824 1.73573 0
M  V30 7047 O 682.404 -0.286475 1.80238 0
M  V30 7048 C 682.455 3.20076 1.68029 0
M  V30 7049 O 682.176 4.30264 0.824898 0
M  V30 7050 C 683.677 3.65515 2.50826 0
M  V30 7051 H 680.897 0.62549 0.242907 0
M  V30 7052 H 683.441 2.04219 0.107151 0
M  V30 7053 H 681.596 3.06418 2.37038 0
M  V30 7054 H 682.01 5.05439 1.40113 0
M  V30 7055 H 683.484 4.60081 3.05008 0
M  V30 7056 H 683.961 2.92029 3.28048 0
M  V30 7057 H 684.567 3.81952 1.87064 0
M  V30 7058 N 682.882 -0.391992 1.52647 0
M  V30 7059 C 683.792 -1.503 1.80131 0
M  V30 7060 C 684.808 -1.59825 0.687882 0
M  V30 7061 O 685.984 -1.76218 0.975149 0
M  V30 7062 C 683.049 -2.85863 1.96171 0
M  V30 7063 C 682.11 -2.86084 3.20085 0
M  V30 7064 C 681.343 -4.15181 3.35351 0
M  V30 7065 O 681.566 -5.09981 2.55491 0
M  V30 7066 O 680.5 -4.22603 4.28591 0
M  V30 7067 H 684.326 -1.30007 2.74466 0
M  V30 7068 H 681.911 -0.579539 1.37701 0
M  V30 7069 H 683.793 -3.66236 2.08445 0
M  V30 7070 H 682.468 -3.06189 1.05025 0
M  V30 7071 H 681.375 -2.04504 3.13256 0
M  V30 7072 H 682.708 -2.7071 4.11068 0
M  V30 7073 N 684.36 -1.4356 -0.65026 0
M  V30 7074 C 685.59 -1.48563 -1.4357 0
M  V30 7075 C 685.998 -0.103041 -1.88919 0
M  V30 7076 O 685.341 0.897602 -1.60277 0
M  V30 7077 C 685.403 -2.37181 -2.70158 0
M  V30 7078 C 685.067 -3.84673 -2.4673 0
M  V30 7079 C 686.064 -4.75704 -2.09765 0
M  V30 7080 C 683.749 -4.29189 -2.60963 0
M  V30 7081 C 685.743 -6.09249 -1.87334 0
M  V30 7082 C 683.43 -5.62787 -2.38147 0
M  V30 7083 C 684.428 -6.52634 -2.01389 0
M  V30 7084 O 684.116 -7.83761 -1.78813 0
M  V30 7085 H 683.848 -0.506743 -0.447423 0
M  V30 7086 H 686.402 -1.89001 -0.80423 0
M  V30 7087 H 684.632 -1.91636 -3.35876 0
M  V30 7088 H 686.321 -2.33354 -3.32116 0
M  V30 7089 H 687.087 -4.42589 -1.98343 0
M  V30 7090 H 682.966 -3.59529 -2.88548 0
M  V30 7091 H 686.51 -6.7934 -1.58567 0
M  V30 7092 H 682.407 -5.95469 -2.49173 0
M  V30 7093 H 683.175 -7.95368 -1.93214 0
M  V30 7094 N 685.838 0.888903 -1.30139 0
M  V30 7095 C 686.801 1.97576 -1.16174 0
M  V30 7096 C 687.801 1.60525 -0.094086 0
M  V30 7097 O 688.991 1.70812 -0.341889 0
M  V30 7098 C 686.123 3.3188 -0.778983 0
M  V30 7099 H 687.316 2.11393 -2.12728 0
M  V30 7100 H 684.869 1.0748 -1.1348 0
M  V30 7101 H 685.604 3.23765 0.186225 0
M  V30 7102 H 685.389 3.60141 -1.55051 0
M  V30 7103 H 686.879 4.11612 -0.704631 0
M  V30 7104 N 687.317 1.12792 1.10072 0
M  V30 7105 C 688.557 0.895691 1.8373 0
M  V30 7106 C 688.921 -0.568131 1.83402 0
M  V30 7107 O 690.122 -0.917666 2.52651 0
M  V30 7108 C 688.393 1.4593 3.2625 0
M  V30 7109 S 689.952 1.36615 4.16991 0
M  V30 7110 H 686.77 0.323017 0.633389 0
M  V30 7111 H 689.372 1.43816 1.32428 0
M  V30 7112 H 688.076 2.51818 3.24062 0
M  V30 7113 H 687.607 0.914478 3.82624 0
M  V30 7114 H 689.622 0.340131 4.95033 0
M  V30 7115 N 688.795 -1.27931 0.920396 0
M  V30 7116 C 690.041 -1.94977 0.557832 0
M  V30 7117 C 690.374 -1.72224 -0.897365 0
M  V30 7118 O 689.649 -1.04705 -1.63912 0
M  V30 7119 C 689.932 -3.49289 0.875741 0
M  V30 7120 C 689.785 -3.81416 2.38416 0
M  V30 7121 C 691.104 -4.38486 0.376517 0
M  V30 7122 H 688.223 -0.708164 0.20414 0
M  V30 7123 H 690.865 -1.5118 1.15085 0
M  V30 7124 H 689.015 -3.86724 0.371062 0
M  V30 7125 H 690.687 -3.53813 2.95997 0
M  V30 7126 H 688.93 -3.28225 2.83639 0
M  V30 7127 H 689.601 -4.89198 2.55713 0
M  V30 7128 H 692.077 -4.08161 0.808945 0
M  V30 7129 H 690.953 -5.45296 0.627976 0
M  V30 7130 H 691.214 -4.36143 -0.723293 0
M  V30 7131 N 690.273 -0.685099 -1.4193 0
M  V30 7132 C 691.22 -0.0131869 -2.30796 0
M  V30 7133 C 692.19 0.782129 -1.46533 0
M  V30 7134 O 693.375 0.75229 -1.75343 0
M  V30 7135 C 690.515 0.924768 -3.32479 0
M  V30 7136 C 689.628 0.122181 -4.31827 0
M  V30 7137 C 688.763 1.05682 -5.20581 0
M  V30 7138 C 687.802 0.246526 -6.11603 0
M  V30 7139 N 686.939 1.13442 -6.92875 0
M  V30 7140 H 691.779 -0.776789 -2.87698 0
M  V30 7141 H 689.316 -0.394791 -1.41703 0
M  V30 7142 H 691.274 1.48251 -3.89971 0
M  V30 7143 H 689.904 1.65488 -2.77152 0
M  V30 7144 H 688.956 -0.552335 -3.76369 0
M  V30 7145 H 690.268 -0.506473 -4.96222 0
M  V30 7146 H 689.422 1.68415 -5.82856 0
M  V30 7147 H 688.161 1.71935 -4.56388 0
M  V30 7148 H 687.166 -0.393944 -5.48387 0
M  V30 7149 H 688.391 -0.412053 -6.77849 0
M  V30 7150 H 686.337 1.78316 -6.313 0
M  V30 7151 H 686.254 0.561089 -7.53915 0
M  V30 7152 H 687.522 1.74889 -7.59628 0
M  V30 7153 N 691.751 1.51645 -0.429126 0
M  V30 7154 C 692.661 2.31288 0.392809 0
M  V30 7155 C 693.677 1.39852 1.03525 0
M  V30 7156 O 694.853 1.72926 1.03241 0
M  V30 7157 C 691.918 3.13347 1.48372 0
M  V30 7158 C 690.979 4.20551 0.862268 0
M  V30 7159 C 690.212 4.98688 1.9012 0
M  V30 7160 O 690.435 4.77359 3.12225 0
M  V30 7161 O 689.369 5.83005 1.4963 0
M  V30 7162 H 693.195 3.02609 -0.257138 0
M  V30 7163 H 690.78 1.48163 -0.191851 0
M  V30 7164 H 692.662 3.64387 2.1166 0
M  V30 7165 H 691.337 2.44799 2.1179 0
M  V30 7166 H 690.244 3.73609 0.191568 0
M  V30 7167 H 691.577 4.91449 0.271704 0
M  V30 7168 N 693.229 0.160201 1.56784 0
M  V30 7169 C 694.176 -0.774416 2.1742 0
M  V30 7170 C 695.146 -1.23483 1.11091 0
M  V30 7171 O 696.331 -1.30499 1.39193 0
M  V30 7172 C 693.471 -2.00283 2.81035 0
M  V30 7173 C 692.584 -1.58701 4.01793 0
M  V30 7174 C 691.719 -2.76824 4.53367 0
M  V30 7175 C 690.758 -2.31679 5.66561 0
M  V30 7176 N 689.895 -3.42856 6.12694 0
M  V30 7177 H 694.735 -0.250542 2.96945 0
M  V30 7178 H 692.272 -0.111943 1.46673 0
M  V30 7179 H 694.23 -2.72316 3.16069 0
M  V30 7180 H 692.86 -2.5006 2.04132 0
M  V30 7181 H 691.912 -0.76384 3.72652 0
M  V30 7182 H 693.224 -1.21555 4.83762 0
M  V30 7183 H 692.378 -3.57029 4.90525 0
M  V30 7184 H 691.117 -3.17223 3.70433 0
M  V30 7185 H 690.122 -1.49917 5.28966 0
M  V30 7186 H 691.347 -1.9235 6.5129 0
M  V30 7187 H 689.293 -3.82852 5.32692 0
M  V30 7188 H 689.21 -3.09767 6.89624 0
M  V30 7189 H 690.478 -4.23379 6.545 0
M  V30 7190 N 694.707 -1.5719 -0.113559 0
M  V30 7191 C 695.617 -2.04041 -1.15777 0
M  V30 7192 C 696.633 -0.961812 -1.45001 0
M  V30 7193 O 697.809 -1.2737 -1.56009 0
M  V30 7194 C 694.874 -2.43994 -2.46308 0
M  V30 7195 C 693.935 -3.65962 -2.24433 0
M  V30 7196 C 693.168 -4.04 -3.4874 0
M  V30 7197 O 693.391 -3.42321 -4.56259 0
M  V30 7198 O 692.325 -4.97069 -3.3942 0
M  V30 7199 H 696.151 -2.93248 -0.789899 0
M  V30 7200 H 693.736 -1.45828 -0.324748 0
M  V30 7201 H 695.618 -2.70401 -3.23204 0
M  V30 7202 H 694.293 -1.57932 -2.82558 0
M  V30 7203 H 693.2 -3.44697 -1.45377 0
M  V30 7204 H 694.533 -4.52746 -1.93084 0
M  V30 7205 N 696.185 0.383891 -1.52853 0
M  V30 7206 C 697.462 1.14296 -1.58732 0
M  V30 7207 C 697.842 2.07585 -0.383611 0
M  V30 7208 O 697.19 2.1971 0.627661 0
M  V30 7209 C 697.4 1.89816 -2.92867 0
M  V30 7210 C 698.748 2.44998 -3.46787 0
M  V30 7211 O 699.772 1.99966 -2.94774 0
M  V30 7212 O 698.631 3.2727 -4.37672 0
M  V30 7213 H 695.725 0.52326 -0.640413 0
M  V30 7214 H 698.271 0.388631 -1.6519 0
M  V30 7215 H 697.043 1.21626 -3.71918 0
M  V30 7216 H 696.666 2.72199 -2.89816 0
M  V30 7217 N 697.663 1.43903 0.642637 0
M  V30 7218 C 698.593 1.52697 1.76652 0
M  V30 7219 C 699.574 0.380816 1.65782 0
M  V30 7220 O 700.759 0.599432 1.84717 0
M  V30 7221 C 697.889 1.45975 3.15133 0
M  V30 7222 C 696.843 2.58949 3.40778 0
M  V30 7223 C 696.169 2.37279 4.79169 0
M  V30 7224 C 697.469 4.01153 3.34475 0
M  V30 7225 H 699.163 2.46766 1.69549 0
M  V30 7226 H 696.709 1.18767 0.814279 0
M  V30 7227 H 698.662 1.5073 3.93521 0
M  V30 7228 H 697.386 0.484162 3.22991 0
M  V30 7229 H 696.045 2.53564 2.64765 0
M  V30 7230 H 695.693 1.37939 4.83717 0
M  V30 7231 H 695.393 3.13016 4.97287 0
M  V30 7232 H 696.917 2.43834 5.59801 0
M  V30 7233 H 698.331 4.07968 4.02784 0
M  V30 7234 H 696.728 4.77001 3.64129 0
M  V30 7235 H 697.798 4.25539 2.32475 0
M  V30 7236 N 699.141 -0.881989 1.30609 0
M  V30 7237 C 700.071 -2.00413 1.1982 0
M  V30 7238 C 701.052 -1.69871 0.0881538 0
M  V30 7239 O 702.237 -1.92304 0.2707 0
M  V30 7240 C 699.367 -3.35641 0.89233 0
M  V30 7241 C 698.321 -3.80451 1.96064 0
M  V30 7242 C 697.647 -5.13003 1.5077 0
M  V30 7243 C 698.947 -3.98855 3.37213 0
M  V30 7244 H 700.641 -2.09698 2.13699 0
M  V30 7245 H 698.187 -1.00754 1.02882 0
M  V30 7246 H 700.14 -4.13669 0.803497 0
M  V30 7247 H 698.864 -3.26497 -0.0821381 0
M  V30 7248 H 697.523 -3.04654 2.03916 0
M  V30 7249 H 697.171 -5.0029 0.521417 0
M  V30 7250 H 696.871 -5.43956 2.22229 0
M  V30 7251 H 698.395 -5.93554 1.43271 0
M  V30 7252 H 699.809 -4.67312 3.32103 0
M  V30 7253 H 698.206 -4.41188 4.06784 0
M  V30 7254 H 699.276 -3.02614 3.78883 0
M  V30 7255 N 700.619 -1.13374 -1.09472 0
M  V30 7256 C 701.859 -0.905422 -1.83252 0
M  V30 7257 C 702.223 0.558396 -1.83701 0
M  V30 7258 O 703.424 0.904254 -2.53134 0
M  V30 7259 C 701.695 -1.47658 -3.25472 0
M  V30 7260 S 703.254 -1.38825 -4.16261 0
M  V30 7261 H 700.072 -0.326371 -0.631667 0
M  V30 7262 H 702.674 -1.44517 -1.31663 0
M  V30 7263 H 701.378 -2.53533 -3.22722 0
M  V30 7264 H 700.909 -0.934756 -3.82133 0
M  V30 7265 H 702.924 -0.366379 -4.94846 0
M  V30 7266 N 702.098 1.27442 -0.927168 0
M  V30 7267 C 703.346 1.94007 -0.566203 0
M  V30 7268 C 703.667 1.7323 0.895345 0
M  V30 7269 O 702.937 1.07973 1.63459 0
M  V30 7270 H 701.517 0.717917 -0.206409 0
M  V30 7271 H 704.179 1.55161 -1.17945 0
M  V30 7272 H 703.275 3.02401 -0.772028 0
M  V30 7273 N 703.576 0.692616 1.41565 0
M  V30 7274 C 704.539 0.0344174 2.29174 0
M  V30 7275 C 705.539 -0.710961 1.44229 0
M  V30 7276 O 706.729 -0.546293 1.65412 0
M  V30 7277 C 703.861 -0.961682 3.27054 0
M  V30 7278 H 705.054 0.805755 2.88873 0
M  V30 7279 H 702.607 0.455947 1.49502 0
M  V30 7280 H 703.342 -1.76089 2.72329 0
M  V30 7281 H 703.127 -0.430375 3.89731 0
M  V30 7282 H 704.617 -1.4201 3.92712 0
M  V30 7283 N 705.054 -1.51416 0.437162 0
M  V30 7284 C 706.282 -2.06503 -0.128045 0
M  V30 7285 C 706.697 -1.30461 -1.36475 0
M  V30 7286 O 706.054 -0.364127 -1.78831 0
M  V30 7287 C 706.105 -3.58683 -0.450437 0
M  V30 7288 O 705.826 -4.31853 0.737186 0
M  V30 7289 C 707.327 -4.30284 -1.06633 0
M  V30 7290 H 704.547 -0.670952 -0.00800269 0
M  V30 7291 H 707.091 -1.94996 0.616193 0
M  V30 7292 H 705.246 -3.70106 -1.14457 0
M  V30 7293 H 705.66 -5.22467 0.461347 0
M  V30 7294 H 707.134 -5.37848 -1.24191 0
M  V30 7295 H 707.611 -3.88564 -2.0473 0
M  V30 7296 H 708.217 -4.23304 -0.411585 0
M  V30 7297 N 706.532 -0.168513 -1.56696 0
M  V30 7298 C 707.809 0.523367 -1.88468 0
M  V30 7299 C 708.189 1.81503 -1.07796 0
M  V30 7300 O 707.537 2.27859 -0.171045 0
M  V30 7301 C 707.747 0.767991 -3.40445 0
M  V30 7302 C 709.095 1.09924 -4.10124 0
M  V30 7303 O 710.119 0.856625 -3.45746 0
M  V30 7304 O 708.978 1.55681 -5.23856 0
M  V30 7305 H 706.072 0.269447 -0.781874 0
M  V30 7306 H 708.618 -0.206739 -1.68436 0
M  V30 7307 H 707.39 -0.145254 -3.9103 0
M  V30 7308 H 707.013 1.55151 -3.66079 0
M  V30 7309 N 708.01 1.57248 0.105221 0
M  V30 7310 C 709.258 1.85204 0.808951 0
M  V30 7311 C 709.579 0.75574 1.7976 0
M  V30 7312 O 708.849 -0.218984 1.94672 0
M  V30 7313 H 707.429 0.683346 0.301739 0
M  V30 7314 H 710.091 1.94695 0.0892605 0
M  V30 7315 H 709.187 2.81595 1.34575 0
M  V30 7316 N 709.488 -0.375779 1.53054 0
M  V30 7317 C 710.435 -1.45978 1.78771 0
M  V30 7318 C 711.405 -1.53625 0.631552 0
M  V30 7319 O 712.59 -1.69674 0.872667 0
M  V30 7320 C 709.73 -2.8305 1.97425 0
M  V30 7321 C 708.843 -2.84451 3.25134 0
M  V30 7322 C 707.978 -4.13034 3.34031 0
M  V30 7323 C 707.017 -4.08536 4.55812 0
M  V30 7324 N 706.154 -5.2875 4.61918 0
M  V30 7325 H 710.994 -1.23349 2.71273 0
M  V30 7326 H 708.531 -0.598147 1.3439 0
M  V30 7327 H 710.489 -3.62666 2.06225 0
M  V30 7328 H 709.119 -3.04101 1.0827 0
M  V30 7329 H 708.171 -1.97127 3.25338 0
M  V30 7330 H 709.483 -2.76998 4.14818 0
M  V30 7331 H 708.637 -5.0106 3.42087 0
M  V30 7332 H 707.376 -4.23226 2.42345 0
M  V30 7333 H 706.381 -3.18897 4.47867 0
M  V30 7334 H 707.606 -3.99955 5.48828 0
M  V30 7335 H 705.552 -5.39547 3.73129 0
M  V30 7336 H 705.469 -5.23426 5.45492 0
M  V30 7337 H 706.737 -6.18637 4.74245 0
M  V30 7338 N 710.966 -1.44241 -0.634997 0
M  V30 7339 C 711.913 -1.5081 -1.74714 0
M  V30 7340 C 712.883 -0.356147 -1.62237 0
M  V30 7341 O 714.068 -0.565848 -1.82216 0
M  V30 7342 C 711.208 -1.45458 -3.12947 0
M  V30 7343 C 710.321 -2.70998 -3.36428 0
M  V30 7344 C 709.456 -2.57507 -4.64611 0
M  V30 7345 C 708.495 -3.78229 -4.81258 0
M  V30 7346 N 707.632 -3.63438 -6.00714 0
M  V30 7347 H 712.472 -2.45832 -1.68436 0
M  V30 7348 H 710.009 -1.2201 -0.821706 0
M  V30 7349 H 711.967 -1.40347 -3.92885 0
M  V30 7350 H 710.597 -0.540058 -3.1825 0
M  V30 7351 H 709.649 -2.86312 -2.50458 0
M  V30 7352 H 710.961 -3.60619 -3.44609 0
M  V30 7353 H 710.115 -2.50207 -5.52703 0
M  V30 7354 H 708.854 -1.65441 -4.58782 0
M  V30 7355 H 707.859 -3.85918 -3.91596 0
M  V30 7356 H 709.084 -4.71327 -4.88904 0
M  V30 7357 H 707.03 -2.7412 -5.95982 0
M  V30 7358 H 706.947 -4.46672 -6.09934 0
M  V30 7359 H 708.215 -3.60022 -6.91378 0
M  V30 7360 N 712.444 0.87505 -1.31075 0
M  V30 7361 C 713.86 1.15997 -1.09622 0
M  V30 7362 C 714.06 2.01036 0.136611 0
M  V30 7363 O 713.116 2.38559 0.827397 0
M  V30 7364 C 714.429 1.85702 -2.36506 0
M  V30 7365 C 715.977 1.98425 -2.42067 0
M  V30 7366 C 716.452 2.71544 -3.68819 0
M  V30 7367 N 717.943 2.79084 -3.69684 0
M  V30 7368 C 718.678 3.36259 -4.64454 0
M  V30 7369 N 718.174 3.94406 -5.69575 0
M  V30 7370 N 719.967 3.34169 -4.51982 0
M  V30 7371 H 712.118 0.308258 -2.10151 0
M  V30 7372 H 714.381 0.199145 -0.926847 0
M  V30 7373 H 714.087 1.30663 -3.26527 0
M  V30 7374 H 713.961 2.86017 -2.45915 0
M  V30 7375 H 716.348 2.5263 -1.52518 0
M  V30 7376 H 716.429 0.971682 -2.36626 0
M  V30 7377 H 716.073 2.18008 -4.58732 0
M  V30 7378 H 716.003 3.73198 -3.71525 0
M  V30 7379 H 718.494 2.3781 -2.93691 0
M  V30 7380 H 718.807 4.36129 -6.37974 0
M  V30 7381 H 717.152 3.92797 -5.73355 0
M  V30 7382 H 720.343 2.87977 -3.69035 0
M  V30 7383 H 720.516 3.78431 -5.26017 0
M  V30 7384 N 713.922 1.13953 1.08869 0
M  V30 7385 C 715.152 0.926825 1.84644 0
M  V30 7386 C 715.56 -0.527941 1.81685 0
M  V30 7387 O 714.903 -1.37742 1.21543 0
M  V30 7388 C 714.965 1.34416 3.33426 0
M  V30 7389 C 714.629 2.81351 3.60126 0
M  V30 7390 C 715.626 3.79486 3.55368 0
M  V30 7391 C 713.311 3.1865 3.88288 0
M  V30 7392 C 715.305 5.1293 3.78393 0
M  V30 7393 C 712.992 4.5227 4.10968 0
M  V30 7394 C 713.99 5.4922 4.06013 0
M  V30 7395 O 713.678 6.80429 4.28102 0
M  V30 7396 H 713.41 0.33013 0.589907 0
M  V30 7397 H 715.964 1.51738 1.38436 0
M  V30 7398 H 714.194 0.696901 3.80368 0
M  V30 7399 H 715.883 1.10302 3.90626 0
M  V30 7400 H 716.649 3.52017 3.3363 0
M  V30 7401 H 712.528 2.43785 3.91267 0
M  V30 7402 H 716.072 5.88591 3.74442 0
M  V30 7403 H 711.969 4.79462 4.32188 0
M  V30 7404 H 712.737 6.86617 4.45533 0
M  V30 7405 N 715.4 -1.26948 0.933913 0
M  V30 7406 C 716.677 -1.89212 0.495784 0
M  V30 7407 C 717.057 -1.84469 -1.02637 0
M  V30 7408 O 716.405 -1.29409 -1.88323 0
M  V30 7409 C 716.615 -3.32865 1.0489 0
M  V30 7410 C 717.963 -4.09749 1.11315 0
M  V30 7411 O 718.987 -3.41905 0.998966 0
M  V30 7412 O 717.846 -5.31061 1.28983 0
M  V30 7413 H 714.94 -0.811284 0.160459 0
M  V30 7414 H 717.486 -1.35171 1.02601 0
M  V30 7415 H 716.258 -3.30642 2.09265 0
M  V30 7416 H 715.881 -3.94435 0.500692 0
M  V30 7417 N 716.879 -0.700114 -1.41195 0
M  V30 7418 C 717.809 -0.0521132 -2.33442 0
M  V30 7419 C 718.79 0.76228 -1.52063 0
M  V30 7420 O 719.975 0.714336 -1.80585 0
M  V30 7421 C 717.105 0.881693 -3.35922 0
M  V30 7422 C 716.059 0.174062 -4.27646 0
M  V30 7423 C 715.385 1.22254 -5.20536 0
M  V30 7424 C 716.685 -0.962396 -5.13357 0
M  V30 7425 H 718.379 -0.822574 -2.87879 0
M  V30 7426 H 715.925 -0.397011 -1.38419 0
M  V30 7427 H 717.878 1.34429 -3.99383 0
M  V30 7428 H 716.602 1.68387 -2.79845 0
M  V30 7429 H 715.261 -0.268551 -3.65615 0
M  V30 7430 H 714.909 2.01736 -4.60773 0
M  V30 7431 H 714.609 0.754038 -5.82742 0
M  V30 7432 H 716.133 1.68555 -5.86874 0
M  V30 7433 H 717.547 -0.579875 -5.7036 0
M  V30 7434 H 715.944 -1.35828 -5.84526 0
M  V30 7435 H 717.014 -1.80003 -4.50252 0
M  V30 7436 N 718.357 1.51182 -0.445186 0
M  V30 7437 C 719.582 2.07056 0.119445 0
M  V30 7438 C 720.007 1.30966 1.35016 0
M  V30 7439 O 719.365 0.349827 1.77893 0
M  V30 7440 C 719.413 3.58234 0.412428 0
M  V30 7441 O 718.517 3.84249 1.49754 0
M  V30 7442 H 717.858 0.663998 -0.00157797 0
M  V30 7443 H 720.388 1.94699 -0.628779 0
M  V30 7444 H 720.398 4.02617 0.660583 0
M  V30 7445 H 719.073 4.13038 -0.487049 0
M  V30 7446 H 717.65 3.51724 1.23873 0
M  V30 7447 N 719.835 0.176821 1.56605 0
M  V30 7448 C 720.798 -0.737429 2.17013 0
M  V30 7449 C 721.798 -1.15414 1.11965 0
M  V30 7450 O 722.988 -1.0702 1.37449 0
M  V30 7451 C 720.12 -2.00445 2.75744 0
M  V30 7452 H 721.313 -0.211455 2.99154 0
M  V30 7453 H 718.866 -0.0727582 1.56131 0
M  V30 7454 H 719.601 -2.57338 1.97352 0
M  V30 7455 H 719.386 -1.71456 3.52626 0
M  V30 7456 H 720.876 -2.65679 3.22187 0
M  V30 7457 N 721.313 -1.57302 -0.09688 0
M  V30 7458 C 722.243 -2.0497 -1.11846 0
M  V30 7459 C 723.224 -0.938278 -1.41882 0
M  V30 7460 O 724.409 -1.20943 -1.51942 0
M  V30 7461 C 721.539 -2.47264 -2.43881 0
M  V30 7462 C 720.493 -3.62053 -2.28257 0
M  V30 7463 C 719.819 -3.90318 -3.65453 0
M  V30 7464 C 721.119 -4.93005 -1.72461 0
M  V30 7465 H 722.813 -2.90567 -0.721888 0
M  V30 7466 H 720.359 -1.39786 -0.345803 0
M  V30 7467 H 722.312 -2.7922 -3.15617 0
M  V30 7468 H 721.036 -1.58664 -2.8547 0
M  V30 7469 H 719.695 -3.30341 -1.58967 0
M  V30 7470 H 719.343 -2.98889 -4.04567 0
M  V30 7471 H 719.043 -4.67597 -3.55846 0
M  V30 7472 H 720.567 -4.24747 -4.3866 0
M  V30 7473 H 721.981 -5.23354 -2.34036 0
M  V30 7474 H 720.378 -5.74436 -1.73618 0
M  V30 7475 H 721.448 -4.80053 -0.683898 0
M  V30 7476 N 722.791 0.367657 -1.53252 0
M  V30 7477 C 724.037 1.11216 -1.69584 0
M  V30 7478 C 724.37 1.89026 -0.445269 0
M  V30 7479 O 723.645 1.86342 0.557404 0
M  V30 7480 C 723.928 2.07308 -2.94441 0
M  V30 7481 C 723.781 1.3312 -4.2965 0
M  V30 7482 C 725.1 3.07459 -3.14892 0
M  V30 7483 H 722.219 0.40294 -0.617096 0
M  V30 7484 H 724.861 0.393201 -1.85887 0
M  V30 7485 H 723.011 2.68617 -2.80673 0
M  V30 7486 H 724.683 0.746111 -4.55226 0
M  V30 7487 H 722.926 0.633051 -4.29156 0
M  V30 7488 H 723.597 2.03443 -5.13142 0
M  V30 7489 H 726.073 2.56252 -3.27832 0
M  V30 7490 H 724.949 3.71919 -4.03693 0
M  V30 7491 H 725.21 3.77514 -2.30077 0
M  V30 7492 N 724.269 1.44576 0.627338 0
M  V30 7493 C 725.685 1.28546 0.945938 0
M  V30 7494 C 725.885 0.224003 2.00251 0
M  V30 7495 O 724.941 -0.388817 2.49488 0
M  V30 7496 C 726.254 2.65825 1.40561 0
M  V30 7497 C 727.802 2.73566 1.52088 0
M  V30 7498 C 728.277 4.11323 2.01438 0
M  V30 7499 N 729.768 4.13519 2.08702 0
M  V30 7500 C 730.503 5.16964 2.48065 0
M  V30 7501 N 729.999 6.30768 2.86538 0
M  V30 7502 N 731.792 5.04319 2.48232 0
M  V30 7503 H 723.943 2.1228 -0.0713567 0
M  V30 7504 H 726.206 0.947503 0.0307081 0
M  V30 7505 H 725.912 3.44591 0.703539 0
M  V30 7506 H 725.786 2.92969 2.37591 0
M  V30 7507 H 728.173 1.95116 2.21391 0
M  V30 7508 H 728.254 2.50159 0.534237 0
M  V30 7509 H 727.898 4.9025 1.32729 0
M  V30 7510 H 727.828 4.32109 3.0098 0
M  V30 7511 H 730.319 3.31385 1.81638 0
M  V30 7512 H 730.632 7.0551 3.15398 0
M  V30 7513 H 728.977 6.342 2.84281 0
M  V30 7514 H 732.168 4.14465 2.17569 0
M  V30 7515 H 732.341 5.85059 2.78585 0
M  V30 7516 N 725.747 -0.868086 1.31537 0
M  V30 7517 C 726.697 -1.96321 1.1594 0
M  V30 7518 C 727.681 -1.60748 0.0698962 0
M  V30 7519 O 728.873 -1.74524 0.295011 0
M  V30 7520 C 726.002 -3.32073 0.870789 0
M  V30 7521 C 725.088 -3.73907 2.00136 0
M  V30 7522 N 725.479 -3.87685 3.24859 0
M  V30 7523 C 723.777 -4.03433 1.90152 0
M  V30 7524 C 724.478 -4.23454 3.98825 0
M  V30 7525 N 723.454 -4.34242 3.27009 0
M  V30 7526 H 727.256 -2.05088 2.10514 0
M  V30 7527 H 724.77 -1.059 1.23122 0
M  V30 7528 H 726.767 -4.10279 0.740034 0
M  V30 7529 H 725.427 -3.24631 -0.0667068 0
M  V30 7530 H 726.438 -3.72363 3.59953 0
M  V30 7531 H 723.115 -4.0437 1.03879 0
M  V30 7532 H 724.505 -4.41696 5.06314 0
M  V30 7533 N 727.225 -1.14528 -1.08264 0
M  V30 7534 C 728.188 -0.83632 -2.13397 0
M  V30 7535 C 729.188 0.159715 -1.60005 0
M  V30 7536 O 730.378 -0.0688098 -1.74064 0
M  V30 7537 C 727.51 -0.246973 -3.40004 0
M  V30 7538 H 728.703 -1.76808 -2.42237 0
M  V30 7539 H 726.256 -0.951509 -1.24 0
M  V30 7540 H 726.991 0.693436 -3.168 0
M  V30 7541 H 726.776 -0.964412 -3.80055 0
M  V30 7542 H 728.266 -0.0480679 -4.17572 0
M  V30 7543 N 728.703 1.26451 -0.940633 0
M  V30 7544 C 729.613 2.30128 -0.455881 0
M  V30 7545 C 730.629 1.67536 0.469867 0
M  V30 7546 O 731.805 1.98344 0.349529 0
M  V30 7547 C 728.87 3.45634 0.271648 0
M  V30 7548 C 727.931 4.23709 -0.690594 0
M  V30 7549 C 727.164 5.337 0.00231047 0
M  V30 7550 O 727.387 5.57215 1.21935 0
M  V30 7551 O 726.321 5.98091 -0.676111 0
M  V30 7552 H 730.147 2.73655 -1.31707 0
M  V30 7553 H 727.732 1.3164 -0.706497 0
M  V30 7554 H 729.614 4.15853 0.681486 0
M  V30 7555 H 728.289 3.04138 1.10824 0
M  V30 7556 H 727.196 3.55974 -1.15037 0
M  V30 7557 H 728.529 4.68953 -1.49478 0
M  V30 7558 N 730.181 0.707592 1.40822 0
M  V30 7559 C 731.592 0.317011 1.83989 0
M  V30 7560 C 731.943 -1.14697 1.59182 0
M  V30 7561 O 731.068 -1.8818 1.06852 0
M  V30 7562 C 731.663 0.568593 3.33995 0
M  V30 7563 C 730.222 0.231804 3.75686 0
M  V30 7564 C 729.369 0.844933 2.64114 0
M  V30 7565 H 732.32 0.907349 1.30203 0
M  V30 7566 H 732.341 -0.168798 3.80125 0
M  V30 7567 H 731.853 1.63417 3.52018 0
M  V30 7568 H 729.954 -0.82903 3.6326 0
M  V30 7569 H 730.067 0.695219 4.74029 0
M  V30 7570 H 728.431 0.273588 2.53226 0
M  V30 7571 H 729.214 1.91462 2.84951 0
M  V30 7572 N 731.66 -1.50943 0.453197 0
M  V30 7573 C 732.57 -2.31884 -0.355963 0
M  V30 7574 C 733.586 -1.41481 -1.01287 0
M  V30 7575 O 734.762 -1.74546 -1.00477 0
M  V30 7576 C 731.827 -3.15668 -1.43369 0
M  V30 7577 C 730.888 -4.2187 -0.795253 0
M  V30 7578 C 730.121 -5.0165 -1.82162 0
M  V30 7579 O 730.344 -4.82266 -3.04592 0
M  V30 7580 O 729.278 -5.85311 -1.40336 0
M  V30 7581 H 733.104 -3.02162 0.305248 0
M  V30 7582 H 730.689 -1.47839 0.215398 0
M  V30 7583 H 732.571 -3.67709 -2.05836 0
M  V30 7584 H 731.246 -2.48137 -2.07869 0
M  V30 7585 H 730.153 -3.73867 -0.132106 0
M  V30 7586 H 731.486 -4.9182 -0.193484 0
M  V30 7587 N 733.138 -0.185124 -1.56509 0
M  V30 7588 C 734.07 0.771401 -2.15829 0
M  V30 7589 C 735.083 1.18392 -1.11747 0
M  V30 7590 O 736.272 1.12137 -1.38879 0
M  V30 7591 C 733.372 2.05169 -2.69739 0
M  V30 7592 C 732.545 1.80056 -3.98621 0
M  V30 7593 C 731.604 2.92435 -4.37456 0
M  V30 7594 O 730.63 2.62473 -5.05071 0
M  V30 7595 N 731.832 4.20554 -4.00143 0
M  V30 7596 H 734.597 0.264184 -2.98533 0
M  V30 7597 H 732.158 -0.00281069 -1.619 0
M  V30 7598 H 734.15 2.7947 -2.92709 0
M  V30 7599 H 732.72 2.47041 -1.91545 0
M  V30 7600 H 731.94 0.895862 -3.83885 0
M  V30 7601 H 733.228 1.60662 -4.82768 0
M  V30 7602 H 732.626 4.47753 -3.45736 0
M  V30 7603 H 731.183 4.91514 -4.28085 0
M  V30 7604 N 734.616 1.57351 0.0885366 0
M  V30 7605 C 735.564 2.03542 1.12576 0
M  V30 7606 C 736.558 0.937668 1.41082 0
M  V30 7607 O 737.764 1.12283 1.40686 0
M  V30 7608 H 734.139 0.648752 0.380296 0
M  V30 7609 H 736.11 2.89833 0.709906 0
M  V30 7610 C 734.859 2.4811 2.43591 0
M  V30 7611 H 734.182 3.32164 2.22502 0
M  V30 7612 H 735.622 2.842 3.14653 0
M  V30 7613 C 734.081 1.35708 3.08359 0
M  V30 7614 O 734.611 0.689852 3.95732 0
M  V30 7615 N 732.817 1.10641 2.68713 0
M  V30 7616 H 732.364 1.6508 1.97753 0
M  V30 7617 H 732.322 0.356355 3.12374 0
M  V30 7618 N 736.094 -0.359525 1.53444 0
M  V30 7619 C 737.34 -1.09958 1.71116 0
M  V30 7620 C 737.695 -1.8681 0.460414 0
M  V30 7621 O 736.988 -1.83635 -0.5467 0
M  V30 7622 C 737.182 -2.08287 2.90433 0
M  V30 7623 C 737.011 -1.41098 4.26991 0
M  V30 7624 C 735.781 -1.16255 4.91745 0
M  V30 7625 C 737.979 -0.845517 5.07302 0
M  V30 7626 N 735.961 -0.454798 6.12213 0
M  V30 7627 C 737.332 -0.267455 6.19423 0
M  V30 7628 C 739.387 -0.744797 4.92298 0
M  V30 7629 C 738.09 0.401511 7.18179 0
M  V30 7630 C 740.116 -0.0896013 5.91332 0
M  V30 7631 C 739.478 0.47756 7.02779 0
M  V30 7632 H 735.577 -0.387305 0.679352 0
M  V30 7633 H 738.161 -0.38519 1.90852 0
M  V30 7634 H 736.332 -2.77034 2.72226 0
M  V30 7635 H 738.064 -2.75015 2.96899 0
M  V30 7636 H 734.819 -1.44544 4.51003 0
M  V30 7637 H 735.243 -0.116108 6.769 0
M  V30 7638 H 739.885 -1.16905 4.06317 0
M  V30 7639 H 737.603 0.837694 8.03746 0
M  V30 7640 H 741.189 -0.0125162 5.81799 0
M  V30 7641 H 740.069 0.976522 7.78096 0
M  V30 7642 N 737.572 -1.44907 -0.619662 0
M  V30 7643 C 738.482 -1.55168 -1.75955 0
M  V30 7644 C 739.498 -0.43672 -1.6843 0
M  V30 7645 O 740.674 -0.695704 -1.89002 0
M  V30 7646 C 737.739 -1.50397 -3.12381 0
M  V30 7647 C 736.8 -2.72835 -3.31451 0
M  V30 7648 C 736.033 -2.68283 -4.61368 0
M  V30 7649 O 736.256 -1.74929 -5.42914 0
M  V30 7650 O 735.19 -3.59308 -4.82889 0
M  V30 7651 H 739.016 -2.51493 -1.7025 0
M  V30 7652 H 736.601 -1.27282 -0.782289 0
M  V30 7653 H 738.483 -1.50301 -3.93685 0
M  V30 7654 H 737.158 -0.572197 -3.18603 0
M  V30 7655 H 736.065 -2.78496 -2.49781 0
M  V30 7656 H 737.398 -3.65098 -3.30098 0
M  V30 7657 N 739.05 0.861098 -1.31996 0
M  V30 7658 C 740.013 1.95068 -1.20338 0
M  V30 7659 C 741.013 1.60289 -0.128114 0
M  V30 7660 O 742.203 1.70048 -0.378044 0
M  V30 7661 C 739.335 3.30153 -0.849205 0
M  V30 7662 H 740.528 2.06833 -2.17164 0
M  V30 7663 H 738.081 1.05049 -1.15734 0
M  V30 7664 H 738.816 3.24087 0.117508 0
M  V30 7665 H 738.601 3.56771 -1.62655 0
M  V30 7666 H 740.091 4.10025 -0.791782 0
M  V30 7667 N 740.528 1.15101 1.07655 0
M  V30 7668 C 741.774 0.925343 1.80458 0
M  V30 7669 C 742.107 -0.546354 1.86356 0
M  V30 7670 O 741.382 -1.40496 1.34503 0
M  V30 7671 C 741.665 1.53646 3.25676 0
M  V30 7672 C 741.518 3.07854 3.27942 0
M  V30 7673 C 742.837 1.21968 4.22861 0
M  V30 7674 H 739.956 0.337592 0.655134 0
M  V30 7675 H 742.598 1.42217 1.25993 0
M  V30 7676 H 740.748 1.11395 3.72187 0
M  V30 7677 H 742.42 3.58989 2.89697 0
M  V30 7678 H 740.663 3.41904 2.66991 0
M  V30 7679 H 741.334 3.45725 4.30324 0
M  V30 7680 H 743.81 1.5851 3.84726 0
M  V30 7681 H 742.686 1.67349 5.22767 0
M  V30 7682 H 742.947 0.136207 4.4189 0
M  V30 7683 N 742.006 -1.2595 0.947325 0
M  V30 7684 C 743.283 -1.88676 0.515824 0
M  V30 7685 C 743.663 -1.85547 -1.00675 0
M  V30 7686 O 743.011 -1.31399 -1.8694 0
M  V30 7687 C 743.221 -3.31734 1.08415 0
M  V30 7688 C 744.569 -4.08545 1.15654 0
M  V30 7689 O 745.593 -3.40826 1.03517 0
M  V30 7690 O 744.452 -5.29663 1.34608 0
M  V30 7691 H 741.546 -0.809537 0.169055 0
M  V30 7692 H 744.092 -1.34075 1.04029 0
M  V30 7693 H 742.864 -3.28404 2.1276 0
M  V30 7694 H 742.487 -3.93882 0.542499 0
M  V30 7695 N 743.484 -0.715051 -1.40445 0
M  V30 7696 C 744.732 -0.253826 -2.005 0
M  V30 7697 C 745.053 1.15681 -1.5698 0
M  V30 7698 O 744.323 1.78414 -0.809027 0
M  V30 7699 H 742.903 -0.0908537 -0.741454 0
M  V30 7700 H 745.565 -0.920561 -1.7179 0
M  V30 7701 H 744.661 -0.286499 -3.10782 0
M  V30 7702 N 744.962 1.50701 -0.461195 0
M  V30 7703 C 746.187 2.07171 0.0974773 0
M  V30 7704 C 746.612 1.32391 1.3362 0
M  V30 7705 O 745.97 0.368676 1.77512 0
M  V30 7706 C 746.018 3.58651 0.374409 0
M  V30 7707 O 745.122 3.85816 1.4567 0
M  V30 7708 H 744.463 0.663944 -0.00862047 0
M  V30 7709 H 746.993 1.94021 -0.649394 0
M  V30 7710 H 747.003 4.03295 0.617843 0
M  V30 7711 H 745.678 4.12498 -0.530829 0
M  V30 7712 H 744.255 3.53018 1.20136 0
M  V30 7713 N 746.441 0.193421 1.56409 0
M  V30 7714 C 747.373 -0.759944 2.16235 0
M  V30 7715 C 748.386 -1.17797 1.12373 0
M  V30 7716 O 749.575 -1.11399 1.39472 0
M  V30 7717 C 746.675 -2.03735 2.70823 0
M  V30 7718 C 745.848 -1.77939 3.9957 0
M  V30 7719 C 744.907 -2.90111 4.39001 0
M  V30 7720 O 743.933 -2.59791 5.06456 0
M  V30 7721 N 745.135 -4.18426 4.02368 0
M  V30 7722 H 747.9 -0.248348 2.98669 0
M  V30 7723 H 745.461 0.0113966 1.61896 0
M  V30 7724 H 747.453 -2.77914 2.94187 0
M  V30 7725 H 746.023 -2.46022 1.92852 0
M  V30 7726 H 745.243 -0.875491 3.84355 0
M  V30 7727 H 746.531 -1.58099 4.83614 0
M  V30 7728 H 745.929 -4.45913 3.48106 0
M  V30 7729 H 744.486 -4.89237 4.30686 0
M  V30 7730 N 747.919 -1.57396 -0.0801906 0
M  V30 7731 C 749.147 -1.91055 -0.794075 0
M  V30 7732 C 749.562 -0.788583 -1.71542 0
M  V30 7733 O 748.919 0.238587 -1.80934 0
M  V30 7734 C 748.97 -3.24418 -1.59484 0
M  V30 7735 O 748.691 -4.323 -0.710532 0
M  V30 7736 C 750.192 -3.72037 -2.41046 0
M  V30 7737 H 747.412 -0.63171 -0.226238 0
M  V30 7738 H 749.956 -2.04431 -0.0529685 0
M  V30 7739 H 748.111 -3.12595 -2.2883 0
M  V30 7740 H 748.525 -5.08976 -1.26663 0
M  V30 7741 H 749.999 -4.68006 -2.92702 0
M  V30 7742 H 750.476 -3.00624 -3.2019 0
M  V30 7743 H 751.082 -3.86777 -1.76871 0
M  V30 7744 N 749.397 0.351382 -1.53633 0
M  V30 7745 C 750.307 1.45471 -1.84052 0
M  V30 7746 C 751.323 1.57945 -0.730015 0
M  V30 7747 O 752.499 1.73571 -1.02153 0
M  V30 7748 C 749.564 2.80562 -2.03681 0
M  V30 7749 C 748.625 2.77497 -3.27558 0
M  V30 7750 C 747.858 4.06144 -3.46241 0
M  V30 7751 O 748.081 5.03028 -2.68922 0
M  V30 7752 O 747.015 4.11092 -4.39645 0
M  V30 7753 H 750.841 1.22684 -2.77817 0
M  V30 7754 H 748.426 0.542827 -1.3919 0
M  V30 7755 H 750.308 3.6058 -2.18082 0
M  V30 7756 H 748.983 3.03296 -1.13106 0
M  V30 7757 H 747.89 1.96126 -3.18568 0
M  V30 7758 H 749.223 2.59716 -4.18101 0
M  V30 7759 N 750.875 1.45233 0.611969 0
M  V30 7760 C 752.103 1.52539 1.39784 0
M  V30 7761 C 752.518 0.156533 1.8815 0
M  V30 7762 O 751.875 -0.84112 1.61961 0
M  V30 7763 C 751.926 2.50614 2.60528 0
M  V30 7764 O 751.647 3.8218 2.14173 0
M  V30 7765 C 753.148 2.67574 3.53439 0
M  V30 7766 H 750.368 0.51674 0.428043 0
M  V30 7767 H 752.912 1.90379 0.746727 0
M  V30 7768 H 751.067 2.15858 3.2169 0
M  V30 7769 H 751.481 4.35305 2.92592 0
M  V30 7770 H 752.955 3.40184 4.34717 0
M  V30 7771 H 753.432 1.73458 4.03496 0
M  V30 7772 H 754.038 3.0331 2.98133 0
M  V30 7773 N 752.353 -0.854086 1.3245 0
M  V30 7774 C 753.263 -1.99503 1.23434 0
M  V30 7775 C 754.279 -1.73371 0.147828 0
M  V30 7776 O 755.455 -1.97998 0.368609 0
M  V30 7777 C 752.52 -3.33192 0.958328 0
M  V30 7778 C 751.581 -3.72542 2.13333 0
M  V30 7779 C 750.814 -4.99852 1.8704 0
M  V30 7780 O 751.037 -5.64573 0.813239 0
M  V30 7781 O 749.971 -5.36345 2.73161 0
M  V30 7782 H 753.797 -2.10046 2.1935 0
M  V30 7783 H 751.382 -0.984823 1.12346 0
M  V30 7784 H 753.264 -4.13327 0.820918 0
M  V30 7785 H 751.939 -3.23687 0.0293299 0
M  V30 7786 H 750.846 -2.92981 2.32622 0
M  V30 7787 H 752.179 -3.86694 3.04514 0
M  V30 7788 N 753.831 -1.1567 -1.07043 0
M  V30 7789 C 754.778 -0.856336 -2.14326 0
M  V30 7790 C 755.748 0.192051 -1.64986 0
M  V30 7791 O 756.933 0.0589148 -1.90709 0
M  V30 7792 C 754.073 -0.355227 -3.43267 0
M  V30 7793 C 753.186 -1.46555 -4.06381 0
M  V30 7794 C 752.321 -0.920245 -5.23168 0
M  V30 7795 C 751.36 -2.00729 -5.78251 0
M  V30 7796 N 750.497 -1.47813 -6.86364 0
M  V30 7797 H 755.337 -1.77514 -2.39359 0
M  V30 7798 H 752.874 -0.885676 -1.17449 0
M  V30 7799 H 754.832 -0.0463804 -4.17174 0
M  V30 7800 H 753.462 0.526649 -3.18475 0
M  V30 7801 H 752.514 -1.89052 -3.30096 0
M  V30 7802 H 753.826 -2.28616 -4.43324 0
M  V30 7803 H 752.98 -0.564127 -6.04072 0
M  V30 7804 H 751.719 -0.0688477 -4.87651 0
M  V30 7805 H 750.724 -2.3722 -4.95991 0
M  V30 7806 H 751.949 -2.86252 -6.15822 0
M  V30 7807 H 749.895 -0.649145 -6.5278 0
M  V30 7808 H 749.812 -2.23498 -7.22208 0
M  V30 7809 H 751.08 -1.15036 -7.70965 0
M  V30 7810 N 755.309 1.25446 -0.953992 0
M  V30 7811 C 756.256 2.25912 -0.472485 0
M  V30 7812 C 757.226 1.59173 0.47469 0
M  V30 7813 O 758.411 1.86812 0.388082 0
M  V30 7814 C 755.551 3.44235 0.244218 0
M  V30 7815 C 754.664 4.25613 -0.740121 0
M  V30 7816 C 753.799 5.312 -0.000922267 0
M  V30 7817 C 752.838 6.04265 -0.976236 0
M  V30 7818 N 751.975 7.01589 -0.267952 0
M  V30 7819 H 756.815 2.66469 -1.3341 0
M  V30 7820 H 754.352 1.31005 -0.669045 0
M  V30 7821 H 756.31 4.11682 0.676314 0
M  V30 7822 H 754.94 3.04554 1.06988 0
M  V30 7823 H 753.992 3.57834 -1.2907 0
M  V30 7824 H 755.304 4.762 -1.48441 0
M  V30 7825 H 754.458 6.04719 0.48984 0
M  V30 7826 H 753.197 4.81484 0.776159 0
M  V30 7827 H 752.202 5.29561 -1.478 0
M  V30 7828 H 753.427 6.5607 -1.75354 0
M  V30 7829 H 751.373 6.54164 0.490403 0
M  V30 7830 H 751.29 7.4999 -0.951344 0
M  V30 7831 H 752.558 7.7924 0.201294 0
M  V30 7832 N 756.787 0.722489 1.40064 0
M  V30 7833 C 757.737 0.0506801 2.27944 0
M  V30 7834 C 758.721 -0.725493 1.43615 0
M  V30 7835 O 759.913 -0.596559 1.66644 0
M  V30 7836 C 757.042 -0.865195 3.32219 0
M  V30 7837 C 756.128 -0.0838393 4.24017 0
M  V30 7838 N 756.519 0.936516 4.97054 0
M  V30 7839 C 754.817 -0.315371 4.44884 0
M  V30 7840 C 755.518 1.4066 5.64437 0
M  V30 7841 N 754.494 0.727485 5.3871 0
M  V30 7842 H 758.296 0.832609 2.8186 0
M  V30 7843 H 755.81 0.555691 1.52597 0
M  V30 7844 H 757.807 -1.36186 3.94029 0
M  V30 7845 H 756.467 -1.64642 2.79862 0
M  V30 7846 H 757.478 1.31755 5.0086 0
M  V30 7847 H 754.155 -1.07238 4.03492 0
M  V30 7848 H 755.545 2.25482 6.32936 0
M  V30 7849 N 758.265 -1.50454 0.469181 0
M  V30 7850 C 759.512 -2.02315 -0.086469 0
M  V30 7851 C 759.84 -1.3513 -1.39893 0
M  V30 7852 O 759.095 -0.465341 -1.90087 0
M  V30 7853 C 759.394 -3.55963 -0.320207 0
M  V30 7854 C 759.06 -4.41615 0.910318 0
M  V30 7855 C 757.722 -4.64743 1.2477 0
M  V30 7856 C 760.074 -4.91661 1.72971 0
M  V30 7857 C 757.402 -5.35161 2.40457 0
M  V30 7858 C 759.754 -5.6335 2.87785 0
M  V30 7859 C 758.418 -5.84732 3.2194 0
M  V30 7860 H 757.688 -0.740324 -0.0316412 0
M  V30 7861 H 760.335 -1.81087 0.622872 0
M  V30 7862 H 758.64 -3.75695 -1.11177 0
M  V30 7863 H 760.337 -3.93653 -0.764071 0
M  V30 7864 H 756.927 -4.23833 0.637467 0
M  V30 7865 H 761.111 -4.73649 1.48224 0
M  V30 7866 H 756.367 -5.49924 2.67196 0
M  V30 7867 H 760.541 -6.0111 3.51624 0
M  V30 7868 H 758.168 -6.39074 4.1169 0
M  V30 7869 N 759.743 -0.201713 -1.56304 0
M  V30 7870 C 760.99 0.435307 -1.97766 0
M  V30 7871 C 761.318 1.61169 -1.0888 0
M  V30 7872 O 760.573 1.95272 -0.12934 0
M  V30 7873 C 760.872 0.931432 -3.45049 0
M  V30 7874 C 760.538 -0.132287 -4.50706 0
M  V30 7875 C 759.2 -0.424552 -4.79323 0
M  V30 7876 C 761.552 -0.852703 -5.14177 0
M  V30 7877 C 758.88 -1.4421 -5.68701 0
M  V30 7878 C 761.232 -1.85944 -6.04655 0
M  V30 7879 C 759.896 -2.15884 -6.31625 0
M  V30 7880 H 759.166 0.15929 -0.723676 0
M  V30 7881 H 761.813 -0.300069 -1.89134 0
M  V30 7882 H 760.118 1.7452 -3.50785 0
M  V30 7883 H 761.815 1.43383 -3.74489 0
M  V30 7884 H 758.405 0.105671 -4.2847 0
M  V30 7885 H 762.589 -0.640139 -4.92154 0
M  V30 7886 H 757.845 -1.6799 -5.87869 0
M  V30 7887 H 762.019 -2.42286 -6.52894 0
M  V30 7888 H 759.646 -2.94875 -7.0068 0
M  V30 7889 N 761.222 1.57436 0.0718424 0
M  V30 7890 C 762.471 1.86431 0.769826 0
M  V30 7891 C 762.784 0.794355 1.78744 0
M  V30 7892 O 763.99 0.972148 2.53499 0
M  V30 7893 C 762.446 3.307 1.42006 0
M  V30 7894 C 762.054 4.45824 0.441017 0
M  V30 7895 C 763.798 3.68894 2.10041 0
M  V30 7896 C 761.705 5.81134 1.09717 0
M  V30 7897 H 760.635 0.695474 0.291259 0
M  V30 7898 H 763.286 1.83485 0.0231224 0
M  V30 7899 H 761.668 3.28257 2.21502 0
M  V30 7900 H 762.842 4.59659 -0.32413 0
M  V30 7901 H 761.157 4.16181 -0.134886 0
M  V30 7902 H 763.754 4.67281 2.59908 0
M  V30 7903 H 764.097 2.98692 2.89981 0
M  V30 7904 H 764.63 3.73326 1.37376 0
M  V30 7905 H 761.369 6.54628 0.338095 0
M  V30 7906 H 760.889 5.711 1.83317 0
M  V30 7907 H 762.568 6.26468 1.617 0
M  V30 7908 N 762.7 -0.34323 1.53817 0
M  V30 7909 C 763.648 -1.44176 1.82527 0
M  V30 7910 C 764.642 -1.54452 0.695772 0
M  V30 7911 O 765.848 -1.57072 0.879114 0
M  V30 7912 H 762.223 -0.480729 0.578277 0
M  V30 7913 H 764.194 -1.17176 2.74431 0
M  V30 7914 C 762.943 -2.80695 2.05197 0
M  V30 7915 H 762.266 -2.73554 2.91561 0
M  V30 7916 H 763.706 -3.56679 2.29251 0
M  V30 7917 C 762.165 -3.26322 0.837589 0
M  V30 7918 O 762.695 -4.01683 0.0371631 0
M  V30 7919 N 760.901 -2.83128 0.654724 0
M  V30 7920 H 760.448 -2.21965 1.30725 0
M  V30 7921 H 760.406 -3.14011 -0.156345 0
M  V30 7922 N 764.178 -1.45556 -0.604258 0
M  V30 7923 C 765.427 -1.49019 -1.35928 0
M  V30 7924 C 765.74 -0.137409 -1.95117 0
M  V30 7925 O 766.946 -0.0497032 -2.71455 0
M  V30 7926 C 765.402 -2.62477 -2.46239 0
M  V30 7927 C 765.01 -4.04082 -1.93447 0
M  V30 7928 C 766.754 -2.7519 -3.23219 0
M  V30 7929 C 764.661 -5.08917 -3.0126 0
M  V30 7930 H 763.591 -0.554518 -0.510907 0
M  V30 7931 H 766.242 -1.71705 -0.647262 0
M  V30 7932 H 764.624 -2.3308 -3.2014 0
M  V30 7933 H 765.798 -4.43173 -1.26232 0
M  V30 7934 H 764.113 -3.95849 -1.29201 0
M  V30 7935 H 766.71 -3.50683 -4.0364 0
M  V30 7936 H 767.053 -1.81941 -3.74437 0
M  V30 7937 H 767.586 -3.04129 -2.56418 0
M  V30 7938 H 764.325 -6.03886 -2.54955 0
M  V30 7939 H 763.845 -4.74393 -3.67031 0
M  V30 7940 H 765.524 -5.33814 -3.65584 0
M  V30 7941 N 765.656 0.84705 -1.32902 0
M  V30 7942 C 766.896 1.61554 -1.25218 0
M  V30 7943 C 767.26 1.91141 0.18143 0
M  V30 7944 O 768.461 2.6607 0.382106 0
M  V30 7945 C 766.732 2.89553 -2.09509 0
M  V30 7946 S 768.291 3.80283 -2.18931 0
M  V30 7947 H 765.109 0.554031 -0.445613 0
M  V30 7948 H 767.711 1.00251 -1.67839 0
M  V30 7949 H 766.415 2.65776 -3.12716 0
M  V30 7950 H 765.946 3.55868 -1.67694 0
M  V30 7951 H 767.961 4.77641 -1.34438 0
M  V30 7952 N 767.134 1.16236 1.06428 0
M  V30 7953 C 768.084 0.835994 2.12121 0
M  V30 7954 C 769.068 -0.183955 1.59845 0
M  V30 7955 O 770.26 0.0166741 1.76992 0
M  V30 7956 C 767.389 0.337333 3.41639 0
M  V30 7957 C 766.475 1.38798 4.00744 0
M  V30 7958 N 766.866 2.59799 4.3398 0
M  V30 7959 C 765.164 1.24292 4.28331 0
M  V30 7960 C 765.865 3.27213 4.80943 0
M  V30 7961 N 764.841 2.54594 4.80294 0
M  V30 7962 H 768.643 1.75615 2.35662 0
M  V30 7963 H 766.157 1.04921 1.23957 0
M  V30 7964 H 768.154 0.0851274 4.16813 0
M  V30 7965 H 766.814 -0.57677 3.19536 0
M  V30 7966 H 767.825 2.96867 4.24371 0
M  V30 7967 H 764.502 0.389464 4.15679 0
M  V30 7968 H 765.892 4.30492 5.15874 0
M  V30 7969 N 768.612 -1.24939 0.960631 0
M  V30 7970 C 770.028 -1.45039 0.666018 0
M  V30 7971 C 770.228 -1.86021 -0.774501 0
M  V30 7972 O 769.284 -1.99392 -1.54916 0
M  V30 7973 C 770.597 -2.51775 1.64408 0
M  V30 7974 C 772.145 -2.6561 1.65592 0
M  V30 7975 C 772.62 -3.75536 2.62177 0
M  V30 7976 N 774.111 -3.82954 2.60577 0
M  V30 7977 C 774.846 -4.67517 3.31987 0
M  V30 7978 N 774.342 -5.56321 4.1289 0
M  V30 7979 N 776.135 -4.61535 3.20845 0
M  V30 7980 H 768.286 -0.96632 1.89145 0
M  V30 7981 H 770.549 -0.486034 0.813926 0
M  V30 7982 H 770.255 -2.28534 2.67329 0
M  V30 7983 H 770.129 -3.49804 1.41128 0
M  V30 7984 H 772.516 -2.88212 0.633846 0
M  V30 7985 H 772.597 -1.67962 1.92931 0
M  V30 7986 H 772.241 -3.53684 3.64514 0
M  V30 7987 H 772.171 -4.72682 2.32119 0
M  V30 7988 H 774.662 -3.19478 2.01847 0
M  V30 7989 H 774.975 -6.17787 4.64283 0
M  V30 7990 H 773.32 -5.5601 4.16987 0
M  V30 7991 H 776.511 -3.91169 2.57108 0
M  V30 7992 H 776.684 -5.27214 3.76762 0
M  V30 7993 N 770.09 -0.729906 -1.39679 0
M  V30 7994 C 771.336 -0.27603 -2.00913 0
M  V30 7995 C 771.669 1.13227 -1.57776 0
M  V30 7996 O 770.944 1.7709 -0.804319 0
M  V30 7997 C 771.227 -0.372157 -3.58172 0
M  V30 7998 C 771.08 -1.81986 -4.11341 0
M  V30 7999 C 772.399 0.248378 -4.39399 0
M  V30 8000 H 769.518 -0.101773 -0.729939 0
M  V30 8001 H 772.16 -0.925104 -1.65957 0
M  V30 8002 H 770.31 0.180459 -3.88081 0
M  V30 8003 H 771.982 -2.42896 -3.92172 0
M  V30 8004 H 770.225 -2.34287 -3.65092 0
M  V30 8005 H 770.896 -1.83842 -5.20486 0
M  V30 8006 H 773.372 -0.222645 -4.15504 0
M  V30 8007 H 772.248 0.150746 -5.48693 0
M  V30 8008 H 772.509 1.33378 -4.21501 0
M  V30 8009 N 771.568 1.50203 -0.477153 0
M  V30 8010 C 772.498 2.31517 0.303646 0
M  V30 8011 C 773.479 1.38696 0.984753 0
M  V30 8012 O 774.664 1.67615 0.980758 0
M  V30 8013 C 771.794 3.18598 1.38249 0
M  V30 8014 C 770.748 4.2002 0.822645 0
M  V30 8015 C 770.074 4.95878 2.00024 0
M  V30 8016 C 771.374 5.22023 -0.170185 0
M  V30 8017 H 773.068 2.97042 -0.375027 0
M  V30 8018 H 770.614 1.42848 -0.181802 0
M  V30 8019 H 772.567 3.74282 1.93625 0
M  V30 8020 H 771.291 2.5097 2.09002 0
M  V30 8021 H 769.95 3.65445 0.290813 0
M  V30 8022 H 769.598 4.24717 2.69489 0
M  V30 8023 H 769.298 5.64487 1.63183 0
M  V30 8024 H 770.822 5.54399 2.55878 0
M  V30 8025 H 772.236 5.72543 0.294606 0
M  V30 8026 H 770.633 5.98386 -0.453181 0
M  V30 8027 H 771.703 4.72396 -1.09408 0
M  V30 8028 N 773.046 0.209999 1.56195 0
M  V30 8029 C 773.978 -0.736967 2.17029 0
M  V30 8030 C 774.991 -1.16599 1.13616 0
M  V30 8031 O 776.18 -1.09914 1.40646 0
M  V30 8032 C 773.28 -2.00852 2.72969 0
M  V30 8033 C 772.453 -1.73691 4.01435 0
M  V30 8034 C 771.512 -2.85439 4.42053 0
M  V30 8035 O 770.538 -2.54405 5.09183 0
M  V30 8036 N 771.74 -4.14135 4.06783 0
M  V30 8037 H 774.505 -0.216656 2.98916 0
M  V30 8038 H 772.066 0.0285672 1.61875 0
M  V30 8039 H 774.058 -2.74778 2.97118 0
M  V30 8040 H 772.628 -2.43963 1.95451 0
M  V30 8041 H 771.848 -0.834676 3.85262 0
M  V30 8042 H 773.136 -1.52961 4.85263 0
M  V30 8043 H 772.534 -4.42196 3.52816 0
M  V30 8044 H 771.091 -4.84642 4.35851 0
M  V30 8045 N 774.524 -1.57472 -0.0634922 0
M  V30 8046 C 775.434 -2.07621 -1.09227 0
M  V30 8047 C 776.45 -1.00746 -1.41867 0
M  V30 8048 O 777.626 -1.32269 -1.51878 0
M  V30 8049 C 774.691 -2.51707 -2.38421 0
M  V30 8050 C 773.752 -3.72917 -2.12676 0
M  V30 8051 C 772.985 -4.14891 -3.3571 0
M  V30 8052 O 773.208 -3.56663 -4.45137 0
M  V30 8053 O 772.142 -5.07616 -3.23434 0
M  V30 8054 H 775.968 -2.95612 -0.696205 0
M  V30 8055 H 773.553 -1.46787 -0.27819 0
M  V30 8056 H 775.435 -2.80547 -3.14438 0
M  V30 8057 H 774.11 -1.66842 -2.77391 0
M  V30 8058 H 773.017 -3.49148 -1.34337 0
M  V30 8059 H 774.35 -4.5866 -1.78583 0
M  V30 8060 N 776.003 0.335068 -1.53997 0
M  V30 8061 C 777.251 1.07223 -1.71312 0
M  V30 8062 C 777.572 1.88911 -0.483486 0
M  V30 8063 O 776.842 1.89344 0.50257 0
M  V30 8064 H 775.422 0.398846 -0.63161 0
M  V30 8065 H 778.084 0.374288 -1.91272 0
M  V30 8066 H 777.18 1.7448 -2.58772 0
M  V30 8067 N 777.481 1.45874 0.596531 0
M  V30 8068 C 778.428 1.55389 1.70655 0
M  V30 8069 C 779.398 0.399036 1.61236 0
M  V30 8070 O 780.583 0.61396 1.80652 0
M  V30 8071 C 777.723 1.53705 3.0898 0
M  V30 8072 C 776.836 2.79823 3.29125 0
M  V30 8073 C 775.971 2.69735 4.5762 0
M  V30 8074 C 775.01 3.90856 4.71061 0
M  V30 8075 N 774.147 3.79237 5.90867 0
M  V30 8076 H 778.987 2.50211 1.61859 0
M  V30 8077 H 776.524 1.24146 0.789069 0
M  V30 8078 H 778.482 1.50715 3.89026 0
M  V30 8079 H 777.112 0.624247 3.16706 0
M  V30 8080 H 776.164 2.92852 2.42779 0
M  V30 8081 H 777.476 3.69628 3.34927 0
M  V30 8082 H 776.63 2.64773 5.45875 0
M  V30 8083 H 775.369 1.77547 4.54234 0
M  V30 8084 H 774.374 3.96164 3.81227 0
M  V30 8085 H 775.599 4.84124 4.76236 0
M  V30 8086 H 773.545 2.89825 5.88504 0
M  V30 8087 H 773.462 4.62686 5.97877 0
M  V30 8088 H 774.73 3.78227 6.8159 0
M  V30 8089 N 778.959 -0.83999 1.33349 0
M  V30 8090 C 779.922 -1.93128 1.23426 0
M  V30 8091 C 780.922 -1.60065 0.153599 0
M  V30 8092 O 782.112 -1.69425 0.405049 0
M  V30 8093 C 779.244 -3.28761 0.901622 0
M  V30 8094 H 780.437 -2.03352 2.20427 0
M  V30 8095 H 777.99 -1.03194 1.17391 0
M  V30 8096 H 778.725 -3.24233 -0.0659337 0
M  V30 8097 H 778.51 -3.54138 1.68311 0
M  V30 8098 H 780 -4.08714 0.856913 0
M  V30 8099 N 780.437 -1.16799 -1.0581 0
M  V30 8100 C 781.853 -0.913935 -1.30841 0
M  V30 8101 C 782.053 0.430439 -1.96849 0
M  V30 8102 O 781.109 1.16885 -2.23817 0
M  V30 8103 C 782.422 -2.06662 -2.18429 0
M  V30 8104 C 783.97 -2.10294 -2.31831 0
M  V30 8105 C 784.445 -3.2493 -3.22776 0
M  V30 8106 N 785.936 -3.24678 -3.30361 0
M  V30 8107 C 786.671 -4.10021 -4.00837 0
M  V30 8108 N 786.167 -5.05461 -4.73795 0
M  V30 8109 N 787.96 -3.97991 -3.96937 0
M  V30 8110 H 780.111 -2.03343 -0.613613 0
M  V30 8111 H 782.374 -0.88754 -0.333133 0
M  V30 8112 H 782.08 -3.03791 -1.77211 0
M  V30 8113 H 781.954 -2.01233 -3.19038 0
M  V30 8114 H 784.341 -1.13754 -2.72294 0
M  V30 8115 H 784.422 -2.19786 -1.30873 0
M  V30 8116 H 784.066 -4.21731 -2.83028 0
M  V30 8117 H 783.996 -3.12674 -4.23725 0
M  V30 8118 H 786.487 -2.55573 -2.78372 0
M  V30 8119 H 786.8 -5.66989 -5.25113 0
M  V30 8120 H 785.145 -5.09436 -4.72758 0
M  V30 8121 H 788.336 -3.2273 -3.39062 0
M  V30 8122 H 788.509 -4.64722 -4.51594 0
M  V30 8123 N 781.915 1.24427 -0.967243 0
M  V30 8124 C 783.163 1.92107 -0.627638 0
M  V30 8125 C 783.484 1.75991 0.83978 0
M  V30 8126 O 782.754 1.13118 1.59941 0
M  V30 8127 H 781.334 0.710986 -0.229145 0
M  V30 8128 H 783.996 1.51331 -1.22821 0
M  V30 8129 H 783.092 2.99791 -0.867844 0
M  V30 8130 N 783.393 0.737304 1.3929 0
M  V30 8131 C 784.633 0.290966 2.02318 0
M  V30 8132 C 784.997 -1.10174 1.57244 0
M  V30 8133 O 786.198 -1.64628 2.12488 0
M  V30 8134 C 784.469 0.391767 3.55246 0
M  V30 8135 S 786.028 0.0256103 4.38793 0
M  V30 8136 H 782.846 0.113862 0.701824 0
M  V30 8137 H 785.448 0.964329 1.70062 0
M  V30 8138 H 784.152 1.40662 3.85542 0
M  V30 8139 H 783.683 -0.299338 3.9226 0
M  V30 8140 H 785.698 -1.18991 4.81722 0
M  V30 8141 N 784.871 -1.49948 0.485112 0
M  V30 8142 C 786.282 -1.8667 0.0334041 0
M  V30 8143 C 786.633 -1.3988 -1.37579 0
M  V30 8144 O 785.758 -0.769788 -2.02245 0
M  V30 8145 C 786.353 -3.38757 0.0538426 0
M  V30 8146 C 784.912 -3.74839 -0.342453 0
M  V30 8147 C 784.059 -2.73894 0.433281 0
M  V30 8148 H 787.01 -1.42492 0.698699 0
M  V30 8149 H 787.031 -3.73132 -0.745146 0
M  V30 8150 H 786.543 -3.72782 1.07959 0
M  V30 8151 H 784.644 -3.46419 -1.37203 0
M  V30 8152 H 784.757 -4.79088 -0.0340503 0
M  V30 8153 H 783.121 -2.54441 -0.114849 0
M  V30 8154 H 783.904 -3.10763 1.45881 0
M  V30 8155 N 786.349 -0.21828 -1.56081 0
M  V30 8156 C 787.259 0.704602 -2.23769 0
M  V30 8157 C 788.275 1.21633 -1.24425 0
M  V30 8158 O 789.451 1.25862 -1.57228 0
M  V30 8159 C 786.516 1.89725 -2.90182 0
M  V30 8160 C 785.577 1.42782 -4.0486 0
M  V30 8161 C 784.81 2.56361 -4.68097 0
M  V30 8162 O 785.033 3.74417 -4.30312 0
M  V30 8163 O 783.967 2.2775 -5.57148 0
M  V30 8164 H 787.793 0.158007 -3.03289 0
M  V30 8165 H 785.378 0.0120279 -1.49395 0
M  V30 8166 H 787.26 2.59382 -3.32113 0
M  V30 8167 H 785.935 2.432 -2.13624 0
M  V30 8168 H 784.842 0.699359 -3.67505 0
M  V30 8169 H 786.175 0.939474 -4.83151 0
M  V30 8170 N 787.827 1.57504 0.0551401 0
M  V30 8171 C 789.104 1.79155 0.785048 0
M  V30 8172 C 789.484 0.809995 1.94942 0
M  V30 8173 O 788.832 -0.153432 2.27984 0
M  V30 8174 C 789.042 3.26134 1.24247 0
M  V30 8175 C 790.39 3.90419 1.66908 0
M  V30 8176 O 791.414 3.30126 1.33772 0
M  V30 8177 O 790.273 4.96523 2.28314 0
M  V30 8178 H 787.367 0.735825 0.377479 0
M  V30 8179 H 789.913 1.69666 0.0339285 0
M  V30 8180 H 788.685 3.89145 0.410089 0
M  V30 8181 H 788.308 3.40411 2.05441 0
M  V30 8182 N 789.305 -0.326896 1.54172 0
M  V30 8183 C 790.268 -1.38515 1.8261 0
M  V30 8184 C 791.268 -1.44872 0.697771 0
M  V30 8185 O 792.458 -1.44957 0.966078 0
M  V30 8186 C 789.59 -2.77281 1.98313 0
M  V30 8187 H 790.783 -1.14556 2.77159 0
M  V30 8188 H 788.336 -0.562199 1.45839 0
M  V30 8189 H 789.071 -3.065 1.05964 0
M  V30 8190 H 788.856 -2.74061 2.80416 0
M  V30 8191 H 790.346 -3.53845 2.21773 0
M  V30 8192 N 790.784 -1.46188 -0.588786 0
M  V30 8193 C 791.747 -1.55882 -1.68029 0
M  V30 8194 C 792.747 -0.436515 -1.54762 0
M  V30 8195 O 793.937 -0.700626 -1.59489 0
M  V30 8196 C 791.069 -1.47332 -3.07418 0
M  V30 8197 H 792.262 -2.5315 -1.60795 0
M  V30 8198 H 789.815 -1.33908 -0.806116 0
M  V30 8199 H 790.55 -0.513193 -3.20214 0
M  V30 8200 H 790.335 -2.28753 -3.18456 0
M  V30 8201 H 791.825 -1.57187 -3.86887 0
M  V30 8202 N 792.262 0.832906 -1.33792 0
M  V30 8203 C 793.508 1.59089 -1.25772 0
M  V30 8204 C 793.841 1.93414 0.174601 0
M  V30 8205 O 793.116 1.59195 1.11746 0
M  V30 8206 C 793.399 2.89699 -2.13885 0
M  V30 8207 C 793.252 2.62017 -3.65605 0
M  V30 8208 C 794.571 3.91182 -2.01654 0
M  V30 8209 H 791.69 0.577232 -0.458227 0
M  V30 8210 H 794.332 0.960227 -1.6395 0
M  V30 8211 H 792.482 3.4352 -1.81456 0
M  V30 8212 H 794.154 2.14582 -4.08353 0
M  V30 8213 H 792.397 1.95621 -3.87189 0
M  V30 8214 H 793.068 3.55112 -4.2261 0
M  V30 8215 H 795.544 3.46684 -2.30107 0
M  V30 8216 H 794.42 4.80391 -2.65548 0
M  V30 8217 H 794.681 4.30861 -0.990536 0
M  V30 8218 N 793.74 1.17359 1.05189 0
M  V30 8219 C 794.98 0.972812 1.79766 0
M  V30 8220 C 795.344 -0.489832 1.85647 0
M  V30 8221 O 796.545 -0.809682 2.56315 0
M  V30 8222 C 794.816 1.59636 3.19767 0
M  V30 8223 S 796.375 1.54178 4.10822 0
M  V30 8224 H 793.193 0.34959 0.619119 0
M  V30 8225 H 795.795 1.49304 1.26209 0
M  V30 8226 H 794.499 2.65336 3.13089 0
M  V30 8227 H 794.03 1.07594 3.78401 0
M  V30 8228 H 796.045 0.549785 4.93145 0
M  V30 8229 N 795.218 -1.23913 0.973828 0
M  V30 8230 C 796.181 -2.23367 0.51378 0
M  V30 8231 C 797.181 -1.55923 -0.39302 0
M  V30 8232 O 798.371 -1.73187 -0.187626 0
M  V30 8233 C 795.503 -3.39944 -0.255152 0
M  V30 8234 H 796.696 -2.65581 1.39307 0
M  V30 8235 H 794.249 -1.36632 0.759039 0
M  V30 8236 H 794.984 -3.03177 -1.15127 0
M  V30 8237 H 794.769 -3.90098 0.395673 0
M  V30 8238 H 796.259 -4.13749 -0.565842 0
M  V30 8239 N 796.696 -0.74468 -1.38897 0
M  V30 8240 C 797.942 -0.297324 -2.00609 0
M  V30 8241 C 798.275 1.11547 -1.58968 0
M  V30 8242 O 797.55 1.76227 -0.823057 0
M  V30 8243 C 797.833 -0.410125 -3.57757 0
M  V30 8244 C 797.686 -1.86338 -4.09387 0
M  V30 8245 C 799.005 0.20176 -4.39637 0
M  V30 8246 H 796.124 -0.109509 -0.728819 0
M  V30 8247 H 798.766 -0.942653 -1.64967 0
M  V30 8248 H 796.916 0.139287 -3.8825 0
M  V30 8249 H 798.588 -2.47042 -3.89574 0
M  V30 8250 H 796.831 -2.38146 -3.62586 0
M  V30 8251 H 797.502 -1.89352 -5.18507 0
M  V30 8252 H 799.978 -0.266703 -4.15244 0
M  V30 8253 H 798.854 0.0925415 -5.48822 0
M  V30 8254 H 799.115 1.289 -4.22891 0
M  V30 8255 N 798.174 1.49689 -0.493057 0
M  V30 8256 C 799.451 1.9525 0.116907 0
M  V30 8257 C 799.831 1.43429 1.54892 0
M  V30 8258 O 799.179 0.644621 2.19219 0
M  V30 8259 C 799.389 3.4898 0.037705 0
M  V30 8260 C 800.737 4.24052 0.215621 0
M  V30 8261 O 801.761 3.5602 0.113266 0
M  V30 8262 O 800.62 5.44847 0.42477 0
M  V30 8263 H 797.714 0.820973 0.099662 0
M  V30 8264 H 800.26 1.60367 -0.555029 0
M  V30 8265 H 799.032 3.79309 -0.961251 0
M  V30 8266 H 798.655 3.9046 0.750137 0
M  V30 8267 N 799.652 0.226554 1.55963 0
M  V30 8268 C 800.599 -0.681504 2.20509 0
M  V30 8269 C 801.569 -1.1866 1.16229 0
M  V30 8270 O 802.754 -1.24478 1.44602 0
M  V30 8271 C 799.894 -1.88183 2.89277 0
M  V30 8272 C 799.007 -1.41517 4.08163 0
M  V30 8273 C 798.142 -2.57346 4.647 0
M  V30 8274 C 797.181 -2.07441 5.75877 0
M  V30 8275 N 796.318 -3.16561 6.26685 0
M  V30 8276 H 801.158 -0.124372 2.9774 0
M  V30 8277 H 798.695 -0.0496333 1.47016 0
M  V30 8278 H 800.653 -2.58666 3.27335 0
M  V30 8279 H 799.283 -2.41177 2.14555 0
M  V30 8280 H 798.335 -0.605099 3.75557 0
M  V30 8281 H 799.647 -1.00928 4.88482 0
M  V30 8282 H 798.801 -3.35903 5.05227 0
M  V30 8283 H 797.54 -3.01227 3.83554 0
M  V30 8284 H 796.545 -1.27347 5.34848 0
M  V30 8285 H 797.77 -1.64554 6.58862 0
M  V30 8286 H 795.716 -3.59914 5.48451 0
M  V30 8287 H 795.633 -2.80239 7.02141 0
M  V30 8288 H 796.901 -3.95238 6.71868 0
M  V30 8289 N 801.13 -1.57531 -0.0467866 0
M  V30 8290 C 802.078 -2.06455 -1.0714 0
M  V30 8291 C 803.072 -0.974744 -1.38546 0
M  V30 8292 O 804.278 -1.15974 -1.37659 0
M  V30 8293 H 800.653 -0.658607 -0.362962 0
M  V30 8294 H 802.624 -2.91613 -0.632813 0
M  V30 8295 C 801.373 -2.54481 -2.36927 0
M  V30 8296 H 800.696 -3.37946 -2.13617 0
M  V30 8297 H 802.136 -2.92442 -3.07007 0
M  V30 8298 C 800.595 -1.43836 -3.04652 0
M  V30 8299 O 801.125 -0.794531 -3.93764 0
M  V30 8300 N 799.331 -1.17727 -2.65686 0
M  V30 8301 H 798.878 -1.70265 -1.93307 0
M  V30 8302 H 798.836 -0.439051 -3.11319 0
M  V30 8303 N 802.608 0.318715 -1.54344 0
M  V30 8304 C 803.856 1.054 -1.72439 0
M  V30 8305 C 804.177 1.88388 -0.503495 0
M  V30 8306 O 803.447 1.89866 0.48246 0
M  V30 8307 H 802.027 0.392124 -0.635805 0
M  V30 8308 H 804.689 0.35398 -1.91659 0
M  V30 8309 H 803.785 1.71726 -2.60608 0
M  V30 8310 N 804.086 1.46499 0.581025 0
M  V30 8311 C 805.311 1.55708 1.37002 0
M  V30 8312 C 805.736 0.19942 1.8704 0
M  V30 8313 O 805.094 -0.820731 1.61659 0
M  V30 8314 C 805.142 2.56716 2.53238 0
M  V30 8315 O 804.246 2.10336 3.54729 0
M  V30 8316 H 803.587 0.523912 0.407937 0
M  V30 8317 H 806.117 1.92085 0.704602 0
M  V30 8318 H 806.127 2.76378 3.00132 0
M  V30 8319 H 804.802 3.55307 2.16171 0
M  V30 8320 H 803.379 2.00669 3.14303 0
M  V30 8321 N 805.565 -0.825799 1.34232 0
M  V30 8322 C 806.512 -1.93651 1.2557 0
M  V30 8323 C 807.482 -1.65578 0.131536 0
M  V30 8324 O 808.667 -1.88231 0.312027 0
M  V30 8325 C 805.807 -3.29862 1.01415 0
M  V30 8326 C 804.92 -3.70247 2.22579 0
M  V30 8327 C 804.055 -4.95392 1.91731 0
M  V30 8328 C 803.094 -5.28349 3.09053 0
M  V30 8329 N 802.231 -6.44671 2.78107 0
M  V30 8330 H 807.071 -2.00392 2.20561 0
M  V30 8331 H 804.608 -0.980441 1.09662 0
M  V30 8332 H 806.566 -4.08356 0.854485 0
M  V30 8333 H 805.196 -3.22642 0.100936 0
M  V30 8334 H 804.248 -2.87169 2.49476 0
M  V30 8335 H 805.56 -3.90575 3.10246 0
M  V30 8336 H 804.714 -5.81665 1.72484 0
M  V30 8337 H 803.453 -4.77059 1.0132 0
M  V30 8338 H 802.458 -4.40574 3.289 0
M  V30 8339 H 803.683 -5.48622 4.00239 0
M  V30 8340 H 801.629 -6.278 1.9027 0
M  V30 8341 H 801.546 -6.65158 3.59306 0
M  V30 8342 H 802.814 -7.34022 2.62358 0
M  V30 8343 N 807.043 -1.17915 -1.04565 0
M  V30 8344 C 807.991 -0.897919 -2.1457 0
M  V30 8345 C 808.985 0.139883 -1.68821 0
M  V30 8346 O 810.191 -0.00779463 -1.79998 0
M  V30 8347 H 806.566 -0.272867 -0.700748 0
M  V30 8348 H 808.537 -1.83268 -2.3549 0
M  V30 8349 C 807.286 -0.434634 -3.44973 0
M  V30 8350 H 806.609 -1.22469 -3.8058 0
M  V30 8351 H 808.049 -0.276804 -4.23095 0
M  V30 8352 C 806.508 0.848738 -3.26034 0
M  V30 8353 O 807.038 1.9141 -3.53164 0
M  V30 8354 N 805.244 0.799373 -2.79389 0
M  V30 8355 H 804.791 -0.0678192 -2.57511 0
M  V30 8356 H 804.749 1.6585 -2.67098 0
M  V30 8357 N 808.521 1.23394 -0.980386 0
M  V30 8358 C 809.451 2.2717 -0.540024 0
M  V30 8359 C 810.432 1.64659 0.426787 0
M  V30 8360 O 811.617 1.91543 0.320153 0
M  V30 8361 C 808.747 3.46939 0.15836 0
M  V30 8362 C 807.701 4.21802 -0.725732 0
M  V30 8363 C 807.027 5.34597 0.104866 0
M  V30 8364 C 808.327 4.81802 -2.01654 0
M  V30 8365 H 810.021 2.64257 -1.40743 0
M  V30 8366 H 807.567 1.2703 -0.678193 0
M  V30 8367 H 809.52 4.18683 0.477737 0
M  V30 8368 H 808.244 3.08912 1.06022 0
M  V30 8369 H 806.903 3.51875 -1.02857 0
M  V30 8370 H 806.551 4.92812 1.00726 0
M  V30 8371 H 806.251 5.85607 -0.483557 0
M  V30 8372 H 807.775 6.09163 0.418624 0
M  V30 8373 H 809.189 5.45554 -1.76193 0
M  V30 8374 H 807.586 5.43098 -2.55273 0
M  V30 8375 H 808.656 4.02549 -2.70338 0
M  V30 8376 N 809.999 0.752036 1.385 0
M  V30 8377 C 811.247 0.306895 1.99756 0
M  V30 8378 C 811.568 -1.11478 1.59992 0
M  V30 8379 O 810.838 -1.76206 0.856045 0
M  V30 8380 H 809.418 0.11048 0.738785 0
M  V30 8381 H 812.08 0.965785 1.69289 0
M  V30 8382 H 811.176 0.368797 3.09913 0
M  V30 8383 N 811.477 -1.49425 0.500989 0
M  V30 8384 C 812.424 -2.29126 -0.277443 0
M  V30 8385 C 813.394 -1.35522 -0.960363 0
M  V30 8386 O 814.579 -1.64479 -0.967027 0
M  V30 8387 C 811.719 -3.18193 -1.33593 0
M  V30 8388 C 810.832 -4.26854 -0.664791 0
M  V30 8389 C 809.967 -5.03137 -1.70372 0
M  V30 8390 C 809.006 -6.03635 -1.01445 0
M  V30 8391 N 808.143 -6.73083 -1.99758 0
M  V30 8392 H 812.983 -2.95187 0.408458 0
M  V30 8393 H 810.52 -1.45546 0.213275 0
M  V30 8394 H 812.478 -3.68207 -1.96161 0
M  V30 8395 H 811.108 -2.54116 -1.9906 0
M  V30 8396 H 810.16 -3.80328 0.0741708 0
M  V30 8397 H 811.472 -4.9865 -0.122197 0
M  V30 8398 H 810.626 -5.5702 -2.40445 0
M  V30 8399 H 809.365 -4.31114 -2.28017 0
M  V30 8400 H 808.37 -5.48984 -0.299496 0
M  V30 8401 H 809.595 -6.77644 -0.444497 0
M  V30 8402 H 807.541 -6.03832 -2.56365 0
M  V30 8403 H 807.458 -7.40855 -1.50565 0
M  V30 8404 H 808.726 -7.3157 -2.69119 0
M  V30 8405 N 812.955 -0.234822 -1.55841 0
M  V30 8406 C 814.202 0.39326 -1.98645 0
M  V30 8407 C 814.53 1.58823 -1.12274 0
M  V30 8408 O 813.785 1.94954 -0.170731 0
M  V30 8409 C 814.084 0.858032 -3.46947 0
M  V30 8410 C 813.75 -0.227858 -4.50324 0
M  V30 8411 C 812.412 -0.526128 -4.78315 0
M  V30 8412 C 814.764 -0.961576 -5.12253 0
M  V30 8413 C 812.092 -1.5624 -5.65514 0
M  V30 8414 C 814.444 -1.98728 -6.00575 0
M  V30 8415 C 813.108 -2.29233 -6.26904 0
M  V30 8416 H 812.378 0.143904 -0.726892 0
M  V30 8417 H 815.025 -0.34012 -1.88455 0
M  V30 8418 H 813.33 1.67041 -3.54408 0
M  V30 8419 H 815.027 1.35407 -3.77447 0
M  V30 8420 H 811.617 0.0147624 -4.28597 0
M  V30 8421 H 815.801 -0.744388 -4.90686 0
M  V30 8422 H 811.057 -1.80422 -5.84173 0
M  V30 8423 H 815.231 -2.5608 -6.47608 0
M  V30 8424 H 812.858 -3.09671 -6.94268 0
M  V30 8425 N 814.433 1.57553 0.0384317 0
M  V30 8426 C 815.682 1.88022 0.730108 0
M  V30 8427 C 815.995 0.83209 1.77019 0
M  V30 8428 O 817.201 1.0257 2.51379 0
M  V30 8429 C 815.657 3.33637 1.3496 0
M  V30 8430 C 815.265 4.46659 0.346352 0
M  V30 8431 C 817.009 3.73266 2.02169 0
M  V30 8432 C 814.916 5.8333 0.973652 0
M  V30 8433 H 813.846 0.701496 0.276442 0
M  V30 8434 H 816.497 1.83493 -0.0158028 0
M  V30 8435 H 814.879 3.32882 2.1449 0
M  V30 8436 H 816.053 4.58868 -0.421558 0
M  V30 8437 H 814.368 4.15802 -0.223133 0
M  V30 8438 H 816.965 4.72689 2.49938 0
M  V30 8439 H 817.308 3.04776 2.8358 0
M  V30 8440 H 817.841 3.76156 1.29427 0
M  V30 8441 H 814.58 6.55197 0.199163 0
M  V30 8442 H 814.1 5.7486 1.71162 0
M  V30 8443 H 815.779 6.29757 1.48376 0
M  V30 8444 N 815.911 -0.310526 1.54511 0
M  V30 8445 C 817.136 -1.07046 1.7764 0
M  V30 8446 C 817.561 -1.80488 0.529696 0
M  V30 8447 O 816.919 -1.73702 -0.519361 0
M  V30 8448 C 816.967 -2.03411 2.97752 0
M  V30 8449 O 816.071 -3.11545 2.7021 0
M  V30 8450 H 815.412 -0.307994 0.588248 0
M  V30 8451 H 817.942 -0.350848 2.01569 0
M  V30 8452 H 817.952 -2.46048 3.2546 0
M  V30 8453 H 816.627 -1.49361 3.88155 0
M  V30 8454 H 815.204 -2.7349 2.53491 0
M  V30 8455 N 817.389 -1.46805 -0.573248 0
M  V30 8456 C 818.614 -1.56433 -1.36175 0
M  V30 8457 C 819.039 -0.209336 -1.86932 0
M  V30 8458 O 818.397 0.812146 -1.62092 0
M  V30 8459 C 818.445 -2.58055 -2.51873 0
M  V30 8460 O 817.549 -2.12214 -3.53609 0
M  V30 8461 H 816.89 -0.526068 -0.405153 0
M  V30 8462 H 819.42 -1.92456 -0.694405 0
M  V30 8463 H 819.43 -2.77966 -2.98662 0
M  V30 8464 H 818.105 -3.56448 -2.14284 0
M  V30 8465 H 816.682 -2.02333 -3.13234 0
M  V30 8466 N 818.867 0.818669 -1.34668 0
M  V30 8467 C 820.278 1.39177 -1.24446 0
M  V30 8468 C 820.629 1.9578 0.128268 0
M  V30 8469 O 819.754 1.90382 1.02877 0
M  V30 8470 C 820.349 2.53012 -2.25323 0
M  V30 8471 C 818.908 3.06218 -2.18878 0
M  V30 8472 C 818.055 1.79112 -2.11694 0
M  V30 8473 H 821.006 0.622709 -1.45973 0
M  V30 8474 H 821.027 3.31226 -1.8727 0
M  V30 8475 H 820.539 2.11784 -3.25221 0
M  V30 8476 H 818.64 3.51939 -1.22351 0
M  V30 8477 H 818.753 3.65019 -3.10319 0
M  V30 8478 H 817.117 2.0018 -1.57481 0
M  V30 8479 H 817.9 1.40053 -3.13433 0
M  V30 8480 N 820.346 1.18468 1.03938 0
M  V30 8481 C 821.279 0.856251 2.11527 0
M  V30 8482 C 822.257 -0.182323 1.61575 0
M  V30 8483 O 823.441 -0.061 1.88401 0
M  V30 8484 C 820.568 0.279562 3.37544 0
M  V30 8485 C 819.614 1.29552 4.06348 0
M  V30 8486 S 820.447 2.85191 4.5324 0
M  V30 8487 C 821.603 2.29037 5.82489 0
M  V30 8488 H 821.836 1.76742 2.39059 0
M  V30 8489 H 819.369 1.01068 1.16725 0
M  V30 8490 H 821.327 -0.0466579 4.10473 0
M  V30 8491 H 819.988 -0.60975 3.08125 0
M  V30 8492 H 819.181 0.840922 4.96935 0
M  V30 8493 H 818.783 1.56804 3.39541 0
M  V30 8494 H 821.075 1.67376 6.565 0
M  V30 8495 H 822.018 3.17929 6.32714 0
M  V30 8496 H 822.426 1.72009 5.37655 0
M  V30 8497 N 821.824 -1.22873 0.986916 0
M  V30 8498 C 822.771 -2.2458 0.532215 0
M  V30 8499 C 823.741 -1.60375 -0.432322 0
M  V30 8500 O 824.926 -1.87775 -0.338416 0
M  V30 8501 C 822.066 -3.44761 -0.152864 0
M  V30 8502 C 821.179 -4.23501 0.852704 0
M  V30 8503 C 820.314 -5.31011 0.14176 0
M  V30 8504 C 819.353 -6.01464 1.1361 0
M  V30 8505 N 818.49 -7.00631 0.453871 0
M  V30 8506 H 823.33 -2.62838 1.40428 0
M  V30 8507 H 820.867 -1.29185 0.703543 0
M  V30 8508 H 822.825 -4.1333 -0.566926 0
M  V30 8509 H 821.455 -3.07284 -0.988756 0
M  V30 8510 H 820.507 -3.54286 1.38512 0
M  V30 8511 H 821.819 -4.72097 1.61014 0
M  V30 8512 H 820.973 -6.05805 -0.329337 0
M  V30 8513 H 819.712 -4.83373 -0.648229 0
M  V30 8514 H 818.717 -5.25456 1.61789 0
M  V30 8515 H 819.942 -6.5119 1.92686 0
M  V30 8516 H 817.888 -6.55235 -0.316791 0
M  V30 8517 H 817.805 -7.47204 1.14986 0
M  V30 8518 H 819.073 -7.795 0.00537823 0
M  V30 8519 N 823.302 -0.75937 -1.38099 0
M  V30 8520 C 824.212 -0.13774 -2.34195 0
M  V30 8521 C 825.228 0.693985 -1.59561 0
M  V30 8522 O 826.404 0.616792 -1.91723 0
M  V30 8523 C 823.469 0.740535 -3.38699 0
M  V30 8524 C 822.53 -0.106225 -4.29169 0
M  V30 8525 C 821.763 0.730225 -5.28681 0
M  V30 8526 O 821.986 1.96796 -5.35376 0
M  V30 8527 O 820.92 0.145969 -6.01723 0
M  V30 8528 H 824.746 -0.931512 -2.89061 0
M  V30 8529 H 822.331 -0.520345 -1.40046 0
M  V30 8530 H 824.213 1.24232 -4.02672 0
M  V30 8531 H 822.888 1.51271 -2.8618 0
M  V30 8532 H 821.795 -0.654088 -3.68337 0
M  V30 8533 H 823.128 -0.841186 -4.84959 0
M  V30 8534 N 824.78 1.49157 -0.508906 0
M  V30 8535 C 825.727 2.2927 0.265288 0
M  V30 8536 C 826.697 1.3603 0.953162 0
M  V30 8537 O 827.882 1.64989 0.958291 0
M  V30 8538 C 825.022 3.18897 1.31904 0
M  V30 8539 C 824.135 4.27201 0.642144 0
M  V30 8540 C 823.27 5.04033 1.67701 0
M  V30 8541 C 822.309 6.04165 0.982422 0
M  V30 8542 N 821.446 6.74133 1.96186 0
M  V30 8543 H 826.286 2.94967 -0.424107 0
M  V30 8544 H 823.823 1.45431 -0.220991 0
M  V30 8545 H 825.781 3.69242 1.94206 0
M  V30 8546 H 824.411 2.55168 1.97709 0
M  V30 8547 H 823.463 3.80283 -0.0943395 0
M  V30 8548 H 824.775 4.98708 0.0957507 0
M  V30 8549 H 823.929 5.58287 2.37487 0
M  V30 8550 H 822.668 4.32317 2.25728 0
M  V30 8551 H 821.673 5.49135 0.270378 0
M  V30 8552 H 822.898 6.7787 0.408554 0
M  V30 8553 H 820.844 6.05183 2.53159 0
M  V30 8554 H 820.761 7.41643 1.46634 0
M  V30 8555 H 822.029 7.32987 2.65236 0
M  V30 8556 N 826.258 0.243083 1.55714 0
M  V30 8557 C 827.506 -0.381964 1.98458 0
M  V30 8558 C 827.827 -1.58745 1.13247 0
M  V30 8559 O 827.097 -1.94723 0.214384 0
M  V30 8560 H 825.677 -0.144114 0.732967 0
M  V30 8561 H 828.339 0.340985 1.91894 0
M  V30 8562 H 827.435 -0.693702 3.04293 0
M  V30 8563 N 827.736 -1.57571 -0.0300757 0
M  V30 8564 C 828.684 -2.0758 -1.04944 0
M  V30 8565 C 829.678 -0.989384 -1.37505 0
M  V30 8566 O 830.884 -1.17427 -1.36422 0
M  V30 8567 H 827.259 -0.662419 -0.355956 0
M  V30 8568 H 829.23 -2.92268 -0.601848 0
M  V30 8569 C 827.979 -2.5698 -2.34215 0
M  V30 8570 H 827.302 -3.40193 -2.10021 0
M  V30 8571 H 828.742 -2.95682 -3.03888 0
M  V30 8572 C 827.201 -1.47059 -3.03109 0
M  V30 8573 O 827.731 -0.83625 -3.92899 0
M  V30 8574 N 825.937 -1.20538 -2.64422 0
M  V30 8575 H 825.484 -1.72305 -1.9149 0
M  V30 8576 H 825.442 -0.472045 -3.10836 0
M  V30 8577 N 829.214 0.302327 -1.54673 0
M  V30 8578 C 830.463 1.03533 -1.73101 0
M  V30 8579 C 830.776 1.88473 -0.523174 0
M  V30 8580 O 831.982 2.65029 -0.589229 0
M  V30 8581 C 830.438 1.89043 -3.06252 0
M  V30 8582 C 830.046 1.09112 -4.3451 0
M  V30 8583 C 831.79 2.61951 -3.34039 0
M  V30 8584 C 829.697 1.93891 -5.58713 0
M  V30 8585 H 828.627 0.390261 -0.645145 0
M  V30 8586 H 831.278 0.2924 -1.81155 0
M  V30 8587 H 829.66 2.67319 -2.92159 0
M  V30 8588 H 830.834 0.354596 -4.59434 0
M  V30 8589 H 829.149 0.477923 -4.13648 0
M  V30 8590 H 831.746 3.25729 -4.24033 0
M  V30 8591 H 832.089 3.30711 -2.52855 0
M  V30 8592 H 832.622 1.90725 -3.49097 0
M  V30 8593 H 829.361 1.29604 -6.4256 0
M  V30 8594 H 828.881 2.6522 -5.37976 0
M  V30 8595 H 830.56 2.51971 -5.95919 0
M  V30 8596 N 830.692 1.47107 0.565454 0
M  V30 8597 C 831.624 1.55024 1.6882 0
M  V30 8598 C 832.637 0.4371 1.56822 0
M  V30 8599 O 833.826 0.706315 1.63931 0
M  V30 8600 C 830.926 1.43069 3.0722 0
M  V30 8601 C 830.099 2.68807 3.45053 0
M  V30 8602 C 829.158 2.50806 4.62583 0
M  V30 8603 O 828.184 3.24593 4.67577 0
M  V30 8604 N 829.386 1.58093 5.58558 0
M  V30 8605 H 832.151 2.51836 1.62477 0
M  V30 8606 H 829.712 1.43382 0.751885 0
M  V30 8607 H 831.704 1.28773 3.83666 0
M  V30 8608 H 830.274 0.543721 3.07835 0
M  V30 8609 H 829.494 2.97923 2.58138 0
M  V30 8610 H 830.782 3.52298 3.67101 0
M  V30 8611 H 830.18 0.972807 5.57273 0
M  V30 8612 H 828.737 1.49753 6.34364 0
M  V30 8613 N 832.17 -0.811516 1.35101 0
M  V30 8614 C 833.1 -1.9378 1.30275 0
M  V30 8615 C 834.081 -1.69165 0.178075 0
M  V30 8616 O 835.266 -1.90599 0.372256 0
M  V30 8617 C 832.396 -3.30439 1.06899 0
M  V30 8618 C 831.35 -3.69523 2.15955 0
M  V30 8619 C 830.676 -5.0429 1.77751 0
M  V30 8620 C 831.976 -3.80419 3.57881 0
M  V30 8621 H 833.67 -1.98075 2.24514 0
M  V30 8622 H 831.216 -0.951586 1.08078 0
M  V30 8623 H 833.169 -4.08828 1.02164 0
M  V30 8624 H 831.893 -3.26473 0.0910462 0
M  V30 8625 H 830.552 -2.93416 2.19778 0
M  V30 8626 H 830.2 -4.96823 0.785876 0
M  V30 8627 H 829.9 -5.31411 2.5075 0
M  V30 8628 H 831.424 -5.85125 1.74533 0
M  V30 8629 H 832.838 -4.49051 3.56407 0
M  V30 8630 H 831.235 -4.19005 4.29598 0
M  V30 8631 H 832.305 -2.82105 3.94391 0
M  V30 8632 N 833.648 -1.19017 -1.03309 0
M  V30 8633 C 834.873 -1.01598 -1.80811 0
M  V30 8634 C 835.298 0.430773 -1.83101 0
M  V30 8635 O 834.656 1.30946 -1.25391 0
M  V30 8636 C 834.704 -1.5845 -3.23923 0
M  V30 8637 O 833.808 -0.810972 -4.04348 0
M  V30 8638 H 833.149 -0.359398 -0.558327 0
M  V30 8639 H 835.679 -1.57945 -1.30055 0
M  V30 8640 H 835.689 -1.61486 -3.74682 0
M  V30 8641 H 834.364 -2.63752 -3.21571 0
M  V30 8642 H 832.941 -0.85353 -3.63 0
M  V30 8643 N 835.127 1.22348 -0.993418 0
M  V30 8644 C 836.357 1.94842 -0.687023 0
M  V30 8645 C 836.765 1.73594 0.752445 0
M  V30 8646 O 836.108 1.03238 1.51946 0
M  V30 8647 C 836.17 3.47694 -0.913754 0
M  V30 8648 C 835.834 3.92678 -2.33781 0
M  V30 8649 C 836.831 4.0031 -3.31734 0
M  V30 8650 C 834.516 4.25311 -2.67237 0
M  V30 8651 C 836.51 4.39951 -4.61218 0
M  V30 8652 C 834.197 4.64631 -3.9694 0
M  V30 8653 C 835.195 4.71919 -4.93742 0
M  V30 8654 O 834.883 5.10349 -6.21127 0
M  V30 8655 H 834.615 0.626771 -0.253247 0
M  V30 8656 H 837.169 1.56436 -1.33105 0
M  V30 8657 H 835.399 3.86115 -0.212552 0
M  V30 8658 H 837.088 4.01403 -0.602528 0
M  V30 8659 H 837.854 3.75288 -3.07219 0
M  V30 8660 H 833.733 4.18842 -1.92594 0
M  V30 8661 H 837.277 4.45555 -5.36774 0
M  V30 8662 H 833.174 4.89104 -4.21245 0
M  V30 8663 H 833.942 5.2842 -6.25072 0
M  V30 8664 N 836.605 0.766683 1.37694 0
M  V30 8665 C 837.83 0.338715 2.04615 0
M  V30 8666 C 838.255 -1.02918 1.57447 0
M  V30 8667 O 837.613 -1.65849 0.732386 0
M  V30 8668 C 837.661 0.385284 3.58536 0
M  V30 8669 O 836.765 -0.616081 4.07772 0
M  V30 8670 H 836.106 0.147527 0.647404 0
M  V30 8671 H 838.636 1.04146 1.7611 0
M  V30 8672 H 838.646 0.240782 4.07289 0
M  V30 8673 H 837.321 1.38325 3.92223 0
M  V30 8674 H 835.898 -0.435115 3.70353 0
M  V30 8675 N 838.083 -1.48885 0.516809 0
M  V30 8676 C 839.36 -1.95412 -0.0858293 0
M  V30 8677 C 839.74 -1.45875 -1.5259 0
M  V30 8678 O 839.088 -0.679415 -2.18166 0
M  V30 8679 C 839.298 -3.48995 0.0178194 0
M  V30 8680 C 840.646 -4.24342 -0.14813 0
M  V30 8681 O 841.67 -3.56155 -0.0566125 0
M  V30 8682 O 840.529 -5.45454 -0.338035 0
M  V30 8683 H 837.623 -0.822455 -0.0865884 0
M  V30 8684 H 840.169 -1.59464 0.580472 0
M  V30 8685 H 838.941 -3.77732 1.02147 0
M  V30 8686 H 838.564 -3.91604 -0.687924 0
M  V30 8687 N 839.561 -0.251338 -1.55583 0
M  V30 8688 C 840.809 0.371434 -1.98657 0
M  V30 8689 C 841.13 1.58143 -1.14087 0
M  V30 8690 O 840.4 1.94607 -0.224708 0
M  V30 8691 H 838.98 0.140225 -0.733721 0
M  V30 8692 H 841.642 -0.351157 -1.9171 0
M  V30 8693 H 840.738 0.677554 -3.04657 0
M  V30 8694 N 841.039 1.57585 0.0217189 0
M  V30 8695 C 842.316 1.80779 0.74687 0
M  V30 8696 C 842.696 0.851163 1.9318 0
M  V30 8697 O 842.044 -0.105039 2.28258 0
M  V30 8698 C 842.254 3.28696 1.17302 0
M  V30 8699 C 843.602 3.93871 1.58589 0
M  V30 8700 O 844.626 3.3289 1.2674 0
M  V30 8701 O 843.485 5.01254 2.1773 0
M  V30 8702 H 840.579 0.743666 0.361786 0
M  V30 8703 H 843.125 1.697 -0.00206785 0
M  V30 8704 H 841.897 3.89927 0.327453 0
M  V30 8705 H 841.52 3.44692 1.98174 0
M  V30 8706 N 842.517 -0.29412 1.54831 0
M  V30 8707 C 843.794 -1.04847 1.65126 0
M  V30 8708 C 844.174 -2.04996 0.503986 0
M  V30 8709 O 843.522 -2.22996 -0.498496 0
M  V30 8710 C 843.732 -1.72418 3.03435 0
M  V30 8711 C 845.08 -2.24362 3.60481 0
M  V30 8712 O 846.104 -1.8244 3.05932 0
M  V30 8713 O 844.963 -3.01196 4.56008 0
M  V30 8714 H 842.057 -0.485032 0.669831 0
M  V30 8715 H 844.603 -0.291659 1.67175 0
M  V30 8716 H 843.375 -0.997351 3.78376 0
M  V30 8717 H 842.998 -2.54839 3.05193 0
M  V30 8718 N 843.995 -1.47404 -0.557645 0
M  V30 8719 C 845.235 -1.55585 -1.32562 0
M  V30 8720 C 845.599 -0.212926 -1.90816 0
M  V30 8721 O 846.8 -0.169574 -2.68265 0
M  V30 8722 C 845.071 -2.64249 -2.40639 0
M  V30 8723 S 846.63 -2.9201 -3.2753 0
M  V30 8724 H 843.448 -0.549409 -0.451298 0
M  V30 8725 H 846.05 -1.84782 -0.638438 0
M  V30 8726 H 844.754 -3.60421 -1.96277 0
M  V30 8727 H 844.285 -2.36866 -3.14099 0
M  V30 8728 H 846.3 -2.29191 -4.40098 0
M  V30 8729 N 845.473 0.80434 -1.35529 0
M  V30 8730 C 846.721 1.55845 -1.28673 0
M  V30 8731 C 847.042 1.94511 0.137976 0
M  V30 8732 O 846.312 1.63775 1.07492 0
M  V30 8733 H 844.892 0.577931 -0.473291 0
M  V30 8734 H 847.554 0.959293 -1.69657 0
M  V30 8735 H 846.65 2.47285 -1.90411 0
M  V30 8736 N 846.951 1.19563 1.02676 0
M  V30 8737 C 847.901 0.903055 2.09354 0
M  V30 8738 C 848.885 -0.133009 1.60349 0
M  V30 8739 O 850.077 0.0729744 1.7685 0
M  V30 8740 C 847.206 0.445852 3.40392 0
M  V30 8741 C 846.292 1.51477 3.96126 0
M  V30 8742 N 846.683 2.73474 4.25495 0
M  V30 8743 C 844.981 1.37856 4.2416 0
M  V30 8744 C 845.682 3.42348 4.7029 0
M  V30 8745 N 844.658 2.69746 4.71952 0
M  V30 8746 H 848.46 1.83023 2.29956 0
M  V30 8747 H 845.974 1.08812 1.20556 0
M  V30 8748 H 847.971 0.21769 4.16331 0
M  V30 8749 H 846.631 -0.47482 3.2121 0
M  V30 8750 H 847.642 3.10217 4.14711 0
M  V30 8751 H 844.319 0.521512 4.1423 0
M  V30 8752 H 845.709 4.46686 5.01917 0
M  V30 8753 N 848.429 -1.21819 0.999893 0
M  V30 8754 C 849.677 -1.90375 0.678351 0
M  V30 8755 C 849.998 -1.78155 -0.792824 0
M  V30 8756 O 849.268 -1.17319 -1.56885 0
M  V30 8757 H 847.848 -0.704661 0.247915 0
M  V30 8758 H 850.51 -1.48021 1.2679 0
M  V30 8759 H 849.606 -2.97385 0.947023 0
M  V30 8760 N 849.908 -0.773975 -1.37286 0
M  V30 8761 C 850.855 -0.159938 -2.30245 0
M  V30 8762 C 851.825 0.687356 -1.51211 0
M  V30 8763 O 853.01 0.639255 -1.79773 0
M  V30 8764 C 850.15 0.711452 -3.37687 0
M  V30 8765 C 849.263 -0.152692 -4.3173 0
M  V30 8766 C 848.398 0.723613 -5.26248 0
M  V30 8767 C 847.437 -0.14293 -6.11933 0
M  V30 8768 N 846.574 0.691479 -6.98687 0
M  V30 8769 H 851.414 -0.958182 -2.82175 0
M  V30 8770 H 848.951 -0.48411 -1.38906 0
M  V30 8771 H 850.909 1.2315 -3.9861 0
M  V30 8772 H 849.539 1.47528 -2.87116 0
M  V30 8773 H 848.591 -0.790574 -3.72094 0
M  V30 8774 H 849.903 -0.821027 -4.91997 0
M  V30 8775 H 849.057 1.31006 -5.92387 0
M  V30 8776 H 847.796 1.42562 -4.66398 0
M  V30 8777 H 846.801 -0.7419 -5.44771 0
M  V30 8778 H 848.026 -0.842305 -6.73856 0
M  V30 8779 H 845.972 1.37806 -6.41362 0
M  V30 8780 H 845.889 0.0804911 -7.55957 0
M  V30 8781 H 847.157 1.26225 -7.69212 0
M  V30 8782 N 851.386 1.48609 -0.524698 0
M  V30 8783 C 852.333 2.29539 0.240956 0
M  V30 8784 C 853.303 1.37033 0.938681 0
M  V30 8785 O 854.488 1.65996 0.940737 0
M  V30 8786 C 851.628 3.20278 1.28514 0
M  V30 8787 C 850.741 4.27858 0.596798 0
M  V30 8788 C 849.876 5.05784 1.62346 0
M  V30 8789 C 848.915 6.05173 0.918287 0
M  V30 8790 N 848.052 6.76176 1.89025 0
M  V30 8791 H 852.892 2.945 -0.455368 0
M  V30 8792 H 850.429 1.45188 -0.236403 0
M  V30 8793 H 852.387 3.71281 1.90279 0
M  V30 8794 H 851.017 2.57251 1.94992 0
M  V30 8795 H 850.069 3.80162 -0.134668 0
M  V30 8796 H 851.381 4.98782 0.0428506 0
M  V30 8797 H 850.535 5.60775 2.31553 0
M  V30 8798 H 849.274 4.34687 2.2113 0
M  V30 8799 H 848.279 5.49391 0.21212 0
M  V30 8800 H 849.504 6.78265 0.336633 0
M  V30 8801 H 847.45 6.07834 2.46726 0
M  V30 8802 H 847.367 7.43157 1.3876 0
M  V30 8803 H 848.635 7.35759 2.57446 0
M  V30 8804 N 852.864 0.259585 1.55447 0
M  V30 8805 C 854.113 -0.362163 1.98422 0
M  V30 8806 C 854.426 -1.58135 1.1512 0
M  V30 8807 O 855.632 -2.27506 1.48166 0
M  V30 8808 C 854.088 -0.695722 3.53111 0
M  V30 8809 C 853.696 0.502784 4.4517 0
M  V30 8810 C 855.44 -1.28096 4.04712 0
M  V30 8811 C 853.347 0.144674 5.91223 0
M  V30 8812 H 852.277 -0.139092 0.74106 0
M  V30 8813 H 854.928 0.361798 1.79898 0
M  V30 8814 H 853.31 -1.47816 3.67378 0
M  V30 8815 H 854.484 1.27994 4.42667 0
M  V30 8816 H 852.799 1.0038 4.0412 0
M  V30 8817 H 855.396 -1.56243 5.11363 0
M  V30 8818 H 855.739 -2.20969 3.52815 0
M  V30 8819 H 856.272 -0.561146 3.93822 0
M  V30 8820 H 853.011 1.04087 6.47183 0
M  V30 8821 H 852.531 -0.596023 5.96831 0
M  V30 8822 H 854.21 -0.268651 6.46442 0
M  V30 8823 N 854.342 -1.57594 -0.0133615 0
M  V30 8824 C 855.289 -2.07574 -1.00905 0
M  V30 8825 C 856.259 -0.968231 -1.34961 0
M  V30 8826 O 857.444 -1.23981 -1.45028 0
M  V30 8827 C 854.584 -2.5728 -2.30002 0
M  V30 8828 C 853.697 -3.81881 -2.01967 0
M  V30 8829 C 852.832 -4.20139 -3.25049 0
M  V30 8830 C 851.871 -5.37614 -2.92639 0
M  V30 8831 N 851.008 -5.71229 -4.08218 0
M  V30 8832 H 855.848 -2.92382 -0.575899 0
M  V30 8833 H 853.385 -1.4455 -0.272722 0
M  V30 8834 H 855.343 -2.84171 -3.05454 0
M  V30 8835 H 853.973 -1.75365 -2.71011 0
M  V30 8836 H 853.025 -3.61979 -1.16942 0
M  V30 8837 H 854.337 -4.67441 -1.74069 0
M  V30 8838 H 853.491 -4.48242 -4.08857 0
M  V30 8839 H 852.23 -3.33262 -3.56073 0
M  V30 8840 H 851.235 -5.09248 -2.07235 0
M  V30 8841 H 852.46 -6.26157 -2.62876 0
M  V30 8842 H 850.406 -4.8731 -4.39164 0
M  V30 8843 H 850.323 -6.51333 -3.83799 0
M  V30 8844 H 851.591 -6.03917 -4.92854 0
M  V30 8845 N 855.82 0.285905 -1.54985 0
M  V30 8846 C 857.048 1.03776 -1.78992 0
M  V30 8847 C 857.463 1.80402 -0.556814 0
M  V30 8848 O 856.82 1.76242 0.473801 0
M  V30 8849 C 856.871 2.0065 -3.00702 0
M  V30 8850 O 856.592 1.27131 -4.19249 0
M  V30 8851 C 858.093 2.87753 -3.37214 0
M  V30 8852 H 855.313 0.307126 -0.596586 0
M  V30 8853 H 857.857 0.3206 -2.01971 0
M  V30 8854 H 856.012 2.67847 -2.79887 0
M  V30 8855 H 856.426 1.92316 -4.8797 0
M  V30 8856 H 857.9 3.51548 -4.2558 0
M  V30 8857 H 858.377 3.56848 -2.56039 0
M  V30 8858 H 858.983 2.26065 -3.60242 0
M  V30 8859 N 857.298 1.47698 0.54982 0
M  V30 8860 C 858.246 1.61156 1.67724 0
M  V30 8861 C 859.24 0.478606 1.62498 0
M  V30 8862 O 860.446 0.656661 1.67595 0
M  V30 8863 H 856.821 0.507304 0.55511 0
M  V30 8864 H 858.792 2.55884 1.53512 0
M  V30 8865 C 857.541 1.64994 3.06059 0
M  V30 8866 H 856.864 2.51525 3.10765 0
M  V30 8867 H 858.304 1.78459 3.84615 0
M  V30 8868 C 856.763 0.384677 3.34697 0
M  V30 8869 O 857.293 -0.511057 3.98436 0
M  V30 8870 N 855.499 0.262434 2.89413 0
M  V30 8871 H 855.046 0.99229 2.37721 0
M  V30 8872 H 855.004 -0.583177 3.08944 0
M  V30 8873 N 858.776 -0.797141 1.35954 0
M  V30 8874 C 860.025 -1.54983 1.29086 0
M  V30 8875 C 860.338 -1.95167 -0.130003 0
M  V30 8876 O 861.544 -2.69596 -0.32101 0
M  V30 8877 C 860 -2.79738 2.26439 0
M  V30 8878 C 859.608 -2.46753 3.73921 0
M  V30 8879 C 861.352 -3.57733 2.28533 0
M  V30 8880 C 859.259 -3.67858 4.63071 0
M  V30 8881 H 858.189 -0.581766 0.479651 0
M  V30 8882 H 860.84 -0.87541 1.61273 0
M  V30 8883 H 859.222 -3.48939 1.87236 0
M  V30 8884 H 860.396 -1.85499 4.21814 0
M  V30 8885 H 858.711 -1.81985 3.74527 0
M  V30 8886 H 861.308 -4.47699 2.92351 0
M  V30 8887 H 861.651 -3.95754 1.29169 0
M  V30 8888 H 862.184 -2.95504 2.66313 0
M  V30 8889 H 858.923 -3.34939 5.63468 0
M  V30 8890 H 858.443 -4.28305 4.19898 0
M  V30 8891 H 860.122 -4.34977 4.78961 0
M  V30 8892 N 860.254 -1.20106 -1.0204 0
M  V30 8893 C 861.482 -1.0344 -1.79186 0
M  V30 8894 C 861.897 0.416542 -1.84148 0
M  V30 8895 O 861.254 1.28925 -1.29168 0
M  V30 8896 C 861.305 -1.60663 -3.23836 0
M  V30 8897 O 861.026 -3.00079 -3.19193 0
M  V30 8898 C 862.527 -1.48897 -4.17546 0
M  V30 8899 H 859.747 -0.364093 -0.563629 0
M  V30 8900 H 862.291 -1.5911 -1.28469 0
M  V30 8901 H 860.446 -1.09122 -3.71714 0
M  V30 8902 H 860.86 -3.27162 -4.09958 0
M  V30 8903 H 862.334 -1.93703 -5.16898 0
M  V30 8904 H 862.811 -0.440843 -4.36982 0
M  V30 8905 H 863.417 -1.9961 -3.75547 0
M  V30 8906 N 861.732 1.21287 -1.00634 0
M  V30 8907 C 862.662 2.25973 -0.588089 0
M  V30 8908 C 863.643 1.65527 0.391764 0
M  V30 8909 O 864.828 1.92179 0.279452 0
M  V30 8910 C 861.958 3.47197 0.0847336 0
M  V30 8911 C 860.912 4.20168 -0.815039 0
M  V30 8912 C 860.238 5.34699 -0.00855393 0
M  V30 8913 C 861.538 4.77416 -2.11828 0
M  V30 8914 H 863.232 2.61212 -1.46317 0
M  V30 8915 H 860.778 1.25563 -0.704985 0
M  V30 8916 H 862.731 4.19602 0.388821 0
M  V30 8917 H 861.455 3.11092 0.994456 0
M  V30 8918 H 860.114 3.49614 -1.10297 0
M  V30 8919 H 859.762 4.94837 0.902499 0
M  V30 8920 H 859.462 5.84449 -0.607664 0
M  V30 8921 H 860.986 6.09914 0.289317 0
M  V30 8922 H 862.4 5.41694 -1.87725 0
M  V30 8923 H 860.797 5.37561 -2.66736 0
M  V30 8924 H 861.867 3.96724 -2.78816 0
M  V30 8925 N 863.21 0.781244 1.36873 0
M  V30 8926 C 864.456 0.350407 1.9975 0
M  V30 8927 C 864.789 -1.07293 1.6187 0
M  V30 8928 O 864.064 -1.73983 0.869491 0
M  V30 8929 C 864.347 0.504834 3.56544 0
M  V30 8930 C 864.2 1.97127 4.04303 0
M  V30 8931 C 865.519 -0.0851272 4.40018 0
M  V30 8932 H 862.638 0.128794 0.725659 0
M  V30 8933 H 865.28 0.98606 1.6241 0
M  V30 8934 H 863.43 -0.0363006 3.88483 0
M  V30 8935 H 865.102 2.57284 3.82887 0
M  V30 8936 H 863.345 2.47676 3.56145 0
M  V30 8937 H 864.016 2.03033 5.13305 0
M  V30 8938 H 866.492 0.376704 4.14391 0
M  V30 8939 H 865.368 0.0530015 5.48874 0
M  V30 8940 H 865.629 -1.17642 4.2616 0
M  V30 8941 N 864.689 -1.48329 0.532571 0
M  V30 8942 C 865.929 -2.044 0.00145618 0
M  V30 8943 C 866.293 -1.40053 -1.31336 0
M  V30 8944 O 867.494 -1.87026 -1.93066 0
M  V30 8945 C 865.765 -3.57214 -0.115376 0
M  V30 8946 S 867.324 -4.34731 -0.59618 0
M  V30 8947 H 864.142 -0.710876 0.0133038 0
M  V30 8948 H 866.744 -1.82006 0.71372 0
M  V30 8949 H 865.448 -4.01579 0.846335 0
M  V30 8950 H 864.979 -3.84065 -0.85194 0
M  V30 8951 H 866.994 -4.6001 -1.86025 0
M  V30 8952 N 866.167 -0.267825 -1.55308 0
M  V30 8953 C 867.114 0.6228 -2.22238 0
M  V30 8954 C 868.084 1.15536 -1.19334 0
M  V30 8955 O 869.269 1.206 -1.47852 0
M  V30 8956 C 866.409 1.80447 -2.94164 0
M  V30 8957 C 865.522 1.30646 -4.11771 0
M  V30 8958 C 864.657 2.44935 -4.7136 0
M  V30 8959 C 863.696 1.92099 -5.81175 0
M  V30 8960 N 862.833 2.99834 -6.34857 0
M  V30 8961 H 867.673 0.0453874 -2.97965 0
M  V30 8962 H 865.21 0.0106371 -1.47096 0
M  V30 8963 H 867.168 2.49896 -3.34078 0
M  V30 8964 H 865.798 2.35403 -2.20874 0
M  V30 8965 H 864.85 0.505314 -3.77029 0
M  V30 8966 H 866.162 0.879409 -4.90987 0
M  V30 8967 H 865.316 3.2239 -5.13955 0
M  V30 8968 H 864.055 2.90951 -3.91406 0
M  V30 8969 H 863.06 1.13122 -5.38037 0
M  V30 8970 H 864.285 1.47027 -6.62993 0
M  V30 8971 H 862.231 3.45246 -5.578 0
M  V30 8972 H 862.148 2.61524 -7.09324 0
M  V30 8973 H 863.416 3.77286 -6.82111 0
M  V30 8974 N 867.645 1.57599 0.00500368 0
M  V30 8975 C 869.056 1.78462 0.54848 0
M  V30 8976 C 869.407 0.901869 1.74243 0
M  V30 8977 O 868.532 0.103014 2.16155 0
M  V30 8978 C 869.127 3.2365 1.00179 0
M  V30 8979 C 867.686 3.45627 1.49061 0
M  V30 8980 C 866.833 2.73794 0.439531 0
M  V30 8981 H 869.784 1.57151 -0.22118 0
M  V30 8982 H 869.805 3.31488 1.86805 0
M  V30 8983 H 869.317 3.87873 0.132607 0
M  V30 8984 H 867.418 2.86612 2.38085 0
M  V30 8985 H 867.531 4.54298 1.52152 0
M  V30 8986 H 865.895 2.38267 0.900043 0
M  V30 8987 H 866.678 3.40714 -0.420599 0
M  V30 8988 N 869.123 -0.277682 1.55134 0
M  V30 8989 C 870.371 -1.00791 1.75173 0
M  V30 8990 C 870.692 -1.86987 0.553266 0
M  V30 8991 O 869.962 -1.91079 -0.43195 0
M  V30 8992 H 868.542 -0.375129 0.645978 0
M  V30 8993 H 871.204 -0.303041 1.9253 0
M  V30 8994 H 870.3 -1.64756 2.6507 0
M  V30 8995 N 870.601 -1.47988 -0.541979 0
M  V30 8996 C 871.878 -1.45878 -1.30303 0
M  V30 8997 C 872.258 -0.163931 -2.10463 0
M  V30 8998 O 871.606 0.854479 -2.11922 0
M  V30 8999 C 871.816 -2.71359 -2.19466 0
M  V30 9000 C 873.164 -3.19199 -2.79995 0
M  V30 9001 O 874.188 -2.72193 -2.2976 0
M  V30 9002 O 873.047 -4.00961 -3.71339 0
M  V30 9003 H 870.141 -0.582043 -0.587498 0
M  V30 9004 H 872.687 -1.60207 -0.559623 0
M  V30 9005 H 871.459 -3.57122 -1.59936 0
M  V30 9006 H 871.082 -2.59692 -3.01075 0
M  V30 9007 N 872.079 0.78992 -1.36375 0
M  V30 9008 C 873.009 1.91683 -1.33341 0
M  V30 9009 C 873.99 1.68861 -0.204965 0
M  V30 9010 O 875.175 1.89982 -0.402531 0
M  V30 9011 C 872.305 3.28696 -1.12143 0
M  V30 9012 C 871.259 3.66041 -2.21806 0
M  V30 9013 C 870.585 5.01399 -1.85751 0
M  V30 9014 C 871.885 3.74677 -3.63888 0
M  V30 9015 H 873.579 1.94478 -2.27637 0
M  V30 9016 H 871.125 0.934271 -1.09578 0
M  V30 9017 H 873.078 4.07151 -1.08656 0
M  V30 9018 H 871.802 3.26287 -0.142974 0
M  V30 9019 H 870.461 2.89883 -2.24418 0
M  V30 9020 H 870.109 4.9551 -0.864817 0
M  V30 9021 H 869.809 5.27355 -2.59173 0
M  V30 9022 H 871.333 5.82274 -1.83819 0
M  V30 9023 H 872.747 4.43324 -3.63506 0
M  V30 9024 H 871.144 4.12118 -4.3621 0
M  V30 9025 H 872.214 2.75795 -3.9883 0
M  V30 9026 N 873.557 1.20646 1.01402 0
M  V30 9027 C 874.467 0.973385 2.13453 0
M  V30 9028 C 875.483 -0.0715865 1.73853 0
M  V30 9029 O 876.659 0.116438 2.01063 0
M  V30 9030 C 873.724 0.531285 3.42605 0
M  V30 9031 C 872.785 1.64741 3.96433 0
M  V30 9032 C 872.018 1.22631 5.1942 0
M  V30 9033 O 872.241 0.0960891 5.70319 0
M  V30 9034 O 871.175 2.03474 5.66465 0
M  V30 9035 H 875.001 1.91164 2.35987 0
M  V30 9036 H 872.586 0.990553 1.11841 0
M  V30 9037 H 874.468 0.294095 4.20373 0
M  V30 9038 H 873.143 -0.378358 3.21481 0
M  V30 9039 H 872.05 1.93891 3.19933 0
M  V30 9040 H 873.383 2.53415 4.2195 0
M  V30 9041 N 875.035 -1.20752 1.01276 0
M  V30 9042 C 876.26 -1.94547 0.718769 0
M  V30 9043 C 876.685 -1.7404 -0.713563 0
M  V30 9044 O 876.043 -1.03221 -1.49047 0
M  V30 9045 C 876.091 -3.44823 1.05497 0
M  V30 9046 O 875.195 -4.12072 0.164516 0
M  V30 9047 H 874.536 -0.607931 0.267051 0
M  V30 9048 H 877.066 -1.53292 1.35509 0
M  V30 9049 H 877.076 -3.95427 1.00507 0
M  V30 9050 H 875.751 -3.59072 2.09858 0
M  V30 9051 H 874.328 -3.71909 0.271615 0
M  V30 9052 N 876.513 -0.788492 -1.36457 0
M  V30 9053 C 877.476 -0.192209 -2.28393 0
M  V30 9054 C 878.476 0.609916 -1.48784 0
M  V30 9055 O 879.666 0.431046 -1.68783 0
M  V30 9056 C 876.798 0.734096 -3.32902 0
M  V30 9057 H 877.991 -1.00284 -2.82636 0
M  V30 9058 H 875.544 -0.557852 -1.46006 0
M  V30 9059 H 876.279 1.5691 -2.83813 0
M  V30 9060 H 876.064 0.160875 -3.9177 0
M  V30 9061 H 877.554 1.1462 -4.01562 0
M  V30 9062 N 877.991 1.48044 -0.54043 0
M  V30 9063 C 879.402 1.86418 -0.102662 0
M  V30 9064 C 879.753 1.4489 1.32293 0
M  V30 9065 O 878.878 0.844319 1.99249 0
M  V30 9066 C 879.473 3.38324 -0.179533 0
M  V30 9067 C 878.032 3.75852 0.203098 0
M  V30 9068 C 877.179 2.72097 -0.534637 0
M  V30 9069 H 880.13 1.398 -0.751103 0
M  V30 9070 H 880.151 3.75641 0.606147 0
M  V30 9071 H 879.663 3.68518 -1.21721 0
M  V30 9072 H 877.764 3.51272 1.24252 0
M  V30 9073 H 877.877 4.78884 -0.143784 0
M  V30 9074 H 876.241 2.54692 0.0203358 0
M  V30 9075 H 877.024 3.05135 -1.57314 0
M  V30 9076 N 879.47 0.276058 1.55163 0
M  V30 9077 C 880.716 -0.340959 1.99913 0
M  V30 9078 C 881.049 -1.55434 1.16422 0
M  V30 9079 O 880.324 -1.93081 0.234517 0
M  V30 9080 C 880.607 -0.722211 3.52783 0
M  V30 9081 C 880.46 0.498575 4.47028 0
M  V30 9082 C 881.779 -1.5583 4.11589 0
M  V30 9083 H 878.898 -0.122455 0.726756 0
M  V30 9084 H 881.54 0.38319 1.86096 0
M  V30 9085 H 879.69 -1.33919 3.64689 0
M  V30 9086 H 881.362 1.13713 4.47065 0
M  V30 9087 H 879.605 1.13646 4.18649 0
M  V30 9088 H 880.276 0.188041 5.5168 0
M  V30 9089 H 882.752 -1.03722 4.02965 0
M  V30 9090 H 881.628 -1.79387 5.1876 0
M  V30 9091 H 881.889 -2.53963 3.61877 0
M  V30 9092 N 880.948 -1.576 0.00335426 0
M  V30 9093 C 881.878 -2.11668 -0.985839 0
M  V30 9094 C 882.859 -1.02661 -1.35627 0
M  V30 9095 O 884.044 -1.30361 -1.43943 0
M  V30 9096 C 881.174 -2.62273 -2.27662 0
M  V30 9097 C 880.128 -3.75837 -2.0477 0
M  V30 9098 C 879.454 -4.12769 -3.39891 0
M  V30 9099 C 880.754 -5.02975 -1.40759 0
M  V30 9100 H 882.448 -2.9457 -0.535637 0
M  V30 9101 H 879.994 -1.41702 -0.256204 0
M  V30 9102 H 881.947 -2.98727 -2.97221 0
M  V30 9103 H 880.671 -1.76498 -2.74802 0
M  V30 9104 H 879.33 -3.39782 -1.37636 0
M  V30 9105 H 878.978 -3.24013 -3.8474 0
M  V30 9106 H 878.678 -4.89281 -3.25389 0
M  V30 9107 H 880.202 -4.51784 -4.1076 0
M  V30 9108 H 881.616 -5.37179 -2.00279 0
M  V30 9109 H 880.013 -5.84315 -1.36734 0
M  V30 9110 H 881.083 -4.83431 -0.377218 0
M  V30 9111 N 882.426 0.269451 -1.5528 0
M  V30 9112 C 883.842 0.616827 -1.47199 0
M  V30 9113 C 884.042 1.89354 -0.68901 0
M  V30 9114 O 883.098 2.51631 -0.209287 0
M  V30 9115 C 884.411 0.740492 -2.9144 0
M  V30 9116 C 885.959 0.834312 -3.01676 0
M  V30 9117 C 886.434 0.989725 -4.47178 0
M  V30 9118 N 887.925 1.05516 -4.51022 0
M  V30 9119 C 888.66 1.19427 -5.60825 0
M  V30 9120 N 888.156 1.30035 -6.80487 0
M  V30 9121 N 889.949 1.22566 -5.48575 0
M  V30 9122 H 882.1 -0.568962 -2.04638 0
M  V30 9123 H 884.363 -0.193153 -0.928114 0
M  V30 9124 H 884.069 -0.127234 -3.5147 0
M  V30 9125 H 883.943 1.61965 -3.40657 0
M  V30 9126 H 886.33 1.6925 -2.4174 0
M  V30 9127 H 886.411 -0.0695298 -2.55705 0
M  V30 9128 H 886.055 0.136179 -5.07717 0
M  V30 9129 H 885.985 1.90827 -4.90808 0
M  V30 9130 H 888.476 0.985434 -3.64825 0
M  V30 9131 H 888.789 1.40494 -7.59922 0
M  V30 9132 H 887.134 1.27033 -6.83292 0
M  V30 9133 H 890.325 1.13911 -4.54029 0
M  V30 9134 H 890.498 1.33063 -6.34191 0
M  V30 9135 N 883.904 1.48273 0.534124 0
M  V30 9136 C 885.132 1.59734 1.31501 0
M  V30 9137 C 885.547 0.256047 1.87056 0
M  V30 9138 O 884.904 -0.754086 1.66192 0
M  V30 9139 C 884.955 2.64072 2.46877 0
M  V30 9140 O 884.676 3.92995 1.93613 0
M  V30 9141 C 886.177 2.85933 3.38758 0
M  V30 9142 H 883.397 0.538703 0.40005 0
M  V30 9143 H 885.941 1.9407 0.644762 0
M  V30 9144 H 884.096 2.32606 3.09795 0
M  V30 9145 H 884.51 4.50203 2.69106 0
M  V30 9146 H 885.984 3.62749 4.16073 0
M  V30 9147 H 886.461 1.94603 3.93734 0
M  V30 9148 H 887.067 3.18687 2.81636 0
M  V30 9149 N 885.382 -0.782676 1.36792 0
M  V30 9150 C 886.607 -1.57676 1.34733 0
M  V30 9151 C 887.032 -1.87979 -0.0675253 0
M  V30 9152 O 886.39 -1.48404 -1.04144 0
M  V30 9153 C 886.438 -2.87047 2.18257 0
M  V30 9154 O 885.542 -3.80946 1.57969 0
M  V30 9155 H 884.883 -0.478034 0.460846 0
M  V30 9156 H 887.413 -0.969578 1.80168 0
M  V30 9157 H 887.423 -3.36254 2.31079 0
M  V30 9158 H 886.098 -2.64319 3.21104 0
M  V30 9159 H 884.675 -3.39558 1.54126 0
M  V30 9160 N 886.86 -1.21182 -1.00761 0
M  V30 9161 C 888.108 -1.02543 -1.74153 0
M  V30 9162 C 888.429 0.442372 -1.89916 0
M  V30 9163 O 887.699 1.31927 -1.44818 0
M  V30 9164 H 886.279 -0.37644 -0.645214 0
M  V30 9165 H 888.941 -1.52446 -1.21434 0
M  V30 9166 H 888.037 -1.49122 -2.7417 0
M  V30 9167 N 888.338 1.20213 -1.01915 0
M  V30 9168 C 889.248 2.26763 -0.601311 0
M  V30 9169 C 890.264 1.70185 0.362369 0
M  V30 9170 O 891.44 2.00165 0.222682 0
M  V30 9171 C 888.505 3.46662 0.0512879 0
M  V30 9172 C 887.566 4.18459 -0.958659 0
M  V30 9173 C 886.799 5.32634 -0.337107 0
M  V30 9174 O 887.022 5.63841 0.86251 0
M  V30 9175 O 885.956 5.9258 -1.05511 0
M  V30 9176 H 889.782 2.64725 -1.48844 0
M  V30 9177 H 887.367 1.2688 -0.788784 0
M  V30 9178 H 889.249 4.19345 0.41564 0
M  V30 9179 H 887.924 3.1057 0.912572 0
M  V30 9180 H 886.831 3.47937 -1.37442 0
M  V30 9181 H 888.164 4.58498 -1.78999 0
M  V30 9182 N 889.816 0.795718 1.36037 0
M  V30 9183 C 891.064 0.370291 1.98679 0
M  V30 9184 C 891.385 -1.06332 1.63458 0
M  V30 9185 O 890.655 -1.73394 0.911671 0
M  V30 9186 H 889.235 0.133928 0.734896 0
M  V30 9187 H 891.897 1.01915 1.6613 0
M  V30 9188 H 890.993 0.467207 3.08583 0
M  V30 9189 N 891.294 -1.47756 0.548274 0
M  V30 9190 C 892.542 -2.02089 0.0208542 0
M  V30 9191 C 892.863 -1.42589 -1.33017 0
M  V30 9192 O 892.133 -0.597825 -1.86555 0
M  V30 9193 H 890.713 -0.746985 0.00472023 0
M  V30 9194 H 893.375 -1.81262 0.716257 0
M  V30 9195 H 892.471 -3.12012 -0.0739016 0
M  V30 9196 N 892.772 -0.284283 -1.55015 0
M  V30 9197 C 894.012 0.330942 -2.01703 0
M  V30 9198 C 894.376 1.52362 -1.16832 0
M  V30 9199 O 895.577 2.20909 -1.53142 0
M  V30 9200 C 893.848 0.694712 -3.50583 0
M  V30 9201 S 895.407 1.29517 -4.1925 0
M  V30 9202 H 892.225 0.10247 -0.703577 0
M  V30 9203 H 894.827 -0.408257 -1.9119 0
M  V30 9204 H 893.531 -0.182056 -4.09996 0
M  V30 9205 H 893.062 1.46513 -3.65099 0
M  V30 9206 H 895.077 2.58352 -4.23638 0
M  V30 9207 N 894.251 1.57596 -0.0117121 0
M  V30 9208 C 895.498 1.91071 0.670667 0
M  V30 9209 C 895.826 0.886457 1.73125 0
M  V30 9210 O 895.081 -0.107135 1.95407 0
M  V30 9211 C 895.38 3.31296 1.34082 0
M  V30 9212 C 895.046 4.49011 0.412305 0
M  V30 9213 C 893.708 4.80945 0.156691 0
M  V30 9214 C 896.06 5.20709 -0.226294 0
M  V30 9215 C 893.388 5.81943 -0.745619 0
M  V30 9216 C 895.74 6.22668 -1.11655 0
M  V30 9217 C 894.404 6.53053 -1.38123 0
M  V30 9218 H 893.674 0.69918 0.245415 0
M  V30 9219 H 896.321 1.91373 -0.0697511 0
M  V30 9220 H 894.626 3.27174 2.15557 0
M  V30 9221 H 896.323 3.54461 1.87506 0
M  V30 9222 H 892.913 4.24067 0.621705 0
M  V30 9223 H 897.097 4.96282 -0.0418456 0
M  V30 9224 H 892.353 6.03839 -0.958566 0
M  V30 9225 H 896.527 6.77351 -1.61767 0
M  V30 9226 H 894.154 7.31132 -2.08208 0
M  V30 9227 N 895.729 -0.261212 1.5542 0
M  V30 9228 C 896.959 -1.00769 1.80358 0
M  V30 9229 C 897.367 -1.79991 0.583085 0
M  V30 9230 O 896.71 -1.77911 -0.457534 0
M  V30 9231 C 896.772 -2.00463 2.9842 0
M  V30 9232 C 896.436 -1.4007 4.35005 0
M  V30 9233 C 897.433 -0.810388 5.13545 0
M  V30 9234 C 895.118 -1.42436 4.81682 0
M  V30 9235 C 897.112 -0.251784 6.36903 0
M  V30 9236 C 894.799 -0.861897 6.04991 0
M  V30 9237 C 895.797 -0.276622 6.8244 0
M  V30 9238 O 895.485 0.277194 8.03422 0
M  V30 9239 H 895.217 -0.302839 0.604371 0
M  V30 9240 H 897.771 -0.293763 2.03288 0
M  V30 9241 H 896.001 -2.75648 2.71211 0
M  V30 9242 H 897.69 -2.61336 3.10577 0
M  V30 9243 H 898.456 -0.784719 4.7861 0
M  V30 9244 H 894.335 -1.8693 4.214 0
M  V30 9245 H 897.879 0.205678 6.97297 0
M  V30 9246 H 893.776 -0.884846 6.39407 0
M  V30 9247 H 894.544 0.167682 8.18328 0
M  V30 9248 N 897.207 -1.48554 -0.526253 0
M  V30 9249 C 898.117 -1.66044 -1.65731 0
M  V30 9250 C 899.133 -0.542951 -1.65312 0
M  V30 9251 O 900.309 -0.814495 -1.84195 0
M  V30 9252 C 897.374 -1.69959 -3.02184 0
M  V30 9253 C 896.435 -2.93362 -3.13428 0
M  V30 9254 C 895.668 -2.97081 -4.43372 0
M  V30 9255 O 895.891 -2.09103 -5.3069 0
M  V30 9256 O 894.825 -3.8929 -4.59061 0
M  V30 9257 H 898.651 -2.61811 -1.53912 0
M  V30 9258 H 896.236 -1.31999 -0.699759 0
M  V30 9259 H 898.118 -1.75033 -3.83329 0
M  V30 9260 H 896.793 -0.773658 -3.14319 0
M  V30 9261 H 895.7 -2.93818 -2.31564 0
M  V30 9262 H 897.033 -3.85352 -3.06211 0
M  V30 9263 N 898.685 0.775411 -1.37205 0
M  V30 9264 C 899.932 1.53384 -1.32211 0
M  V30 9265 C 900.26 1.9427 0.0944958 0
M  V30 9266 O 899.515 1.64059 1.06692 0
M  V30 9267 C 899.814 2.81377 -2.20367 0
M  V30 9268 C 899.48 2.59561 -3.68699 0
M  V30 9269 C 898.142 2.53319 -4.09124 0
M  V30 9270 C 900.494 2.39939 -4.62686 0
M  V30 9271 C 897.822 2.25442 -5.41658 0
M  V30 9272 C 900.174 2.13586 -5.95453 0
M  V30 9273 C 898.838 2.05786 -6.34987 0
M  V30 9274 H 898.108 0.561271 -0.483793 0
M  V30 9275 H 900.755 0.893466 -1.6938 0
M  V30 9276 H 899.06 3.49954 -1.76181 0
M  V30 9277 H 900.757 3.39238 -2.13819 0
M  V30 9278 H 897.347 2.6528 -3.36637 0
M  V30 9279 H 901.531 2.43753 -4.32317 0
M  V30 9280 H 896.787 2.17896 -5.71254 0
M  V30 9281 H 900.961 1.97401 -6.67837 0
M  V30 9282 H 898.588 1.83948 -7.37609 0
M  V30 9283 N 900.163 1.21714 1.00117 0
M  V30 9284 C 901.073 0.99597 2.12409 0
M  V30 9285 C 902.089 -0.0531431 1.73919 0
M  V30 9286 O 903.265 0.137757 2.00928 0
M  V30 9287 C 900.33 0.567593 3.42022 0
M  V30 9288 C 899.391 1.68936 3.94663 0
M  V30 9289 C 898.624 1.28133 5.1809 0
M  V30 9290 O 898.847 0.156574 5.70185 0
M  V30 9291 O 897.781 2.0947 5.64275 0
M  V30 9292 H 901.607 1.93657 2.33946 0
M  V30 9293 H 899.192 1.00236 1.10784 0
M  V30 9294 H 901.074 0.338664 4.20037 0
M  V30 9295 H 899.749 -0.34424 3.21864 0
M  V30 9296 H 898.656 1.97274 3.17858 0
M  V30 9297 H 899.989 2.57876 4.19238 0
M  V30 9298 N 901.641 -1.19671 1.02551 0
M  V30 9299 C 902.887 -1.89818 0.730801 0
M  V30 9300 C 903.242 -1.77917 -0.732355 0
M  V30 9301 O 902.535 -1.15848 -1.5261 0
M  V30 9302 C 902.729 -3.39647 1.11241 0
M  V30 9303 C 902.558 -3.66129 2.61112 0
M  V30 9304 C 901.328 -3.84348 3.28032 0
M  V30 9305 C 903.526 -3.67963 3.59316 0
M  V30 9306 N 901.508 -3.98429 4.67041 0
M  V30 9307 C 902.879 -3.87575 4.83927 0
M  V30 9308 C 904.934 -3.50971 3.53162 0
M  V30 9309 C 903.637 -3.91957 6.03127 0
M  V30 9310 C 905.663 -3.56629 4.71773 0
M  V30 9311 C 905.025 -3.76722 5.95197 0
M  V30 9312 H 901.124 -0.713873 0.319232 0
M  V30 9313 H 903.708 -1.43844 1.31213 0
M  V30 9314 H 901.879 -3.84352 0.559324 0
M  V30 9315 H 903.611 -3.97301 0.77031 0
M  V30 9316 H 900.366 -3.83097 2.78448 0
M  V30 9317 H 900.79 -4.09327 5.39241 0
M  V30 9318 H 905.432 -3.34395 2.58728 0
M  V30 9319 H 903.15 -4.07326 6.97933 0
M  V30 9320 H 906.736 -3.44777 4.68637 0
M  V30 9321 H 905.616 -3.8097 6.85442 0
M  V30 9322 N 903.119 -0.802921 -1.35613 0
M  V30 9323 C 904.069 -0.183492 -2.2726 0
M  V30 9324 C 905.053 0.640527 -1.47601 0
M  V30 9325 O 906.245 0.498386 -1.69838 0
M  V30 9326 C 903.374 0.67003 -3.36698 0
M  V30 9327 C 902.46 -0.163517 -4.23785 0
M  V30 9328 N 902.851 -1.22472 -4.90749 0
M  V30 9329 C 901.149 0.0554547 -4.45966 0
M  V30 9330 C 901.85 -1.73329 -5.55276 0
M  V30 9331 N 900.826 -1.04033 -5.33552 0
M  V30 9332 H 904.628 -0.995525 -2.76526 0
M  V30 9333 H 902.142 -0.643714 -1.49098 0
M  V30 9334 H 904.139 1.12981 -4.01299 0
M  V30 9335 H 902.799 1.48045 -2.88986 0
M  V30 9336 H 903.81 -1.60733 -4.92327 0
M  V30 9337 H 900.487 0.835312 -4.09058 0
M  V30 9338 H 901.877 -2.62 -6.18713 0
M  V30 9339 N 904.597 1.47463 -0.556102 0
M  V30 9340 C 905.825 2.06868 -0.0364585 0
M  V30 9341 C 906.24 1.40893 1.25677 0
M  V30 9342 O 905.597 0.505083 1.75371 0
M  V30 9343 C 905.648 3.61128 0.163984 0
M  V30 9344 O 905.369 4.24629 -1.07803 0
M  V30 9345 C 906.87 4.37397 0.721036 0
M  V30 9346 H 904.09 0.669466 -0.0453399 0
M  V30 9347 H 906.634 1.89482 -0.769198 0
M  V30 9348 H 904.789 3.78031 0.84685 0
M  V30 9349 H 905.203 5.17149 -0.875067 0
M  V30 9350 H 906.677 5.46016 0.810584 0
M  V30 9351 H 907.154 4.03604 1.73206 0
M  V30 9352 H 907.76 4.25236 0.073904 0
M  V30 9353 N 906.075 0.2925 1.54862 0
M  V30 9354 C 907.038 -0.574423 2.21885 0
M  V30 9355 C 908.038 -1.06791 1.20218 0
M  V30 9356 O 909.228 -0.9653 1.45009 0
M  V30 9357 C 906.36 -1.79438 2.89853 0
M  V30 9358 H 907.553 0.0110319 2.99898 0
M  V30 9359 H 905.106 0.043256 1.5624 0
M  V30 9360 H 905.841 -2.4199 2.15897 0
M  V30 9361 H 905.626 -1.44827 3.64373 0
M  V30 9362 H 907.116 -2.41048 3.41007 0
M  V30 9363 N 907.553 -1.57587 0.0200696 0
M  V30 9364 C 908.516 -2.08595 -0.949767 0
M  V30 9365 C 909.516 -0.999215 -1.25985 0
M  V30 9366 O 910.706 -1.26115 -1.2017 0
M  V30 9367 C 907.838 -2.54424 -2.26895 0
M  V30 9368 H 909.031 -2.95563 -0.508161 0
M  V30 9369 H 906.584 -1.54631 -0.227798 0
M  V30 9370 H 907.319 -1.70758 -2.75703 0
M  V30 9371 H 907.104 -3.3381 -2.05702 0
M  V30 9372 H 908.594 -2.94144 -2.96427 0
M  V30 9373 N 909.032 0.252966 -1.55557 0
M  V30 9374 C 909.995 1.29645 -1.8901 0
M  V30 9375 C 910.995 1.41378 -0.766096 0
M  V30 9376 O 912.185 1.40183 -1.03414 0
M  V30 9377 C 909.317 2.67504 -2.11316 0
M  V30 9378 H 910.51 1.01202 -2.82309 0
M  V30 9379 H 908.063 0.491977 -1.48355 0
M  V30 9380 H 908.798 3.01095 -1.20466 0
M  V30 9381 H 908.583 2.6037 -2.93172 0
M  V30 9382 H 910.073 3.42861 -2.38403 0
M  V30 9383 N 910.51 1.48831 0.518367 0
M  V30 9384 C 911.75 1.59045 1.28391 0
M  V30 9385 C 912.114 0.263443 1.90184 0
M  V30 9386 O 913.315 0.24064 2.67721 0
M  V30 9387 C 911.586 2.70536 2.33548 0
M  V30 9388 S 913.145 3.00591 3.19673 0
M  V30 9389 H 909.963 0.561182 0.436573 0
M  V30 9390 H 912.565 1.86409 0.589222 0
M  V30 9391 H 911.269 3.65499 1.86652 0
M  V30 9392 H 910.8 2.4511 3.07708 0
M  V30 9393 H 912.815 2.40779 4.33866 0
M  V30 9394 N 911.988 -0.768124 1.37614 0
M  V30 9395 C 913.234 -1.52907 1.33219 0
M  V30 9396 C 913.567 -1.94026 -0.0821218 0
M  V30 9397 O 912.842 -1.64345 -1.04023 0
M  V30 9398 C 913.125 -2.79164 2.27463 0
M  V30 9399 C 912.978 -2.44276 3.7769 0
M  V30 9400 C 914.297 -3.81115 2.20089 0
M  V30 9401 H 911.416 -0.554712 0.485246 0
M  V30 9402 H 914.058 -0.880911 1.68345 0
M  V30 9403 H 912.208 -3.34472 1.97639 0
M  V30 9404 H 913.88 -1.94855 4.18126 0
M  V30 9405 H 912.123 -1.76925 3.96081 0
M  V30 9406 H 912.794 -3.34544 4.39072 0
M  V30 9407 H 915.27 -3.35311 2.46386 0
M  V30 9408 H 914.146 -4.67174 2.88166 0
M  V30 9409 H 914.407 -4.25644 1.19498 0
M  V30 9410 N 913.466 -1.22244 -0.994698 0
M  V30 9411 C 914.396 -1.01513 -2.10279 0
M  V30 9412 C 915.377 0.0633365 -1.69982 0
M  V30 9413 O 916.562 -0.0985268 -1.9395 0
M  V30 9414 C 913.692 -0.59016 -3.42249 0
M  V30 9415 C 912.646 -1.61436 -3.96387 0
M  V30 9416 C 911.972 -1.04528 -5.24383 0
M  V30 9417 C 913.272 -3.00388 -4.27276 0
M  V30 9418 H 914.966 -1.94194 -2.2788 0
M  V30 9419 H 912.512 -0.935094 -1.09508 0
M  V30 9420 H 914.465 -0.432254 -4.19177 0
M  V30 9421 H 913.189 0.372308 -3.24471 0
M  V30 9422 H 911.848 -1.76001 -3.21589 0
M  V30 9423 H 911.496 -0.0742225 -5.02945 0
M  V30 9424 H 911.196 -1.72949 -5.61571 0
M  V30 9425 H 912.72 -0.898922 -6.03947 0
M  V30 9426 H 914.134 -2.89207 -4.95007 0
M  V30 9427 H 912.531 -3.65916 -4.75631 0
M  V30 9428 H 913.601 -3.50456 -3.35125 0
M  V30 9429 N 914.944 1.19125 -1.03184 0
M  V30 9430 C 916.169 1.93379 -0.749628 0
M  V30 9431 C 916.594 1.75153 0.685785 0
M  V30 9432 O 915.952 1.05579 1.47386 0
M  V30 9433 C 916 3.43101 -1.1097 0
M  V30 9434 O 915.104 4.11758 -0.230053 0
M  V30 9435 H 914.445 0.603605 -0.276689 0
M  V30 9436 H 916.975 1.51116 -1.37931 0
M  V30 9437 H 916.985 3.93778 -1.06785 0
M  V30 9438 H 915.66 3.55688 -2.15544 0
M  V30 9439 H 914.237 3.7143 -0.330748 0
M  V30 9440 N 916.422 0.810101 1.35185 0
M  V30 9441 C 917.369 0.220927 2.2974 0
M  V30 9442 C 918.339 -0.647024 1.5298 0
M  V30 9443 O 919.524 -0.591367 1.81404 0
M  V30 9444 C 916.664 -0.62167 3.39454 0
M  V30 9445 C 915.777 0.267104 4.31173 0
M  V30 9446 C 914.912 -0.583833 5.27982 0
M  V30 9447 C 913.951 0.305123 6.11339 0
M  V30 9448 N 913.088 -0.505992 7.00274 0
M  V30 9449 H 917.928 1.03266 2.79536 0
M  V30 9450 H 915.465 0.520768 1.37573 0
M  V30 9451 H 917.423 -1.12539 4.01735 0
M  V30 9452 H 916.053 -1.39863 2.90926 0
M  V30 9453 H 915.105 0.88895 3.69867 0
M  V30 9454 H 916.417 0.951182 4.89647 0
M  V30 9455 H 915.571 -1.15254 5.95652 0
M  V30 9456 H 914.31 -1.30146 4.70014 0
M  V30 9457 H 913.315 0.886075 5.42613 0
M  V30 9458 H 914.54 1.02067 6.71386 0
M  V30 9459 H 912.486 -1.20753 6.4479 0
M  V30 9460 H 912.403 0.119966 7.55905 0
M  V30 9461 H 913.671 -1.05787 7.72288 0
M  V30 9462 N 917.9 -1.47166 0.563914 0
M  V30 9463 C 919.128 -2.06846 0.0474287 0
M  V30 9464 C 919.543 -1.41557 -1.24928 0
M  V30 9465 O 918.9 -0.514376 -1.75101 0
M  V30 9466 C 918.951 -3.6121 -0.144831 0
M  V30 9467 O 918.672 -4.24052 1.10053 0
M  V30 9468 C 920.173 -4.37773 -0.69783 0
M  V30 9469 H 917.393 -0.669217 0.0488896 0
M  V30 9470 H 919.937 -1.89072 0.779235 0
M  V30 9471 H 918.092 -3.78474 -0.82679 0
M  V30 9472 H 918.506 -5.16677 0.902481 0
M  V30 9473 H 919.98 -5.46438 -0.781616 0
M  V30 9474 H 920.457 -4.04517 -1.71063 0
M  V30 9475 H 921.063 -4.25269 -0.0513516 0
M  V30 9476 N 919.378 -0.300708 -1.54705 0
M  V30 9477 C 920.288 0.584996 -2.27189 0
M  V30 9478 C 921.304 1.14866 -1.30697 0
M  V30 9479 O 922.48 1.17351 -1.63679 0
M  V30 9480 C 919.545 1.74076 -2.99831 0
M  V30 9481 C 918.606 1.2112 -4.1186 0
M  V30 9482 C 917.839 2.31188 -4.81028 0
M  V30 9483 O 918.062 3.5108 -4.49554 0
M  V30 9484 O 916.996 1.97897 -5.68437 0
M  V30 9485 H 920.822 -0.00298177 -3.037 0
M  V30 9486 H 918.407 -0.0671802 -1.49249 0
M  V30 9487 H 920.289 2.41413 -3.45395 0
M  V30 9488 H 918.964 2.31535 -2.26215 0
M  V30 9489 H 917.871 0.50357 -3.70695 0
M  V30 9490 H 919.204 0.682046 -4.87452 0
M  V30 9491 N 920.856 1.57574 -0.0284266 0
M  V30 9492 C 922.104 1.91393 0.649079 0
M  V30 9493 C 922.425 0.905368 1.72708 0
M  V30 9494 O 921.695 -0.0532107 1.95828 0
M  V30 9495 H 920.275 0.70646 0.24274 0
M  V30 9496 H 922.937 1.94752 -0.076066 0
M  V30 9497 H 922.033 2.91988 1.10226 0
M  V30 9498 N 922.334 -0.244713 1.55689 0
M  V30 9499 C 923.244 -1.32447 1.93636 0
M  V30 9500 C 924.26 -1.52541 0.837086 0
M  V30 9501 O 925.436 -1.66121 1.13867 0
M  V30 9502 C 922.501 -2.65864 2.22525 0
M  V30 9503 C 921.562 -2.54273 3.45896 0
M  V30 9504 C 920.795 -3.81327 3.73397 0
M  V30 9505 O 921.018 -4.83307 3.02936 0
M  V30 9506 O 919.952 -3.79829 4.66919 0
M  V30 9507 H 923.778 -1.03255 2.85608 0
M  V30 9508 H 921.363 -0.445652 1.42598 0
M  V30 9509 H 923.245 -3.447 2.42404 0
M  V30 9510 H 921.92 -2.94784 1.33731 0
M  V30 9511 H 920.827 -1.73715 3.31321 0
M  V30 9512 H 922.16 -2.30297 4.34999 0
M  V30 9513 N 923.813 -1.49104 -0.510467 0
M  V30 9514 C 924.761 -1.65547 -1.63392 0
M  V30 9515 C 925.755 -0.521522 -1.61172 0
M  V30 9516 O 926.961 -0.700865 -1.65795 0
M  V30 9517 H 923.336 -0.521843 -0.541464 0
M  V30 9518 H 925.307 -2.59864 -1.46673 0
M  V30 9519 C 924.056 -1.73051 -3.01577 0
M  V30 9520 H 923.379 -2.59676 -3.03987 0
M  V30 9521 H 924.819 -1.88594 -3.79748 0
M  V30 9522 C 923.278 -0.47328 -3.33559 0
M  V30 9523 O 923.808 0.405239 -3.99651 0
M  V30 9524 N 922.014 -0.339074 -2.88615 0
M  V30 9525 H 921.561 -1.05497 -2.35007 0
M  V30 9526 H 921.519 0.501061 -3.10382 0
M  V30 9527 N 925.291 0.760815 -1.38019 0
M  V30 9528 C 926.531 1.53264 -1.35239 0
M  V30 9529 C 926.895 1.91908 0.0595038 0
M  V30 9530 O 928.096 2.67962 0.212122 0
M  V30 9531 C 926.367 2.75643 -2.27499 0
M  V30 9532 S 927.926 3.6559 -2.42672 0
M  V30 9533 H 924.744 0.52457 -0.479945 0
M  V30 9534 H 927.346 0.893737 -1.73875 0
M  V30 9535 H 926.05 2.4535 -3.28986 0
M  V30 9536 H 925.581 3.44483 -1.89987 0
M  V30 9537 H 927.596 4.68124 -1.64542 0
M  V30 9538 N 926.769 1.22769 0.988202 0
M  V30 9539 C 927.997 1.08155 1.76381 0
M  V30 9540 C 928.412 -0.367573 1.85187 0
M  V30 9541 O 927.769 -1.25455 1.32541 0
M  V30 9542 C 927.82 1.69193 3.19462 0
M  V30 9543 O 927.541 3.08437 3.11125 0
M  V30 9544 C 929.042 1.59915 4.13451 0
M  V30 9545 H 926.262 0.378908 0.553778 0
M  V30 9546 H 928.806 1.6246 1.24206 0
M  V30 9547 H 926.961 1.18939 3.6869 0
M  V30 9548 H 927.375 3.37916 4.0114 0
M  V30 9549 H 928.849 2.07339 5.1158 0
M  V30 9550 H 929.326 0.556546 4.3566 0
M  V30 9551 H 929.932 2.09497 3.70123 0
M  V30 9552 N 928.247 -1.18576 1.03814 0
M  V30 9553 C 929.493 -1.88773 0.741132 0
M  V30 9554 C 929.826 -1.79993 -0.729127 0
M  V30 9555 O 929.101 -1.19851 -1.53186 0
M  V30 9556 C 929.384 -3.39352 1.20468 0
M  V30 9557 C 929.237 -3.56955 2.73684 0
M  V30 9558 C 930.556 -4.32901 0.792741 0
M  V30 9559 H 927.675 -0.685482 0.270708 0
M  V30 9560 H 930.317 -1.39523 1.2897 0
M  V30 9561 H 928.467 -3.81427 0.737974 0
M  V30 9562 H 930.139 -3.2399 3.28372 0
M  V30 9563 H 928.382 -2.99696 3.13632 0
M  V30 9564 H 929.053 -4.62598 3.01176 0
M  V30 9565 H 931.529 -3.98592 1.1943 0
M  V30 9566 H 930.405 -5.36828 1.14486 0
M  V30 9567 H 930.666 -4.41052 -0.304295 0
M  V30 9568 N 929.725 -0.817259 -1.34754 0
M  V30 9569 C 930.972 -0.402648 -1.98457 0
M  V30 9570 C 931.3 1.03287 -1.64809 0
M  V30 9571 O 930.555 1.73316 -0.908851 0
M  V30 9572 C 930.854 -0.5453 -3.53216 0
M  V30 9573 C 930.52 -1.9457 -4.06759 0
M  V30 9574 C 929.182 -2.32881 -4.21094 0
M  V30 9575 C 931.534 -2.86141 -4.35629 0
M  V30 9576 C 928.862 -3.62108 -4.61622 0
M  V30 9577 C 931.214 -4.14826 -4.776 0
M  V30 9578 C 929.878 -4.53121 -4.9014 0
M  V30 9579 H 929.148 -0.147339 -0.726204 0
M  V30 9580 H 931.795 -1.04011 -1.60791 0
M  V30 9581 H 930.1 0.175576 -3.91406 0
M  V30 9582 H 931.797 -0.205112 -4.00475 0
M  V30 9583 H 928.387 -1.6381 -3.96061 0
M  V30 9584 H 932.571 -2.57788 -4.24098 0
M  V30 9585 H 927.827 -3.91613 -4.69521 0
M  V30 9586 H 932.001 -4.85874 -4.98899 0
M  V30 9587 H 929.628 -5.53307 -5.21302 0
M  V30 9588 N 931.203 1.46865 -0.571711 0
M  V30 9589 C 932.48 1.95596 0.0132445 0
M  V30 9590 C 932.86 1.51438 1.47071 0
M  V30 9591 O 932.208 0.759917 2.15494 0
M  V30 9592 C 932.418 3.48689 -0.147335 0
M  V30 9593 C 933.766 4.24599 -0.00946329 0
M  V30 9594 O 934.79 3.5612 -0.0756112 0
M  V30 9595 O 933.649 5.46332 0.135361 0
M  V30 9596 H 930.743 0.825102 0.0560039 0
M  V30 9597 H 933.289 1.57199 -0.639256 0
M  V30 9598 H 932.061 3.73681 -1.16096 0
M  V30 9599 H 931.684 3.93887 0.542109 0
M  V30 9600 N 932.681 0.308908 1.54543 0
M  V30 9601 C 933.906 -0.303196 2.05172 0
M  V30 9602 C 934.331 -1.46133 1.18434 0
M  V30 9603 O 933.689 -1.803 0.190162 0
M  V30 9604 C 933.737 -0.729526 3.53143 0
M  V30 9605 O 932.841 -1.83348 3.69401 0
M  V30 9606 H 932.182 -0.0575066 0.661505 0
M  V30 9607 H 934.712 0.453055 1.99521 0
M  V30 9608 H 934.722 -1.01619 3.95143 0
M  V30 9609 H 933.397 0.117622 4.15734 0
M  V30 9610 H 931.974 -1.54676 3.39308 0
M  V30 9611 N 934.159 -1.57557 0.0367827 0
M  V30 9612 C 935.091 -2.07597 -0.971395 0
M  V30 9613 C 936.104 -1.0009 -1.28397 0
M  V30 9614 O 937.293 -1.27692 -1.24728 0
M  V30 9615 C 934.393 -2.492 -2.2968 0
M  V30 9616 C 933.566 -3.79875 -2.16826 0
M  V30 9617 C 932.625 -4.07946 -3.32366 0
M  V30 9618 O 931.651 -4.78083 -3.0891 0
M  V30 9619 N 932.853 -3.58722 -4.56397 0
M  V30 9620 H 935.618 -2.94714 -0.544389 0
M  V30 9621 H 933.179 -1.61205 -0.1498 0
M  V30 9622 H 935.171 -2.65065 -3.05815 0
M  V30 9623 H 933.741 -1.67407 -2.63995 0
M  V30 9624 H 932.961 -3.73732 -1.2537 0
M  V30 9625 H 934.249 -4.65476 -2.0545 0
M  V30 9626 H 933.647 -3.01994 -4.78347 0
M  V30 9627 H 932.204 -3.79852 -5.29675 0
M  V30 9628 N 935.637 0.236453 -1.55816 0
M  V30 9629 C 936.6 1.27633 -1.90375 0
M  V30 9630 C 937.6 1.40557 -0.781048 0
M  V30 9631 O 938.79 1.39078 -1.04895 0
M  V30 9632 C 935.922 2.65247 -2.14142 0
M  V30 9633 H 937.115 0.982019 -2.83366 0
M  V30 9634 H 934.668 0.476215 -1.48869 0
M  V30 9635 H 935.403 2.99801 -1.23653 0
M  V30 9636 H 935.188 2.57246 -2.95917 0
M  V30 9637 H 936.678 3.40313 -2.42026 0
M  V30 9638 N 937.115 1.49373 0.502552 0
M  V30 9639 C 938.363 1.58467 1.25429 0
M  V30 9640 C 938.684 0.272593 1.93085 0
M  V30 9641 O 937.954 -0.707947 1.82661 0
M  V30 9642 H 936.534 0.583866 0.46595 0
M  V30 9643 H 939.196 1.8599 0.582568 0
M  V30 9644 H 938.292 2.37993 2.01906 0
M  V30 9645 N 938.594 -0.753485 1.38421 0
M  V30 9646 C 939.841 -1.51261 1.34634 0
M  V30 9647 C 940.169 -1.94396 -0.0635771 0
M  V30 9648 O 939.424 -1.65736 -1.04068 0
M  V30 9649 C 939.723 -2.77836 2.24816 0
M  V30 9650 C 939.389 -2.53662 3.72782 0
M  V30 9651 C 938.051 -2.46779 4.13103 0
M  V30 9652 C 940.403 -2.32548 4.66445 0
M  V30 9653 C 937.731 -2.16796 5.45176 0
M  V30 9654 C 940.083 -2.04085 5.98775 0
M  V30 9655 C 938.747 -1.95658 6.3818 0
M  V30 9656 H 938.017 -0.553503 0.492661 0
M  V30 9657 H 940.664 -0.866406 1.7078 0
M  V30 9658 H 938.969 -3.47106 1.81726 0
M  V30 9659 H 940.666 -3.35793 2.19189 0
M  V30 9660 H 937.256 -2.59891 3.40815 0
M  V30 9661 H 941.44 -2.36845 4.3614 0
M  V30 9662 H 936.696 -2.0878 5.74648 0
M  V30 9663 H 940.87 -1.86751 6.70893 0
M  V30 9664 H 938.497 -1.7219 7.40442 0
M  V30 9665 N 940.072 -1.23292 -0.981677 0
M  V30 9666 C 941.297 -1.09176 -1.76339 0
M  V30 9667 C 941.722 0.352726 -1.84763 0
M  V30 9668 O 941.08 1.25509 -1.30832 0
M  V30 9669 C 941.128 -1.72046 -3.16911 0
M  V30 9670 O 940.232 -0.98174 -4.00544 0
M  V30 9671 H 939.573 -0.382755 -0.542581 0
M  V30 9672 H 942.103 -1.63319 -1.23239 0
M  V30 9673 H 942.113 -1.77232 -3.67495 0
M  V30 9674 H 940.788 -2.77154 -3.10095 0
M  V30 9675 H 939.365 -1.00672 -3.59054 0
M  V30 9676 N 941.55 1.18024 -1.04442 0
M  V30 9677 C 942.797 1.88098 -0.750022 0
M  V30 9678 C 943.125 1.80583 0.722489 0
M  V30 9679 O 942.38 1.20329 1.54335 0
M  V30 9680 C 942.679 3.37834 -1.16631 0
M  V30 9681 C 942.345 3.65553 -2.63974 0
M  V30 9682 C 941.007 3.72827 -3.04226 0
M  V30 9683 C 943.359 3.77634 -3.59224 0
M  V30 9684 C 940.687 3.89666 -4.38608 0
M  V30 9685 C 943.039 3.9599 -4.9333 0
M  V30 9686 C 941.703 4.01501 -5.33248 0
M  V30 9687 H 940.973 0.6883 -0.274452 0
M  V30 9688 H 943.62 1.39671 -1.31012 0
M  V30 9689 H 941.925 3.88266 -0.525071 0
M  V30 9690 H 943.622 3.90402 -0.915827 0
M  V30 9691 H 940.212 3.6051 -2.31798 0
M  V30 9692 H 944.396 3.71342 -3.2927 0
M  V30 9693 H 939.652 3.92178 -4.69048 0
M  V30 9694 H 943.826 4.0428 -5.67037 0
M  V30 9695 H 941.453 4.14301 -6.37384 0
M  V30 9696 N 943.028 0.824394 1.34319 0
M  V30 9697 C 944.305 0.335692 1.92698 0
M  V30 9698 C 944.685 -1.17715 1.75232 0
M  V30 9699 O 944.033 -1.98493 1.13194 0
M  V30 9700 C 944.243 0.766647 3.40475 0
M  V30 9701 C 945.591 0.766323 4.17627 0
M  V30 9702 O 946.615 0.709321 3.49066 0
M  V30 9703 O 945.474 0.840856 5.39992 0
M  V30 9704 H 942.568 0.0919996 0.821867 0
M  V30 9705 H 945.114 0.909282 1.43283 0
M  V30 9706 H 943.886 1.80859 3.46995 0
M  V30 9707 H 943.509 0.168833 3.97241 0
M  V30 9708 N 944.506 -1.46559 0.579492 0
M  V30 9709 C 945.436 -2.33059 -0.143437 0
M  V30 9710 C 946.417 -1.4515 -0.886868 0
M  V30 9711 O 947.602 -1.73973 -0.862961 0
M  V30 9712 C 944.732 -3.27364 -1.15973 0
M  V30 9713 C 943.686 -4.24689 -0.531348 0
M  V30 9714 C 943.012 -5.08479 -1.65388 0
M  V30 9715 C 944.312 -5.1961 0.529391 0
M  V30 9716 H 946.006 -2.93753 0.578762 0
M  V30 9717 H 943.552 -1.41256 0.279775 0
M  V30 9718 H 945.505 -3.86732 -1.67382 0
M  V30 9719 H 944.229 -2.64771 -1.91217 0
M  V30 9720 H 942.888 -3.6658 -0.0383749 0
M  V30 9721 H 942.536 -4.42273 -2.3959 0
M  V30 9722 H 942.236 -5.74387 -1.23909 0
M  V30 9723 H 943.76 -5.70709 -2.17079 0
M  V30 9724 H 945.174 -5.73212 0.100506 0
M  V30 9725 H 943.571 -5.93843 0.86432 0
M  V30 9726 H 944.641 -4.63737 1.4169 0
M  V30 9727 N 945.984 -0.3171 -1.54377 0
M  V30 9728 C 947.209 0.292311 -2.0533 0
M  V30 9729 C 947.634 1.45503 -1.19207 0
M  V30 9730 O 946.992 1.80197 -0.199721 0
M  V30 9731 C 947.04 0.710787 -3.53525 0
M  V30 9732 O 946.144 1.81387 -3.70368 0
M  V30 9733 H 945.485 0.0539976 -0.661801 0
M  V30 9734 H 948.015 -0.463629 -1.99278 0
M  V30 9735 H 948.025 0.995216 -3.95676 0
M  V30 9736 H 946.7 -0.139668 -4.15665 0
M  V30 9737 H 945.277 1.52875 -3.40123 0
M  V30 9738 N 947.462 1.57535 -0.0451378 0
M  V30 9739 C 948.873 1.80116 0.491426 0
M  V30 9740 C 949.224 0.956846 1.71286 0
M  V30 9741 O 948.349 0.17173 2.15718 0
M  V30 9742 C 948.944 3.26674 0.898315 0
M  V30 9743 C 947.503 3.50194 1.37989 0
M  V30 9744 C 946.65 2.75054 0.352202 0
M  V30 9745 H 949.601 1.56368 -0.271065 0
M  V30 9746 H 949.622 3.37263 1.76164 0
M  V30 9747 H 949.134 3.88099 0.009141 0
M  V30 9748 H 947.235 2.94041 2.28846 0
M  V30 9749 H 947.348 4.58909 1.37622 0
M  V30 9750 H 945.712 2.4101 0.823784 0
M  V30 9751 H 946.495 3.39203 -0.528782 0
M  V30 9752 N 948.94 -0.228186 1.55939 0
M  V30 9753 C 949.87 -1.28607 1.94891 0
M  V30 9754 C 950.851 -1.49236 0.816245 0
M  V30 9755 O 952.036 -1.61531 1.07803 0
M  V30 9756 C 949.166 -2.63719 2.25986 0
M  V30 9757 C 948.12 -2.57757 3.4168 0
M  V30 9758 C 947.446 -3.96837 3.58364 0
M  V30 9759 C 948.746 -2.13116 4.76843 0
M  V30 9760 H 950.44 -0.962531 2.83506 0
M  V30 9761 H 947.986 -0.461577 1.36402 0
M  V30 9762 H 949.939 -3.37878 2.51826 0
M  V30 9763 H 948.663 -2.97747 1.34217 0
M  V30 9764 H 947.322 -1.86055 3.15878 0
M  V30 9765 H 946.97 -4.28162 2.63982 0
M  V30 9766 H 946.67 -3.93731 4.36176 0
M  V30 9767 H 948.194 -4.72668 3.86545 0
M  V30 9768 H 949.608 -2.77015 5.01932 0
M  V30 9769 H 948.005 -2.21083 5.57891 0
M  V30 9770 H 949.075 -1.08326 4.72645 0
M  V30 9771 N 950.418 -1.49637 -0.494624 0
M  V30 9772 C 951.646 -1.63164 -1.2722 0
M  V30 9773 C 952.061 -0.305552 -1.86311 0
M  V30 9774 O 951.418 0.709758 -1.68133 0
M  V30 9775 C 951.469 -2.70524 -2.39789 0
M  V30 9776 O 951.19 -3.97991 -1.83126 0
M  V30 9777 C 952.691 -2.94814 -3.31058 0
M  V30 9778 H 949.911 -0.54912 -0.385627 0
M  V30 9779 H 952.455 -1.95711 -0.593081 0
M  V30 9780 H 950.61 -2.40738 -3.03519 0
M  V30 9781 H 951.024 -4.57179 -2.57075 0
M  V30 9782 H 952.498 -3.73653 -4.06309 0
M  V30 9783 H 952.975 -2.04974 -3.88436 0
M  V30 9784 H 953.581 -3.26042 -2.73088 0
M  V30 9785 N 951.896 0.746133 -1.38819 0
M  V30 9786 C 952.843 1.86001 -1.36647 0
M  V30 9787 C 953.813 1.6453 -0.227849 0
M  V30 9788 O 954.998 1.86092 -0.421241 0
M  V30 9789 C 952.138 3.23388 -1.20474 0
M  V30 9790 C 951.251 3.5664 -2.43786 0
M  V30 9791 C 950.386 4.8337 -2.20287 0
M  V30 9792 C 949.425 5.09431 -3.39332 0
M  V30 9793 N 948.562 6.2736 -3.1522 0
M  V30 9794 H 953.402 1.87192 -2.31869 0
M  V30 9795 H 950.939 0.914838 -1.15192 0
M  V30 9796 H 952.897 4.02679 -1.09112 0
M  V30 9797 H 951.527 3.21505 -0.288874 0
M  V30 9798 H 950.579 2.72135 -2.65794 0
M  V30 9799 H 951.891 3.71823 -3.3249 0
M  V30 9800 H 951.045 5.70619 -2.06103 0
M  V30 9801 H 949.784 4.70341 -1.28961 0
M  V30 9802 H 948.789 4.20648 -3.54027 0
M  V30 9803 H 950.014 5.24354 -4.31544 0
M  V30 9804 H 947.96 6.15639 -2.26549 0
M  V30 9805 H 947.877 6.43078 -3.97476 0
M  V30 9806 H 949.145 7.17477 -3.04707 0
M  V30 9807 N 953.375 1.23811 0.975125 0
M  V30 9808 C 954.322 1.02394 2.06843 0
M  V30 9809 C 955.292 -0.060337 1.6599 0
M  V30 9810 O 956.477 0.0928187 1.90574 0
M  V30 9811 C 953.617 0.626882 3.39359 0
M  V30 9812 C 952.73 1.78385 3.9345 0
M  V30 9813 C 951.865 1.33307 5.14201 0
M  V30 9814 C 950.904 2.46045 5.60471 0
M  V30 9815 N 950.041 2.01888 6.72448 0
M  V30 9816 H 954.881 1.95973 2.24496 0
M  V30 9817 H 952.418 0.976206 1.10039 0
M  V30 9818 H 954.376 0.377742 4.15486 0
M  V30 9819 H 953.006 -0.271907 3.21653 0
M  V30 9820 H 952.058 2.14685 3.14029 0
M  V30 9821 H 953.37 2.63122 4.23755 0
M  V30 9822 H 952.524 1.04237 5.97678 0
M  V30 9823 H 951.263 0.456143 4.85562 0
M  V30 9824 H 950.268 2.75884 4.75571 0
M  V30 9825 H 951.493 3.34283 5.91127 0
M  V30 9826 H 949.439 1.16583 6.45558 0
M  V30 9827 H 949.356 2.80182 7.02164 0
M  V30 9828 H 950.624 1.75937 7.59386 0
M  V30 9829 N 954.853 -1.17469 1.05066 0
M  V30 9830 C 955.801 -2.23495 0.644418 0
M  V30 9831 C 956.795 -1.66081 -0.333685 0
M  V30 9832 O 958.001 -1.78887 -0.199886 0
M  V30 9833 H 954.376 -0.727546 0.190214 0
M  V30 9834 H 956.347 -2.55058 1.5488 0
M  V30 9835 C 955.096 -3.47684 0.0338051 0
M  V30 9836 H 954.419 -3.92167 0.777513 0
M  V30 9837 H 955.859 -4.23464 -0.213086 0
M  V30 9838 C 954.318 -3.14067 -1.21915 0
M  V30 9839 O 954.848 -3.28728 -2.3087 0
M  V30 9840 N 953.054 -2.68304 -1.11631 0
M  V30 9841 H 952.601 -2.56574 -0.229673 0
M  V30 9842 H 952.559 -2.46184 -1.95553 0
M  V30 9843 N 956.331 -0.831506 -1.3388 0
M  V30 9844 C 957.579 -0.422837 -1.97627 0
M  V30 9845 C 957.9 1.01961 -1.6622 0
M  V30 9846 O 957.17 1.70916 -0.957323 0
M  V30 9847 H 955.75 -0.153365 -0.731087 0
M  V30 9848 H 958.412 -1.06284 -1.6337 0
M  V30 9849 H 957.508 -0.548858 -3.07236 0
M  V30 9850 N 957.809 1.4625 -0.587256 0
M  V30 9851 C 958.772 2.28812 0.133238 0
M  V30 9852 C 959.772 1.38645 0.814513 0
M  V30 9853 O 960.962 1.60975 0.665774 0
M  V30 9854 C 958.094 3.19147 1.19824 0
M  V30 9855 H 959.287 2.93991 -0.592386 0
M  V30 9856 H 956.84 1.52435 -0.345416 0
M  V30 9857 H 957.575 2.58725 1.95529 0
M  V30 9858 H 957.36 3.85541 0.71418 0
M  V30 9859 H 958.85 3.81278 1.70344 0
M  V30 9860 N 959.287 0.325282 1.54207 0
M  V30 9861 C 960.517 -0.278285 2.04717 0
M  V30 9862 C 960.925 -1.46198 1.20095 0
M  V30 9863 O 960.268 -1.82319 0.224813 0
M  V30 9864 C 960.33 -0.774387 3.51061 0
M  V30 9865 C 959.994 0.287225 4.56096 0
M  V30 9866 C 960.991 1.12388 5.07607 0
M  V30 9867 C 958.676 0.435908 5.00405 0
M  V30 9868 C 960.67 2.09492 6.0199 0
M  V30 9869 C 958.357 1.41037 5.94602 0
M  V30 9870 C 959.355 2.23834 6.45281 0
M  V30 9871 O 959.043 3.19625 7.37628 0
M  V30 9872 H 958.775 -0.0608309 0.673257 0
M  V30 9873 H 961.329 0.470049 1.99949 0
M  V30 9874 H 959.559 -1.57366 3.53232 0
M  V30 9875 H 961.248 -1.29649 3.84637 0
M  V30 9876 H 962.014 1.02 4.74153 0
M  V30 9877 H 957.893 -0.198668 4.60572 0
M  V30 9878 H 961.437 2.74157 6.4147 0
M  V30 9879 H 957.334 1.51487 6.27473 0
M  V30 9880 H 958.102 3.14884 7.55507 0
M  V30 9881 N 960.765 -1.57509 0.0534917 0
M  V30 9882 C 961.712 -2.11667 -0.920101 0
M  V30 9883 C 962.682 -1.0246 -1.30733 0
M  V30 9884 O 963.867 -1.30021 -1.39639 0
M  V30 9885 C 961.007 -2.66803 -2.18883 0
M  V30 9886 C 960.12 -3.90104 -1.85588 0
M  V30 9887 C 959.255 -4.33547 -3.06937 0
M  V30 9888 C 958.294 -5.49542 -2.69573 0
M  V30 9889 N 957.431 -5.88029 -3.83623 0
M  V30 9890 H 962.271 -2.94562 -0.451371 0
M  V30 9891 H 959.808 -1.45576 -0.211168 0
M  V30 9892 H 961.766 -2.96871 -2.93127 0
M  V30 9893 H 960.396 -1.86702 -2.63329 0
M  V30 9894 H 959.448 -3.66613 -1.01484 0
M  V30 9895 H 960.76 -4.74404 -1.54087 0
M  V30 9896 H 959.914 -4.6518 -3.89477 0
M  V30 9897 H 958.653 -3.48064 -3.41618 0
M  V30 9898 H 957.658 -5.17579 -1.8545 0
M  V30 9899 H 958.883 -6.36743 -2.36082 0
M  V30 9900 H 956.829 -5.05498 -4.181 0
M  V30 9901 H 956.746 -6.67025 -3.55828 0
M  V30 9902 H 958.014 -6.24277 -4.66796 0
M  V30 9903 N 962.243 0.219913 -1.56058 0
M  V30 9904 C 963.489 0.945463 -1.79412 0
M  V30 9905 C 963.822 1.83922 -0.62341 0
M  V30 9906 O 963.097 1.90806 0.377256 0
M  V30 9907 C 963.38 1.783 -3.1286 0
M  V30 9908 C 963.233 0.915626 -4.40382 0
M  V30 9909 C 964.552 2.76045 -3.42764 0
M  V30 9910 H 961.671 0.342288 -0.652693 0
M  V30 9911 H 964.313 0.214235 -1.88788 0
M  V30 9912 H 962.463 2.40642 -3.04998 0
M  V30 9913 H 964.135 0.30882 -4.60265 0
M  V30 9914 H 962.378 0.221124 -4.33236 0
M  V30 9915 H 963.049 1.53607 -5.30197 0
M  V30 9916 H 965.525 2.23838 -3.50764 0
M  V30 9917 H 964.401 3.31748 -4.37304 0
M  V30 9918 H 964.662 3.53866 -2.65012 0
M  V30 9919 N 963.721 1.49897 0.486681 0
M  V30 9920 C 964.631 1.70379 1.6127 0
M  V30 9921 C 965.647 0.58659 1.63814 0
M  V30 9922 O 966.823 0.863044 1.81971 0
M  V30 9923 C 963.888 1.77911 2.97571 0
M  V30 9924 C 962.949 3.01569 3.0554 0
M  V30 9925 C 962.182 3.08732 4.35339 0
M  V30 9926 O 962.405 2.23099 5.2496 0
M  V30 9927 O 961.339 4.01325 4.48578 0
M  V30 9928 H 965.165 2.65799 1.46916 0
M  V30 9929 H 962.75 1.33808 0.664516 0
M  V30 9930 H 964.632 1.85135 3.78554 0
M  V30 9931 H 963.307 0.856722 3.12157 0
M  V30 9932 H 962.214 2.99854 2.23693 0
M  V30 9933 H 963.547 3.93335 2.95886 0
M  V30 9934 N 965.199 -0.738761 1.39212 0
M  V30 9935 C 966.427 -1.52801 1.39497 0
M  V30 9936 C 966.842 -1.88797 -0.0114917 0
M  V30 9937 O 966.199 -1.53835 -0.981887 0
M  V30 9938 C 966.25 -2.81793 2.2644 0
M  V30 9939 O 965.971 -2.47328 3.61608 0
M  V30 9940 C 967.472 -3.75844 2.35067 0
M  V30 9941 H 964.692 -0.472322 0.476606 0
M  V30 9942 H 967.236 -0.913153 1.8298 0
M  V30 9943 H 965.391 -3.3962 1.8638 0
M  V30 9944 H 965.805 -3.30162 4.07545 0
M  V30 9945 H 967.279 -4.6326 3.00157 0
M  V30 9946 H 967.756 -4.17329 1.3687 0
M  V30 9947 H 968.362 -3.23937 2.75581 0
M  V30 9948 N 966.677 -1.24326 -0.968545 0
M  V30 9949 C 967.624 -1.0349 -2.06297 0
M  V30 9950 C 968.594 0.0515333 -1.6602 0
M  V30 9951 O 969.779 -0.102924 -1.90522 0
M  V30 9952 C 966.919 -0.64487 -3.39021 0
M  V30 9953 C 966.032 -1.80469 -3.92498 0
M  V30 9954 C 965.167 -1.36032 -5.13487 0
M  V30 9955 C 964.206 -2.49014 -5.59159 0
M  V30 9956 N 963.343 -2.05451 -6.71367 0
M  V30 9957 H 968.183 -1.97161 -2.23454 0
M  V30 9958 H 965.72 -0.982028 -1.0952 0
M  V30 9959 H 967.678 -0.399771 -4.1528 0
M  V30 9960 H 966.308 0.254845 -3.21792 0
M  V30 9961 H 965.36 -2.16348 -3.12886 0
M  V30 9962 H 966.672 -2.65365 -4.22354 0
M  V30 9963 H 965.826 -1.07405 -5.97117 0
M  V30 9964 H 964.565 -0.481887 -4.85313 0
M  V30 9965 H 963.57 -2.78402 -4.74102 0
M  V30 9966 H 964.795 -3.37413 -5.89346 0
M  V30 9967 H 962.741 -1.20004 -6.4493 0
M  V30 9968 H 962.658 -2.83901 -7.00668 0
M  V30 9969 H 963.926 -1.79962 -7.58442 0
M  V30 9970 N 968.156 1.1691 -1.05688 0
M  V30 9971 C 969.103 2.21095 -0.662246 0
M  V30 9972 C 970.073 1.62623 0.338083 0
M  V30 9973 O 971.258 1.89428 0.228362 0
M  V30 9974 C 968.398 3.45066 -0.0484018 0
M  V30 9975 C 967.511 4.17809 -1.09817 0
M  V30 9976 C 966.646 5.29281 -0.451114 0
M  V30 9977 C 965.685 5.93817 -1.48484 0
M  V30 9978 N 964.822 6.96793 -0.861588 0
M  V30 9979 H 969.662 2.54204 -1.55513 0
M  V30 9980 H 967.199 1.24863 -0.777665 0
M  V30 9981 H 969.157 4.15932 0.324978 0
M  V30 9982 H 967.787 3.12526 0.807918 0
M  V30 9983 H 966.839 3.45608 -1.58932 0
M  V30 9984 H 968.151 4.61907 -1.88265 0
M  V30 9985 H 967.305 6.06695 -0.0244251 0
M  V30 9986 H 966.044 4.8633 0.365306 0
M  V30 9987 H 965.049 5.1513 -1.92149 0
M  V30 9988 H 966.274 6.38848 -2.30325 0
M  V30 9989 H 964.22 6.55967 -0.0657688 0
M  V30 9990 H 964.137 7.39229 -1.58354 0
M  V30 9991 H 965.405 7.78142 -0.45984 0
M  V30 9992 N 969.634 0.838594 1.33437 0
M  V30 9993 C 970.864 0.446995 2.01707 0
M  V30 9994 C 971.272 -0.956335 1.63251 0
M  V30 9995 O 970.615 -1.63289 0.841566 0
M  V30 9996 C 970.677 0.487707 3.56176 0
M  V30 9997 C 970.341 1.8471 4.18009 0
M  V30 9998 C 971.338 2.81028 4.374 0
M  V30 9999 C 969.023 2.13987 4.54439 0
M  V30 10000 C 971.017 4.04785 4.92369 0
M  V30 10001 C 968.704 3.38 5.09116 0
M  V30 10002 C 969.702 4.33216 5.28027 0
M  V30 10003 O 969.39 5.55036 5.81541 0
M  V30 10004 H 969.122 0.175799 0.652741 0
M  V30 10005 H 971.676 1.13265 1.71348 0
M  V30 10006 H 969.906 -0.254719 3.8586 0
M  V30 10007 H 971.595 0.113971 4.0574 0
M  V30 10008 H 972.361 2.5971 4.09604 0
M  V30 10009 H 968.24 1.40668 4.39014 0
M  V30 10010 H 971.784 4.79114 5.07046 0
M  V30 10011 H 967.681 3.59175 5.36343 0
M  V30 10012 H 968.449 5.56772 5.99956 0
M  V30 10013 N 971.112 -1.45937 0.595003 0
M  V30 10014 C 972.389 -1.95592 0.0178748 0
M  V30 10015 C 972.769 -1.53758 -1.44643 0
M  V30 10016 O 972.117 -0.794104 -2.14257 0
M  V30 10017 C 972.327 -3.4841 0.202789 0
M  V30 10018 C 973.675 -4.2453 0.0770121 0
M  V30 10019 O 974.699 -3.55954 0.132257 0
M  V30 10020 O 973.558 -5.46479 -0.0484271 0
M  V30 10021 H 970.652 -0.825888 -0.0428702 0
M  V30 10022 H 973.198 -1.56162 0.664184 0
M  V30 10023 H 971.97 -3.71787 1.22027 0
M  V30 10024 H 971.593 -3.947 -0.479376 0
M  V30 10025 N 972.59 -0.333456 -1.54032 0
M  V30 10026 C 973.837 0.266133 -2.00744 0
M  V30 10027 C 974.165 1.51361 -1.22148 0
M  V30 10028 O 973.42 1.93473 -0.294368 0
M  V30 10029 C 973.719 0.63565 -3.51702 0
M  V30 10030 C 973.385 -0.513786 -4.47963 0
M  V30 10031 C 972.047 -0.829253 -4.74001 0
M  V30 10032 C 974.399 -1.2854 -5.05101 0
M  V30 10033 C 971.727 -1.91888 -5.54433 0
M  V30 10034 C 974.079 -2.3652 -5.86721 0
M  V30 10035 C 972.743 -2.68637 -6.11057 0
M  V30 10036 H 972.013 0.097385 -0.734573 0
M  V30 10037 H 974.66 -0.459282 -1.85911 0
M  V30 10038 H 972.965 1.44163 -3.64313 0
M  V30 10039 H 974.662 1.11129 -3.85294 0
M  V30 10040 H 971.252 -0.25784 -4.27824 0
M  V30 10041 H 975.436 -1.05494 -4.84958 0
M  V30 10042 H 970.692 -2.17208 -5.71516 0
M  V30 10043 H 974.866 -2.96747 -6.30011 0
M  V30 10044 H 972.493 -3.53197 -6.73169 0
M  V30 10045 N 974.068 1.57479 -0.061844 0
M  V30 10046 C 975.298 1.97142 0.61794 0
M  V30 10047 C 975.706 0.938533 1.64281 0
M  V30 10048 O 975.049 -0.084385 1.83506 0
M  V30 10049 C 975.111 3.33083 1.35263 0
M  V30 10050 C 974.775 4.54447 0.482372 0
M  V30 10051 C 975.772 5.1927 -0.255954 0
M  V30 10052 C 973.457 5.00623 0.410167 0
M  V30 10053 C 975.451 6.28612 -1.05481 0
M  V30 10054 C 973.138 6.09839 -0.392369 0
M  V30 10055 C 974.136 6.73696 -1.12354 0
M  V30 10056 O 973.824 7.80811 -1.91285 0
M  V30 10057 H 973.556 0.653497 0.172969 0
M  V30 10058 H 976.11 2.05002 -0.127781 0
M  V30 10059 H 974.34 3.21808 2.14421 0
M  V30 10060 H 976.029 3.5742 1.92368 0
M  V30 10061 H 976.795 4.84546 -0.209703 0
M  V30 10062 H 972.674 4.50704 0.968883 0
M  V30 10063 H 976.218 6.78385 -1.62602 0
M  V30 10064 H 972.115 6.43997 -0.44022 0
M  V30 10065 H 972.883 7.9764 -1.83611 0
M  V30 10066 N 975.546 -0.211634 1.56173 0
M  V30 10067 C 976.795 -0.932647 1.78842 0
M  V30 10068 C 977.108 -1.85103 0.63217 0
M  V30 10069 O 978.314 -2.61143 0.742746 0
M  V30 10070 C 976.77 -1.70866 3.16753 0
M  V30 10071 C 976.378 -0.835934 4.40132 0
M  V30 10072 C 978.122 -2.4203 3.48743 0
M  V30 10073 C 976.029 -1.60987 5.69067 0
M  V30 10074 H 974.959 -0.351983 0.666801 0
M  V30 10075 H 977.61 -0.186284 1.82552 0
M  V30 10076 H 975.992 -2.4983 3.07247 0
M  V30 10077 H 977.166 -0.0861298 4.60719 0
M  V30 10078 H 975.481 -0.235941 4.15731 0
M  V30 10079 H 978.078 -3.00453 4.42303 0
M  V30 10080 H 978.421 -3.15406 2.71707 0
M  V30 10081 H 978.954 -1.70048 3.59623 0
M  V30 10082 H 975.693 -0.9192 6.49023 0
M  V30 10083 H 975.213 -2.33403 5.52524 0
M  V30 10084 H 976.892 -2.16798 6.09596 0
M  V30 10085 N 977.024 -1.50153 -0.478725 0
M  V30 10086 C 977.972 -1.68975 -1.59844 0
M  V30 10087 C 978.966 -0.555591 -1.6003 0
M  V30 10088 O 980.172 -0.735875 -1.64271 0
M  V30 10089 H 976.547 -0.533211 -0.530274 0
M  V30 10090 H 978.518 -2.62917 -1.41128 0
M  V30 10091 C 977.267 -1.79409 -2.97838 0
M  V30 10092 H 976.59 -2.66066 -2.98411 0
M  V30 10093 H 978.03 -1.96606 -3.75662 0
M  V30 10094 C 976.489 -0.543927 -3.3248 0
M  V30 10095 O 977.019 0.320376 -4.0042 0
M  V30 10096 N 975.225 -0.400217 -2.87831 0
M  V30 10097 H 974.772 -1.10458 -2.32716 0
M  V30 10098 H 974.73 0.435111 -3.11375 0
M  V30 10099 N 978.502 0.731368 -1.39602 0
M  V30 10100 C 979.748 1.49321 -1.37227 0
M  V30 10101 C 980.081 1.94176 0.0306502 0
M  V30 10102 O 979.356 1.67046 0.996294 0
M  V30 10103 C 979.639 2.73035 -2.34784 0
M  V30 10104 C 979.492 2.34176 -3.84033 0
M  V30 10105 C 980.811 3.75146 -2.30116 0
M  V30 10106 H 977.93 0.541652 -0.499783 0
M  V30 10107 H 980.572 0.835968 -1.70621 0
M  V30 10108 H 978.722 3.29114 -2.06437 0
M  V30 10109 H 980.394 1.83701 -4.23145 0
M  V30 10110 H 978.637 1.66361 -4.00633 0
M  V30 10111 H 979.308 3.22786 -4.47787 0
M  V30 10112 H 981.784 3.28661 -2.55189 0
M  V30 10113 H 980.66 4.5937 -3.00451 0
M  V30 10114 H 980.921 4.22326 -1.30741 0
M  V30 10115 N 979.98 1.24838 0.961938 0
M  V30 10116 C 981.22 1.10348 1.72054 0
M  V30 10117 C 981.584 -0.350775 1.88769 0
M  V30 10118 O 982.785 -0.617323 2.61615 0
M  V30 10119 C 981.056 1.82916 3.07045 0
M  V30 10120 S 982.615 1.84227 3.98253 0
M  V30 10121 H 979.433 0.394552 0.591481 0
M  V30 10122 H 982.035 1.58254 1.14786 0
M  V30 10123 H 980.739 2.87829 2.92545 0
M  V30 10124 H 980.27 1.35366 3.69377 0
M  V30 10125 H 982.285 0.914073 4.87708 0
M  V30 10126 N 981.458 -1.16348 1.06306 0
M  V30 10127 C 982.706 -1.86512 0.778311 0
M  V30 10128 C 983.027 -1.82107 -0.697273 0
M  V30 10129 O 982.297 -1.2547 -1.50446 0
M  V30 10130 H 980.877 -0.690529 0.284919 0
M  V30 10131 H 983.539 -1.41092 1.34458 0
M  V30 10132 H 982.635 -2.91947 1.10333 0
M  V30 10133 N 982.937 -0.845659 -1.3299 0
M  V30 10134 C 984.348 -0.50048 -1.79867 0
M  V30 10135 C 984.699 0.981027 -1.69913 0
M  V30 10136 O 983.824 1.76477 -1.25239 0
M  V30 10137 C 984.419 -0.901679 -3.26581 0
M  V30 10138 C 982.978 -0.608536 -3.71448 0
M  V30 10139 C 982.125 -1.10632 -2.54275 0
M  V30 10140 H 985.076 -1.03372 -1.20416 0
M  V30 10141 H 985.097 -0.214433 -3.79895 0
M  V30 10142 H 984.609 -1.97998 -3.33794 0
M  V30 10143 H 982.71 0.459416 -3.69757 0
M  V30 10144 H 982.823 -1.16853 -4.64631 0
M  V30 10145 H 981.187 -0.526925 -2.4919 0
M  V30 10146 H 981.97 -2.19154 -2.64247 0
M  V30 10147 N 984.415 1.45619 -0.602734 0
M  V30 10148 C 985.661 2.02572 -0.0961759 0
M  V30 10149 C 985.994 1.47076 1.26815 0
M  V30 10150 O 985.269 0.643566 1.83544 0
M  V30 10151 C 985.552 3.60062 -0.0520032 0
M  V30 10152 C 985.405 4.25901 -1.44665 0
M  V30 10153 C 986.724 4.35446 0.638342 0
M  V30 10154 H 983.843 0.736099 -0.0364238 0
M  V30 10155 H 986.485 1.7353 -0.773776 0
M  V30 10156 H 984.635 3.84936 0.525032 0
M  V30 10157 H 986.307 4.12228 -2.0704 0
M  V30 10158 H 984.55 3.84489 -2.00874 0
M  V30 10159 H 985.221 5.34779 -1.36803 0
M  V30 10160 H 987.697 4.15837 0.147926 0
M  V30 10161 H 986.573 5.45176 0.63834 0
M  V30 10162 H 986.834 4.07962 1.70351 0
M  V30 10163 N 985.893 0.34162 1.53853 0
M  V30 10164 C 987.118 -0.259608 2.05769 0
M  V30 10165 C 987.543 -1.43588 1.21507 0
M  V30 10166 O 986.901 -1.79856 0.228364 0
M  V30 10167 C 986.949 -0.654455 3.54611 0
M  V30 10168 O 986.053 -1.75472 3.73207 0
M  V30 10169 H 985.394 -0.0434621 0.662576 0
M  V30 10170 H 987.924 0.495274 1.98515 0
M  V30 10171 H 987.934 -0.932142 3.97209 0
M  V30 10172 H 986.609 0.205779 4.15391 0
M  V30 10173 H 985.186 -1.47444 3.42512 0
M  V30 10174 N 987.371 -1.57444 0.0701946 0
M  V30 10175 C 988.617 -1.93716 -0.600178 0
M  V30 10176 C 988.95 -0.950329 -1.69359 0
M  V30 10177 O 988.225 0.0207123 -1.94489 0
M  V30 10178 C 988.508 -3.40266 -1.17861 0
M  V30 10179 C 988.361 -4.49706 -0.0919575 0
M  V30 10180 C 989.68 -3.87599 -2.08459 0
M  V30 10181 H 986.799 -0.704421 -0.216704 0
M  V30 10182 H 989.441 -1.89514 0.135838 0
M  V30 10183 H 987.591 -3.43977 -1.80587 0
M  V30 10184 H 989.263 -4.58116 0.541031 0
M  V30 10185 H 987.506 -4.29937 0.577639 0
M  V30 10186 H 988.177 -5.49381 -0.537048 0
M  V30 10187 H 990.653 -3.85883 -1.5567 0
M  V30 10188 H 989.529 -4.90755 -2.45867 0
M  V30 10189 H 989.79 -3.25448 -2.99226 0
M  V30 10190 N 988.849 0.203349 -1.56283 0
M  V30 10191 C 990.074 0.945548 -1.84592 0
M  V30 10192 C 990.499 1.7641 -0.652772 0
M  V30 10193 O 989.857 1.76867 0.398468 0
M  V30 10194 C 989.905 1.82416 -3.11057 0
M  V30 10195 O 989.009 2.92191 -2.9103 0
M  V30 10196 H 988.35 0.266739 -0.608068 0
M  V30 10197 H 990.88 0.211158 -2.03507 0
M  V30 10198 H 990.89 2.23044 -3.41636 0
M  V30 10199 H 989.565 1.22267 -3.97522 0
M  V30 10200 H 988.142 2.55378 -2.71728 0
M  V30 10201 N 990.327 1.50405 0.470755 0
M  V30 10202 C 991.738 1.54266 1.05162 0
M  V30 10203 C 992.089 0.346359 1.93119 0
M  V30 10204 O 991.214 -0.540699 2.09536 0
M  V30 10205 C 991.809 2.7956 1.91394 0
M  V30 10206 C 990.368 2.86101 2.44588 0
M  V30 10207 C 989.515 2.48557 1.22941 0
M  V30 10208 H 992.466 1.56665 0.253359 0
M  V30 10209 H 992.487 2.61434 2.76464 0
M  V30 10210 H 991.999 3.66611 1.27351 0
M  V30 10211 H 990.1 2.03403 3.12183 0
M  V30 10212 H 990.213 3.88999 2.79672 0
M  V30 10213 H 988.577 2.01003 1.56429 0
M  V30 10214 H 989.36 3.37916 0.605598 0
M  V30 10215 N 991.805 -0.723954 1.39988 0
M  V30 10216 C 993.045 -1.49624 1.39255 0
M  V30 10217 C 993.409 -1.91998 -0.00860198 0
M  V30 10218 O 994.61 -2.6843 -0.141002 0
M  V30 10219 C 992.881 -2.69514 2.34728 0
M  V30 10220 S 994.44 -3.59027 2.5228 0
M  V30 10221 H 991.258 -0.511661 0.493685 0
M  V30 10222 H 993.86 -0.847322 1.76184 0
M  V30 10223 H 992.564 -2.36541 3.35375 0
M  V30 10224 H 992.095 -3.39325 1.99053 0
M  V30 10225 H 994.11 -4.63597 1.76896 0
M  V30 10226 N 993.283 -1.25346 -0.955304 0
M  V30 10227 C 994.215 -1.0146 -2.0552 0
M  V30 10228 C 995.228 0.0202256 -1.62787 0
M  V30 10229 O 996.417 -0.218251 -1.77161 0
M  V30 10230 C 993.517 -0.511727 -3.35014 0
M  V30 10231 C 992.69 -1.61256 -4.0659 0
M  V30 10232 C 991.749 -1.11017 -5.14356 0
M  V30 10233 O 990.775 -1.80443 -5.39842 0
M  V30 10234 N 991.977 0.0489001 -5.80479 0
M  V30 10235 H 994.742 -1.96166 -2.26581 0
M  V30 10236 H 992.303 -1.16543 -1.12381 0
M  V30 10237 H 994.295 -0.160123 -4.04383 0
M  V30 10238 H 992.865 0.341377 -3.1073 0
M  V30 10239 H 992.085 -2.13577 -3.31328 0
M  V30 10240 H 993.373 -2.35213 -4.51168 0
M  V30 10241 H 992.771 0.629021 -5.62192 0
M  V30 10242 H 991.328 0.341542 -6.50905 0
M  V30 10243 N 994.761 1.15782 -1.06922 0
M  V30 10244 C 996.172 1.68062 -0.813144 0
M  V30 10245 C 996.523 1.84681 0.662374 0
M  V30 10246 O 995.648 1.54696 1.51321 0
M  V30 10247 C 996.243 3.05273 -1.46949 0
M  V30 10248 C 994.802 3.54647 -1.26104 0
M  V30 10249 C 993.949 2.30477 -1.54194 0
M  V30 10250 H 996.9 1.00056 -1.23185 0
M  V30 10251 H 996.921 3.69986 -0.888308 0
M  V30 10252 H 996.433 2.93145 -2.54337 0
M  V30 10253 H 994.534 3.72024 -0.20718 0
M  V30 10254 H 994.647 4.36354 -1.97819 0
M  V30 10255 H 993.011 2.35803 -0.96276 0
M  V30 10256 H 993.794 2.2094 -2.62755 0
M  V30 10257 N 996.239 0.8527 1.3254 0
M  V30 10258 C 997.516 0.376491 1.91942 0
M  V30 10259 C 997.896 -1.13972 1.7769 0
M  V30 10260 O 997.244 -1.96047 1.17379 0
M  V30 10261 C 997.454 0.838694 3.38773 0
M  V30 10262 C 998.802 0.854736 4.15908 0
M  V30 10263 O 999.826 0.783203 3.47483 0
M  V30 10264 O 998.685 0.955207 5.38087 0
M  V30 10265 H 995.779 0.109412 0.81973 0
M  V30 10266 H 998.325 0.93947 1.41322 0
M  V30 10267 H 997.097 1.88179 3.43081 0
M  V30 10268 H 996.72 0.253055 3.96794 0
M  V30 10269 N 997.718 -1.45297 0.610449 0
M  V30 10270 C 998.943 -2.07101 0.111414 0
M  V30 10271 C 999.368 -1.45161 -1.19625 0
M  V30 10272 O 998.726 -0.545368 -1.72903 0
M  V30 10273 C 998.774 -3.60598 -0.0117372 0
M  V30 10274 O 997.878 -3.98512 -1.06122 0
M  V30 10275 H 997.219 -0.659709 0.075364 0
M  V30 10276 H 999.749 -1.86504 0.841269 0
M  V30 10277 H 999.759 -4.07464 -0.209028 0
M  V30 10278 H 998.434 -4.05067 0.943076 0
M  V30 10279 H 997.011 -3.63312 -0.840158 0
M  V30 10280 N 999.196 -0.349774 -1.5367 0
M  V30 10281 C 1000.44 0.244343 -2.00617 0
M  V30 10282 C 1000.76 1.50567 -1.23914 0
M  V30 10283 O 1000.03 1.92784 -0.348016 0
M  V30 10284 H 998.615 0.0932792 -0.741153 0
M  V30 10285 H 1001.28 -0.472367 -1.89089 0
M  V30 10286 H 1000.37 0.482433 -3.08349 0
M  V30 10287 N 1000.67 1.57404 -0.0785433 0
M  V30 10288 C 1001.64 2.11977 0.871693 0
M  V30 10289 C 1002.64 1.04529 1.2219 0
M  V30 10290 O 1003.83 1.30488 1.15406 0
M  V30 10291 C 1000.96 2.6267 2.17296 0
M  V30 10292 H 1002.15 2.97246 0.398115 0
M  V30 10293 H 999.705 1.5537 0.170251 0
M  V30 10294 H 1000.44 1.80873 2.69175 0
M  V30 10295 H 1000.22 3.41214 1.93171 0
M  V30 10296 H 1001.71 3.04943 2.85306 0
M  V30 10297 N 1002.15 -0.195058 1.56388 0
M  V30 10298 C 1003.39 -0.92221 1.82413 0
M  V30 10299 C 1003.76 -1.80444 0.656037 0
M  V30 10300 O 1004.96 -2.56738 0.796182 0
M  V30 10301 C 1003.23 -1.71687 3.13462 0
M  V30 10302 S 1004.79 -2.49604 3.60892 0
M  V30 10303 H 1001.6 -0.309316 0.640191 0
M  V30 10304 H 1004.21 -0.185613 1.94617 0
M  V30 10305 H 1002.91 -1.05936 3.96492 0
M  V30 10306 H 1002.44 -2.49529 3.04137 0
M  V30 10307 H 1004.46 -3.73794 3.26332 0
M  V30 10308 N 1003.63 -1.50653 -0.462772 0
M  V30 10309 C 1004.56 -1.66286 -1.5774 0
M  V30 10310 C 1005.57 -0.544094 -1.53439 0
M  V30 10311 O 1006.76 -0.817566 -1.58676 0
M  V30 10312 C 1003.86 -1.63893 -2.96635 0
M  V30 10313 C 1003.04 -2.91939 -3.25716 0
M  V30 10314 C 1002.1 -2.82076 -4.44206 0
M  V30 10315 O 1001.12 -3.56032 -4.44106 0
M  V30 10316 N 1002.32 -1.96196 -5.4634 0
M  V30 10317 H 1005.09 -2.6243 -1.44742 0
M  V30 10318 H 1002.65 -1.48221 -0.651326 0
M  V30 10319 H 1004.64 -1.54897 -3.73884 0
M  V30 10320 H 1003.21 -0.75449 -3.03358 0
M  V30 10321 H 1002.43 -3.14998 -2.37002 0
M  V30 10322 H 1003.72 -3.7675 -3.4196 0
M  V30 10323 H 1003.12 -1.35439 -5.49247 0
M  V30 10324 H 1001.67 -1.93097 -6.2254 0
M  V30 10325 N 1005.11 0.71652 -1.4037 0
M  V30 10326 C 1006.35 1.47857 -1.38803 0
M  V30 10327 C 1006.69 1.94197 0.0100536 0
M  V30 10328 O 1005.96 1.68093 0.978521 0
M  V30 10329 C 1006.25 2.7053 -2.37667 0
M  V30 10330 C 1006.1 2.3009 -3.86496 0
M  V30 10331 C 1007.42 3.72684 -2.34082 0
M  V30 10332 H 1004.54 0.53632 -0.505499 0
M  V30 10333 H 1007.18 0.817824 -1.71498 0
M  V30 10334 H 1005.33 3.26906 -2.09916 0
M  V30 10335 H 1007 1.79202 -4.2507 0
M  V30 10336 H 1005.24 1.62102 -4.02375 0
M  V30 10337 H 1005.91 3.18018 -4.51186 0
M  V30 10338 H 1008.39 3.25935 -2.58661 0
M  V30 10339 H 1007.27 4.56157 -3.05306 0
M  V30 10340 H 1007.53 4.20916 -1.35213 0
M  V30 10341 N 1006.59 1.25851 0.948643 0
M  V30 10342 C 1007.55 1.0683 2.0278 0
M  V30 10343 C 1008.55 0.0191016 1.60789 0
M  V30 10344 O 1009.74 0.261836 1.72221 0
M  V30 10345 C 1006.87 0.623318 3.35153 0
M  V30 10346 H 1008.06 2.02635 2.21086 0
M  V30 10347 H 1005.62 1.08343 1.12657 0
M  V30 10348 H 1006.35 -0.337053 3.22544 0
M  V30 10349 H 1006.14 1.38082 3.66982 0
M  V30 10350 H 1007.63 0.511854 4.14451 0
M  V30 10351 N 1008.06 -1.15214 1.07534 0
M  V30 10352 C 1009.01 -2.20013 0.697337 0
M  V30 10353 C 1009.98 -1.6314 -0.312168 0
M  V30 10354 O 1011.17 -1.89768 -0.198196 0
M  V30 10355 C 1008.31 -3.44945 0.103293 0
M  V30 10356 C 1007.42 -4.16009 1.1645 0
M  V30 10357 C 1006.55 -5.28496 0.535261 0
M  V30 10358 C 1005.59 -5.9138 1.57912 0
M  V30 10359 N 1004.73 -6.95335 0.972332 0
M  V30 10360 H 1009.57 -2.51698 1.59538 0
M  V30 10361 H 1007.11 -1.2361 0.797431 0
M  V30 10362 H 1009.07 -4.16397 -0.258766 0
M  V30 10363 H 1007.7 -3.13772 -0.758096 0
M  V30 10364 H 1006.75 -3.43035 1.64411 0
M  V30 10365 H 1008.06 -4.58853 1.9559 0
M  V30 10366 H 1007.21 -6.06579 0.120942 0
M  V30 10367 H 1005.95 -4.8685 -0.287889 0
M  V30 10368 H 1004.96 -5.12008 2.0032 0
M  V30 10369 H 1006.18 -6.35103 2.40459 0
M  V30 10370 H 1004.13 -6.55779 0.170119 0
M  V30 10371 H 1004.05 -7.36616 1.70095 0
M  V30 10372 H 1005.31 -7.77312 0.583577 0
M  V30 10373 N 1009.54 -0.859717 -1.32086 0
M  V30 10374 C 1010.77 -0.478865 -2.01796 0
M  V30 10375 C 1011.19 0.918274 -1.64163 0
M  V30 10376 O 1010.55 1.60409 -0.844896 0
M  V30 10377 C 1010.6 -0.631356 -3.5503 0
M  V30 10378 O 1009.7 0.333712 -4.11048 0
M  V30 10379 H 1009.04 -0.191775 -0.635703 0
M  V30 10380 H 1011.57 -1.16031 -1.68517 0
M  V30 10381 H 1011.58 -0.520783 -4.04663 0
M  V30 10382 H 1010.26 -1.65015 -3.81763 0
M  V30 10383 H 1008.84 0.178953 -3.7247 0
M  V30 10384 N 1011.02 1.44971 -0.618145 0
M  V30 10385 C 1012.3 1.95539 -0.0489895 0
M  V30 10386 C 1012.68 1.5604 1.42179 0
M  V30 10387 O 1012.03 0.82809 2.12967 0
M  V30 10388 C 1012.24 3.48044 -0.258193 0
M  V30 10389 C 1013.58 4.24354 -0.144541 0
M  V30 10390 O 1014.61 3.55699 -0.18887 0
M  V30 10391 O 1013.47 5.46486 -0.038519 0
M  V30 10392 H 1010.56 0.826466 0.0297256 0
M  V30 10393 H 1013.11 1.55086 -0.688944 0
M  V30 10394 H 1011.88 3.69798 -1.27926 0
M  V30 10395 H 1011.5 3.95412 0.416522 0
M  V30 10396 N 1012.5 0.357919 1.53482 0
M  V30 10397 C 1013.41 -0.500273 2.29204 0
M  V30 10398 C 1014.42 -1.09936 1.3487 0
M  V30 10399 O 1015.6 -1.11195 1.67921 0
M  V30 10400 C 1012.67 -1.62828 3.06085 0
M  V30 10401 C 1011.73 -1.05751 4.16071 0
M  V30 10402 C 1010.96 -2.13176 4.89277 0
M  V30 10403 O 1011.18 -3.34153 4.62274 0
M  V30 10404 O 1010.12 -1.76663 5.7539 0
M  V30 10405 H 1013.94 0.115696 3.0348 0
M  V30 10406 H 1011.53 0.122527 1.48897 0
M  V30 10407 H 1013.41 -2.28427 3.54117 0
M  V30 10408 H 1012.08 -2.22979 2.34653 0
M  V30 10409 H 1010.99 -0.365642 3.72309 0
M  V30 10410 H 1012.32 -0.500661 4.89647 0
M  V30 10411 N 1013.98 -1.5736 0.0868897 0
M  V30 10412 C 1014.92 -2.13571 -0.874996 0
M  V30 10413 C 1015.89 -1.0521 -1.2853 0
M  V30 10414 O 1017.08 -1.32954 -1.3685 0
M  V30 10415 C 1014.22 -2.71386 -2.13175 0
M  V30 10416 C 1013.33 -3.93953 -1.77272 0
M  V30 10417 C 1012.47 -4.3996 -2.97671 0
M  V30 10418 C 1011.51 -5.55137 -2.57856 0
M  V30 10419 N 1010.64 -5.96034 -3.71064 0
M  V30 10420 H 1015.48 -2.95453 -0.388789 0
M  V30 10421 H 1013.02 -1.45992 -0.180242 0
M  V30 10422 H 1014.98 -3.03022 -2.86764 0
M  V30 10423 H 1013.61 -1.92245 -2.5931 0
M  V30 10424 H 1012.66 -3.68683 -0.936845 0
M  V30 10425 H 1013.97 -4.77565 -1.43989 0
M  V30 10426 H 1013.13 -4.73337 -3.79522 0
M  V30 10427 H 1011.86 -3.55232 -3.34158 0
M  V30 10428 H 1010.87 -5.21397 -1.7443 0
M  V30 10429 H 1012.09 -6.41608 -2.22522 0
M  V30 10430 H 1010.04 -5.14253 -4.07284 0
M  V30 10431 H 1009.96 -6.74423 -3.41599 0
M  V30 10432 H 1011.23 -6.34038 -4.53449 0
M  V30 10433 N 1015.45 0.186762 -1.56489 0
M  V30 10434 C 1016.68 0.921832 -1.85229 0
M  V30 10435 C 1017.1 1.76496 -0.670416 0
M  V30 10436 O 1016.45 1.78899 0.360758 0
M  V30 10437 C 1016.51 1.81121 -3.12854 0
M  V30 10438 O 1016.23 1.00211 -4.26485 0
M  V30 10439 C 1017.73 2.65725 -3.54831 0
M  V30 10440 H 1014.95 0.268563 -0.61491 0
M  V30 10441 H 1017.49 0.191505 -2.03601 0
M  V30 10442 H 1015.65 2.49506 -2.96354 0
M  V30 10443 H 1016.06 1.60893 -4.99213 0
M  V30 10444 H 1017.53 3.23771 -4.47075 0
M  V30 10445 H 1018.01 3.39843 -2.78215 0
M  V30 10446 H 1018.62 2.02698 -3.7389 0
M  V30 10447 N 1016.93 1.50896 0.454776 0
M  V30 10448 C 1018.18 1.63905 1.20444 0
M  V30 10449 C 1018.53 0.342692 1.89323 0
M  V30 10450 O 1017.83 -0.660465 1.79857 0
M  V30 10451 C 1018.02 2.76839 2.26042 0
M  V30 10452 C 1017.85 4.17332 1.67524 0
M  V30 10453 C 1016.62 4.83512 1.46779 0
M  V30 10454 C 1018.82 5.01022 1.1611 0
M  V30 10455 N 1016.8 6.08171 0.83675 0
M  V30 10456 C 1018.17 6.16538 0.654283 0
M  V30 10457 C 1020.23 4.86677 1.05119 0
M  V30 10458 C 1018.93 7.19284 0.0483821 0
M  V30 10459 C 1020.95 5.89614 0.459211 0
M  V30 10460 C 1020.32 7.0439 -0.0371476 0
M  V30 10461 H 1016.42 0.653802 0.42903 0
M  V30 10462 H 1019 1.88069 0.503783 0
M  V30 10463 H 1017.17 2.54369 2.93515 0
M  V30 10464 H 1018.9 2.7912 2.93043 0
M  V30 10465 H 1015.66 4.41082 1.72464 0
M  V30 10466 H 1016.08 6.7485 0.539176 0
M  V30 10467 H 1020.72 3.98211 1.42085 0
M  V30 10468 H 1018.44 8.07412 -0.333438 0
M  V30 10469 H 1022.03 5.80582 0.376315 0
M  V30 10470 H 1020.91 7.8268 -0.488035 0
M  V30 10471 N 1018.41 -0.709066 1.40748 0
M  V30 10472 C 1019.36 -1.84445 1.41714 0
M  V30 10473 C 1020.35 -1.66779 0.296818 0
M  V30 10474 O 1021.56 -1.73805 0.468181 0
M  V30 10475 H 1017.93 -0.607581 0.443114 0
M  V30 10476 H 1019.9 -1.80747 2.3743 0
M  V30 10477 C 1018.65 -3.22362 1.303 0
M  V30 10478 H 1017.98 -3.36565 2.15787 0
M  V30 10479 H 1019.42 -4.01922 1.35036 0
M  V30 10480 C 1017.88 -3.36897 0.0139015 0
M  V30 10481 O 1018.41 -3.90389 -0.946553 0
M  V30 10482 N 1016.61 -2.90543 -0.0577491 0
M  V30 10483 H 1016.16 -2.472 0.724574 0
M  V30 10484 H 1016.12 -3.00647 -0.919721 0
M  V30 10485 N 1019.89 -1.26353 -0.941956 0
M  V30 10486 C 1020.82 -1.10341 -2.05784 0
M  V30 10487 C 1021.8 -0.00881565 -1.70098 0
M  V30 10488 O 1022.99 -0.180699 -1.93357 0
M  V30 10489 C 1020.12 -0.734788 -3.39438 0
M  V30 10490 C 1019.07 -1.78103 -3.89183 0
M  V30 10491 C 1018.4 -1.26675 -5.19478 0
M  V30 10492 C 1019.7 -3.1824 -4.14151 0
M  V30 10493 H 1021.39 -2.03684 -2.19438 0
M  V30 10494 H 1018.94 -0.980698 -1.05443 0
M  V30 10495 H 1020.89 -0.609653 -4.16967 0
M  V30 10496 H 1019.61 0.234354 -3.25758 0
M  V30 10497 H 1018.27 -1.89482 -3.13835 0
M  V30 10498 H 1017.92 -0.287472 -5.02178 0
M  V30 10499 H 1017.62 -1.96612 -5.53731 0
M  V30 10500 H 1019.14 -1.15427 -5.99591 0
M  V30 10501 H 1020.56 -3.09942 -4.82296 0
M  V30 10502 H 1018.95 -3.8576 -4.59684 0
M  V30 10503 H 1020.02 -3.64354 -3.19959 0
M  V30 10504 N 1021.37 1.14642 -1.08144 0
M  V30 10505 C 1022.62 1.8525 -0.807885 0
M  V30 10506 C 1022.94 1.83194 0.668213 0
M  V30 10507 O 1022.21 1.27848 1.48431 0
M  V30 10508 H 1020.79 0.685909 -0.295868 0
M  V30 10509 H 1023.45 1.38935 -1.36686 0
M  V30 10510 H 1022.54 2.90155 -1.14964 0
M  V30 10511 N 1022.85 0.866709 1.31628 0
M  V30 10512 C 1023.78 0.335762 2.31073 0
M  V30 10513 C 1024.76 -0.571597 1.60209 0
M  V30 10514 O 1025.94 -0.489306 1.87935 0
M  V30 10515 C 1023.07 -0.466416 3.44154 0
M  V30 10516 C 1022.03 0.347561 4.26586 0
M  V30 10517 C 1021.35 -0.5801 5.31544 0
M  V30 10518 C 1022.65 1.57986 4.97833 0
M  V30 10519 H 1024.35 1.16673 2.75731 0
M  V30 10520 H 1021.89 0.56248 1.3256 0
M  V30 10521 H 1023.84 -0.84836 4.12772 0
M  V30 10522 H 1022.57 -1.33086 2.98254 0
M  V30 10523 H 1021.23 0.71141 3.59631 0
M  V30 10524 H 1020.88 -1.44174 4.81895 0
M  V30 10525 H 1020.58 -0.0393965 5.87587 0
M  V30 10526 H 1022.1 -0.958958 6.03023 0
M  V30 10527 H 1023.51 1.26954 5.59067 0
M  V30 10528 H 1021.91 2.05939 5.63657 0
M  V30 10529 H 1022.98 2.3345 4.25005 0
M  V30 10530 N 1024.32 -1.44642 0.625825 0
M  V30 10531 C 1025.55 -2.06971 0.133373 0
M  V30 10532 C 1025.97 -1.46421 -1.18078 0
M  V30 10533 O 1025.33 -0.563676 -1.72315 0
M  V30 10534 C 1025.38 -3.6059 0.0265097 0
M  V30 10535 O 1024.48 -3.99615 -1.01889 0
M  V30 10536 H 1023.82 -0.658873 0.0823568 0
M  V30 10537 H 1026.35 -1.85601 0.861002 0
M  V30 10538 H 1026.36 -4.07663 -0.1658 0
M  V30 10539 H 1025.04 -4.04043 0.985986 0
M  V30 10540 H 1023.62 -3.64183 -0.801577 0
M  V30 10541 N 1025.8 -0.366053 -1.5329 0
M  V30 10542 C 1026.75 0.495319 -2.27265 0
M  V30 10543 C 1027.74 1.08298 -1.30261 0
M  V30 10544 O 1028.95 1.02613 -1.47887 0
M  V30 10545 H 1025.32 0.178454 -0.730519 0
M  V30 10546 H 1027.3 -0.150354 -2.98021 0
M  V30 10547 C 1026.04 1.62283 -3.07505 0
M  V30 10548 H 1025.37 1.17993 -3.81992 0
M  V30 10549 H 1026.81 2.20024 -3.62444 0
M  V30 10550 C 1025.27 2.56542 -2.18375 0
M  V30 10551 O 1025.8 3.59371 -1.79486 0
M  V30 10552 N 1024 2.25742 -1.82999 0
M  V30 10553 H 1023.55 1.42159 -2.14822 0
M  V30 10554 H 1023.51 2.89064 -1.2365 0
M  V30 10555 N 1027.28 1.57312 -0.0952337 0
M  V30 10556 C 1028.24 2.12889 0.849161 0
M  V30 10557 C 1029.24 1.05819 1.21075 0
M  V30 10558 O 1030.43 1.31704 1.14016 0
M  V30 10559 C 1027.56 2.6496 2.14498 0
M  V30 10560 H 1028.76 2.97651 0.366566 0
M  V30 10561 H 1026.31 1.55542 0.153762 0
M  V30 10562 H 1027.05 1.83718 2.67242 0
M  V30 10563 H 1026.83 3.43244 1.89542 0
M  V30 10564 H 1028.32 3.07952 2.82056 0
M  V30 10565 N 1028.76 -0.17846 1.56586 0
M  V30 10566 C 1029.7 -1.22104 1.95855 0
M  V30 10567 C 1030.67 -1.44366 0.821447 0
M  V30 10568 O 1031.86 -1.57224 1.08098 0
M  V30 10569 C 1029 -2.55701 2.31757 0
M  V30 10570 C 1028.11 -2.40879 3.5861 0
M  V30 10571 C 1027.25 -3.67293 3.83757 0
M  V30 10572 C 1026.29 -3.47373 5.03982 0
M  V30 10573 N 1025.42 -4.65839 5.25298 0
M  V30 10574 H 1030.26 -0.879168 2.84736 0
M  V30 10575 H 1027.8 -0.422721 1.40895 0
M  V30 10576 H 1029.76 -3.33556 2.50592 0
M  V30 10577 H 1028.39 -2.87898 1.45995 0
M  V30 10578 H 1027.44 -1.54236 3.47729 0
M  V30 10579 H 1028.75 -2.22102 4.46623 0
M  V30 10580 H 1027.91 -4.53584 4.02922 0
M  V30 10581 H 1026.65 -3.89041 2.94107 0
M  V30 10582 H 1025.65 -2.59467 4.84723 0
M  V30 10583 H 1026.88 -3.27055 5.95157 0
M  V30 10584 H 1024.82 -4.8782 4.38598 0
M  V30 10585 H 1024.74 -4.4995 6.0752 0
M  V30 10586 H 1026.01 -5.53435 5.48936 0
M  V30 10587 N 1030.24 -1.51135 -0.446768 0
M  V30 10588 C 1031.17 -1.74709 -1.54916 0
M  V30 10589 C 1032.15 -0.596628 -1.59293 0
M  V30 10590 O 1033.33 -0.838356 -1.75172 0
M  V30 10591 C 1030.46 -1.86353 -2.9307 0
M  V30 10592 C 1029.42 -3.01725 -3.03556 0
M  V30 10593 C 1028.74 -2.9854 -4.43597 0
M  V30 10594 C 1030.04 -4.41848 -2.7851 0
M  V30 10595 H 1031.74 -2.67014 -1.3544 0
M  V30 10596 H 1029.28 -1.28489 -0.650131 0
M  V30 10597 H 1031.23 -2.01428 -3.70141 0
M  V30 10598 H 1029.96 -0.906887 -3.13756 0
M  V30 10599 H 1028.62 -2.86339 -2.28922 0
M  V30 10600 H 1028.27 -2.00673 -4.61237 0
M  V30 10601 H 1027.97 -3.76008 -4.51544 0
M  V30 10602 H 1029.49 -3.15696 -5.22655 0
M  V30 10603 H 1030.9 -4.57633 -3.45319 0
M  V30 10604 H 1029.3 -5.2095 -2.97877 0
M  V30 10605 H 1030.37 -4.52536 -1.74182 0
M  V30 10606 N 1031.71 0.701592 -1.41122 0
M  V30 10607 C 1032.94 1.49553 -1.43696 0
M  V30 10608 C 1033.36 1.88053 -0.0421865 0
M  V30 10609 O 1032.72 1.54223 0.953144 0
M  V30 10610 C 1032.77 2.73834 -2.34622 0
M  V30 10611 O 1031.87 3.71088 -1.7991 0
M  V30 10612 H 1031.21 0.450352 -0.487933 0
M  V30 10613 H 1033.74 0.862886 -1.85514 0
M  V30 10614 H 1033.75 3.22209 -2.5029 0
M  V30 10615 H 1032.43 2.45149 -3.35969 0
M  V30 10616 H 1031.01 3.29994 -1.73661 0
M  V30 10617 N 1033.19 1.2685 0.935242 0
M  V30 10618 C 1034.42 1.15371 1.71386 0
M  V30 10619 C 1034.83 -0.293048 1.86917 0
M  V30 10620 O 1034.17 -1.212 1.38044 0
M  V30 10621 C 1034.23 1.75652 3.13666 0
M  V30 10622 C 1033.9 3.24788 3.215 0
M  V30 10623 C 1034.9 4.21525 3.04323 0
M  V30 10624 C 1032.58 3.65359 3.447 0
M  V30 10625 C 1034.57 5.56812 3.10224 0
M  V30 10626 C 1032.26 5.00778 3.50235 0
M  V30 10627 C 1033.26 5.96314 3.33014 0
M  V30 10628 O 1032.95 7.29266 3.38269 0
M  V30 10629 H 1032.68 0.40234 0.54323 0
M  V30 10630 H 1035.23 1.68083 1.18056 0
M  V30 10631 H 1033.46 1.17408 3.68446 0
M  V30 10632 H 1035.15 1.58994 3.73465 0
M  V30 10633 H 1035.92 3.91519 2.86249 0
M  V30 10634 H 1031.8 2.91479 3.57157 0
M  V30 10635 H 1035.34 6.3136 2.967 0
M  V30 10636 H 1031.24 5.30444 3.67831 0
M  V30 10637 H 1032.01 7.37616 3.54774 0
M  V30 10638 N 1034.67 -1.14067 1.0875 0
M  V30 10639 C 1035.9 -1.88767 0.839682 0
M  V30 10640 C 1036.31 -1.79024 -0.612119 0
M  V30 10641 O 1035.65 -1.14986 -1.43262 0
M  V30 10642 C 1035.71 -3.39333 1.18716 0
M  V30 10643 C 1035.38 -3.72858 2.64245 0
M  V30 10644 C 1036.37 -3.72683 3.62496 0
M  V30 10645 C 1034.06 -4.0273 3.0019 0
M  V30 10646 C 1036.05 -4.01909 4.9472 0
M  V30 10647 C 1033.74 -4.31618 4.32607 0
M  V30 10648 C 1034.74 -4.31192 5.29682 0
M  V30 10649 O 1034.43 -4.59377 6.59718 0
M  V30 10650 H 1034.16 -0.604665 0.302253 0
M  V30 10651 H 1036.71 -1.45364 1.45115 0
M  V30 10652 H 1034.94 -3.83205 0.518707 0
M  V30 10653 H 1036.63 -3.95346 0.919599 0
M  V30 10654 H 1037.4 -3.49688 3.3607 0
M  V30 10655 H 1033.28 -4.02213 2.25268 0
M  V30 10656 H 1036.82 -4.01491 5.70483 0
M  V30 10657 H 1032.72 -4.54083 4.58779 0
M  V30 10658 H 1033.49 -4.77078 6.65086 0
M  V30 10659 N 1036.15 -0.873678 -1.31166 0
M  V30 10660 C 1037.43 -0.40698 -1.91319 0
M  V30 10661 C 1037.81 1.1113 -1.79481 0
M  V30 10662 O 1037.15 1.94155 -1.20483 0
M  V30 10663 C 1037.36 -0.892484 -3.37396 0
M  V30 10664 C 1038.71 -0.920795 -4.14496 0
M  V30 10665 O 1039.74 -0.838386 -3.46193 0
M  V30 10666 O 1038.59 -1.04069 -5.365 0
M  V30 10667 H 1035.69 -0.122439 -0.817886 0
M  V30 10668 H 1038.23 -0.961835 -1.3981 0
M  V30 10669 H 1037.01 -1.93613 -3.40044 0
M  V30 10670 H 1036.63 -0.31615 -3.96341 0
M  V30 10671 N 1037.63 1.44308 -0.633487 0
M  V30 10672 C 1038.87 2.01624 -0.138643 0
M  V30 10673 C 1039.2 1.50101 1.24477 0
M  V30 10674 O 1038.47 0.705575 1.82752 0
M  V30 10675 H 1037.05 0.745439 -0.0482636 0
M  V30 10676 H 1039.71 1.76777 -0.820719 0
M  V30 10677 H 1038.8 3.11913 -0.108136 0
M  V30 10678 N 1039.1 0.374177 1.53094 0
M  V30 10679 C 1040.04 -0.511995 2.22382 0
M  V30 10680 C 1041.02 -1.07617 1.2189 0
M  V30 10681 O 1042.2 -1.13068 1.50824 0
M  V30 10682 C 1039.33 -1.70724 2.92525 0
M  V30 10683 C 1038.37 -1.26972 4.07161 0
M  V30 10684 S 1039.21 -0.263835 5.3485 0
M  V30 10685 C 1040.36 -1.46521 6.08508 0
M  V30 10686 H 1040.59 0.0764311 2.97202 0
M  V30 10687 H 1038.13 0.158307 1.53586 0
M  V30 10688 H 1040.09 -2.39279 3.3355 0
M  V30 10689 H 1038.75 -2.26693 2.17414 0
M  V30 10690 H 1037.94 -2.16172 4.55286 0
M  V30 10691 H 1037.54 -0.663273 3.68072 0
M  V30 10692 H 1039.83 -2.39483 6.33762 0
M  V30 10693 H 1040.78 -1.02517 7.0064 0
M  V30 10694 H 1041.18 -1.67516 5.39072 0
M  V30 10695 N 1040.58 -1.57259 0.103575 0
M  V30 10696 C 1041.83 -1.93832 -0.55786 0
M  V30 10697 C 1042.14 -0.988087 -1.68808 0
M  V30 10698 O 1043.35 -1.24786 -2.41124 0
M  V30 10699 C 1041.81 -3.44433 -1.04373 0
M  V30 10700 C 1041.41 -4.47963 0.0571971 0
M  V30 10701 C 1043.16 -3.89953 -1.67742 0
M  V30 10702 C 1041.07 -5.89727 -0.444505 0
M  V30 10703 H 1040 -0.723536 -0.212161 0
M  V30 10704 H 1042.65 -1.82606 0.180944 0
M  V30 10705 H 1041.03 -3.50841 -1.83648 0
M  V30 10706 H 1042.2 -4.53209 0.83298 0
M  V30 10707 H 1040.52 -4.12104 0.596588 0
M  V30 10708 H 1043.11 -4.93272 -2.06365 0
M  V30 10709 H 1043.46 -3.2907 -2.54988 0
M  V30 10710 H 1043.99 -3.86281 -0.950342 0
M  V30 10711 H 1040.73 -6.5433 0.391543 0
M  V30 10712 H 1040.25 -5.87935 -1.18711 0
M  V30 10713 H 1041.93 -6.40558 -0.910739 0
M  V30 10714 N 1042.06 0.170153 -1.56679 0
M  V30 10715 C 1042.99 1.23525 -1.93066 0
M  V30 10716 C 1044.01 1.40414 -0.823879 0
M  V30 10717 O 1045.19 1.40396 -1.10232 0
M  V30 10718 C 1042.29 2.60376 -2.16928 0
M  V30 10719 C 1041.47 2.6477 -3.4816 0
M  V30 10720 C 1040.53 3.82993 -3.60837 0
M  V30 10721 O 1039.55 3.68937 -4.33444 0
M  V30 10722 N 1040.75 4.99498 -2.95773 0
M  V30 10723 H 1043.52 0.926172 -2.8503 0
M  V30 10724 H 1041.08 0.359909 -1.57849 0
M  V30 10725 H 1043.07 3.37934 -2.22672 0
M  V30 10726 H 1041.64 2.83669 -1.31342 0
M  V30 10727 H 1040.86 1.73298 -3.54064 0
M  V30 10728 H 1042.15 2.64717 -4.34514 0
M  V30 10729 H 1041.55 5.13819 -2.36657 0
M  V30 10730 H 1040.11 5.74914 -3.07111 0
M  V30 10731 N 1043.54 1.5137 0.438746 0
M  V30 10732 C 1044.47 1.75528 1.53987 0
M  V30 10733 C 1045.45 0.605067 1.58975 0
M  V30 10734 O 1046.63 0.847634 1.74725 0
M  V30 10735 C 1043.76 1.87904 2.92078 0
M  V30 10736 C 1042.72 3.0333 3.01951 0
M  V30 10737 C 1042.04 3.00888 4.42007 0
M  V30 10738 C 1043.34 4.43319 2.76163 0
M  V30 10739 H 1045.04 2.67728 1.34022 0
M  V30 10740 H 1042.58 1.28831 0.643308 0
M  V30 10741 H 1044.54 2.03388 3.69068 0
M  V30 10742 H 1043.26 0.923514 3.13271 0
M  V30 10743 H 1041.92 2.87549 2.274 0
M  V30 10744 H 1041.57 2.03116 4.60166 0
M  V30 10745 H 1041.27 3.78397 4.49544 0
M  V30 10746 H 1042.79 3.18464 5.20973 0
M  V30 10747 H 1044.21 4.59458 3.42887 0
M  V30 10748 H 1042.6 5.22523 2.9511 0
M  V30 10749 H 1043.67 4.53453 1.71779 0
M  V30 10750 N 1045.02 -0.694098 1.41492 0
M  V30 10751 C 1045.96 -1.82932 1.43662 0
M  V30 10752 C 1046.96 -1.66455 0.31449 0
M  V30 10753 O 1048.16 -1.73298 0.486589 0
M  V30 10754 H 1044.54 -0.602847 0.449533 0
M  V30 10755 H 1046.51 -1.78218 2.39334 0
M  V30 10756 C 1045.26 -3.20962 1.33712 0
M  V30 10757 H 1044.58 -3.34257 2.19345 0
M  V30 10758 H 1046.02 -4.00467 1.39291 0
M  V30 10759 C 1044.48 -3.36863 0.0496332 0
M  V30 10760 O 1045.01 -3.91371 -0.905093 0
M  V30 10761 N 1043.22 -2.90588 -0.0269299 0
M  V30 10762 H 1042.76 -2.46417 0.750752 0
M  V30 10763 H 1042.72 -3.01605 -0.887781 0
M  V30 10764 N 1046.49 -1.27344 -0.928501 0
M  V30 10765 C 1047.72 -1.16278 -1.70772 0
M  V30 10766 C 1048.13 0.283131 -1.8707 0
M  V30 10767 O 1047.48 1.20466 -1.38685 0
M  V30 10768 C 1047.54 -1.77313 -3.1273 0
M  V30 10769 C 1047.2 -3.26488 -3.19773 0
M  V30 10770 C 1048.2 -4.23133 -3.02083 0
M  V30 10771 C 1045.88 -3.67182 -3.42757 0
M  V30 10772 C 1047.88 -5.5845 -3.07267 0
M  V30 10773 C 1045.56 -5.02629 -3.47574 0
M  V30 10774 C 1046.56 -5.98072 -3.29847 0
M  V30 10775 O 1046.25 -7.3105 -3.34397 0
M  V30 10776 H 1045.98 -0.405215 -0.541089 0
M  V30 10777 H 1048.54 -1.68707 -1.17163 0
M  V30 10778 H 1046.77 -1.19361 -3.67818 0
M  V30 10779 H 1048.46 -1.60972 -3.72616 0
M  V30 10780 H 1049.22 -3.93031 -2.84168 0
M  V30 10781 H 1045.1 -2.93369 -3.55606 0
M  V30 10782 H 1048.64 -6.32924 -2.93348 0
M  V30 10783 H 1044.54 -5.32387 -3.65013 0
M  V30 10784 H 1045.31 -7.39488 -3.50857 0
M  V30 10785 N 1047.97 1.13488 -1.09353 0
M  V30 10786 C 1049.39 1.36739 -0.823086 0
M  V30 10787 C 1049.59 1.93476 0.562963 0
M  V30 10788 O 1048.64 2.15374 1.31796 0
M  V30 10789 C 1049.96 2.31943 -1.91371 0
M  V30 10790 C 1051.51 2.4556 -1.94085 0
M  V30 10791 C 1051.98 3.44072 -3.02289 0
M  V30 10792 N 1053.47 3.51622 -3.01524 0
M  V30 10793 C 1054.21 4.27724 -3.8189 0
M  V30 10794 N 1053.7 5.06987 -4.72161 0
M  V30 10795 N 1055.5 4.23018 -3.70152 0
M  V30 10796 H 1047.65 0.75012 -1.98713 0
M  V30 10797 H 1049.91 0.392564 -0.862901 0
M  V30 10798 H 1049.62 1.97408 -2.91072 0
M  V30 10799 H 1049.49 3.31952 -1.79131 0
M  V30 10800 H 1051.88 2.79382 -0.950234 0
M  V30 10801 H 1051.96 1.45479 -2.10403 0
M  V30 10802 H 1051.6 3.10981 -4.01564 0
M  V30 10803 H 1051.53 4.43956 -2.83214 0
M  V30 10804 H 1054.02 2.95066 -2.36103 0
M  V30 10805 H 1054.34 5.6236 -5.30067 0
M  V30 10806 H 1052.68 5.06222 -4.76197 0
M  V30 10807 H 1055.87 3.60171 -2.98989 0
M  V30 10808 H 1056.04 4.82075 -4.33022 0
M  V30 10809 N 1049.45 0.880621 1.30701 0
M  V30 10810 C 1050.7 0.495894 1.95922 0
M  V30 10811 C 1051.02 -0.957214 1.69889 0
M  V30 10812 O 1050.29 -1.67245 1.0201 0
M  V30 10813 H 1048.87 0.180394 0.724891 0
M  V30 10814 H 1051.53 1.12274 1.59313 0
M  V30 10815 H 1050.63 0.662508 3.04987 0
M  V30 10816 N 1050.93 -1.4397 0.641131 0
M  V30 10817 C 1052.18 -2.01548 0.149333 0
M  V30 10818 C 1052.5 -1.50759 -1.23679 0
M  V30 10819 O 1051.77 -0.715257 -1.82376 0
M  V30 10820 H 1050.35 -0.745173 0.0522161 0
M  V30 10821 H 1053.01 -1.7634 0.830082 0
M  V30 10822 H 1052.11 -3.11851 0.124676 0
M  V30 10823 N 1052.41 -0.382291 -1.52893 0
M  V30 10824 C 1053.64 0.202408 -2.05908 0
M  V30 10825 C 1054.05 1.4109 -1.25456 0
M  V30 10826 O 1053.41 1.80027 -0.29942 0
M  V30 10827 C 1053.46 0.579452 -3.56826 0
M  V30 10828 O 1053.18 -0.58102 -4.3423 0
M  V30 10829 C 1054.68 1.22076 -4.2616 0
M  V30 10830 H 1051.9 0.0321859 -0.670228 0
M  V30 10831 H 1054.44 -0.545494 -1.9709 0
M  V30 10832 H 1052.6 1.27726 -3.65739 0
M  V30 10833 H 1053.01 -0.272693 -5.23791 0
M  V30 10834 H 1054.49 1.435 -5.33021 0
M  V30 10835 H 1054.96 2.18605 -3.80931 0
M  V30 10836 H 1055.57 0.563922 -4.21545 0
M  V30 10837 N 1053.89 1.57202 -0.111913 0
M  V30 10838 C 1055.3 1.82039 0.414591 0
M  V30 10839 C 1055.65 1.02863 1.67074 0
M  V30 10840 O 1054.77 0.263068 2.14795 0
M  V30 10841 C 1055.37 3.3019 0.758953 0
M  V30 10842 C 1053.93 3.55732 1.23012 0
M  V30 10843 C 1053.07 2.76301 0.235226 0
M  V30 10844 H 1056.02 1.55078 -0.337142 0
M  V30 10845 H 1056.05 3.44431 1.61701 0
M  V30 10846 H 1055.56 3.87788 -0.155473 0
M  V30 10847 H 1053.66 3.03483 2.16169 0
M  V30 10848 H 1053.77 4.64333 1.18034 0
M  V30 10849 H 1052.14 2.44287 0.720822 0
M  V30 10850 H 1052.92 3.36655 -0.672173 0
M  V30 10851 N 1055.36 -0.161842 1.56767 0
M  V30 10852 C 1056.59 -0.890953 1.86402 0
M  V30 10853 C 1057 -1.75918 0.696373 0
M  V30 10854 O 1056.34 -1.80461 -0.343463 0
M  V30 10855 C 1056.41 -1.81079 3.10565 0
M  V30 10856 C 1056.07 -1.12121 4.43032 0
M  V30 10857 C 1057.07 -0.482152 5.17659 0
M  V30 10858 C 1054.75 -1.11514 4.89765 0
M  V30 10859 C 1056.75 0.153772 6.37214 0
M  V30 10860 C 1054.43 -0.4754 6.09248 0
M  V30 10861 C 1055.43 0.157944 6.82817 0
M  V30 10862 O 1055.12 0.787579 8.00033 0
M  V30 10863 H 1054.85 -0.26379 0.622407 0
M  V30 10864 H 1057.41 -0.163884 2.04745 0
M  V30 10865 H 1055.64 -2.57842 2.88192 0
M  V30 10866 H 1057.32 -2.41056 3.26568 0
M  V30 10867 H 1058.09 -0.478752 4.82631 0
M  V30 10868 H 1053.97 -1.59752 4.32435 0
M  V30 10869 H 1057.51 0.648716 6.94577 0
M  V30 10870 H 1053.41 -0.476416 6.43739 0
M  V30 10871 H 1054.18 0.687769 8.15605 0
M  V30 10872 N 1056.84 -1.516 -0.430713 0
M  V30 10873 C 1057.79 -1.73975 -1.54387 0
M  V30 10874 C 1058.78 -0.606222 -1.58181 0
M  V30 10875 O 1059.99 -0.787764 -1.61846 0
M  V30 10876 H 1056.36 -0.549811 -0.513041 0
M  V30 10877 H 1058.34 -2.67274 -1.32692 0
M  V30 10878 C 1057.08 -1.88794 -2.9198 0
M  V30 10879 H 1056.41 -2.75425 -2.89795 0
M  V30 10880 H 1057.85 -2.08458 -3.69217 0
M  V30 10881 C 1056.31 -0.649427 -3.30581 0
M  V30 10882 O 1056.84 0.192823 -4.01237 0
M  V30 10883 N 1055.04 -0.491586 -2.86412 0
M  V30 10884 H 1054.59 -1.17806 -2.29084 0
M  V30 10885 H 1054.55 0.33583 -3.12601 0
M  V30 10886 N 1058.32 0.686584 -1.41858 0
M  V30 10887 C 1059.27 1.82167 -1.4463 0
M  V30 10888 C 1060.26 1.66286 -0.323313 0
M  V30 10889 O 1061.47 1.73038 -0.495773 0
M  V30 10890 H 1057.84 0.600454 -0.452724 0
M  V30 10891 H 1059.81 1.76947 -2.40276 0
M  V30 10892 C 1058.56 3.20248 -1.35412 0
M  V30 10893 H 1057.89 3.33089 -2.21115 0
M  V30 10894 H 1059.33 3.99723 -1.41413 0
M  V30 10895 C 1057.78 3.36832 -0.0674972 0
M  V30 10896 O 1058.31 3.91845 0.884325 0
M  V30 10897 N 1056.52 2.90598 0.011519 0
M  V30 10898 H 1056.07 2.46016 -0.76381 0
M  V30 10899 H 1056.03 3.02072 0.871774 0
M  V30 10900 N 1059.8 1.27835 0.921735 0
M  V30 10901 C 1060.71 1.12904 2.05645 0
M  V30 10902 C 1061.72 0.0575704 1.73905 0
M  V30 10903 O 1062.9 0.265261 1.99645 0
M  V30 10904 C 1059.96 0.783957 3.3772 0
M  V30 10905 C 1059.03 1.93694 3.8312 0
M  V30 10906 C 1058.26 1.60823 5.08893 0
M  V30 10907 O 1058.48 0.518873 5.68035 0
M  V30 10908 O 1057.42 2.44932 5.49811 0
M  V30 10909 H 1061.24 2.08143 2.21157 0
M  V30 10910 H 1058.83 1.07078 1.04185 0
M  V30 10911 H 1060.71 0.605107 4.17033 0
M  V30 10912 H 1059.38 -0.138849 3.23402 0
M  V30 10913 H 1058.29 2.17089 3.04669 0
M  V30 10914 H 1059.62 2.84016 4.0199 0
M  V30 10915 N 1061.28 -1.12907 1.09954 0
M  V30 10916 C 1062.69 -1.363 0.830326 0
M  V30 10917 C 1062.89 -1.93772 -0.552694 0
M  V30 10918 O 1061.95 -2.1607 -1.30652 0
M  V30 10919 C 1063.26 -2.30925 1.92598 0
M  V30 10920 C 1064.81 -2.44528 1.95385 0
M  V30 10921 C 1065.28 -3.42464 3.0411 0
M  V30 10922 N 1066.77 -3.50018 3.03384 0
M  V30 10923 C 1067.51 -4.25693 3.84152 0
M  V30 10924 N 1067.01 -5.04476 4.74843 0
M  V30 10925 N 1068.8 -4.21049 3.7239 0
M  V30 10926 H 1060.95 -0.739571 1.99108 0
M  V30 10927 H 1063.21 -0.387983 0.86497 0
M  V30 10928 H 1062.92 -1.95861 2.92115 0
M  V30 10929 H 1062.79 -3.30997 1.80889 0
M  V30 10930 H 1065.18 -2.78875 0.965037 0
M  V30 10931 H 1065.26 -1.44361 2.11172 0
M  V30 10932 H 1064.9 -3.08847 4.03207 0
M  V30 10933 H 1064.83 -4.42448 2.85565 0
M  V30 10934 H 1067.33 -2.93809 2.37665 0
M  V30 10935 H 1067.64 -5.59541 5.33042 0
M  V30 10936 H 1065.98 -5.0369 4.78875 0
M  V30 10937 H 1069.17 -3.5858 3.00895 0
M  V30 10938 H 1069.35 -4.79771 4.35572 0
M  V30 10939 N 1062.75 -0.88754 -1.30232 0
M  V30 10940 C 1063.7 -0.327649 -2.25633 0
M  V30 10941 C 1064.69 0.545362 -1.51376 0
M  V30 10942 O 1065.88 0.389366 -1.72664 0
M  V30 10943 C 1063.01 0.454546 -3.40277 0
M  V30 10944 C 1062.09 -0.432698 -4.21887 0
M  V30 10945 N 1062.49 -1.53434 -4.81966 0
M  V30 10946 C 1060.78 -0.228275 -4.45415 0
M  V30 10947 C 1061.48 -2.08292 -5.43129 0
M  V30 10948 N 1060.46 -1.37754 -5.25856 0
M  V30 10949 H 1064.26 -1.16937 -2.69635 0
M  V30 10950 H 1061.78 -0.737232 -1.44702 0
M  V30 10951 H 1063.77 0.87231 -4.07672 0
M  V30 10952 H 1062.43 1.29367 -2.97816 0
M  V30 10953 H 1063.44 -1.91717 -4.81108 0
M  V30 10954 H 1060.12 0.573475 -4.13543 0
M  V30 10955 H 1061.51 -3.00818 -6.00798 0
M  V30 10956 N 1064.23 1.43628 -0.648757 0
M  V30 10957 C 1065.46 2.06217 -0.167945 0
M  V30 10958 C 1065.88 1.486 1.16462 0
M  V30 10959 O 1065.23 0.61559 1.71804 0
M  V30 10960 C 1065.28 3.6144 -0.0660114 0
M  V30 10961 O 1065 4.16914 -1.34589 0
M  V30 10962 C 1066.51 4.41097 0.441408 0
M  V30 10963 H 1063.73 0.665228 -0.0878237 0
M  V30 10964 H 1066.27 1.84207 -0.888144 0
M  V30 10965 H 1064.42 3.82651 0.604722 0
M  V30 10966 H 1064.84 5.10537 -1.20218 0
M  V30 10967 H 1066.31 5.50066 0.461697 0
M  V30 10968 H 1066.79 4.13803 1.47187 0
M  V30 10969 H 1067.4 4.24845 -0.19668 0
M  V30 10970 N 1065.71 0.390394 1.52688 0
M  V30 10971 C 1067.12 -0.083394 1.86514 0
M  V30 10972 C 1067.47 -1.46057 1.31003 0
M  V30 10973 O 1066.6 -2.06663 0.641809 0
M  V30 10974 C 1067.19 -0.158102 3.38431 0
M  V30 10975 C 1065.75 -0.576186 3.71964 0
M  V30 10976 C 1064.9 0.261156 2.76068 0
M  V30 10977 H 1067.85 0.608226 1.46582 0
M  V30 10978 H 1067.87 -0.977023 3.67742 0
M  V30 10979 H 1067.38 0.844365 3.78803 0
M  V30 10980 H 1065.48 -1.58598 3.37161 0
M  V30 10981 H 1065.6 -0.333577 4.77937 0
M  V30 10982 H 1063.96 -0.273737 2.53225 0
M  V30 10983 H 1064.74 1.26162 3.19277 0
M  V30 10984 N 1067.19 -1.57141 0.120249 0
M  V30 10985 C 1068.6 -1.5784 -0.236335 0
M  V30 10986 C 1068.8 -1.13304 -1.66626 0
M  V30 10987 O 1067.86 -0.821004 -2.3878 0
M  V30 10988 C 1069.17 -3.007 -0.00188211 0
M  V30 10989 C 1070.72 -3.12927 -0.0676838 0
M  V30 10990 C 1071.2 -4.57789 0.139092 0
M  V30 10991 N 1072.69 -4.63122 0.085104 0
M  V30 10992 C 1073.42 -5.72978 0.219983 0
M  V30 10993 N 1072.92 -6.91579 0.411102 0
M  V30 10994 N 1074.71 -5.61874 0.159469 0
M  V30 10995 H 1066.86 -1.84391 1.05422 0
M  V30 10996 H 1069.13 -0.852228 0.415225 0
M  V30 10997 H 1068.83 -3.37575 0.986718 0
M  V30 10998 H 1068.71 -3.70005 -0.733203 0
M  V30 10999 H 1071.09 -2.75909 -1.04681 0
M  V30 11000 H 1071.17 -2.46162 0.695538 0
M  V30 11001 H 1070.82 -4.95506 1.1152 0
M  V30 11002 H 1070.75 -5.22646 -0.644131 0
M  V30 11003 H 1073.24 -3.77854 -0.0590479 0
M  V30 11004 H 1073.55 -7.71149 0.504851 0
M  V30 11005 H 1071.9 -6.9356 0.447091 0
M  V30 11006 H 1075.09 -4.68099 0.0111131 0
M  V30 11007 H 1075.26 -6.47445 0.268028 0
M  V30 11008 N 1068.67 0.153526 -1.5685 0
M  V30 11009 C 1069.63 1.17362 -1.96873 0
M  V30 11010 C 1070.63 1.36219 -0.854456 0
M  V30 11011 O 1071.82 1.33322 -1.1212 0
M  V30 11012 C 1068.95 2.53523 -2.27901 0
M  V30 11013 H 1070.14 0.830432 -2.88173 0
M  V30 11014 H 1067.7 0.396633 -1.51184 0
M  V30 11015 H 1068.43 2.92824 -1.39371 0
M  V30 11016 H 1068.22 2.41198 -3.09137 0
M  V30 11017 H 1069.71 3.27006 -2.59725 0
M  V30 11018 N 1070.14 1.51827 0.422667 0
M  V30 11019 C 1071.37 1.69049 1.1929 0
M  V30 11020 C 1071.79 0.394095 1.84641 0
M  V30 11021 O 1071.14 -0.628731 1.71328 0
M  V30 11022 C 1071.2 2.81657 2.26609 0
M  V30 11023 O 1070.92 4.06275 1.63929 0
M  V30 11024 C 1072.42 3.10274 3.16615 0
M  V30 11025 H 1069.64 0.566894 0.358988 0
M  V30 11026 H 1072.18 1.98318 0.499029 0
M  V30 11027 H 1070.34 2.54945 2.91688 0
M  V30 11028 H 1070.75 4.68924 2.3497 0
M  V30 11029 H 1072.22 3.92613 3.88019 0
M  V30 11030 H 1072.7 2.23273 3.78214 0
M  V30 11031 H 1073.31 3.387 2.57221 0
M  V30 11032 N 1071.62 -0.679052 1.4222 0
M  V30 11033 C 1072.55 -1.80481 1.48152 0
M  V30 11034 C 1073.53 -1.66698 0.338502 0
M  V30 11035 O 1074.72 -1.86183 0.552228 0
M  V30 11036 C 1071.85 -3.18746 1.37908 0
M  V30 11037 C 1070.8 -3.47258 2.50192 0
M  V30 11038 C 1070.13 -4.85052 2.25008 0
M  V30 11039 C 1071.43 -3.44576 3.92511 0
M  V30 11040 H 1073.12 -1.75774 2.42371 0
M  V30 11041 H 1070.67 -0.844241 1.16656 0
M  V30 11042 H 1072.62 -3.97229 1.40666 0
M  V30 11043 H 1071.35 -3.24119 0.401806 0
M  V30 11044 H 1070 -2.71133 2.46744 0
M  V30 11045 H 1069.65 -4.8707 1.25584 0
M  V30 11046 H 1069.35 -5.05092 3.00259 0
M  V30 11047 H 1070.88 -5.65825 2.29508 0
M  V30 11048 H 1072.29 -4.13036 3.97585 0
M  V30 11049 H 1070.69 -3.76151 4.67579 0
M  V30 11050 H 1071.76 -2.4323 4.19484 0
M  V30 11051 N 1073.1 -1.28322 -0.914942 0
M  V30 11052 C 1074.35 -1.14785 -1.65853 0
M  V30 11053 C 1074.66 0.303135 -1.93237 0
M  V30 11054 O 1075.87 0.559606 -2.6567 0
M  V30 11055 C 1074.32 -2.00652 -2.98776 0
M  V30 11056 C 1073.93 -3.50483 -2.79044 0
M  V30 11057 C 1075.68 -1.95798 -3.76648 0
M  V30 11058 C 1073.58 -4.28505 -4.076 0
M  V30 11059 H 1072.51 -0.425987 -0.622135 0
M  V30 11060 H 1075.16 -1.52844 -1.01543 0
M  V30 11061 H 1073.55 -1.55447 -3.64214 0
M  V30 11062 H 1074.72 -4.03636 -2.22293 0
M  V30 11063 H 1073.04 -3.5685 -2.14586 0
M  V30 11064 H 1075.63 -2.51359 -4.71935 0
M  V30 11065 H 1075.98 -0.934455 -4.05677 0
M  V30 11066 H 1076.51 -2.38965 -3.18026 0
M  V30 11067 H 1073.25 -5.31433 -3.83744 0
M  V30 11068 H 1072.77 -3.80125 -4.63966 0
M  V30 11069 H 1074.45 -4.3836 -4.75867 0
M  V30 11070 N 1074.58 1.12322 -1.10551 0
M  V30 11071 C 1075.81 1.87679 -0.87087 0
M  V30 11072 C 1076.22 1.79711 0.578733 0
M  V30 11073 O 1075.58 1.17185 1.39907 0
M  V30 11074 C 1075.63 3.36846 -1.31213 0
M  V30 11075 O 1075.35 3.44626 -2.70489 0
M  V30 11076 C 1076.85 4.29138 -1.11156 0
M  V30 11077 H 1074.07 0.593788 -0.3125 0
M  V30 11078 H 1076.62 1.42116 -1.47048 0
M  V30 11079 H 1074.77 3.79948 -0.756169 0
M  V30 11080 H 1075.18 4.37441 -2.89389 0
M  V30 11081 H 1076.66 5.32082 -1.46944 0
M  V30 11082 H 1077.14 4.39171 -0.0502963 0
M  V30 11083 H 1077.74 3.91818 -1.65405 0
M  V30 11084 N 1076.06 0.894434 1.2976 0
M  V30 11085 C 1077.3 0.517669 1.95771 0
M  V30 11086 C 1077.63 -0.935028 1.70551 0
M  V30 11087 O 1076.89 -1.67722 1.00835 0
M  V30 11088 C 1077.19 0.750307 3.49435 0
M  V30 11089 C 1076.85 2.17955 3.94723 0
M  V30 11090 C 1075.51 2.57036 4.068 0
M  V30 11091 C 1077.87 3.11053 4.18205 0
M  V30 11092 C 1075.19 3.88406 4.39724 0
M  V30 11093 C 1077.55 4.41966 4.52602 0
M  V30 11094 C 1076.21 4.80927 4.62888 0
M  V30 11095 H 1075.48 0.189428 0.716378 0
M  V30 11096 H 1078.13 1.13209 1.54454 0
M  V30 11097 H 1076.43 0.0529242 3.91764 0
M  V30 11098 H 1078.13 0.438251 3.98598 0
M  V30 11099 H 1074.72 1.86622 3.85837 0
M  V30 11100 H 1078.9 2.82076 4.08347 0
M  V30 11101 H 1074.16 4.18321 4.4589 0
M  V30 11102 H 1078.33 5.14134 4.69722 0
M  V30 11103 H 1075.96 5.82759 4.88156 0
M  V30 11104 N 1077.53 -1.43282 0.656365 0
M  V30 11105 C 1078.46 -2.33492 -0.0196962 0
M  V30 11106 C 1079.45 -1.49647 -0.80868 0
M  V30 11107 O 1080.63 -1.78303 -0.769529 0
M  V30 11108 C 1077.76 -3.33052 -0.984574 0
M  V30 11109 C 1076.71 -4.26908 -0.305483 0
M  V30 11110 C 1076.04 -5.16531 -1.38202 0
M  V30 11111 C 1077.34 -5.16073 0.804081 0
M  V30 11112 H 1079.03 -2.90272 0.733661 0
M  V30 11113 H 1076.58 -1.39574 0.354259 0
M  V30 11114 H 1078.53 -3.9506 -1.46647 0
M  V30 11115 H 1077.26 -2.74535 -1.76913 0
M  V30 11116 H 1075.92 -3.66268 0.155995 0
M  V30 11117 H 1075.56 -4.54351 -2.1581 0
M  V30 11118 H 1075.26 -5.80148 -0.932878 0
M  V30 11119 H 1076.79 -5.81414 -1.86522 0
M  V30 11120 H 1078.2 -5.71873 0.404212 0
M  V30 11121 H 1076.6 -5.88427 1.17789 0
M  V30 11122 H 1077.67 -4.55574 1.66073 0
M  V30 11123 N 1079.01 -0.398486 -1.52479 0
M  V30 11124 C 1080.25 0.180412 -2.03602 0
M  V30 11125 C 1080.62 1.43276 -1.27812 0
M  V30 11126 O 1081.82 2.08941 -1.69107 0
M  V30 11127 C 1080.09 0.432744 -3.5477 0
M  V30 11128 S 1081.65 0.980612 -4.27703 0
M  V30 11129 H 1078.47 0.0499981 -0.70924 0
M  V30 11130 H 1081.07 -0.548952 -1.87635 0
M  V30 11131 H 1079.77 -0.48568 -4.07516 0
M  V30 11132 H 1079.3 1.19028 -3.74961 0
M  V30 11133 H 1081.32 2.26216 -4.41634 0
M  V30 11134 N 1080.49 1.57075 -0.12858 0
M  V30 11135 C 1081.77 1.87075 0.571162 0
M  V30 11136 C 1082.15 1.03141 1.84188 0
M  V30 11137 O 1081.5 0.113001 2.2822 0
M  V30 11138 C 1081.71 3.3838 0.854383 0
M  V30 11139 C 1083.05 4.07194 1.20326 0
M  V30 11140 O 1084.08 3.43454 0.944338 0
M  V30 11141 O 1082.94 5.19725 1.68963 0
M  V30 11142 H 1080.03 0.774764 0.289258 0
M  V30 11143 H 1082.58 1.68908 -0.163806 0
M  V30 11144 H 1081.35 3.91273 -0.0456925 0
M  V30 11145 H 1080.97 3.62012 1.64418 0
M  V30 11146 N 1081.97 -0.145205 1.5693 0
M  V30 11147 C 1083.39 -0.497905 1.51635 0
M  V30 11148 C 1083.59 -1.8328 0.837301 0
M  V30 11149 O 1082.64 -2.49172 0.408584 0
M  V30 11150 C 1083.95 -0.506557 2.96403 0
M  V30 11151 C 1085.5 -0.591947 3.07352 0
M  V30 11152 C 1085.98 -0.631244 4.53629 0
M  V30 11153 N 1087.47 -0.693417 4.5798 0
M  V30 11154 C 1088.2 -0.744836 5.68542 0
M  V30 11155 N 1087.7 -0.755492 6.88668 0
M  V30 11156 N 1089.49 -0.785854 5.5658 0
M  V30 11157 H 1081.64 0.729779 1.99469 0
M  V30 11158 H 1083.91 0.266295 0.90983 0
M  V30 11159 H 1083.61 0.406127 3.49347 0
M  V30 11160 H 1083.49 -1.34383 3.5245 0
M  V30 11161 H 1085.87 -1.49505 2.54425 0
M  V30 11162 H 1085.95 0.272507 2.54344 0
M  V30 11163 H 1085.6 0.26771 5.07194 0
M  V30 11164 H 1085.53 -1.51221 5.0442 0
M  V30 11165 H 1088.02 -0.692408 3.71503 0
M  V30 11166 H 1088.33 -0.796624 7.68683 0
M  V30 11167 H 1086.68 -0.723339 6.91226 0
M  V30 11168 H 1089.87 -0.774712 4.61645 0
M  V30 11169 H 1090.04 -0.822461 6.42759 0
M  V30 11170 N 1083.45 -1.52049 -0.414609 0
M  V30 11171 C 1084.72 -1.56397 -1.17471 0
M  V30 11172 C 1085.1 -0.34171 -2.08316 0
M  V30 11173 O 1084.45 0.6718 -2.18401 0
M  V30 11174 C 1084.66 -2.88983 -1.95678 0
M  V30 11175 C 1086.01 -3.41781 -2.51935 0
M  V30 11176 O 1087.03 -2.90686 -2.05865 0
M  V30 11177 O 1085.89 -4.30989 -3.36022 0
M  V30 11178 H 1082.99 -0.62974 -0.536056 0
M  V30 11179 H 1085.53 -1.64374 -0.421834 0
M  V30 11180 H 1084.31 -3.69392 -1.29094 0
M  V30 11181 H 1083.93 -2.84274 -2.77983 0
M  V30 11182 N 1084.93 0.6715 -1.42579 0
M  V30 11183 C 1085.89 1.76676 -1.46008 0
M  V30 11184 C 1086.89 1.57007 -0.347213 0
M  V30 11185 O 1088.08 1.63238 -0.608185 0
M  V30 11186 C 1085.21 3.15348 -1.29494 0
M  V30 11187 H 1086.4 1.75021 -2.43531 0
M  V30 11188 H 1083.96 0.881444 -1.29075 0
M  V30 11189 H 1084.69 3.22626 -0.32906 0
M  V30 11190 H 1084.48 3.31028 -2.10149 0
M  V30 11191 H 1085.97 3.95251 -1.34784 0
M  V30 11192 N 1086.4 1.28806 0.908124 0
M  V30 11193 C 1087.65 1.16058 1.65454 0
M  V30 11194 C 1087.97 -0.290057 1.92831 0
M  V30 11195 O 1087.24 -1.20001 1.54843 0
M  V30 11196 H 1085.82 0.426522 0.61326 0
M  V30 11197 H 1088.48 1.61614 1.08936 0
M  V30 11198 H 1087.58 1.70437 2.61453 0
M  V30 11199 N 1087.88 -1.11734 1.11145 0
M  V30 11200 C 1089.13 -1.83677 0.859684 0
M  V30 11201 C 1089.46 -1.84265 -0.613182 0
M  V30 11202 O 1088.74 -1.29351 -1.45254 0
M  V30 11203 C 1089.02 -3.31003 1.41805 0
M  V30 11204 C 1088.87 -3.38827 2.95831 0
M  V30 11205 C 1090.19 -4.26984 1.06645 0
M  V30 11206 H 1087.31 -0.666879 0.313754 0
M  V30 11207 H 1089.95 -1.31038 1.37583 0
M  V30 11208 H 1088.1 -3.75961 0.979054 0
M  V30 11209 H 1089.77 -3.02451 3.48312 0
M  V30 11210 H 1088.02 -2.79143 3.32056 0
M  V30 11211 H 1088.69 -4.42508 3.29986 0
M  V30 11212 H 1091.16 -3.9019 1.44537 0
M  V30 11213 H 1090.04 -5.2846 1.48394 0
M  V30 11214 H 1090.3 -4.42094 -0.0231866 0
M  V30 11215 N 1089.36 -0.901303 -1.29284 0
M  V30 11216 C 1090.61 -0.527 -1.95108 0
M  V30 11217 C 1090.93 0.930065 -1.71391 0
M  V30 11218 O 1090.2 1.65601 -1.04658 0
M  V30 11219 H 1088.78 -0.191903 -0.721929 0
M  V30 11220 H 1091.44 -1.14795 -1.57506 0
M  V30 11221 H 1090.54 -0.710945 -3.03895 0
M  V30 11222 N 1090.84 1.42931 -0.663954 0
M  V30 11223 C 1092.08 2.01683 -0.181738 0
M  V30 11224 C 1092.41 1.52437 1.20802 0
M  V30 11225 O 1091.67 0.71254 1.82267 0
M  V30 11226 C 1091.97 3.57072 -0.153163 0
M  V30 11227 C 1091.63 4.25706 -1.48612 0
M  V30 11228 C 1090.29 4.4417 -1.85111 0
M  V30 11229 C 1092.65 4.6448 -2.36448 0
M  V30 11230 C 1089.97 4.98677 -3.09092 0
M  V30 11231 C 1092.33 5.20362 -3.5973 0
M  V30 11232 C 1090.99 5.37041 -3.96412 0
M  V30 11233 H 1090.26 0.73801 -0.0665026 0
M  V30 11234 H 1092.91 1.71264 -0.856791 0
M  V30 11235 H 1091.21 3.87095 0.605372 0
M  V30 11236 H 1092.91 4.00299 0.236981 0
M  V30 11237 H 1089.5 4.11686 -1.19215 0
M  V30 11238 H 1093.68 4.49898 -2.09537 0
M  V30 11239 H 1088.94 5.09776 -3.37547 0
M  V30 11240 H 1093.11 5.49352 -4.28001 0
M  V30 11241 H 1090.74 5.79042 -4.92559 0
M  V30 11242 N 1092.32 0.406567 1.52266 0
M  V30 11243 C 1093.73 -0.063607 1.86592 0
M  V30 11244 C 1094.08 -1.4466 1.32544 0
M  V30 11245 O 1093.2 -2.05971 0.663692 0
M  V30 11246 C 1093.8 -0.122198 3.3858 0
M  V30 11247 C 1092.36 -0.536701 3.72554 0
M  V30 11248 C 1091.5 0.290422 2.75775 0
M  V30 11249 H 1094.45 0.623738 1.45929 0
M  V30 11250 H 1094.48 -0.937964 3.68758 0
M  V30 11251 H 1093.99 0.884495 3.77887 0
M  V30 11252 H 1092.09 -1.55013 3.38824 0
M  V30 11253 H 1092.2 -0.282867 4.78264 0
M  V30 11254 H 1090.57 -0.246864 2.53501 0
M  V30 11255 H 1091.35 1.29541 3.17921 0
M  V30 11256 N 1093.79 -1.57004 0.136909 0
M  V30 11257 C 1094.7 -2.19807 -0.819887 0
M  V30 11258 C 1095.72 -1.17939 -1.27932 0
M  V30 11259 O 1096.9 -1.50478 -1.3386 0
M  V30 11260 C 1093.96 -2.79935 -2.04542 0
M  V30 11261 C 1093.02 -3.96897 -1.6362 0
M  V30 11262 C 1092.26 -4.54148 -2.80331 0
M  V30 11263 O 1092.48 -4.10282 -3.96264 0
M  V30 11264 O 1091.41 -5.44565 -2.56384 0
M  V30 11265 H 1095.24 -3.02058 -0.315337 0
M  V30 11266 H 1092.82 -1.49131 -0.0896151 0
M  V30 11267 H 1094.71 -3.18191 -2.76283 0
M  V30 11268 H 1093.38 -2.00703 -2.53969 0
M  V30 11269 H 1092.29 -3.63376 -0.889316 0
M  V30 11270 H 1093.62 -4.77618 -1.18918 0
M  V30 11271 N 1095.27 0.136881 -1.57004 0
M  V30 11272 C 1096.5 0.861186 -1.87796 0
M  V30 11273 C 1096.91 1.74788 -0.724272 0
M  V30 11274 O 1096.25 1.80984 0.31471 0
M  V30 11275 C 1096.32 1.76115 -3.13407 0
M  V30 11276 C 1095.98 1.05059 -4.4476 0
M  V30 11277 C 1096.98 0.399736 -5.18361 0
M  V30 11278 C 1094.66 1.03709 -4.91477 0
M  V30 11279 C 1096.66 -0.255127 -6.36889 0
M  V30 11280 C 1094.34 0.378414 -6.09927 0
M  V30 11281 C 1095.34 -0.266555 -6.8248 0
M  V30 11282 O 1095.03 -0.914757 -7.98679 0
M  V30 11283 H 1094.76 0.253855 -0.626525 0
M  V30 11284 H 1097.31 0.131291 -2.0498 0
M  V30 11285 H 1095.54 2.53224 -2.92257 0
M  V30 11286 H 1097.23 2.3583 -3.30362 0
M  V30 11287 H 1098 0.401909 -4.83332 0
M  V30 11288 H 1093.88 1.52852 -4.34922 0
M  V30 11289 H 1097.42 -0.759135 -6.93457 0
M  V30 11290 H 1093.32 0.373942 -6.44416 0
M  V30 11291 H 1094.09 -0.817437 -8.14408 0
M  V30 11292 N 1096.75 1.52266 0.40654 0
M  V30 11293 C 1097.68 1.72025 1.51459 0
M  V30 11294 C 1098.7 0.600667 1.51314 0
M  V30 11295 O 1099.88 0.875894 1.55532 0
M  V30 11296 C 1096.98 1.7479 2.90348 0
M  V30 11297 C 1096.16 3.03826 3.14656 0
M  V30 11298 C 1095.22 2.98369 4.33431 0
M  V30 11299 O 1094.24 3.7227 4.30586 0
M  V30 11300 N 1095.44 2.16338 5.38682 0
M  V30 11301 H 1098.21 2.67622 1.34903 0
M  V30 11302 H 1095.77 1.50536 0.595867 0
M  V30 11303 H 1097.76 1.68667 3.67877 0
M  V30 11304 H 1096.33 0.86656 3.00349 0
M  V30 11305 H 1095.55 3.23577 2.25148 0
M  V30 11306 H 1096.84 3.89182 3.27742 0
M  V30 11307 H 1096.24 1.55731 5.43842 0
M  V30 11308 H 1094.8 2.1607 6.14945 0
M  V30 11309 N 1098.23 -0.663929 1.42933 0
M  V30 11310 C 1099.14 -1.80643 1.49683 0
M  V30 11311 C 1100.15 -1.69694 0.38472 0
M  V30 11312 O 1101.33 -1.91052 0.637256 0
M  V30 11313 C 1098.4 -3.16858 1.4072 0
M  V30 11314 C 1097.46 -3.39684 2.62514 0
M  V30 11315 C 1096.69 -4.69399 2.53969 0
M  V30 11316 O 1096.91 -5.48037 1.58152 0
M  V30 11317 O 1095.85 -4.93709 3.44289 0
M  V30 11318 H 1099.67 -1.77903 2.46138 0
M  V30 11319 H 1097.26 -0.821059 1.24816 0
M  V30 11320 H 1099.14 -3.9812 1.38124 0
M  V30 11321 H 1097.81 -3.20211 0.473954 0
M  V30 11322 H 1096.72 -2.58227 2.70684 0
M  V30 11323 H 1098.05 -3.41169 3.54774 0
M  V30 11324 N 1099.71 -1.29285 -0.901281 0
M  V30 11325 C 1100.62 -1.16161 -2.03823 0
M  V30 11326 C 1101.63 -0.0852298 -1.73791 0
M  V30 11327 O 1102.81 -0.29699 -1.99198 0
M  V30 11328 C 1099.87 -0.837586 -3.3643 0
M  V30 11329 C 1098.93 -1.99764 -3.7999 0
M  V30 11330 C 1098.17 -1.68898 -5.0627 0
M  V30 11331 O 1098.39 -0.609177 -5.67138 0
M  V30 11332 O 1097.32 -2.53648 -5.45845 0
M  V30 11333 H 1101.15 -2.11635 -2.17817 0
M  V30 11334 H 1098.74 -1.08722 -1.02468 0
M  V30 11335 H 1100.62 -0.671376 -4.16017 0
M  V30 11336 H 1099.29 0.0873811 -3.23582 0
M  V30 11337 H 1098.2 -2.21908 -3.01177 0
M  V30 11338 H 1099.53 -2.90376 -3.9742 0
M  V30 11339 N 1101.18 1.11143 -1.11736 0
M  V30 11340 C 1102.46 1.79384 -0.779785 0
M  V30 11341 C 1102.84 1.98015 0.731668 0
M  V30 11342 O 1102.19 1.56731 1.66276 0
M  V30 11343 C 1102.4 3.12868 -1.54643 0
M  V30 11344 C 1103.75 3.8786 -1.7277 0
M  V30 11345 O 1104.77 3.22566 -1.51094 0
M  V30 11346 O 1103.63 5.05034 -2.08813 0
M  V30 11347 H 1100.72 0.777128 -0.282845 0
M  V30 11348 H 1103.27 1.17858 -1.22096 0
M  V30 11349 H 1102.04 2.94682 -2.57446 0
M  V30 11350 H 1101.67 3.82109 -1.09901 0
M  V30 11351 N 1102.66 0.908147 1.28804 0
M  V30 11352 C 1103.61 0.382315 2.29437 0
M  V30 11353 C 1104.6 -0.523033 1.61123 0
M  V30 11354 O 1105.81 -0.404898 1.75387 0
M  V30 11355 H 1102.19 0.105022 0.74463 0
M  V30 11356 H 1104.16 1.24425 2.71221 0
M  V30 11357 C 1102.91 -0.367475 3.45753 0
M  V30 11358 H 1102.23 0.319957 3.98518 0
M  V30 11359 H 1103.67 -0.700131 4.1818 0
M  V30 11360 C 1102.13 -1.57329 2.97908 0
M  V30 11361 O 1102.66 -2.67248 2.99902 0
M  V30 11362 N 1100.86 -1.41835 2.53636 0
M  V30 11363 H 1100.41 -0.524099 2.52212 0
M  V30 11364 H 1100.37 -2.22645 2.21984 0
M  V30 11365 N 1104.14 -1.42577 0.671525 0
M  V30 11366 C 1105.37 -2.06442 0.199152 0
M  V30 11367 C 1105.79 -1.50104 -1.1336 0
M  V30 11368 O 1105.15 -0.618211 -1.70434 0
M  V30 11369 C 1105.2 -3.60323 0.141215 0
M  V30 11370 O 1104.3 -4.02655 -0.891238 0
M  V30 11371 H 1103.64 -0.655919 0.103277 0
M  V30 11372 H 1106.17 -1.82768 0.919614 0
M  V30 11373 H 1106.18 -4.07984 -0.0360209 0
M  V30 11374 H 1104.86 -4.00702 1.11403 0
M  V30 11375 H 1103.43 -3.66549 -0.685309 0
M  V30 11376 N 1105.62 -0.414636 -1.52048 0
M  V30 11377 C 1106.85 0.158686 -2.06291 0
M  V30 11378 C 1107.26 1.38397 -1.2842 0
M  V30 11379 O 1106.62 1.79351 -0.337539 0
M  V30 11380 C 1106.67 0.503634 -3.57975 0
M  V30 11381 O 1106.39 -0.672996 -4.329 0
M  V30 11382 C 1107.89 1.13009 -4.28653 0
M  V30 11383 H 1105.11 0.0179622 -0.67076 0
M  V30 11384 H 1107.66 -0.587177 -1.95889 0
M  V30 11385 H 1105.81 1.19939 -3.68366 0
M  V30 11386 H 1106.22 -0.383735 -5.23094 0
M  V30 11387 H 1107.7 1.32162 -5.35945 0
M  V30 11388 H 1108.18 2.10476 -3.85482 0
M  V30 11389 H 1108.78 0.474379 -4.22646 0
M  V30 11390 N 1107.1 1.56929 -0.145233 0
M  V30 11391 C 1108.33 2.00141 0.51257 0
M  V30 11392 C 1108.73 1.0243 1.59075 0
M  V30 11393 O 1108.08 0.0130063 1.83695 0
M  V30 11394 C 1108.14 3.39785 1.17417 0
M  V30 11395 C 1107.8 4.56365 0.240801 0
M  V30 11396 C 1108.8 5.17183 -0.530847 0
M  V30 11397 C 1106.49 5.02093 0.144221 0
M  V30 11398 C 1108.48 6.22136 -1.38654 0
M  V30 11399 C 1106.17 6.06902 -0.71508 0
M  V30 11400 C 1107.16 6.66793 -1.47907 0
M  V30 11401 O 1106.85 7.69573 -2.32405 0
M  V30 11402 H 1106.58 0.661747 0.138085 0
M  V30 11403 H 1109.14 2.04037 -0.236269 0
M  V30 11404 H 1107.37 3.32722 1.97061 0
M  V30 11405 H 1109.06 3.67115 1.73152 0
M  V30 11406 H 1109.82 4.82754 -0.466256 0
M  V30 11407 H 1105.7 4.55206 0.728613 0
M  V30 11408 H 1109.25 6.68812 -1.98333 0
M  V30 11409 H 1105.14 6.40758 -0.78097 0
M  V30 11410 H 1105.91 7.86786 -2.25634 0
M  V30 11411 N 1108.58 -0.128553 1.57075 0
M  V30 11412 C 1109.52 -1.17719 2.00611 0
M  V30 11413 C 1110.52 -1.43423 0.90146 0
M  V30 11414 O 1111.72 -1.43498 1.08666 0
M  V30 11415 H 1108.1 -0.396683 0.638864 0
M  V30 11416 H 1110.07 -0.783437 2.87932 0
M  V30 11417 C 1108.82 -2.49826 2.41831 0
M  V30 11418 H 1108.14 -2.30883 3.26394 0
M  V30 11419 H 1109.58 -3.21784 2.761 0
M  V30 11420 C 1108.04 -3.11712 1.27816 0
M  V30 11421 O 1108.57 -3.9736 0.588917 0
M  V30 11422 N 1106.78 -2.71442 1.03767 0
M  V30 11423 H 1106.32 -2.01891 1.59994 0
M  V30 11424 H 1106.28 -3.1318 0.276743 0
M  V30 11425 N 1110.05 -1.5248 -0.398459 0
M  V30 11426 C 1111.3 -1.67061 -1.14441 0
M  V30 11427 C 1111.63 -0.405821 -1.90219 0
M  V30 11428 O 1110.88 0.611532 -1.859 0
M  V30 11429 C 1111.18 -2.85038 -2.15611 0
M  V30 11430 C 1110.85 -4.22847 -1.56561 0
M  V30 11431 C 1109.51 -4.60329 -1.40182 0
M  V30 11432 C 1111.86 -5.08683 -1.1354 0
M  V30 11433 C 1109.19 -5.81314 -0.793149 0
M  V30 11434 C 1111.54 -6.30284 -0.540866 0
M  V30 11435 C 1110.21 -6.66505 -0.364297 0
M  V30 11436 H 1109.48 -0.611321 -0.418769 0
M  V30 11437 H 1112.12 -1.86604 -0.430241 0
M  V30 11438 H 1110.43 -2.59873 -2.93212 0
M  V30 11439 H 1112.13 -2.93516 -2.73221 0
M  V30 11440 H 1108.72 -3.93316 -1.70295 0
M  V30 11441 H 1112.9 -4.80301 -1.24999 0
M  V30 11442 H 1108.16 -6.07994 -0.64446 0
M  V30 11443 H 1112.33 -6.96115 -0.199167 0
M  V30 11444 H 1109.96 -7.60121 0.109439 0
M  V30 11445 N 1111.53 0.65634 -1.43283 0
M  V30 11446 C 1112.95 0.971645 -1.26614 0
M  V30 11447 C 1113.15 2.00662 -0.183612 0
M  V30 11448 O 1112.2 2.48654 0.439003 0
M  V30 11449 C 1113.52 1.45888 -2.6294 0
M  V30 11450 C 1115.06 1.57569 -2.70446 0
M  V30 11451 C 1115.54 2.09684 -4.07181 0
M  V30 11452 N 1117.03 2.16991 -4.0923 0
M  V30 11453 C 1117.77 2.5843 -5.11861 0
M  V30 11454 N 1117.26 2.99188 -6.24867 0
M  V30 11455 N 1119.05 2.58342 -4.99215 0
M  V30 11456 H 1111.21 -0.028573 -2.12381 0
M  V30 11457 H 1113.47 0.0497918 -0.946691 0
M  V30 11458 H 1113.17 0.772823 -3.43104 0
M  V30 11459 H 1113.05 2.43445 -2.88122 0
M  V30 11460 H 1115.44 2.25277 -1.90616 0
M  V30 11461 H 1115.52 0.584529 -2.49032 0
M  V30 11462 H 1115.16 1.42579 -4.87477 0
M  V30 11463 H 1115.09 3.09625 -4.25958 0
M  V30 11464 H 1117.58 1.88278 -3.27658 0
M  V30 11465 H 1117.89 3.29549 -6.99012 0
M  V30 11466 H 1116.24 2.97 -6.28344 0
M  V30 11467 H 1119.43 2.25875 -4.09998 0
M  V30 11468 H 1119.6 2.90316 -5.79328 0
M  V30 11469 N 1113.01 1.29761 0.894412 0
M  V30 11470 C 1114.26 1.19224 1.64794 0
M  V30 11471 C 1114.61 -0.252648 1.90734 0
M  V30 11472 O 1113.9 -1.17881 1.51045 0
M  V30 11473 C 1114.1 1.94458 2.99868 0
M  V30 11474 C 1113.93 3.46115 2.87114 0
M  V30 11475 C 1112.7 4.15469 2.87599 0
M  V30 11476 C 1114.89 4.41518 2.63754 0
M  V30 11477 N 1112.88 5.53453 2.65637 0
M  V30 11478 C 1114.25 5.66999 2.50823 0
M  V30 11479 C 1116.3 4.31221 2.48903 0
M  V30 11480 C 1115.01 6.83351 2.24554 0
M  V30 11481 C 1117.03 5.4733 2.24018 0
M  V30 11482 C 1116.39 6.71786 2.11856 0
M  V30 11483 H 1112.49 0.491294 0.608403 0
M  V30 11484 H 1115.08 1.63656 1.05474 0
M  V30 11485 H 1113.25 1.52432 3.57238 0
M  V30 11486 H 1114.98 1.76142 3.64357 0
M  V30 11487 H 1111.73 3.67217 2.9908 0
M  V30 11488 H 1112.16 6.26037 2.57695 0
M  V30 11489 H 1116.8 3.35689 2.57046 0
M  V30 11490 H 1114.52 7.78933 2.15149 0
M  V30 11491 H 1118.1 5.41265 2.13363 0
M  V30 11492 H 1116.98 7.60113 1.92867 0
M  V30 11493 N 1114.49 -1.10549 1.12324 0
M  V30 11494 C 1115.72 -1.86 0.899312 0
M  V30 11495 C 1116.13 -1.80881 -0.554854 0
M  V30 11496 O 1115.47 -1.19485 -1.39531 0
M  V30 11497 C 1115.53 -3.35384 1.29452 0
M  V30 11498 C 1115.19 -3.64263 2.75974 0
M  V30 11499 C 1116.19 -3.60962 3.74169 0
M  V30 11500 C 1113.88 -3.92976 3.1285 0
M  V30 11501 C 1115.87 -3.85966 5.07256 0
M  V30 11502 C 1113.56 -4.17637 4.4612 0
M  V30 11503 C 1114.56 -4.14122 5.43132 0
M  V30 11504 O 1114.24 -4.38156 6.73999 0
M  V30 11505 H 1113.98 -0.594743 0.321337 0
M  V30 11506 H 1116.53 -1.40674 1.49667 0
M  V30 11507 H 1114.76 -3.81361 0.640358 0
M  V30 11508 H 1116.45 -3.9222 1.04491 0
M  V30 11509 H 1117.21 -3.38819 3.47025 0
M  V30 11510 H 1113.09 -3.94843 2.3795 0
M  V30 11511 H 1116.64 -3.83138 5.82967 0
M  V30 11512 H 1112.53 -4.39258 4.72993 0
M  V30 11513 H 1113.3 -4.55677 6.79927 0
M  V30 11514 N 1115.97 -0.914965 -1.28321 0
M  V30 11515 C 1117.19 -0.564654 -1.99046 0
M  V30 11516 C 1117.61 0.854345 -1.68364 0
M  V30 11517 O 1116.97 1.56605 -0.937068 0
M  V30 11518 C 1117.02 -0.765663 -3.53299 0
M  V30 11519 O 1116.74 -2.12883 -3.829 0
M  V30 11520 C 1118.24 -0.422347 -4.41283 0
M  V30 11521 H 1115.46 -0.215158 -0.635569 0
M  V30 11522 H 1118 -1.2285 -1.63487 0
M  V30 11523 H 1116.16 -0.148795 -3.87114 0
M  V30 11524 H 1116.57 -2.1694 -4.77533 0
M  V30 11525 H 1118.05 -0.613757 -5.48577 0
M  V30 11526 H 1118.52 0.641484 -4.3449 0
M  V30 11527 H 1119.13 -1.01681 -4.12966 0
M  V30 11528 N 1117.44 1.42219 -0.679077 0
M  V30 11529 C 1118.67 2.06333 -0.210097 0
M  V30 11530 C 1119.09 1.50703 1.12562 0
M  V30 11531 O 1118.45 0.627241 1.70104 0
M  V30 11532 C 1118.5 3.60243 -0.160322 0
M  V30 11533 O 1117.6 4.03122 0.869872 0
M  V30 11534 H 1116.94 0.655362 -0.106754 0
M  V30 11535 H 1119.47 1.82278 -0.929294 0
M  V30 11536 H 1119.48 4.07997 0.014384 0
M  V30 11537 H 1118.16 4.00106 -1.13526 0
M  V30 11538 H 1116.74 3.66907 0.66586 0
M  V30 11539 N 1118.92 0.422693 1.51826 0
M  V30 11540 C 1120.15 -0.14753 2.06073 0
M  V30 11541 C 1120.56 -1.38264 1.2915 0
M  V30 11542 O 1119.9 -1.8052 0.340306 0
M  V30 11543 C 1119.96 -0.549558 3.55275 0
M  V30 11544 C 1119.63 0.576704 4.53347 0
M  V30 11545 C 1120.63 1.44442 4.99432 0
M  V30 11546 C 1118.31 0.753264 4.9662 0
M  V30 11547 C 1120.3 2.47352 5.87448 0
M  V30 11548 C 1117.99 1.78566 5.84429 0
M  V30 11549 C 1118.99 2.64419 6.29739 0
M  V30 11550 O 1118.68 3.65888 7.15808 0
M  V30 11551 H 1118.41 -0.0178911 0.675763 0
M  V30 11552 H 1120.96 0.596258 1.96555 0
M  V30 11553 H 1119.19 -1.34583 3.62525 0
M  V30 11554 H 1120.88 -1.04925 3.92104 0
M  V30 11555 H 1121.65 1.31948 4.66706 0
M  V30 11556 H 1117.53 0.0946405 4.60903 0
M  V30 11557 H 1121.07 3.14397 6.22736 0
M  V30 11558 H 1116.97 1.91086 6.16568 0
M  V30 11559 H 1117.74 3.62294 7.33952 0
M  V30 11560 N 1120.4 -1.5685 0.153553 0
M  V30 11561 C 1121.36 -2.15894 -0.769564 0
M  V30 11562 C 1122.36 -1.10239 -1.17064 0
M  V30 11563 O 1123.55 -1.35845 -1.09049 0
M  V30 11564 C 1120.68 -2.72738 -2.04516 0
M  V30 11565 H 1121.88 -2.98807 -0.255842 0
M  V30 11566 H 1119.43 -1.56005 -0.0959279 0
M  V30 11567 H 1120.17 -1.9351 -2.60239 0
M  V30 11568 H 1119.95 -3.50042 -1.76672 0
M  V30 11569 H 1121.44 -3.18208 -2.70432 0
M  V30 11570 N 1121.88 0.120221 -1.57141 0
M  V30 11571 C 1123.12 0.834128 -1.86606 0
M  V30 11572 C 1123.48 1.77109 -0.741383 0
M  V30 11573 O 1124.68 2.52647 -0.917769 0
M  V30 11574 C 1122.95 1.56536 -3.21296 0
M  V30 11575 S 1124.51 2.32101 -3.7239 0
M  V30 11576 H 1121.33 0.278419 -0.65422 0
M  V30 11577 H 1123.93 0.0925474 -1.95281 0
M  V30 11578 H 1122.64 0.868987 -4.01094 0
M  V30 11579 H 1122.17 2.34734 -3.15696 0
M  V30 11580 H 1124.18 3.57799 -3.43794 0
M  V30 11581 N 1123.36 1.52689 0.390367 0
M  V30 11582 C 1124.77 1.59623 0.968366 0
M  V30 11583 C 1125.12 0.44824 1.91011 0
M  V30 11584 O 1124.24 -0.428868 2.12108 0
M  V30 11585 C 1124.84 2.89312 1.76306 0
M  V30 11586 C 1123.4 2.98664 2.29079 0
M  V30 11587 C 1122.54 2.54725 1.09593 0
M  V30 11588 H 1125.5 1.57787 0.169959 0
M  V30 11589 H 1125.52 2.75721 2.62217 0
M  V30 11590 H 1125.03 3.72846 1.07738 0
M  V30 11591 H 1123.13 2.19665 3.00962 0
M  V30 11592 H 1123.24 4.03277 2.58659 0
M  V30 11593 H 1121.61 2.09012 1.45554 0
M  V30 11594 H 1122.39 3.40651 0.425625 0
M  V30 11595 N 1124.83 -0.648732 1.43629 0
M  V30 11596 C 1125.74 -1.79046 1.51591 0
M  V30 11597 C 1126.76 -1.69276 0.402697 0
M  V30 11598 O 1127.94 -1.90366 0.657484 0
M  V30 11599 C 1125 -3.15347 1.44073 0
M  V30 11600 C 1124.06 -3.3688 2.66102 0
M  V30 11601 C 1123.3 -4.66679 2.58933 0
M  V30 11602 O 1123.52 -5.46328 1.63956 0
M  V30 11603 O 1122.45 -4.9003 3.49506 0
M  V30 11604 H 1126.28 -1.75283 2.48011 0
M  V30 11605 H 1123.86 -0.807774 1.2568 0
M  V30 11606 H 1125.75 -3.96633 1.42339 0
M  V30 11607 H 1124.42 -3.19691 0.50789 0
M  V30 11608 H 1123.33 -2.55341 2.73407 0
M  V30 11609 H 1124.66 -3.37386 3.58373 0
M  V30 11610 N 1126.31 -1.30234 -0.887518 0
M  V30 11611 C 1127.22 -1.18316 -2.02579 0
M  V30 11612 C 1128.24 -0.103658 -1.73691 0
M  V30 11613 O 1129.41 -0.3181 -1.98872 0
M  V30 11614 C 1126.48 -0.873222 -3.35523 0
M  V30 11615 C 1125.54 -2.03783 -3.7785 0
M  V30 11616 C 1124.77 -1.74258 -5.0445 0
M  V30 11617 O 1125 -0.669295 -5.6646 0
M  V30 11618 O 1123.93 -2.59423 -5.43124 0
M  V30 11619 H 1127.76 -2.13933 -2.15561 0
M  V30 11620 H 1125.34 -1.09803 -1.0131 0
M  V30 11621 H 1127.22 -0.715463 -4.15282 0
M  V30 11622 H 1125.9 0.053056 -3.23657 0
M  V30 11623 H 1124.81 -2.2509 -2.98806 0
M  V30 11624 H 1126.14 -2.94574 -3.94318 0
M  V30 11625 N 1127.79 1.09952 -1.12909 0
M  V30 11626 C 1129.2 1.63516 -0.901087 0
M  V30 11627 C 1129.55 1.87932 0.563547 0
M  V30 11628 O 1128.68 1.625 1.42908 0
M  V30 11629 C 1129.27 2.97054 -1.62924 0
M  V30 11630 C 1127.83 3.47464 -1.44725 0
M  V30 11631 C 1126.98 2.21979 -1.66194 0
M  V30 11632 H 1129.93 0.933858 -1.28315 0
M  V30 11633 H 1129.95 3.64757 -1.08318 0
M  V30 11634 H 1129.46 2.79251 -2.69519 0
M  V30 11635 H 1127.56 3.70402 -0.40409 0
M  V30 11636 H 1127.68 4.25254 -2.20671 0
M  V30 11637 H 1126.04 2.30368 -1.0864 0
M  V30 11638 H 1126.82 2.06702 -2.74097 0
M  V30 11639 N 1129.27 0.921757 1.27833 0
M  V30 11640 C 1130.2 0.433466 2.29441 0
M  V30 11641 C 1131.18 -0.503133 1.62489 0
M  V30 11642 O 1132.36 -0.409156 1.89841 0
M  V30 11643 C 1129.49 -0.320029 3.45822 0
M  V30 11644 C 1128.45 0.528178 4.24728 0
M  V30 11645 C 1127.77 -0.354132 5.33526 0
M  V30 11646 C 1129.07 1.78959 4.90684 0
M  V30 11647 H 1130.77 1.28263 2.70535 0
M  V30 11648 H 1128.31 0.618197 1.30055 0
M  V30 11649 H 1130.27 -0.672526 4.15999 0
M  V30 11650 H 1128.99 -1.20317 3.0363 0
M  V30 11651 H 1127.65 0.863302 3.5629 0
M  V30 11652 H 1127.3 -1.23605 4.87576 0
M  V30 11653 H 1127 0.209855 5.87225 0
M  V30 11654 H 1128.52 -0.702333 6.06547 0
M  V30 11655 H 1129.94 1.50552 5.53179 0
M  V30 11656 H 1128.33 2.29661 5.54415 0
M  V30 11657 H 1129.4 2.51265 4.14721 0
M  V30 11658 N 1130.75 -1.41857 0.686609 0
M  V30 11659 C 1131.66 -2.34595 0.0159005 0
M  V30 11660 C 1132.67 -1.55741 -0.775933 0
M  V30 11661 O 1133.85 -1.8826 -0.71555 0
M  V30 11662 C 1130.91 -3.34395 -0.915473 0
M  V30 11663 C 1129.97 -4.29141 -0.116851 0
M  V30 11664 C 1129.21 -5.24174 -1.00386 0
M  V30 11665 O 1129.43 -5.24431 -2.2434 0
M  V30 11666 O 1128.36 -6.00152 -0.458337 0
M  V30 11667 H 1132.19 -2.9351 0.780101 0
M  V30 11668 H 1129.78 -1.42559 0.446896 0
M  V30 11669 H 1131.66 -3.95675 -1.44981 0
M  V30 11670 H 1130.33 -2.77936 -1.65932 0
M  V30 11671 H 1129.24 -3.71238 0.461871 0
M  V30 11672 H 1130.57 -4.88673 0.588138 0
M  V30 11673 N 1132.22 -0.430739 -1.51599 0
M  V30 11674 C 1133.46 0.137184 -2.03939 0
M  V30 11675 C 1133.83 1.40533 -1.30823 0
M  V30 11676 O 1135.03 2.05307 -1.73501 0
M  V30 11677 C 1133.3 0.357395 -3.55609 0
M  V30 11678 S 1134.86 0.889669 -4.29686 0
M  V30 11679 H 1131.68 0.0349429 -0.710141 0
M  V30 11680 H 1134.28 -0.588628 -1.86428 0
M  V30 11681 H 1132.98 -0.572011 -4.06394 0
M  V30 11682 H 1132.51 1.11047 -3.77402 0
M  V30 11683 H 1134.53 2.16797 -4.46333 0
M  V30 11684 N 1133.7 1.56767 -0.161869 0
M  V30 11685 C 1134.95 1.96885 0.486215 0
M  V30 11686 C 1135.28 1.04745 1.6353 0
M  V30 11687 O 1134.56 0.0927156 1.94279 0
M  V30 11688 C 1134.84 3.46559 0.97822 0
M  V30 11689 C 1134.69 4.49477 -0.17039 0
M  V30 11690 C 1136.01 3.99093 1.85506 0
M  V30 11691 H 1133.13 0.715857 0.175265 0
M  V30 11692 H 1135.77 1.88399 -0.246098 0
M  V30 11693 H 1133.92 3.53921 1.60225 0
M  V30 11694 H 1135.59 4.54183 -0.807205 0
M  V30 11695 H 1133.84 4.25838 -0.827322 0
M  V30 11696 H 1134.51 5.51578 0.21583 0
M  V30 11697 H 1136.98 3.94303 1.32908 0
M  V30 11698 H 1135.86 5.04255 2.16837 0
M  V30 11699 H 1136.12 3.4234 2.79742 0
M  V30 11700 N 1135.18 -0.111886 1.57202 0
M  V30 11701 C 1136.43 -0.819623 1.85499 0
M  V30 11702 C 1136.76 -1.7919 0.748629 0
M  V30 11703 O 1136.03 -1.92952 -0.244918 0
M  V30 11704 C 1136.32 -1.56324 3.24399 0
M  V30 11705 C 1136.17 -0.610081 4.45643 0
M  V30 11706 C 1137.49 -2.51777 3.60966 0
M  V30 11707 H 1134.61 -0.296512 0.674722 0
M  V30 11708 H 1137.25 -0.0836741 1.89816 0
M  V30 11709 H 1135.4 -2.1906 3.2085 0
M  V30 11710 H 1137.07 0.00898038 4.61299 0
M  V30 11711 H 1135.32 0.0778488 4.3373 0
M  V30 11712 H 1135.99 -1.16718 5.39519 0
M  V30 11713 H 1138.46 -1.99143 3.65351 0
M  V30 11714 H 1137.34 -3.00835 4.59118 0
M  V30 11715 H 1137.6 -3.34769 2.8876 0
M  V30 11716 N 1136.66 -1.52894 -0.382264 0
M  V30 11717 C 1137.89 -1.72152 -1.14766 0
M  V30 11718 C 1138.3 -0.442911 -1.83531 0
M  V30 11719 O 1137.66 0.583085 -1.72935 0
M  V30 11720 C 1137.71 -2.87566 -2.19062 0
M  V30 11721 O 1137.43 -4.10478 -1.53099 0
M  V30 11722 C 1138.93 -3.18559 -3.08277 0
M  V30 11723 H 1136.15 -0.576212 -0.343832 0
M  V30 11724 H 1138.7 -1.99571 -0.446273 0
M  V30 11725 H 1136.85 -2.62589 -2.84826 0
M  V30 11726 H 1137.26 -4.74989 -2.22454 0
M  V30 11727 H 1138.74 -4.02763 -3.77473 0
M  V30 11728 H 1139.22 -2.33222 -3.72161 0
M  V30 11729 H 1139.82 -3.454 -2.48151 0
M  V30 11730 N 1138.14 0.641106 -1.43971 0
M  V30 11731 C 1139.41 1.39897 -1.36704 0
M  V30 11732 C 1139.79 2.1109 -0.0208051 0
M  V30 11733 O 1139.14 2.05638 0.99625 0
M  V30 11734 C 1139.35 2.37366 -2.55849 0
M  V30 11735 C 1140.7 3.01 -2.99473 0
M  V30 11736 O 1141.72 2.47692 -2.55982 0
M  V30 11737 O 1140.58 3.9768 -3.74851 0
M  V30 11738 H 1137.68 0.625623 -0.540855 0
M  V30 11739 H 1140.22 0.666997 -1.56042 0
M  V30 11740 H 1139 1.8379 -3.45452 0
M  V30 11741 H 1138.62 3.17995 -2.38673 0
M  V30 11742 N 1139.62 1.30703 0.880598 0
M  V30 11743 C 1141.03 1.17818 1.4483 0
M  V30 11744 C 1141.38 -0.219456 1.94969 0
M  V30 11745 O 1140.5 -1.11646 1.85375 0
M  V30 11746 C 1141.1 2.13275 2.63247 0
M  V30 11747 C 1139.66 2.04356 3.16094 0
M  V30 11748 C 1138.8 2.03108 1.88792 0
M  V30 11749 H 1141.75 1.42909 0.690125 0
M  V30 11750 H 1141.78 1.71615 3.39601 0
M  V30 11751 H 1141.29 3.14988 2.26725 0
M  V30 11752 H 1139.39 1.058 3.57263 0
M  V30 11753 H 1139.5 2.92953 3.79098 0
M  V30 11754 H 1137.87 1.47971 2.07308 0
M  V30 11755 H 1138.65 3.06558 1.54521 0
M  V30 11756 N 1141.09 -1.09351 1.1349 0
M  V30 11757 C 1142.32 -1.85844 0.92069 0
M  V30 11758 C 1142.74 -1.80616 -0.525303 0
M  V30 11759 O 1142.1 -1.1842 -1.37282 0
M  V30 11760 C 1142.15 -3.31716 1.4141 0
M  V30 11761 O 1141.25 -4.08014 0.599838 0
M  V30 11762 H 1140.59 -0.576242 0.32991 0
M  V30 11763 H 1143.12 -1.38084 1.50976 0
M  V30 11764 H 1143.13 -3.82564 1.41805 0
M  V30 11765 H 1141.81 -3.34837 2.46692 0
M  V30 11766 H 1140.39 -3.66944 0.663816 0
M  V30 11767 N 1142.57 -0.928524 -1.27343 0
M  V30 11768 C 1143.8 -0.585734 -1.98436 0
M  V30 11769 C 1144.21 0.83644 -1.69261 0
M  V30 11770 O 1143.57 1.55603 -0.953626 0
M  V30 11771 C 1143.62 -0.803092 -3.52467 0
M  V30 11772 O 1143.34 -2.16932 -3.80621 0
M  V30 11773 C 1144.84 -0.469127 -4.40811 0
M  V30 11774 H 1142.06 -0.221887 -0.633251 0
M  V30 11775 H 1144.61 -1.24577 -1.62175 0
M  V30 11776 H 1142.76 -0.189846 -3.86935 0
M  V30 11777 H 1143.18 -2.21992 -4.75205 0
M  V30 11778 H 1144.65 -0.671906 -5.47895 0
M  V30 11779 H 1145.13 0.595365 -4.35146 0
M  V30 11780 H 1145.73 -1.06055 -4.11865 0
M  V30 11781 N 1144.05 1.41491 -0.694123 0
M  V30 11782 C 1144.98 2.33462 -0.0422169 0
M  V30 11783 C 1145.96 1.51739 0.76872 0
M  V30 11784 O 1147.15 1.8028 0.721985 0
M  V30 11785 C 1144.28 3.35545 0.895925 0
M  V30 11786 C 1143.23 4.27568 0.192188 0
M  V30 11787 C 1142.56 5.20014 1.24459 0
M  V30 11788 C 1143.86 5.1376 -0.940626 0
M  V30 11789 H 1145.55 2.88225 -0.810363 0
M  V30 11790 H 1143.1 1.38586 -0.39114 0
M  V30 11791 H 1145.05 3.9881 1.36121 0
M  V30 11792 H 1143.77 2.79129 1.69572 0
M  V30 11793 H 1142.43 3.65726 -0.25305 0
M  V30 11794 H 1142.08 4.59913 2.03687 0
M  V30 11795 H 1141.78 5.82417 0.778734 0
M  V30 11796 H 1143.3 5.86155 1.71041 0
M  V30 11797 H 1144.72 5.70601 -0.555692 0
M  V30 11798 H 1143.11 5.85097 -1.33349 0
M  V30 11799 H 1144.18 4.51011 -1.78093 0
M  V30 11800 N 1145.53 0.438773 1.51369 0
M  V30 11801 C 1146.44 -0.378074 2.31534 0
M  V30 11802 C 1147.45 -1.02632 1.40508 0
M  V30 11803 O 1148.63 -1.02138 1.73579 0
M  V30 11804 C 1145.69 -1.46374 3.14286 0
M  V30 11805 C 1144.76 -0.835473 4.21092 0
M  V30 11806 C 1143.99 -1.86941 4.99889 0
M  V30 11807 O 1144.21 -3.0918 4.79337 0
M  V30 11808 O 1143.15 -1.45914 5.83946 0
M  V30 11809 H 1146.97 0.276401 3.0244 0
M  V30 11810 H 1144.56 0.201281 1.48038 0
M  V30 11811 H 1146.44 -2.09335 3.65728 0
M  V30 11812 H 1145.11 -2.10227 2.46143 0
M  V30 11813 H 1144.02 -0.167775 3.73724 0
M  V30 11814 H 1145.35 -0.240406 4.91613 0
M  V30 11815 N 1147.01 -1.56678 0.170181 0
M  V30 11816 C 1147.94 -2.15083 -0.791961 0
M  V30 11817 C 1148.95 -1.10612 -1.19452 0
M  V30 11818 O 1150.14 -1.37803 -1.13457 0
M  V30 11819 C 1147.24 -2.67769 -2.07733 0
M  V30 11820 C 1146.41 -3.96885 -1.83851 0
M  V30 11821 C 1145.47 -4.34646 -2.96596 0
M  V30 11822 O 1144.5 -5.02543 -2.67281 0
M  V30 11823 N 1145.7 -3.96112 -4.24353 0
M  V30 11824 H 1148.46 -2.98268 -0.292658 0
M  V30 11825 H 1146.03 -1.61895 -0.0126383 0
M  V30 11826 H 1148.02 -2.90029 -2.8225 0
M  V30 11827 H 1146.59 -1.89179 -2.48858 0
M  V30 11828 H 1145.81 -3.83013 -0.932452 0
M  V30 11829 H 1147.1 -4.81213 -1.65261 0
M  V30 11830 H 1146.49 -3.41448 -4.51032 0
M  V30 11831 H 1145.05 -4.23375 -4.95577 0
M  V30 11832 N 1148.48 0.103547 -1.57259 0
M  V30 11833 C 1149.71 0.821158 -1.8958 0
M  V30 11834 C 1150.12 1.73213 -0.761184 0
M  V30 11835 O 1149.46 1.81611 0.27625 0
M  V30 11836 C 1149.53 1.69428 -3.17072 0
M  V30 11837 C 1149.19 0.956014 -4.46889 0
M  V30 11838 C 1150.19 0.289694 -5.19092 0
M  V30 11839 C 1147.87 0.932602 -4.93566 0
M  V30 11840 C 1149.87 -0.390164 -6.36205 0
M  V30 11841 C 1147.55 0.248954 -6.10593 0
M  V30 11842 C 1148.55 -0.411259 -6.81761 0
M  V30 11843 O 1148.24 -1.08396 -7.96559 0
M  V30 11844 H 1147.97 0.240508 -0.631769 0
M  V30 11845 H 1150.53 0.0877817 -2.05212 0
M  V30 11846 H 1148.76 2.46968 -2.97563 0
M  V30 11847 H 1150.44 2.28769 -3.3529 0
M  V30 11848 H 1151.21 0.299297 -4.84076 0
M  V30 11849 H 1147.09 1.43592 -4.38067 0
M  V30 11850 H 1150.63 -0.906057 -6.91691 0
M  V30 11851 H 1146.53 0.237168 -6.45064 0
M  V30 11852 H 1147.3 -0.990002 -8.12491 0
M  V30 11853 N 1149.96 1.53094 0.37415 0
M  V30 11854 C 1151.24 1.59456 1.13283 0
M  V30 11855 C 1151.62 0.396821 2.07337 0
M  V30 11856 O 1150.97 -0.613659 2.20106 0
M  V30 11857 C 1151.18 2.94069 1.87948 0
M  V30 11858 C 1152.52 3.4834 2.42785 0
M  V30 11859 O 1153.55 2.96042 1.98085 0
M  V30 11860 O 1152.41 4.39747 3.24477 0
M  V30 11861 H 1149.5 0.643731 0.519171 0
M  V30 11862 H 1152.05 1.65434 0.378105 0
M  V30 11863 H 1150.82 3.72685 1.19255 0
M  V30 11864 H 1150.44 2.91544 2.70348 0
M  V30 11865 N 1151.44 -0.633461 1.44309 0
M  V30 11866 C 1152.37 -1.75676 1.53819 0
M  V30 11867 C 1153.35 -1.65537 0.391365 0
M  V30 11868 O 1154.54 -1.84332 0.611181 0
M  V30 11869 C 1151.67 -3.14197 1.47979 0
M  V30 11870 C 1150.62 -3.39122 2.61113 0
M  V30 11871 C 1149.95 -4.77648 2.40325 0
M  V30 11872 C 1151.25 -3.31914 4.03274 0
M  V30 11873 H 1152.94 -1.67974 2.47841 0
M  V30 11874 H 1150.49 -0.8067 1.19283 0
M  V30 11875 H 1152.44 -3.92553 1.53233 0
M  V30 11876 H 1151.16 -3.22677 0.504718 0
M  V30 11877 H 1149.82 -2.63145 2.55245 0
M  V30 11878 H 1149.47 -4.82829 1.41016 0
M  V30 11879 H 1149.17 -4.95284 3.16177 0
M  V30 11880 H 1150.69 -5.58237 2.47394 0
M  V30 11881 H 1152.11 -4.00178 4.10524 0
M  V30 11882 H 1150.5 -3.61085 4.7931 0
M  V30 11883 H 1151.57 -2.29761 4.2701 0
M  V30 11884 N 1152.92 -1.31168 -0.873655 0
M  V30 11885 C 1154.14 -1.23728 -1.66452 0
M  V30 11886 C 1154.57 0.194869 -1.87088 0
M  V30 11887 O 1153.93 1.1397 -1.40998 0
M  V30 11888 C 1153.97 -1.98285 -3.0119 0
M  V30 11889 O 1153.08 -1.31767 -3.90783 0
M  V30 11890 H 1152.42 -0.427362 -0.508191 0
M  V30 11891 H 1154.95 -1.73176 -1.08955 0
M  V30 11892 H 1154.96 -2.0774 -3.51153 0
M  V30 11893 H 1153.63 -3.02437 -2.8549 0
M  V30 11894 H 1152.21 -1.3074 -3.4923 0
M  V30 11895 N 1154.4 1.08748 -1.14068 0
M  V30 11896 C 1155.62 1.85353 -0.930532 0
M  V30 11897 C 1156.05 1.80892 0.515717 0
M  V30 11898 O 1155.4 1.19146 1.36652 0
M  V30 11899 C 1155.45 3.30962 -1.43167 0
M  V30 11900 O 1154.56 4.0769 -0.621468 0
M  V30 11901 H 1153.9 0.574485 -0.332962 0
M  V30 11902 H 1156.43 1.37282 -1.51707 0
M  V30 11903 H 1156.44 3.81807 -1.43832 0
M  V30 11904 H 1155.11 3.33524 -2.48464 0
M  V30 11905 H 1153.69 3.66587 -0.683267 0
M  V30 11906 N 1155.87 0.935264 1.26849 0
M  V30 11907 C 1156.8 0.457776 2.28969 0
M  V30 11908 C 1157.79 -0.48587 1.63013 0
M  V30 11909 O 1158.97 -0.388998 1.90264 0
M  V30 11910 C 1156.1 -0.283332 3.46142 0
M  V30 11911 C 1155.05 0.573196 4.24144 0
M  V30 11912 C 1154.38 -0.297525 5.33872 0
M  V30 11913 C 1155.68 1.84153 4.88759 0
M  V30 11914 H 1157.37 1.31125 2.69159 0
M  V30 11915 H 1154.92 0.631956 1.29392 0
M  V30 11916 H 1156.87 -0.628366 4.16689 0
M  V30 11917 H 1155.6 -1.1709 3.04889 0
M  V30 11918 H 1154.26 0.901043 3.55354 0
M  V30 11919 H 1153.9 -1.18427 4.8886 0
M  V30 11920 H 1153.6 0.272126 5.8697 0
M  V30 11921 H 1155.13 -0.637961 6.07258 0
M  V30 11922 H 1156.54 1.5641 5.51551 0
M  V30 11923 H 1154.94 2.35528 5.51948 0
M  V30 11924 H 1156.01 2.5565 4.12033 0
M  V30 11925 N 1157.35 -1.41121 0.701616 0
M  V30 11926 C 1158.32 -2.29148 0.0490091 0
M  V30 11927 C 1159.32 -1.44679 -0.701763 0
M  V30 11928 O 1160.51 -1.65757 -0.53575 0
M  V30 11929 C 1157.64 -3.2766 -0.940837 0
M  V30 11930 H 1158.83 -2.88354 0.824133 0
M  V30 11931 H 1156.38 -1.49209 0.465457 0
M  V30 11932 H 1157.12 -2.73445 -1.74351 0
M  V30 11933 H 1156.9 -3.89997 -0.405551 0
M  V30 11934 H 1158.39 -3.93609 -1.39507 0
M  V30 11935 N 1158.83 -0.446794 -1.51134 0
M  V30 11936 C 1159.78 0.359865 -2.27977 0
M  V30 11937 C 1160.75 1.0086 -1.31972 0
M  V30 11938 O 1161.93 1.02569 -1.60886 0
M  V30 11939 C 1159.07 1.44978 -3.1317 0
M  V30 11940 C 1158.19 0.818243 -4.2418 0
M  V30 11941 C 1157.32 1.884 -4.96668 0
M  V30 11942 C 1156.36 1.2314 -5.99586 0
M  V30 11943 N 1155.5 2.23894 -6.65444 0
M  V30 11944 H 1160.34 -0.301775 -2.96468 0
M  V30 11945 H 1157.87 -0.160666 -1.4622 0
M  V30 11946 H 1159.83 2.09308 -3.60896 0
M  V30 11947 H 1158.46 2.08092 -2.46775 0
M  V30 11948 H 1157.51 0.0629889 -3.80348 0
M  V30 11949 H 1158.83 0.301885 -4.97886 0
M  V30 11950 H 1157.98 2.6037 -5.4799 0
M  V30 11951 H 1156.72 2.43411 -4.22614 0
M  V30 11952 H 1155.72 0.497215 -5.47547 0
M  V30 11953 H 1156.95 0.688505 -6.75601 0
M  V30 11954 H 1154.89 2.77967 -5.94197 0
M  V30 11955 H 1154.81 1.77176 -7.34945 0
M  V30 11956 H 1156.08 2.95318 -7.21393 0
M  V30 11957 N 1160.31 1.56586 -0.178487 0
M  V30 11958 C 1161.53 2.01915 0.473841 0
M  V30 11959 C 1161.96 1.05789 1.55533 0
M  V30 11960 O 1161.32 0.0386018 1.81259 0
M  V30 11961 C 1161.36 3.45799 1.02251 0
M  V30 11962 O 1160.47 3.52761 2.1362 0
M  V30 11963 H 1159.81 0.654372 0.112666 0
M  V30 11964 H 1162.34 2.02613 -0.284486 0
M  V30 11965 H 1162.35 3.85252 1.34332 0
M  V30 11966 H 1161.02 4.1526 0.230719 0
M  V30 11967 H 1159.6 3.25172 1.8253 0
M  V30 11968 N 1161.79 -0.095206 1.57312 0
M  V30 11969 C 1162.7 -1.13388 2.05379 0
M  V30 11970 C 1163.71 -1.43868 0.978668 0
M  V30 11971 O 1164.89 -1.54512 1.29182 0
M  V30 11972 C 1161.95 -2.43444 2.46852 0
M  V30 11973 C 1161.01 -2.20146 3.68557 0
M  V30 11974 C 1160.25 -3.44001 4.08043 0
M  V30 11975 O 1160.47 -4.52233 3.47623 0
M  V30 11976 O 1159.4 -3.33596 5.00997 0
M  V30 11977 H 1163.23 -0.755622 2.9415 0
M  V30 11978 H 1160.82 -0.307707 1.46197 0
M  V30 11979 H 1162.7 -3.20027 2.74155 0
M  V30 11980 H 1161.37 -2.80696 1.61219 0
M  V30 11981 H 1160.28 -1.41345 3.46371 0
M  V30 11982 H 1161.61 -1.87787 4.54969 0
M  V30 11983 N 1163.26 -1.53291 -0.366026 0
M  V30 11984 C 1164.51 -1.69117 -1.10653 0
M  V30 11985 C 1164.83 -0.445327 -1.89847 0
M  V30 11986 O 1164.1 0.540616 -1.88293 0
M  V30 11987 H 1162.68 -0.623446 -0.41149 0
M  V30 11988 H 1165.35 -1.90479 -0.412749 0
M  V30 11989 H 1164.44 -2.55205 -1.79658 0
M  V30 11990 N 1164.74 0.6258 -1.44643 0
M  V30 11991 C 1165.99 1.38251 -1.47414 0
M  V30 11992 C 1166.31 1.94689 -0.110043 0
M  V30 11993 O 1165.58 1.76095 0.858333 0
M  V30 11994 H 1164.16 0.513179 -0.542823 0
M  V30 11995 H 1166.82 0.736179 -1.80462 0
M  V30 11996 H 1165.92 2.21115 -2.2026 0
M  V30 11997 N 1166.22 1.31629 0.866686 0
M  V30 11998 C 1167.15 1.22151 1.99001 0
M  V30 11999 C 1168.13 0.107972 1.69757 0
M  V30 12000 O 1169.32 0.293125 1.91975 0
M  V30 12001 C 1166.45 0.93144 3.34577 0
M  V30 12002 C 1165.4 2.0049 3.78137 0
M  V30 12003 C 1164.73 1.56747 5.11209 0
M  V30 12004 C 1166.03 3.41844 3.94892 0
M  V30 12005 H 1167.72 2.16132 2.0719 0
M  V30 12006 H 1165.27 1.04051 0.995463 0
M  V30 12007 H 1167.22 0.851719 4.12703 0
M  V30 12008 H 1165.94 -0.0440289 3.2657 0
M  V30 12009 H 1164.6 2.07457 3.02253 0
M  V30 12010 H 1164.25 0.579767 4.99648 0
M  V30 12011 H 1163.95 2.28562 5.41326 0
M  V30 12012 H 1165.47 1.50188 5.91841 0
M  V30 12013 H 1166.89 3.37534 4.63405 0
M  V30 12014 H 1165.29 4.11905 4.36411 0
M  V30 12015 H 1166.36 3.82389 2.98172 0
M  V30 12016 N 1167.7 -1.08142 1.14644 0
M  V30 12017 C 1168.95 -1.80225 0.914517 0
M  V30 12018 C 1169.27 -1.86778 -0.560269 0
M  V30 12019 O 1168.54 -1.36284 -1.40724 0
M  V30 12020 H 1167.12 -0.667492 0.335356 0
M  V30 12021 H 1169.78 -1.30729 1.44554 0
M  V30 12022 H 1168.88 -2.82958 1.31685 0
M  V30 12023 N 1169.18 -0.941978 -1.26351 0
M  V30 12024 C 1170.43 -0.588806 -1.93333 0
M  V30 12025 C 1170.75 0.875067 -1.74263 0
M  V30 12026 O 1170.02 1.62187 -1.09873 0
M  V30 12027 H 1168.6 -0.214774 -0.715459 0
M  V30 12028 H 1171.26 -1.19747 -1.53774 0
M  V30 12029 H 1170.35 -0.807267 -3.01479 0
M  V30 12030 N 1170.66 1.40747 -0.709091 0
M  V30 12031 C 1171.6 2.32564 -0.0411392 0
M  V30 12032 C 1172.6 1.51692 0.75404 0
M  V30 12033 O 1173.8 1.67537 0.658139 0
M  V30 12034 H 1170.18 0.75198 0.00549889 0
M  V30 12035 H 1172.15 2.86556 -0.83235 0
M  V30 12036 C 1170.9 3.36604 0.871378 0
M  V30 12037 H 1170.22 3.98895 0.268912 0
M  V30 12038 H 1171.66 4.03359 1.30682 0
M  V30 12039 C 1170.12 2.71566 1.99384 0
M  V30 12040 O 1170.65 2.57392 3.08403 0
M  V30 12041 N 1168.86 2.3005 1.77554 0
M  V30 12042 H 1168.4 2.41778 0.888898 0
M  V30 12043 H 1168.36 1.8687 2.52838 0
M  V30 12044 N 1172.13 0.454803 1.50895 0
M  V30 12045 C 1173.38 -0.0981148 2.03163 0
M  V30 12046 C 1173.73 -1.38855 1.3318 0
M  V30 12047 O 1173.03 -1.86399 0.443407 0
M  V30 12048 C 1173.22 -0.354159 3.55641 0
M  V30 12049 C 1173.05 0.90991 4.40398 0
M  V30 12050 C 1171.82 1.44852 4.84093 0
M  V30 12051 C 1174.02 1.80088 4.81739 0
M  V30 12052 N 1172 2.66331 5.53119 0
M  V30 12053 C 1173.37 2.86162 5.5001 0
M  V30 12054 C 1175.43 1.81321 4.6371 0
M  V30 12055 C 1174.13 3.93438 6.02162 0
M  V30 12056 C 1176.16 2.87543 5.16791 0
M  V30 12057 C 1175.52 3.92336 5.85023 0
M  V30 12058 H 1171.62 0.00370972 0.781991 0
M  V30 12059 H 1174.2 0.619376 1.84586 0
M  V30 12060 H 1172.37 -1.04069 3.74198 0
M  V30 12061 H 1174.1 -0.899976 3.94566 0
M  V30 12062 H 1170.86 0.999972 4.62923 0
M  V30 12063 H 1171.28 3.27978 5.92249 0
M  V30 12064 H 1175.92 1.01627 4.10404 0
M  V30 12065 H 1173.64 4.73959 6.54514 0
M  V30 12066 H 1177.23 2.8946 5.04682 0
M  V30 12067 H 1176.11 4.73178 6.25358 0
M  V30 12068 N 1173.61 -1.56489 0.186789 0
M  V30 12069 C 1174.84 -2.01429 -0.459326 0
M  V30 12070 C 1175.25 -1.06611 -1.56303 0
M  V30 12071 O 1174.59 -0.0617053 -1.83596 0
M  V30 12072 C 1174.65 -3.42778 -1.08367 0
M  V30 12073 C 1174.32 -4.56843 -0.119719 0
M  V30 12074 C 1175.32 -5.15594 0.667782 0
M  V30 12075 C 1173 -5.02299 -0.0110494 0
M  V30 12076 C 1174.99 -6.18242 1.551 0
M  V30 12077 C 1172.68 -6.04793 0.875738 0
M  V30 12078 C 1173.68 -6.62637 1.65534 0
M  V30 12079 O 1173.37 -7.63141 2.52728 0
M  V30 12080 H 1173.1 -0.665175 -0.120492 0
M  V30 12081 H 1175.65 -2.03338 0.290283 0
M  V30 12082 H 1173.88 -3.3783 -1.8817 0
M  V30 12083 H 1175.57 -3.71577 -1.63357 0
M  V30 12084 H 1176.34 -4.81348 0.594085 0
M  V30 12085 H 1172.22 -4.56977 -0.607667 0
M  V30 12086 H 1175.76 -6.63319 2.15995 0
M  V30 12087 H 1171.66 -6.38462 0.950581 0
M  V30 12088 H 1172.43 -7.80527 2.46415 0
M  V30 12089 N 1175.09 0.086862 -1.5736 0
M  V30 12090 C 1176.05 1.08906 -2.01673 0
M  V30 12091 C 1177.05 1.32473 -0.911463 0
M  V30 12092 O 1178.24 1.28447 -1.17673 0
M  V30 12093 C 1175.37 2.43629 -2.38449 0
M  V30 12094 H 1176.57 0.707461 -2.91436 0
M  V30 12095 H 1174.12 0.332154 -1.5273 0
M  V30 12096 H 1174.86 2.8665 -1.51665 0
M  V30 12097 H 1174.64 2.2787 -3.19089 0
M  V30 12098 H 1176.13 3.15695 -2.73361 0
M  V30 12099 N 1176.57 1.53483 0.357892 0
M  V30 12100 C 1177.5 1.75257 1.46151 0
M  V30 12101 C 1178.48 0.601167 1.51079 0
M  V30 12102 O 1179.66 0.834661 1.69014 0
M  V30 12103 C 1176.79 1.8383 2.84472 0
M  V30 12104 C 1175.84 3.05866 2.97234 0
M  V30 12105 S 1176.67 4.65225 2.6519 0
M  V30 12106 C 1177.82 4.76657 4.05646 0
M  V30 12107 H 1178.06 2.6859 1.27462 0
M  V30 12108 H 1175.59 1.44169 0.552697 0
M  V30 12109 H 1177.55 1.89454 3.64167 0
M  V30 12110 H 1176.21 0.915345 3.00467 0
M  V30 12111 H 1175.4 3.08497 3.98555 0
M  V30 12112 H 1175 2.98393 2.25471 0
M  V30 12113 H 1177.3 4.57185 4.99988 0
M  V30 12114 H 1178.24 5.7873 4.08016 0
M  V30 12115 H 1178.65 4.05226 3.93004 0
M  V30 12116 N 1178.05 -0.61812 1.44973 0
M  V30 12117 C 1179.32 -1.37705 1.38913 0
M  V30 12118 C 1179.7 -2.1103 0.054385 0
M  V30 12119 O 1179.05 -2.07197 -0.963409 0
M  V30 12120 C 1179.26 -2.33265 2.59593 0
M  V30 12121 C 1180.61 -2.96197 3.04224 0
M  V30 12122 O 1181.63 -2.43589 2.59891 0
M  V30 12123 O 1180.49 -3.91666 3.8113 0
M  V30 12124 H 1177.59 -0.61694 0.55074 0
M  V30 12125 H 1180.13 -0.642088 1.57084 0
M  V30 12126 H 1178.9 -1.78271 3.48332 0
M  V30 12127 H 1178.53 -3.14158 2.43702 0
M  V30 12128 N 1179.52 -1.32087 -0.859693 0
M  V30 12129 C 1180.47 -1.20549 -1.98924 0
M  V30 12130 C 1181.47 -0.111422 -1.69033 0
M  V30 12131 O 1182.67 -0.27401 -1.77902 0
M  V30 12132 H 1179.05 -0.373538 -0.652667 0
M  V30 12133 H 1181.02 -2.16091 -2.05785 0
M  V30 12134 C 1179.77 -0.940226 -3.34746 0
M  V30 12135 H 1179.09 -1.77427 -3.58273 0
M  V30 12136 H 1180.53 -0.899712 -4.14344 0
M  V30 12137 C 1178.99 0.357042 -3.35003 0
M  V30 12138 O 1179.52 1.37054 -3.77596 0
M  V30 12139 N 1177.72 0.37723 -2.88141 0
M  V30 12140 H 1177.27 -0.448051 -2.53674 0
M  V30 12141 H 1177.23 1.24509 -2.88695 0
M  V30 12142 N 1181 1.07532 -1.15215 0
M  V30 12143 C 1182.23 1.84356 -0.950139 0
M  V30 12144 C 1182.65 1.81429 0.496502 0
M  V30 12145 O 1182.01 1.20589 1.35381 0
M  V30 12146 C 1182.06 3.29425 -1.46669 0
M  V30 12147 O 1181.16 4.07008 -0.664674 0
M  V30 12148 H 1180.5 0.570921 -0.339036 0
M  V30 12149 H 1183.03 1.35665 -1.53154 0
M  V30 12150 H 1183.04 3.8026 -1.47873 0
M  V30 12151 H 1181.72 3.3087 -2.51988 0
M  V30 12152 H 1180.29 3.65841 -0.72211 0
M  V30 12153 N 1182.48 0.948665 1.2585 0
M  V30 12154 C 1183.73 0.59905 1.93018 0
M  V30 12155 C 1184.05 -0.865813 1.74725 0
M  V30 12156 O 1183.32 -1.61602 1.10732 0
M  V30 12157 H 1181.9 0.218565 0.71431 0
M  V30 12158 H 1184.56 1.20561 1.53137 0
M  V30 12159 H 1183.66 0.823244 3.01047 0
M  V30 12160 N 1183.96 -1.40369 0.716545 0
M  V30 12161 C 1184.87 -2.34508 0.065658 0
M  V30 12162 C 1185.88 -1.57352 -0.742723 0
M  V30 12163 O 1187.06 -1.89735 -0.675456 0
M  V30 12164 C 1184.13 -3.36262 -0.844337 0
M  V30 12165 C 1183.19 -4.29292 -0.0257971 0
M  V30 12166 C 1182.42 -5.26185 -0.892452 0
M  V30 12167 O 1182.64 -5.29071 -2.13166 0
M  V30 12168 O 1181.58 -6.0099 -0.330933 0
M  V30 12169 H 1185.4 -2.91789 0.842184 0
M  V30 12170 H 1182.99 -1.41579 0.477034 0
M  V30 12171 H 1184.87 -3.98661 -1.36555 0
M  V30 12172 H 1183.54 -2.81393 -1.59999 0
M  V30 12173 H 1182.45 -3.70175 0.540512 0
M  V30 12174 H 1183.78 -4.87316 0.69166 0
M  V30 12175 N 1185.44 -0.462799 -1.50652 0
M  V30 12176 C 1186.39 0.354133 -2.25233 0
M  V30 12177 C 1187.37 0.968553 -1.28483 0
M  V30 12178 O 1188.56 0.882476 -1.53432 0
M  V30 12179 C 1185.69 1.44033 -3.11624 0
M  V30 12180 C 1184.78 0.834046 -4.15818 0
M  V30 12181 N 1185.17 -0.0407022 -5.05784 0
M  V30 12182 C 1183.47 1.0989 -4.3225 0
M  V30 12183 C 1184.17 -0.383917 -5.80432 0
M  V30 12184 N 1183.14 0.238851 -5.43075 0
M  V30 12185 H 1186.95 -0.319855 -2.92154 0
M  V30 12186 H 1184.46 -0.276428 -1.6003 0
M  V30 12187 H 1186.46 2.03868 -3.63653 0
M  V30 12188 H 1185.12 2.11639 -2.4625 0
M  V30 12189 H 1186.13 -0.408959 -5.16283 0
M  V30 12190 H 1182.8 1.77056 -3.78097 0
M  V30 12191 H 1184.19 -1.0973 -6.62879 0
M  V30 12192 N 1186.91 1.56388 -0.195085 0
M  V30 12193 C 1188.16 1.97872 0.444344 0
M  V30 12194 C 1188.49 1.0819 1.61271 0
M  V30 12195 O 1187.77 0.133904 1.94039 0
M  V30 12196 C 1188.05 3.48556 0.90449 0
M  V30 12197 C 1187.9 4.49015 -0.265693 0
M  V30 12198 C 1189.22 4.02938 1.76999 0
M  V30 12199 H 1186.34 0.719413 0.160041 0
M  V30 12200 H 1188.98 1.87835 -0.286005 0
M  V30 12201 H 1187.13 3.5724 1.52682 0
M  V30 12202 H 1188.81 4.52368 -0.903363 0
M  V30 12203 H 1187.05 4.23987 -0.917462 0
M  V30 12204 H 1187.72 5.51912 0.0987834 0
M  V30 12205 H 1190.2 3.97033 1.24514 0
M  V30 12206 H 1189.07 5.08741 2.06092 0
M  V30 12207 H 1189.33 3.48197 2.72418 0
M  V30 12208 N 1188.39 -0.0785156 1.57404 0
M  V30 12209 C 1189.62 -0.792042 1.9114 0
M  V30 12210 C 1190.04 -1.71458 0.790408 0
M  V30 12211 O 1189.39 -1.80959 -0.236662 0
M  V30 12212 C 1189.44 -1.59138 3.24588 0
M  V30 12213 O 1189.16 -0.705931 4.32375 0
M  V30 12214 C 1190.67 -2.4065 3.72293 0
M  V30 12215 H 1187.89 -0.225566 0.63195 0
M  V30 12216 H 1190.43 -0.0507929 2.04437 0
M  V30 12217 H 1188.58 -2.28498 3.12838 0
M  V30 12218 H 1189 -1.26121 5.09111 0
M  V30 12219 H 1190.47 -2.92204 4.68317 0
M  V30 12220 H 1190.95 -3.1987 3.00965 0
M  V30 12221 H 1191.56 -1.7646 3.86965 0
M  V30 12222 N 1189.87 -1.5367 -0.349747 0
M  V30 12223 C 1191.12 -1.71813 -1.08866 0
M  V30 12224 C 1191.47 -0.472299 -1.86513 0
M  V30 12225 O 1190.76 0.534996 -1.83979 0
M  V30 12226 C 1190.96 -2.91753 -2.06434 0
M  V30 12227 C 1190.79 -4.27881 -1.38377 0
M  V30 12228 C 1189.56 -4.92475 -1.13122 0
M  V30 12229 C 1191.76 -5.0783 -0.813198 0
M  V30 12230 N 1189.74 -6.1249 -0.415806 0
M  V30 12231 C 1191.11 -6.19581 -0.228008 0
M  V30 12232 C 1193.16 -4.92762 -0.713436 0
M  V30 12233 C 1191.87 -7.17908 0.447232 0
M  V30 12234 C 1193.89 -5.91377 -0.051947 0
M  V30 12235 C 1193.25 -7.02461 0.522299 0
M  V30 12236 H 1189.35 -0.681804 -0.382971 0
M  V30 12237 H 1191.94 -1.91093 -0.373029 0
M  V30 12238 H 1190.11 -2.73984 -2.75295 0
M  V30 12239 H 1191.84 -2.98644 -2.73118 0
M  V30 12240 H 1188.6 -4.51915 -1.41669 0
M  V30 12241 H 1189.02 -6.76961 -0.0730052 0
M  V30 12242 H 1193.66 -4.07053 -1.14315 0
M  V30 12243 H 1191.38 -8.03197 0.888855 0
M  V30 12244 H 1194.97 -5.81795 0.0245295 0
M  V30 12245 H 1193.85 -7.77459 1.02605 0
M  V30 12246 N 1191.35 0.610423 -1.45298 0
M  V30 12247 C 1192.76 0.930872 -1.29642 0
M  V30 12248 C 1192.96 1.99976 -0.247358 0
M  V30 12249 O 1192.02 2.49925 0.359674 0
M  V30 12250 C 1193.33 1.37449 -2.67448 0
M  V30 12251 C 1194.88 1.48885 -2.75322 0
M  V30 12252 C 1195.36 1.96624 -4.13646 0
M  V30 12253 N 1196.85 2.03862 -4.15926 0
M  V30 12254 C 1197.58 2.42015 -5.19823 0
M  V30 12255 N 1197.08 2.79157 -6.34069 0
M  V30 12256 N 1198.87 2.42329 -5.07181 0
M  V30 12257 H 1191.02 -0.0961259 -2.12182 0
M  V30 12258 H 1193.29 0.0196483 -0.947796 0
M  V30 12259 H 1192.99 0.663276 -3.45389 0
M  V30 12260 H 1192.87 2.34155 -2.95721 0
M  V30 12261 H 1195.25 2.19098 -1.97686 0
M  V30 12262 H 1195.33 0.505006 -2.50765 0
M  V30 12263 H 1194.98 1.26998 -4.91766 0
M  V30 12264 H 1194.91 2.95917 -4.35592 0
M  V30 12265 H 1197.4 1.77759 -3.33482 0
M  V30 12266 H 1197.71 3.07143 -7.09142 0
M  V30 12267 H 1196.06 2.7686 -6.37474 0
M  V30 12268 H 1199.25 2.12717 -4.16976 0
M  V30 12269 H 1199.42 2.71738 -5.88271 0
M  V30 12270 N 1192.83 1.32541 0.852676 0
M  V30 12271 C 1193.77 1.21643 1.96142 0
M  V30 12272 C 1194.74 0.0981496 1.6581 0
M  V30 12273 O 1195.93 0.27404 1.88822 0
M  V30 12274 C 1193.07 0.947483 3.31838 0
M  V30 12275 C 1192.18 2.15074 3.74656 0
M  V30 12276 C 1191.32 1.81711 4.99154 0
M  V30 12277 C 1190.36 2.98346 5.34468 0
M  V30 12278 N 1189.49 2.65062 6.50143 0
M  V30 12279 H 1194.33 2.16479 2.04795 0
M  V30 12280 H 1191.87 1.07664 1.00234 0
M  V30 12281 H 1193.83 0.772038 4.09994 0
M  V30 12282 H 1192.46 0.0359112 3.2278 0
M  V30 12283 H 1191.51 2.43639 2.92137 0
M  V30 12284 H 1192.82 3.02314 3.96747 0
M  V30 12285 H 1191.98 1.60729 5.85022 0
M  V30 12286 H 1190.71 0.916875 4.79004 0
M  V30 12287 H 1189.72 3.19956 4.47111 0
M  V30 12288 H 1190.94 3.89104 5.56574 0
M  V30 12289 H 1188.89 1.77582 6.31507 0
M  V30 12290 H 1188.81 3.45832 6.72262 0
M  V30 12291 H 1190.08 2.47516 7.39159 0
M  V30 12292 N 1194.3 -1.0692 1.15784 0
M  V30 12293 C 1195.53 -1.83045 0.958031 0
M  V30 12294 C 1195.94 -1.82555 -0.497027 0
M  V30 12295 O 1195.29 -1.23864 -1.35659 0
M  V30 12296 C 1195.35 -3.31096 1.40056 0
M  V30 12297 C 1195.01 -3.55299 2.87423 0
M  V30 12298 C 1196.01 -3.48875 3.85463 0
M  V30 12299 C 1193.69 -3.82824 3.25194 0
M  V30 12300 C 1195.69 -3.69633 5.19279 0
M  V30 12301 C 1193.37 -4.03232 4.59181 0
M  V30 12302 C 1194.37 -3.96633 5.56032 0
M  V30 12303 O 1194.06 -4.16492 6.87597 0
M  V30 12304 H 1193.79 -0.584218 0.340095 0
M  V30 12305 H 1196.35 -1.35841 1.54066 0
M  V30 12306 H 1194.58 -3.79131 0.761361 0
M  V30 12307 H 1196.27 -3.88697 1.16916 0
M  V30 12308 H 1197.03 -3.27608 3.57629 0
M  V30 12309 H 1192.91 -3.87073 2.50391 0
M  V30 12310 H 1196.45 -3.64398 5.94861 0
M  V30 12311 H 1192.35 -4.23988 4.86729 0
M  V30 12312 H 1193.12 -4.33815 6.9408 0
M  V30 12313 N 1195.78 -0.955326 -1.25345 0
M  V30 12314 C 1197.01 -0.626783 -1.96863 0
M  V30 12315 C 1197.42 0.80547 -1.71198 0
M  V30 12316 O 1196.76 1.55049 -0.985163 0
M  V30 12317 C 1196.83 -0.806404 -3.50339 0
M  V30 12318 C 1196.49 -2.21595 -3.99681 0
M  V30 12319 C 1197.49 -3.19268 -4.10322 0
M  V30 12320 C 1195.17 -2.54032 -4.33328 0
M  V30 12321 C 1197.17 -4.47471 -4.53926 0
M  V30 12322 C 1194.85 -3.82465 -4.76617 0
M  V30 12323 C 1195.85 -4.78997 -4.86879 0
M  V30 12324 O 1195.54 -6.0514 -5.29208 0
M  V30 12325 H 1195.27 -0.233854 -0.634262 0
M  V30 12326 H 1197.82 -1.28232 -1.60455 0
M  V30 12327 H 1196.05 -0.0937184 -3.86586 0
M  V30 12328 H 1197.74 -0.47881 -4.03066 0
M  V30 12329 H 1198.51 -2.95534 -3.84558 0
M  V30 12330 H 1194.39 -1.79623 -4.24566 0
M  V30 12331 H 1197.93 -5.22819 -4.6185 0
M  V30 12332 H 1193.83 -4.06005 -5.01827 0
M  V30 12333 H 1194.6 -6.08527 -5.47392 0
M  V30 12334 N 1197.26 1.39987 -0.723979 0
M  V30 12335 C 1198.51 1.99964 -0.26406 0
M  V30 12336 C 1198.82 1.58084 1.1519 0
M  V30 12337 O 1200.03 2.10819 1.71077 0
M  V30 12338 C 1198.49 3.57427 -0.421174 0
M  V30 12339 C 1198.09 4.08276 -1.84432 0
M  V30 12340 C 1199.84 4.24494 -0.0224734 0
M  V30 12341 C 1197.74 5.58272 -1.95157 0
M  V30 12342 H 1196.67 0.747995 -0.0949728 0
M  V30 12343 H 1199.33 1.60122 -0.896276 0
M  V30 12344 H 1197.71 3.95011 0.279762 0
M  V30 12345 H 1198.88 3.82051 -2.57631 0
M  V30 12346 H 1197.2 3.53834 -2.19523 0
M  V30 12347 H 1199.79 5.34637 -0.0817744 0
M  V30 12348 H 1200.14 4.03593 1.02069 0
M  V30 12349 H 1200.67 3.92046 -0.67416 0
M  V30 12350 H 1197.41 5.84038 -2.97623 0
M  V30 12351 H 1196.93 5.86335 -1.2638 0
M  V30 12352 H 1198.61 6.23509 -1.72759 0
M  V30 12353 N 1198.74 0.470782 1.50404 0
M  V30 12354 C 1199.69 -0.337584 2.30137 0
M  V30 12355 C 1200.68 -0.990673 1.37412 0
M  V30 12356 O 1201.89 -0.921813 1.54605 0
M  V30 12357 H 1198.26 -0.127707 0.741077 0
M  V30 12358 H 1200.23 0.355297 2.96277 0
M  V30 12359 C 1198.98 -1.40714 3.17954 0
M  V30 12360 H 1198.31 -0.913982 3.89213 0
M  V30 12361 H 1199.75 -1.94533 3.7674 0
M  V30 12362 C 1198.2 -2.40889 2.35529 0
M  V30 12363 O 1198.73 -3.46153 2.03816 0
M  V30 12364 N 1196.94 -2.126 1.98115 0
M  V30 12365 H 1196.49 -1.27023 2.24105 0
M  V30 12366 H 1196.45 -2.7986 1.43269 0
M  V30 12367 N 1200.22 -1.56282 0.203376 0
M  V30 12368 C 1201.46 -1.98105 -0.433844 0
M  V30 12369 C 1201.8 -1.09044 -1.60695 0
M  V30 12370 O 1201.07 -0.144193 -1.93965 0
M  V30 12371 C 1201.35 -3.4903 -0.885992 0
M  V30 12372 C 1201.21 -4.48867 0.289501 0
M  V30 12373 C 1202.53 -4.03871 -1.7486 0
M  V30 12374 H 1199.65 -0.720252 -0.156224 0
M  V30 12375 H 1202.29 -1.87681 0.295963 0
M  V30 12376 H 1200.44 -3.58045 -1.50785 0
M  V30 12377 H 1202.11 -4.51883 0.92734 0
M  V30 12378 H 1200.35 -4.23495 0.939934 0
M  V30 12379 H 1201.02 -5.51956 -0.0695128 0
M  V30 12380 H 1203.5 -3.97688 -1.22407 0
M  V30 12381 H 1202.38 -5.09827 -2.03391 0
M  V30 12382 H 1202.64 -3.49637 -2.70567 0
M  V30 12383 N 1201.7 0.070167 -1.57444 0
M  V30 12384 C 1202.94 0.774338 -1.89165 0
M  V30 12385 C 1203.3 1.7466 -0.797353 0
M  V30 12386 O 1204.5 2.49599 -0.997682 0
M  V30 12387 C 1202.77 1.46235 -3.26114 0
M  V30 12388 S 1204.33 2.20136 -3.79586 0
M  V30 12389 H 1201.15 0.257464 -0.662747 0
M  V30 12390 H 1203.75 0.0303734 -1.95476 0
M  V30 12391 H 1202.45 0.740942 -4.03656 0
M  V30 12392 H 1201.99 2.24571 -3.23004 0
M  V30 12393 H 1204 3.4668 -3.55003 0
M  V30 12394 N 1203.17 1.53854 0.341593 0
M  V30 12395 C 1204.59 1.44161 0.684821 0
M  V30 12396 C 1204.79 0.599929 1.92362 0
M  V30 12397 O 1203.85 0.0916771 2.52334 0
M  V30 12398 C 1205.16 2.87668 0.875637 0
M  V30 12399 C 1206.71 2.97455 0.974131 0
M  V30 12400 C 1207.18 4.42075 1.19725 0
M  V30 12401 N 1208.67 4.45609 1.2644 0
M  V30 12402 C 1209.41 5.54643 1.45459 0
M  V30 12403 N 1208.9 6.7368 1.61637 0
M  V30 12404 N 1210.7 5.4226 1.48022 0
M  V30 12405 H 1202.85 2.07069 -0.472883 0
M  V30 12406 H 1205.11 0.936114 -0.149648 0
M  V30 12407 H 1204.82 3.51681 0.0368595 0
M  V30 12408 H 1204.69 3.32731 1.7768 0
M  V30 12409 H 1207.08 2.33582 1.80343 0
M  V30 12410 H 1207.16 2.55751 0.0498282 0
M  V30 12411 H 1206.8 5.06529 0.372872 0
M  V30 12412 H 1206.73 4.81372 2.13515 0
M  V30 12413 H 1209.22 3.59831 1.15455 0
M  V30 12414 H 1209.54 7.52541 1.7579 0
M  V30 12415 H 1207.88 6.76622 1.5877 0
M  V30 12416 H 1211.07 4.48221 1.34966 0
M  V30 12417 H 1211.25 6.27293 1.62502 0
M  V30 12418 N 1204.65 -0.602709 1.4562 0
M  V30 12419 C 1206.06 -1.1847 1.44297 0
M  V30 12420 C 1206.41 -1.95434 0.17316 0
M  V30 12421 O 1205.54 -2.03894 -0.724986 0
M  V30 12422 C 1206.13 -2.15508 2.61422 0
M  V30 12423 C 1204.69 -2.69073 2.63204 0
M  V30 12424 C 1203.84 -1.44568 2.36633 0
M  V30 12425 H 1206.79 -0.391745 1.53789 0
M  V30 12426 H 1206.81 -2.98628 2.35799 0
M  V30 12427 H 1206.32 -1.59464 3.53826 0
M  V30 12428 H 1204.42 -3.29042 1.7482 0
M  V30 12429 H 1204.54 -3.13173 3.62573 0
M  V30 12430 H 1202.9 -1.73692 1.86287 0
M  V30 12431 H 1203.68 -0.903852 3.31188 0
M  V30 12432 N 1206.13 -1.32992 -0.845635 0
M  V30 12433 C 1207.06 -1.25301 -1.97033 0
M  V30 12434 C 1208.04 -0.134966 -1.69564 0
M  V30 12435 O 1209.23 -0.323629 -1.91484 0
M  V30 12436 C 1206.36 -0.984551 -3.33052 0
M  V30 12437 C 1205.31 -2.06481 -3.749 0
M  V30 12438 C 1204.64 -1.6486 -5.08651 0
M  V30 12439 C 1205.94 -3.48083 -3.89404 0
M  V30 12440 H 1207.63 -2.194 -2.03725 0
M  V30 12441 H 1205.18 -1.05621 -0.978783 0
M  V30 12442 H 1207.13 -0.917269 -4.11296 0
M  V30 12443 H 1205.85 -0.00793116 -3.26599 0
M  V30 12444 H 1204.51 -2.1224 -2.98915 0
M  V30 12445 H 1204.16 -0.659183 -4.98662 0
M  V30 12446 H 1203.86 -2.37145 -5.37621 0
M  V30 12447 H 1205.38 -1.59585 -5.89377 0
M  V30 12448 H 1206.8 -3.44863 -4.57976 0
M  V30 12449 H 1205.19 -4.18796 -4.29802 0
M  V30 12450 H 1206.26 -3.87084 -2.92051 0
M  V30 12451 N 1207.61 1.06304 -1.1635 0
M  V30 12452 C 1208.56 2.15879 -0.865967 0
M  V30 12453 C 1209.55 1.68595 0.164929 0
M  V30 12454 O 1210.76 1.7999 0.0189271 0
M  V30 12455 H 1207.13 0.704721 -0.262435 0
M  V30 12456 H 1209.1 2.38185 -1.79751 0
M  V30 12457 C 1207.85 3.4558 -0.383374 0
M  V30 12458 H 1207.17 3.82356 -1.16806 0
M  V30 12459 H 1208.61 4.2346 -0.213964 0
M  V30 12460 C 1207.07 3.24738 0.897044 0
M  V30 12461 O 1207.6 3.50284 1.96632 0
M  V30 12462 N 1205.81 2.78172 0.840761 0
M  V30 12463 H 1205.36 2.57583 -0.029584 0
M  V30 12464 H 1205.31 2.64606 1.69797 0
M  V30 12465 N 1209.09 0.96196 1.24836 0
M  V30 12466 C 1210.5 0.660388 1.7463 0
M  V30 12467 C 1210.85 -0.824064 1.78055 0
M  V30 12468 O 1209.97 -1.64485 1.40619 0
M  V30 12469 C 1210.57 1.19205 3.17137 0
M  V30 12470 C 1209.13 0.940493 3.64461 0
M  V30 12471 C 1208.27 1.33076 2.43282 0
M  V30 12472 H 1211.22 1.13794 1.1062 0
M  V30 12473 H 1211.25 0.555595 3.76422 0
M  V30 12474 H 1210.76 2.27247 3.14612 0
M  V30 12475 H 1208.86 -0.124645 3.72391 0
M  V30 12476 H 1208.97 1.5821 4.52224 0
M  V30 12477 H 1207.34 0.749139 2.43434 0
M  V30 12478 H 1208.12 2.42055 2.43442 0
M  V30 12479 N 1210.56 -1.39601 0.731392 0
M  V30 12480 C 1211.81 -2.00883 0.278168 0
M  V30 12481 C 1212.14 -1.57897 -1.13059 0
M  V30 12482 O 1211.42 -0.806203 -1.77005 0
M  V30 12483 C 1211.7 -3.58132 0.375969 0
M  V30 12484 C 1211.55 -4.11147 1.82423 0
M  V30 12485 C 1212.87 -4.39425 -0.243702 0
M  V30 12486 H 1209.99 -0.729831 0.102549 0
M  V30 12487 H 1212.63 -1.65859 0.926869 0
M  V30 12488 H 1210.78 -3.881 -0.176329 0
M  V30 12489 H 1212.46 -3.91914 2.43313 0
M  V30 12490 H 1210.7 -3.64842 2.34675 0
M  V30 12491 H 1211.37 -5.20291 1.84396 0
M  V30 12492 H 1213.85 -4.1548 0.227067 0
M  V30 12493 H 1212.72 -5.48709 -0.144907 0
M  V30 12494 H 1212.98 -4.21642 -1.32929 0
M  V30 12495 N 1212.04 -0.478751 -1.50152 0
M  V30 12496 C 1213.45 -0.0254907 -1.86683 0
M  V30 12497 C 1213.8 1.38171 -1.39295 0
M  V30 12498 O 1212.93 2.0257 -0.761207 0
M  V30 12499 C 1213.52 -0.0394819 -3.38777 0
M  V30 12500 C 1212.08 0.35834 -3.7469 0
M  V30 12501 C 1211.23 -0.421667 -2.74075 0
M  V30 12502 H 1214.18 -0.692653 -1.42787 0
M  V30 12503 H 1214.2 0.760957 -3.72813 0
M  V30 12504 H 1213.71 -1.06378 -3.73236 0
M  V30 12505 H 1211.82 1.38671 -3.45834 0
M  V30 12506 H 1211.93 0.0543589 -4.79069 0
M  V30 12507 H 1210.29 0.125634 -2.5439 0
M  V30 12508 H 1211.08 -1.44562 -3.11379 0
M  V30 12509 N 1213.52 1.56172 -0.211661 0
M  V30 12510 C 1214.77 1.97648 0.421871 0
M  V30 12511 C 1215.09 1.10026 1.60995 0
M  V30 12512 O 1214.36 0.175109 1.95116 0
M  V30 12513 H 1212.94 0.729914 0.158852 0
M  V30 12514 H 1215.6 1.92542 -0.302254 0
M  V30 12515 H 1214.7 3.02834 0.754868 0
M  V30 12516 N 1215 -0.0618163 1.57479 0
M  V30 12517 C 1216.24 -0.764296 1.89573 0
M  V30 12518 C 1216.6 -1.74235 0.806605 0
M  V30 12519 O 1217.8 -2.49067 1.0109 0
M  V30 12520 C 1216.07 -1.44503 3.26885 0
M  V30 12521 S 1217.63 -2.1812 3.80748 0
M  V30 12522 H 1214.45 -0.253946 0.664103 0
M  V30 12523 H 1217.05 -0.0200064 1.9549 0
M  V30 12524 H 1215.76 -0.719525 4.04043 0
M  V30 12525 H 1215.29 -2.22855 3.2419 0
M  V30 12526 H 1217.3 -3.44793 3.56837 0
M  V30 12527 N 1216.48 -1.54033 -0.333429 0
M  V30 12528 C 1217.42 -1.83441 -1.43011 0
M  V30 12529 C 1218.42 -0.705592 -1.54006 0
M  V30 12530 O 1219.62 -0.889098 -1.56509 0
M  V30 12531 H 1216 -0.581326 -0.477037 0
M  V30 12532 H 1217.97 -2.75172 -1.15426 0
M  V30 12533 C 1216.72 -2.0698 -2.79382 0
M  V30 12534 H 1216.04 -2.93297 -2.71692 0
M  V30 12535 H 1217.48 -2.31517 -3.55212 0
M  V30 12536 C 1215.94 -0.85835 -3.25782 0
M  V30 12537 O 1216.47 -0.062739 -4.01651 0
M  V30 12538 N 1214.68 -0.672738 -2.82706 0
M  V30 12539 H 1214.22 -1.32136 -2.21128 0
M  V30 12540 H 1214.18 0.136347 -3.14104 0
M  V30 12541 N 1217.95 0.594978 -1.45938 0
M  V30 12542 C 1219.37 0.917069 -1.30622 0
M  V30 12543 C 1219.57 1.99702 -0.268554 0
M  V30 12544 O 1218.63 2.50293 0.333146 0
M  V30 12545 C 1219.94 1.34604 -2.68891 0
M  V30 12546 C 1221.49 1.45957 -2.76886 0
M  V30 12547 C 1221.96 1.92225 -4.15708 0
M  V30 12548 N 1223.45 1.99439 -4.18065 0
M  V30 12549 C 1224.19 2.36488 -5.22361 0
M  V30 12550 N 1223.68 2.72416 -6.36994 0
M  V30 12551 N 1225.48 2.36936 -5.09723 0
M  V30 12552 H 1217.63 -0.118625 -2.12068 0
M  V30 12553 H 1219.89 0.00959453 -0.947951 0
M  V30 12554 H 1219.6 0.626605 -3.46073 0
M  V30 12555 H 1219.47 2.31006 -2.98188 0
M  V30 12556 H 1221.86 2.16989 -1.99999 0
M  V30 12557 H 1221.94 0.47838 -2.51287 0
M  V30 12558 H 1221.58 1.21775 -4.93085 0
M  V30 12559 H 1221.51 2.9128 -4.38707 0
M  V30 12560 H 1224 1.74212 -3.35349 0
M  V30 12561 H 1224.32 2.99604 -7.1236 0
M  V30 12562 H 1222.66 2.70083 -6.40375 0
M  V30 12563 H 1225.85 2.08282 -4.19209 0
M  V30 12564 H 1226.03 2.65483 -5.9112 0
M  V30 12565 N 1219.43 1.33438 0.838571 0
M  V30 12566 C 1220.66 1.27766 1.62356 0
M  V30 12567 C 1221.07 -0.15359 1.88576 0
M  V30 12568 O 1220.41 -1.10626 1.46654 0
M  V30 12569 C 1220.48 1.98435 2.99773 0
M  V30 12570 C 1220.14 3.47741 2.96522 0
M  V30 12571 C 1221.14 4.42938 2.72217 0
M  V30 12572 C 1218.82 3.89922 3.16648 0
M  V30 12573 C 1220.82 5.7829 2.68066 0
M  V30 12574 C 1218.5 5.25378 3.12123 0
M  V30 12575 C 1219.5 6.19374 2.87863 0
M  V30 12576 O 1219.19 7.52349 2.83242 0
M  V30 12577 H 1218.92 0.441527 0.511889 0
M  V30 12578 H 1221.47 1.76377 1.05262 0
M  V30 12579 H 1219.7 1.44415 3.58721 0
M  V30 12580 H 1221.39 1.86258 3.60642 0
M  V30 12581 H 1222.16 4.11673 2.56418 0
M  V30 12582 H 1218.04 3.17169 3.34552 0
M  V30 12583 H 1221.58 6.51629 2.4905 0
M  V30 12584 H 1217.48 5.56267 3.27471 0
M  V30 12585 H 1218.25 7.61901 2.99082 0
M  V30 12586 N 1220.91 -1.05686 1.16912 0
M  V30 12587 C 1221.87 -2.11481 0.883647 0
M  V30 12588 C 1222.87 -1.60321 -0.124034 0
M  V30 12589 O 1224.06 -1.73868 0.107566 0
M  V30 12590 C 1221.2 -3.3937 0.322649 0
M  V30 12591 H 1222.39 -2.38239 1.8216 0
M  V30 12592 H 1219.94 -1.2185 0.978895 0
M  V30 12593 H 1220.68 -3.18266 -0.622695 0
M  V30 12594 H 1220.46 -3.77812 1.04883 0
M  V30 12595 H 1221.95 -4.17362 0.141072 0
M  V30 12596 N 1222.39 -0.968567 -1.24324 0
M  V30 12597 C 1223.61 -0.648166 -1.97012 0
M  V30 12598 C 1224.04 0.775842 -1.71354 0
M  V30 12599 O 1223.4 1.52672 -0.977804 0
M  V30 12600 C 1223.44 -0.929974 -3.48402 0
M  V30 12601 O 1222.55 -0.015854 -4.12397 0
M  V30 12602 H 1221.89 -0.244961 -0.617163 0
M  V30 12603 H 1224.42 -1.29895 -1.58077 0
M  V30 12604 H 1224.43 -0.861863 -3.98793 0
M  V30 12605 H 1223.1 -1.96776 -3.66404 0
M  V30 12606 H 1221.68 -0.137361 -3.72647 0
M  V30 12607 N 1223.87 1.39211 -0.738786 0
M  V30 12608 C 1224.83 2.28937 -0.109746 0
M  V30 12609 C 1225.83 1.46488 0.663157 0
M  V30 12610 O 1227.02 1.67119 0.491614 0
M  V30 12611 C 1224.15 3.30039 0.853633 0
M  V30 12612 H 1225.34 2.86068 -0.900295 0
M  V30 12613 H 1222.9 1.47922 -0.504853 0
M  V30 12614 H 1223.63 2.77971 1.6704 0
M  V30 12615 H 1223.42 3.90935 0.302007 0
M  V30 12616 H 1224.91 3.97169 1.29022 0
M  V30 12617 N 1225.34 0.486708 1.49896 0
M  V30 12618 C 1226.58 -0.0613987 2.04308 0
M  V30 12619 C 1226.95 -1.3558 1.35948 0
M  V30 12620 O 1228.15 -1.98726 1.81001 0
M  V30 12621 C 1226.42 -0.225167 3.5669 0
M  V30 12622 S 1227.98 -0.729581 4.32692 0
M  V30 12623 H 1224.8 -0.00856238 0.710948 0
M  V30 12624 H 1227.4 0.657414 1.84115 0
M  V30 12625 H 1226.1 0.722447 4.03991 0
M  V30 12626 H 1225.63 -0.969639 3.81263 0
M  V30 12627 H 1227.65 -2.00082 4.54072 0
M  V30 12628 N 1226.82 -1.56058 0.219941 0
M  V30 12629 C 1227.76 -2.17494 -0.723133 0
M  V30 12630 C 1228.77 -1.14356 -1.15873 0
M  V30 12631 O 1229.96 -1.41343 -1.09016 0
M  V30 12632 C 1227.06 -2.74242 -1.99109 0
M  V30 12633 C 1226.23 -4.02533 -1.71132 0
M  V30 12634 C 1225.29 -4.43862 -2.82618 0
M  V30 12635 O 1224.32 -5.10792 -2.51157 0
M  V30 12636 N 1225.52 -4.09412 -4.11537 0
M  V30 12637 H 1228.28 -2.99048 -0.197619 0
M  V30 12638 H 1225.84 -1.61853 0.0388738 0
M  V30 12639 H 1227.84 -2.98862 -2.7288 0
M  V30 12640 H 1226.41 -1.97 -2.42713 0
M  V30 12641 H 1225.63 -3.85786 -0.810128 0
M  V30 12642 H 1226.91 -4.86227 -1.49868 0
M  V30 12643 H 1226.31 -3.55624 -4.39941 0
M  V30 12644 H 1224.87 -4.38928 -4.81857 0
M  V30 12645 N 1228.3 0.053464 -1.57509 0
M  V30 12646 C 1229.23 1.09391 -2.00272 0
M  V30 12647 C 1230.21 1.36553 -0.882727 0
M  V30 12648 O 1231.4 1.4962 -1.14657 0
M  V30 12649 C 1228.52 2.43424 -2.35505 0
M  V30 12650 C 1227.57 2.32278 -3.577 0
M  V30 12651 S 1228.4 1.69939 -5.0782 0
M  V30 12652 C 1229.56 3.05512 -5.46272 0
M  V30 12653 H 1229.79 0.729569 -2.88209 0
M  V30 12654 H 1227.32 0.262633 -1.5215 0
M  V30 12655 H 1229.28 3.20515 -2.56477 0
M  V30 12656 H 1227.94 2.77013 -1.48064 0
M  V30 12657 H 1227.14 3.31165 -3.79928 0
M  V30 12658 H 1226.74 1.63327 -3.36453 0
M  V30 12659 H 1229.03 4.0184 -5.45464 0
M  V30 12660 H 1229.97 2.88043 -6.46867 0
M  V30 12661 H 1230.38 3.06962 -4.73745 0
M  V30 12662 N 1229.78 1.54207 0.325255 0
M  V30 12663 C 1230.73 1.83474 1.40021 0
M  V30 12664 C 1231.7 0.681719 1.51466 0
M  V30 12665 O 1232.88 0.92798 1.66713 0
M  V30 12666 C 1230.02 2.06624 2.76407 0
M  V30 12667 C 1229.13 3.3431 2.73607 0
M  V30 12668 C 1228.27 3.4743 4.01828 0
M  V30 12669 C 1227.31 4.68997 3.93329 0
M  V30 12670 N 1226.45 4.79052 5.13277 0
M  V30 12671 H 1231.29 2.75182 1.14363 0
M  V30 12672 H 1228.82 1.36284 0.553639 0
M  V30 12673 H 1230.78 2.18037 3.5569 0
M  V30 12674 H 1229.41 1.18209 3.00377 0
M  V30 12675 H 1228.46 3.31643 1.86324 0
M  V30 12676 H 1229.77 4.237 2.6321 0
M  V30 12677 H 1228.93 3.58376 4.89542 0
M  V30 12678 H 1227.67 2.56128 4.1503 0
M  V30 12679 H 1226.67 4.58109 3.04 0
M  V30 12680 H 1227.9 5.61681 3.81695 0
M  V30 12681 H 1225.84 3.90666 5.26988 0
M  V30 12682 H 1225.76 5.62406 5.05208 0
M  V30 12683 H 1227.03 4.94328 6.02711 0
M  V30 12684 N 1231.26 -0.58723 1.46251 0
M  V30 12685 C 1232.49 -1.36976 1.54665 0
M  V30 12686 C 1232.9 -1.88293 0.185079 0
M  V30 12687 O 1232.24 -1.64028 -0.82707 0
M  V30 12688 C 1232.3 -2.59591 2.48702 0
M  V30 12689 C 1231.96 -2.29773 3.95036 0
M  V30 12690 C 1232.96 -1.88885 4.84374 0
M  V30 12691 C 1230.65 -2.42057 4.40129 0
M  V30 12692 C 1232.64 -1.60669 6.16818 0
M  V30 12693 C 1230.33 -2.13454 5.72609 0
M  V30 12694 C 1231.33 -1.72824 6.60773 0
M  V30 12695 O 1231.01 -1.44569 7.90794 0
M  V30 12696 H 1230.75 -0.424968 0.525717 0
M  V30 12697 H 1233.3 -0.721298 1.92319 0
M  V30 12698 H 1231.53 -3.27226 2.06058 0
M  V30 12699 H 1233.22 -3.21656 2.47573 0
M  V30 12700 H 1233.98 -1.78913 4.50794 0
M  V30 12701 H 1229.86 -2.72644 3.71734 0
M  V30 12702 H 1233.41 -1.28882 6.85591 0
M  V30 12703 H 1229.3 -2.23048 6.05739 0
M  V30 12704 H 1230.07 -1.58452 8.03016 0
M  V30 12705 N 1232.74 -1.33881 -0.831482 0
M  V30 12706 C 1233.65 -1.26802 -1.97379 0
M  V30 12707 C 1234.66 -0.177233 -1.73095 0
M  V30 12708 O 1235.84 -0.402163 -1.97344 0
M  V30 12709 C 1232.9 -1.01474 -3.31517 0
M  V30 12710 C 1231.96 -2.19626 -3.68867 0
M  V30 12711 C 1231.2 -1.95497 -4.96605 0
M  V30 12712 O 1231.42 -0.908948 -5.63111 0
M  V30 12713 O 1230.35 -2.82226 -5.31632 0
M  V30 12714 H 1234.18 -2.22883 -2.06293 0
M  V30 12715 H 1231.76 -1.14001 -0.965613 0
M  V30 12716 H 1233.65 -0.890954 -4.11874 0
M  V30 12717 H 1232.32 -0.0842656 -3.2359 0
M  V30 12718 H 1231.23 -2.37561 -2.88991 0
M  V30 12719 H 1232.56 -3.11034 -3.81469 0
M  V30 12720 N 1234.21 1.05064 -1.1747 0
M  V30 12721 C 1235.16 2.12841 -0.89259 0
M  V30 12722 C 1236.13 1.65288 0.16402 0
M  V30 12723 O 1237.32 1.90782 0.026537 0
M  V30 12724 C 1234.46 3.42614 -0.41344 0
M  V30 12725 C 1233.57 4.03835 -1.53432 0
M  V30 12726 C 1232.7 5.21531 -1.00891 0
M  V30 12727 C 1231.74 5.74761 -2.10515 0
M  V30 12728 N 1230.88 6.83756 -1.59442 0
M  V30 12729 H 1235.72 2.36312 -1.81551 0
M  V30 12730 H 1233.26 1.15929 -0.905483 0
M  V30 12731 H 1235.21 4.17035 -0.117181 0
M  V30 12732 H 1233.84 3.19323 0.472517 0
M  V30 12733 H 1232.9 3.2684 -1.94627 0
M  V30 12734 H 1234.21 4.3938 -2.36108 0
M  V30 12735 H 1233.36 6.03027 -0.666575 0
M  V30 12736 H 1232.1 4.87464 -0.151608 0
M  V30 12737 H 1231.11 4.91893 -2.45604 0
M  V30 12738 H 1232.33 6.10875 -2.96663 0
M  V30 12739 H 1230.28 6.51584 -0.759849 0
M  V30 12740 H 1230.19 7.18311 -2.35724 0
M  V30 12741 H 1231.46 7.68901 -1.28105 0
M  V30 12742 N 1235.69 0.975146 1.23809 0
M  V30 12743 C 1236.97 0.557725 1.8748 0
M  V30 12744 C 1237.35 -0.965164 1.87744 0
M  V30 12745 O 1236.7 -1.83966 1.35531 0
M  V30 12746 C 1236.91 1.15777 3.29236 0
M  V30 12747 C 1238.25 1.24726 4.05868 0
M  V30 12748 O 1239.28 1.11084 3.38436 0
M  V30 12749 O 1238.14 1.46373 5.26533 0
M  V30 12750 H 1235.23 0.187045 0.80557 0
M  V30 12751 H 1237.78 1.06989 1.31725 0
M  V30 12752 H 1236.55 2.20023 3.23583 0
M  V30 12753 H 1236.17 0.630103 3.92575 0
M  V30 12754 N 1237.17 -1.38817 0.746158 0
M  V30 12755 C 1238.1 -2.29081 0.0737986 0
M  V30 12756 C 1239.11 -1.47377 -0.691656 0
M  V30 12757 O 1240.3 -1.70326 -0.533973 0
M  V30 12758 C 1237.4 -3.26185 -0.919607 0
M  V30 12759 C 1236.58 -4.36879 -0.213349 0
M  V30 12760 C 1235.64 -5.1422 -1.11644 0
M  V30 12761 O 1234.66 -5.66137 -0.589747 0
M  V30 12762 N 1235.86 -5.26488 -2.44521 0
M  V30 12763 H 1238.63 -2.87424 0.848966 0
M  V30 12764 H 1236.19 -1.50518 0.596314 0
M  V30 12765 H 1238.18 -3.74802 -1.52662 0
M  V30 12766 H 1236.75 -2.68793 -1.5959 0
M  V30 12767 H 1235.97 -3.89994 0.574285 0
M  V30 12768 H 1237.26 -5.08053 0.275655 0
M  V30 12769 H 1236.66 -4.85846 -2.89777 0
M  V30 12770 H 1235.21 -5.78505 -3.00291 0
M  V30 12771 N 1238.65 -0.49465 -1.49636 0
M  V30 12772 C 1239.9 0.0520143 -2.02033 0
M  V30 12773 C 1240.22 1.38071 -1.37701 0
M  V30 12774 O 1239.49 1.88589 -0.530181 0
M  V30 12775 H 1238.07 0.0222123 -0.74667 0
M  V30 12776 H 1240.73 -0.650445 -1.83726 0
M  V30 12777 H 1239.82 0.186337 -3.11543 0
M  V30 12778 N 1240.13 1.55939 -0.228214 0
M  V30 12779 C 1241.35 2.0332 0.409364 0
M  V30 12780 C 1241.78 1.10683 1.52088 0
M  V30 12781 O 1241.13 0.0962484 1.81044 0
M  V30 12782 C 1241.18 3.48877 0.911981 0
M  V30 12783 O 1240.29 3.59378 2.02289 0
M  V30 12784 H 1239.63 0.657625 0.0917909 0
M  V30 12785 H 1242.16 2.01605 -0.348802 0
M  V30 12786 H 1242.17 3.89331 1.22007 0
M  V30 12787 H 1240.84 4.15783 0.0984902 0
M  V30 12788 H 1239.42 3.30815 1.72093 0
M  V30 12789 N 1241.6 -0.0451101 1.57535 0
M  V30 12790 C 1242.85 -0.739114 1.88529 0
M  V30 12791 C 1243.18 -1.76208 0.823468 0
M  V30 12792 O 1242.43 -1.94893 -0.177512 0
M  V30 12793 C 1242.73 -1.45938 3.26247 0
M  V30 12794 C 1242.4 -0.57391 4.47233 0
M  V30 12795 C 1241.06 -0.329974 4.80067 0
M  V30 12796 C 1243.41 0.0384272 5.21186 0
M  V30 12797 C 1240.74 0.535339 5.84253 0
M  V30 12798 C 1243.09 0.891349 6.26289 0
M  V30 12799 C 1241.76 1.1449 6.57608 0
M  V30 12800 H 1241.03 -0.270461 0.689878 0
M  V30 12801 H 1243.67 0.000714103 1.915 0
M  V30 12802 H 1241.98 -2.27212 3.1919 0
M  V30 12803 H 1243.68 -2.00162 3.47471 0
M  V30 12804 H 1240.27 -0.774181 4.2155 0
M  V30 12805 H 1244.45 -0.137096 4.96111 0
M  V30 12806 H 1239.71 0.740253 6.06902 0
M  V30 12807 H 1243.88 1.37243 6.82743 0
M  V30 12808 H 1241.51 1.81715 7.38162 0
M  V30 12809 N 1243.08 -1.54377 -0.317073 0
M  V30 12810 C 1244.31 -1.76865 -1.07362 0
M  V30 12811 C 1244.73 -0.520354 -1.81488 0
M  V30 12812 O 1244.08 0.509213 -1.75252 0
M  V30 12813 C 1244.13 -2.96598 -2.06668 0
M  V30 12814 O 1243.85 -4.16602 -1.35552 0
M  V30 12815 C 1245.36 -3.31348 -2.94489 0
M  V30 12816 H 1242.58 -0.590277 -0.319083 0
M  V30 12817 H 1245.12 -2.01284 -0.361227 0
M  V30 12818 H 1243.27 -2.74433 -2.73432 0
M  V30 12819 H 1243.69 -4.83996 -2.02108 0
M  V30 12820 H 1245.16 -4.1841 -3.60051 0
M  V30 12821 H 1245.64 -2.48797 -3.61935 0
M  V30 12822 H 1246.25 -3.55614 -2.33278 0
M  V30 12823 N 1244.56 0.579466 -1.4656 0
M  V30 12824 C 1245.47 1.71609 -1.59961 0
M  V30 12825 C 1246.49 1.67162 -0.483002 0
M  V30 12826 O 1247.66 1.87012 -0.747561 0
M  V30 12827 C 1244.73 3.08114 -1.58954 0
M  V30 12828 C 1243.79 3.238 -2.81872 0
M  V30 12829 C 1243.02 4.53794 -2.80904 0
M  V30 12830 O 1243.24 5.37884 -1.89835 0
M  V30 12831 O 1242.18 4.72796 -3.72488 0
M  V30 12832 H 1246 1.6325 -2.56092 0
M  V30 12833 H 1243.59 0.746891 -1.2939 0
M  V30 12834 H 1245.47 3.8939 -1.611 0
M  V30 12835 H 1244.15 3.16903 -0.65984 0
M  V30 12836 H 1243.05 2.42006 -2.85279 0
M  V30 12837 H 1244.39 3.19904 -3.74062 0
M  V30 12838 N 1246.04 1.3432 0.824371 0
M  V30 12839 C 1247.28 1.26783 1.58284 0
M  V30 12840 C 1247.62 -0.162282 1.93521 0
M  V30 12841 O 1246.89 -1.1073 1.59903 0
M  V30 12842 C 1247.18 2.15725 2.88331 0
M  V30 12843 C 1247.03 3.67266 2.59684 0
M  V30 12844 C 1248.35 2.04141 3.8989 0
M  V30 12845 H 1245.47 0.461893 0.574303 0
M  V30 12846 H 1248.11 1.64558 0.949769 0
M  V30 12847 H 1246.26 1.83639 3.42358 0
M  V30 12848 H 1247.93 4.09711 2.11978 0
M  V30 12849 H 1246.17 3.88426 1.93151 0
M  V30 12850 H 1246.84 4.24863 3.52414 0
M  V30 12851 H 1249.32 2.3231 3.45212 0
M  V30 12852 H 1248.2 2.68601 4.7869 0
M  V30 12853 H 1248.46 1.01795 4.30221 0
M  V30 12854 N 1247.52 -1.0444 1.18026 0
M  V30 12855 C 1248.76 -1.77838 0.974756 0
M  V30 12856 C 1249.1 -1.87792 -0.494755 0
M  V30 12857 O 1248.37 -1.38327 -1.36733 0
M  V30 12858 C 1248.65 -3.21315 1.62569 0
M  V30 12859 C 1248.51 -3.19327 3.16781 0
M  V30 12860 C 1249.83 -4.19337 1.33583 0
M  V30 12861 H 1246.94 -0.645575 0.35553 0
M  V30 12862 H 1249.59 -1.22023 1.45638 0
M  V30 12863 H 1247.74 -3.68974 1.21617 0
M  V30 12864 H 1249.41 -2.79687 3.66842 0
M  V30 12865 H 1247.65 -2.57461 3.49137 0
M  V30 12866 H 1248.32 -4.20626 3.5746 0
M  V30 12867 H 1250.8 -3.80208 1.69059 0
M  V30 12868 H 1249.67 -5.17953 1.81702 0
M  V30 12869 H 1249.94 -4.41346 0.258016 0
M  V30 12870 N 1248.99 -0.981699 -1.2329 0
M  V30 12871 C 1250.22 -0.669025 -1.96313 0
M  V30 12872 C 1250.64 0.757624 -1.72168 0
M  V30 12873 O 1250 1.51626 -0.993942 0
M  V30 12874 C 1250.05 -0.966875 -3.47396 0
M  V30 12875 O 1249.15 -0.0595933 -4.12357 0
M  V30 12876 H 1248.5 -0.251493 -0.61453 0
M  V30 12877 H 1251.03 -1.31564 -1.56691 0
M  V30 12878 H 1251.04 -0.904112 -3.97857 0
M  V30 12879 H 1249.71 -2.00651 -3.64296 0
M  V30 12880 H 1248.29 -0.176878 -3.7248 0
M  V30 12881 N 1250.47 1.3842 -0.753509 0
M  V30 12882 C 1251.72 1.99359 -0.306416 0
M  V30 12883 C 1252.03 1.60492 1.11811 0
M  V30 12884 O 1253.24 2.14401 1.66567 0
M  V30 12885 C 1251.7 3.56453 -0.496895 0
M  V30 12886 C 1251.3 4.04272 -1.9305 0
M  V30 12887 C 1253.05 4.24351 -0.11251 0
M  V30 12888 C 1250.96 5.54007 -2.06955 0
M  V30 12889 H 1249.89 0.745812 -0.110818 0
M  V30 12890 H 1252.54 1.58185 -0.930039 0
M  V30 12891 H 1250.92 3.95515 0.195912 0
M  V30 12892 H 1252.09 3.765 -2.65677 0
M  V30 12893 H 1250.41 3.49098 -2.26979 0
M  V30 12894 H 1253 5.34344 -0.195161 0
M  V30 12895 H 1253.35 4.05668 0.934849 0
M  V30 12896 H 1253.88 3.90528 -0.757168 0
M  V30 12897 H 1250.62 5.77594 -3.09944 0
M  V30 12898 H 1250.14 5.83522 -1.38788 0
M  V30 12899 H 1251.82 6.19704 -1.85945 0
M  V30 12900 N 1251.95 0.502579 1.49372 0
M  V30 12901 C 1253.18 -0.0403087 2.07361 0
M  V30 12902 C 1253.6 -1.29918 1.36026 0
M  V30 12903 O 1252.96 -1.76428 0.417488 0
M  V30 12904 C 1253.01 -0.275362 3.59547 0
M  V30 12905 O 1252.11 -1.34975 3.89686 0
M  V30 12906 H 1251.45 0.0269268 0.663454 0
M  V30 12907 H 1253.98 0.702652 1.92156 0
M  V30 12908 H 1253.99 -0.506392 4.04845 0
M  V30 12909 H 1252.67 0.644382 4.10878 0
M  V30 12910 H 1251.24 -1.10355 3.56197 0
M  V30 12911 N 1253.43 -1.55816 0.23648 0
M  V30 12912 C 1254.38 -2.22322 -0.68378 0
M  V30 12913 C 1255.37 -1.2074 -1.1882 0
M  V30 12914 O 1256.58 -1.38781 -1.14629 0
M  V30 12915 H 1252.95 -0.713021 -0.238966 0
M  V30 12916 H 1254.92 -2.98234 -0.0995879 0
M  V30 12917 C 1253.67 -2.92845 -1.87449 0
M  V30 12918 H 1252.99 -3.70777 -1.49548 0
M  V30 12919 H 1254.43 -3.42758 -2.49585 0
M  V30 12920 C 1252.89 -1.96139 -2.73918 0
M  V30 12921 O 1253.42 -1.48781 -3.73132 0
M  V30 12922 N 1251.63 -1.63465 -2.40266 0
M  V30 12923 H 1251.18 -2.02171 -1.59639 0
M  V30 12924 H 1251.13 -0.990239 -2.98398 0
M  V30 12925 N 1254.91 0.036755 -1.57557 0
M  V30 12926 C 1255.84 1.03939 -2.09091 0
M  V30 12927 C 1256.82 1.38196 -0.991761 0
M  V30 12928 O 1258 1.47214 -1.26656 0
M  V30 12929 C 1255.13 2.34263 -2.56394 0
M  V30 12930 C 1254.09 2.14269 -3.70504 0
M  V30 12931 C 1253.41 3.50286 -4.03985 0
M  V30 12932 C 1254.71 1.53514 -4.9923 0
M  V30 12933 H 1256.41 0.610429 -2.93111 0
M  V30 12934 H 1253.95 0.292183 -1.41005 0
M  V30 12935 H 1255.91 3.04727 -2.91066 0
M  V30 12936 H 1254.63 2.79205 -1.69447 0
M  V30 12937 H 1253.29 1.46239 -3.36169 0
M  V30 12938 H 1252.94 3.92861 -3.14116 0
M  V30 12939 H 1252.64 3.37735 -4.80842 0
M  V30 12940 H 1254.16 4.22124 -4.41184 0
M  V30 12941 H 1255.57 2.13885 -5.31908 0
M  V30 12942 H 1253.97 1.51561 -5.80646 0
M  V30 12943 H 1255.04 0.500126 -4.82314 0
M  V30 12944 N 1256.39 1.54543 0.308881 0
M  V30 12945 C 1257.63 1.73107 1.043 0
M  V30 12946 C 1257.95 0.515481 1.88063 0
M  V30 12947 O 1257.22 -0.47036 1.90169 0
M  V30 12948 H 1255.8 0.638289 0.388068 0
M  V30 12949 H 1258.47 1.9188 0.341769 0
M  V30 12950 H 1257.56 2.61697 1.70063 0
M  V30 12951 N 1257.86 -0.571685 1.46866 0
M  V30 12952 C 1258.8 -1.69502 1.52788 0
M  V30 12953 C 1259.77 -1.58071 0.381109 0
M  V30 12954 O 1260.96 -1.79132 0.586844 0
M  V30 12955 C 1258.09 -3.07642 1.41682 0
M  V30 12956 C 1257.13 -3.37562 2.6068 0
M  V30 12957 S 1257.96 -3.28413 4.22971 0
M  V30 12958 C 1259.12 -4.69073 4.14393 0
M  V30 12959 H 1259.35 -1.64221 2.47828 0
M  V30 12960 H 1256.89 -0.751334 1.34886 0
M  V30 12961 H 1258.84 -3.8733 1.35962 0
M  V30 12962 H 1257.51 -3.10403 0.480517 0
M  V30 12963 H 1256.7 -4.38233 2.48933 0
M  V30 12964 H 1256.3 -2.65464 2.63448 0
M  V30 12965 H 1258.59 -5.59706 3.81754 0
M  V30 12966 H 1259.54 -4.85877 5.15101 0
M  V30 12967 H 1259.94 -4.4644 3.45473 0
M  V30 12968 N 1259.34 -1.34755 -0.817236 0
M  V30 12969 C 1260.3 -1.26687 -1.91006 0
M  V30 12970 C 1261.3 -0.180745 -1.59781 0
M  V30 12971 O 1262.49 -0.433748 -1.68714 0
M  V30 12972 C 1259.63 -0.957293 -3.27183 0
M  V30 12973 H 1260.82 -2.23846 -1.99582 0
M  V30 12974 H 1258.37 -1.19125 -1.01187 0
M  V30 12975 H 1259.11 0.0108917 -3.24298 0
M  V30 12976 H 1258.89 -1.74297 -3.5123 0
M  V30 12977 H 1260.38 -0.926161 -4.072 0
M  V30 12978 N 1260.82 1.03812 -1.18578 0
M  V30 12979 C 1261.77 2.11883 -0.915115 0
M  V30 12980 C 1262.74 1.65453 0.146479 0
M  V30 12981 O 1263.92 1.90799 0.00630058 0
M  V30 12982 C 1261.06 3.42157 -0.449755 0
M  V30 12983 C 1260.17 4.02185 -1.57706 0
M  V30 12984 C 1259.31 5.20431 -1.06417 0
M  V30 12985 C 1258.35 5.72496 -2.16599 0
M  V30 12986 N 1257.49 6.82027 -1.66685 0
M  V30 12987 H 1262.33 2.34373 -1.84047 0
M  V30 12988 H 1259.86 1.14962 -0.917728 0
M  V30 12989 H 1261.82 4.16888 -0.161407 0
M  V30 12990 H 1260.45 3.19806 0.438622 0
M  V30 12991 H 1259.5 3.24757 -1.98083 0
M  V30 12992 H 1260.81 4.36851 -2.40754 0
M  V30 12993 H 1259.97 6.02286 -0.730497 0
M  V30 12994 H 1258.71 4.87276 -0.203301 0
M  V30 12995 H 1257.71 4.8926 -2.50808 0
M  V30 12996 H 1258.94 6.07694 -3.03126 0
M  V30 12997 H 1256.88 6.50742 -0.828916 0
M  V30 12998 H 1256.8 7.1577 -2.43329 0
M  V30 12999 H 1258.07 7.67499 -1.36253 0
M  V30 13000 N 1262.3 0.988223 1.22768 0
M  V30 13001 C 1263.53 0.679743 1.95415 0
M  V30 13002 C 1263.94 -0.754731 1.73059 0
M  V30 13003 O 1263.3 -1.50876 1.02678 0
M  V30 13004 C 1263.35 0.970344 3.48234 0
M  V30 13005 O 1263.07 2.34845 3.69837 0
M  V30 13006 C 1264.57 0.67891 4.3807 0
M  V30 13007 H 1261.79 0.251847 0.621944 0
M  V30 13008 H 1264.33 1.32173 1.56047 0
M  V30 13009 H 1262.49 0.374241 3.85588 0
M  V30 13010 H 1262.9 2.44412 4.64072 0
M  V30 13011 H 1264.38 0.932549 5.44066 0
M  V30 13012 H 1264.85 -0.387073 4.37491 0
M  V30 13013 H 1265.46 1.25585 4.06335 0
M  V30 13014 N 1263.78 -1.38018 0.760839 0
M  V30 13015 C 1265.02 -1.99557 0.319609 0
M  V30 13016 C 1265.34 -1.60699 -1.10457 0
M  V30 13017 O 1264.61 -0.867248 -1.75658 0
M  V30 13018 H 1263.19 -0.738066 0.115182 0
M  V30 13019 H 1265.86 -1.6867 0.976544 0
M  V30 13020 H 1264.95 -3.09672 0.388523 0
M  V30 13021 N 1265.25 -0.510493 -1.49103 0
M  V30 13022 C 1266.66 -0.0650831 -1.86587 0
M  V30 13023 C 1267.02 1.35185 -1.42195 0
M  V30 13024 O 1266.14 2.0091 -0.804004 0
M  V30 13025 C 1266.74 -0.111333 -3.38617 0
M  V30 13026 C 1265.29 0.278782 -3.75366 0
M  V30 13027 C 1264.44 -0.479707 -2.73119 0
M  V30 13028 H 1267.39 -0.722784 -1.41285 0
M  V30 13029 H 1267.41 0.681706 -3.74343 0
M  V30 13030 H 1266.93 -1.14271 -3.70896 0
M  V30 13031 H 1265.03 1.31304 -3.48698 0
M  V30 13032 H 1265.14 -0.047271 -4.79077 0
M  V30 13033 H 1263.5 0.0716459 -2.54599 0
M  V30 13034 H 1264.29 -1.51135 -3.08242 0
M  V30 13035 N 1266.73 1.55688 -0.24474 0
M  V30 13036 C 1267.98 1.99186 0.381167 0
M  V30 13037 C 1268.31 1.13266 1.57748 0
M  V30 13038 O 1267.59 0.195568 1.93514 0
M  V30 13039 C 1267.87 3.51257 0.793142 0
M  V30 13040 C 1267.72 4.47942 -0.408409 0
M  V30 13041 C 1269.04 4.08365 1.64091 0
M  V30 13042 H 1266.16 0.724141 0.137073 0
M  V30 13043 H 1268.8 1.8683 -0.345619 0
M  V30 13044 H 1266.95 3.61917 1.4124 0
M  V30 13045 H 1268.62 4.49265 -1.04682 0
M  V30 13046 H 1266.87 4.20854 -1.05189 0
M  V30 13047 H 1267.54 5.51946 -0.0768531 0
M  V30 13048 H 1270.01 4.00794 1.1182 0
M  V30 13049 H 1268.89 5.1504 1.89802 0
M  V30 13050 H 1269.15 3.56687 2.61202 0
M  V30 13051 N 1268.21 -0.0283989 1.57574 0
M  V30 13052 C 1269.46 -0.720142 1.89583 0
M  V30 13053 C 1269.79 -1.7497 0.842562 0
M  V30 13054 O 1269.06 -1.93979 -0.142294 0
M  V30 13055 C 1269.35 -1.38909 3.32229 0
M  V30 13056 C 1269.2 -0.372998 4.48251 0
M  V30 13057 C 1270.52 -2.32289 3.73804 0
M  V30 13058 H 1267.64 -0.26033 0.689491 0
M  V30 13059 H 1270.28 0.0170607 1.89992 0
M  V30 13060 H 1268.43 -2.01744 3.32011 0
M  V30 13061 H 1270.1 0.253492 4.60603 0
M  V30 13062 H 1268.34 0.30765 4.32708 0
M  V30 13063 H 1269.02 -0.879549 5.44948 0
M  V30 13064 H 1271.49 -1.79497 3.75393 0
M  V30 13065 H 1270.37 -2.76075 4.74419 0
M  V30 13066 H 1270.63 -3.18992 3.06099 0
M  V30 13067 N 1269.69 -1.54705 -0.300681 0
M  V30 13068 C 1270.6 -1.88736 -1.39341 0
M  V30 13069 C 1271.61 -0.78155 -1.5546 0
M  V30 13070 O 1272.79 -1.07804 -1.70118 0
M  V30 13071 C 1269.85 -2.12795 -2.73713 0
M  V30 13072 C 1268.92 -3.36504 -2.66577 0
M  V30 13073 C 1268.15 -3.59407 -3.94541 0
M  V30 13074 O 1268.37 -2.85315 -4.93914 0
M  V30 13075 O 1267.31 -4.52923 -3.96415 0
M  V30 13076 H 1271.13 -2.817 -1.13484 0
M  V30 13077 H 1268.72 -1.40899 -0.496771 0
M  V30 13078 H 1270.6 -2.29819 -3.53215 0
M  V30 13079 H 1269.27 -1.23017 -2.99414 0
M  V30 13080 H 1268.18 -3.24844 -1.85546 0
M  V30 13081 H 1269.51 -4.26414 -2.45829 0
M  V30 13082 N 1271.17 0.563888 -1.47167 0
M  V30 13083 C 1272.44 1.32454 -1.43928 0
M  V30 13084 C 1272.82 2.10683 -0.13267 0
M  V30 13085 O 1272.17 2.1063 0.885845 0
M  V30 13086 C 1272.38 2.2347 -2.68071 0
M  V30 13087 C 1273.73 2.84702 -3.15008 0
M  V30 13088 O 1274.75 2.33775 -2.68752 0
M  V30 13089 O 1273.61 3.77251 -3.95404 0
M  V30 13090 H 1270.71 0.596074 -0.573258 0
M  V30 13091 H 1273.25 0.583345 -1.59359 0
M  V30 13092 H 1272.02 1.6522 -3.54708 0
M  V30 13093 H 1271.65 3.04897 -2.55193 0
M  V30 13094 N 1272.64 1.35187 0.810078 0
M  V30 13095 C 1273.87 1.31528 1.60359 0
M  V30 13096 C 1274.29 -0.105385 1.87805 0
M  V30 13097 O 1273.65 -1.07113 1.46276 0
M  V30 13098 C 1273.7 2.12429 2.91386 0
M  V30 13099 O 1272.8 1.50262 3.84051 0
M  V30 13100 H 1272.15 0.451122 0.487222 0
M  V30 13101 H 1274.68 1.78178 1.00568 0
M  V30 13102 H 1274.69 2.24257 3.40841 0
M  V30 13103 H 1273.36 3.15714 2.70735 0
M  V30 13104 H 1271.94 1.47253 3.42594 0
M  V30 13105 N 1274.12 -1.03182 1.19127 0
M  V30 13106 C 1275.37 -1.76184 0.990134 0
M  V30 13107 C 1275.69 -1.88986 -0.480546 0
M  V30 13108 O 1274.96 -1.4213 -1.34817 0
M  V30 13109 H 1273.54 -0.652668 0.363364 0
M  V30 13110 H 1276.2 -1.24481 1.49968 0
M  V30 13111 H 1275.3 -2.77119 1.43568 0
M  V30 13112 N 1275.6 -0.99472 -1.22242 0
M  V30 13113 C 1276.83 -0.689809 -1.95592 0
M  V30 13114 C 1277.25 0.739321 -1.72961 0
M  V30 13115 O 1276.61 1.50563 -1.00997 0
M  V30 13116 C 1276.66 -1.00367 -3.46351 0
M  V30 13117 O 1275.76 -0.103326 -4.12271 0
M  V30 13118 H 1275.1 -0.257997 -0.611828 0
M  V30 13119 H 1277.63 -1.33219 -1.55286 0
M  V30 13120 H 1277.64 -0.946259 -3.96875 0
M  V30 13121 H 1276.32 -2.04504 -3.62148 0
M  V30 13122 H 1274.89 -0.216374 -3.72272 0
M  V30 13123 N 1277.08 1.37613 -0.768148 0
M  V30 13124 C 1278.01 2.3291 -0.165911 0
M  V30 13125 C 1278.99 1.556 0.687205 0
M  V30 13126 O 1280.17 1.83854 0.625407 0
M  V30 13127 C 1277.3 3.39822 0.7168 0
M  V30 13128 C 1276.26 4.27986 -0.0347264 0
M  V30 13129 C 1275.58 5.2588 0.967192 0
M  V30 13130 C 1276.88 5.08052 -1.21164 0
M  V30 13131 H 1278.58 2.83524 -0.962006 0
M  V30 13132 H 1276.12 1.36318 -0.464051 0
M  V30 13133 H 1278.08 4.05464 1.14789 0
M  V30 13134 H 1276.8 2.87725 1.54538 0
M  V30 13135 H 1275.46 3.6387 -0.446557 0
M  V30 13136 H 1275.11 4.70064 1.79022 0
M  V30 13137 H 1274.81 5.85726 0.468913 0
M  V30 13138 H 1276.33 5.94397 1.3973 0
M  V30 13139 H 1277.75 5.66853 -0.857373 0
M  V30 13140 H 1276.14 5.77206 -1.64176 0
M  V30 13141 H 1277.21 4.40936 -2.0175 0
M  V30 13142 N 1278.56 0.518393 1.4883 0
M  V30 13143 C 1279.49 -0.239685 2.32267 0
M  V30 13144 C 1280.47 -0.94613 1.41359 0
M  V30 13145 O 1281.65 -0.934162 1.70256 0
M  V30 13146 C 1278.78 -1.29411 3.22289 0
M  V30 13147 C 1277.74 -0.706504 4.22129 0
M  V30 13148 C 1277.06 -1.86273 5.01205 0
M  V30 13149 C 1278.36 0.314079 5.21355 0
M  V30 13150 H 1280.06 0.4568 2.95895 0
M  V30 13151 H 1277.6 0.221126 1.42292 0
M  V30 13152 H 1279.56 -1.8323 3.7948 0
M  V30 13153 H 1278.28 -2.02001 2.56638 0
M  V30 13154 H 1276.94 -0.189924 3.66108 0
M  V30 13155 H 1276.59 -2.57674 4.31988 0
M  V30 13156 H 1276.29 -1.47554 5.68772 0
M  V30 13157 H 1277.81 -2.40492 5.61245 0
M  V30 13158 H 1279.22 -0.136604 5.73137 0
M  V30 13159 H 1277.62 0.618026 5.96909 0
M  V30 13160 H 1278.69 1.22394 4.69199 0
M  V30 13161 N 1280.03 -1.55556 0.252993 0
M  V30 13162 C 1280.96 -2.24613 -0.638047 0
M  V30 13163 C 1281.95 -1.22852 -1.1765 0
M  V30 13164 O 1283.13 -1.51519 -1.21472 0
M  V30 13165 C 1280.26 -2.95029 -1.83236 0
M  V30 13166 C 1279.21 -4.03531 -1.42641 0
M  V30 13167 C 1278.54 -4.61404 -2.70204 0
M  V30 13168 C 1279.84 -5.18923 -0.592958 0
M  V30 13169 H 1281.53 -2.99335 -0.0621918 0
M  V30 13170 H 1279.08 -1.43972 -0.0284722 0
M  V30 13171 H 1281.03 -3.42042 -2.46141 0
M  V30 13172 H 1279.76 -2.17805 -2.43369 0
M  V30 13173 H 1278.42 -3.57296 -0.820672 0
M  V30 13174 H 1278.06 -3.80874 -3.28548 0
M  V30 13175 H 1277.76 -5.34652 -2.43764 0
M  V30 13176 H 1279.29 -5.11154 -3.33997 0
M  V30 13177 H 1280.7 -5.62124 -1.12646 0
M  V30 13178 H 1279.1 -5.98598 -0.424358 0
M  V30 13179 H 1280.17 -4.83301 0.393434 0
M  V30 13180 N 1281.51 0.0200419 -1.57587 0
M  V30 13181 C 1282.42 1.0346 -2.10555 0
M  V30 13182 C 1283.44 1.39035 -1.0462 0
M  V30 13183 O 1284.61 1.48172 -1.36407 0
M  V30 13184 C 1281.68 2.31389 -2.58186 0
M  V30 13185 C 1280.74 2.02311 -3.7864 0
M  V30 13186 C 1279.97 3.24141 -4.23991 0
M  V30 13187 O 1280.2 4.35132 -3.68803 0
M  V30 13188 O 1279.13 3.09312 -5.16342 0
M  V30 13189 H 1282.96 0.614419 -2.9742 0
M  V30 13190 H 1280.54 0.237604 -1.47498 0
M  V30 13191 H 1282.42 3.06582 -2.89112 0
M  V30 13192 H 1281.1 2.72684 -1.74428 0
M  V30 13193 H 1280.01 1.24658 -3.5272 0
M  V30 13194 H 1281.34 1.65866 -4.6341 0
M  V30 13195 N 1282.99 1.54862 0.292472 0
M  V30 13196 C 1284.22 1.78291 1.04383 0
M  V30 13197 C 1284.63 0.546703 1.81129 0
M  V30 13198 O 1283.97 -0.493286 1.76953 0
M  V30 13199 C 1284.03 2.94321 2.06435 0
M  V30 13200 C 1283.7 4.32095 1.48806 0
M  V30 13201 C 1284.69 5.11808 0.91369 0
M  V30 13202 C 1282.38 4.78714 1.52112 0
M  V30 13203 C 1284.37 6.36266 0.380053 0
M  V30 13204 C 1282.06 6.03132 0.983613 0
M  V30 13205 C 1283.06 6.81744 0.41406 0
M  V30 13206 O 1282.75 8.03817 -0.115268 0
M  V30 13207 H 1282.48 0.598147 0.314954 0
M  V30 13208 H 1285.03 2.02655 0.334661 0
M  V30 13209 H 1283.26 2.65602 2.81056 0
M  V30 13210 H 1284.95 3.05249 2.67541 0
M  V30 13211 H 1285.72 4.76931 0.880988 0
M  V30 13212 H 1281.6 4.17549 1.95382 0
M  V30 13213 H 1285.14 6.9757 -0.0651481 0
M  V30 13214 H 1281.04 6.37494 1.01349 0
M  V30 13215 H 1281.81 8.185 -0.00277496 0
M  V30 13216 N 1284.47 -0.556076 1.47464 0
M  V30 13217 C 1285.71 -1.31515 1.54375 0
M  V30 13218 C 1286.05 -1.93106 0.205837 0
M  V30 13219 O 1285.32 -1.77927 -0.785643 0
M  V30 13220 C 1285.61 -2.4244 2.66261 0
M  V30 13221 C 1285.46 -1.8571 4.09673 0
M  V30 13222 C 1286.78 -3.4436 2.74051 0
M  V30 13223 H 1283.9 -0.476817 0.561974 0
M  V30 13224 H 1286.54 -0.622157 1.79525 0
M  V30 13225 H 1284.69 -3.01551 2.44948 0
M  V30 13226 H 1286.36 -1.30851 4.42353 0
M  V30 13227 H 1284.6 -1.16379 4.17898 0
M  V30 13228 H 1285.27 -2.65904 4.83735 0
M  V30 13229 H 1287.75 -2.95169 2.93282 0
M  V30 13230 H 1286.63 -4.194 3.54111 0
M  V30 13231 H 1286.89 -4.03281 1.81155 0
M  V30 13232 N 1285.95 -1.35615 -0.802897 0
M  V30 13233 C 1286.9 -1.28877 -1.93632 0
M  V30 13234 C 1287.89 -0.183014 -1.68408 0
M  V30 13235 O 1289.1 -0.349218 -1.7658 0
M  V30 13236 H 1285.47 -0.400883 -0.636236 0
M  V30 13237 H 1287.44 -2.24624 -1.96435 0
M  V30 13238 C 1286.19 -1.08136 -3.30457 0
M  V30 13239 H 1285.51 -1.92463 -3.50426 0
M  V30 13240 H 1286.95 -1.07464 -4.10155 0
M  V30 13241 C 1285.41 0.214635 -3.36216 0
M  V30 13242 O 1285.94 1.20916 -3.8307 0
M  V30 13243 N 1284.15 0.25468 -2.89482 0
M  V30 13244 H 1283.7 -0.555239 -2.51545 0
M  V30 13245 H 1283.65 1.12152 -2.93716 0
M  V30 13246 N 1287.43 1.02549 -1.19673 0
M  V30 13247 C 1288.67 1.75656 -0.999463 0
M  V30 13248 C 1288.99 1.89238 0.470517 0
M  V30 13249 O 1288.26 1.42843 1.34062 0
M  V30 13250 H 1286.84 0.650732 -0.366821 0
M  V30 13251 H 1289.51 1.23684 -1.50627 0
M  V30 13252 H 1288.6 2.76353 -1.45035 0
M  V30 13253 N 1288.9 1.00119 1.21713 0
M  V30 13254 C 1290.13 0.700172 1.95224 0
M  V30 13255 C 1290.55 -0.730138 1.73351 0
M  V30 13256 O 1289.91 -1.50026 1.01794 0
M  V30 13257 C 1289.96 1.02202 3.45814 0
M  V30 13258 O 1289.06 0.125188 4.1221 0
M  V30 13259 H 1288.4 0.261238 0.610451 0
M  V30 13260 H 1290.93 1.34041 1.54578 0
M  V30 13261 H 1290.94 0.967293 3.96368 0
M  V30 13262 H 1289.62 2.06422 3.61058 0
M  V30 13263 H 1288.2 0.236114 3.72152 0
M  V30 13264 N 1290.38 -1.37203 0.775435 0
M  V30 13265 C 1291.34 -2.28566 0.170406 0
M  V30 13266 C 1292.34 -1.48195 -0.624085 0
M  V30 13267 O 1293.53 -1.68364 -0.447132 0
M  V30 13268 C 1290.67 -3.32186 -0.765829 0
M  V30 13269 H 1291.86 -2.8358 0.975824 0
M  V30 13270 H 1289.41 -1.46531 0.543895 0
M  V30 13271 H 1290.15 -2.82303 -1.59611 0
M  V30 13272 H 1289.93 -3.91598 -0.198251 0
M  V30 13273 H 1291.42 -4.0045 -1.18446 0
M  V30 13274 N 1291.86 -0.526279 -1.48553 0
M  V30 13275 C 1293.1 0.00720852 -2.04399 0
M  V30 13276 C 1293.46 1.31928 -1.39495 0
M  V30 13277 O 1294.66 1.93857 -1.86206 0
M  V30 13278 C 1292.94 0.130517 -3.57162 0
M  V30 13279 S 1294.49 0.614604 -4.34474 0
M  V30 13280 H 1291.31 -0.0102902 -0.710926 0
M  V30 13281 H 1293.91 -0.705998 -1.82307 0
M  V30 13282 H 1292.62 -0.829304 -4.01934 0
M  V30 13283 H 1292.15 0.868213 -3.837 0
M  V30 13284 H 1294.16 1.87973 -4.59217 0
M  V30 13285 N 1293.34 1.5542 -0.261239 0
M  V30 13286 C 1294.57 2.03687 0.363225 0
M  V30 13287 C 1294.98 1.14007 1.50492 0
M  V30 13288 O 1294.34 0.157349 1.8182 0
M  V30 13289 C 1294.39 3.51184 0.857435 0
M  V30 13290 O 1294.11 4.37449 -0.238776 0
M  V30 13291 C 1295.61 4.15277 1.55113 0
M  V30 13292 H 1292.83 0.665641 0.0846356 0
M  V30 13293 H 1295.37 2.00761 -0.389288 0
M  V30 13294 H 1293.53 3.54599 1.56008 0
M  V30 13295 H 1293.94 5.24316 0.138821 0
M  V30 13296 H 1295.42 5.20129 1.8485 0
M  V30 13297 H 1295.89 3.62619 2.47799 0
M  V30 13298 H 1296.5 4.15826 0.892695 0
M  V30 13299 N 1294.82 -0.0116844 1.57596 0
M  V30 13300 C 1296.04 -0.71026 1.94327 0
M  V30 13301 C 1296.46 -1.67952 0.862418 0
M  V30 13302 O 1295.82 -1.818 -0.159698 0
M  V30 13303 C 1295.87 -1.45228 3.31045 0
M  V30 13304 O 1295.59 -0.52191 4.3498 0
M  V30 13305 C 1297.09 -2.24644 3.82165 0
M  V30 13306 H 1294.31 -0.198559 0.640949 0
M  V30 13307 H 1296.85 0.0359615 2.04468 0
M  V30 13308 H 1295.01 -2.15023 3.22248 0
M  V30 13309 H 1295.42 -1.04415 5.14002 0
M  V30 13310 H 1296.9 -2.72078 4.80289 0
M  V30 13311 H 1297.37 -3.06817 3.14261 0
M  V30 13312 H 1297.98 -1.59888 3.94101 0
M  V30 13313 N 1296.29 -1.55015 -0.284256 0
M  V30 13314 C 1297.52 -1.79431 -1.04016 0
M  V30 13315 C 1297.94 -0.560254 -1.79563 0
M  V30 13316 O 1297.3 0.489804 -1.74558 0
M  V30 13317 C 1297.35 -3.01162 -1.98328 0
M  V30 13318 O 1296.45 -2.75459 -3.06914 0
M  V30 13319 H 1295.79 -0.593391 -0.297965 0
M  V30 13320 H 1298.32 -2.02136 -0.316585 0
M  V30 13321 H 1298.33 -3.29589 -2.40489 0
M  V30 13322 H 1297.01 -3.90634 -1.42751 0
M  V30 13323 H 1295.59 -2.58096 -2.69148 0
M  V30 13324 N 1297.77 0.548248 -1.47757 0
M  V30 13325 C 1299.05 1.3092 -1.45325 0
M  V30 13326 C 1299.43 2.1053 -0.155008 0
M  V30 13327 O 1298.78 2.11558 0.863455 0
M  V30 13328 C 1298.99 2.20614 -2.70426 0
M  V30 13329 C 1300.33 2.81345 -3.18009 0
M  V30 13330 O 1301.36 2.30911 -2.71216 0
M  V30 13331 O 1300.22 3.73036 -3.99383 0
M  V30 13332 H 1297.31 0.58996 -0.579548 0
M  V30 13333 H 1299.86 0.56641 -1.59968 0
M  V30 13334 H 1298.63 1.61449 -3.56441 0
M  V30 13335 H 1298.25 3.02173 -2.58413 0
M  V30 13336 N 1299.25 1.36039 0.795694 0
M  V30 13337 C 1300.5 1.29663 1.55023 0
M  V30 13338 C 1300.82 -0.125588 1.94595 0
M  V30 13339 O 1300.09 -1.06447 1.64456 0
M  V30 13340 H 1298.67 0.476962 0.574906 0
M  V30 13341 H 1301.33 1.70265 0.948471 0
M  V30 13342 H 1300.43 1.91982 2.46068 0
M  V30 13343 N 1300.73 -1.01913 1.20215 0
M  V30 13344 C 1302.14 -1.27766 0.956459 0
M  V30 13345 C 1302.34 -1.98158 -0.365486 0
M  V30 13346 O 1301.4 -2.27539 -1.09463 0
M  V30 13347 C 1302.71 -2.11516 2.13732 0
M  V30 13348 C 1304.26 -2.24792 2.17802 0
M  V30 13349 C 1304.74 -3.11919 3.35367 0
M  V30 13350 N 1306.23 -3.19507 3.35364 0
M  V30 13351 C 1306.96 -3.8714 4.22978 0
M  V30 13352 N 1306.46 -4.5692 5.20765 0
M  V30 13353 N 1308.25 -3.83638 4.10827 0
M  V30 13354 H 1300.4 -0.546426 2.05251 0
M  V30 13355 H 1302.67 -0.303772 0.898012 0
M  V30 13356 H 1302.37 -1.67127 3.09453 0
M  V30 13357 H 1302.25 -3.12249 2.11614 0
M  V30 13358 H 1304.63 -2.68407 1.22645 0
M  V30 13359 H 1304.71 -1.23576 2.2397 0
M  V30 13360 H 1304.36 -2.6901 4.30809 0
M  V30 13361 H 1304.29 -4.13215 3.26436 0
M  V30 13362 H 1306.78 -2.69819 2.64587 0
M  V30 13363 H 1307.09 -5.06188 5.83947 0
M  V30 13364 H 1305.44 -4.55753 5.24704 0
M  V30 13365 H 1308.63 -3.28268 3.33703 0
M  V30 13366 H 1308.8 -4.36071 4.79318 0
M  V30 13367 N 1302.21 -1.00763 -1.2118 0
M  V30 13368 C 1303.14 -0.528468 -2.23024 0
M  V30 13369 C 1304.15 0.384348 -1.58198 0
M  V30 13370 O 1305.34 0.184127 -1.77548 0
M  V30 13371 C 1302.44 0.251693 -3.37964 0
M  V30 13372 C 1301.61 -0.660838 -4.32379 0
M  V30 13373 C 1300.67 0.0701723 -5.26153 0
M  V30 13374 O 1299.7 -0.549355 -5.66543 0
M  V30 13375 N 1300.9 1.34791 -5.64634 0
M  V30 13376 H 1303.67 -1.40428 -2.64764 0
M  V30 13377 H 1301.23 -0.884085 -1.3563 0
M  V30 13378 H 1303.22 0.749746 -3.97694 0
M  V30 13379 H 1301.79 1.02872 -2.95188 0
M  V30 13380 H 1301.01 -1.33934 -3.7075 0
M  V30 13381 H 1302.3 -1.28177 -4.9239 0
M  V30 13382 H 1301.69 1.87232 -5.33817 0
M  V30 13383 H 1300.25 1.79086 -6.26715 0
M  V30 13384 N 1303.68 1.3679 -0.7827 0
M  V30 13385 C 1304.91 2.03678 -0.363734 0
M  V30 13386 C 1305.33 1.59024 1.01768 0
M  V30 13387 O 1304.68 0.776541 1.65155 0
M  V30 13388 C 1304.74 3.59165 -0.410213 0
M  V30 13389 O 1304.46 4.02188 -1.73714 0
M  V30 13390 C 1305.96 4.43296 0.018972 0
M  V30 13391 H 1303.18 0.653828 -0.150829 0
M  V30 13392 H 1305.72 1.74903 -1.05968 0
M  V30 13393 H 1303.88 3.86673 0.237249 0
M  V30 13394 H 1304.29 4.96754 -1.68332 0
M  V30 13395 H 1305.76 5.51962 -0.0646943 0
M  V30 13396 H 1306.24 4.25948 1.07076 0
M  V30 13397 H 1306.85 4.21036 -0.600721 0
M  V30 13398 N 1305.16 0.53415 1.48272 0
M  V30 13399 C 1306.39 0.00574475 2.06899 0
M  V30 13400 C 1306.81 -1.27754 1.39012 0
M  V30 13401 O 1306.16 -1.76102 0.478993 0
M  V30 13402 C 1306.21 -0.217576 3.60845 0
M  V30 13403 O 1305.93 1.01487 4.26183 0
M  V30 13404 C 1307.44 -0.785888 4.36278 0
M  V30 13405 H 1304.66 0.0353967 0.670066 0
M  V30 13406 H 1307.2 0.740984 1.90603 0
M  V30 13407 H 1305.35 -0.902875 3.76732 0
M  V30 13408 H 1305.77 0.7982 5.18391 0
M  V30 13409 H 1307.24 -0.891551 5.44753 0
M  V30 13410 H 1307.72 -1.79178 4.00989 0
M  V30 13411 H 1308.33 -0.137022 4.25079 0
M  V30 13412 N 1306.64 -1.55279 0.269478 0
M  V30 13413 C 1307.87 -2.03581 -0.351907 0
M  V30 13414 C 1308.28 -1.14747 -1.50432 0
M  V30 13415 O 1307.62 -0.158939 -1.83011 0
M  V30 13416 C 1307.68 -3.48041 -0.900444 0
M  V30 13417 C 1307.35 -4.56835 0.122612 0
M  V30 13418 C 1308.34 -5.11329 0.940149 0
M  V30 13419 C 1306.03 -5.01651 0.255224 0
M  V30 13420 C 1308.02 -6.09151 1.87654 0
M  V30 13421 C 1305.71 -5.993 1.19509 0
M  V30 13422 C 1306.71 -6.52931 2.00426 0
M  V30 13423 O 1306.4 -7.48671 2.92825 0
M  V30 13424 H 1306.13 -0.670627 -0.0850629 0
M  V30 13425 H 1308.68 -2.01514 0.39766 0
M  V30 13426 H 1306.91 -3.47329 -1.69998 0
M  V30 13427 H 1308.6 -3.79713 -1.43431 0
M  V30 13428 H 1309.37 -4.77522 0.848402 0
M  V30 13429 H 1305.25 -4.59556 -0.364579 0
M  V30 13430 H 1308.79 -6.50937 2.50853 0
M  V30 13431 H 1304.69 -6.32526 1.28768 0
M  V30 13432 H 1305.46 -7.66368 2.87442 0
M  V30 13433 N 1308.12 0.00332656 -1.576 0
M  V30 13434 C 1309.35 0.699945 -1.94701 0
M  V30 13435 C 1309.76 1.67492 -0.871312 0
M  V30 13436 O 1309.12 1.81882 0.150054 0
M  V30 13437 C 1309.17 1.43471 -3.31811 0
M  V30 13438 O 1308.89 0.498835 -4.35251 0
M  V30 13439 C 1310.39 2.22614 -3.83351 0
M  V30 13440 H 1307.61 0.195158 -0.641993 0
M  V30 13441 H 1310.16 -0.0468044 -2.04446 0
M  V30 13442 H 1308.31 2.13311 -3.23384 0
M  V30 13443 H 1308.72 1.01688 -5.14548 0
M  V30 13444 H 1310.2 2.69527 -4.81725 0
M  V30 13445 H 1310.68 3.05146 -3.15883 0
M  V30 13446 H 1311.28 1.57796 -3.94944 0
M  V30 13447 N 1309.6 1.55164 0.276031 0
M  V30 13448 C 1310.82 1.79649 1.02635 0
M  V30 13449 C 1311.24 0.568289 1.80044 0
M  V30 13450 O 1310.6 -0.462569 1.7654 0
M  V30 13451 C 1310.65 3.01974 1.98731 0
M  V30 13452 O 1310.37 4.2005 1.24459 0
M  V30 13453 C 1311.87 3.39039 2.856 0
M  V30 13454 H 1309.09 0.598529 0.303321 0
M  V30 13455 H 1311.63 2.02171 0.307733 0
M  V30 13456 H 1309.79 2.81586 2.6606 0
M  V30 13457 H 1310.2 4.89185 1.89205 0
M  V30 13458 H 1311.68 4.27809 3.48831 0
M  V30 13459 H 1312.15 2.58306 3.55211 0
M  V30 13460 H 1312.76 3.61674 2.23767 0
M  V30 13461 N 1311.07 -0.540404 1.48045 0
M  V30 13462 C 1312.49 -0.867958 1.33935 0
M  V30 13463 C 1312.69 -1.98568 0.342488 0
M  V30 13464 O 1311.75 -2.51357 -0.240022 0
M  V30 13465 C 1313.06 -1.24532 2.73701 0
M  V30 13466 C 1314.61 -1.3558 2.82112 0
M  V30 13467 C 1315.08 -1.76664 4.22556 0
M  V30 13468 N 1316.57 -1.83785 4.25179 0
M  V30 13469 C 1317.31 -2.16938 5.30778 0
M  V30 13470 N 1316.8 -2.48587 6.46666 0
M  V30 13471 N 1318.6 -2.17855 5.18166 0
M  V30 13472 H 1310.75 0.197251 2.11482 0
M  V30 13473 H 1313.01 0.0255947 0.947654 0
M  V30 13474 H 1312.72 -0.497731 3.4816 0
M  V30 13475 H 1312.59 -2.19779 3.06556 0
M  V30 13476 H 1314.98 -2.09417 2.07915 0
M  V30 13477 H 1315.06 -0.384787 2.52889 0
M  V30 13478 H 1314.7 -1.03391 4.97265 0
M  V30 13479 H 1314.63 -2.74797 4.49215 0
M  V30 13480 H 1317.12 -1.61645 3.41583 0
M  V30 13481 H 1317.44 -2.72959 7.22989 0
M  V30 13482 H 1315.78 -2.4613 6.49958 0
M  V30 13483 H 1318.97 -1.9258 4.2665 0
M  V30 13484 H 1319.15 -2.43361 6.00566 0
M  V30 13485 N 1312.55 -1.36459 -0.788468 0
M  V30 13486 C 1313.8 -1.3007 -1.54158 0
M  V30 13487 C 1314.11 0.117574 -1.95246 0
M  V30 13488 O 1315.32 0.303837 -2.69795 0
M  V30 13489 C 1313.78 -2.28216 -2.78291 0
M  V30 13490 C 1313.38 -3.75484 -2.44368 0
M  V30 13491 C 1315.13 -2.30806 -3.56271 0
M  V30 13492 C 1313.04 -4.65404 -3.64902 0
M  V30 13493 H 1311.97 -0.483345 -0.5787 0
M  V30 13494 H 1314.62 -1.61827 -0.865123 0
M  V30 13495 H 1313 -1.89454 -3.4774 0
M  V30 13496 H 1314.17 -4.22986 -1.82809 0
M  V30 13497 H 1312.49 -3.75678 -1.79597 0
M  V30 13498 H 1315.08 -2.95196 -4.45829 0
M  V30 13499 H 1315.43 -1.31687 -3.94923 0
M  V30 13500 H 1315.96 -2.68189 -2.93802 0
M  V30 13501 H 1312.7 -5.65589 -3.31344 0
M  V30 13502 H 1312.22 -4.22617 -4.25623 0
M  V30 13503 H 1313.9 -4.81721 -4.31919 0
M  V30 13504 N 1314.03 1.01274 -1.20754 0
M  V30 13505 C 1314.98 2.08285 -0.927426 0
M  V30 13506 C 1315.96 1.60494 0.114286 0
M  V30 13507 O 1317.16 1.76752 -0.0936086 0
M  V30 13508 C 1314.29 3.39849 -0.485546 0
M  V30 13509 C 1313.37 3.94331 -1.5609 0
M  V30 13510 N 1313.76 4.22274 -2.78421 0
M  V30 13511 C 1312.06 4.22522 -1.42797 0
M  V30 13512 C 1312.76 4.66262 -3.47813 0
M  V30 13513 N 1311.74 4.68771 -2.75235 0
M  V30 13514 H 1315.54 2.27804 -1.85695 0
M  V30 13515 H 1313.05 1.19278 -1.10211 0
M  V30 13516 H 1315.05 4.16049 -0.266263 0
M  V30 13517 H 1313.71 3.21742 0.437301 0
M  V30 13518 H 1314.72 4.11063 -3.15036 0
M  V30 13519 H 1311.4 4.13593 -0.569819 0
M  V30 13520 H 1312.79 4.9667 -4.52513 0
M  V30 13521 N 1315.51 1.01404 1.20644 0
M  V30 13522 C 1316.44 0.602465 2.25594 0
M  V30 13523 C 1317.42 -0.381216 1.65773 0
M  V30 13524 O 1318.61 -0.267209 1.92353 0
M  V30 13525 C 1315.74 -0.0626245 3.47244 0
M  V30 13526 C 1314.69 0.841776 4.1964 0
M  V30 13527 C 1314.02 0.0426002 5.34683 0
M  V30 13528 C 1315.32 2.14864 4.76058 0
M  V30 13529 H 1317.01 1.47977 2.60275 0
M  V30 13530 H 1314.56 0.712966 1.25111 0
M  V30 13531 H 1316.51 -0.362095 4.19841 0
M  V30 13532 H 1315.23 -0.974627 3.11719 0
M  V30 13533 H 1313.89 1.12521 3.48905 0
M  V30 13534 H 1313.54 -0.870973 4.95402 0
M  V30 13535 H 1313.24 0.644866 5.84051 0
M  V30 13536 H 1314.76 -0.250476 6.10086 0
M  V30 13537 H 1316.18 1.9117 5.40488 0
M  V30 13538 H 1314.57 2.70153 5.35852 0
M  V30 13539 H 1315.64 2.81336 3.9494 0
M  V30 13540 N 1316.99 -1.36373 0.789944 0
M  V30 13541 C 1318.23 -1.99523 0.363119 0
M  V30 13542 C 1318.57 -1.6255 -1.0626 0
M  V30 13543 O 1317.84 -0.880551 -1.73426 0
M  V30 13544 C 1318.12 -3.56215 0.527526 0
M  V30 13545 C 1317.98 -4.0304 1.99697 0
M  V30 13546 C 1319.3 -4.40063 -0.0571079 0
M  V30 13547 H 1316.42 -0.724824 0.133412 0
M  V30 13548 H 1319.06 -1.61778 0.996381 0
M  V30 13549 H 1317.21 -3.88498 -0.0115636 0
M  V30 13550 H 1318.88 -3.81241 2.59717 0
M  V30 13551 H 1317.12 -3.54561 2.49939 0
M  V30 13552 H 1317.79 -5.12001 2.06297 0
M  V30 13553 H 1320.27 -4.14143 0.403082 0
M  V30 13554 H 1319.15 -5.4883 0.0879494 0
M  V30 13555 H 1319.41 -4.26901 -1.14926 0
M  V30 13556 N 1318.47 -0.542005 -1.47987 0
M  V30 13557 C 1319.71 -0.0144711 -2.04395 0
M  V30 13558 C 1320.07 1.30441 -1.40887 0
M  V30 13559 O 1321.27 1.91872 -1.88252 0
M  V30 13560 C 1319.54 0.0926282 -3.5728 0
M  V30 13561 S 1321.1 0.568487 -4.35102 0
M  V30 13562 H 1317.92 -0.0178299 -0.710776 0
M  V30 13563 H 1320.52 -0.725294 -1.81548 0
M  V30 13564 H 1319.22 -0.871888 -4.01032 0
M  V30 13565 H 1318.76 0.827468 -3.84599 0
M  V30 13566 H 1320.77 1.83092 -4.61185 0
M  V30 13567 N 1319.94 1.55134 -0.277709 0
M  V30 13568 C 1321.17 2.04519 0.344472 0
M  V30 13569 C 1321.59 1.15466 1.4849 0
M  V30 13570 O 1320.95 0.153798 1.80646 0
M  V30 13571 C 1321 3.51602 0.800527 0
M  V30 13572 O 1320.1 3.65632 1.90754 0
M  V30 13573 H 1319.44 0.660212 0.0708226 0
M  V30 13574 H 1321.97 2.00393 -0.412764 0
M  V30 13575 H 1321.98 3.93015 1.09559 0
M  V30 13576 H 1320.66 4.15886 -0.033838 0
M  V30 13577 H 1319.24 3.36122 1.61481 0
M  V30 13578 N 1321.42 0.00503138 1.57599 0
M  V30 13579 C 1322.84 -0.351109 1.5569 0
M  V30 13580 C 1323.04 -1.74465 1.00818 0
M  V30 13581 O 1322.09 -2.44144 0.64422 0
M  V30 13582 C 1323.41 -0.221738 2.99881 0
M  V30 13583 C 1324.95 -0.296303 3.11594 0
M  V30 13584 C 1325.43 -0.195998 4.5758 0
M  V30 13585 N 1326.92 -0.253741 4.62504 0
M  V30 13586 C 1327.66 -0.199546 5.73053 0
M  V30 13587 N 1327.15 -0.0956553 6.92734 0
M  V30 13588 N 1328.94 -0.251779 5.61536 0
M  V30 13589 H 1321.1 0.916578 1.91605 0
M  V30 13590 H 1323.36 0.351802 0.880306 0
M  V30 13591 H 1323.06 0.737255 3.43886 0
M  V30 13592 H 1322.94 -1.00178 3.63654 0
M  V30 13593 H 1325.33 -1.24574 2.67517 0
M  V30 13594 H 1325.41 0.513692 2.50589 0
M  V30 13595 H 1325.05 0.749918 5.02333 0
M  V30 13596 H 1324.98 -1.02455 5.16537 0
M  V30 13597 H 1327.47 -0.335163 3.76411 0
M  V30 13598 H 1327.78 -0.0603357 7.72776 0
M  V30 13599 H 1326.13 -0.0612113 6.94973 0
M  V30 13600 H 1329.32 -0.331173 4.66927 0
M  V30 13601 H 1329.49 -0.206078 6.47672 0
M  V30 13602 N 1322.9 -1.55308 -0.267798 0
M  V30 13603 C 1324.15 -1.75811 -0.996734 0
M  V30 13604 C 1324.47 -0.565161 -1.8663 0
M  V30 13605 O 1323.74 0.419775 -1.9135 0
M  V30 13606 H 1322.32 -0.648353 -0.371008 0
M  V30 13607 H 1324.98 -1.92719 -0.290775 0
M  V30 13608 H 1324.08 -2.66113 -1.63064 0
M  V30 13609 N 1324.38 0.532545 -1.4833 0
M  V30 13610 C 1325.79 0.860843 -1.34394 0
M  V30 13611 C 1325.99 1.98384 -0.353013 0
M  V30 13612 O 1325.05 2.5148 0.226688 0
M  V30 13613 C 1326.36 1.23079 -2.74358 0
M  V30 13614 C 1327.91 1.34082 -2.82827 0
M  V30 13615 C 1328.39 1.74421 -4.23487 0
M  V30 13616 N 1329.88 1.81528 -4.26148 0
M  V30 13617 C 1330.61 2.1412 -5.31921 0
M  V30 13618 N 1330.11 2.45154 -6.47975 0
M  V30 13619 N 1331.9 2.15104 -5.19314 0
M  V30 13620 H 1324.05 -0.208464 -2.11375 0
M  V30 13621 H 1326.31 -0.03062 -0.947505 0
M  V30 13622 H 1326.02 0.47926 -3.48419 0
M  V30 13623 H 1325.89 2.18151 -3.07718 0
M  V30 13624 H 1328.28 2.08311 -2.09022 0
M  V30 13625 H 1328.36 0.37137 -2.5309 0
M  V30 13626 H 1328.01 1.00752 -4.97807 0
M  V30 13627 H 1327.94 2.72411 -4.50666 0
M  V30 13628 H 1330.43 1.59832 -3.42436 0
M  V30 13629 H 1330.74 2.69121 -7.24426 0
M  V30 13630 H 1329.09 2.42679 -6.51254 0
M  V30 13631 H 1332.28 1.90315 -4.27666 0
M  V30 13632 H 1332.45 2.40173 -6.01848 0
M  V30 13633 N 1325.86 1.36875 0.78122 0
M  V30 13634 C 1326.79 1.34559 1.9083 0
M  V30 13635 C 1327.77 0.215713 1.68727 0
M  V30 13636 O 1328.95 0.41462 1.89722 0
M  V30 13637 C 1326.08 1.14233 3.27976 0
M  V30 13638 C 1325.04 2.24132 3.64621 0
M  V30 13639 C 1324.36 1.8894 5.00206 0
M  V30 13640 C 1325.66 3.66266 3.72353 0
M  V30 13641 H 1327.36 2.28871 1.93025 0
M  V30 13642 H 1324.9 1.10171 0.927275 0
M  V30 13643 H 1326.85 1.11246 4.06451 0
M  V30 13644 H 1325.58 0.163747 3.26189 0
M  V30 13645 H 1324.24 2.26259 2.88448 0
M  V30 13646 H 1323.89 0.896351 4.94949 0
M  V30 13647 H 1323.59 2.62525 5.25694 0
M  V30 13648 H 1325.11 1.87523 5.81092 0
M  V30 13649 H 1326.52 3.66321 4.41001 0
M  V30 13650 H 1324.92 4.38825 4.09332 0
M  V30 13651 H 1325.99 4.00578 2.7325 0
M  V30 13652 N 1327.33 -1.00632 1.21289 0
M  V30 13653 C 1328.28 -2.11502 0.96798 0
M  V30 13654 C 1329.28 -1.6919 -0.0843024 0
M  V30 13655 O 1330.48 -1.79875 0.06697 0
M  V30 13656 H 1326.86 -0.691398 0.295759 0
M  V30 13657 H 1328.83 -2.29337 1.90911 0
M  V30 13658 C 1327.58 -3.43357 0.547818 0
M  V30 13659 H 1326.9 -3.76348 1.34915 0
M  V30 13660 H 1328.34 -4.21957 0.415759 0
M  V30 13661 C 1326.8 -3.28648 -0.741086 0
M  V30 13662 O 1327.33 -3.59267 -1.79695 0
M  V30 13663 N 1325.53 -2.81866 -0.707084 0
M  V30 13664 H 1325.08 -2.57149 0.152447 0
M  V30 13665 H 1325.04 -2.72406 -1.56979 0
M  V30 13666 N 1328.81 -1.02043 -1.20104 0
M  V30 13667 C 1330.04 -0.731142 -1.94085 0
M  V30 13668 C 1330.46 0.702467 -1.74491 0
M  V30 13669 O 1329.82 1.48387 -1.04168 0
M  V30 13670 C 1329.87 -1.07691 -3.44144 0
M  V30 13671 O 1328.97 -0.190751 -4.11959 0
M  V30 13672 H 1328.31 -0.270917 -0.606218 0
M  V30 13673 H 1330.84 -1.36483 -1.52426 0
M  V30 13674 H 1330.85 -1.03023 -3.94779 0
M  V30 13675 H 1329.53 -2.1214 -3.57728 0
M  V30 13676 H 1328.1 -0.29529 -3.71729 0
M  V30 13677 N 1330.29 1.35952 -0.797165 0
M  V30 13678 C 1331.24 2.27336 -0.173856 0
M  V30 13679 C 1332.22 1.47328 0.646778 0
M  V30 13680 O 1333.42 1.69626 0.505581 0
M  V30 13681 C 1330.55 3.36411 0.684297 0
M  V30 13682 C 1329.63 4.2385 -0.145551 0
M  V30 13683 N 1330.02 4.91263 -1.20391 0
M  V30 13684 C 1328.32 4.45938 0.074359 0
M  V30 13685 C 1329.02 5.56006 -1.70974 0
M  V30 13686 N 1328 5.33989 -1.0177 0
M  V30 13687 H 1331.8 2.76945 -0.983794 0
M  V30 13688 H 1329.31 1.49369 -0.637388 0
M  V30 13689 H 1331.31 4.00817 1.14681 0
M  V30 13690 H 1329.97 2.88355 1.49269 0
M  V30 13691 H 1330.98 4.93004 -1.58644 0
M  V30 13692 H 1327.66 4.08701 0.852644 0
M  V30 13693 H 1329.05 6.19818 -2.59375 0
M  V30 13694 N 1331.77 0.549846 1.47697 0
M  V30 13695 C 1333.18 0.11453 1.86348 0
M  V30 13696 C 1333.53 -1.31368 1.45729 0
M  V30 13697 O 1332.66 -1.98707 0.856989 0
M  V30 13698 C 1333.25 0.201072 3.38203 0
M  V30 13699 C 1331.81 -0.179162 3.75973 0
M  V30 13700 C 1330.96 0.551951 2.71751 0
M  V30 13701 H 1333.91 0.759989 1.39319 0
M  V30 13702 H 1333.93 -0.582216 3.76019 0
M  V30 13703 H 1333.44 1.24065 3.67736 0
M  V30 13704 H 1331.54 -1.22013 3.52056 0
M  V30 13705 H 1331.65 0.174273 4.78783 0
M  V30 13706 H 1330.02 -0.00411819 2.547 0
M  V30 13707 H 1330.8 1.59254 3.04127 0
M  V30 13708 N 1333.25 -1.54984 0.285932 0
M  V30 13709 C 1334.5 -1.99008 -0.328433 0
M  V30 13710 C 1334.81 -1.17787 -1.56158 0
M  V30 13711 O 1336.01 -1.52006 -2.24959 0
M  V30 13712 C 1334.47 -3.54241 -0.635688 0
M  V30 13713 C 1334.08 -4.44252 0.578271 0
M  V30 13714 C 1335.82 -4.06828 -1.21208 0
M  V30 13715 C 1333.73 -5.90892 0.245003 0
M  V30 13716 H 1332.66 -0.743314 -0.126494 0
M  V30 13717 H 1335.31 -1.79258 0.39228 0
M  V30 13718 H 1333.69 -3.69834 -1.41559 0
M  V30 13719 H 1334.87 -4.40431 1.35489 0
M  V30 13720 H 1333.18 -4.02358 1.07225 0
M  V30 13721 H 1335.78 -5.13941 -1.47542 0
M  V30 13722 H 1336.12 -3.56515 -2.14948 0
M  V30 13723 H 1336.65 -3.94718 -0.494222 0
M  V30 13724 H 1333.39 -6.45323 1.15057 0
M  V30 13725 H 1332.91 -5.97757 -0.494636 0
M  V30 13726 H 1334.59 -6.46805 -0.158891 0
M  V30 13727 N 1334.72 -0.0133892 -1.57594 0
M  V30 13728 C 1335.97 0.668634 -1.91143 0
M  V30 13729 C 1336.3 1.7303 -0.888299 0
M  V30 13730 O 1335.55 1.95418 0.105056 0
M  V30 13731 C 1335.85 1.33729 -3.31438 0
M  V30 13732 C 1335.52 0.407527 -4.49055 0
M  V30 13733 C 1334.18 0.151573 -4.80961 0
M  V30 13734 C 1336.53 -0.231835 -5.20684 0
M  V30 13735 C 1333.86 -0.751812 -5.81863 0
M  V30 13736 C 1336.21 -1.12318 -6.22549 0
M  V30 13737 C 1334.88 -1.38818 -6.52906 0
M  V30 13738 H 1334.15 0.24467 -0.699441 0
M  V30 13739 H 1336.79 -0.0717876 -1.91365 0
M  V30 13740 H 1335.1 2.15209 -3.27403 0
M  V30 13741 H 1336.8 1.87128 -3.5466 0
M  V30 13742 H 1333.39 0.617192 -4.24133 0
M  V30 13743 H 1337.57 -0.0471268 -4.96278 0
M  V30 13744 H 1332.83 -0.964991 -6.03737 0
M  V30 13745 H 1337 -1.62488 -6.77179 0
M  V30 13746 H 1334.63 -2.08986 -7.3091 0
M  V30 13747 N 1336.2 1.55448 0.259558 0
M  V30 13748 C 1337.43 1.81063 1.01148 0
M  V30 13749 C 1337.85 0.58875 1.78649 0
M  V30 13750 O 1337.21 -0.461971 1.75315 0
M  V30 13751 C 1337.26 3.04279 1.93512 0
M  V30 13752 O 1336.36 2.80307 3.02493 0
M  V30 13753 H 1335.7 0.598056 0.288487 0
M  V30 13754 H 1338.23 2.02614 0.284387 0
M  V30 13755 H 1338.24 3.33373 2.35215 0
M  V30 13756 H 1336.92 3.92856 1.36518 0
M  V30 13757 H 1335.5 2.62345 2.65008 0
M  V30 13758 N 1337.68 -0.524672 1.4861 0
M  V30 13759 C 1338.61 -1.63782 1.66426 0
M  V30 13760 C 1339.59 -1.62177 0.513077 0
M  V30 13761 O 1340.78 -1.7929 0.74623 0
M  V30 13762 C 1337.91 -3.02354 1.70877 0
M  V30 13763 C 1336.86 -3.18819 2.85549 0
M  V30 13764 C 1336.19 -4.58506 2.75094 0
M  V30 13765 C 1337.49 -3.01086 4.26784 0
M  V30 13766 H 1339.18 -1.49127 2.59618 0
M  V30 13767 H 1336.73 -0.715997 1.24938 0
M  V30 13768 H 1338.68 -3.80105 1.81929 0
M  V30 13769 H 1337.4 -3.18044 0.742682 0
M  V30 13770 H 1336.06 -2.43487 2.74061 0
M  V30 13771 H 1335.71 -4.71038 1.76443 0
M  V30 13772 H 1335.41 -4.70466 3.52044 0
M  V30 13773 H 1336.93 -5.38348 2.88121 0
M  V30 13774 H 1338.35 -3.68624 4.39077 0
M  V30 13775 H 1336.75 -3.24536 5.04774 0
M  V30 13776 H 1337.82 -1.97454 4.42877 0
M  V30 13777 N 1339.16 -1.37287 -0.77395 0
M  V30 13778 C 1340.11 -1.32955 -1.90855 0
M  V30 13779 C 1341.1 -0.218695 -1.67982 0
M  V30 13780 O 1342.31 -0.386594 -1.75799 0
M  V30 13781 H 1338.68 -0.414289 -0.62759 0
M  V30 13782 H 1340.65 -2.2874 -1.91626 0
M  V30 13783 C 1339.4 -1.15121 -3.28089 0
M  V30 13784 H 1338.72 -1.99852 -3.46264 0
M  V30 13785 H 1340.16 -1.1614 -4.07784 0
M  V30 13786 C 1338.62 0.14327 -3.36595 0
M  V30 13787 O 1339.15 1.12763 -3.85548 0
M  V30 13788 N 1337.36 0.193219 -2.89957 0
M  V30 13789 H 1336.91 -0.608471 -2.50311 0
M  V30 13790 H 1336.86 1.05897 -2.96029 0
M  V30 13791 N 1340.64 0.999871 -1.21821 0
M  V30 13792 C 1341.88 1.74194 -1.05014 0
M  V30 13793 C 1342.24 1.8795 0.411388 0
M  V30 13794 O 1341.53 1.4065 1.30108 0
M  V30 13795 C 1341.72 3.1509 -1.6868 0
M  V30 13796 C 1341.55 3.15073 -3.20872 0
M  V30 13797 C 1340.32 3.21361 -3.89942 0
M  V30 13798 C 1342.52 2.9978 -4.17896 0
M  V30 13799 N 1340.5 3.11024 -5.2928 0
M  V30 13800 C 1341.87 2.97396 -5.44018 0
M  V30 13801 C 1343.93 2.84119 -4.08877 0
M  V30 13802 C 1342.63 2.80956 -6.6216 0
M  V30 13803 C 1344.66 2.69038 -5.26662 0
M  V30 13804 C 1344.02 2.67335 -6.51699 0
M  V30 13805 H 1340.12 0.647385 -0.438653 0
M  V30 13806 H 1342.7 1.18801 -1.54255 0
M  V30 13807 H 1340.87 3.68742 -1.22 0
M  V30 13808 H 1342.61 3.7782 -1.45031 0
M  V30 13809 H 1339.36 3.28763 -3.40898 0
M  V30 13810 H 1339.79 3.09184 -6.02274 0
M  V30 13811 H 1344.43 2.84238 -3.12999 0
M  V30 13812 H 1342.15 2.79583 -7.58194 0
M  V30 13813 H 1345.73 2.57913 -5.21509 0
M  V30 13814 H 1344.61 2.55805 -7.41305 0
M  V30 13815 N 1342.11 1.02678 1.19562 0
M  V30 13816 C 1343.02 0.615738 2.26375 0
M  V30 13817 C 1344.04 -0.351525 1.70412 0
M  V30 13818 O 1345.22 -0.209932 2.00303 0
M  V30 13819 C 1342.28 -0.0292135 3.46688 0
M  V30 13820 C 1341.34 0.985284 4.1784 0
M  V30 13821 C 1340.58 0.371016 5.32409 0
M  V30 13822 O 1340.8 -0.826591 5.64379 0
M  V30 13823 O 1339.73 1.09282 5.91896 0
M  V30 13824 H 1343.56 1.50526 2.63772 0
M  V30 13825 H 1341.14 0.796847 1.26375 0
M  V30 13826 H 1343.03 -0.38893 4.19601 0
M  V30 13827 H 1341.7 -0.892778 3.11145 0
M  V30 13828 H 1340.61 1.39655 3.47055 0
M  V30 13829 H 1341.94 1.81915 4.57349 0
M  V30 13830 N 1343.59 -1.35528 0.804364 0
M  V30 13831 C 1344.83 -2.00658 0.389299 0
M  V30 13832 C 1345.2 -1.62431 -1.02373 0
M  V30 13833 O 1346.4 -2.20264 -1.54068 0
M  V30 13834 C 1344.67 -3.52913 0.564569 0
M  V30 13835 S 1346.23 -4.38145 0.239597 0
M  V30 13836 H 1343.05 -0.695435 0.147958 0
M  V30 13837 H 1345.65 -1.65156 1.04613 0
M  V30 13838 H 1344.35 -3.78222 1.59299 0
M  V30 13839 H 1343.88 -3.93253 -0.10766 0
M  V30 13840 H 1345.9 -4.86952 -0.953533 0
M  V30 13841 N 1345.07 -0.557671 -1.47404 0
M  V30 13842 C 1346.32 -0.0338384 -2.02772 0
M  V30 13843 C 1346.65 1.31278 -1.43107 0
M  V30 13844 O 1345.93 1.85436 -0.58682 0
M  V30 13845 C 1346.21 0.0587427 -3.60052 0
M  V30 13846 C 1346.06 -1.315 -4.30148 0
M  V30 13847 C 1347.38 0.771942 -4.33277 0
M  V30 13848 H 1344.5 -0.0137711 -0.736871 0
M  V30 13849 H 1347.14 -0.720049 -1.75827 0
M  V30 13850 H 1345.29 0.643154 -3.83139 0
M  V30 13851 H 1346.96 -1.94265 -4.184 0
M  V30 13852 H 1345.21 -1.88956 -3.90484 0
M  V30 13853 H 1345.88 -1.20294 -5.38733 0
M  V30 13854 H 1348.35 0.275729 -4.15185 0
M  V30 13855 H 1347.23 0.805683 -5.42955 0
M  V30 13856 H 1347.49 1.82816 -4.0253 0
M  V30 13857 N 1346.55 1.54831 -0.294147 0
M  V30 13858 C 1347.8 2.00298 0.317605 0
M  V30 13859 C 1348.13 1.18228 1.54064 0
M  V30 13860 O 1347.4 0.257034 1.92794 0
M  V30 13861 C 1347.69 3.53602 0.680991 0
M  V30 13862 C 1347.54 4.46416 -0.550711 0
M  V30 13863 C 1348.86 4.13379 1.51016 0
M  V30 13864 H 1345.98 0.728135 0.113965 0
M  V30 13865 H 1348.62 1.85636 -0.404883 0
M  V30 13866 H 1346.77 3.66227 1.29654 0
M  V30 13867 H 1348.44 4.45707 -1.18922 0
M  V30 13868 H 1346.68 4.17294 -1.18524 0
M  V30 13869 H 1347.36 5.51423 -0.252412 0
M  V30 13870 H 1349.83 4.04148 0.99012 0
M  V30 13871 H 1348.71 5.20818 1.73321 0
M  V30 13872 H 1348.97 3.64817 2.49722 0
M  V30 13873 N 1348.03 0.0217466 1.57585 0
M  V30 13874 C 1349.25 -0.67246 1.96196 0
M  V30 13875 C 1349.68 -1.6529 0.897827 0
M  V30 13876 O 1349.04 -1.80743 -0.142002 0
M  V30 13877 C 1349.08 -1.36162 3.33905 0
M  V30 13878 O 1348.19 -2.47671 3.29747 0
M  V30 13879 H 1347.53 -0.177238 0.639908 0
M  V30 13880 H 1350.06 0.0814073 2.04438 0
M  V30 13881 H 1350.07 -1.7201 3.69968 0
M  V30 13882 H 1348.74 -0.642893 4.10901 0
M  V30 13883 H 1347.32 -2.13989 3.0539 0
M  V30 13884 N 1349.51 -1.55583 -0.251311 0
M  V30 13885 C 1350.75 -1.77209 -0.979966 0
M  V30 13886 C 1351.08 -0.585279 -1.85485 0
M  V30 13887 O 1350.34 0.431559 -1.90882 0
M  V30 13888 C 1350.63 -3.04291 -1.87461 0
M  V30 13889 C 1350.3 -4.35844 -1.15545 0
M  V30 13890 C 1348.96 -4.71594 -0.956679 0
M  V30 13891 C 1351.31 -5.17189 -0.645381 0
M  V30 13892 C 1348.64 -5.86227 -0.235465 0
M  V30 13893 C 1350.99 -6.32569 0.0623441 0
M  V30 13894 C 1349.66 -6.66943 0.272634 0
M  V30 13895 H 1348.93 -0.648452 -0.358595 0
M  V30 13896 H 1351.58 -1.89856 -0.250423 0
M  V30 13897 H 1349.88 -2.86637 -2.67108 0
M  V30 13898 H 1351.58 -3.18221 -2.44001 0
M  V30 13899 H 1348.17 -4.07757 -1.32031 0
M  V30 13900 H 1352.35 -4.90028 -0.786505 0
M  V30 13901 H 1347.61 -6.11369 -0.0620232 0
M  V30 13902 H 1351.78 -6.94844 0.465234 0
M  V30 13903 H 1349.41 -7.55617 0.833442 0
M  V30 13904 N 1350.98 0.516783 -1.48886 0
M  V30 13905 C 1351.91 1.62897 -1.67292 0
M  V30 13906 C 1352.89 1.61903 -0.521671 0
M  V30 13907 O 1354.08 1.78892 -0.755728 0
M  V30 13908 C 1351.21 3.01444 -1.72478 0
M  V30 13909 C 1350.16 3.173 -2.87236 0
M  V30 13910 C 1349.49 4.5704 -2.77522 0
M  V30 13911 C 1350.79 2.98818 -4.28375 0
M  V30 13912 H 1352.48 1.47748 -2.60405 0
M  V30 13913 H 1350.03 0.709361 -1.25316 0
M  V30 13914 H 1351.98 3.79135 -1.83942 0
M  V30 13915 H 1350.71 3.17645 -0.759538 0
M  V30 13916 H 1349.37 2.4203 -2.75349 0
M  V30 13917 H 1349.01 4.70096 -1.78938 0
M  V30 13918 H 1348.71 4.68593 -3.54534 0
M  V30 13919 H 1350.24 5.36813 -2.90972 0
M  V30 13920 H 1351.65 3.66291 -4.41026 0
M  V30 13921 H 1350.05 3.21854 -5.06488 0
M  V30 13922 H 1351.12 1.95102 -4.43918 0
M  V30 13923 N 1352.46 1.37696 0.766659 0
M  V30 13924 C 1353.71 1.34388 1.5268 0
M  V30 13925 C 1354.06 -0.0697021 1.92274 0
M  V30 13926 O 1353.36 -1.02947 1.61593 0
M  V30 13927 C 1353.55 2.22154 2.79968 0
M  V30 13928 C 1353.38 3.71905 2.52817 0
M  V30 13929 C 1352.15 4.4099 2.4669 0
M  V30 13930 C 1354.35 4.64647 2.2047 0
M  V30 13931 N 1352.33 5.76252 2.11676 0
M  V30 13932 C 1353.7 5.88324 1.95639 0
M  V30 13933 C 1355.75 4.52982 2.06669 0
M  V30 13934 C 1354.46 7.01643 1.58399 0
M  V30 13935 C 1356.48 5.6619 1.7083 0
M  V30 13936 C 1355.85 6.8892 1.46861 0
M  V30 13937 H 1351.94 0.547046 0.558806 0
M  V30 13938 H 1354.53 1.72964 0.893954 0
M  V30 13939 H 1352.7 1.85788 3.41083 0
M  V30 13940 H 1354.43 2.10068 3.4591 0
M  V30 13941 H 1351.19 3.94051 2.62718 0
M  V30 13942 H 1351.61 6.47749 1.96852 0
M  V30 13943 H 1356.25 3.58661 2.2388 0
M  V30 13944 H 1353.97 7.95893 1.39926 0
M  V30 13945 H 1357.56 5.59137 1.60802 0
M  V30 13946 H 1356.44 7.75035 1.1954 0
M  V30 13947 N 1353.94 -0.993397 1.22349 0
M  V30 13948 C 1354.89 -2.10463 0.990358 0
M  V30 13949 C 1355.88 -1.6927 -0.0663528 0
M  V30 13950 O 1357.09 -1.79794 0.0860444 0
M  V30 13951 H 1353.46 -0.688222 0.303075 0
M  V30 13952 H 1355.43 -2.273 1.93333 0
M  V30 13953 C 1354.18 -3.42757 0.584205 0
M  V30 13954 H 1353.51 -3.74896 1.38899 0
M  V30 13955 H 1354.95 -4.21492 0.46049 0
M  V30 13956 C 1353.4 -3.29416 -0.706187 0
M  V30 13957 O 1353.93 -3.61152 -1.75875 0
M  V30 13958 N 1352.14 -2.82601 -0.677148 0
M  V30 13959 H 1351.69 -2.56972 0.179712 0
M  V30 13960 H 1351.65 -2.74056 -1.54081 0
M  V30 13961 N 1355.42 -1.03311 -1.19015 0
M  V30 13962 C 1356.65 -0.751802 -1.92758 0
M  V30 13963 C 1357.06 0.689982 -1.7574 0
M  V30 13964 O 1356.42 1.46961 -1.08207 0
M  V30 13965 C 1356.47 -1.09892 -3.44392 0
M  V30 13966 O 1356.19 -2.48409 -3.60866 0
M  V30 13967 C 1357.69 -0.841029 -4.35249 0
M  V30 13968 H 1354.91 -0.274757 -0.612168 0
M  V30 13969 H 1357.45 -1.37873 -1.51034 0
M  V30 13970 H 1355.61 -0.517092 -3.83933 0
M  V30 13971 H 1356.02 -2.61468 -4.54681 0
M  V30 13972 H 1357.5 -1.13383 -5.4023 0
M  V30 13973 H 1357.97 0.224434 -4.38626 0
M  V30 13974 H 1358.58 -1.40579 -4.01395 0
M  V30 13975 N 1356.9 1.35099 -0.81154 0
M  V30 13976 C 1357.81 2.33499 -0.22705 0
M  V30 13977 C 1358.82 1.62095 0.632562 0
M  V30 13978 O 1360 1.93938 0.543147 0
M  V30 13979 C 1357.06 3.41279 0.610687 0
M  V30 13980 C 1356.12 4.2845 -0.269994 0
M  V30 13981 C 1355.36 5.31083 0.527854 0
M  V30 13982 O 1355.58 5.42499 1.76213 0
M  V30 13983 O 1354.51 6.01842 -0.083862 0
M  V30 13984 H 1358.34 2.85294 -1.04119 0
M  V30 13985 H 1355.92 1.37957 -0.573432 0
M  V30 13986 H 1357.81 4.07121 1.08768 0
M  V30 13987 H 1356.48 2.91746 1.40235 0
M  V30 13988 H 1355.39 3.65572 -0.794234 0
M  V30 13989 H 1356.72 4.81394 -1.02572 0
M  V30 13990 N 1358.37 0.56548 1.47106 0
M  V30 13991 C 1359.34 -0.167191 2.28589 0
M  V30 13992 C 1360.34 -0.835005 1.3742 0
M  V30 13993 O 1361.53 -0.689598 1.59969 0
M  V30 13994 C 1358.66 -1.24548 3.17333 0
M  V30 13995 H 1359.85 0.548677 2.94838 0
M  V30 13996 H 1357.4 0.322749 1.52931 0
M  V30 13997 H 1358.14 -1.99348 2.55794 0
M  V30 13998 H 1357.92 -0.771335 3.84438 0
M  V30 13999 H 1359.41 -1.75985 3.78707 0
M  V30 14000 N 1359.85 -1.54672 0.302354 0
M  V30 14001 C 1360.82 -2.22246 -0.560283 0
M  V30 14002 C 1361.82 -1.20895 -1.06023 0
M  V30 14003 O 1363.01 -1.45621 -0.956047 0
M  V30 14004 C 1360.14 -2.9099 -1.77589 0
M  V30 14005 H 1361.33 -2.99885 0.0301274 0
M  V30 14006 H 1358.88 -1.56209 0.0532036 0
M  V30 14007 H 1359.62 -2.17433 -2.4061 0
M  V30 14008 H 1359.4 -3.65288 -1.42503 0
M  V30 14009 H 1360.89 -3.42535 -2.38871 0
M  V30 14010 N 1361.33 -0.0301034 -1.57571 0
M  V30 14011 C 1362.57 0.652469 -1.93706 0
M  V30 14012 C 1362.93 1.69236 -0.906817 0
M  V30 14013 O 1364.14 2.42749 -1.1544 0
M  V30 14014 C 1362.41 1.25199 -3.34753 0
M  V30 14015 S 1363.97 1.9555 -3.92817 0
M  V30 14016 H 1360.78 0.214795 -0.677779 0
M  V30 14017 H 1363.39 -0.0940038 -1.95274 0
M  V30 14018 H 1362.09 0.482732 -4.07551 0
M  V30 14019 H 1361.62 2.03575 -3.36632 0
M  V30 14020 H 1363.64 3.23401 -3.76332 0
M  V30 14021 N 1362.81 1.55714 0.243056 0
M  V30 14022 C 1364.22 1.68126 0.811814 0
M  V30 14023 C 1364.57 0.628259 1.85869 0
M  V30 14024 O 1363.7 -0.224747 2.1523 0
M  V30 14025 C 1364.29 3.048 1.47928 0
M  V30 14026 C 1362.85 3.19138 1.99569 0
M  V30 14027 C 1362 2.64011 0.848149 0
M  V30 14028 H 1364.95 1.58689 0.0187918 0
M  V30 14029 H 1364.97 2.99459 2.34743 0
M  V30 14030 H 1364.48 3.81417 0.717106 0
M  V30 14031 H 1362.58 2.4735 2.78655 0
M  V30 14032 H 1362.69 4.26095 2.19043 0
M  V30 14033 H 1361.06 2.21934 1.2497 0
M  V30 14034 H 1361.84 3.43157 0.0989987 0
M  V30 14035 N 1364.29 -0.50888 1.49158 0
M  V30 14036 C 1365.54 -1.26008 1.57496 0
M  V30 14037 C 1365.85 -1.9382 0.263281 0
M  V30 14038 O 1367.05 -2.70565 0.225117 0
M  V30 14039 C 1365.51 -2.28752 2.7785 0
M  V30 14040 C 1365.12 -1.66915 4.15744 0
M  V30 14041 C 1366.86 -3.0475 2.95513 0
M  V30 14042 C 1364.77 -2.67724 5.27331 0
M  V30 14043 H 1363.7 -0.473984 0.586392 0
M  V30 14044 H 1366.35 -0.534886 1.75531 0
M  V30 14045 H 1364.73 -3.044 2.53292 0
M  V30 14046 H 1365.91 -0.973131 4.50407 0
M  V30 14047 H 1364.22 -1.03336 4.03374 0
M  V30 14048 H 1366.82 -3.80121 3.76048 0
M  V30 14049 H 1367.16 -3.6189 2.05771 0
M  V30 14050 H 1367.69 -2.36217 3.20072 0
M  V30 14051 H 1364.43 -2.15375 6.19107 0
M  V30 14052 H 1363.95 -3.35589 4.97132 0
M  V30 14053 H 1365.63 -3.30304 5.56335 0
M  V30 14054 N 1365.76 -1.381 -0.759346 0
M  V30 14055 C 1366.7 -1.3075 -1.88248 0
M  V30 14056 C 1367.71 -0.220835 -1.61295 0
M  V30 14057 O 1368.9 -0.477952 -1.71982 0
M  V30 14058 C 1366 -1.00174 -3.23757 0
M  V30 14059 C 1365.17 -2.19635 -3.78258 0
M  V30 14060 C 1364.23 -1.85892 -4.92271 0
M  V30 14061 O 1363.26 -2.58325 -5.07205 0
M  V30 14062 N 1364.46 -0.810436 -5.74815 0
M  V30 14063 H 1367.22 -2.27529 -1.95065 0
M  V30 14064 H 1364.78 -1.31886 -0.93902 0
M  V30 14065 H 1366.78 -0.756631 -3.97564 0
M  V30 14066 H 1365.35 -0.122094 -3.12361 0
M  V30 14067 H 1364.57 -2.60246 -2.96084 0
M  V30 14068 H 1365.85 -2.99373 -4.11404 0
M  V30 14069 H 1365.25 -0.209644 -5.65311 0
M  V30 14070 H 1363.81 -0.625206 -6.48795 0
M  V30 14071 N 1367.24 0.986894 -1.22875 0
M  V30 14072 C 1368.47 1.76266 -1.08342 0
M  V30 14073 C 1368.89 1.85226 0.365602 0
M  V30 14074 O 1368.24 1.32675 1.25314 0
M  V30 14075 C 1368.29 3.19282 -1.69533 0
M  V30 14076 O 1368.01 3.10796 -3.08768 0
M  V30 14077 C 1369.52 4.13281 -1.60355 0
M  V30 14078 H 1366.74 0.553374 -0.379497 0
M  V30 14079 H 1369.28 1.24033 -1.62592 0
M  V30 14080 H 1367.43 3.68563 -1.19332 0
M  V30 14081 H 1367.85 4.0078 -3.38343 0
M  V30 14082 H 1369.32 5.11359 -2.07884 0
M  V30 14083 H 1369.8 4.356 -0.561182 0
M  V30 14084 H 1370.41 3.699 -2.09891 0
M  V30 14085 N 1368.72 1.0394 1.18466 0
M  V30 14086 C 1369.95 0.762014 1.92356 0
M  V30 14087 C 1370.36 -0.680652 1.76104 0
M  V30 14088 O 1369.72 -1.46385 1.08985 0
M  V30 14089 C 1369.77 1.11717 3.43805 0
M  V30 14090 O 1369.49 2.50319 3.59544 0
M  V30 14091 C 1370.99 0.864099 4.34797 0
M  V30 14092 H 1368.21 0.277999 0.610702 0
M  V30 14093 H 1370.76 1.38672 1.503 0
M  V30 14094 H 1368.91 0.537445 3.83654 0
M  V30 14095 H 1369.33 2.63875 4.53288 0
M  V30 14096 H 1370.8 1.16247 5.39621 0
M  V30 14097 H 1371.28 -0.20117 4.38739 0
M  V30 14098 H 1371.88 1.42706 4.00643 0
M  V30 14099 N 1370.2 -1.34667 0.818693 0
M  V30 14100 C 1371.43 -2.02642 0.417608 0
M  V30 14101 C 1371.84 -1.61667 -0.97516 0
M  V30 14102 O 1371.2 -0.820056 -1.63038 0
M  V30 14103 C 1371.25 -3.57951 0.505295 0
M  V30 14104 O 1370.97 -3.97441 1.84317 0
M  V30 14105 C 1372.47 -4.4319 0.0985667 0
M  V30 14106 H 1369.69 -0.6496 0.168111 0
M  V30 14107 H 1372.24 -1.72032 1.10568 0
M  V30 14108 H 1370.39 -3.87166 -0.134646 0
M  V30 14109 H 1370.8 -4.92116 1.81444 0
M  V30 14110 H 1372.28 -5.51597 0.211015 0
M  V30 14111 H 1372.76 -4.28637 -0.95745 0
M  V30 14112 H 1373.36 -4.19295 0.71214 0
M  V30 14113 N 1371.68 -0.573274 -1.46804 0
M  V30 14114 C 1372.95 0.011163 -1.95597 0
M  V30 14115 C 1373.33 1.4691 -1.51594 0
M  V30 14116 O 1372.68 2.15413 -0.76221 0
M  V30 14117 C 1372.89 -0.151045 -3.48673 0
M  V30 14118 C 1374.24 -0.0139817 -4.24598 0
M  V30 14119 O 1375.26 -0.0794008 -3.56111 0
M  V30 14120 O 1374.12 0.129547 -5.46346 0
M  V30 14121 H 1371.22 0.0551258 -0.825161 0
M  V30 14122 H 1373.76 -0.640928 -1.57131 0
M  V30 14123 H 1372.53 -1.16494 -3.73557 0
M  V30 14124 H 1372.16 0.537917 -3.93944 0
M  V30 14125 N 1373.15 1.5451 -0.310553 0
M  V30 14126 C 1374.38 2.04739 0.29824 0
M  V30 14127 C 1374.8 1.18737 1.46788 0
M  V30 14128 O 1374.15 0.215114 1.81228 0
M  V30 14129 C 1374.21 3.53734 0.745274 0
M  V30 14130 O 1373.93 4.36468 -0.377826 0
M  V30 14131 C 1375.43 4.20001 1.41823 0
M  V30 14132 H 1372.65 0.667997 0.0634159 0
M  V30 14133 H 1375.19 1.9942 -0.452961 0
M  V30 14134 H 1373.35 3.59383 1.44648 0
M  V30 14135 H 1373.76 5.24492 -0.0280567 0
M  V30 14136 H 1375.23 5.25747 1.68209 0
M  V30 14137 H 1375.71 3.70319 2.36137 0
M  V30 14138 H 1376.32 4.18455 0.759951 0
M  V30 14139 N 1374.63 0.0384594 1.57553 0
M  V30 14140 C 1375.91 -0.677308 1.83499 0
M  V30 14141 C 1376.29 -1.89789 0.924294 0
M  V30 14142 O 1375.64 -2.28493 -0.0178185 0
M  V30 14143 C 1375.85 -1.04667 3.32935 0
M  V30 14144 C 1377.2 -1.43436 3.99639 0
M  V30 14145 O 1378.22 -1.13938 3.37486 0
M  V30 14146 O 1377.08 -1.98435 5.09201 0
M  V30 14147 H 1374.17 -0.333131 0.756936 0
M  V30 14148 H 1376.72 0.066854 1.69568 0
M  V30 14149 H 1375.49 -0.178349 3.90893 0
M  V30 14150 H 1375.11 -1.8487 3.52007 0
M  V30 14151 N 1376.11 -1.55841 -0.234795 0
M  V30 14152 C 1377.04 -1.87793 -1.31402 0
M  V30 14153 C 1378.06 -0.765113 -1.43701 0
M  V30 14154 O 1379.25 -1.04332 -1.44834 0
M  V30 14155 C 1376.35 -2.05976 -2.69123 0
M  V30 14156 C 1375.52 -3.36914 -2.7894 0
M  V30 14157 C 1374.58 -3.44691 -3.97586 0
M  V30 14158 O 1373.6 -4.17818 -3.86545 0
M  V30 14159 N 1374.81 -2.74866 -5.11301 0
M  V30 14160 H 1377.57 -2.80957 -1.04324 0
M  V30 14161 H 1375.13 -1.56226 -0.424872 0
M  V30 14162 H 1377.12 -2.08507 -3.46853 0
M  V30 14163 H 1375.69 -1.195 -2.88857 0
M  V30 14164 H 1374.91 -3.46595 -1.87791 0
M  V30 14165 H 1376.2 -4.23196 -2.82458 0
M  V30 14166 H 1375.6 -2.15208 -5.23165 0
M  V30 14167 H 1374.16 -2.83075 -5.87122 0
M  V30 14168 N 1377.59 0.500963 -1.49426 0
M  V30 14169 C 1378.55 1.58478 -1.65582 0
M  V30 14170 C 1379.55 1.51897 -0.52762 0
M  V30 14171 O 1380.74 1.55049 -0.794071 0
M  V30 14172 C 1377.87 2.9813 -1.65322 0
M  V30 14173 H 1379.07 1.45483 -2.6225 0
M  V30 14174 H 1376.62 0.725199 -1.38458 0
M  V30 14175 H 1377.36 3.16602 -0.702384 0
M  V30 14176 H 1377.14 3.04315 -2.47255 0
M  V30 14177 H 1378.63 3.76874 -1.79878 0
M  V30 14178 N 1379.07 1.38501 0.752011 0
M  V30 14179 C 1380.31 1.36212 1.52399 0
M  V30 14180 C 1380.67 -0.0472831 1.91942 0
M  V30 14181 O 1381.87 -0.195055 2.68091 0
M  V30 14182 C 1380.14 2.2925 2.74188 0
M  V30 14183 S 1381.7 2.44995 3.64037 0
M  V30 14184 H 1378.52 0.483276 0.521503 0
M  V30 14185 H 1381.12 1.74441 0.882647 0
M  V30 14186 H 1379.83 3.30541 2.4325 0
M  V30 14187 H 1379.36 1.92176 3.43266 0
M  V30 14188 H 1381.37 1.67519 4.67067 0
M  V30 14189 N 1380.55 -0.980364 1.23396 0
M  V30 14190 C 1381.77 -1.76223 1.09363 0
M  V30 14191 C 1382.2 -1.84801 -0.350759 0
M  V30 14192 O 1381.55 -1.30966 -1.2537 0
M  V30 14193 C 1381.6 -3.16728 1.72383 0
M  V30 14194 O 1380.71 -4.00439 0.986002 0
M  V30 14195 H 1380.05 -0.542174 0.383332 0
M  V30 14196 H 1382.58 -1.23066 1.6345 0
M  V30 14197 H 1382.59 -3.67307 1.77623 0
M  V30 14198 H 1381.26 -3.098 2.77483 0
M  V30 14199 H 1379.84 -3.58946 1.01054 0
M  V30 14200 N 1382.02 -1.04567 -1.17913 0
M  V30 14201 C 1383.27 -0.747179 -1.8735 0
M  V30 14202 C 1383.59 0.728274 -1.81537 0
M  V30 14203 O 1384.79 1.14048 -2.46385 0
M  V30 14204 C 1383.25 -1.28629 -3.36129 0
M  V30 14205 C 1382.86 -2.79073 -3.5046 0
M  V30 14206 C 1384.6 -1.06455 -4.10935 0
M  V30 14207 C 1382.51 -3.26316 -4.93226 0
M  V30 14208 H 1381.44 -0.275807 -0.701745 0
M  V30 14209 H 1384.09 -1.26215 -1.33199 0
M  V30 14210 H 1382.47 -0.699151 -3.89779 0
M  V30 14211 H 1383.64 -3.43587 -3.07057 0
M  V30 14212 H 1381.96 -2.99716 -2.89066 0
M  V30 14213 H 1384.56 -1.3926 -5.16247 0
M  V30 14214 H 1384.9 -0.00201298 -4.163 0
M  V30 14215 H 1385.43 -1.61656 -3.63472 0
M  V30 14216 H 1382.17 -4.31972 -4.93032 0
M  V30 14217 H 1381.69 -2.6654 -5.37323 0
M  V30 14218 H 1383.37 -3.2063 -5.61966 0
M  V30 14219 N 1383.5 1.34231 -0.825823 0
M  V30 14220 C 1384.92 1.51166 -0.511945 0
M  V30 14221 C 1385.12 1.76981 0.963318 0
M  V30 14222 O 1384.17 1.82243 1.74767 0
M  V30 14223 C 1385.49 2.67474 -1.37399 0
M  V30 14224 C 1387.03 2.81356 -1.37141 0
M  V30 14225 C 1387.51 4.0071 -2.218 0
M  V30 14226 N 1389 4.07922 -2.19439 0
M  V30 14227 C 1389.74 4.99438 -2.81691 0
M  V30 14228 N 1389.23 5.96157 -3.52944 0
M  V30 14229 N 1391.02 4.92332 -2.7123 0
M  V30 14230 H 1383.18 1.15734 -1.78099 0
M  V30 14231 H 1385.44 0.567856 -0.759107 0
M  V30 14232 H 1385.14 2.55036 -2.42176 0
M  V30 14233 H 1385.02 3.62558 -1.04075 0
M  V30 14234 H 1387.41 2.93233 -0.331405 0
M  V30 14235 H 1387.49 1.87072 -1.74464 0
M  V30 14236 H 1387.13 3.89593 -3.25852 0
M  V30 14237 H 1387.06 4.94213 -1.81826 0
M  V30 14238 H 1389.55 3.38695 -1.67612 0
M  V30 14239 H 1389.86 6.62623 -3.97682 0
M  V30 14240 H 1388.21 5.96272 -3.5705 0
M  V30 14241 H 1391.4 4.15733 -2.15137 0
M  V30 14242 H 1391.57 5.63458 -3.20031 0
M  V30 14243 N 1384.98 0.581051 1.46498 0
M  V30 14244 C 1386.26 -0.000789846 1.956 0
M  V30 14245 C 1386.64 -1.46104 1.52371 0
M  V30 14246 O 1385.98 -2.15005 0.773623 0
M  V30 14247 C 1386.19 0.169534 3.48588 0
M  V30 14248 C 1387.54 0.036499 4.24584 0
M  V30 14249 O 1388.57 0.0982852 3.56064 0
M  V30 14250 O 1387.43 -0.100571 5.46407 0
M  V30 14251 H 1384.52 -0.050749 0.825441 0
M  V30 14252 H 1387.07 0.649252 1.56789 0
M  V30 14253 H 1385.84 1.18473 3.72934 0
M  V30 14254 H 1385.46 -0.517017 3.94224 0
M  V30 14255 N 1386.46 -1.54343 0.318742 0
M  V30 14256 C 1387.87 -1.85922 -0.170309 0
M  V30 14257 C 1388.22 -1.24047 -1.52009 0
M  V30 14258 O 1387.34 -0.544705 -2.09432 0
M  V30 14259 C 1387.94 -3.37325 -0.315802 0
M  V30 14260 C 1386.5 -3.68871 -0.749073 0
M  V30 14261 C 1385.65 -2.76985 0.13209 0
M  V30 14262 H 1388.6 -1.4926 0.539185 0
M  V30 14263 H 1388.62 -3.62784 -1.14751 0
M  V30 14264 H 1388.13 -3.8233 0.66674 0
M  V30 14265 H 1386.23 -3.29396 -1.74153 0
M  V30 14266 H 1386.34 -4.75861 -0.556164 0
M  V30 14267 H 1384.71 -2.51672 -0.391564 0
M  V30 14268 H 1385.49 -3.24815 1.11131 0
M  V30 14269 N 1387.94 -0.0468143 -1.5753 0
M  V30 14270 C 1388.88 0.946945 -2.12452 0
M  V30 14271 C 1389.88 1.32515 -1.05527 0
M  V30 14272 O 1391.08 1.30532 -1.23941 0
M  V30 14273 H 1387.46 0.323223 -0.678993 0
M  V30 14274 H 1389.43 0.45858 -2.94855 0
M  V30 14275 C 1388.18 2.21402 -2.68098 0
M  V30 14276 H 1387.5 1.93178 -3.50032 0
M  V30 14277 H 1388.94 2.89105 -3.10152 0
M  V30 14278 C 1387.4 2.95576 -1.61668 0
M  V30 14279 O 1387.93 3.88353 -1.02689 0
M  V30 14280 N 1386.14 2.58228 -1.33291 0
M  V30 14281 H 1385.68 1.82858 -1.8144 0
M  V30 14282 H 1385.64 3.08164 -0.623092 0
M  V30 14283 N 1389.41 1.55964 0.226527 0
M  V30 14284 C 1390.64 1.83168 0.972846 0
M  V30 14285 C 1391.06 0.626512 1.7736 0
M  V30 14286 O 1390.42 -0.42468 1.76256 0
M  V30 14287 C 1390.47 3.08315 1.87014 0
M  V30 14288 O 1389.57 2.8666 2.96479 0
M  V30 14289 H 1388.92 0.604041 0.275736 0
M  V30 14290 H 1391.45 2.03172 0.241345 0
M  V30 14291 H 1391.46 3.38288 2.28091 0
M  V30 14292 H 1390.13 3.95663 1.28154 0
M  V30 14293 H 1388.71 2.67907 2.59384 0
M  V30 14294 N 1390.89 -0.493031 1.4969 0
M  V30 14295 C 1392.14 -1.24418 1.59263 0
M  V30 14296 C 1392.46 -1.92908 0.284882 0
M  V30 14297 O 1391.73 -1.83108 -0.696302 0
M  V30 14298 H 1390.31 -0.462223 0.586821 0
M  V30 14299 H 1392.97 -0.570713 1.86357 0
M  V30 14300 H 1392.07 -2.00386 2.39274 0
M  V30 14301 N 1392.37 -1.38898 -0.744656 0
M  V30 14302 C 1393.62 -1.35595 -1.50401 0
M  V30 14303 C 1393.95 0.0511979 -1.94433 0
M  V30 14304 O 1393.2 1.03011 -1.66395 0
M  V30 14305 C 1393.5 -2.2658 -2.76398 0
M  V30 14306 C 1393.17 -3.74389 -2.51283 0
M  V30 14307 C 1391.83 -4.14666 -2.44143 0
M  V30 14308 C 1394.18 -4.67916 -2.29573 0
M  V30 14309 C 1391.51 -5.46545 -2.1332 0
M  V30 14310 C 1393.86 -6.00063 -2.00269 0
M  V30 14311 C 1392.52 -6.39413 -1.91591 0
M  V30 14312 H 1391.79 -0.496176 -0.550355 0
M  V30 14313 H 1394.44 -1.71328 -0.855514 0
M  V30 14314 H 1392.75 -1.83933 -3.45942 0
M  V30 14315 H 1394.44 -2.21323 -3.34391 0
M  V30 14316 H 1391.03 -3.42463 -2.57715 0
M  V30 14317 H 1395.22 -4.37639 -2.34063 0
M  V30 14318 H 1390.47 -5.75966 -2.05117 0
M  V30 14319 H 1394.65 -6.72068 -1.82476 0
M  V30 14320 H 1392.27 -7.41524 -1.67472 0
M  V30 14321 N 1393.85 0.973806 -1.23914 0
M  V30 14322 C 1395.09 1.71852 -1.07678 0
M  V30 14323 C 1395.43 1.90357 0.384425 0
M  V30 14324 O 1394.7 1.46063 1.28436 0
M  V30 14325 C 1394.99 3.1129 -1.81026 0
M  V30 14326 C 1394.84 3.00315 -3.3486 0
M  V30 14327 C 1396.16 4.10835 -1.57805 0
M  V30 14328 H 1393.28 0.623749 -0.392564 0
M  V30 14329 H 1395.92 1.13325 -1.52504 0
M  V30 14330 H 1394.07 3.61255 -1.42922 0
M  V30 14331 H 1395.74 2.57823 -3.82524 0
M  V30 14332 H 1393.98 2.36667 -3.63553 0
M  V30 14333 H 1394.65 3.9907 -3.81376 0
M  V30 14334 H 1397.13 3.69705 -1.90939 0
M  V30 14335 H 1396.01 5.06478 -2.11591 0
M  V30 14336 H 1396.27 4.39091 -0.514894 0
M  V30 14337 N 1395.33 1.05191 1.17357 0
M  V30 14338 C 1396.57 0.761984 1.87617 0
M  V30 14339 C 1396.9 -0.710976 1.8104 0
M  V30 14340 O 1396.16 -1.53566 1.21309 0
M  V30 14341 C 1396.46 1.18779 3.37085 0
M  V30 14342 C 1396.12 2.66296 3.63864 0
M  V30 14343 C 1394.78 3.06594 3.70882 0
M  V30 14344 C 1397.14 3.61622 3.75339 0
M  V30 14345 C 1394.46 4.41081 3.86865 0
M  V30 14346 C 1396.82 4.95842 3.9284 0
M  V30 14347 C 1395.48 5.35793 3.98097 0
M  V30 14348 H 1394.75 0.27883 0.686538 0
M  V30 14349 H 1397.4 1.31899 1.38834 0
M  V30 14350 H 1395.7 0.549782 3.87923 0
M  V30 14351 H 1397.4 0.940667 3.89811 0
M  V30 14352 H 1393.99 2.34089 3.59027 0
M  V30 14353 H 1398.17 3.31628 3.69238 0
M  V30 14354 H 1393.43 4.71536 3.89183 0
M  V30 14355 H 1397.6 5.696 4.00661 0
M  V30 14356 H 1395.23 6.40009 4.10234 0
M  V30 14357 N 1396.8 -1.33791 0.83293 0
M  V30 14358 C 1397.75 -2.31249 0.250357 0
M  V30 14359 C 1398.75 -1.57865 -0.614403 0
M  V30 14360 O 1399.95 -1.72782 -0.504627 0
M  V30 14361 H 1396.33 -0.749421 0.0622268 0
M  V30 14362 H 1398.3 -2.77899 1.08697 0
M  V30 14363 C 1397.05 -3.43082 -0.564783 0
M  V30 14364 H 1396.37 -3.99696 0.0913189 0
M  V30 14365 H 1397.81 -4.13486 -0.938351 0
M  V30 14366 C 1396.27 -2.88414 -1.74124 0
M  V30 14367 O 1396.8 -2.84113 -2.83976 0
M  V30 14368 N 1395.01 -2.45101 -1.56121 0
M  V30 14369 H 1394.55 -2.48799 -0.667607 0
M  V30 14370 H 1394.51 -2.08875 -2.34986 0
M  V30 14371 N 1398.28 -0.588812 -1.46187 0
M  V30 14372 C 1399.21 0.128595 -2.33146 0
M  V30 14373 C 1400.19 0.877608 -1.45712 0
M  V30 14374 O 1401.38 0.851866 -1.74519 0
M  V30 14375 C 1398.51 1.13886 -3.28096 0
M  V30 14376 C 1397.46 0.504296 -4.25019 0
M  V30 14377 C 1396.79 1.62147 -5.09522 0
M  V30 14378 C 1398.09 -0.562466 -5.19263 0
M  V30 14379 H 1399.78 -0.597455 -2.93378 0
M  V30 14380 H 1397.33 -0.288764 -1.41075 0
M  V30 14381 H 1399.28 1.64916 -3.8779 0
M  V30 14382 H 1398.01 1.89527 -2.65983 0
M  V30 14383 H 1396.66 0.0150325 -3.66597 0
M  V30 14384 H 1396.31 2.36769 -4.4379 0
M  V30 14385 H 1396.01 1.20249 -5.75164 0
M  V30 14386 H 1397.54 2.13441 -5.7208 0
M  V30 14387 H 1398.95 -0.137003 -5.73136 0
M  V30 14388 H 1397.35 -0.902115 -5.93281 0
M  V30 14389 H 1398.42 -1.4464 -4.62825 0
M  V30 14390 N 1399.76 1.54172 -0.326923 0
M  V30 14391 C 1400.71 2.25931 0.552996 0
M  V30 14392 C 1401.7 1.27463 1.11578 0
M  V30 14393 O 1402.91 1.45228 1.06343 0
M  V30 14394 H 1399.28 0.725741 0.196988 0
M  V30 14395 H 1401.25 2.98307 -0.0744603 0
M  V30 14396 C 1400 3.03276 1.70056 0
M  V30 14397 H 1399.33 3.78865 1.27676 0
M  V30 14398 H 1400.77 3.56727 2.29177 0
M  V30 14399 C 1399.23 2.11775 2.62017 0
M  V30 14400 O 1399.76 1.70282 3.63822 0
M  V30 14401 N 1397.96 1.77195 2.30327 0
M  V30 14402 H 1397.51 2.11135 1.4758 0
M  V30 14403 H 1397.47 1.16253 2.92117 0
M  V30 14404 N 1401.24 0.0551678 1.57503 0
M  V30 14405 C 1402.65 -0.479948 1.80426 0
M  V30 14406 C 1403 -1.70673 0.967733 0
M  V30 14407 O 1402.13 -2.15604 0.185462 0
M  V30 14408 C 1402.72 -0.877496 3.27239 0
M  V30 14409 C 1401.28 -1.35757 3.51066 0
M  V30 14410 C 1400.43 -0.334681 2.75273 0
M  V30 14411 H 1403.38 0.281016 1.56192 0
M  V30 14412 H 1403.4 -1.74013 3.38378 0
M  V30 14413 H 1402.91 0.015571 3.88097 0
M  V30 14414 H 1401.01 -2.26969 2.95492 0
M  V30 14415 H 1401.12 -1.34697 4.59776 0
M  V30 14416 H 1399.49 -0.808421 2.4153 0
M  V30 14417 H 1400.27 0.550369 3.3886 0
M  V30 14418 N 1402.72 -1.56081 -0.218252 0
M  V30 14419 C 1403.65 -1.95706 -1.27364 0
M  V30 14420 C 1404.63 -0.825731 -1.48713 0
M  V30 14421 O 1405.81 -1.08829 -1.60841 0
M  V30 14422 C 1402.94 -2.2766 -2.62275 0
M  V30 14423 C 1401.9 -3.43314 -2.55576 0
M  V30 14424 C 1401.22 -3.60883 -3.94547 0
M  V30 14425 C 1402.52 -4.7819 -2.10075 0
M  V30 14426 H 1404.22 -2.84113 -0.944459 0
M  V30 14427 H 1401.76 -1.36693 -0.452882 0
M  V30 14428 H 1403.72 -2.53973 -3.36268 0
M  V30 14429 H 1402.44 -1.3611 -2.96887 0
M  V30 14430 H 1401.1 -3.17056 -1.8404 0
M  V30 14431 H 1400.75 -2.66703 -4.26472 0
M  V30 14432 H 1400.45 -4.38674 -3.90946 0
M  V30 14433 H 1401.97 -3.89547 -4.70197 0
M  V30 14434 H 1403.38 -5.03686 -2.73813 0
M  V30 14435 H 1401.78 -5.59287 -2.17527 0
M  V30 14436 H 1402.85 -4.73325 -1.05314 0
M  V30 14437 N 1404.2 0.485086 -1.49949 0
M  V30 14438 C 1405.14 1.60559 -1.68296 0
M  V30 14439 C 1406.14 1.60264 -0.548802 0
M  V30 14440 O 1407.34 1.64581 -0.728905 0
M  V30 14441 H 1403.72 0.532529 -0.530958 0
M  V30 14442 H 1405.69 1.42242 -2.62316 0
M  V30 14443 C 1404.44 2.98596 -1.78145 0
M  V30 14444 H 1403.76 2.99536 -2.64799 0
M  V30 14445 H 1405.2 3.76492 -1.95012 0
M  V30 14446 C 1403.66 3.32708 -0.529828 0
M  V30 14447 O 1404.19 4.00281 0.337347 0
M  V30 14448 N 1402.4 2.87998 -0.388012 0
M  V30 14449 H 1401.94 2.33182 -1.0947 0
M  V30 14450 H 1401.9 3.11187 0.448307 0
M  V30 14451 N 1405.67 1.39291 0.737279 0
M  V30 14452 C 1406.9 1.39844 1.53162 0
M  V30 14453 C 1407.32 -0.00568546 1.88099 0
M  V30 14454 O 1406.68 -0.992085 1.51748 0
M  V30 14455 C 1406.73 2.27577 2.79716 0
M  V30 14456 O 1405.83 1.70408 3.75546 0
M  V30 14457 H 1405.17 0.476314 0.462624 0
M  V30 14458 H 1407.7 1.83258 0.909819 0
M  V30 14459 H 1407.71 2.42009 3.28475 0
M  V30 14460 H 1406.39 3.29621 2.53619 0
M  V30 14461 H 1404.97 1.65206 3.34307 0
M  V30 14462 N 1407.15 -0.967221 1.24429 0
M  V30 14463 C 1408.38 -1.75053 1.11226 0
M  V30 14464 C 1408.8 -1.85162 -0.331139 0
M  V30 14465 O 1408.16 -1.32288 -1.23974 0
M  V30 14466 C 1408.21 -3.14882 1.75733 0
M  V30 14467 O 1407.31 -3.99371 1.02842 0
M  V30 14468 H 1406.65 -0.538078 0.389061 0
M  V30 14469 H 1409.18 -1.21325 1.64746 0
M  V30 14470 H 1409.19 -3.65402 1.81509 0
M  V30 14471 H 1407.87 -3.06839 2.80754 0
M  V30 14472 H 1406.44 -3.57854 1.04856 0
M  V30 14473 N 1408.63 -1.05812 -1.16797 0
M  V30 14474 C 1409.56 -0.622584 -2.20582 0
M  V30 14475 C 1410.57 0.316905 -1.59686 0
M  V30 14476 O 1411.76 0.108657 -1.78169 0
M  V30 14477 C 1408.86 0.108124 -3.38727 0
M  V30 14478 C 1408.04 -0.84363 -4.29187 0
M  V30 14479 C 1407.1 -0.15305 -5.25977 0
M  V30 14480 O 1406.12 -0.78915 -5.63703 0
M  V30 14481 N 1407.32 1.10721 -5.69843 0
M  V30 14482 H 1410.09 -1.51532 -2.5857 0
M  V30 14483 H 1407.65 -0.940815 -1.31758 0
M  V30 14484 H 1409.64 0.580395 -4.00517 0
M  V30 14485 H 1408.21 0.902599 -2.99286 0
M  V30 14486 H 1407.43 -1.49538 -3.64735 0
M  V30 14487 H 1408.72 -1.48946 -4.86511 0
M  V30 14488 H 1408.12 1.64423 -5.41278 0
M  V30 14489 H 1406.67 1.52344 -6.33746 0
M  V30 14490 N 1410.11 1.33347 -0.840014 0
M  V30 14491 C 1411.36 1.97354 -0.435412 0
M  V30 14492 C 1411.68 1.66866 1.009 0
M  V30 14493 O 1410.95 0.968186 1.70303 0
M  V30 14494 H 1409.53 0.730096 -0.158017 0
M  V30 14495 H 1412.19 1.6269 -1.07322 0
M  V30 14496 H 1411.28 3.0688 -0.56841 0
M  V30 14497 N 1411.59 0.596556 1.45873 0
M  V30 14498 C 1412.82 0.093357 2.06389 0
M  V30 14499 C 1413.22 -1.2229 1.44367 0
M  V30 14500 O 1412.57 -1.75332 0.548131 0
M  V30 14501 C 1412.63 -0.132256 3.59257 0
M  V30 14502 C 1412.29 1.10051 4.43551 0
M  V30 14503 C 1413.29 2.01598 4.79223 0
M  V30 14504 C 1410.97 1.32625 4.84475 0
M  V30 14505 C 1412.97 3.14054 5.54661 0
M  V30 14506 C 1410.66 2.45384 5.5967 0
M  V30 14507 C 1411.65 3.35927 5.94678 0
M  V30 14508 O 1411.34 4.46726 6.6835 0
M  V30 14509 H 1411.07 0.0608944 0.673252 0
M  V30 14510 H 1413.63 0.821009 1.88278 0
M  V30 14511 H 1411.86 -0.914678 3.75727 0
M  V30 14512 H 1413.55 -0.585681 4.01652 0
M  V30 14513 H 1414.31 1.85379 4.48174 0
M  V30 14514 H 1410.19 0.630522 4.56668 0
M  V30 14515 H 1413.74 3.8475 5.81904 0
M  V30 14516 H 1409.63 2.6156 5.90133 0
M  V30 14517 H 1410.4 4.45268 6.86789 0
M  V30 14518 N 1413.06 -1.53996 0.335095 0
M  V30 14519 C 1414.01 -2.26221 -0.541007 0
M  V30 14520 C 1415.01 -1.28053 -1.109 0
M  V30 14521 O 1416.21 -1.4579 -1.05571 0
M  V30 14522 H 1412.59 -0.726775 -0.193136 0
M  V30 14523 H 1414.56 -2.98263 0.0902792 0
M  V30 14524 C 1413.31 -3.04173 -1.68445 0
M  V30 14525 H 1412.63 -3.79537 -1.25665 0
M  V30 14526 H 1414.07 -3.57937 -2.27282 0
M  V30 14527 C 1412.53 -2.13162 -2.6089 0
M  V30 14528 O 1413.06 -1.7221 -3.62914 0
M  V30 14529 N 1411.26 -1.78414 -2.29384 0
M  V30 14530 H 1410.81 -2.11914 -1.46458 0
M  V30 14531 H 1410.77 -1.178 -2.91497 0
M  V30 14532 N 1414.54 -0.0635198 -1.57472 0
M  V30 14533 C 1415.79 0.608384 -1.93459 0
M  V30 14534 C 1416.12 1.6976 -0.943141 0
M  V30 14535 O 1415.4 1.94478 0.0289567 0
M  V30 14536 C 1415.68 1.19302 -3.39763 0
M  V30 14537 C 1415.53 0.11102 -4.49663 0
M  V30 14538 C 1416.85 2.101 -3.86712 0
M  V30 14539 H 1413.97 0.219688 -0.703496 0
M  V30 14540 H 1416.61 -0.127803 -1.8957 0
M  V30 14541 H 1414.76 1.82044 -3.43209 0
M  V30 14542 H 1416.43 -0.521606 -4.58342 0
M  V30 14543 H 1414.68 -0.559408 -4.30178 0
M  V30 14544 H 1415.35 0.560332 -5.49149 0
M  V30 14545 H 1417.82 1.57305 -3.8522 0
M  V30 14546 H 1416.7 2.47945 -4.89708 0
M  V30 14547 H 1416.96 3.00603 -3.24177 0
M  V30 14548 N 1416.02 1.56195 0.209972 0
M  V30 14549 C 1417.24 1.84189 0.953364 0
M  V30 14550 C 1417.67 0.645288 1.76685 0
M  V30 14551 O 1417.03 -0.405962 1.76696 0
M  V30 14552 C 1417.08 3.10281 1.83733 0
M  V30 14553 O 1416.18 2.89788 2.93422 0
M  V30 14554 H 1415.52 0.606931 0.269314 0
M  V30 14555 H 1418.05 2.03416 0.219783 0
M  V30 14556 H 1418.06 3.40688 2.2449 0
M  V30 14557 H 1416.74 3.97 1.23951 0
M  V30 14558 H 1415.31 2.70643 2.56528 0
M  V30 14559 N 1417.5 -0.477127 1.50204 0
M  V30 14560 C 1418.75 -1.22722 1.60573 0
M  V30 14561 C 1419.07 -1.92595 0.305326 0
M  V30 14562 O 1418.34 -1.83836 -0.676842 0
M  V30 14563 H 1416.92 -0.455973 0.591691 0
M  V30 14564 H 1419.58 -0.550915 1.86952 0
M  V30 14565 H 1418.67 -1.97837 2.41385 0
M  V30 14566 N 1418.98 -1.3968 -0.729882 0
M  V30 14567 C 1420.23 -1.36492 -1.48502 0
M  V30 14568 C 1420.54 0.0346572 -1.95569 0
M  V30 14569 O 1421.74 0.189135 -2.7084 0
M  V30 14570 C 1420.2 -2.39813 -2.68361 0
M  V30 14571 C 1419.81 -3.85511 -2.28222 0
M  V30 14572 C 1421.55 -2.45709 -3.46161 0
M  V30 14573 C 1419.46 -4.80462 -3.44834 0
M  V30 14574 H 1418.39 -0.507455 -0.557679 0
M  V30 14575 H 1421.04 -1.6535 -0.795708 0
M  V30 14576 H 1419.42 -2.04033 -3.39392 0
M  V30 14577 H 1420.6 -4.30359 -1.64704 0
M  V30 14578 H 1418.91 -3.82957 -1.63501 0
M  V30 14579 H 1421.51 -3.1384 -4.32907 0
M  V30 14580 H 1421.85 -1.48318 -3.88983 0
M  V30 14581 H 1422.38 -2.80409 -2.82163 0
M  V30 14582 H 1419.12 -5.79134 -3.07057 0
M  V30 14583 H 1418.64 -4.40289 -4.07315 0
M  V30 14584 H 1420.32 -4.99607 -4.11098 0
M  V30 14585 N 1420.45 0.960609 -1.2494 0
M  V30 14586 C 1421.7 1.70111 -1.09117 0
M  V30 14587 C 1422.02 1.91466 0.369544 0
M  V30 14588 O 1421.29 1.49749 1.26302 0
M  V30 14589 H 1419.87 0.630372 -0.400799 0
M  V30 14590 H 1422.54 1.15525 -1.56971 0
M  V30 14591 H 1421.63 2.68277 -1.5948 0
M  V30 14592 N 1421.93 1.0643 1.16234 0
M  V30 14593 C 1422.88 0.676311 2.20669 0
M  V30 14594 C 1423.85 -0.327721 1.62835 0
M  V30 14595 O 1425.03 -0.216296 1.8957 0
M  V30 14596 C 1422.17 0.0703726 3.45028 0
M  V30 14597 C 1421.29 1.12475 4.17101 0
M  V30 14598 C 1420.42 0.484806 5.28983 0
M  V30 14599 C 1419.46 1.52262 5.9286 0
M  V30 14600 N 1418.6 0.905938 6.96231 0
M  V30 14601 H 1423.44 1.57129 2.53209 0
M  V30 14602 H 1420.98 0.7856 1.24365 0
M  V30 14603 H 1422.93 -0.298488 4.16131 0
M  V30 14604 H 1421.56 -0.788002 3.13034 0
M  V30 14605 H 1420.62 1.6113 3.44589 0
M  V30 14606 H 1421.93 1.91202 4.60698 0
M  V30 14607 H 1421.08 0.0630553 6.06667 0
M  V30 14608 H 1419.82 -0.334332 4.86553 0
M  V30 14609 H 1418.83 1.95425 5.13896 0
M  V30 14610 H 1420.05 2.34388 6.37369 0
M  V30 14611 H 1418 0.107536 6.55912 0
M  V30 14612 H 1417.91 1.63058 7.38206 0
M  V30 14613 H 1419.18 0.509378 7.77834 0
M  V30 14614 N 1423.41 -1.329 0.847073 0
M  V30 14615 C 1424.66 -1.96774 0.443022 0
M  V30 14616 C 1424.97 -1.67813 -1.0049 0
M  V30 14617 O 1426.18 -2.25366 -1.51402 0
M  V30 14618 C 1424.63 -3.52184 0.741268 0
M  V30 14619 C 1424.24 -3.90013 2.20441 0
M  V30 14620 C 1425.99 -4.22568 0.404569 0
M  V30 14621 C 1423.89 -5.38434 2.44627 0
M  V30 14622 H 1422.82 -0.736406 0.161932 0
M  V30 14623 H 1425.47 -1.51402 1.0368 0
M  V30 14624 H 1423.86 -3.95925 0.0770158 0
M  V30 14625 H 1425.03 -3.57304 2.90982 0
M  V30 14626 H 1423.35 -3.32633 2.50489 0
M  V30 14627 H 1425.94 -5.3173 0.562795 0
M  V30 14628 H 1426.29 -4.11144 -0.653172 0
M  V30 14629 H 1426.82 -3.84384 1.0244 0
M  V30 14630 H 1423.56 -5.5487 3.48997 0
M  V30 14631 H 1423.08 -5.72575 1.78656 0
M  V30 14632 H 1424.76 -6.05423 2.28194 0
M  V30 14633 N 1424.89 -0.604284 -1.45555 0
M  V30 14634 C 1426.14 -0.0981861 -2.02262 0
M  V30 14635 C 1426.46 1.27002 -1.47312 0
M  V30 14636 O 1425.72 1.85058 -0.636563 0
M  V30 14637 C 1426.02 -0.00538243 -3.574 0
M  V30 14638 C 1425.68 -1.30881 -4.31487 0
M  V30 14639 C 1424.35 -1.66586 -4.51445 0
M  V30 14640 C 1426.7 -2.17039 -4.7386 0
M  V30 14641 C 1424.03 -2.88207 -5.11032 0
M  V30 14642 C 1426.38 -3.37905 -5.34792 0
M  V30 14643 C 1425.04 -3.73866 -5.52974 0
M  V30 14644 H 1424.31 -0.0359289 -0.740128 0
M  V30 14645 H 1426.96 -0.785241 -1.7466 0
M  V30 14646 H 1425.26 0.764919 -3.84261 0
M  V30 14647 H 1426.96 0.402303 -3.98977 0
M  V30 14648 H 1423.55 -1.0209 -4.16264 0
M  V30 14649 H 1427.73 -1.90754 -4.58177 0
M  V30 14650 H 1422.99 -3.16179 -5.23298 0
M  V30 14651 H 1427.16 -4.0492 -5.6658 0
M  V30 14652 H 1424.79 -4.68194 -5.98914 0
M  V30 14653 N 1426.37 1.53816 -0.343257 0
M  V30 14654 C 1427.3 2.21306 0.556696 0
M  V30 14655 C 1428.28 1.19697 1.10051 0
M  V30 14656 O 1429.46 1.48515 1.16084 0
M  V30 14657 C 1426.59 2.89026 1.76583 0
M  V30 14658 C 1425.63 4.04521 1.35149 0
M  V30 14659 S 1426.47 5.3421 0.37154 0
M  V30 14660 C 1427.62 6.05433 1.58751 0
M  V30 14661 H 1427.86 2.97295 -0.0165367 0
M  V30 14662 H 1425.39 1.53874 -0.127331 0
M  V30 14663 H 1427.35 3.28662 2.45951 0
M  V30 14664 H 1426.01 2.12803 2.31028 0
M  V30 14665 H 1425.2 4.50839 2.25301 0
M  V30 14666 H 1424.8 3.66661 0.737296 0
M  V30 14667 H 1427.1 6.28808 2.52203 0
M  V30 14668 H 1428.04 6.98432 1.16613 0
M  V30 14669 H 1428.45 5.35588 1.78343 0
M  V30 14670 N 1427.84 0.0718701 1.57436 0
M  V30 14671 C 1429.09 -0.597231 1.93493 0
M  V30 14672 C 1429.42 -1.69614 0.951906 0
M  V30 14673 O 1428.67 -1.95673 -0.0324554 0
M  V30 14674 C 1428.97 -1.21336 3.36173 0
M  V30 14675 C 1428.64 -0.240582 4.50258 0
M  V30 14676 C 1427.3 0.0270368 4.81192 0
M  V30 14677 C 1429.65 0.424924 5.19465 0
M  V30 14678 C 1426.98 0.967249 5.78672 0
M  V30 14679 C 1429.33 1.35346 6.17952 0
M  V30 14680 C 1428 1.62954 6.47304 0
M  V30 14681 H 1427.27 -0.218542 0.70804 0
M  V30 14682 H 1429.91 0.142762 1.90967 0
M  V30 14683 H 1428.22 -2.02909 3.35164 0
M  V30 14684 H 1429.92 -1.73836 3.61361 0
M  V30 14685 H 1426.51 -0.459352 4.26131 0
M  V30 14686 H 1430.69 0.231285 4.95761 0
M  V30 14687 H 1425.95 1.1884 5.99739 0
M  V30 14688 H 1430.12 1.87509 6.70681 0
M  V30 14689 H 1427.75 2.3597 7.2265 0
M  V30 14690 N 1429.32 -1.56304 -0.201686 0
M  V30 14691 C 1430.27 -1.94901 -1.26949 0
M  V30 14692 C 1431.26 -0.833574 -1.47472 0
M  V30 14693 O 1432.47 -1.01854 -1.48411 0
M  V30 14694 H 1428.85 -0.619663 -0.426053 0
M  V30 14695 H 1430.82 -2.83964 -0.9169 0
M  V30 14696 C 1429.57 -2.29913 -2.60835 0
M  V30 14697 H 1428.89 -3.15268 -2.45858 0
M  V30 14698 H 1430.33 -2.60789 -3.34313 0
M  V30 14699 C 1428.79 -1.13136 -3.17335 0
M  V30 14700 O 1429.32 -0.402915 -3.99674 0
M  V30 14701 N 1427.52 -0.909912 -2.75987 0
M  V30 14702 H 1427.07 -1.50402 -2.09134 0
M  V30 14703 H 1427.03 -0.130348 -3.1413 0
M  V30 14704 N 1430.8 0.469154 -1.50455 0
M  V30 14705 C 1432.05 1.2229 -1.6178 0
M  V30 14706 C 1432.38 1.91577 -0.318073 0
M  V30 14707 O 1431.65 1.82205 0.68057 0
M  V30 14708 C 1431.94 2.26504 -2.79943 0
M  V30 14709 C 1431.79 1.61509 -4.19804 0
M  V30 14710 C 1433.11 3.27796 -2.93662 0
M  V30 14711 H 1430.23 0.443241 -0.588817 0
M  V30 14712 H 1432.87 0.516431 -1.82847 0
M  V30 14713 H 1431.02 2.86757 -2.62112 0
M  V30 14714 H 1432.69 1.04838 -4.49229 0
M  V30 14715 H 1430.94 0.918162 -4.23972 0
M  V30 14716 H 1431.61 2.37248 -4.98415 0
M  V30 14717 H 1434.08 2.77568 -3.09992 0
M  V30 14718 H 1432.96 3.98041 -3.77961 0
M  V30 14719 H 1433.22 3.92033 -2.04359 0
M  V30 14720 N 1432.28 1.40065 0.722464 0
M  V30 14721 C 1433.52 1.39414 1.49476 0
M  V30 14722 C 1433.88 -0.00655879 1.91999 0
M  V30 14723 O 1435.08 -0.138145 2.68445 0
M  V30 14724 C 1433.35 2.35014 2.69264 0
M  V30 14725 S 1434.91 2.52662 3.58758 0
M  V30 14726 H 1431.73 0.494229 0.511135 0
M  V30 14727 H 1434.33 1.76274 0.845447 0
M  V30 14728 H 1433.04 3.35627 2.36184 0
M  V30 14729 H 1432.57 1.99414 3.39113 0
M  V30 14730 H 1434.58 1.77389 4.63409 0
M  V30 14731 N 1433.76 -0.95397 1.25448 0
M  V30 14732 C 1435.01 -1.6953 1.10018 0
M  V30 14733 C 1435.33 -1.9166 -0.359385 0
M  V30 14734 O 1434.6 -1.50417 -1.25506 0
M  V30 14735 H 1433.18 -0.628238 0.404136 0
M  V30 14736 H 1435.84 -1.14691 1.57581 0
M  V30 14737 H 1434.93 -2.67427 1.60901 0
M  V30 14738 N 1435.24 -1.07045 -1.15668 0
M  V30 14739 C 1436.46 -0.812746 -1.90268 0
M  V30 14740 C 1436.88 0.633722 -1.77847 0
M  V30 14741 O 1436.24 1.43444 -1.12828 0
M  V30 14742 C 1436.29 -1.20793 -3.40722 0
M  V30 14743 O 1436.01 -2.59764 -3.52781 0
M  V30 14744 C 1437.51 -0.979074 -4.32353 0
M  V30 14745 H 1434.73 -0.294093 -0.603117 0
M  V30 14746 H 1437.27 -1.42609 -1.46571 0
M  V30 14747 H 1435.43 -0.638975 -3.82094 0
M  V30 14748 H 1435.84 -2.75801 -4.46133 0
M  V30 14749 H 1437.32 -1.30513 -5.36349 0
M  V30 14750 H 1437.79 0.0847752 -4.39118 0
M  V30 14751 H 1438.4 -1.53278 -3.96719 0
M  V30 14752 N 1436.71 1.32449 -0.85411 0
M  V30 14753 C 1437.65 2.26901 -0.243148 0
M  V30 14754 C 1438.62 1.50375 0.618558 0
M  V30 14755 O 1439.81 1.79501 0.575479 0
M  V30 14756 C 1436.94 3.32265 0.657108 0
M  V30 14757 C 1435.98 4.26298 -0.131141 0
M  V30 14758 S 1436.81 5.14086 -1.49919 0
M  V30 14759 C 1437.97 6.22973 -0.604632 0
M  V30 14760 H 1438.2 2.78373 -1.04384 0
M  V30 14761 H 1435.74 1.39972 -0.651712 0
M  V30 14762 H 1437.69 3.93447 1.17087 0
M  V30 14763 H 1436.36 2.79578 1.4316 0
M  V30 14764 H 1435.55 5.0094 0.55452 0
M  V30 14765 H 1435.15 3.69531 -0.576469 0
M  V30 14766 H 1437.44 6.7723 0.191348 0
M  V30 14767 H 1438.39 6.95656 -1.32168 0
M  V30 14768 H 1438.79 5.64215 -0.179215 0
M  V30 14769 N 1438.19 0.611994 1.45232 0
M  V30 14770 C 1439.6 0.193464 1.85695 0
M  V30 14771 C 1439.95 -1.25069 1.5117 0
M  V30 14772 O 1439.08 -1.94894 0.940497 0
M  V30 14773 C 1439.67 0.344334 3.37046 0
M  V30 14774 C 1438.23 -0.0195378 3.76395 0
M  V30 14775 C 1437.38 0.666714 2.69166 0
M  V30 14776 H 1440.33 0.818395 1.35971 0
M  V30 14777 H 1440.35 -0.422209 3.7815 0
M  V30 14778 H 1439.86 1.3955 3.62143 0
M  V30 14779 H 1437.96 -1.06971 3.56915 0
M  V30 14780 H 1438.08 0.377184 4.77613 0
M  V30 14781 H 1436.44 0.103912 2.54488 0
M  V30 14782 H 1437.22 1.7201 2.97099 0
M  V30 14783 N 1439.67 -1.53632 0.351409 0
M  V30 14784 C 1440.92 -2.01338 -0.243047 0
M  V30 14785 C 1441.25 -1.23864 -1.4957 0
M  V30 14786 O 1440.52 -0.328412 -1.91707 0
M  V30 14787 C 1440.81 -3.55886 -0.549284 0
M  V30 14788 C 1440.66 -4.44064 0.716016 0
M  V30 14789 C 1441.98 -4.18699 -1.35569 0
M  V30 14790 H 1439.1 -0.731863 -0.0868627 0
M  V30 14791 H 1441.74 -1.84005 0.473501 0
M  V30 14792 H 1439.89 -3.70787 -1.15972 0
M  V30 14793 H 1441.56 -4.40987 1.35383 0
M  V30 14794 H 1439.8 -4.12608 1.3393 0
M  V30 14795 H 1440.48 -5.50106 0.456895 0
M  V30 14796 H 1442.95 -4.07545 -0.839441 0
M  V30 14797 H 1441.83 -5.26892 -1.53871 0
M  V30 14798 H 1442.09 -3.73834 -2.3601 0
M  V30 14799 N 1441.15 -0.0802183 -1.57396 0
M  V30 14800 C 1442.39 0.590512 -1.95684 0
M  V30 14801 C 1442.75 1.66265 -0.960199 0
M  V30 14802 O 1443.95 2.38954 -1.23104 0
M  V30 14803 C 1442.22 1.14486 -3.38567 0
M  V30 14804 S 1443.78 1.82954 -3.9884 0
M  V30 14805 H 1440.6 0.193123 -0.684269 0
M  V30 14806 H 1443.2 -0.156081 -1.94876 0
M  V30 14807 H 1441.91 0.352828 -4.08881 0
M  V30 14808 H 1441.44 1.92762 -3.42938 0
M  V30 14809 H 1443.45 3.11265 -3.86431 0
M  V30 14810 N 1442.63 1.56409 0.193394 0
M  V30 14811 C 1443.87 1.80367 0.911717 0
M  V30 14812 C 1444.19 0.653561 1.83721 0
M  V30 14813 O 1443.46 -0.328001 1.93135 0
M  V30 14814 H 1442.04 0.665316 0.339652 0
M  V30 14815 H 1444.71 1.93887 0.198496 0
M  V30 14816 H 1443.8 2.7359 1.50182 0
M  V30 14817 N 1444.1 -0.461169 1.50702 0
M  V30 14818 C 1445.33 -1.23554 1.65958 0
M  V30 14819 C 1445.75 -1.85584 0.346977 0
M  V30 14820 O 1445.1 -1.69672 -0.672129 0
M  V30 14821 C 1445.15 -2.33704 2.75799 0
M  V30 14822 O 1444.88 -1.74215 4.01971 0
M  V30 14823 C 1446.38 -3.24409 3.02116 0
M  V30 14824 H 1443.6 -0.373299 0.557574 0
M  V30 14825 H 1446.14 -0.549338 1.96984 0
M  V30 14826 H 1444.3 -2.98081 2.47439 0
M  V30 14827 H 1444.71 -2.46827 4.62792 0
M  V30 14828 H 1446.18 -3.97885 3.82611 0
M  V30 14829 H 1446.66 -3.83774 2.13576 0
M  V30 14830 H 1447.27 -2.65757 3.32044 0
M  V30 14831 N 1445.58 -1.40446 -0.715026 0
M  V30 14832 C 1446.83 -1.38059 -1.47046 0
M  V30 14833 C 1447.14 0.0139125 -1.95595 0
M  V30 14834 O 1448.35 0.160398 -2.71026 0
M  V30 14835 C 1446.81 -2.42646 -2.65802 0
M  V30 14836 C 1446.41 -3.8791 -2.2412 0
M  V30 14837 C 1448.16 -2.49367 -3.43535 0
M  V30 14838 C 1446.06 -4.84092 -3.39719 0
M  V30 14839 H 1444.99 -0.513341 -0.552265 0
M  V30 14840 H 1447.65 -1.66185 -0.778126 0
M  V30 14841 H 1446.03 -2.07621 -3.37208 0
M  V30 14842 H 1447.2 -4.32082 -1.6013 0
M  V30 14843 H 1445.52 -3.8467 -1.5943 0
M  V30 14844 H 1448.11 -3.18414 -4.29554 0
M  V30 14845 H 1448.46 -1.52436 -3.87388 0
M  V30 14846 H 1448.99 -2.83386 -2.79173 0
M  V30 14847 H 1445.73 -5.82358 -3.00898 0
M  V30 14848 H 1445.25 -4.44584 -4.02623 0
M  V30 14849 H 1446.93 -5.03939 -4.05776 0
M  V30 14850 N 1447.06 0.947303 -1.25952 0
M  V30 14851 C 1447.99 2.0625 -1.09467 0
M  V30 14852 C 1448.97 1.701 -0.00160498 0
M  V30 14853 O 1450.16 1.93432 -0.172501 0
M  V30 14854 C 1447.29 3.39746 -0.720392 0
M  V30 14855 C 1446.24 3.89935 -1.76451 0
M  V30 14856 C 1445.57 5.2001 -1.24472 0
M  V30 14857 C 1446.87 4.15496 -3.16481 0
M  V30 14858 H 1448.56 2.203 -2.02752 0
M  V30 14859 H 1446.11 1.05858 -0.97622 0
M  V30 14860 H 1448.06 4.17221 -0.591972 0
M  V30 14861 H 1446.78 3.25656 0.248161 0
M  V30 14862 H 1445.44 3.14635 -1.8815 0
M  V30 14863 H 1445.09 5.02295 -0.266182 0
M  V30 14864 H 1444.79 5.54559 -1.94263 0
M  V30 14865 H 1446.31 6.00075 -1.12884 0
M  V30 14866 H 1447.73 4.83605 -3.07894 0
M  V30 14867 H 1446.12 4.61315 -3.83808 0
M  V30 14868 H 1447.19 3.21501 -3.62995 0
M  V30 14869 N 1448.54 1.07657 1.15099 0
M  V30 14870 C 1449.79 0.800025 1.85591 0
M  V30 14871 C 1450.11 -0.675973 1.82909 0
M  V30 14872 O 1449.38 -1.48971 1.27218 0
M  V30 14873 H 1447.96 0.292958 0.687157 0
M  V30 14874 H 1450.62 1.36096 1.39513 0
M  V30 14875 H 1449.72 1.13733 2.90639 0
M  V30 14876 N 1450.02 -1.31994 0.861122 0
M  V30 14877 C 1450.96 -2.28729 0.308476 0
M  V30 14878 C 1451.93 -1.55338 -0.588148 0
M  V30 14879 O 1453.12 -1.8353 -0.52168 0
M  V30 14880 C 1450.26 -3.4158 -0.491621 0
M  V30 14881 C 1449.37 -4.29839 0.431522 0
M  V30 14882 C 1448.51 -5.29826 -0.381836 0
M  V30 14883 C 1447.55 -6.09728 0.538296 0
M  V30 14884 N 1446.68 -7.01696 -0.238274 0
M  V30 14885 H 1451.52 -2.75389 1.13863 0
M  V30 14886 H 1449.06 -1.35485 0.572911 0
M  V30 14887 H 1451.02 -4.05738 -0.971193 0
M  V30 14888 H 1449.65 -2.96054 -1.28654 0
M  V30 14889 H 1448.7 -3.66204 1.02951 0
M  V30 14890 H 1450.01 -4.85658 1.13742 0
M  V30 14891 H 1449.17 -5.99618 -0.924297 0
M  V30 14892 H 1447.9 -4.7464 -1.12107 0
M  V30 14893 H 1446.91 -5.38834 1.09259 0
M  V30 14894 H 1448.13 -6.67 1.27625 0
M  V30 14895 H 1446.08 -6.4893 -0.960486 0
M  V30 14896 H 1446 -7.54896 0.408466 0
M  V30 14897 H 1447.27 -7.75764 -0.762252 0
M  V30 14898 N 1451.49 -0.619688 -1.44906 0
M  V30 14899 C 1452.91 -0.203309 -1.8559 0
M  V30 14900 C 1453.26 1.24265 -1.51831 0
M  V30 14901 O 1452.38 1.94392 -0.950819 0
M  V30 14902 C 1452.98 -0.362204 -3.36858 0
M  V30 14903 C 1451.54 -0.000423575 -3.764 0
M  V30 14904 C 1450.68 -0.680979 -2.68808 0
M  V30 14905 H 1453.63 -0.825595 -1.35535 0
M  V30 14906 H 1453.65 0.402149 -3.78369 0
M  V30 14907 H 1453.17 -1.41468 -3.61398 0
M  V30 14908 H 1451.27 1.05077 -3.57477 0
M  V30 14909 H 1451.38 -0.402508 -4.77406 0
M  V30 14910 H 1449.74 -0.117407 -2.54429 0
M  V30 14911 H 1450.53 -1.73583 -2.96182 0
M  V30 14912 N 1452.97 1.53444 -0.359552 0
M  V30 14913 C 1453.94 2.24173 0.477412 0
M  V30 14914 C 1454.94 1.24747 1.01464 0
M  V30 14915 O 1456.13 1.49069 0.901343 0
M  V30 14916 C 1453.26 2.9738 1.66667 0
M  V30 14917 H 1454.45 2.99566 -0.141407 0
M  V30 14918 H 1452 1.55904 -0.111143 0
M  V30 14919 H 1452.74 2.26214 2.32374 0
M  V30 14920 H 1452.52 3.70325 1.28848 0
M  V30 14921 H 1454.01 3.51165 2.25994 0
M  V30 14922 N 1454.45 0.0885642 1.57351 0
M  V30 14923 C 1455.68 -0.588641 1.98871 0
M  V30 14924 C 1456.1 -1.61333 0.967125 0
M  V30 14925 O 1455.46 -1.81183 -0.0652149 0
M  V30 14926 C 1455.51 -1.21877 3.39379 0
M  V30 14927 O 1454.61 -2.33462 3.39955 0
M  V30 14928 H 1453.95 -0.149938 0.64685 0
M  V30 14929 H 1456.48 0.168043 2.03909 0
M  V30 14930 H 1456.49 -1.56163 3.76931 0
M  V30 14931 H 1455.17 -0.468037 4.13258 0
M  V30 14932 H 1453.74 -2.00844 3.14191 0
M  V30 14933 N 1455.93 -1.56509 -0.185096 0
M  V30 14934 C 1457.18 -1.80848 -0.902139 0
M  V30 14935 C 1457.5 -0.663295 -1.83372 0
M  V30 14936 O 1456.77 0.317754 -1.93306 0
M  V30 14937 H 1455.35 -0.667108 -0.336119 0
M  V30 14938 H 1458.01 -1.93989 -0.188211 0
M  V30 14939 H 1457.11 -2.74383 -1.48729 0
M  V30 14940 N 1457.41 0.45317 -1.50944 0
M  V30 14941 C 1458.65 1.21354 -1.64476 0
M  V30 14942 C 1459.01 1.88859 -0.345879 0
M  V30 14943 O 1460.21 2.66421 -0.356808 0
M  V30 14944 C 1458.48 2.21565 -2.80435 0
M  V30 14945 S 1460.04 3.06302 -3.14205 0
M  V30 14946 H 1456.86 0.411762 -0.579632 0
M  V30 14947 H 1459.46 0.50762 -1.88795 0
M  V30 14948 H 1458.17 1.70585 -3.73268 0
M  V30 14949 H 1457.7 2.96761 -2.58257 0
M  V30 14950 H 1459.71 4.22988 -2.59414 0
M  V30 14951 N 1458.88 1.40823 0.707568 0
M  V30 14952 C 1459.79 1.44058 1.85161 0
M  V30 14953 C 1460.81 0.332357 1.70796 0
M  V30 14954 O 1461.99 0.578205 1.92922 0
M  V30 14955 C 1459.05 1.3091 3.21035 0
M  V30 14956 C 1458.11 2.51944 3.47595 0
M  V30 14957 C 1457.35 2.39414 4.76987 0
M  V30 14958 O 1457.57 1.41224 5.52641 0
M  V30 14959 O 1456.5 3.28944 5.04063 0
M  V30 14960 H 1460.33 2.40551 1.85388 0
M  V30 14961 H 1457.91 1.22232 0.859052 0
M  V30 14962 H 1459.8 1.25816 4.02179 0
M  V30 14963 H 1458.47 0.375263 3.21517 0
M  V30 14964 H 1457.38 2.62615 2.66428 0
M  V30 14965 H 1458.71 3.44115 3.51917 0
M  V30 14966 N 1460.36 -0.94061 1.26453 0
M  V30 14967 C 1461.33 -2.02096 1.0812 0
M  V30 14968 C 1462.33 -1.60773 0.0293393 0
M  V30 14969 O 1463.52 -1.72051 0.272796 0
M  V30 14970 C 1460.65 -3.34749 0.644646 0
M  V30 14971 H 1461.84 -2.19792 2.04038 0
M  V30 14972 H 1459.39 -1.11965 1.09058 0
M  V30 14973 H 1460.13 -3.22752 -0.316509 0
M  V30 14974 H 1459.91 -3.66095 1.40416 0
M  V30 14975 H 1461.4 -4.14117 0.538233 0
M  V30 14976 N 1461.84 -1.08266 -1.14527 0
M  V30 14977 C 1462.75 -0.723043 -2.2318 0
M  V30 14978 C 1463.77 0.269819 -1.71895 0
M  V30 14979 O 1464.94 0.114126 -2.01076 0
M  V30 14980 C 1462.01 -0.136229 -3.46432 0
M  V30 14981 C 1461.07 -1.18352 -4.12664 0
M  V30 14982 C 1460.3 -0.624612 -5.30032 0
M  V30 14983 O 1460.52 0.556377 -5.6768 0
M  V30 14984 O 1459.46 -1.37397 -5.86008 0
M  V30 14985 H 1463.28 -1.6294 -2.56289 0
M  V30 14986 H 1460.87 -0.856235 -1.22429 0
M  V30 14987 H 1462.75 0.18829 -4.20979 0
M  V30 14988 H 1461.43 0.74331 -3.1505 0
M  V30 14989 H 1460.33 -1.56054 -3.39997 0
M  V30 14990 H 1461.67 -2.03528 -4.48148 0
M  V30 14991 N 1463.32 1.31536 -0.86811 0
M  V30 14992 C 1464.55 2.00952 -0.492529 0
M  V30 14993 C 1464.96 1.65174 0.914487 0
M  V30 14994 O 1464.32 0.880002 1.59882 0
M  V30 14995 C 1464.37 3.55829 -0.637798 0
M  V30 14996 O 1464.09 3.90326 -1.9894 0
M  V30 14997 C 1465.59 4.42519 -0.262986 0
M  V30 14998 H 1462.81 0.642913 -0.192105 0
M  V30 14999 H 1465.36 1.6781 -1.16876 0
M  V30 15000 H 1463.51 3.87399 -0.0091406 0
M  V30 15001 H 1463.93 4.85043 -1.99583 0
M  V30 15002 H 1465.4 5.50433 -0.415591 0
M  V30 15003 H 1465.88 4.31895 0.797705 0
M  V30 15004 H 1466.48 4.16363 -0.867268 0
M  V30 15005 N 1464.8 0.627364 1.44575 0
M  V30 15006 C 1465.73 -0.118179 2.28895 0
M  V30 15007 C 1466.74 -0.812569 1.41071 0
M  V30 15008 O 1467.93 -0.674646 1.6526 0
M  V30 15009 C 1465.03 -1.18937 3.17344 0
M  V30 15010 C 1464.2 -0.578226 4.33561 0
M  V30 15011 C 1463.26 -1.54288 5.03072 0
M  V30 15012 O 1462.29 -1.06148 5.59215 0
M  V30 15013 N 1463.49 -2.87725 5.04177 0
M  V30 15014 H 1466.26 0.605442 2.93521 0
M  V30 15015 H 1463.82 0.468253 1.54981 0
M  V30 15016 H 1465.81 -1.83494 3.60711 0
M  V30 15017 H 1464.38 -1.81526 2.54494 0
M  V30 15018 H 1463.6 0.245883 3.93432 0
M  V30 15019 H 1464.89 -0.150502 5.08577 0
M  V30 15020 H 1464.29 -3.29421 4.5989 0
M  V30 15021 H 1462.84 -3.47653 5.51344 0
M  V30 15022 N 1466.28 -1.53251 0.367684 0
M  V30 15023 C 1467.5 -2.05705 -0.222047 0
M  V30 15024 C 1467.92 -1.24104 -1.4228 0
M  V30 15025 O 1467.28 -0.282228 -1.80305 0
M  V30 15026 C 1467.33 -3.56257 -0.613475 0
M  V30 15027 O 1467.05 -4.34765 0.539558 0
M  V30 15028 C 1468.55 -4.24976 -1.26137 0
M  V30 15029 H 1465.77 -0.66989 -0.0385799 0
M  V30 15030 H 1468.31 -1.97602 0.526663 0
M  V30 15031 H 1466.47 -3.64503 -1.3121 0
M  V30 15032 H 1466.88 -5.24027 0.222699 0
M  V30 15033 H 1468.36 -5.31628 -1.4858 0
M  V30 15034 H 1468.83 -3.78828 -2.2223 0
M  V30 15035 H 1469.44 -4.20987 -0.604121 0
M  V30 15036 N 1467.75 -0.0969077 -1.57302 0
M  V30 15037 C 1468.66 0.875561 -2.17649 0
M  V30 15038 C 1469.68 1.30892 -1.14645 0
M  V30 15039 O 1470.86 1.37646 -1.47022 0
M  V30 15040 C 1467.92 2.116 -2.74639 0
M  V30 15041 C 1466.98 1.73667 -3.92604 0
M  V30 15042 C 1466.21 2.91798 -4.46867 0
M  V30 15043 O 1466.44 4.06577 -4.00064 0
M  V30 15044 O 1465.37 2.70159 -5.37864 0
M  V30 15045 H 1469.2 0.392107 -3.01158 0
M  V30 15046 H 1466.78 0.127539 -1.48855 0
M  V30 15047 H 1468.66 2.84292 -3.11057 0
M  V30 15048 H 1467.34 2.58994 -1.94174 0
M  V30 15049 H 1466.25 0.981505 -3.60995 0
M  V30 15050 H 1467.58 1.31035 -4.74437 0
M  V30 15051 N 1469.23 1.56605 0.176793 0
M  V30 15052 C 1470.14 1.99211 1.23903 0
M  V30 15053 C 1471.16 0.902614 1.48758 0
M  V30 15054 O 1472.33 1.20982 1.61014 0
M  V30 15055 C 1469.4 2.33873 2.55938 0
M  V30 15056 C 1468.46 3.56624 2.38994 0
M  V30 15057 C 1467.69 3.89623 3.64733 0
M  V30 15058 O 1467.92 3.23662 4.6968 0
M  V30 15059 O 1466.85 4.82992 3.5917 0
M  V30 15060 H 1470.68 2.89827 0.907398 0
M  V30 15061 H 1468.26 1.44401 0.383234 0
M  V30 15062 H 1470.14 2.57161 3.33836 0
M  V30 15063 H 1468.82 1.46421 2.88691 0
M  V30 15064 H 1467.72 3.38561 1.59146 0
M  V30 15065 H 1469.06 4.446 2.11167 0
M  V30 15066 N 1470.71 -0.445159 1.51182 0
M  V30 15067 C 1471.64 -1.5473 1.74874 0
M  V30 15068 C 1472.62 -1.5923 0.598323 0
M  V30 15069 O 1473.81 -1.75083 0.840219 0
M  V30 15070 C 1470.94 -2.92872 1.86664 0
M  V30 15071 C 1469.89 -3.03235 3.02048 0
M  V30 15072 C 1469.22 -4.43279 2.99012 0
M  V30 15073 C 1470.52 -2.7804 4.42144 0
M  V30 15074 H 1472.21 -1.35156 2.67158 0
M  V30 15075 H 1469.76 -0.648763 1.28558 0
M  V30 15076 H 1471.71 -3.69927 2.01822 0
M  V30 15077 H 1470.43 -3.1366 0.910225 0
M  V30 15078 H 1469.09 -2.28617 2.86583 0
M  V30 15079 H 1468.74 -4.61023 2.01163 0
M  V30 15080 H 1468.44 -4.51144 3.76488 0
M  V30 15081 H 1469.96 -5.22319 3.16252 0
M  V30 15082 H 1471.38 -3.44831 4.58 0
M  V30 15083 H 1469.77 -2.97323 5.21267 0
M  V30 15084 H 1470.84 -1.737 4.52721 0
M  V30 15085 N 1472.19 -1.41197 -0.700089 0
M  V30 15086 C 1473.13 -1.42688 -1.81407 0
M  V30 15087 C 1474.1 -0.28182 -1.63692 0
M  V30 15088 O 1475.29 -0.482196 -1.84606 0
M  V30 15089 C 1472.43 -1.31041 -3.19252 0
M  V30 15090 C 1471.54 -2.5538 -3.48432 0
M  V30 15091 C 1470.68 -2.3606 -4.75867 0
M  V30 15092 C 1469.72 -3.55898 -4.97999 0
M  V30 15093 N 1468.85 -3.35676 -6.16657 0
M  V30 15094 H 1473.69 -2.37898 -1.79467 0
M  V30 15095 H 1471.23 -1.18137 -0.87647 0
M  V30 15096 H 1473.19 -1.22292 -3.98874 0
M  V30 15097 H 1471.82 -0.394422 -3.20381 0
M  V30 15098 H 1470.87 -2.74598 -2.6325 0
M  V30 15099 H 1472.18 -3.44535 -3.6069 0
M  V30 15100 H 1471.34 -2.24752 -5.63535 0
M  V30 15101 H 1470.08 -1.44355 -4.65846 0
M  V30 15102 H 1469.08 -3.67665 -4.08781 0
M  V30 15103 H 1470.31 -4.4855 -5.09882 0
M  V30 15104 H 1468.25 -2.46667 -6.07858 0
M  V30 15105 H 1468.17 -4.18404 -6.29662 0
M  V30 15106 H 1469.44 -3.28132 -7.07071 0
M  V30 15107 N 1473.67 0.933891 -1.2695 0
M  V30 15108 C 1474.61 2.05498 -1.08964 0
M  V30 15109 C 1475.61 1.69394 -0.0144837 0
M  V30 15110 O 1476.81 1.79179 -0.171729 0
M  V30 15111 H 1473.19 0.672978 -0.335566 0
M  V30 15112 H 1475.16 2.17817 -2.03957 0
M  V30 15113 C 1473.91 3.39579 -0.747074 0
M  V30 15114 H 1473.23 3.67842 -1.56628 0
M  V30 15115 H 1474.67 4.18815 -0.661064 0
M  V30 15116 C 1473.13 3.3241 0.548214 0
M  V30 15117 O 1473.66 3.69132 1.58443 0
M  V30 15118 N 1471.87 2.85509 0.541545 0
M  V30 15119 H 1471.41 2.55822 -0.302112 0
M  V30 15120 H 1471.37 2.81095 1.4083 0
M  V30 15121 N 1475.14 1.08871 1.13951 0
M  V30 15122 C 1476.39 0.832367 1.85589 0
M  V30 15123 C 1476.74 -0.635083 1.81616 0
M  V30 15124 O 1476.04 -1.46123 1.2393 0
M  V30 15125 C 1476.23 1.29443 3.33135 0
M  V30 15126 C 1476.06 2.80527 3.51475 0
M  V30 15127 C 1474.83 3.48334 3.66048 0
M  V30 15128 C 1477.03 3.78686 3.47996 0
M  V30 15129 N 1475.01 4.87901 3.72593 0
M  V30 15130 C 1476.38 5.04176 3.60842 0
M  V30 15131 C 1478.44 3.71623 3.31362 0
M  V30 15132 C 1477.14 6.23438 3.58772 0
M  V30 15133 C 1479.17 4.90366 3.30598 0
M  V30 15134 C 1478.53 6.14696 3.43989 0
M  V30 15135 H 1474.63 0.357365 0.695568 0
M  V30 15136 H 1477.21 1.38799 1.36539 0
M  V30 15137 H 1475.38 0.766326 3.80765 0
M  V30 15138 H 1477.11 0.984006 3.92555 0
M  V30 15139 H 1473.87 2.98755 3.67481 0
M  V30 15140 H 1474.29 5.60584 3.79571 0
M  V30 15141 H 1478.93 2.7643 3.19916 0
M  V30 15142 H 1476.65 7.18937 3.68993 0
M  V30 15143 H 1480.24 4.86593 3.18933 0
M  V30 15144 H 1479.12 7.05039 3.43351 0
M  V30 15145 N 1476.62 -1.31073 0.875073 0
M  V30 15146 C 1477.57 -2.28389 0.332718 0
M  V30 15147 C 1478.54 -1.55954 -0.571639 0
M  V30 15148 O 1479.72 -1.84073 -0.502185 0
M  V30 15149 C 1476.86 -3.42083 -0.455364 0
M  V30 15150 C 1475.98 -4.29358 0.477088 0
M  V30 15151 C 1475.11 -5.30201 -0.325619 0
M  V30 15152 C 1474.15 -6.09123 0.602935 0
M  V30 15153 N 1473.29 -7.01909 -0.163836 0
M  V30 15154 H 1478.13 -2.74166 1.16777 0
M  V30 15155 H 1475.66 -1.3487 0.587248 0
M  V30 15156 H 1477.62 -4.06746 -0.928104 0
M  V30 15157 H 1476.25 -2.97402 -1.25507 0
M  V30 15158 H 1475.3 -3.65091 1.06829 0
M  V30 15159 H 1476.62 -4.84425 1.18887 0
M  V30 15160 H 1475.77 -6.00565 -0.860647 0
M  V30 15161 H 1474.51 -4.75802 -1.07067 0
M  V30 15162 H 1473.51 -5.37645 1.14968 0
M  V30 15163 H 1474.74 -6.65609 1.34692 0
M  V30 15164 H 1472.69 -6.49913 -0.891604 0
M  V30 15165 H 1472.6 -7.5442 0.48851 0
M  V30 15166 H 1473.87 -7.76529 -0.679929 0
M  V30 15167 N 1478.1 -0.635022 -1.4424 0
M  V30 15168 C 1479.51 -0.222982 -1.85364 0
M  V30 15169 C 1479.86 1.22648 -1.5314 0
M  V30 15170 O 1478.99 1.93373 -0.971384 0
M  V30 15171 C 1479.58 -0.397912 -3.36455 0
M  V30 15172 C 1478.14 -0.0403458 -3.76378 0
M  V30 15173 C 1477.29 -0.709451 -2.68071 0
M  V30 15174 H 1480.24 -0.839923 -1.34651 0
M  V30 15175 H 1480.26 0.361996 -3.78774 0
M  V30 15176 H 1479.77 -1.45294 -3.59877 0
M  V30 15177 H 1477.87 1.01279 -3.58571 0
M  V30 15178 H 1477.99 -0.453121 -4.76952 0
M  V30 15179 H 1476.35 -0.144386 -2.5429 0
M  V30 15180 H 1477.13 -1.76715 -2.94324 0
M  V30 15181 N 1479.58 1.53054 -0.375806 0
M  V30 15182 C 1480.54 2.24666 0.453608 0
M  V30 15183 C 1481.54 1.25816 1.00135 0
M  V30 15184 O 1482.73 1.50016 0.885481 0
M  V30 15185 C 1479.86 2.99131 1.63503 0
M  V30 15186 H 1481.06 2.994 -0.173172 0
M  V30 15187 H 1478.61 1.55778 -0.127673 0
M  V30 15188 H 1479.34 2.28666 2.29962 0
M  V30 15189 H 1479.13 3.71671 1.24913 0
M  V30 15190 H 1480.62 3.53542 2.22256 0
M  V30 15191 N 1481.06 0.105248 1.57248 0
M  V30 15192 C 1482.47 -0.251385 1.57608 0
M  V30 15193 C 1482.67 -1.677 1.11709 0
M  V30 15194 O 1481.73 -2.39552 0.798182 0
M  V30 15195 C 1483.04 -0.0305755 3.00684 0
M  V30 15196 C 1484.59 -0.0975409 3.12848 0
M  V30 15197 C 1485.06 0.0954024 4.57901 0
M  V30 15198 N 1486.56 0.040908 4.63182 0
M  V30 15199 C 1487.29 0.165298 5.73162 0
M  V30 15200 N 1486.79 0.345091 6.9194 0
M  V30 15201 N 1488.58 0.105847 5.62 0
M  V30 15202 H 1480.73 1.03658 1.85388 0
M  V30 15203 H 1482.99 0.407074 0.856151 0
M  V30 15204 H 1482.7 0.954461 3.38501 0
M  V30 15205 H 1482.57 -0.768477 3.69289 0
M  V30 15206 H 1484.96 -1.07309 2.74898 0
M  V30 15207 H 1485.04 0.672017 2.46815 0
M  V30 15208 H 1484.69 1.06786 4.96547 0
M  V30 15209 H 1484.62 -0.693974 5.22007 0
M  V30 15210 H 1487.11 -0.0951009 3.7778 0
M  V30 15211 H 1487.42 0.431243 7.71596 0
M  V30 15212 H 1485.76 0.38089 6.93955 0
M  V30 15213 H 1488.96 -0.0335544 4.68088 0
M  V30 15214 H 1489.13 0.206235 6.47672 0
M  V30 15215 N 1482.53 -1.56697 -0.168486 0
M  V30 15216 C 1483.95 -1.71808 -0.730674 0
M  V30 15217 C 1484.3 -0.716224 -1.8266 0
M  V30 15218 O 1483.42 0.121803 -2.16057 0
M  V30 15219 C 1484.02 -3.1151 -1.33217 0
M  V30 15220 C 1482.58 -3.28297 -1.84115 0
M  V30 15221 C 1481.72 -2.67757 -0.72122 0
M  V30 15222 H 1484.67 -1.58598 0.0569421 0
M  V30 15223 H 1484.69 -3.10318 -2.20189 0
M  V30 15224 H 1484.21 -3.84404 -0.53431 0
M  V30 15225 H 1482.31 -2.60364 -2.66536 0
M  V30 15226 H 1482.42 -4.3606 -1.98464 0
M  V30 15227 H 1480.78 -2.27644 -1.14239 0
M  V30 15228 H 1481.57 -3.43239 0.0648388 0
M  V30 15229 N 1484.01 0.437135 -1.51416 0
M  V30 15230 C 1485.26 1.18831 -1.64338 0
M  V30 15231 C 1485.59 1.9086 -0.358638 0
M  V30 15232 O 1484.87 1.83607 0.641769 0
M  V30 15233 C 1485.15 2.20515 -2.84685 0
M  V30 15234 C 1485 1.52568 -4.23135 0
M  V30 15235 C 1486.32 3.21494 -3.00549 0
M  V30 15236 H 1483.44 0.430652 -0.598087 0
M  V30 15237 H 1486.08 0.47753 -1.83901 0
M  V30 15238 H 1484.23 2.81132 -2.68136 0
M  V30 15239 H 1485.9 0.952851 -4.51352 0
M  V30 15240 H 1484.15 0.828025 -4.25824 0
M  V30 15241 H 1484.82 2.26623 -5.03335 0
M  V30 15242 H 1487.29 2.7093 -3.1581 0
M  V30 15243 H 1486.17 3.89934 -3.86319 0
M  V30 15244 H 1486.43 3.8761 -2.12629 0
M  V30 15245 N 1485.49 1.41566 0.692592 0
M  V30 15246 C 1486.74 1.40805 1.44978 0
M  V30 15247 C 1487.06 0.0191039 1.94991 0
M  V30 15248 O 1486.33 -0.939544 1.71899 0
M  V30 15249 H 1484.91 0.518293 0.537942 0
M  V30 15250 H 1487.57 1.76831 0.81956 0
M  V30 15251 H 1486.67 2.09706 2.31149 0
M  V30 15252 N 1486.97 -0.927146 1.27443 0
M  V30 15253 C 1488.22 -1.66941 1.13197 0
M  V30 15254 C 1488.53 -1.92939 -0.32156 0
M  V30 15255 O 1489.74 -2.65124 -0.584931 0
M  V30 15256 C 1488.19 -3.00677 1.97791 0
M  V30 15257 C 1487.8 -2.82376 3.47805 0
M  V30 15258 C 1489.54 -3.78499 1.92195 0
M  V30 15259 C 1487.45 -4.1167 4.24596 0
M  V30 15260 H 1486.38 -0.626171 0.420031 0
M  V30 15261 H 1489.03 -1.02997 1.51868 0
M  V30 15262 H 1487.41 -3.65681 1.51965 0
M  V30 15263 H 1488.59 -2.26135 4.01497 0
M  V30 15264 H 1486.9 -2.17982 3.54786 0
M  V30 15265 H 1489.5 -4.74312 2.46844 0
M  V30 15266 H 1489.84 -4.0655 0.895702 0
M  V30 15267 H 1490.38 -3.20292 2.35919 0
M  V30 15268 H 1487.12 -3.88798 5.27747 0
M  V30 15269 H 1486.64 -4.67573 3.75681 0
M  V30 15270 H 1488.31 -4.80028 4.338 0
M  V30 15271 N 1488.45 -1.09474 -1.13372 0
M  V30 15272 C 1489.36 -0.746674 -2.224 0
M  V30 15273 C 1490.37 0.251572 -1.72172 0
M  V30 15274 O 1491.55 0.092793 -2.01186 0
M  V30 15275 C 1488.61 -0.172965 -3.46268 0
M  V30 15276 C 1487.67 -1.22722 -4.11385 0
M  V30 15277 C 1486.91 -0.680794 -5.2934 0
M  V30 15278 O 1487.13 0.496135 -5.68238 0
M  V30 15279 O 1486.06 -1.43605 -5.84518 0
M  V30 15280 H 1489.89 -1.65649 -2.54547 0
M  V30 15281 H 1487.48 -0.869172 -1.21514 0
M  V30 15282 H 1489.36 0.143629 -4.21155 0
M  V30 15283 H 1488.03 0.709853 -3.15821 0
M  V30 15284 H 1486.94 -1.59652 -3.38323 0
M  V30 15285 H 1488.27 -2.0827 -4.45965 0
M  V30 15286 N 1489.92 1.30607 -0.882012 0
M  V30 15287 C 1490.87 2.2821 -0.344826 0
M  V30 15288 C 1491.84 1.56254 0.563361 0
M  V30 15289 O 1493.03 1.84336 0.492416 0
M  V30 15290 C 1490.17 3.42319 0.437216 0
M  V30 15291 C 1489.28 4.29098 -0.499851 0
M  V30 15292 C 1488.41 5.30366 0.297497 0
M  V30 15293 C 1487.45 6.08795 -0.63523 0
M  V30 15294 N 1486.59 7.01986 0.12661 0
M  V30 15295 H 1491.43 2.73543 -1.18229 0
M  V30 15296 H 1488.97 1.34556 -0.594392 0
M  V30 15297 H 1490.93 4.07232 0.906521 0
M  V30 15298 H 1489.56 2.98063 1.23928 0
M  V30 15299 H 1488.61 3.6452 -1.08764 0
M  V30 15300 H 1489.92 4.83787 -1.21454 0
M  V30 15301 H 1489.07 6.01013 0.828786 0
M  V30 15302 H 1487.81 4.76364 1.04542 0
M  V30 15303 H 1486.82 5.37028 -1.17817 0
M  V30 15304 H 1488.04 6.64885 -1.3822 0
M  V30 15305 H 1485.99 6.50376 0.857125 0
M  V30 15306 H 1485.91 7.5415 -0.528512 0
M  V30 15307 H 1487.17 7.76879 0.638738 0
M  V30 15308 N 1491.4 0.642663 1.43901 0
M  V30 15309 C 1492.63 0.157518 2.06801 0
M  V30 15310 C 1493.05 -1.16361 1.47789 0
M  V30 15311 O 1492.41 -1.71645 0.583747 0
M  V30 15312 C 1492.46 0.0685904 3.60535 0
M  V30 15313 O 1491.56 -0.972183 4.00777 0
M  V30 15314 H 1490.9 0.0900406 0.657867 0
M  V30 15315 H 1493.43 0.882604 1.84584 0
M  V30 15316 H 1493.44 -0.118212 4.07829 0
M  V30 15317 H 1492.12 1.03307 4.02865 0
M  V30 15318 H 1490.7 -0.75902 3.65094 0
M  V30 15319 N 1492.88 -1.52852 0.383918 0
M  V30 15320 C 1493.81 -2.29213 -0.44539 0
M  V30 15321 C 1494.79 -1.3238 -1.06815 0
M  V30 15322 O 1495.98 -1.61269 -1.08194 0
M  V30 15323 C 1493.11 -3.09497 -1.57573 0
M  V30 15324 C 1492.06 -4.14168 -1.07928 0
M  V30 15325 C 1491.39 -4.82644 -2.30128 0
M  V30 15326 C 1492.69 -5.22082 -0.151035 0
M  V30 15327 H 1494.38 -2.98786 0.19172 0
M  V30 15328 H 1491.93 -1.43695 0.0936471 0
M  V30 15329 H 1493.88 -3.61672 -2.16267 0
M  V30 15330 H 1492.6 -2.37647 -2.24034 0
M  V30 15331 H 1491.26 -3.62966 -0.514909 0
M  V30 15332 H 1490.91 -4.07348 -2.95087 0
M  V30 15333 H 1490.61 -5.53388 -1.97574 0
M  V30 15334 H 1492.14 -5.37621 -2.89475 0
M  V30 15335 H 1493.55 -5.69649 -0.646003 0
M  V30 15336 H 1491.95 -6.00041 0.0844833 0
M  V30 15337 H 1493.02 -4.78228 0.801618 0
M  V30 15338 N 1494.36 -0.113586 -1.5719 0
M  V30 15339 C 1495.29 0.868985 -2.12088 0
M  V30 15340 C 1496.3 1.23362 -1.06233 0
M  V30 15341 O 1497.49 1.18352 -1.33623 0
M  V30 15342 C 1494.59 2.17252 -2.60106 0
M  V30 15343 C 1493.77 1.9804 -3.89999 0
M  V30 15344 C 1492.83 3.12073 -4.23671 0
M  V30 15345 O 1491.85 2.85224 -4.92581 0
M  V30 15346 N 1493.05 4.38358 -3.80556 0
M  V30 15347 H 1495.82 0.399996 -2.97019 0
M  V30 15348 H 1493.38 0.0709947 -1.61744 0
M  V30 15349 H 1495.37 2.92523 -2.79665 0
M  V30 15350 H 1493.94 2.55516 -1.80084 0
M  V30 15351 H 1493.16 1.06993 -3.79402 0
M  V30 15352 H 1494.45 1.82502 -4.74943 0
M  V30 15353 H 1493.85 4.63048 -3.24966 0
M  V30 15354 H 1492.4 5.10518 -4.05234 0
M  V30 15355 N 1495.84 1.56784 0.160173 0
M  V30 15356 C 1496.77 2.00298 1.20012 0
M  V30 15357 C 1497.75 0.880356 1.45546 0
M  V30 15358 O 1498.93 1.14724 1.56691 0
M  V30 15359 C 1496.06 2.37238 2.53645 0
M  V30 15360 C 1495.02 3.52563 2.42658 0
M  V30 15361 C 1494.34 3.75278 3.80881 0
M  V30 15362 C 1495.64 4.85657 1.92183 0
M  V30 15363 H 1497.34 2.87423 0.838362 0
M  V30 15364 H 1494.88 1.3828 0.401838 0
M  V30 15365 H 1496.84 2.66278 3.2661 0
M  V30 15366 H 1495.56 1.47035 2.9163 0
M  V30 15367 H 1494.22 3.23669 1.72146 0
M  V30 15368 H 1493.87 2.82347 4.1628 0
M  V30 15369 H 1493.57 4.52882 3.74396 0
M  V30 15370 H 1495.09 4.0673 4.55415 0
M  V30 15371 H 1496.51 5.13501 2.54931 0
M  V30 15372 H 1494.9 5.66975 1.96619 0
M  V30 15373 H 1495.97 4.76908 0.876742 0
M  V30 15374 N 1497.32 -0.429099 1.51646 0
M  V30 15375 C 1498.54 -1.20465 1.68828 0
M  V30 15376 C 1498.97 -1.84044 0.388514 0
M  V30 15377 O 1498.32 -1.69165 -0.652152 0
M  V30 15378 C 1498.37 -2.25831 2.81128 0
M  V30 15379 O 1497.48 -3.31511 2.45305 0
M  V30 15380 H 1496.82 -0.352568 0.562665 0
M  V30 15381 H 1499.35 -0.505698 1.98252 0
M  V30 15382 H 1499.36 -2.70484 3.05455 0
M  V30 15383 H 1498.03 -1.78934 3.7544 0
M  V30 15384 H 1496.61 -2.92277 2.31579 0
M  V30 15385 N 1498.79 -1.41931 -0.685074 0
M  V30 15386 C 1500.02 -1.45229 -1.47364 0
M  V30 15387 C 1500.44 -0.060595 -1.88703 0
M  V30 15388 O 1499.79 0.92244 -1.57472 0
M  V30 15389 C 1499.84 -2.37033 -2.72942 0
M  V30 15390 O 1499.57 -3.70787 -2.33342 0
M  V30 15391 C 1501.07 -2.49244 -3.66596 0
M  V30 15392 H 1498.29 -0.494291 -0.453781 0
M  V30 15393 H 1500.83 -1.86333 -0.84263 0
M  V30 15394 H 1498.99 -1.9921 -3.32256 0
M  V30 15395 H 1499.4 -4.19853 -3.14362 0
M  V30 15396 H 1500.87 -3.17624 -4.51463 0
M  V30 15397 H 1501.35 -1.52703 -4.11799 0
M  V30 15398 H 1501.96 -2.87747 -3.1318 0
M  V30 15399 N 1500.27 0.920374 -1.27933 0
M  V30 15400 C 1501.18 2.05525 -1.13123 0
M  V30 15401 C 1502.2 1.73899 -0.059421 0
M  V30 15402 O 1503.37 1.99617 -0.267386 0
M  V30 15403 C 1500.44 3.37637 -0.787551 0
M  V30 15404 C 1499.5 3.82914 -1.94101 0
M  V30 15405 C 1498.73 5.08721 -1.61364 0
M  V30 15406 O 1498.96 5.6798 -0.524918 0
M  V30 15407 O 1497.89 5.4955 -2.45517 0
M  V30 15408 H 1501.72 2.20935 -2.08378 0
M  V30 15409 H 1499.3 1.04071 -1.07189 0
M  V30 15410 H 1501.18 4.16968 -0.609544 0
M  V30 15411 H 1499.86 3.23417 0.135407 0
M  V30 15412 H 1498.76 3.04438 -2.17413 0
M  V30 15413 H 1500.1 4.01687 -2.84444 0
M  V30 15414 N 1501.75 1.10074 1.1279 0
M  V30 15415 C 1503 0.839212 1.83852 0
M  V30 15416 C 1503.32 -0.637023 1.84301 0
M  V30 15417 O 1502.59 -1.46239 1.30349 0
M  V30 15418 H 1501.17 0.307468 0.680788 0
M  V30 15419 H 1503.83 1.39025 1.36595 0
M  V30 15420 H 1502.93 1.19872 2.88162 0
M  V30 15421 N 1503.23 -1.30138 0.888926 0
M  V30 15422 C 1504.47 -1.95989 0.509365 0
M  V30 15423 C 1504.8 -1.70153 -0.942249 0
M  V30 15424 O 1504.06 -1.00123 -1.68148 0
M  V30 15425 C 1504.36 -3.4975 0.735488 0
M  V30 15426 C 1504.02 -3.95644 2.1628 0
M  V30 15427 C 1502.68 -4.07886 2.55309 0
M  V30 15428 C 1505.04 -4.1952 3.09277 0
M  V30 15429 C 1502.36 -4.41367 3.86539 0
M  V30 15430 C 1504.72 -4.54472 4.40043 0
M  V30 15431 C 1503.38 -4.64923 4.7896 0
M  V30 15432 H 1502.65 -0.717175 0.18639 0
M  V30 15433 H 1505.3 -1.54932 1.12553 0
M  V30 15434 H 1503.6 -3.91783 0.0363165 0
M  V30 15435 H 1505.3 -3.9878 0.421351 0
M  V30 15436 H 1501.89 -3.86624 1.84985 0
M  V30 15437 H 1506.07 -4.09539 2.80342 0
M  V30 15438 H 1501.33 -4.47659 4.16427 0
M  V30 15439 H 1505.5 -4.71897 5.12138 0
M  V30 15440 H 1503.13 -4.90622 5.80685 0
M  V30 15441 N 1504.71 -0.650285 -1.43559 0
M  V30 15442 C 1505.95 -0.159832 -2.01066 0
M  V30 15443 C 1506.27 1.23246 -1.51887 0
M  V30 15444 O 1507.47 1.81797 -2.01648 0
M  V30 15445 C 1505.93 -0.23494 -3.59132 0
M  V30 15446 C 1505.54 -1.62975 -4.17305 0
M  V30 15447 C 1507.28 0.198061 -4.24038 0
M  V30 15448 C 1505.19 -1.65894 -5.67656 0
M  V30 15449 H 1504.12 -0.0559899 -0.751918 0
M  V30 15450 H 1506.77 -0.811891 -1.64562 0
M  V30 15451 H 1505.15 0.484573 -3.93024 0
M  V30 15452 H 1506.33 -2.37438 -3.94918 0
M  V30 15453 H 1504.64 -2.00847 -3.64759 0
M  V30 15454 H 1507.24 0.196054 -5.3434 0
M  V30 15455 H 1507.58 1.22896 -3.97747 0
M  V30 15456 H 1508.11 -0.469602 -3.95018 0
M  V30 15457 H 1504.85 -2.66883 -5.9871 0
M  V30 15458 H 1504.37 -0.957519 -5.92108 0
M  V30 15459 H 1506.05 -1.40137 -6.31641 0
M  V30 15460 N 1506.18 1.52647 -0.392018 0
M  V30 15461 C 1507.41 2.06032 0.189293 0
M  V30 15462 C 1507.83 1.26351 1.40288 0
M  V30 15463 O 1507.18 0.310877 1.79833 0
M  V30 15464 C 1507.23 3.57187 0.55672 0
M  V30 15465 O 1506.96 4.33851 -0.608657 0
M  V30 15466 C 1508.46 4.26929 1.1936 0
M  V30 15467 H 1505.68 0.670419 0.0279177 0
M  V30 15468 H 1508.22 1.96739 -0.558033 0
M  V30 15469 H 1506.38 3.66545 1.25394 0
M  V30 15470 H 1506.79 5.23606 -0.306039 0
M  V30 15471 H 1508.26 5.33924 1.40104 0
M  V30 15472 H 1508.74 3.82315 2.16175 0
M  V30 15473 H 1509.35 4.21895 0.537069 0
M  V30 15474 N 1507.66 0.121921 1.57128 0
M  V30 15475 C 1508.59 -0.823788 2.18486 0
M  V30 15476 C 1509.57 -1.27519 1.12574 0
M  V30 15477 O 1510.76 -1.33727 1.40822 0
M  V30 15478 C 1507.89 -2.07284 2.78659 0
M  V30 15479 C 1506.84 -1.75912 3.90178 0
M  V30 15480 C 1506.17 -3.07871 4.37172 0
M  V30 15481 C 1507.47 -1.02517 5.1214 0
M  V30 15482 H 1509.16 -0.312488 2.97765 0
M  V30 15483 H 1506.71 -0.148862 1.43228 0
M  V30 15484 H 1508.66 -2.73903 3.20242 0
M  V30 15485 H 1507.39 -2.60743 1.96673 0
M  V30 15486 H 1506.04 -1.11681 3.49174 0
M  V30 15487 H 1505.69 -3.59271 3.52041 0
M  V30 15488 H 1505.39 -2.87653 5.12376 0
M  V30 15489 H 1506.92 -3.75604 4.81409 0
M  V30 15490 H 1508.33 -1.59295 5.50725 0
M  V30 15491 H 1506.73 -0.923836 5.92946 0
M  V30 15492 H 1507.8 -0.0124219 4.84898 0
M  V30 15493 N 1509.14 -1.56867 -0.151857 0
M  V30 15494 C 1510.37 -1.87237 -0.880343 0
M  V30 15495 C 1510.78 -0.709565 -1.74959 0
M  V30 15496 O 1510.14 0.320818 -1.79658 0
M  V30 15497 C 1510.19 -3.16811 -1.74107 0
M  V30 15498 O 1509.91 -4.28611 -0.906858 0
M  V30 15499 C 1511.41 -3.60662 -2.57755 0
M  V30 15500 H 1508.63 -0.62074 -0.254799 0
M  V30 15501 H 1511.18 -2.03977 -0.146104 0
M  V30 15502 H 1509.33 -3.01838 -2.42842 0
M  V30 15503 H 1509.75 -5.02673 -1.49733 0
M  V30 15504 H 1511.22 -4.54176 -3.13732 0
M  V30 15505 H 1511.7 -2.85716 -3.33561 0
M  V30 15506 H 1512.3 -3.78312 -1.94319 0
M  V30 15507 N 1510.62 0.421051 -1.51871 0
M  V30 15508 C 1511.85 1.18938 -1.6893 0
M  V30 15509 C 1512.26 1.85069 -0.393198 0
M  V30 15510 O 1511.6 1.72204 0.639648 0
M  V30 15511 C 1511.66 2.30343 -2.76012 0
M  V30 15512 C 1511.33 1.84446 -4.18125 0
M  V30 15513 C 1512.32 1.33882 -5.02366 0
M  V30 15514 C 1510.01 1.91642 -4.64305 0
M  V30 15515 C 1512 0.911212 -6.30853 0
M  V30 15516 C 1509.69 1.48492 -5.92784 0
M  V30 15517 C 1510.69 0.98316 -6.75887 0
M  V30 15518 O 1510.37 0.557853 -8.01962 0
M  V30 15519 H 1510.11 0.363908 -0.56969 0
M  V30 15520 H 1512.66 0.503089 -1.99144 0
M  V30 15521 H 1510.89 3.02298 -2.41148 0
M  V30 15522 H 1512.58 2.92148 -2.81787 0
M  V30 15523 H 1513.35 1.27704 -4.67885 0
M  V30 15524 H 1509.22 2.29641 -3.99732 0
M  V30 15525 H 1512.77 0.518877 -6.95668 0
M  V30 15526 H 1508.67 1.54345 -6.26776 0
M  V30 15527 H 1509.43 0.682238 -8.15652 0
M  V30 15528 N 1512.1 1.42293 0.677538 0
M  V30 15529 C 1513.04 1.45556 1.79114 0
M  V30 15530 C 1514.01 0.307826 1.63223 0
M  V30 15531 O 1515.2 0.511504 1.83816 0
M  V30 15532 C 1512.34 1.36104 3.17127 0
M  V30 15533 C 1511.45 2.60891 3.44325 0
M  V30 15534 C 1510.59 2.43601 4.72051 0
M  V30 15535 C 1509.63 3.63775 4.92274 0
M  V30 15536 N 1508.76 3.45444 6.11239 0
M  V30 15537 H 1513.6 2.40723 1.7566 0
M  V30 15538 H 1511.14 1.19517 0.857565 0
M  V30 15539 H 1513.1 1.28622 3.96878 0
M  V30 15540 H 1511.73 0.445342 3.19713 0
M  V30 15541 H 1510.78 2.78751 2.58848 0
M  V30 15542 H 1512.09 3.50229 3.55163 0
M  V30 15543 H 1511.25 2.33689 5.59888 0
M  V30 15544 H 1509.98 1.51748 4.63491 0
M  V30 15545 H 1508.99 3.74122 4.0288 0
M  V30 15546 H 1510.21 4.56605 5.02681 0
M  V30 15547 H 1508.16 2.56306 6.03857 0
M  V30 15548 H 1508.08 4.28368 6.22926 0
M  V30 15549 H 1509.35 3.39339 7.01762 0
M  V30 15550 N 1513.57 -0.913576 1.28419 0
M  V30 15551 C 1514.82 -1.65944 1.15355 0
M  V30 15552 C 1515.14 -1.92706 -0.298228 0
M  V30 15553 O 1514.41 -1.54333 -1.20657 0
M  V30 15554 H 1512.99 -0.615063 0.423919 0
M  V30 15555 H 1515.66 -1.0962 1.6115 0
M  V30 15556 H 1514.75 -2.62173 1.69327 0
M  V30 15557 N 1515.05 -1.1067 -1.12204 0
M  V30 15558 C 1516.46 -0.867959 -1.65298 0
M  V30 15559 C 1516.81 0.601297 -1.86759 0
M  V30 15560 O 1515.94 1.46153 -1.59588 0
M  V30 15561 C 1516.53 -1.56906 -3.00276 0
M  V30 15562 C 1515.09 -1.37696 -3.5031 0
M  V30 15563 C 1514.24 -1.61688 -2.25282 0
M  V30 15564 H 1517.19 -1.26408 -0.959521 0
M  V30 15565 H 1517.21 -1.00947 -3.66865 0
M  V30 15566 H 1516.72 -2.63838 -2.84625 0
M  V30 15567 H 1514.83 -0.329381 -3.71141 0
M  V30 15568 H 1514.94 -2.12058 -4.29614 0
M  V30 15569 H 1513.3 -1.03977 -2.3251 0
M  V30 15570 H 1514.09 -2.69877 -2.12182 0
M  V30 15571 N 1516.53 1.29665 -0.895815 0
M  V30 15572 C 1517.46 2.30268 -0.387151 0
M  V30 15573 C 1518.44 1.61442 0.535768 0
M  V30 15574 O 1519.63 1.88978 0.447321 0
M  V30 15575 C 1516.76 3.45107 0.389639 0
M  V30 15576 C 1515.71 4.25706 -0.442498 0
M  V30 15577 C 1515.04 5.32704 0.461552 0
M  V30 15578 C 1516.34 4.9419 -1.69036 0
M  V30 15579 H 1518.03 2.73064 -1.22786 0
M  V30 15580 H 1515.58 1.31274 -0.591869 0
M  V30 15581 H 1517.53 4.14559 0.756203 0
M  V30 15582 H 1516.25 3.01145 1.2641 0
M  V30 15583 H 1514.91 3.57957 -0.791343 0
M  V30 15584 H 1514.56 4.84987 1.33403 0
M  V30 15585 H 1514.26 5.87529 -0.0915006 0
M  V30 15586 H 1515.78 6.05009 0.824395 0
M  V30 15587 H 1517.2 5.561 -1.39376 0
M  V30 15588 H 1515.6 5.5893 -2.18444 0
M  V30 15589 H 1516.67 4.19699 -2.42859 0
M  V30 15590 N 1518.01 0.657889 1.43212 0
M  V30 15591 C 1519.23 0.179444 2.06622 0
M  V30 15592 C 1519.66 -1.14787 1.49015 0
M  V30 15593 O 1519.02 -1.71016 0.60192 0
M  V30 15594 C 1519.06 0.106826 3.60442 0
M  V30 15595 O 1518.17 -0.92962 4.01786 0
M  V30 15596 H 1517.51 0.0970131 0.656875 0
M  V30 15597 H 1520.04 0.902132 1.83638 0
M  V30 15598 H 1520.05 -0.07495 4.07931 0
M  V30 15599 H 1518.72 1.07574 4.01747 0
M  V30 15600 H 1517.3 -0.720255 3.65878 0
M  V30 15601 N 1519.49 -1.52437 0.400108 0
M  V30 15602 C 1520.45 -2.2536 -0.417808 0
M  V30 15603 C 1521.45 -1.27393 -0.981204 0
M  V30 15604 O 1522.64 -1.51406 -0.861503 0
M  V30 15605 C 1519.77 -3.01695 -1.58724 0
M  V30 15606 H 1520.96 -2.99086 0.220782 0
M  V30 15607 H 1518.52 -1.55555 0.152439 0
M  V30 15608 H 1519.25 -2.32295 -2.26295 0
M  V30 15609 H 1519.04 -3.73611 -1.18984 0
M  V30 15610 H 1520.53 -3.57033 -2.16604 0
M  V30 15611 N 1520.96 -0.130252 -1.57061 0
M  V30 15612 C 1521.91 0.815767 -2.15902 0
M  V30 15613 C 1522.88 1.2558 -1.08715 0
M  V30 15614 O 1524.07 1.33132 -1.36677 0
M  V30 15615 C 1521.21 2.0561 -2.77162 0
M  V30 15616 C 1520.32 1.6634 -3.98692 0
M  V30 15617 C 1519.45 2.85425 -4.48002 0
M  V30 15618 C 1518.49 2.42449 -5.62036 0
M  V30 15619 N 1517.63 3.54486 -6.0604 0
M  V30 15620 H 1522.47 0.307164 -2.96413 0
M  V30 15621 H 1520.01 0.139913 -1.46433 0
M  V30 15622 H 1521.97 2.78298 -3.10815 0
M  V30 15623 H 1520.6 2.5391 -1.99323 0
M  V30 15624 H 1519.65 0.834817 -3.71127 0
M  V30 15625 H 1520.96 1.30765 -4.81354 0
M  V30 15626 H 1520.11 3.66325 -4.83623 0
M  V30 15627 H 1518.85 3.24235 -3.64312 0
M  V30 15628 H 1517.86 1.59985 -5.26008 0
M  V30 15629 H 1519.08 2.04744 -6.475 0
M  V30 15630 H 1517.03 3.92948 -5.25289 0
M  V30 15631 H 1516.95 3.22871 -6.83586 0
M  V30 15632 H 1518.21 4.35792 -6.46302 0
M  V30 15633 N 1522.44 1.56945 0.143535 0
M  V30 15634 C 1523.69 1.83176 0.853873 0
M  V30 15635 C 1524.01 0.71168 1.81549 0
M  V30 15636 O 1523.28 -0.266391 1.9408 0
M  V30 15637 H 1521.86 0.675785 0.318313 0
M  V30 15638 H 1524.52 1.9442 0.136712 0
M  V30 15639 H 1523.62 2.7823 1.41402 0
M  V30 15640 N 1523.92 -0.412991 1.52093 0
M  V30 15641 C 1525.15 -1.18212 1.69805 0
M  V30 15642 C 1525.56 -1.84386 0.405844 0
M  V30 15643 O 1524.92 -1.71725 -0.617809 0
M  V30 15644 C 1524.97 -2.24811 2.83094 0
M  V30 15645 O 1524.69 -1.61338 4.0731 0
M  V30 15646 C 1526.19 -3.14633 3.12283 0
M  V30 15647 H 1523.41 -0.355371 0.569168 0
M  V30 15648 H 1525.96 -0.486392 1.98632 0
M  V30 15649 H 1524.11 -2.90058 2.56797 0
M  V30 15650 H 1524.53 -2.31979 4.7041 0
M  V30 15651 H 1526 -3.85511 3.95076 0
M  V30 15652 H 1526.48 -3.76785 2.25677 0
M  V30 15653 H 1527.08 -2.55059 3.40331 0
M  V30 15654 N 1525.4 -1.4265 -0.669982 0
M  V30 15655 C 1526.36 -1.46196 -1.7652 0
M  V30 15656 C 1527.36 -0.348884 -1.5697 0
M  V30 15657 O 1528.55 -0.609921 -1.63174 0
M  V30 15658 C 1525.68 -1.29829 -3.1521 0
M  V30 15659 H 1526.88 -2.43718 -1.74762 0
M  V30 15660 H 1524.43 -1.29168 -0.88007 0
M  V30 15661 H 1525.17 -0.332493 -3.22591 0
M  V30 15662 H 1524.95 -2.10501 -3.30804 0
M  V30 15663 H 1526.44 -1.35205 -3.95107 0
M  V30 15664 N 1526.88 0.906753 -1.28902 0
M  V30 15665 C 1528.15 1.63637 -1.07155 0
M  V30 15666 C 1528.53 2.07527 0.386727 0
M  V30 15667 O 1527.88 1.82562 1.37417 0
M  V30 15668 C 1528.09 2.82256 -2.05263 0
M  V30 15669 C 1529.44 3.53109 -2.35794 0
M  V30 15670 O 1530.46 2.92414 -2.03402 0
M  V30 15671 O 1529.32 4.62512 -2.91109 0
M  V30 15672 H 1526.42 0.718194 -0.410032 0
M  V30 15673 H 1528.96 0.955442 -1.40248 0
M  V30 15674 H 1527.74 2.46968 -3.03517 0
M  V30 15675 H 1527.36 3.58059 -1.72857 0
M  V30 15676 N 1528.36 1.11264 1.11616 0
M  V30 15677 C 1529.32 0.7726 2.15786 0
M  V30 15678 C 1530.32 -0.207145 1.5946 0
M  V30 15679 O 1531.51 0.0171053 1.74192 0
M  V30 15680 C 1528.64 0.145927 3.40588 0
M  V30 15681 H 1529.83 1.69539 2.47379 0
M  V30 15682 H 1527.39 0.914278 1.2677 0
M  V30 15683 H 1528.12 -0.787178 3.14601 0
M  V30 15684 H 1527.91 0.851161 3.8275 0
M  V30 15685 H 1529.4 -0.0759176 4.17531 0
M  V30 15686 N 1529.83 -1.29188 0.902679 0
M  V30 15687 C 1531.08 -1.95438 0.530124 0
M  V30 15688 C 1531.41 -1.71142 -0.924149 0
M  V30 15689 O 1530.66 -1.01901 -1.67077 0
M  V30 15690 C 1530.96 -3.48951 0.772542 0
M  V30 15691 C 1530.63 -3.93328 2.20464 0
M  V30 15692 C 1529.29 -4.05155 2.59621 0
M  V30 15693 C 1531.64 -4.16216 3.13709 0
M  V30 15694 C 1528.97 -4.37242 3.91198 0
M  V30 15695 C 1531.32 -4.49779 4.44839 0
M  V30 15696 C 1529.99 -4.59817 4.83865 0
M  V30 15697 H 1529.26 -0.715158 0.193986 0
M  V30 15698 H 1531.9 -1.5373 1.1419 0
M  V30 15699 H 1530.21 -3.91723 0.0778683 0
M  V30 15700 H 1531.91 -3.98311 0.463623 0
M  V30 15701 H 1528.5 -3.84641 1.89075 0
M  V30 15702 H 1532.68 -4.06542 2.8467 0
M  V30 15703 H 1527.94 -4.43217 4.21152 0
M  V30 15704 H 1532.11 -4.66439 5.17115 0
M  V30 15705 H 1529.74 -4.84435 5.85856 0
M  V30 15706 N 1531.31 -0.665475 -1.42861 0
M  V30 15707 C 1532.56 -0.181149 -2.00885 0
M  V30 15708 C 1532.87 1.21629 -1.53186 0
M  V30 15709 O 1534.08 1.79648 -2.03565 0
M  V30 15710 C 1532.54 -0.273017 -3.58863 0
M  V30 15711 C 1532.14 -1.67392 -4.15553 0
M  V30 15712 C 1533.89 0.153075 -4.24224 0
M  V30 15713 C 1531.79 -1.71905 -5.65864 0
M  V30 15714 H 1530.72 -0.0639619 -0.751282 0
M  V30 15715 H 1533.38 -0.829299 -1.63691 0
M  V30 15716 H 1531.76 0.44286 -3.93516 0
M  V30 15717 H 1532.93 -2.41613 -3.92377 0
M  V30 15718 H 1531.25 -2.04704 -3.62609 0
M  V30 15719 H 1533.84 0.139369 -5.34518 0
M  V30 15720 H 1534.19 1.1867 -3.99028 0
M  V30 15721 H 1534.72 -0.511472 -3.94498 0
M  V30 15722 H 1531.46 -2.73218 -5.95846 0
M  V30 15723 H 1530.98 -1.02027 -5.91059 0
M  V30 15724 H 1532.66 -1.46829 -6.30119 0
M  V30 15725 N 1532.79 1.52222 -0.408187 0
M  V30 15726 C 1534.04 2.02102 0.168154 0
M  V30 15727 C 1534.37 1.2933 1.4487 0
M  V30 15728 O 1533.64 0.399336 1.90356 0
M  V30 15729 C 1533.93 3.57679 0.416821 0
M  V30 15730 C 1533.78 4.41101 -0.880335 0
M  V30 15731 C 1535.1 4.23442 1.19936 0
M  V30 15732 H 1532.22 0.734583 0.0596402 0
M  V30 15733 H 1534.86 1.82121 -0.541467 0
M  V30 15734 H 1533.01 3.74835 1.02131 0
M  V30 15735 H 1534.68 4.35658 -1.51656 0
M  V30 15736 H 1532.92 4.07353 -1.49152 0
M  V30 15737 H 1533.6 5.48031 -0.660748 0
M  V30 15738 H 1536.07 4.10379 0.687605 0
M  V30 15739 H 1534.95 5.32239 1.3421 0
M  V30 15740 H 1535.21 3.82335 2.21973 0
M  V30 15741 N 1534.27 0.138579 1.5699 0
M  V30 15742 C 1535.68 -0.217898 1.58106 0
M  V30 15743 C 1535.88 -1.65293 1.15241 0
M  V30 15744 O 1534.94 -2.37805 0.848815 0
M  V30 15745 C 1536.25 0.033211 3.00682 0
M  V30 15746 C 1537.8 -0.0311593 3.12984 0
M  V30 15747 C 1538.28 0.192508 4.57595 0
M  V30 15748 N 1539.77 0.139147 4.62991 0
M  V30 15749 C 1540.5 0.286837 5.72682 0
M  V30 15750 N 1540 0.491784 6.91052 0
M  V30 15751 N 1541.79 0.225032 5.61649 0
M  V30 15752 H 1533.94 1.07567 1.83148 0
M  V30 15753 H 1536.2 0.425143 0.847324 0
M  V30 15754 H 1535.91 1.02605 3.364 0
M  V30 15755 H 1535.78 -0.689972 3.70836 0
M  V30 15756 H 1538.17 -1.01454 2.77112 0
M  V30 15757 H 1538.25 0.724219 2.45334 0
M  V30 15758 H 1537.9 1.17295 4.9417 0
M  V30 15759 H 1537.83 -0.583092 5.23362 0
M  V30 15760 H 1540.32 -0.0149467 3.77897 0
M  V30 15761 H 1540.63 0.594813 7.70508 0
M  V30 15762 H 1538.98 0.528002 6.92991 0
M  V30 15763 H 1542.17 0.0657415 4.68054 0
M  V30 15764 H 1542.34 0.343569 6.47089 0
M  V30 15765 N 1535.75 -1.57019 -0.13521 0
M  V30 15766 C 1536.99 -1.8399 -0.845818 0
M  V30 15767 C 1537.32 -0.721255 -1.80633 0
M  V30 15768 O 1536.58 0.288778 -1.93558 0
M  V30 15769 C 1536.87 -3.17358 -1.64373 0
M  V30 15770 C 1536.54 -4.43214 -0.828967 0
M  V30 15771 C 1535.2 -4.77391 -0.604226 0
M  V30 15772 C 1537.55 -5.20551 -0.259965 0
M  V30 15773 C 1534.88 -5.86359 0.200033 0
M  V30 15774 C 1537.23 -6.30364 0.531397 0
M  V30 15775 C 1535.9 -6.63083 0.766605 0
M  V30 15776 H 1535.17 -0.673266 -0.309507 0
M  V30 15777 H 1537.82 -1.9119 -0.108903 0
M  V30 15778 H 1536.12 -3.05661 -2.4511 0
M  V30 15779 H 1537.82 -3.35444 -2.19724 0
M  V30 15780 H 1534.41 -4.16427 -1.01421 0
M  V30 15781 H 1538.59 -4.94512 -0.420847 0
M  V30 15782 H 1533.85 -6.10144 0.391646 0
M  V30 15783 H 1538.02 -6.89479 0.979371 0
M  V30 15784 H 1535.65 -7.47354 1.39164 0
M  V30 15785 N 1537.22 0.404919 -1.52309 0
M  V30 15786 C 1538.47 1.15319 -1.66822 0
M  V30 15787 C 1538.8 1.90056 -0.399041 0
M  V30 15788 O 1538.08 1.84927 0.602679 0
M  V30 15789 C 1538.36 2.14426 -2.89298 0
M  V30 15790 C 1538.21 1.43558 -4.26276 0
M  V30 15791 C 1539.53 3.15046 -3.07301 0
M  V30 15792 H 1536.65 0.417869 -0.607087 0
M  V30 15793 H 1539.29 0.438414 -1.84873 0
M  V30 15794 H 1537.44 2.75382 -2.74039 0
M  V30 15795 H 1539.12 0.856899 -4.53271 0
M  V30 15796 H 1537.36 0.737515 -4.27485 0
M  V30 15797 H 1538.03 2.15895 -5.08029 0
M  V30 15798 H 1540.51 2.6417 -3.21486 0
M  V30 15799 H 1539.38 3.81652 -3.94503 0
M  V30 15800 H 1539.64 3.83012 -2.20803 0
M  V30 15801 N 1538.7 1.43003 0.662408 0
M  V30 15802 C 1539.94 1.45629 1.43428 0
M  V30 15803 C 1540.31 0.0748804 1.91854 0
M  V30 15804 O 1541.51 -0.0241645 2.68789 0
M  V30 15805 C 1539.78 2.46223 2.59054 0
M  V30 15806 S 1541.34 2.6765 3.47719 0
M  V30 15807 H 1538.16 0.515463 0.489713 0
M  V30 15808 H 1540.76 1.79701 0.769923 0
M  V30 15809 H 1539.46 3.45342 2.21737 0
M  V30 15810 H 1538.99 2.13618 3.3035 0
M  V30 15811 H 1541.01 1.96884 4.55468 0
M  V30 15812 N 1540.18 -0.899904 1.29381 0
M  V30 15813 C 1541.13 -2.02537 1.14375 0
M  V30 15814 C 1542.12 -1.69296 0.0593904 0
M  V30 15815 O 1543.33 -1.78661 0.219174 0
M  V30 15816 H 1539.7 -0.663844 0.353291 0
M  V30 15817 H 1541.67 -2.12332 2.0966 0
M  V30 15818 C 1540.42 -3.37479 0.836845 0
M  V30 15819 H 1539.75 -3.6356 1.66326 0
M  V30 15820 H 1541.19 -4.16915 0.771873 0
M  V30 15821 C 1539.65 -3.33746 -0.459889 0
M  V30 15822 O 1540.18 -3.73203 -1.48601 0
M  V30 15823 N 1538.38 -2.86845 -0.465657 0
M  V30 15824 H 1537.93 -2.54931 0.369833 0
M  V30 15825 H 1537.89 -2.8473 -1.33327 0
M  V30 15826 N 1541.66 -1.11854 -1.11024 0
M  V30 15827 C 1542.94 -0.781693 -1.79301 0
M  V30 15828 C 1543.32 0.72956 -1.98092 0
M  V30 15829 O 1542.66 1.66109 -1.56908 0
M  V30 15830 C 1542.87 -1.54976 -3.12703 0
M  V30 15831 C 1544.22 -1.73183 -3.87676 0
M  V30 15832 O 1545.25 -1.51437 -3.22406 0
M  V30 15833 O 1544.1 -2.0935 -5.04812 0
M  V30 15834 H 1541.2 -0.283672 -0.776826 0
M  V30 15835 H 1543.74 -1.22222 -1.17728 0
M  V30 15836 H 1542.52 -2.57759 -2.94408 0
M  V30 15837 H 1542.14 -1.10308 -3.81992 0
M  V30 15838 N 1543.14 1.28707 -0.909517 0
M  V30 15839 C 1544.41 1.90124 -0.459585 0
M  V30 15840 C 1544.79 1.82477 1.06139 0
M  V30 15841 O 1544.14 1.25792 1.90758 0
M  V30 15842 C 1544.35 3.34806 -0.985188 0
M  V30 15843 C 1545.7 4.11799 -1.03475 0
M  V30 15844 O 1546.72 3.43749 -0.933536 0
M  V30 15845 O 1545.58 5.33426 -1.18825 0
M  V30 15846 H 1542.68 0.814199 -0.144948 0
M  V30 15847 H 1545.22 1.37104 -1.00002 0
M  V30 15848 H 1543.99 3.34575 -2.02917 0
M  V30 15849 H 1543.62 3.95318 -0.425329 0
M  V30 15850 N 1544.61 0.673042 1.42506 0
M  V30 15851 C 1545.86 0.194864 2.01862 0
M  V30 15852 C 1546.19 -1.19491 1.53087 0
M  V30 15853 O 1545.47 -1.80187 0.732322 0
M  V30 15854 C 1545.75 0.227559 3.5938 0
M  V30 15855 C 1545.6 1.65266 4.18338 0
M  V30 15856 C 1546.92 -0.425197 4.38041 0
M  V30 15857 H 1544.04 0.0722831 0.733447 0
M  V30 15858 H 1546.68 0.857493 1.6955 0
M  V30 15859 H 1544.83 -0.336658 3.87039 0
M  V30 15860 H 1546.51 2.26899 4.0164 0
M  V30 15861 H 1544.75 2.19388 3.74234 0
M  V30 15862 H 1545.42 1.62724 5.2747 0
M  V30 15863 H 1547.9 0.0550709 4.16064 0
M  V30 15864 H 1546.77 -0.371675 5.4764 0
M  V30 15865 H 1547.03 -1.50251 4.15785 0
M  V30 15866 N 1546.09 -1.52004 0.416254 0
M  V30 15867 C 1547.32 -2.06008 -0.156264 0
M  V30 15868 C 1547.73 -1.28562 -1.3881 0
M  V30 15869 O 1547.07 -0.33265 -1.80663 0
M  V30 15870 C 1547.14 -3.55039 -0.564614 0
M  V30 15871 C 1546.8 -4.53587 0.557481 0
M  V30 15872 C 1547.8 -5.0004 1.42324 0
M  V30 15873 C 1545.48 -4.96935 0.732205 0
M  V30 15874 C 1547.48 -5.88492 2.4486 0
M  V30 15875 C 1545.16 -5.85181 1.76087 0
M  V30 15876 C 1546.16 -6.30855 2.61747 0
M  V30 15877 O 1545.85 -7.17353 3.6285 0
M  V30 15878 H 1545.58 -0.675681 -0.0207555 0
M  V30 15879 H 1548.13 -1.96806 0.58792 0
M  V30 15880 H 1546.36 -3.61951 -1.36119 0
M  V30 15881 H 1548.05 -3.91656 -1.06586 0
M  V30 15882 H 1548.82 -4.67261 1.29968 0
M  V30 15883 H 1544.7 -4.60939 0.0751016 0
M  V30 15884 H 1548.24 -6.24063 3.11754 0
M  V30 15885 H 1544.14 -6.17373 1.8847 0
M  V30 15886 H 1544.91 -7.35481 3.59179 0
M  V30 15887 N 1547.57 -0.146903 -1.56914 0
M  V30 15888 C 1548.8 0.514426 -2.00919 0
M  V30 15889 C 1549.22 1.57632 -1.02634 0
M  V30 15890 O 1548.58 1.813 -0.00207478 0
M  V30 15891 C 1548.63 1.09197 -3.43669 0
M  V30 15892 O 1547.73 2.20684 -3.48385 0
M  V30 15893 H 1547.07 0.125827 -0.651969 0
M  V30 15894 H 1549.6 -0.243607 -2.03145 0
M  V30 15895 H 1549.61 1.42066 -3.82467 0
M  V30 15896 H 1548.29 0.314336 -4.1471 0
M  V30 15897 H 1546.86 1.89045 -3.21429 0
M  V30 15898 N 1549.05 1.57088 0.126881 0
M  V30 15899 C 1550.3 1.84071 0.834397 0
M  V30 15900 C 1550.62 0.730896 1.80784 0
M  V30 15901 O 1549.89 -0.245791 1.94352 0
M  V30 15902 H 1548.47 0.679123 0.311128 0
M  V30 15903 H 1551.13 1.94554 0.116083 0
M  V30 15904 H 1550.23 2.79714 1.38443 0
M  V30 15905 N 1550.53 -0.396836 1.52522 0
M  V30 15906 C 1551.94 -0.975124 1.59211 0
M  V30 15907 C 1552.29 -1.91199 0.440138 0
M  V30 15908 O 1551.41 -2.11924 -0.437856 0
M  V30 15909 C 1552.01 -1.77531 2.88562 0
M  V30 15910 C 1550.57 -2.30343 2.9769 0
M  V30 15911 C 1549.71 -1.10671 2.54258 0
M  V30 15912 H 1552.67 -0.176646 1.57714 0
M  V30 15913 H 1552.69 -2.63384 2.74607 0
M  V30 15914 H 1552.2 -1.09318 3.72386 0
M  V30 15915 H 1550.3 -3.01891 2.18387 0
M  V30 15916 H 1550.41 -2.60366 4.02177 0
M  V30 15917 H 1548.78 -1.46439 2.08393 0
M  V30 15918 H 1549.56 -0.440061 3.40468 0
M  V30 15919 N 1552.01 -1.43353 -0.654814 0
M  V30 15920 C 1552.94 -1.51194 -1.7794 0
M  V30 15921 C 1553.92 -0.366747 -1.66099 0
M  V30 15922 O 1555.1 -0.58375 -1.85219 0
M  V30 15923 C 1552.23 -1.43298 -3.16359 0
M  V30 15924 C 1551.19 -2.5605 -3.42961 0
M  V30 15925 C 1550.51 -2.33208 -4.81163 0
M  V30 15926 C 1551.81 -3.98303 -3.37864 0
M  V30 15927 H 1553.51 -2.4532 -1.71635 0
M  V30 15928 H 1551.05 -1.18072 -0.824319 0
M  V30 15929 H 1553 -1.47388 -3.94784 0
M  V30 15930 H 1551.73 -0.456761 -3.2339 0
M  V30 15931 H 1550.39 -2.5131 -2.66906 0
M  V30 15932 H 1550.04 -1.33833 -4.84869 0
M  V30 15933 H 1549.74 -3.08789 -4.99923 0
M  V30 15934 H 1551.26 -2.39079 -5.61848 0
M  V30 15935 H 1552.67 -4.04538 -4.06229 0
M  V30 15936 H 1551.07 -4.73897 -3.6816 0
M  V30 15937 H 1552.14 -4.23552 -2.36075 0
M  V30 15938 N 1553.48 0.89303 -1.29857 0
M  V30 15939 C 1554.43 1.9979 -1.15554 0
M  V30 15940 C 1555.4 1.66033 -0.0471157 0
M  V30 15941 O 1556.59 1.89575 -0.215846 0
M  V30 15942 C 1553.73 3.34595 -0.844993 0
M  V30 15943 C 1552.84 3.81093 -2.03451 0
M  V30 15944 C 1551.97 5.04506 -1.66275 0
M  V30 15945 C 1551.01 5.4339 -2.8177 0
M  V30 15946 N 1550.15 6.57987 -2.44945 0
M  V30 15947 H 1554.99 2.11355 -2.10079 0
M  V30 15948 H 1552.53 1.03497 -1.04531 0
M  V30 15949 H 1554.48 4.12175 -0.645598 0
M  V30 15950 H 1553.11 3.22738 0.0633626 0
M  V30 15951 H 1552.17 2.99491 -2.34541 0
M  V30 15952 H 1553.48 4.05855 -2.8997 0
M  V30 15953 H 1552.63 5.89688 -1.42664 0
M  V30 15954 H 1551.37 4.81597 -0.769144 0
M  V30 15955 H 1550.38 4.56738 -3.06056 0
M  V30 15956 H 1551.6 5.68276 -3.71805 0
M  V30 15957 H 1549.55 6.36669 -1.58079 0
M  V30 15958 H 1549.46 6.82579 -3.24996 0
M  V30 15959 H 1550.73 7.46421 -2.24669 0
M  V30 15960 N 1554.96 1.12442 1.10429 0
M  V30 15961 C 1556.21 0.879758 1.82391 0
M  V30 15962 C 1556.54 -0.594402 1.85195 0
M  V30 15963 O 1555.79 -1.4554 1.3083 0
M  V30 15964 C 1556.09 1.39976 3.28849 0
M  V30 15965 C 1555.76 2.88897 3.46192 0
M  V30 15966 C 1554.42 3.2956 3.50633 0
M  V30 15967 C 1556.77 3.8476 3.51581 0
M  V30 15968 C 1554.1 4.64791 3.58031 0
M  V30 15969 C 1556.45 5.19821 3.60512 0
M  V30 15970 C 1555.11 5.60026 3.63217 0
M  V30 15971 H 1554.38 0.321926 0.667416 0
M  V30 15972 H 1557.03 1.40461 1.30165 0
M  V30 15973 H 1555.34 0.795374 3.83642 0
M  V30 15974 H 1557.03 1.18667 3.83039 0
M  V30 15975 H 1553.62 2.56448 3.43413 0
M  V30 15976 H 1557.81 3.54439 3.474 0
M  V30 15977 H 1553.06 4.95332 3.58408 0
M  V30 15978 H 1557.24 5.93927 3.63625 0
M  V30 15979 H 1554.86 6.64803 3.68702 0
M  V30 15980 N 1556.44 -1.28223 0.91633 0
M  V30 15981 C 1557.37 -2.29623 0.423735 0
M  V30 15982 C 1558.35 -1.62274 -0.510016 0
M  V30 15983 O 1559.54 -1.89666 -0.4172 0
M  V30 15984 C 1556.67 -3.45684 -0.334686 0
M  V30 15985 C 1555.62 -4.24949 0.510169 0
M  V30 15986 C 1554.95 -5.33371 -0.376745 0
M  V30 15987 C 1556.25 -4.91438 1.76877 0
M  V30 15988 H 1557.94 -2.71076 1.27115 0
M  V30 15989 H 1555.49 -1.30316 0.612678 0
M  V30 15990 H 1557.44 -4.1571 -0.690154 0
M  V30 15991 H 1556.16 -3.03118 -1.21603 0
M  V30 15992 H 1554.82 -3.56653 0.848191 0
M  V30 15993 H 1554.47 -4.87048 -1.25671 0
M  V30 15994 H 1554.17 -5.87309 0.18496 0
M  V30 15995 H 1555.69 -6.06244 -0.728039 0
M  V30 15996 H 1557.11 -5.53812 1.48205 0
M  V30 15997 H 1555.5 -5.55384 2.27308 0
M  V30 15998 H 1556.57 -4.15783 2.49505 0
M  V30 15999 N 1557.92 -0.68059 -1.42147 0
M  V30 16000 C 1558.87 0.0170117 -2.27994 0
M  V30 16001 C 1559.85 0.767809 -1.41398 0
M  V30 16002 O 1561.04 0.645767 -1.64799 0
M  V30 16003 C 1558.17 0.963439 -3.29504 0
M  V30 16004 C 1557.26 0.20968 -4.23581 0
M  V30 16005 N 1557.65 -0.788543 -4.99615 0
M  V30 16006 C 1555.95 0.447304 -4.43751 0
M  V30 16007 C 1556.65 -1.23842 -5.68364 0
M  V30 16008 N 1555.62 -0.567238 -5.40632 0
M  V30 16009 H 1559.43 -0.748567 -2.84207 0
M  V30 16010 H 1556.94 -0.510145 -1.54179 0
M  V30 16011 H 1558.94 1.47823 -3.89813 0
M  V30 16012 H 1557.6 1.72878 -2.74851 0
M  V30 16013 H 1558.61 -1.16828 -5.04551 0
M  V30 16014 H 1555.29 1.1917 -4.00131 0
M  V30 16015 H 1556.68 -2.06593 -6.39351 0
M  V30 16016 N 1559.4 1.51781 -0.424309 0
M  V30 16017 C 1560.33 2.25144 0.429274 0
M  V30 16018 C 1561.34 1.2867 0.997389 0
M  V30 16019 O 1562.53 1.54514 0.893746 0
M  V30 16020 C 1559.63 2.98156 1.61109 0
M  V30 16021 C 1558.8 4.21623 1.16417 0
M  V30 16022 C 1557.86 4.77327 2.21462 0
M  V30 16023 O 1556.89 5.39511 1.8143 0
M  V30 16024 N 1558.09 4.60221 3.53803 0
M  V30 16025 H 1560.85 2.99036 -0.199438 0
M  V30 16026 H 1558.42 1.59919 -0.252492 0
M  V30 16027 H 1560.41 3.32312 2.30978 0
M  V30 16028 H 1558.98 2.27356 2.14541 0
M  V30 16029 H 1558.2 3.93109 0.293034 0
M  V30 16030 H 1559.49 5.01772 0.842767 0
M  V30 16031 H 1558.88 4.10661 3.89068 0
M  V30 16032 H 1557.44 4.98774 4.19604 0
M  V30 16033 N 1560.87 0.155222 1.56834 0
M  V30 16034 C 1562.15 -0.539327 1.88018 0
M  V30 16035 C 1562.53 -1.8241 1.06253 0
M  V30 16036 O 1561.88 -2.27996 0.151721 0
M  V30 16037 C 1562.09 -0.796826 3.39782 0
M  V30 16038 C 1563.44 -1.13397 4.09178 0
M  V30 16039 O 1564.46 -0.885907 3.45007 0
M  V30 16040 O 1563.32 -1.60117 5.22518 0
M  V30 16041 H 1560.41 -0.276066 0.779562 0
M  V30 16042 H 1562.96 0.192451 1.68605 0
M  V30 16043 H 1561.73 0.112097 3.91139 0
M  V30 16044 H 1561.35 -1.5825 3.6475 0
M  V30 16045 N 1562.35 -1.57153 -0.118549 0
M  V30 16046 C 1563.6 -1.84064 -0.824832 0
M  V30 16047 C 1563.91 -0.740941 -1.81023 0
M  V30 16048 O 1565.12 -0.896464 -2.56273 0
M  V30 16049 C 1563.58 -3.26338 -1.51761 0
M  V30 16050 C 1563.18 -4.44318 -0.573174 0
M  V30 16051 C 1564.93 -3.62496 -2.209 0
M  V30 16052 C 1562.83 -5.7762 -1.2692 0
M  V30 16053 H 1561.76 -0.686521 -0.311777 0
M  V30 16054 H 1564.42 -1.83336 -0.0775833 0
M  V30 16055 H 1562.8 -3.21537 -2.3115 0
M  V30 16056 H 1563.97 -4.60418 0.187529 0
M  V30 16057 H 1562.29 -4.16398 0.0112747 0
M  V30 16058 H 1564.88 -4.5936 -2.73666 0
M  V30 16059 H 1565.23 -2.89952 -2.9872 0
M  V30 16060 H 1565.76 -3.69084 -1.48399 0
M  V30 16061 H 1562.5 -6.53335 -0.532285 0
M  V30 16062 H 1562.02 -5.65406 -2.00191 0
M  V30 16063 H 1563.7 -6.21391 -1.80227 0
M  V30 16064 N 1563.83 0.388742 -1.5273 0
M  V30 16065 C 1565.11 1.14799 -1.58368 0
M  V30 16066 C 1565.49 2.07706 -0.377018 0
M  V30 16067 O 1564.83 2.1951 0.634634 0
M  V30 16068 C 1565.04 1.90745 -2.92262 0
M  V30 16069 C 1566.39 2.46098 -3.46007 0
M  V30 16070 O 1567.42 2.00901 -2.94138 0
M  V30 16071 O 1566.28 3.28658 -4.3663 0
M  V30 16072 H 1563.37 0.52529 -0.638748 0
M  V30 16073 H 1565.92 0.393874 -1.65066 0
M  V30 16074 H 1564.69 1.22806 -3.7153 0
M  V30 16075 H 1564.31 2.73118 -2.88951 0
M  V30 16076 N 1565.31 1.43698 0.647203 0
M  V30 16077 C 1566.53 1.49301 1.43958 0
M  V30 16078 C 1566.96 0.11395 1.87755 0
M  V30 16079 O 1566.32 -0.893571 1.5775 0
M  V30 16080 C 1566.36 2.44905 2.64677 0
M  V30 16081 O 1565.47 1.93947 3.63948 0
M  V30 16082 H 1564.81 0.504771 0.431396 0
M  V30 16083 H 1567.34 1.88673 0.791432 0
M  V30 16084 H 1567.35 2.62409 3.12419 0
M  V30 16085 H 1566.02 3.45083 2.32143 0
M  V30 16086 H 1564.6 1.86133 3.23124 0
M  V30 16087 N 1566.79 -0.886131 1.30328 0
M  V30 16088 C 1568.03 -1.6346 1.18849 0
M  V30 16089 C 1568.36 -1.93295 -0.257285 0
M  V30 16090 O 1567.63 -1.56858 -1.17356 0
M  V30 16091 H 1566.21 -0.605932 0.43687 0
M  V30 16092 H 1568.87 -1.06177 1.63439 0
M  V30 16093 H 1567.96 -2.58522 1.7485 0
M  V30 16094 N 1568.26 -1.13026 -1.09832 0
M  V30 16095 C 1569.2 -0.761606 -2.16176 0
M  V30 16096 C 1570.21 0.214709 -1.61378 0
M  V30 16097 O 1571.4 -0.00487178 -1.78499 0
M  V30 16098 C 1568.5 -0.107513 -3.38729 0
M  V30 16099 C 1567.67 -1.11487 -4.22953 0
M  V30 16100 C 1566.73 -0.487243 -5.23939 0
M  V30 16101 O 1565.76 -1.14605 -5.57543 0
M  V30 16102 N 1566.96 0.742571 -5.75731 0
M  V30 16103 H 1569.72 -1.67669 -2.48409 0
M  V30 16104 H 1567.28 -1.0227 -1.25509 0
M  V30 16105 H 1569.28 0.324507 -4.03397 0
M  V30 16106 H 1567.85 0.710438 -3.0442 0
M  V30 16107 H 1567.07 -1.72432 -3.54487 0
M  V30 16108 H 1568.35 -1.79584 -4.76053 0
M  V30 16109 H 1567.75 1.29667 -5.50639 0
M  V30 16110 H 1566.31 1.11731 -6.42152 0
M  V30 16111 N 1569.74 1.27735 -0.923117 0
M  V30 16112 C 1570.99 1.94185 -0.56004 0
M  V30 16113 C 1571.31 1.72945 0.90084 0
M  V30 16114 O 1570.58 1.07453 1.63801 0
M  V30 16115 H 1569.16 0.718568 -0.204129 0
M  V30 16116 H 1571.82 1.55535 -1.17451 0
M  V30 16117 H 1570.92 3.02644 -0.762424 0
M  V30 16118 N 1571.22 0.688118 1.41784 0
M  V30 16119 C 1572.47 0.213085 2.00571 0
M  V30 16120 C 1572.78 -1.19176 1.55101 0
M  V30 16121 O 1573.99 -1.76387 2.06397 0
M  V30 16122 C 1572.44 0.330075 3.58383 0
M  V30 16123 C 1572.05 1.73981 4.12837 0
M  V30 16124 C 1573.8 -0.0855651 4.24414 0
M  V30 16125 C 1571.7 1.80886 5.63058 0
M  V30 16126 H 1570.63 0.075906 0.750169 0
M  V30 16127 H 1573.28 0.855236 1.62351 0
M  V30 16128 H 1571.67 -0.380199 3.94171 0
M  V30 16129 H 1572.84 2.47825 3.88484 0
M  V30 16130 H 1571.16 2.10447 3.59306 0
M  V30 16131 H 1573.75 -0.0543142 5.34672 0
M  V30 16132 H 1574.1 -1.12307 4.00865 0
M  V30 16133 H 1574.63 0.574169 3.93635 0
M  V30 16134 H 1571.37 2.82663 5.91424 0
M  V30 16135 H 1570.89 1.11417 5.89361 0
M  V30 16136 H 1572.57 1.56835 6.27704 0
M  V30 16137 N 1572.7 -1.51554 0.432352 0
M  V30 16138 C 1574.11 -1.59377 0.0843863 0
M  V30 16139 C 1574.31 -1.44364 -1.40575 0
M  V30 16140 O 1573.37 -1.28234 -2.17514 0
M  V30 16141 C 1574.68 -2.94652 0.600046 0
M  V30 16142 C 1576.23 -3.07949 0.560049 0
M  V30 16143 C 1576.71 -4.4574 1.0526 0
M  V30 16144 N 1578.2 -4.52046 1.01038 0
M  V30 16145 C 1578.93 -5.56979 1.36242 0
M  V30 16146 N 1578.43 -6.69355 1.78707 0
M  V30 16147 N 1580.22 -5.47311 1.2809 0
M  V30 16148 H 1572.37 -1.59558 1.40197 0
M  V30 16149 H 1574.64 -0.751868 0.577406 0
M  V30 16150 H 1574.34 -3.10993 1.64245 0
M  V30 16151 H 1574.22 -3.77193 0.0222482 0
M  V30 16152 H 1576.6 -2.91279 -0.473357 0
M  V30 16153 H 1576.68 -2.27259 1.17419 0
M  V30 16154 H 1576.33 -4.63156 2.08445 0
M  V30 16155 H 1576.26 -5.24962 0.415047 0
M  V30 16156 H 1578.75 -3.71389 0.69847 0
M  V30 16157 H 1579.06 -7.45438 2.03819 0
M  V30 16158 H 1577.41 -6.70576 1.82629 0
M  V30 16159 H 1580.6 -4.58403 0.947848 0
M  V30 16160 H 1580.77 -6.28978 1.55855 0
M  V30 16161 N 1574.18 -0.163538 -1.56749 0
M  V30 16162 C 1575.12 0.786745 -2.18891 0
M  V30 16163 C 1576.12 1.24323 -1.15066 0
M  V30 16164 O 1577.32 1.20979 -1.33282 0
M  V30 16165 H 1573.7 0.271967 -0.701098 0
M  V30 16166 H 1575.67 0.2386 -2.97445 0
M  V30 16167 C 1574.42 2.00905 -2.83782 0
M  V30 16168 H 1573.74 1.66681 -3.63397 0
M  V30 16169 H 1575.18 2.65302 -3.30743 0
M  V30 16170 C 1573.64 2.8277 -1.83148 0
M  V30 16171 O 1574.17 3.79666 -1.31213 0
M  V30 16172 N 1572.38 2.47629 -1.52079 0
M  V30 16173 H 1571.92 1.68896 -1.94504 0
M  V30 16174 H 1571.88 3.02693 -0.849963 0
M  V30 16175 N 1575.65 1.57214 0.110213 0
M  V30 16176 C 1576.88 1.89505 0.830391 0
M  V30 16177 C 1577.3 0.755702 1.73016 0
M  V30 16178 O 1576.65 -0.273072 1.80445 0
M  V30 16179 C 1576.71 3.21316 1.65646 0
M  V30 16180 O 1576.43 4.30865 0.7929 0
M  V30 16181 C 1577.93 3.67369 2.48102 0
M  V30 16182 H 1575.15 0.627277 0.238252 0
M  V30 16183 H 1577.69 2.04293 0.0919716 0
M  V30 16184 H 1575.85 3.08171 2.34754 0
M  V30 16185 H 1576.26 5.06466 1.36353 0
M  V30 16186 H 1577.73 4.62335 3.0158 0
M  V30 16187 H 1578.21 2.94459 3.25869 0
M  V30 16188 H 1578.82 3.83331 1.8422 0
M  V30 16189 N 1577.13 -0.380637 1.52934 0
M  V30 16190 C 1578.36 -1.14417 1.72024 0
M  V30 16191 C 1578.77 -1.83962 0.442128 0
M  V30 16192 O 1578.11 -1.73839 -0.593766 0
M  V30 16193 C 1578.18 -2.22944 2.82022 0
M  V30 16194 C 1577.84 -1.73295 4.22869 0
M  V30 16195 C 1578.84 -1.20515 5.05739 0
M  V30 16196 C 1576.52 -1.79264 4.69222 0
M  V30 16197 C 1578.52 -0.743632 6.33047 0
M  V30 16198 C 1576.2 -1.32724 5.96513 0
M  V30 16199 C 1577.2 -0.803615 6.78256 0
M  V30 16200 O 1576.89 -0.34503 8.03159 0
M  V30 16201 H 1576.62 -0.348676 0.579138 0
M  V30 16202 H 1579.17 -0.450113 2.00407 0
M  V30 16203 H 1577.4 -2.95798 2.49079 0
M  V30 16204 H 1579.09 -2.84575 2.89434 0
M  V30 16205 H 1579.86 -1.15254 4.71107 0
M  V30 16206 H 1575.74 -2.18962 4.0568 0
M  V30 16207 H 1579.28 -0.334251 6.96799 0
M  V30 16208 H 1575.18 -1.37673 6.30648 0
M  V30 16209 H 1575.95 -0.465743 8.17174 0
M  V30 16210 N 1578.61 -1.44039 -0.639573 0
M  V30 16211 C 1579.86 -1.46377 -1.39928 0
M  V30 16212 C 1580.19 -0.0931685 -1.94277 0
M  V30 16213 O 1579.44 0.903841 -1.73578 0
M  V30 16214 C 1579.74 -2.46459 -2.5883 0
M  V30 16215 C 1579.41 -3.91998 -2.2282 0
M  V30 16216 C 1578.07 -4.31633 -2.12712 0
M  V30 16217 C 1580.42 -4.83656 -1.94232 0
M  V30 16218 C 1577.75 -5.60863 -1.72191 0
M  V30 16219 C 1580.1 -6.13265 -1.55206 0
M  V30 16220 C 1578.76 -6.51863 -1.43633 0
M  V30 16221 H 1578.03 -0.535633 -0.512034 0
M  V30 16222 H 1580.68 -1.77202 -0.72607 0
M  V30 16223 H 1578.99 -2.09087 -3.31345 0
M  V30 16224 H 1580.68 -2.45518 -3.17052 0
M  V30 16225 H 1577.27 -3.60636 -2.31602 0
M  V30 16226 H 1581.46 -4.53796 -2.00955 0
M  V30 16227 H 1576.71 -5.89595 -1.61828 0
M  V30 16228 H 1580.89 -6.83752 -1.32121 0
M  V30 16229 H 1578.51 -7.51903 -1.12006 0
M  V30 16230 N 1580.09 0.879207 -1.30796 0
M  V30 16231 C 1581 2.01822 -1.19604 0
M  V30 16232 C 1582.01 1.73621 -0.114715 0
M  V30 16233 O 1583.19 1.98665 -0.330757 0
M  V30 16234 C 1580.26 3.3496 -0.894569 0
M  V30 16235 C 1579.32 3.76545 -2.06185 0
M  V30 16236 C 1578.55 5.0333 -1.77467 0
M  V30 16237 O 1578.77 5.66022 -0.70535 0
M  V30 16238 O 1577.71 5.41461 -2.62876 0
M  V30 16239 H 1581.53 2.14194 -2.15301 0
M  V30 16240 H 1579.12 1.00608 -1.10446 0
M  V30 16241 H 1581 4.14818 -0.741891 0
M  V30 16242 H 1579.67 3.23684 0.0324464 0
M  V30 16243 H 1578.58 2.97367 -2.26988 0
M  V30 16244 H 1579.91 3.92434 -2.97079 0
M  V30 16245 N 1581.57 1.13606 1.09231 0
M  V30 16246 C 1582.81 0.899054 1.81448 0
M  V30 16247 C 1583.14 -0.574726 1.85815 0
M  V30 16248 O 1582.4 -1.44144 1.32366 0
M  V30 16249 C 1582.7 1.43456 3.27345 0
M  V30 16250 C 1582.36 2.92553 3.43109 0
M  V30 16251 C 1581.02 3.3326 3.47118 0
M  V30 16252 C 1583.38 3.88467 3.47481 0
M  V30 16253 C 1580.7 4.68562 3.53081 0
M  V30 16254 C 1583.06 5.23616 3.54978 0
M  V30 16255 C 1581.72 5.63847 3.57257 0
M  V30 16256 H 1580.99 0.328987 0.663964 0
M  V30 16257 H 1583.64 1.41834 1.28668 0
M  V30 16258 H 1581.94 0.83602 3.82777 0
M  V30 16259 H 1583.64 1.22723 3.81759 0
M  V30 16260 H 1580.23 2.60076 3.40674 0
M  V30 16261 H 1584.41 3.58103 3.43622 0
M  V30 16262 H 1579.67 4.99106 3.53134 0
M  V30 16263 H 1583.84 5.9775 3.57306 0
M  V30 16264 H 1581.47 6.68676 3.6163 0
M  V30 16265 N 1583.05 -1.27244 0.929878 0
M  V30 16266 C 1583.96 -2.30506 0.436355 0
M  V30 16267 C 1584.97 -1.67131 -0.484054 0
M  V30 16268 O 1586.15 -1.9804 -0.366332 0
M  V30 16269 C 1583.21 -3.45391 -0.300942 0
M  V30 16270 C 1582.27 -4.24279 0.654647 0
M  V30 16271 C 1581.51 -5.33679 -0.047558 0
M  V30 16272 O 1581.73 -5.56161 -1.26654 0
M  V30 16273 O 1580.66 -5.98642 0.62538 0
M  V30 16274 H 1584.49 -2.74762 1.29382 0
M  V30 16275 H 1582.07 -1.32234 0.695311 0
M  V30 16276 H 1583.96 -4.1526 -0.716718 0
M  V30 16277 H 1582.63 -3.03187 -1.13398 0
M  V30 16278 H 1581.54 -3.56936 1.12015 0
M  V30 16279 H 1582.87 -4.70204 1.45497 0
M  V30 16280 N 1584.52 -0.695628 -1.41417 0
M  V30 16281 C 1585.75 -0.235654 -2.05554 0
M  V30 16282 C 1586.17 1.11513 -1.52349 0
M  V30 16283 O 1585.52 1.69688 -0.671743 0
M  V30 16284 C 1585.57 -0.184809 -3.61027 0
M  V30 16285 O 1585.3 -1.48224 -4.12264 0
M  V30 16286 C 1586.8 0.296147 -4.4231 0
M  V30 16287 H 1584.02 -0.109648 -0.661981 0
M  V30 16288 H 1586.56 -0.948227 -1.81187 0
M  V30 16289 H 1584.72 0.478588 -3.84432 0
M  V30 16290 H 1585.13 -1.36939 -5.06308 0
M  V30 16291 H 1586.6 0.280597 -5.51286 0
M  V30 16292 H 1587.08 1.33503 -4.18418 0
M  V30 16293 H 1587.69 -0.336253 -4.23969 0
M  V30 16294 N 1586 1.51322 -0.440383 0
M  V30 16295 C 1586.96 2.26388 0.357911 0
M  V30 16296 C 1587.96 1.2995 0.947083 0
M  V30 16297 O 1589.15 1.53637 0.821057 0
M  V30 16298 C 1586.29 3.05797 1.50669 0
M  V30 16299 H 1587.48 2.98396 -0.300002 0
M  V30 16300 H 1585.03 1.55096 -0.193628 0
M  V30 16301 H 1585.77 2.38213 2.20057 0
M  V30 16302 H 1585.55 3.76634 1.09037 0
M  V30 16303 H 1587.04 3.6265 2.07062 0
M  V30 16304 N 1587.48 0.171848 1.5666 0
M  V30 16305 C 1588.41 -0.753861 2.20996 0
M  V30 16306 C 1589.39 -1.23873 1.16574 0
M  V30 16307 O 1590.58 -1.29179 1.45005 0
M  V30 16308 C 1587.71 -1.98314 2.85112 0
M  V30 16309 C 1586.66 -1.6341 3.95577 0
M  V30 16310 C 1585.99 -2.93807 4.46745 0
M  V30 16311 C 1587.29 -0.861713 5.15142 0
M  V30 16312 H 1588.98 -0.217598 2.98608 0
M  V30 16313 H 1586.53 -0.10322 1.4363 0
M  V30 16314 H 1588.48 -2.63576 3.28794 0
M  V30 16315 H 1587.2 -2.54354 2.04869 0
M  V30 16316 H 1585.86 -1.00516 3.52551 0
M  V30 16317 H 1585.51 -3.47889 3.63293 0
M  V30 16318 H 1585.21 -2.71207 5.21268 0
M  V30 16319 H 1586.73 -3.60098 4.93114 0
M  V30 16320 H 1588.15 -1.41693 5.55514 0
M  V30 16321 H 1586.54 -0.734727 5.95585 0
M  V30 16322 H 1587.61 0.141851 4.84692 0
M  V30 16323 N 1588.96 -1.5727 -0.101874 0
M  V30 16324 C 1589.92 -2.00625 -1.10826 0
M  V30 16325 C 1590.92 -0.89878 -1.33336 0
M  V30 16326 O 1592.11 -1.16442 -1.29564 0
M  V30 16327 C 1589.24 -2.36113 -2.45893 0
M  V30 16328 H 1590.44 -2.90748 -0.735238 0
M  V30 16329 H 1587.99 -1.52406 -0.346713 0
M  V30 16330 H 1588.72 -1.48923 -2.88084 0
M  V30 16331 H 1588.51 -3.169 -2.30904 0
M  V30 16332 H 1590 -2.70336 -3.1829 0
M  V30 16333 N 1590.44 0.372521 -1.53134 0
M  V30 16334 C 1591.68 1.12465 -1.70678 0
M  V30 16335 C 1592.04 1.8676 -0.445503 0
M  V30 16336 O 1593.24 2.64155 -0.497531 0
M  V30 16337 C 1591.51 2.06389 -2.91785 0
M  V30 16338 S 1593.07 2.89216 -3.3 0
M  V30 16339 H 1589.89 0.380458 -0.600644 0
M  V30 16340 H 1592.49 0.406831 -1.9122 0
M  V30 16341 H 1591.19 1.50559 -3.81786 0
M  V30 16342 H 1590.73 2.82654 -2.73624 0
M  V30 16343 H 1592.74 4.08642 -2.81471 0
M  V30 16344 N 1591.91 1.44376 0.631925 0
M  V30 16345 C 1593.16 1.47335 1.39356 0
M  V30 16346 C 1593.49 0.10525 1.93915 0
M  V30 16347 O 1592.77 -0.877006 1.73605 0
M  V30 16348 C 1593.05 2.53308 2.55943 0
M  V30 16349 C 1592.9 3.99473 2.06739 0
M  V30 16350 C 1594.22 2.55794 3.58131 0
M  V30 16351 H 1591.34 0.536447 0.505365 0
M  V30 16352 H 1593.98 1.76051 0.714572 0
M  V30 16353 H 1592.13 2.28953 3.13868 0
M  V30 16354 H 1593.81 4.34958 1.53652 0
M  V30 16355 H 1592.05 4.11288 1.37929 0
M  V30 16356 H 1592.72 4.69269 2.90672 0
M  V30 16357 H 1595.2 2.77554 3.10005 0
M  V30 16358 H 1594.07 3.31847 4.37228 0
M  V30 16359 H 1594.33 1.59962 4.12146 0
M  V30 16360 N 1593.39 -0.872258 1.31261 0
M  V30 16361 C 1594.8 -1.44077 1.18738 0
M  V30 16362 C 1595.15 -1.95105 -0.207037 0
M  V30 16363 O 1594.28 -1.86083 -1.10464 0
M  V30 16364 C 1594.87 -2.61884 2.14947 0
M  V30 16365 C 1593.43 -3.14787 2.06364 0
M  V30 16366 C 1592.58 -1.87495 2.04306 0
M  V30 16367 H 1595.53 -0.681011 1.43345 0
M  V30 16368 H 1595.55 -3.38501 1.73773 0
M  V30 16369 H 1595.06 -2.24715 3.16425 0
M  V30 16370 H 1593.16 -3.56582 1.08073 0
M  V30 16371 H 1593.28 -3.77225 2.95361 0
M  V30 16372 H 1591.64 -2.06361 1.49288 0
M  V30 16373 H 1592.42 -1.52566 3.07536 0
M  V30 16374 N 1594.87 -1.14184 -1.08627 0
M  V30 16375 C 1596.09 -0.932504 -1.85254 0
M  V30 16376 C 1596.52 0.513792 -1.80947 0
M  V30 16377 O 1595.88 1.36525 -1.19292 0
M  V30 16378 C 1595.93 -1.43519 -3.30809 0
M  V30 16379 O 1595.03 -0.625806 -4.07624 0
M  V30 16380 H 1594.37 -0.333573 -0.57413 0
M  V30 16381 H 1596.9 -1.51853 -1.3712 0
M  V30 16382 H 1596.91 -1.44238 -3.81654 0
M  V30 16383 H 1595.59 -2.48819 -3.3326 0
M  V30 16384 H 1594.16 -0.687168 -3.66514 0
M  V30 16385 N 1596.35 1.26749 -0.936613 0
M  V30 16386 C 1597.76 1.75925 -0.62507 0
M  V30 16387 C 1598.11 1.76359 0.859771 0
M  V30 16388 O 1597.24 1.37277 1.67284 0
M  V30 16389 C 1597.83 3.19474 -1.12791 0
M  V30 16390 C 1596.39 3.66282 -0.866872 0
M  V30 16391 C 1595.54 2.45913 -1.28148 0
M  V30 16392 H 1598.49 1.1289 -1.11542 0
M  V30 16393 H 1598.51 3.77465 -0.479643 0
M  V30 16394 H 1598.02 3.19126 -2.20862 0
M  V30 16395 H 1596.12 3.72065 0.199647 0
M  V30 16396 H 1596.23 4.55319 -1.49067 0
M  V30 16397 H 1594.6 2.44894 -0.699941 0
M  V30 16398 H 1595.38 2.4827 -2.37101 0
M  V30 16399 N 1597.83 0.703118 1.41046 0
M  V30 16400 C 1599.07 0.237638 2.01403 0
M  V30 16401 C 1599.41 -1.16217 1.55587 0
M  V30 16402 O 1598.68 -1.78593 0.770377 0
M  V30 16403 C 1598.96 0.303738 3.58817 0
M  V30 16404 C 1598.82 1.74103 4.14739 0
M  V30 16405 C 1600.14 -0.332186 4.38845 0
M  V30 16406 H 1597.25 0.0878243 0.731749 0
M  V30 16407 H 1599.9 0.893264 1.67693 0
M  V30 16408 H 1598.05 -0.254485 3.87666 0
M  V30 16409 H 1599.72 2.35368 3.96736 0
M  V30 16410 H 1597.96 2.27277 3.69496 0
M  V30 16411 H 1598.63 1.73876 5.239 0
M  V30 16412 H 1601.11 0.143312 4.15853 0
M  V30 16413 H 1599.98 -0.255429 5.48305 0
M  V30 16414 H 1600.25 -1.41397 4.18878 0
M  V30 16415 N 1599.3 -1.51086 0.448402 0
M  V30 16416 C 1600.58 -1.94817 -0.174819 0
M  V30 16417 C 1600.96 -1.38767 -1.59081 0
M  V30 16418 O 1600.31 -0.579257 -2.21036 0
M  V30 16419 C 1600.52 -3.48714 -0.14129 0
M  V30 16420 C 1601.87 -4.23225 -0.341414 0
M  V30 16421 O 1602.89 -3.55527 -0.218908 0
M  V30 16422 O 1601.75 -5.43346 -0.586331 0
M  V30 16423 H 1598.84 -0.817652 -0.12399 0
M  V30 16424 H 1601.39 -1.61944 0.507177 0
M  V30 16425 H 1600.16 -3.81996 0.848222 0
M  V30 16426 H 1599.79 -3.88061 -0.865722 0
M  V30 16427 N 1600.78 -0.180154 -1.56567 0
M  V30 16428 C 1602.02 0.464869 -1.99044 0
M  V30 16429 C 1602.39 1.59822 -1.06399 0
M  V30 16430 O 1603.59 2.30641 -1.38052 0
M  V30 16431 C 1601.86 0.927227 -3.45163 0
M  V30 16432 S 1603.42 1.57219 -4.09668 0
M  V30 16433 H 1600.24 0.149215 -0.695166 0
M  V30 16434 H 1602.84 -0.279699 -1.93489 0
M  V30 16435 H 1601.54 0.0920814 -4.10297 0
M  V30 16436 H 1601.07 1.70562 -3.54503 0
M  V30 16437 H 1603.09 2.86059 -4.05444 0
M  V30 16438 N 1602.26 1.57322 0.0935319 0
M  V30 16439 C 1603.19 1.98861 1.13961 0
M  V30 16440 C 1604.21 0.891385 1.36228 0
M  V30 16441 O 1605.39 1.16949 1.34853 0
M  V30 16442 C 1602.49 2.29369 2.49485 0
M  V30 16443 C 1601.67 3.6066 2.47473 0
M  V30 16444 C 1600.73 3.79087 3.64937 0
M  V30 16445 O 1599.75 4.50923 3.47357 0
M  V30 16446 N 1600.95 3.19784 4.84478 0
M  V30 16447 H 1603.72 2.89208 0.786048 0
M  V30 16448 H 1601.28 1.59416 0.282491 0
M  V30 16449 H 1603.27 2.38889 3.26671 0
M  V30 16450 H 1601.84 1.45021 2.76925 0
M  V30 16451 H 1601.06 3.62095 1.55823 0
M  V30 16452 H 1602.35 4.46908 2.43209 0
M  V30 16453 H 1601.75 2.61436 5.01665 0
M  V30 16454 H 1600.31 3.34786 5.59251 0
M  V30 16455 N 1603.74 -0.364395 1.53329 0
M  V30 16456 C 1604.98 -1.10855 1.6982 0
M  V30 16457 C 1605.32 -1.88931 0.449291 0
M  V30 16458 O 1604.59 -1.8646 -0.553437 0
M  V30 16459 C 1604.88 -2.06681 2.94881 0
M  V30 16460 C 1604.73 -1.32206 4.29932 0
M  V30 16461 C 1606.05 -3.06788 3.15546 0
M  V30 16462 H 1603.17 -0.401626 0.617953 0
M  V30 16463 H 1605.81 -0.389244 1.8597 0
M  V30 16464 H 1603.96 -2.68019 2.81244 0
M  V30 16465 H 1605.63 -0.73642 4.55384 0
M  V30 16466 H 1603.87 -0.623916 4.2929 0
M  V30 16467 H 1604.54 -2.0235 5.13574 0
M  V30 16468 H 1607.02 -2.55554 3.28377 0
M  V30 16469 H 1605.9 -3.71059 4.04483 0
M  V30 16470 H 1606.16 -3.77023 2.3088 0
M  V30 16471 N 1605.22 -1.44709 -0.62426 0
M  V30 16472 C 1606.44 -1.51348 -1.41072 0
M  V30 16473 C 1606.86 -0.140576 -1.88276 0
M  V30 16474 O 1606.22 0.854821 -1.61242 0
M  V30 16475 C 1606.27 -2.48396 -2.62643 0
M  V30 16476 O 1605.99 -3.8035 -2.17406 0
M  V30 16477 C 1607.49 -2.64568 -3.55694 0
M  V30 16478 H 1604.71 -0.513092 -0.432409 0
M  V30 16479 H 1607.25 -1.89739 -0.762841 0
M  V30 16480 H 1605.41 -2.13122 -3.23508 0
M  V30 16481 H 1605.82 -4.32809 -2.96272 0
M  V30 16482 H 1607.3 -3.36486 -4.37585 0
M  V30 16483 H 1607.77 -1.70031 -4.04952 0
M  V30 16484 H 1608.38 -3.00771 -3.00694 0
M  V30 16485 N 1606.69 0.865285 -1.31722 0
M  V30 16486 C 1607.97 1.60146 -1.12306 0
M  V30 16487 C 1608.35 2.08653 0.320508 0
M  V30 16488 O 1607.7 1.86841 1.31539 0
M  V30 16489 C 1607.91 2.75583 -2.14138 0
M  V30 16490 C 1609.26 3.45429 -2.46909 0
M  V30 16491 O 1610.28 2.85795 -2.12602 0
M  V30 16492 O 1609.14 4.53017 -3.05676 0
M  V30 16493 H 1606.23 0.704786 -0.432673 0
M  V30 16494 H 1608.78 0.910339 -1.43216 0
M  V30 16495 H 1607.55 2.37187 -3.1122 0
M  V30 16496 H 1607.18 3.52378 -1.84161 0
M  V30 16497 N 1608.17 1.14759 1.0802 0
M  V30 16498 C 1609.1 0.860977 2.17047 0
M  V30 16499 C 1610.08 -0.185652 1.69084 0
M  V30 16500 O 1611.27 -0.0414797 1.94156 0
M  V30 16501 C 1608.4 0.342018 3.45612 0
M  V30 16502 C 1607.35 1.32455 4.06989 0
M  V30 16503 C 1606.68 0.664721 5.30552 0
M  V30 16504 C 1607.98 2.68819 4.4781 0
M  V30 16505 H 1609.67 1.77269 2.4128 0
M  V30 16506 H 1607.22 0.853757 1.15961 0
M  V30 16507 H 1609.17 0.129093 4.21202 0
M  V30 16508 H 1607.9 -0.605138 3.20945 0
M  V30 16509 H 1606.55 1.52371 3.33435 0
M  V30 16510 H 1606.2 -0.288367 5.02173 0
M  V30 16511 H 1605.9 1.32036 5.72573 0
M  V30 16512 H 1607.43 0.461412 6.08854 0
M  V30 16513 H 1608.84 2.52787 5.14559 0
M  V30 16514 H 1607.24 3.30694 5.00761 0
M  V30 16515 H 1608.31 3.25398 3.59506 0
M  V30 16516 N 1609.65 -1.26251 0.943322 0
M  V30 16517 C 1610.61 -2.24554 0.459158 0
M  V30 16518 C 1611.61 -1.54918 -0.430926 0
M  V30 16519 O 1612.8 -1.72678 -0.229803 0
M  V30 16520 C 1609.94 -3.39221 -0.337973 0
M  V30 16521 H 1611.13 -2.689 1.32789 0
M  V30 16522 H 1608.68 -1.38442 0.725495 0
M  V30 16523 H 1609.42 -3.00279 -1.22486 0
M  V30 16524 H 1609.2 -3.90947 0.300428 0
M  V30 16525 H 1610.69 -4.12246 -0.666568 0
M  V30 16526 N 1611.13 -0.710588 -1.40671 0
M  V30 16527 C 1612.38 -0.247459 -2.00579 0
M  V30 16528 C 1612.7 1.16179 -1.56612 0
M  V30 16529 O 1611.97 1.7867 -0.803358 0
M  V30 16530 H 1610.55 -0.0884992 -0.741739 0
M  V30 16531 H 1613.21 -0.915103 -1.72081 0
M  V30 16532 H 1612.31 -0.276631 -3.10872 0
M  V30 16533 N 1612.61 1.50847 -0.456408 0
M  V30 16534 C 1613.56 2.29805 0.359529 0
M  V30 16535 C 1614.55 1.3646 1.00374 0
M  V30 16536 O 1615.76 1.53718 0.936524 0
M  V30 16537 H 1612.13 0.739825 0.134772 0
M  V30 16538 H 1614.1 2.96603 -0.327009 0
M  V30 16539 C 1612.85 3.16597 1.43741 0
M  V30 16540 H 1612.17 3.88323 0.95108 0
M  V30 16541 H 1613.61 3.74866 1.98119 0
M  V30 16542 C 1612.07 2.3322 2.43126 0
M  V30 16543 O 1612.6 2.00504 3.48082 0
M  V30 16544 N 1610.81 1.96078 2.1448 0
M  V30 16545 H 1610.36 2.22883 1.29155 0
M  V30 16546 H 1610.31 1.40592 2.81214 0
M  V30 16547 N 1614.09 0.188454 1.56469 0
M  V30 16548 C 1615 -0.747176 2.22384 0
M  V30 16549 C 1616.01 -1.23985 1.22081 0
M  V30 16550 O 1617.19 -1.2884 1.54797 0
M  V30 16551 C 1614.25 -1.95228 2.86508 0
M  V30 16552 C 1613.31 -1.50482 4.02062 0
M  V30 16553 C 1612.55 -2.65248 4.63119 0
M  V30 16554 O 1612.77 -3.8256 4.23088 0
M  V30 16555 O 1611.7 -2.38341 5.527 0
M  V30 16556 H 1615.53 -0.215857 3.02932 0
M  V30 16557 H 1613.11 -0.0405356 1.49345 0
M  V30 16558 H 1615 -2.65673 3.27103 0
M  V30 16559 H 1613.67 -2.47233 2.08944 0
M  V30 16560 H 1612.58 -0.769365 3.66103 0
M  V30 16561 H 1613.91 -1.03151 4.8127 0
M  V30 16562 N 1615.56 -1.5737 -0.0851874 0
M  V30 16563 C 1616.79 -1.90525 -0.798977 0
M  V30 16564 C 1617.2 -0.781347 -1.72313 0
M  V30 16565 O 1616.54 0.255036 -1.81921 0
M  V30 16566 C 1616.61 -3.19027 -1.65716 0
M  V30 16567 C 1616.27 -4.47974 -0.903795 0
M  V30 16568 C 1617.27 -5.19395 -0.229094 0
M  V30 16569 C 1614.95 -4.94621 -0.874937 0
M  V30 16570 C 1616.95 -6.35706 0.464385 0
M  V30 16571 C 1614.63 -6.10842 -0.177678 0
M  V30 16572 C 1615.63 -6.81234 0.490795 0
M  V30 16573 O 1615.32 -7.95239 1.17685 0
M  V30 16574 H 1615.05 -0.634533 -0.233119 0
M  V30 16575 H 1617.61 -2.05301 -0.0638265 0
M  V30 16576 H 1615.84 -3.00425 -2.43479 0
M  V30 16577 H 1617.52 -3.37937 -2.24841 0
M  V30 16578 H 1618.29 -4.84392 -0.242783 0
M  V30 16579 H 1614.17 -4.39712 -1.3847 0
M  V30 16580 H 1617.71 -6.90586 0.986719 0
M  V30 16581 H 1613.61 -6.45297 -0.16187 0
M  V30 16582 H 1614.38 -8.1128 1.08476 0
M  V30 16583 N 1617.04 0.356258 -1.53521 0
M  V30 16584 C 1618.32 1.11414 -1.60768 0
M  V30 16585 C 1618.7 2.0686 -0.420991 0
M  V30 16586 O 1618.05 2.20807 0.587929 0
M  V30 16587 C 1618.26 1.84503 -2.96243 0
M  V30 16588 C 1619.6 2.38703 -3.5115 0
M  V30 16589 O 1620.63 1.94617 -2.98333 0
M  V30 16590 O 1619.49 3.19322 -4.43504 0
M  V30 16591 H 1616.58 0.511623 -0.649747 0
M  V30 16592 H 1619.13 0.358772 -1.65864 0
M  V30 16593 H 1617.9 1.14898 -3.74051 0
M  V30 16594 H 1617.52 2.66927 -2.94679 0
M  V30 16595 N 1618.52 1.45038 0.616577 0
M  V30 16596 C 1619.45 1.55858 1.73869 0
M  V30 16597 C 1620.43 0.410657 1.65069 0
M  V30 16598 O 1621.62 0.632652 1.83606 0
M  V30 16599 C 1618.75 1.51635 3.12448 0
M  V30 16600 C 1617.7 2.65053 3.36052 0
M  V30 16601 C 1617.03 2.45883 4.74811 0
M  V30 16602 C 1618.33 4.07121 3.27185 0
M  V30 16603 H 1620.02 2.49784 1.6507 0
M  V30 16604 H 1617.57 1.20216 0.792724 0
M  V30 16605 H 1619.52 1.57803 3.90738 0
M  V30 16606 H 1618.24 0.542342 3.22066 0
M  V30 16607 H 1616.9 2.58299 2.60149 0
M  V30 16608 H 1616.55 1.46641 4.8115 0
M  V30 16609 H 1616.25 3.21935 4.9156 0
M  V30 16610 H 1617.77 2.53892 5.55312 0
M  V30 16611 H 1619.19 4.15167 3.9536 0
M  V30 16612 H 1617.58 4.83491 3.55466 0
M  V30 16613 H 1618.65 4.29663 2.24762 0
M  V30 16614 N 1620 -0.858287 1.32179 0
M  V30 16615 C 1621.23 -1.64473 1.25523 0
M  V30 16616 C 1621.64 -1.87964 -0.177425 0
M  V30 16617 O 1621 -1.44607 -1.11333 0
M  V30 16618 C 1621.05 -3.00609 2.0079 0
M  V30 16619 O 1620.77 -2.7816 3.38465 0
M  V30 16620 C 1622.27 -3.95054 2.01115 0
M  V30 16621 H 1619.49 -0.512393 0.433237 0
M  V30 16622 H 1622.03 -1.07048 1.74244 0
M  V30 16623 H 1620.19 -3.5469 1.55801 0
M  V30 16624 H 1620.6 -3.64712 3.76942 0
M  V30 16625 H 1622.08 -4.87854 2.58268 0
M  V30 16626 H 1622.55 -4.27746 0.996513 0
M  V30 16627 H 1623.16 -3.4691 2.46035 0
M  V30 16628 N 1621.48 -1.1533 -1.07409 0
M  V30 16629 C 1622.72 -0.925974 -1.79639 0
M  V30 16630 C 1623.04 0.548365 -1.87131 0
M  V30 16631 O 1622.31 1.39854 -1.37178 0
M  V30 16632 H 1620.89 -0.339599 -0.665343 0
M  V30 16633 H 1623.56 -1.45383 -1.29806 0
M  V30 16634 H 1622.65 -1.33484 -2.82114 0
M  V30 16635 N 1622.95 1.25748 -0.950004 0
M  V30 16636 C 1623.88 2.28419 -0.484467 0
M  V30 16637 C 1624.86 1.63569 0.466813 0
M  V30 16638 O 1626.05 1.90705 0.366766 0
M  V30 16639 C 1623.18 3.46449 0.242916 0
M  V30 16640 C 1622.13 4.23447 -0.622657 0
M  V30 16641 C 1621.46 5.34182 0.235199 0
M  V30 16642 C 1622.76 4.86576 -1.89845 0
M  V30 16643 H 1624.45 2.6761 -1.34257 0
M  V30 16644 H 1622 1.28646 -0.647014 0
M  V30 16645 H 1623.95 4.17394 0.579693 0
M  V30 16646 H 1622.68 3.06235 1.13523 0
M  V30 16647 H 1621.34 3.54279 -0.942453 0
M  V30 16648 H 1620.98 4.90209 1.12713 0
M  V30 16649 H 1620.68 5.86612 -0.340609 0
M  V30 16650 H 1622.21 6.07961 0.567048 0
M  V30 16651 H 1623.62 5.49688 -1.62837 0
M  V30 16652 H 1622.02 5.49162 -2.41954 0
M  V30 16653 H 1623.09 4.09021 -2.60441 0
M  V30 16654 N 1624.43 0.718038 1.40292 0
M  V30 16655 C 1625.66 0.266918 2.05675 0
M  V30 16656 C 1626.08 -1.08364 1.53749 0
M  V30 16657 O 1625.44 -1.6831 0.673912 0
M  V30 16658 C 1625.49 0.259606 3.59664 0
M  V30 16659 O 1624.59 -0.758372 4.05367 0
M  V30 16660 H 1623.93 0.124786 0.652169 0
M  V30 16661 H 1626.46 0.979207 1.79646 0
M  V30 16662 H 1626.47 0.098135 4.07882 0
M  V30 16663 H 1625.15 1.24517 3.96823 0
M  V30 16664 H 1623.72 -0.564425 3.68604 0
M  V30 16665 N 1625.91 -1.50602 0.464402 0
M  V30 16666 C 1627.14 -2.06701 -0.0907765 0
M  V30 16667 C 1627.55 -1.32901 -1.341 0
M  V30 16668 O 1626.91 -0.396323 -1.78145 0
M  V30 16669 C 1626.96 -3.59437 -0.385667 0
M  V30 16670 O 1626.68 -4.30453 0.81496 0
M  V30 16671 C 1628.18 -4.32137 -0.988549 0
M  V30 16672 H 1625.4 -0.670987 0.00410069 0
M  V30 16673 H 1627.95 -1.93853 0.651264 0
M  V30 16674 H 1626.1 -3.7211 -1.07763 0
M  V30 16675 H 1626.52 -5.2155 0.55551 0
M  V30 16676 H 1627.99 -5.40001 -1.1447 0
M  V30 16677 H 1628.47 -3.92194 -1.97688 0
M  V30 16678 H 1629.07 -4.23977 -0.335166 0
M  V30 16679 N 1627.39 -0.19675 -1.56367 0
M  V30 16680 C 1628.63 0.442238 -1.97919 0
M  V30 16681 C 1628.97 1.61156 -1.08362 0
M  V30 16682 O 1628.24 1.94024 -0.135969 0
M  V30 16683 C 1628.53 0.90078 -3.48652 0
M  V30 16684 C 1628.38 -0.270471 -4.48986 0
M  V30 16685 C 1629.7 1.7657 -4.03126 0
M  V30 16686 H 1626.82 0.159276 -0.719583 0
M  V30 16687 H 1629.46 -0.288004 -1.87805 0
M  V30 16688 H 1627.61 1.52302 -3.57402 0
M  V30 16689 H 1629.28 -0.908176 -4.52272 0
M  V30 16690 H 1627.52 -0.921973 -4.23889 0
M  V30 16691 H 1628.19 0.0929101 -5.51922 0
M  V30 16692 H 1630.67 1.24091 -3.97166 0
M  V30 16693 H 1629.55 2.0555 -5.0896 0
M  V30 16694 H 1629.81 2.72047 -3.48486 0
M  V30 16695 N 1628.87 1.57413 0.0768405 0
M  V30 16696 C 1630.28 1.53656 0.431508 0
M  V30 16697 C 1630.48 0.916194 1.79466 0
M  V30 16698 O 1629.54 0.516529 2.4716 0
M  V30 16699 C 1630.85 2.98325 0.377212 0
M  V30 16700 C 1632.4 3.09635 0.457761 0
M  V30 16701 C 1632.87 4.55945 0.433425 0
M  V30 16702 N 1634.37 4.60562 0.493647 0
M  V30 16703 C 1635.1 5.71242 0.496949 0
M  V30 16704 N 1634.6 6.91302 0.455368 0
M  V30 16705 N 1636.39 5.5947 0.543129 0
M  V30 16706 H 1628.54 1.96108 -0.815811 0
M  V30 16707 H 1630.8 0.897392 -0.3056 0
M  V30 16708 H 1630.51 3.47251 -0.557628 0
M  V30 16709 H 1630.38 3.57959 1.18932 0
M  V30 16710 H 1632.77 2.60685 1.38302 0
M  V30 16711 H 1632.85 2.52919 -0.382829 0
M  V30 16712 H 1632.5 5.0555 -0.487968 0
M  V30 16713 H 1632.43 5.10518 1.29148 0
M  V30 16714 H 1634.92 3.74162 0.530237 0
M  V30 16715 H 1635.23 7.7142 0.461674 0
M  V30 16716 H 1633.57 6.93717 0.422133 0
M  V30 16717 H 1636.77 4.64576 0.573272 0
M  V30 16718 H 1636.94 6.45727 0.542234 0
M  V30 16719 N 1630.34 -0.348112 1.53707 0
M  V30 16720 C 1631.29 -1.42729 1.81375 0
M  V30 16721 C 1632.26 -1.52461 0.659159 0
M  V30 16722 O 1633.45 -1.68072 0.903129 0
M  V30 16723 C 1630.59 -2.79443 2.02498 0
M  V30 16724 C 1629.7 -2.7854 3.30211 0
M  V30 16725 C 1628.83 -4.06942 3.41426 0
M  V30 16726 C 1627.87 -4.00248 4.63106 0
M  V30 16727 N 1627.01 -5.20332 4.7138 0
M  V30 16728 H 1631.85 -1.18436 2.73454 0
M  V30 16729 H 1629.39 -0.573809 1.35447 0
M  V30 16730 H 1631.35 -3.58888 2.12733 0
M  V30 16731 H 1629.98 -3.02099 1.13737 0
M  V30 16732 H 1629.03 -1.91227 3.28841 0
M  V30 16733 H 1630.34 -2.69471 4.19746 0
M  V30 16734 H 1629.49 -4.94808 3.51069 0
M  V30 16735 H 1628.23 -4.18786 2.49939 0
M  V30 16736 H 1627.24 -3.10767 4.53546 0
M  V30 16737 H 1628.46 -3.89991 5.55953 0
M  V30 16738 H 1626.41 -5.32729 3.828 0
M  V30 16739 H 1626.33 -5.13502 5.54844 0
M  V30 16740 H 1627.59 -6.09982 4.85326 0
M  V30 16741 N 1631.82 -1.45363 -0.608876 0
M  V30 16742 C 1633.23 -1.43794 -1.19081 0
M  V30 16743 C 1633.58 -0.164874 -1.95506 0
M  V30 16744 O 1632.71 0.733623 -2.03585 0
M  V30 16745 C 1633.3 -2.60506 -2.16615 0
M  V30 16746 C 1631.86 -2.62061 -2.70187 0
M  V30 16747 C 1631.01 -2.36018 -1.4557 0
M  V30 16748 H 1633.96 -1.53622 -0.39826 0
M  V30 16749 H 1633.98 -2.34531 -2.99625 0
M  V30 16750 H 1633.49 -3.53147 -1.60963 0
M  V30 16751 H 1631.6 -1.73423 -3.2978 0
M  V30 16752 H 1631.71 -3.61242 -3.14708 0
M  V30 16753 H 1630.07 -1.8555 -1.74481 0
M  V30 16754 H 1630.86 -3.30802 -0.917884 0
M  V30 16755 N 1633.3 0.851265 -1.32632 0
M  V30 16756 C 1634.55 1.60785 -1.24578 0
M  V30 16757 C 1634.9 1.91462 0.189803 0
M  V30 16758 O 1634.19 1.54839 1.12851 0
M  V30 16759 C 1634.39 2.93312 -2.04212 0
M  V30 16760 C 1634.22 2.75579 -3.55368 0
M  V30 16761 C 1632.99 2.73784 -4.247 0
M  V30 16762 C 1635.19 2.49095 -4.49951 0
M  V30 16763 N 1633.17 2.47298 -5.61887 0
M  V30 16764 C 1634.54 2.32046 -5.74939 0
M  V30 16765 C 1636.59 2.34591 -4.39171 0
M  V30 16766 C 1635.3 2.01965 -6.90364 0
M  V30 16767 C 1637.32 2.05902 -5.54399 0
M  V30 16768 C 1636.68 1.89655 -6.78388 0
M  V30 16769 H 1632.78 0.591922 -0.511031 0
M  V30 16770 H 1635.37 1.00037 -1.67035 0
M  V30 16771 H 1633.54 3.52033 -1.64095 0
M  V30 16772 H 1635.27 3.58369 -1.88026 0
M  V30 16773 H 1632.03 2.86845 -3.76851 0
M  V30 16774 H 1632.45 2.36973 -6.34171 0
M  V30 16775 H 1637.09 2.45871 -3.43959 0
M  V30 16776 H 1634.81 1.89423 -7.85585 0
M  V30 16777 H 1638.4 1.95452 -5.47987 0
M  V30 16778 H 1637.28 1.67772 -7.66043 0
M  V30 16779 N 1634.78 1.15898 1.06796 0
M  V30 16780 C 1636.01 0.961372 1.83208 0
M  V30 16781 C 1636.42 -0.490392 1.8232 0
M  V30 16782 O 1635.78 -1.34025 1.2387 0
M  V30 16783 C 1635.83 1.47486 3.30045 0
M  V30 16784 O 1635.55 2.86976 3.31023 0
M  V30 16785 C 1637.05 1.31955 4.23205 0
M  V30 16786 H 1634.27 0.34109 0.57784 0
M  V30 16787 H 1636.82 1.53805 1.34775 0
M  V30 16788 H 1634.97 0.940586 3.75808 0
M  V30 16789 H 1635.38 3.1038 4.22805 0
M  V30 16790 H 1636.86 1.72721 5.24282 0
M  V30 16791 H 1637.34 0.264439 4.38403 0
M  V30 16792 H 1637.94 1.84319 3.83284 0
M  V30 16793 N 1636.26 -1.25243 0.956659 0
M  V30 16794 C 1637.22 -2.24054 0.482949 0
M  V30 16795 C 1638.22 -1.55367 -0.41447 0
M  V30 16796 O 1639.41 -1.72912 -0.211475 0
M  V30 16797 C 1636.54 -3.3956 -0.301975 0
M  V30 16798 H 1637.73 -2.67476 1.35634 0
M  V30 16799 H 1635.29 -1.37665 0.740138 0
M  V30 16800 H 1636.02 -3.01561 -1.19294 0
M  V30 16801 H 1635.81 -3.90607 0.341876 0
M  V30 16802 H 1637.3 -4.1293 -0.622807 0
M  V30 16803 N 1637.73 -0.725468 -1.3991 0
M  V30 16804 C 1638.98 -0.26965 -2.00999 0
M  V30 16805 C 1639.31 1.13727 -1.57416 0
M  V30 16806 O 1638.59 1.77345 -0.798693 0
M  V30 16807 C 1638.87 -0.360784 -3.58288 0
M  V30 16808 C 1638.72 -1.80679 -4.11916 0
M  V30 16809 C 1640.04 0.262328 -4.39317 0
M  V30 16810 H 1637.16 -0.0994547 -0.730259 0
M  V30 16811 H 1639.8 -0.91983 -1.6625 0
M  V30 16812 H 1637.95 0.192779 -3.88021 0
M  V30 16813 H 1639.63 -2.4165 -3.92942 0
M  V30 16814 H 1637.87 -2.33127 -3.65834 0
M  V30 16815 H 1638.54 -1.82189 -5.21068 0
M  V30 16816 H 1641.02 -0.209452 -4.15573 0
M  V30 16817 H 1639.89 0.168166 -5.48642 0
M  V30 16818 H 1640.15 1.34716 -4.21075 0
M  V30 16819 N 1639.21 1.50354 -0.472382 0
M  V30 16820 C 1640.49 1.95071 0.143803 0
M  V30 16821 C 1640.87 1.41281 1.56853 0
M  V30 16822 O 1640.22 0.614349 2.20086 0
M  V30 16823 C 1640.43 3.48895 0.0857944 0
M  V30 16824 C 1641.78 4.23715 0.274039 0
M  V30 16825 O 1642.8 3.5583 0.162319 0
M  V30 16826 O 1641.66 5.4421 0.499815 0
M  V30 16827 H 1638.75 0.819521 0.110966 0
M  V30 16828 H 1641.3 1.61116 -0.532876 0
M  V30 16829 H 1640.07 3.80598 -0.908887 0
M  V30 16830 H 1639.69 3.89389 0.803875 0
M  V30 16831 N 1640.69 0.205039 1.56261 0
M  V30 16832 C 1641.92 -0.43642 2.02245 0
M  V30 16833 C 1642.33 -1.54504 1.08508 0
M  V30 16834 O 1641.69 -1.82269 0.0916991 0
M  V30 16835 C 1641.74 -0.983483 3.47865 0
M  V30 16836 O 1641.46 0.0809166 4.38025 0
M  V30 16837 C 1642.96 -1.69983 4.09415 0
M  V30 16838 H 1640.18 -0.108577 0.662157 0
M  V30 16839 H 1642.73 0.316659 2.02033 0
M  V30 16840 H 1640.88 -1.6869 3.48744 0
M  V30 16841 H 1641.3 -0.327751 5.23475 0
M  V30 16842 H 1642.77 -2.03481 5.13127 0
M  V30 16843 H 1643.25 -2.60711 3.5345 0
M  V30 16844 H 1643.85 -1.04202 4.12337 0
M  V30 16845 N 1642.17 -1.57451 -0.0684915 0
M  V30 16846 C 1643.39 -1.92025 -0.78366 0
M  V30 16847 C 1643.82 -0.801743 -1.70158 0
M  V30 16848 O 1643.18 0.245227 -1.79634 0
M  V30 16849 C 1643.23 -3.25563 -1.55051 0
M  V30 16850 O 1642.33 -3.15029 -2.6614 0
M  V30 16851 H 1641.67 -0.628714 -0.213576 0
M  V30 16852 H 1644.2 -2.04569 -0.0357474 0
M  V30 16853 H 1644.21 -3.59516 -1.92905 0
M  V30 16854 H 1642.89 -4.06547 -0.87704 0
M  V30 16855 H 1641.46 -2.9264 -2.31119 0
M  V30 16856 N 1643.65 0.339955 -1.5389 0
M  V30 16857 C 1644.89 1.08139 -1.71563 0
M  V30 16858 C 1645.23 1.88193 -0.479292 0
M  V30 16859 O 1644.5 1.87317 0.523702 0
M  V30 16860 C 1644.78 2.01963 -2.98132 0
M  V30 16861 C 1644.64 1.25349 -4.31981 0
M  V30 16862 C 1645.96 3.01729 -3.20387 0
M  V30 16863 H 1643.08 0.391744 -0.624264 0
M  V30 16864 H 1645.72 0.359609 -1.86566 0
M  V30 16865 H 1643.87 2.63511 -2.85472 0
M  V30 16866 H 1645.54 0.66388 -4.56498 0
M  V30 16867 H 1643.78 0.555541 -4.30228 0
M  V30 16868 H 1644.45 1.94154 -5.16728 0
M  V30 16869 H 1646.93 2.50297 -3.32401 0
M  V30 16870 H 1645.81 3.64577 -4.10335 0
M  V30 16871 H 1646.07 3.73303 -2.36849 0
M  V30 16872 N 1645.13 1.45684 0.601159 0
M  V30 16873 C 1646.4 1.4051 1.36074 0
M  V30 16874 C 1646.78 0.0790095 2.10952 0
M  V30 16875 O 1646.13 -0.939162 2.08307 0
M  V30 16876 C 1646.34 2.62297 2.3022 0
M  V30 16877 C 1647.69 3.0766 2.92627 0
M  V30 16878 O 1648.71 2.62716 2.40539 0
M  V30 16879 O 1647.57 3.85675 3.87191 0
M  V30 16880 H 1644.67 0.557902 0.61047 0
M  V30 16881 H 1647.21 1.57822 0.623712 0
M  V30 16882 H 1645.98 3.50389 1.74194 0
M  V30 16883 H 1645.61 2.47351 3.11293 0
M  V30 16884 N 1646.6 -0.84422 1.33082 0
M  V30 16885 C 1647.85 -1.59596 1.2399 0
M  V30 16886 C 1648.17 -1.94016 -0.19566 0
M  V30 16887 O 1647.44 -1.60512 -1.12306 0
M  V30 16888 H 1646.02 -0.591727 0.455926 0
M  V30 16889 H 1648.68 -1.00924 1.66735 0
M  V30 16890 H 1647.78 -2.52829 1.82986 0
M  V30 16891 N 1648.08 -1.16463 -1.0618 0
M  V30 16892 C 1649.5 -0.909776 -1.31131 0
M  V30 16893 C 1649.7 0.436686 -1.96711 0
M  V30 16894 O 1648.75 1.17595 -2.23445 0
M  V30 16895 C 1650.07 -2.05967 -2.19084 0
M  V30 16896 C 1651.61 -2.09557 -2.32497 0
M  V30 16897 C 1652.09 -3.23904 -3.23806 0
M  V30 16898 N 1653.58 -3.23628 -3.3139 0
M  V30 16899 C 1654.32 -4.08746 -4.02137 0
M  V30 16900 N 1653.81 -5.03954 -4.75397 0
M  V30 16901 N 1655.6 -3.96729 -3.98199 0
M  V30 16902 H 1647.76 -2.03148 -0.620066 0
M  V30 16903 H 1650.02 -0.886477 -0.335949 0
M  V30 16904 H 1649.72 -3.03227 -1.78174 0
M  V30 16905 H 1649.6 -2.00219 -3.19675 0
M  V30 16906 H 1651.99 -1.12889 -2.72654 0
M  V30 16907 H 1652.07 -2.19369 -1.3157 0
M  V30 16908 H 1651.71 -4.20831 -2.84366 0
M  V30 16909 H 1651.64 -3.11327 -4.24715 0
M  V30 16910 H 1654.13 -2.54687 -2.79182 0
M  V30 16911 H 1654.44 -5.65319 -5.2691 0
M  V30 16912 H 1652.79 -5.07932 -4.74373 0
M  V30 16913 H 1655.98 -3.21652 -3.40085 0
M  V30 16914 H 1656.15 -4.63286 -4.53067 0
M  V30 16915 N 1649.56 1.24734 -0.963288 0
M  V30 16916 C 1650.51 2.25555 -0.48926 0
M  V30 16917 C 1651.48 1.59521 0.462848 0
M  V30 16918 O 1652.66 1.87095 0.374188 0
M  V30 16919 C 1649.8 3.44407 0.218629 0
M  V30 16920 C 1648.91 4.25051 -0.77173 0
M  V30 16921 C 1648.05 5.31185 -0.0403986 0
M  V30 16922 C 1647.09 6.03523 -1.02112 0
M  V30 16923 N 1646.23 7.0137 -0.320083 0
M  V30 16924 H 1651.07 2.6547 -1.35386 0
M  V30 16925 H 1648.6 1.30504 -0.678762 0
M  V30 16926 H 1650.56 4.12173 0.645701 0
M  V30 16927 H 1649.19 3.05341 1.04722 0
M  V30 16928 H 1648.24 3.56865 -1.31726 0
M  V30 16929 H 1649.55 4.75084 -1.51976 0
M  V30 16930 H 1648.71 6.05067 0.444886 0
M  V30 16931 H 1647.45 4.82048 0.740356 0
M  V30 16932 H 1646.45 5.28448 -1.51732 0
M  V30 16933 H 1647.68 6.54749 -1.80224 0
M  V30 16934 H 1645.62 6.54511 0.441775 0
M  V30 16935 H 1645.54 7.49263 -1.00705 0
M  V30 16936 H 1646.81 7.79368 0.143379 0
M  V30 16937 N 1651.04 0.732878 1.39523 0
M  V30 16938 C 1652.45 0.408236 1.54291 0
M  V30 16939 C 1652.65 -1.08114 1.7004 0
M  V30 16940 O 1651.71 -1.86726 1.6997 0
M  V30 16941 C 1653.02 1.1894 2.76177 0
M  V30 16942 C 1654.57 1.17742 2.9001 0
M  V30 16943 C 1655.05 1.94111 4.14831 0
M  V30 16944 N 1656.54 1.91266 4.21867 0
M  V30 16945 C 1657.27 2.47167 5.17394 0
M  V30 16946 N 1656.77 3.11696 6.18723 0
M  V30 16947 N 1658.56 2.37212 5.09595 0
M  V30 16948 H 1650.71 1.69839 1.27548 0
M  V30 16949 H 1652.97 0.718844 0.618035 0
M  V30 16950 H 1652.68 2.24321 2.70875 0
M  V30 16951 H 1652.55 0.792439 3.68782 0
M  V30 16952 H 1654.94 0.131752 2.94806 0
M  V30 16953 H 1655.02 1.61374 1.98474 0
M  V30 16954 H 1654.67 2.98677 4.10797 0
M  V30 16955 H 1654.6 1.47886 5.05408 0
M  V30 16956 H 1657.09 1.44254 3.49284 0
M  V30 16957 H 1657.4 3.51823 6.8807 0
M  V30 16958 H 1655.75 3.15785 6.19116 0
M  V30 16959 H 1658.94 1.86444 4.29367 0
M  V30 16960 H 1659.11 2.81076 5.83866 0
M  V30 16961 N 1652.52 -1.50101 0.480349 0
M  V30 16962 C 1653.74 -2.06785 -0.068848 0
M  V30 16963 C 1654.16 -1.34316 -1.32683 0
M  V30 16964 O 1653.52 -0.415196 -1.77714 0
M  V30 16965 C 1653.57 -3.59826 -0.347522 0
M  V30 16966 O 1653.29 -4.29565 0.860569 0
M  V30 16967 C 1654.79 -4.33161 -0.94266 0
M  V30 16968 H 1652.01 -0.670906 0.0112172 0
M  V30 16969 H 1654.55 -1.93151 0.671788 0
M  V30 16970 H 1652.71 -3.73232 -1.0381 0
M  V30 16971 H 1653.12 -5.20931 0.610796 0
M  V30 16972 H 1654.6 -5.41184 -1.08736 0
M  V30 16973 H 1655.07 -3.94268 -1.93518 0
M  V30 16974 H 1655.68 -4.24309 -0.290178 0
M  V30 16975 N 1653.99 -0.213323 -1.5615 0
M  V30 16976 C 1655.24 0.420598 -1.98084 0
M  V30 16977 C 1655.57 1.60355 -1.10075 0
M  V30 16978 O 1654.82 1.95171 -0.143848 0
M  V30 16979 C 1655.12 0.905764 -3.45732 0
M  V30 16980 C 1654.79 -0.165778 -4.50595 0
M  V30 16981 C 1653.45 -0.460161 -4.78995 0
M  V30 16982 C 1655.8 -0.890891 -5.1353 0
M  V30 16983 C 1653.13 -1.48432 -5.67613 0
M  V30 16984 C 1655.48 -1.90433 -6.03256 0
M  V30 16985 C 1654.15 -2.20572 -6.30004 0
M  V30 16986 H 1653.42 0.153908 -0.72484 0
M  V30 16987 H 1656.06 -0.314117 -1.88906 0
M  V30 16988 H 1654.37 1.71909 -3.52072 0
M  V30 16989 H 1656.07 1.40596 -3.75545 0
M  V30 16990 H 1652.66 0.0738261 -4.28536 0
M  V30 16991 H 1656.84 -0.676696 -4.91665 0
M  V30 16992 H 1652.1 -1.72354 -5.86604 0
M  V30 16993 H 1656.27 -2.47131 -6.51075 0
M  V30 16994 H 1653.9 -3.00074 -6.9847 0
M  V30 16995 N 1655.47 1.57485 0.0601405 0
M  V30 16996 C 1656.7 1.91772 0.768565 0
M  V30 16997 C 1657.11 0.808661 1.71048 0
M  V30 16998 O 1656.45 -0.226062 1.82304 0
M  V30 16999 C 1656.52 3.21623 1.6062 0
M  V30 17000 C 1656.18 4.49355 0.832411 0
M  V30 17001 C 1657.18 5.19694 0.146434 0
M  V30 17002 C 1654.86 4.95951 0.796137 0
M  V30 17003 C 1656.86 6.34887 -0.565461 0
M  V30 17004 C 1654.54 6.11047 0.0804763 0
M  V30 17005 C 1655.54 6.80367 -0.599112 0
M  V30 17006 O 1655.23 7.93266 -1.30322 0
M  V30 17007 H 1654.96 0.638161 0.222994 0
M  V30 17008 H 1657.51 2.05376 0.0311569 0
M  V30 17009 H 1655.74 3.0426 2.38668 0
M  V30 17010 H 1657.43 3.41471 2.19436 0
M  V30 17011 H 1658.2 4.84717 0.16569 0
M  V30 17012 H 1654.08 4.4186 1.31457 0
M  V30 17013 H 1657.62 6.88929 -1.09646 0
M  V30 17014 H 1653.52 6.45473 0.0591881 0
M  V30 17015 H 1654.29 8.09452 -1.21369 0
M  V30 17016 N 1656.95 -0.331789 1.54068 0
M  V30 17017 C 1657.88 -1.41332 1.8587 0
M  V30 17018 C 1658.86 -1.54353 0.714787 0
M  V30 17019 O 1660.05 -1.68368 0.967777 0
M  V30 17020 C 1657.18 -2.78218 2.07875 0
M  V30 17021 C 1656.13 -2.79994 3.23709 0
M  V30 17022 C 1655.46 -4.19878 3.31069 0
M  V30 17023 C 1656.76 -2.44476 4.6155 0
M  V30 17024 H 1658.45 -1.14966 2.76447 0
M  V30 17025 H 1656 -0.551615 1.33016 0
M  V30 17026 H 1657.95 -3.53937 2.28706 0
M  V30 17027 H 1656.67 -3.06044 1.14038 0
M  V30 17028 H 1655.33 -2.0673 3.02751 0
M  V30 17029 H 1654.98 -4.44831 2.34807 0
M  V30 17030 H 1654.68 -4.21974 4.08915 0
M  V30 17031 H 1656.2 -4.97421 3.54125 0
M  V30 17032 H 1657.62 -3.09908 4.82317 0
M  V30 17033 H 1656.02 -2.57837 5.41886 0
M  V30 17034 H 1657.09 -1.3964 4.64358 0
M  V30 17035 N 1658.43 -1.46001 -0.593424 0
M  V30 17036 C 1659.65 -1.54541 -1.38318 0
M  V30 17037 C 1660.08 -0.183555 -1.87202 0
M  V30 17038 O 1659.44 0.834407 -1.60958 0
M  V30 17039 C 1659.48 -2.54559 -2.55405 0
M  V30 17040 O 1658.59 -2.07321 -3.56499 0
M  V30 17041 H 1657.93 -0.520434 -0.412364 0
M  V30 17042 H 1660.46 -1.9148 -0.720862 0
M  V30 17043 H 1660.47 -2.73823 -3.02465 0
M  V30 17044 H 1659.14 -3.53461 -2.19176 0
M  V30 17045 H 1657.72 -1.97997 -3.15993 0
M  V30 17046 N 1659.91 0.83715 -1.33527 0
M  V30 17047 C 1661.15 1.59487 -1.25267 0
M  V30 17048 C 1661.49 1.93357 0.180741 0
M  V30 17049 O 1660.76 1.5884 1.12251 0
M  V30 17050 C 1661.04 2.90376 -2.12964 0
M  V30 17051 C 1660.9 2.63177 -3.64771 0
M  V30 17052 C 1662.22 3.9182 -2.00412 0
M  V30 17053 H 1659.33 0.578684 -0.456392 0
M  V30 17054 H 1661.98 0.965428 -1.63644 0
M  V30 17055 H 1660.13 3.44095 -1.80364 0
M  V30 17056 H 1661.8 2.15878 -4.0767 0
M  V30 17057 H 1660.04 1.96849 -3.86566 0
M  V30 17058 H 1660.71 3.56452 -4.21481 0
M  V30 17059 H 1663.19 3.47413 -2.29005 0
M  V30 17060 H 1662.06 4.81232 -2.64021 0
M  V30 17061 H 1662.33 4.31173 -0.976852 0
M  V30 17062 N 1661.38 1.17024 1.05561 0
M  V30 17063 C 1662.62 0.967099 1.80074 0
M  V30 17064 C 1662.99 -0.495724 1.8549 0
M  V30 17065 O 1664.19 -0.817816 2.56057 0
M  V30 17066 C 1662.46 1.5862 3.20273 0
M  V30 17067 S 1664.02 1.52873 4.11309 0
M  V30 17068 H 1660.84 0.347623 0.620225 0
M  V30 17069 H 1663.44 1.48902 1.26682 0
M  V30 17070 H 1662.14 2.64341 3.1393 0
M  V30 17071 H 1661.67 1.06392 3.7874 0
M  V30 17072 H 1663.69 0.534126 4.93317 0
M  V30 17073 N 1662.86 -1.24221 0.969889 0
M  V30 17074 C 1663.81 -2.27299 0.493765 0
M  V30 17075 C 1664.8 -1.63483 -0.443824 0
M  V30 17076 O 1666.01 -1.77153 -0.318873 0
M  V30 17077 H 1662.39 -0.738622 0.141216 0
M  V30 17078 H 1664.36 -2.6483 1.37506 0
M  V30 17079 C 1663.11 -3.47134 -0.198399 0
M  V30 17080 H 1662.43 -3.96483 0.51395 0
M  V30 17081 H 1663.87 -4.21097 -0.495334 0
M  V30 17082 C 1662.33 -3.05227 -1.42612 0
M  V30 17083 O 1662.86 -3.1258 -2.52302 0
M  V30 17084 N 1661.06 -2.60252 -1.29295 0
M  V30 17085 H 1660.61 -2.54468 -0.400461 0
M  V30 17086 H 1660.57 -2.32579 -2.11553 0
M  V30 17087 N 1664.34 -0.740267 -1.39132 0
M  V30 17088 C 1665.75 -0.359866 -1.83199 0
M  V30 17089 C 1666.1 1.1095 -1.61816 0
M  V30 17090 O 1665.23 1.85635 -1.11215 0
M  V30 17091 C 1665.82 -0.64639 -3.32577 0
M  V30 17092 C 1664.38 -0.319423 -3.75042 0
M  V30 17093 C 1663.53 -0.906345 -2.6207 0
M  V30 17094 H 1666.48 -0.93749 -1.2805 0
M  V30 17095 H 1666.5 0.080033 -3.80416 0
M  V30 17096 H 1666.01 -1.71588 -3.48108 0
M  V30 17097 H 1664.11 0.744022 -3.65096 0
M  V30 17098 H 1664.23 -0.805664 -4.72277 0
M  V30 17099 H 1662.59 -0.332615 -2.52519 0
M  V30 17100 H 1663.37 -1.9806 -2.80405 0
M  V30 17101 N 1665.82 1.49844 -0.488302 0
M  V30 17102 C 1666.75 2.31737 0.286432 0
M  V30 17103 C 1667.73 1.39424 0.974418 0
M  V30 17104 O 1668.91 1.68339 0.968274 0
M  V30 17105 C 1666.04 3.19616 1.35878 0
M  V30 17106 C 1665 4.20619 0.791409 0
M  V30 17107 C 1664.32 4.9735 1.96333 0
M  V30 17108 C 1665.62 5.21882 -0.208975 0
M  V30 17109 H 1667.32 2.96755 -0.397092 0
M  V30 17110 H 1664.86 1.42709 -0.192413 0
M  V30 17111 H 1666.82 3.75711 1.90838 0
M  V30 17112 H 1665.54 2.52516 2.07131 0
M  V30 17113 H 1664.2 3.65651 0.263647 0
M  V30 17114 H 1663.85 4.26708 2.66325 0
M  V30 17115 H 1663.55 5.65684 1.58983 0
M  V30 17116 H 1665.07 5.56286 2.51751 0
M  V30 17117 H 1666.49 5.72746 0.252049 0
M  V30 17118 H 1664.88 5.98033 -0.497638 0
M  V30 17119 H 1665.95 4.7157 -1.12916 0
M  V30 17120 N 1667.3 0.221601 1.56034 0
M  V30 17121 C 1668.71 -0.28624 1.84493 0
M  V30 17122 C 1669.06 -1.59469 1.14298 0
M  V30 17123 O 1668.18 -2.12429 0.412672 0
M  V30 17124 C 1668.78 -0.526128 3.3469 0
M  V30 17125 C 1667.34 -0.978278 3.63465 0
M  V30 17126 C 1666.48 -0.0413786 2.77269 0
M  V30 17127 H 1669.44 0.444792 1.52339 0
M  V30 17128 H 1669.46 -1.37212 3.54899 0
M  V30 17129 H 1668.97 0.426348 3.85751 0
M  V30 17130 H 1667.07 -1.94411 3.1786 0
M  V30 17131 H 1667.18 -0.852651 4.71452 0
M  V30 17132 H 1665.55 -0.548179 2.48731 0
M  V30 17133 H 1666.33 0.906016 3.31129 0
M  V30 17134 N 1668.77 -1.57515 -0.0517878 0
M  V30 17135 C 1670 -1.92177 -0.758384 0
M  V30 17136 C 1670.41 -0.817721 -1.70616 0
M  V30 17137 O 1669.76 0.216391 -1.82421 0
M  V30 17138 C 1669.82 -3.22471 -1.58912 0
M  V30 17139 C 1669.48 -4.4979 -0.808569 0
M  V30 17140 C 1670.48 -5.19764 -0.118871 0
M  V30 17141 C 1668.16 -4.96366 -0.769824 0
M  V30 17142 C 1670.16 -6.34578 0.599123 0
M  V30 17143 C 1667.84 -6.11081 -0.0480698 0
M  V30 17144 C 1668.84 -6.8004 0.635185 0
M  V30 17145 O 1668.53 -7.92564 1.34527 0
M  V30 17146 H 1668.26 -0.639335 -0.219607 0
M  V30 17147 H 1670.82 -2.0539 -0.0202648 0
M  V30 17148 H 1669.05 -3.05522 -2.37051 0
M  V30 17149 H 1670.74 -3.4263 -2.17622 0
M  V30 17150 H 1671.5 -4.84798 -0.139982 0
M  V30 17151 H 1667.38 -4.42551 -1.29112 0
M  V30 17152 H 1670.92 -6.88338 1.13298 0
M  V30 17153 H 1666.82 -6.45495 -0.0249563 0
M  V30 17154 H 1667.59 -8.08797 1.2566 0
M  V30 17155 N 1670.25 0.323614 -1.54242 0
M  V30 17156 C 1671.5 1.05909 -1.71657 0
M  V30 17157 C 1671.82 1.89177 -0.497151 0
M  V30 17158 O 1673.02 2.65816 -0.552649 0
M  V30 17159 C 1671.48 1.93246 -3.03618 0
M  V30 17160 C 1671.09 1.1509 -4.32965 0
M  V30 17161 C 1672.83 2.6653 -3.30397 0
M  V30 17162 C 1670.74 2.01573 -5.55988 0
M  V30 17163 H 1669.67 0.399114 -0.639706 0
M  V30 17164 H 1672.32 0.317338 -1.80735 0
M  V30 17165 H 1670.7 2.71319 -2.88447 0
M  V30 17166 H 1671.87 0.417877 -4.58901 0
M  V30 17167 H 1670.19 0.534882 -4.1295 0
M  V30 17168 H 1672.79 3.31542 -4.19504 0
M  V30 17169 H 1673.13 3.34164 -2.48274 0
M  V30 17170 H 1673.66 1.95518 -3.46435 0
M  V30 17171 H 1670.4 1.38446 -6.40713 0
M  V30 17172 H 1669.92 2.72609 -5.3427 0
M  V30 17173 H 1671.6 2.60159 -5.9239 0
M  V30 17174 N 1671.73 1.46313 0.585673 0
M  V30 17175 C 1673.14 1.4567 1.16778 0
M  V30 17176 C 1673.49 0.195957 1.95219 0
M  V30 17177 O 1672.62 -0.701142 2.04727 0
M  V30 17178 C 1673.21 2.6392 2.12443 0
M  V30 17179 C 1671.77 2.66327 2.65983 0
M  V30 17180 C 1670.92 2.38304 1.41797 0
M  V30 17181 H 1673.87 1.54236 0.37377 0
M  V30 17182 H 1673.89 2.39268 2.95856 0
M  V30 17183 H 1673.4 3.55663 1.55324 0
M  V30 17184 H 1671.5 1.78648 3.2698 0
M  V30 17185 H 1671.62 3.66203 3.08921 0
M  V30 17186 H 1669.98 1.88302 1.71507 0
M  V30 17187 H 1670.76 3.3222 0.86514 0
M  V30 17188 N 1673.21 -0.830057 1.33969 0
M  V30 17189 C 1674.46 -1.58272 1.25675 0
M  V30 17190 C 1674.78 -1.94213 -0.175071 0
M  V30 17191 O 1674.05 -1.61694 -1.10597 0
M  V30 17192 H 1672.63 -0.586858 0.462176 0
M  V30 17193 H 1675.29 -0.991495 1.67796 0
M  V30 17194 H 1674.39 -2.50874 1.85658 0
M  V30 17195 N 1674.69 -1.17582 -1.04939 0
M  V30 17196 C 1675.93 -0.976635 -1.79558 0
M  V30 17197 C 1676.29 0.48588 -1.8575 0
M  V30 17198 O 1677.49 0.804225 -2.56487 0
M  V30 17199 C 1675.76 -1.60316 -3.19427 0
M  V30 17200 S 1677.32 -1.55052 -4.10493 0
M  V30 17201 H 1674.14 -0.350907 -0.618373 0
M  V30 17202 H 1676.74 -1.49572 -1.25891 0
M  V30 17203 H 1675.45 -2.66002 -3.12524 0
M  V30 17204 H 1674.98 -1.08399 -3.78171 0
M  V30 17205 H 1676.99 -0.56028 -4.93027 0
M  V30 17206 N 1676.17 1.23705 -0.976463 0
M  V30 17207 C 1677.1 2.24297 -0.471538 0
M  V30 17208 C 1678.11 1.57169 0.424484 0
M  V30 17209 O 1679.3 1.77022 0.229252 0
M  V30 17210 C 1676.4 3.37214 0.337621 0
M  V30 17211 C 1675.57 4.33921 -0.550586 0
M  V30 17212 C 1674.63 5.25804 0.204053 0
M  V30 17213 O 1673.66 5.67757 -0.404995 0
M  V30 17214 N 1674.86 5.61021 1.49116 0
M  V30 17215 H 1677.62 2.68252 -1.33645 0
M  V30 17216 H 1675.19 1.37836 -0.849281 0
M  V30 17217 H 1677.18 3.95658 0.850714 0
M  V30 17218 H 1675.75 2.92474 1.10351 0
M  V30 17219 H 1674.97 3.74038 -1.24455 0
M  V30 17220 H 1676.26 4.95493 -1.15604 0
M  V30 17221 H 1675.65 5.28879 2.00757 0
M  V30 17222 H 1674.21 6.21954 1.94978 0
M  V30 17223 N 1677.64 0.747635 1.38738 0
M  V30 17224 C 1678.89 0.300552 1.99853 0
M  V30 17225 C 1679.21 -1.11986 1.59638 0
M  V30 17226 O 1678.48 -1.76477 0.850447 0
M  V30 17227 H 1677.06 0.108134 0.739132 0
M  V30 17228 H 1679.72 0.960405 1.69594 0
M  V30 17229 H 1678.82 0.358956 3.10029 0
M  V30 17230 N 1679.12 -1.49583 0.496242 0
M  V30 17231 C 1680.35 -2.07342 -0.0490986 0
M  V30 17232 C 1680.77 -1.35474 -1.30493 0
M  V30 17233 O 1680.13 -0.410005 -1.76603 0
M  V30 17234 C 1680.18 -3.59427 -0.290601 0
M  V30 17235 O 1679.28 -3.89111 -1.36626 0
M  V30 17236 H 1678.62 -0.663562 0.0241141 0
M  V30 17237 H 1681.15 -1.92452 0.6945 0
M  V30 17238 H 1681.16 -4.04627 -0.523549 0
M  V30 17239 H 1679.84 -4.11147 0.626959 0
M  V30 17240 H 1678.41 -3.55726 -1.11864 0
M  V30 17241 N 1680.6 -0.229873 -1.55915 0
M  V30 17242 C 1681.56 0.663347 -2.19391 0
M  V30 17243 C 1682.56 1.11548 -1.15818 0
M  V30 17244 O 1683.75 1.02294 -1.41002 0
M  V30 17245 C 1680.88 1.9097 -2.82389 0
M  V30 17246 H 1682.08 0.109797 -2.99699 0
M  V30 17247 H 1679.63 0.0197234 -1.56288 0
M  V30 17248 H 1680.37 2.50491 -2.05973 0
M  V30 17249 H 1680.15 1.59388 -3.58243 0
M  V30 17250 H 1681.64 2.5459 -3.31019 0
M  V30 17251 N 1682.08 1.5754 0.0434337 0
M  V30 17252 C 1683.32 1.88887 0.7382 0
M  V30 17253 C 1683.66 0.825827 1.75766 0
M  V30 17254 O 1682.93 -0.160797 1.93834 0
M  V30 17255 C 1683.21 3.30889 1.42072 0
M  V30 17256 C 1683.07 4.47874 0.415754 0
M  V30 17257 C 1684.39 3.71571 2.35846 0
M  V30 17258 H 1681.51 0.686975 0.266897 0
M  V30 17259 H 1684.15 1.9 0.00106957 0
M  V30 17260 H 1682.3 3.30071 2.04903 0
M  V30 17261 H 1683.97 4.60824 -0.209529 0
M  V30 17262 H 1682.21 4.32982 -0.266346 0
M  V30 17263 H 1682.88 5.44084 0.931509 0
M  V30 17264 H 1685.36 3.73663 1.83071 0
M  V30 17265 H 1684.24 4.71763 2.80589 0
M  V30 17266 H 1684.5 3.03041 3.21898 0
M  V30 17267 N 1683.56 -0.31543 1.54411 0
M  V30 17268 C 1684.8 -1.05033 1.72663 0
M  V30 17269 C 1685.12 -1.8828 0.507504 0
M  V30 17270 O 1684.39 -1.89968 -0.478418 0
M  V30 17271 H 1682.97 -0.39077 0.636638 0
M  V30 17272 H 1685.64 -0.3499 1.91733 0
M  V30 17273 H 1684.73 -1.71171 2.60973 0
M  V30 17274 N 1685.03 -1.46622 -0.577906 0
M  V30 17275 C 1686.26 -1.56 -1.36671 0
M  V30 17276 C 1686.68 -0.2034 -1.86997 0
M  V30 17277 O 1686.04 0.817288 -1.61834 0
M  V30 17278 C 1686.09 -2.57254 -2.52691 0
M  V30 17279 O 1685.19 -2.1109 -3.54281 0
M  V30 17280 H 1684.54 -0.524779 -0.406821 0
M  V30 17281 H 1687.07 -1.92234 -0.700512 0
M  V30 17282 H 1687.08 -2.77016 -2.99543 0
M  V30 17283 H 1685.75 -3.55766 -2.15415 0
M  V30 17284 H 1684.33 -2.01337 -3.13875 0
M  V30 17285 N 1686.51 0.822941 -1.34408 0
M  V30 17286 C 1687.75 1.59269 -1.28112 0
M  V30 17287 C 1688.12 1.91437 0.146924 0
M  V30 17288 O 1689.32 2.66716 0.334053 0
M  V30 17289 C 1687.59 2.85727 -2.14698 0
M  V30 17290 S 1689.15 3.76272 -2.25754 0
M  V30 17291 H 1685.97 0.545903 -0.455534 0
M  V30 17292 H 1688.57 0.972069 -1.6962 0
M  V30 17293 H 1687.27 2.60092 -3.17459 0
M  V30 17294 H 1686.8 3.52786 -1.74086 0
M  V30 17295 H 1688.82 4.75138 -1.43031 0
M  V30 17296 N 1687.99 1.18137 1.04314 0
M  V30 17297 C 1688.92 0.929593 2.14198 0
M  V30 17298 C 1689.9 -0.131766 1.69589 0
M  V30 17299 O 1691.09 0.0203104 1.94189 0
M  V30 17300 C 1688.22 0.451799 3.44349 0
M  V30 17301 C 1687.17 1.45336 4.02569 0
M  V30 17302 C 1686.5 0.833176 5.28169 0
M  V30 17303 C 1687.8 2.8293 4.39031 0
M  V30 17304 H 1689.49 1.84856 2.35518 0
M  V30 17305 H 1687.04 0.890217 1.13186 0
M  V30 17306 H 1688.99 0.26303 4.20578 0
M  V30 17307 H 1687.71 -0.502725 3.22708 0
M  V30 17308 H 1686.37 1.62902 3.28418 0
M  V30 17309 H 1686.02 -0.128459 5.02836 0
M  V30 17310 H 1685.72 1.50185 5.68083 0
M  V30 17311 H 1687.24 0.654881 6.07078 0
M  V30 17312 H 1688.66 2.6903 5.06257 0
M  V30 17313 H 1687.06 3.46458 4.89987 0
M  V30 17314 H 1688.13 3.3667 3.48972 0
M  V30 17315 N 1689.47 -1.23186 0.98301 0
M  V30 17316 C 1690.71 -1.91955 0.65431 0
M  V30 17317 C 1691.05 -1.76482 -0.810419 0
M  V30 17318 O 1690.32 -1.12744 -1.5849 0
M  V30 17319 C 1690.61 -3.4449 1.04873 0
M  V30 17320 C 1690.46 -3.6906 2.57128 0
M  V30 17321 C 1691.78 -4.36065 0.594578 0
M  V30 17322 H 1688.9 -0.69711 0.239179 0
M  V30 17323 H 1691.54 -1.45257 1.22476 0
M  V30 17324 H 1689.69 -3.84394 0.563333 0
M  V30 17325 H 1691.36 -3.38622 3.13262 0
M  V30 17326 H 1689.6 -3.13681 2.99644 0
M  V30 17327 H 1690.27 -4.75846 2.79776 0
M  V30 17328 H 1692.75 -4.03622 1.01136 0
M  V30 17329 H 1691.63 -5.41489 0.898955 0
M  V30 17330 H 1691.89 -4.39206 -0.505033 0
M  V30 17331 N 1690.95 -0.754982 -1.38339 0
M  V30 17332 C 1692.17 -0.321355 -2.04895 0
M  V30 17333 C 1692.6 1.04249 -1.56569 0
M  V30 17334 O 1691.95 1.66464 -0.718299 0
M  V30 17335 C 1692 -0.354873 -3.5885 0
M  V30 17336 O 1691.11 0.65063 -4.07235 0
M  V30 17337 H 1690.45 -0.142033 -0.648631 0
M  V30 17338 H 1692.98 -1.02649 -1.76987 0
M  V30 17339 H 1692.99 -0.206243 -4.07478 0
M  V30 17340 H 1691.66 -1.34994 -3.93382 0
M  V30 17341 H 1690.24 0.466498 -3.69971 0
M  V30 17342 N 1692.42 1.49318 -0.504168 0
M  V30 17343 C 1693.33 2.32958 0.277053 0
M  V30 17344 C 1694.35 1.44838 0.964266 0
M  V30 17345 O 1695.53 1.77856 0.944947 0
M  V30 17346 C 1692.59 3.20352 1.32572 0
M  V30 17347 C 1691.65 4.24326 0.651606 0
M  V30 17348 C 1690.89 5.07544 1.65031 0
M  V30 17349 O 1691.11 4.92326 2.88047 0
M  V30 17350 O 1690.04 5.89737 1.20388 0
M  V30 17351 H 1693.87 3.00952 -0.40763 0
M  V30 17352 H 1691.45 1.47023 -0.265453 0
M  V30 17353 H 1693.34 3.74483 1.93237 0
M  V30 17354 H 1692.01 2.5505 1.99327 0
M  V30 17355 H 1690.92 3.741 0.00513384 0
M  V30 17356 H 1692.25 4.92193 0.0264424 0
M  V30 17357 N 1693.9 0.238138 1.5579 0
M  V30 17358 C 1695.15 -0.388263 1.98335 0
M  V30 17359 C 1695.47 -1.59104 1.12743 0
M  V30 17360 O 1694.74 -1.9479 0.208201 0
M  V30 17361 H 1693.32 -0.14644 0.732505 0
M  V30 17362 H 1695.98 0.334891 1.92001 0
M  V30 17363 H 1695.08 -0.703359 3.04071 0
M  V30 17364 N 1695.38 -1.57561 -0.0350783 0
M  V30 17365 C 1696.33 -2.07246 -1.05602 0
M  V30 17366 C 1697.32 -0.985013 -1.37818 0
M  V30 17367 O 1698.53 -1.16993 -1.36794 0
M  V30 17368 H 1694.9 -0.661286 -0.358057 0
M  V30 17369 H 1696.87 -2.92075 -0.611124 0
M  V30 17370 C 1695.62 -2.56235 -2.3503 0
M  V30 17371 H 1694.95 -3.39525 -2.111 0
M  V30 17372 H 1696.39 -2.94716 -3.04826 0
M  V30 17373 C 1694.85 -1.46096 -3.03575 0
M  V30 17374 O 1695.38 -0.823772 -3.93163 0
M  V30 17375 N 1693.58 -1.19698 -2.64803 0
M  V30 17376 H 1693.13 -1.71697 -1.92036 0
M  V30 17377 H 1693.09 -0.462174 -3.10984 0
M  V30 17378 N 1696.86 0.307236 -1.54576 0
M  V30 17379 C 1698.08 1.06668 -1.77867 0
M  V30 17380 C 1698.51 1.80375 -0.533536 0
M  V30 17381 O 1697.87 1.73812 0.515663 0
M  V30 17382 C 1697.91 2.02777 -2.98184 0
M  V30 17383 O 1697.02 3.10969 -2.70872 0
M  V30 17384 H 1696.36 0.306741 -0.588902 0
M  V30 17385 H 1698.89 0.346557 -2.01644 0
M  V30 17386 H 1698.9 2.45355 -3.25983 0
M  V30 17387 H 1697.57 1.48534 -3.88472 0
M  V30 17388 H 1696.15 2.7295 -2.54072 0
M  V30 17389 N 1698.34 1.46926 0.570122 0
M  V30 17390 C 1699.58 1.54099 1.3276 0
M  V30 17391 C 1699.94 0.195237 1.91407 0
M  V30 17392 O 1699.23 -0.797593 1.7421 0
M  V30 17393 C 1699.42 2.58527 2.46776 0
M  V30 17394 C 1699.25 4.03125 1.993 0
M  V30 17395 C 1698.02 4.70712 1.83735 0
M  V30 17396 C 1700.22 4.90541 1.54513 0
M  V30 17397 N 1698.2 5.99877 1.30462 0
M  V30 17398 C 1699.57 6.09631 1.12917 0
M  V30 17399 C 1701.63 4.77089 1.42446 0
M  V30 17400 C 1700.33 7.16755 0.604555 0
M  V30 17401 C 1702.36 5.84297 0.913863 0
M  V30 17402 C 1701.72 7.02568 0.507763 0
M  V30 17403 H 1697.82 0.618661 0.478312 0
M  V30 17404 H 1700.4 1.8361 0.647733 0
M  V30 17405 H 1698.57 2.30906 3.12309 0
M  V30 17406 H 1700.31 2.55619 3.13753 0
M  V30 17407 H 1697.06 4.26421 2.06062 0
M  V30 17408 H 1697.49 6.68658 1.05951 0
M  V30 17409 H 1702.13 3.86029 1.72458 0
M  V30 17410 H 1699.85 8.07572 0.29204 0
M  V30 17411 H 1703.43 5.75932 0.824229 0
M  V30 17412 H 1702.31 7.8411 0.118778 0
M  V30 17413 N 1699.82 -0.815801 1.34842 0
M  V30 17414 C 1700.76 -1.94853 1.27024 0
M  V30 17415 C 1701.76 -1.68575 0.166936 0
M  V30 17416 O 1702.96 -1.76905 0.332352 0
M  V30 17417 H 1699.34 -0.640033 0.394794 0
M  V30 17418 H 1701.31 -1.98569 2.2274 0
M  V30 17419 C 1700.06 -3.31474 1.04977 0
M  V30 17420 H 1699.38 -3.52246 1.8911 0
M  V30 17421 H 1700.82 -4.11162 1.03545 0
M  V30 17422 C 1699.28 -3.35995 -0.246708 0
M  V30 17423 O 1699.81 -3.81898 -1.24566 0
M  V30 17424 N 1698.02 -2.89226 -0.282292 0
M  V30 17425 H 1697.56 -2.52063 0.531211 0
M  V30 17426 H 1697.52 -2.92633 -1.1495 0
M  V30 17427 N 1701.29 -1.18689 -1.03686 0
M  V30 17428 C 1702.22 -0.94094 -2.13702 0
M  V30 17429 C 1703.2 0.12277 -1.69656 0
M  V30 17430 O 1704.39 -0.0306085 -1.94176 0
M  V30 17431 C 1701.52 -0.470054 -3.44104 0
M  V30 17432 C 1700.47 -1.47468 -4.01792 0
M  V30 17433 C 1699.8 -0.861174 -5.2772 0
M  V30 17434 C 1701.1 -2.85254 -4.37524 0
M  V30 17435 H 1702.79 -1.86102 -2.34534 0
M  V30 17436 H 1700.34 -0.896207 -1.12713 0
M  V30 17437 H 1702.29 -0.28533 -4.20433 0
M  V30 17438 H 1701.02 0.485604 -3.2297 0
M  V30 17439 H 1699.68 -1.64641 -3.2755 0
M  V30 17440 H 1699.32 0.10179 -5.02897 0
M  V30 17441 H 1699.02 -1.53196 -5.67278 0
M  V30 17442 H 1700.55 -0.687066 -6.06722 0
M  V30 17443 H 1701.96 -2.71711 -5.04823 0
M  V30 17444 H 1700.36 -3.49051 -4.88143 0
M  V30 17445 H 1701.43 -3.38516 -3.47181 0
M  V30 17446 N 1702.77 1.22662 -0.989529 0
M  V30 17447 C 1704.02 1.90944 -0.662187 0
M  V30 17448 C 1704.34 1.77477 0.807899 0
M  V30 17449 O 1703.61 1.15985 1.57874 0
M  V30 17450 H 1702.19 0.706738 -0.241932 0
M  V30 17451 H 1704.85 1.49091 -1.25531 0
M  V30 17452 H 1703.95 2.98177 -0.921777 0
M  V30 17453 N 1704.25 0.762308 1.37937 0
M  V30 17454 C 1705.5 0.322846 2.00214 0
M  V30 17455 C 1705.83 -1.09513 1.60376 0
M  V30 17456 O 1705.1 -1.75165 0.845432 0
M  V30 17457 C 1705.39 0.455651 3.57206 0
M  V30 17458 C 1705.24 1.91537 4.06981 0
M  V30 17459 C 1706.56 -0.145758 4.39859 0
M  V30 17460 H 1703.68 0.118781 0.727365 0
M  V30 17461 H 1706.32 0.963585 1.63753 0
M  V30 17462 H 1704.47 -0.0898341 3.88396 0
M  V30 17463 H 1706.14 2.51983 3.86397 0
M  V30 17464 H 1704.38 2.42744 3.59524 0
M  V30 17465 H 1705.06 1.9594 5.16054 0
M  V30 17466 H 1707.53 0.31956 4.14871 0
M  V30 17467 H 1706.41 -0.0226441 5.48895 0
M  V30 17468 H 1706.67 -1.23504 4.24499 0
M  V30 17469 N 1705.73 -1.49049 0.51208 0
M  V30 17470 C 1706.97 -2.0278 -0.0285311 0
M  V30 17471 C 1707.31 -1.39003 -1.35617 0
M  V30 17472 O 1706.58 -0.52952 -1.87153 0
M  V30 17473 C 1706.86 -3.59701 -0.169433 0
M  V30 17474 C 1706.72 -4.33989 1.18211 0
M  V30 17475 C 1708.04 -4.30698 -0.904812 0
M  V30 17476 H 1705.16 -0.736946 -0.00889467 0
M  V30 17477 H 1707.8 -1.77959 0.66564 0
M  V30 17478 H 1705.95 -3.8098 -0.760667 0
M  V30 17479 H 1707.62 -4.24176 1.81307 0
M  V30 17480 H 1705.86 -3.9611 1.76859 0
M  V30 17481 H 1706.53 -5.42177 1.03671 0
M  V30 17482 H 1709.01 -4.14141 -0.40327 0
M  V30 17483 H 1707.89 -5.40221 -0.972264 0
M  V30 17484 H 1708.15 -3.96718 -1.95108 0
M  V30 17485 N 1707.21 -0.246397 -1.55662 0
M  V30 17486 C 1708.14 0.686113 -2.1869 0
M  V30 17487 C 1709.15 1.13915 -1.16306 0
M  V30 17488 O 1710.34 1.06601 -1.43173 0
M  V30 17489 C 1707.44 1.94426 -2.77582 0
M  V30 17490 C 1706.61 1.64275 -4.0538 0
M  V30 17491 C 1705.67 2.75044 -4.48595 0
M  V30 17492 O 1704.7 2.42451 -5.14982 0
M  V30 17493 N 1705.9 4.04528 -4.16338 0
M  V30 17494 H 1708.66 0.146832 -2.9934 0
M  V30 17495 H 1706.23 -0.0663398 -1.61764 0
M  V30 17496 H 1708.22 2.67768 -3.0345 0
M  V30 17497 H 1706.79 2.39334 -2.01091 0
M  V30 17498 H 1706.01 0.744531 -3.87105 0
M  V30 17499 H 1707.3 1.41594 -4.88701 0
M  V30 17500 H 1706.69 4.33841 -3.6304 0
M  V30 17501 H 1705.25 4.74337 -4.47043 0
M  V30 17502 N 1708.68 1.57577 0.026722 0
M  V30 17503 C 1709.62 2.021 1.05976 0
M  V30 17504 C 1710.59 0.905778 1.35035 0
M  V30 17505 O 1711.78 1.1718 1.47652 0
M  V30 17506 C 1708.91 2.39603 2.39391 0
M  V30 17507 C 1707.95 3.61591 2.26174 0
M  V30 17508 S 1708.78 5.10631 1.61295 0
M  V30 17509 C 1709.94 5.51379 2.96196 0
M  V30 17510 H 1710.17 2.89406 0.680545 0
M  V30 17511 H 1707.71 1.52574 0.236771 0
M  V30 17512 H 1709.66 2.61881 3.16115 0
M  V30 17513 H 1708.33 1.52744 2.7446 0
M  V30 17514 H 1707.52 3.85495 3.24669 0
M  V30 17515 H 1707.12 3.39176 1.57593 0
M  V30 17516 H 1709.41 5.52206 3.92524 0
M  V30 17517 H 1710.36 6.51663 2.77023 0
M  V30 17518 H 1710.76 4.78887 2.98877 0
M  V30 17519 N 1710.16 -0.299034 1.54737 0
M  V30 17520 C 1711.39 -1.05723 1.7843 0
M  V30 17521 C 1711.81 -1.80089 0.543094 0
M  V30 17522 O 1711.17 -1.74083 -0.506438 0
M  V30 17523 C 1711.22 -2.01193 2.99255 0
M  V30 17524 O 1710.32 -3.09528 2.72518 0
M  V30 17525 H 1709.66 -0.303614 0.590521 0
M  V30 17526 H 1712.19 -0.335859 2.01825 0
M  V30 17527 H 1712.2 -2.43623 3.27279 0
M  V30 17528 H 1710.88 -1.46472 3.89254 0
M  V30 17529 H 1709.45 -2.71599 2.55516 0
M  V30 17530 N 1711.64 -1.47227 -0.562322 0
M  V30 17531 C 1713.05 -1.47509 -1.14446 0
M  V30 17532 C 1713.4 -0.22699 -1.94883 0
M  V30 17533 O 1712.53 0.668483 -2.05816 0
M  V30 17534 C 1713.12 -2.67266 -2.08217 0
M  V30 17535 C 1711.68 -2.70524 -2.61713 0
M  V30 17536 C 1710.83 -2.4053 -1.37988 0
M  V30 17537 H 1713.78 -1.54811 -0.349185 0
M  V30 17538 H 1713.8 -2.43945 -2.92012 0
M  V30 17539 H 1713.31 -3.58089 -1.49646 0
M  V30 17540 H 1711.41 -1.83827 -3.24096 0
M  V30 17541 H 1711.53 -3.71072 -3.03056 0
M  V30 17542 H 1709.89 -1.91007 -1.68489 0
M  V30 17543 H 1710.67 -3.33554 -0.812177 0
M  V30 17544 N 1713.12 0.808639 -1.35273 0
M  V30 17545 C 1714.05 1.92839 -1.23878 0
M  V30 17546 C 1715.06 1.61987 -0.162543 0
M  V30 17547 O 1716.25 1.73593 -0.41564 0
M  V30 17548 C 1713.35 3.27158 -0.884369 0
M  V30 17549 C 1712.52 3.85931 -2.05855 0
M  V30 17550 C 1711.58 4.98652 -1.68025 0
M  V30 17551 O 1710.61 5.16188 -2.39871 0
M  V30 17552 N 1711.81 5.77363 -0.602684 0
M  V30 17553 H 1714.58 2.03141 -2.20349 0
M  V30 17554 H 1712.14 0.985956 -1.28415 0
M  V30 17555 H 1714.13 4.00033 -0.612814 0
M  V30 17556 H 1712.7 3.12599 -0.00940584 0
M  V30 17557 H 1711.92 3.05274 -2.49402 0
M  V30 17558 H 1713.21 4.21929 -2.84347 0
M  V30 17559 H 1712.61 5.657 -0.00570741 0
M  V30 17560 H 1711.16 6.50627 -0.390903 0
M  V30 17561 N 1714.6 1.19237 1.03055 0
M  V30 17562 C 1715.56 0.930536 2.0946 0
M  V30 17563 C 1716.56 -0.0882907 1.60557 0
M  V30 17564 O 1717.75 0.146269 1.73585 0
M  V30 17565 C 1714.88 0.398165 3.38567 0
M  V30 17566 H 1716.07 1.87422 2.34122 0
M  V30 17567 H 1713.63 1.00579 1.19639 0
M  V30 17568 H 1714.36 -0.551646 3.19574 0
M  V30 17569 H 1714.15 1.13273 3.75382 0
M  V30 17570 H 1715.64 0.234006 4.16944 0
M  V30 17571 N 1716.07 -1.22136 0.99602 0
M  V30 17572 C 1717.04 -2.22404 0.553986 0
M  V30 17573 C 1718.04 -1.56607 -0.364832 0
M  V30 17574 O 1719.23 -1.73497 -0.156358 0
M  V30 17575 C 1716.36 -3.40349 -0.193794 0
M  V30 17576 H 1717.55 -2.63026 1.44075 0
M  V30 17577 H 1715.11 -1.35241 0.78356 0
M  V30 17578 H 1715.84 -3.05204 -1.0964 0
M  V30 17579 H 1715.63 -3.89321 0.465972 0
M  V30 17580 H 1717.12 -4.14702 -0.491121 0
M  V30 17581 N 1717.55 -0.769612 -1.37531 0
M  V30 17582 C 1718.52 -0.160716 -2.28636 0
M  V30 17583 C 1719.52 0.630362 -1.47929 0
M  V30 17584 O 1720.71 0.454265 -1.68173 0
M  V30 17585 C 1717.84 0.779904 -3.31859 0
M  V30 17586 H 1719.03 -0.963794 -2.83991 0
M  V30 17587 H 1716.58 -0.537678 -1.46761 0
M  V30 17588 H 1717.32 1.60807 -2.81623 0
M  V30 17589 H 1717.1 0.21485 -3.91511 0
M  V30 17590 H 1718.59 1.20143 -3.99944 0
M  V30 17591 N 1719.03 1.48775 -0.519977 0
M  V30 17592 C 1719.98 2.31123 0.261738 0
M  V30 17593 C 1720.97 1.40595 0.94496 0
M  V30 17594 O 1722.18 1.57552 0.870484 0
M  V30 17595 H 1718.55 0.744875 0.103272 0
M  V30 17596 H 1720.52 2.94949 -0.452514 0
M  V30 17597 C 1719.27 3.22409 1.30184 0
M  V30 17598 H 1718.6 3.92007 0.785524 0
M  V30 17599 H 1720.04 3.82932 1.82042 0
M  V30 17600 C 1718.5 2.43321 2.33016 0
M  V30 17601 O 1719.03 2.15087 3.39265 0
M  V30 17602 N 1717.23 2.04998 2.05971 0
M  V30 17603 H 1716.78 2.2816 1.19586 0
M  V30 17604 H 1716.74 1.52393 2.74998 0
M  V30 17605 N 1720.51 0.254649 1.55529 0
M  V30 17606 C 1721.76 -0.367205 1.98736 0
M  V30 17607 C 1722.08 -1.57899 1.14424 0
M  V30 17608 O 1721.35 -1.94559 0.228849 0
M  V30 17609 H 1719.93 -0.138663 0.734017 0
M  V30 17610 H 1722.59 0.355236 1.91635 0
M  V30 17611 H 1721.69 -0.671069 3.048 0
M  V30 17612 N 1721.99 -1.57589 -0.0183649 0
M  V30 17613 C 1723.21 -1.94421 -0.722172 0
M  V30 17614 C 1723.64 -0.855471 -1.67521 0
M  V30 17615 O 1722.99 0.187954 -1.80323 0
M  V30 17616 C 1723.04 -3.30331 -1.44615 0
M  V30 17617 O 1722.15 -3.23337 -2.55982 0
M  V30 17618 H 1721.49 -0.63519 -0.193466 0
M  V30 17619 H 1724.02 -2.04579 0.0293527 0
M  V30 17620 H 1724.03 -3.65471 -1.8137 0
M  V30 17621 H 1722.7 -4.09132 -0.747256 0
M  V30 17622 H 1721.28 -2.99845 -2.21692 0
M  V30 17623 N 1723.46 0.290824 -1.54893 0
M  V30 17624 C 1724.39 1.36354 -1.89551 0
M  V30 17625 C 1725.38 1.52403 -0.75546 0
M  V30 17626 O 1726.56 1.65743 -1.01208 0
M  V30 17627 C 1723.69 2.72609 -2.15178 0
M  V30 17628 C 1722.64 2.71313 -3.31019 0
M  V30 17629 C 1721.97 4.10952 -3.42085 0
M  V30 17630 C 1723.27 2.32153 -4.6787 0
M  V30 17631 H 1724.96 1.07597 -2.79398 0
M  V30 17632 H 1722.51 0.516154 -1.34432 0
M  V30 17633 H 1724.46 3.47749 -2.3801 0
M  V30 17634 H 1723.19 3.02913 -1.22112 0
M  V30 17635 H 1721.85 1.9863 -3.08126 0
M  V30 17636 H 1721.49 4.38449 -2.46518 0
M  V30 17637 H 1721.19 4.10984 -4.1996 0
M  V30 17638 H 1722.72 4.87857 -3.67189 0
M  V30 17639 H 1724.13 2.97011 -4.90364 0
M  V30 17640 H 1722.53 2.4338 -5.48531 0
M  V30 17641 H 1723.6 1.27279 -4.67897 0
M  V30 17642 N 1724.94 1.47523 0.554506 0
M  V30 17643 C 1726.17 1.58154 1.34172 0
M  V30 17644 C 1726.59 0.233124 1.8665 0
M  V30 17645 O 1725.95 -0.791439 1.63113 0
M  V30 17646 C 1726 2.61242 2.48566 0
M  V30 17647 O 1725.1 2.167 3.50877 0
M  V30 17648 H 1724.44 0.531184 0.398421 0
M  V30 17649 H 1726.97 1.93324 0.669841 0
M  V30 17650 H 1726.98 2.81746 2.95098 0
M  V30 17651 H 1725.66 3.59148 2.09727 0
M  V30 17652 H 1724.24 2.06305 3.10632 0
M  V30 17653 N 1726.42 -0.801453 1.357 0
M  V30 17654 C 1727.67 -1.55392 1.28594 0
M  V30 17655 C 1727.98 -1.95125 -0.136199 0
M  V30 17656 O 1729.19 -2.69492 -0.329568 0
M  V30 17657 C 1727.64 -2.80456 2.2555 0
M  V30 17658 C 1727.25 -2.47939 3.73135 0
M  V30 17659 C 1729 -3.58457 2.27396 0
M  V30 17660 C 1726.9 -3.69326 4.61901 0
M  V30 17661 H 1725.83 -0.583286 0.477801 0
M  V30 17662 H 1728.48 -0.880525 1.60994 0
M  V30 17663 H 1726.87 -3.49532 1.86127 0
M  V30 17664 H 1728.04 -1.86837 4.21223 0
M  V30 17665 H 1726.36 -1.83173 3.73947 0
M  V30 17666 H 1728.95 -4.48625 2.90929 0
M  V30 17667 H 1729.3 -3.96162 1.27912 0
M  V30 17668 H 1729.83 -2.96348 2.65373 0
M  V30 17669 H 1726.57 -3.36726 5.62402 0
M  V30 17670 H 1726.09 -4.29636 4.18536 0
M  V30 17671 H 1727.77 -4.36496 4.77578 0
M  V30 17672 N 1727.9 -1.19782 -1.02421 0
M  V30 17673 C 1728.83 -0.883119 -2.10419 0
M  V30 17674 C 1729.81 0.161733 -1.61794 0
M  V30 17675 O 1730.99 0.037003 -1.88464 0
M  V30 17676 C 1728.12 -0.322524 -3.37161 0
M  V30 17677 C 1727.17 -1.34717 -4.04665 0
M  V30 17678 S 1728 -2.9094 -4.49571 0
M  V30 17679 C 1729.16 -2.36436 -5.79525 0
M  V30 17680 H 1729.39 -1.79772 -2.36789 0
M  V30 17681 H 1726.92 -1.02546 -1.15428 0
M  V30 17682 H 1728.88 -0.00561772 -4.105 0
M  V30 17683 H 1727.54 0.570462 -3.08876 0
M  V30 17684 H 1726.73 -0.904136 -4.95824 0
M  V30 17685 H 1726.34 -1.61116 -3.37517 0
M  V30 17686 H 1728.63 -1.75722 -6.54315 0
M  V30 17687 H 1729.57 -3.25961 -6.28614 0
M  V30 17688 H 1729.98 -1.78841 -5.35421 0
M  V30 17689 N 1729.38 1.21606 -1.00248 0
M  V30 17690 C 1730.61 1.94326 -0.701484 0
M  V30 17691 C 1731.02 1.74148 0.739524 0
M  V30 17692 O 1730.36 1.04364 1.51175 0
M  V30 17693 C 1730.42 3.47005 -0.939568 0
M  V30 17694 C 1730.08 3.90929 -2.36692 0
M  V30 17695 C 1731.08 3.97834 -3.347 0
M  V30 17696 C 1728.77 4.23313 -2.70391 0
M  V30 17697 C 1730.76 4.36511 -4.64475 0
M  V30 17698 C 1728.45 4.61668 -4.00382 0
M  V30 17699 C 1729.45 4.68237 -4.97236 0
M  V30 17700 O 1729.13 5.05719 -6.24903 0
M  V30 17701 H 1728.87 0.624872 -0.257898 0
M  V30 17702 H 1731.42 1.55442 -1.34264 0
M  V30 17703 H 1729.65 3.85947 -0.24124 0
M  V30 17704 H 1731.34 4.00944 -0.632342 0
M  V30 17705 H 1732.1 3.72995 -3.1 0
M  V30 17706 H 1727.98 4.17399 -1.95701 0
M  V30 17707 H 1731.53 4.41553 -5.40071 0
M  V30 17708 H 1727.42 4.8596 -4.24868 0
M  V30 17709 H 1728.19 5.2376 -6.28981 0
M  V30 17710 N 1730.86 0.776895 1.37121 0
M  V30 17711 C 1732.1 0.344063 1.9986 0
M  V30 17712 C 1732.43 -1.07806 1.61529 0
M  V30 17713 O 1731.71 -1.74258 0.863963 0
M  V30 17714 C 1731.99 0.493512 3.56702 0
M  V30 17715 C 1731.85 1.95842 4.04927 0
M  V30 17716 C 1733.16 -0.099097 4.39988 0
M  V30 17717 H 1730.28 0.126489 0.726064 0
M  V30 17718 H 1732.93 0.980899 1.62722 0
M  V30 17719 H 1731.08 -0.0486344 3.8847 0
M  V30 17720 H 1732.75 2.56067 3.83702 0
M  V30 17721 H 1730.99 2.46544 3.56929 0
M  V30 17722 H 1731.66 2.01402 5.13947 0
M  V30 17723 H 1734.14 0.363545 4.14509 0
M  V30 17724 H 1733.01 0.0355748 5.48888 0
M  V30 17725 H 1733.27 -1.18995 4.25785 0
M  V30 17726 N 1732.33 -1.48497 0.527859 0
M  V30 17727 C 1733.28 -2.31258 -0.249477 0
M  V30 17728 C 1734.28 -1.41094 -0.93749 0
M  V30 17729 O 1735.48 -1.58011 -0.862117 0
M  V30 17730 H 1731.86 -0.745412 -0.0993208 0
M  V30 17731 H 1733.83 -2.94705 0.46815 0
M  V30 17732 C 1732.58 -3.23095 -1.28472 0
M  V30 17733 H 1731.9 -3.92418 -0.764724 0
M  V30 17734 H 1733.34 -3.83892 -1.80008 0
M  V30 17735 C 1731.8 -2.44554 -2.31722 0
M  V30 17736 O 1732.33 -2.16883 -3.38119 0
M  V30 17737 N 1730.53 -2.06088 -2.04881 0
M  V30 17738 H 1730.08 -2.28791 -1.18374 0
M  V30 17739 H 1730.04 -1.53849 -2.74186 0
M  V30 17740 N 1733.81 -0.262893 -1.55392 0
M  V30 17741 C 1735.06 0.35666 -1.98928 0
M  V30 17742 C 1735.38 1.5729 -1.1526 0
M  V30 17743 O 1734.65 1.94435 -0.239164 0
M  V30 17744 H 1733.23 0.134768 -0.734742 0
M  V30 17745 H 1735.89 -0.365394 -1.91444 0
M  V30 17746 H 1734.99 0.654895 -3.05152 0
M  V30 17747 N 1735.29 1.57597 0.0100073 0
M  V30 17748 C 1736.57 1.81329 0.733415 0
M  V30 17749 C 1736.95 0.865495 1.92542 0
M  V30 17750 O 1736.29 -0.088073 2.2833 0
M  V30 17751 C 1736.5 3.29559 1.14856 0
M  V30 17752 C 1737.85 3.95039 1.55658 0
M  V30 17753 O 1738.88 3.33822 1.24262 0
M  V30 17754 O 1737.74 5.02858 2.13999 0
M  V30 17755 H 1734.83 0.746334 0.35625 0
M  V30 17756 H 1737.38 1.69694 -0.0146791 0
M  V30 17757 H 1736.15 3.9016 0.298467 0
M  V30 17758 H 1735.77 3.46156 1.95607 0
M  V30 17759 N 1736.77 -0.282606 1.55045 0
M  V30 17760 C 1737.71 -1.34908 1.87266 0
M  V30 17761 C 1738.68 -1.49528 0.72323 0
M  V30 17762 O 1739.87 -1.6409 0.973602 0
M  V30 17763 C 1737.01 -2.70603 2.14168 0
M  V30 17764 C 1736.12 -2.64284 3.41728 0
M  V30 17765 C 1735.26 -3.92094 3.58379 0
M  V30 17766 C 1734.3 -3.80246 4.79666 0
M  V30 17767 N 1733.43 -4.99871 4.93025 0
M  V30 17768 H 1738.27 -1.06731 2.78231 0
M  V30 17769 H 1735.81 -0.515845 1.37759 0
M  V30 17770 H 1737.77 -3.49542 2.27763 0
M  V30 17771 H 1736.4 -2.97003 1.26448 0
M  V30 17772 H 1735.45 -1.77108 3.36656 0
M  V30 17773 H 1736.76 -2.51425 4.30798 0
M  V30 17774 H 1735.92 -4.79473 3.7174 0
M  V30 17775 H 1734.66 -4.07808 2.67476 0
M  V30 17776 H 1733.66 -2.91251 4.66319 0
M  V30 17777 H 1734.89 -3.6606 5.71994 0
M  V30 17778 H 1732.83 -5.16014 4.0505 0
M  V30 17779 H 1732.75 -4.89507 5.76124 0
M  V30 17780 H 1734.02 -5.88849 5.10761 0
M  V30 17781 N 1738.25 -1.47815 -0.546675 0
M  V30 17782 C 1739.49 -1.56566 -1.31402 0
M  V30 17783 C 1739.85 -0.227101 -1.90652 0
M  V30 17784 O 1741.05 -0.189506 -2.68131 0
M  V30 17785 C 1739.32 -2.6603 -2.38669 0
M  V30 17786 S 1740.88 -2.94436 -3.25351 0
M  V30 17787 H 1737.7 -0.552748 -0.447203 0
M  V30 17788 H 1740.3 -1.85251 -0.624688 0
M  V30 17789 H 1739 -3.6187 -1.93593 0
M  V30 17790 H 1738.54 -2.39193 -3.1233 0
M  V30 17791 H 1740.55 -2.32455 -4.38382 0
M  V30 17792 N 1739.72 0.794246 -1.36123 0
M  V30 17793 C 1740.97 1.54885 -1.29827 0
M  V30 17794 C 1741.29 1.94608 0.123517 0
M  V30 17795 O 1740.56 1.6457 1.06272 0
M  V30 17796 H 1739.14 0.574398 -0.477573 0
M  V30 17797 H 1741.8 0.946658 -1.70365 0
M  V30 17798 H 1740.9 2.45863 -1.92244 0
M  V30 17799 N 1741.2 1.20323 1.01785 0
M  V30 17800 C 1742.15 0.947754 2.12416 0
M  V30 17801 C 1743.14 -0.100443 1.69102 0
M  V30 17802 O 1744.35 0.0498028 1.79931 0
M  V30 17803 H 1740.72 0.289148 0.694188 0
M  V30 17804 H 1742.7 1.88714 2.31149 0
M  V30 17805 C 1741.44 0.51503 3.43864 0
M  V30 17806 H 1740.77 1.31318 3.77618 0
M  V30 17807 H 1742.21 0.375476 4.22334 0
M  V30 17808 C 1740.67 -0.772413 3.27926 0
M  V30 17809 O 1741.2 -1.83115 3.57536 0
M  V30 17810 N 1739.4 -0.733948 2.81179 0
M  V30 17811 H 1738.95 0.127902 2.57282 0
M  V30 17812 H 1738.91 -1.59571 2.70896 0
M  V30 17813 N 1742.68 -1.21073 1.00892 0
M  V30 17814 C 1743.61 -2.22968 0.530841 0
M  V30 17815 C 1744.62 -1.58239 -0.382664 0
M  V30 17816 O 1745.81 -1.77567 -0.182237 0
M  V30 17817 C 1742.91 -3.37991 -0.248096 0
M  V30 17818 C 1742.09 -4.32309 0.665439 0
M  V30 17819 C 1741.15 -5.2616 -0.0645731 0
M  V30 17820 O 1740.17 -5.66484 0.555383 0
M  V30 17821 N 1741.37 -5.64777 -1.3419 0
M  V30 17822 H 1744.14 -2.64614 1.4071 0
M  V30 17823 H 1741.7 -1.35536 0.885528 0
M  V30 17824 H 1743.69 -3.97774 -0.745513 0
M  V30 17825 H 1742.26 -2.95297 -1.02558 0
M  V30 17826 H 1741.48 -3.70607 1.34329 0
M  V30 17827 H 1742.77 -4.92254 1.28701 0
M  V30 17828 H 1742.17 -5.34016 -1.86664 0
M  V30 17829 H 1740.72 -6.26905 -1.78419 0
M  V30 17830 N 1744.16 -0.784156 -1.36707 0
M  V30 17831 C 1745.57 -0.465219 -1.52669 0
M  V30 17832 C 1745.77 1.01729 -1.73935 0
M  V30 17833 O 1744.83 1.80289 -1.76783 0
M  V30 17834 C 1746.14 -1.29109 -2.71572 0
M  V30 17835 C 1747.69 -1.28424 -2.8544 0
M  V30 17836 C 1748.17 -2.09373 -4.07341 0
M  V30 17837 N 1749.66 -2.06792 -4.14477 0
M  V30 17838 C 1750.39 -2.66199 -5.07864 0
M  V30 17839 N 1749.89 -3.34445 -6.06728 0
M  V30 17840 N 1751.68 -2.55962 -5.0044 0
M  V30 17841 H 1743.83 -1.74456 -1.21156 0
M  V30 17842 H 1746.1 -0.741286 -0.59093 0
M  V30 17843 H 1745.8 -2.34219 -2.62363 0
M  V30 17844 H 1745.68 -0.928764 -3.65587 0
M  V30 17845 H 1748.06 -0.241077 -2.94114 0
M  V30 17846 H 1748.14 -1.68629 -1.92348 0
M  V30 17847 H 1747.79 -3.13718 -3.99429 0
M  V30 17848 H 1747.72 -1.66542 -4.99571 0
M  V30 17849 H 1750.21 -1.57118 -3.43689 0
M  V30 17850 H 1750.52 -3.77118 -6.74538 0
M  V30 17851 H 1748.87 -3.38546 -6.06969 0
M  V30 17852 H 1752.06 -2.02251 -4.22152 0
M  V30 17853 H 1752.23 -3.02553 -5.73032 0
M  V30 17854 N 1745.64 1.48215 -0.535727 0
M  V30 17855 C 1746.88 2.025 -0.00372753 0
M  V30 17856 C 1747.21 1.41227 1.33735 0
M  V30 17857 O 1746.47 0.549544 1.87826 0
M  V30 17858 C 1746.77 3.57036 0.161344 0
M  V30 17859 C 1746.43 4.37122 -1.10611 0
M  V30 17860 C 1745.09 4.58724 -1.45346 0
M  V30 17861 C 1747.45 4.83469 -1.94698 0
M  V30 17862 C 1744.77 5.2392 -2.64055 0
M  V30 17863 C 1747.13 5.49973 -3.1259 0
M  V30 17864 C 1745.79 5.69812 -3.47664 0
M  V30 17865 H 1745.06 0.740999 -0.001364 0
M  V30 17866 H 1747.71 1.78133 -0.70291 0
M  V30 17867 H 1746.01 3.80274 0.943337 0
M  V30 17868 H 1747.71 3.96666 0.587981 0
M  V30 17869 H 1744.3 4.20573 -0.825608 0
M  V30 17870 H 1748.48 4.66577 -1.69173 0
M  V30 17871 H 1743.74 5.37477 -2.91424 0
M  V30 17872 H 1747.91 5.84852 -3.78049 0
M  V30 17873 H 1745.54 6.20103 -4.39746 0
M  V30 17874 N 1747.11 0.27113 1.5525 0
M  V30 17875 C 1748.34 -0.353138 2.04371 0
M  V30 17876 C 1748.76 -1.48978 1.14835 0
M  V30 17877 O 1748.12 -1.8071 0.146138 0
M  V30 17878 C 1748.17 -0.815425 3.51259 0
M  V30 17879 O 1747.27 -1.92302 3.6482 0
M  V30 17880 H 1746.62 -0.0736207 0.659906 0
M  V30 17881 H 1749.15 0.404266 2.00566 0
M  V30 17882 H 1749.16 -1.11224 3.92547 0
M  V30 17883 H 1747.83 0.0162079 4.15897 0
M  V30 17884 H 1746.41 -1.62904 3.35435 0
M  V30 17885 N 1748.59 -1.576 -0.00164943 0
M  V30 17886 C 1749.82 -1.94775 -0.697872 0
M  V30 17887 C 1750.24 -0.873094 -1.67399 0
M  V30 17888 O 1749.59 0.148119 -1.81898 0
M  V30 17889 C 1749.64 -3.31963 -1.43117 0
M  V30 17890 O 1749.36 -4.35304 -0.494203 0
M  V30 17891 C 1750.87 -3.83588 -2.22206 0
M  V30 17892 H 1748.09 -0.6422 -0.194474 0
M  V30 17893 H 1750.63 -2.04441 0.04898 0
M  V30 17894 H 1748.78 -3.2361 -2.12967 0
M  V30 17895 H 1749.2 -5.14656 -1.0114 0
M  V30 17896 H 1750.67 -4.82012 -2.69014 0
M  V30 17897 H 1751.15 -3.16208 -3.0481 0
M  V30 17898 H 1751.76 -3.95111 -1.57376 0
M  V30 17899 N 1750.07 0.274379 -1.55193 0
M  V30 17900 C 1751.49 0.621497 -1.47002 0
M  V30 17901 C 1751.69 1.89572 -0.682995 0
M  V30 17902 O 1750.74 2.51696 -0.201296 0
M  V30 17903 C 1752.06 0.749741 -2.91203 0
M  V30 17904 C 1753.6 0.843886 -3.01409 0
M  V30 17905 C 1754.08 1.00392 -4.46862 0
M  V30 17906 N 1755.57 1.06947 -4.50684 0
M  V30 17907 C 1756.3 1.21207 -5.60443 0
M  V30 17908 N 1755.8 1.32195 -6.80071 0
M  V30 17909 N 1757.59 1.24307 -5.48183 0
M  V30 17910 H 1749.74 -0.562462 -2.04817 0
M  V30 17911 H 1752.01 -0.190205 -0.928723 0
M  V30 17912 H 1751.71 -0.116074 -3.51508 0
M  V30 17913 H 1751.59 1.63046 -3.40141 0
M  V30 17914 H 1753.97 1.70017 -2.41202 0
M  V30 17915 H 1754.06 -0.061411 -2.55726 0
M  V30 17916 H 1753.7 0.152298 -5.07672 0
M  V30 17917 H 1753.63 1.92384 -4.902 0
M  V30 17918 H 1756.12 0.997012 -3.64511 0
M  V30 17919 H 1756.43 1.42906 -7.59472 0
M  V30 17920 H 1754.78 1.29202 -6.82885 0
M  V30 17921 H 1757.97 1.15352 -4.53665 0
M  V30 17922 H 1758.14 1.35076 -6.33765 0
M  V30 17923 N 1751.55 1.48103 0.538828 0
M  V30 17924 C 1752.8 1.54925 1.29156 0
M  V30 17925 C 1753.11 0.224177 1.94311 0
M  V30 17926 O 1754.32 0.170559 2.70964 0
M  V30 17927 C 1752.77 2.73184 2.34304 0
M  V30 17928 C 1752.38 4.12297 1.75257 0
M  V30 17929 C 1754.12 2.89313 3.10642 0
M  V30 17930 C 1752.03 5.2183 2.78294 0
M  V30 17931 H 1750.96 0.576723 0.485702 0
M  V30 17932 H 1753.61 1.74418 0.570142 0
M  V30 17933 H 1751.99 2.47107 3.09441 0
M  V30 17934 H 1753.17 4.48355 1.06368 0
M  V30 17935 H 1751.48 4.0121 1.11442 0
M  V30 17936 H 1754.08 3.68313 3.87621 0
M  V30 17937 H 1754.42 1.98438 3.65962 0
M  V30 17938 H 1754.96 3.15248 2.42618 0
M  V30 17939 H 1751.7 6.14642 2.27805 0
M  V30 17940 H 1751.22 4.90269 3.45537 0
M  V30 17941 H 1752.89 5.49567 3.41446 0
M  V30 17942 N 1753.03 -0.787016 1.36542 0
M  V30 17943 C 1754.25 -1.57588 1.34065 0
M  V30 17944 C 1754.67 -1.88641 -0.0775397 0
M  V30 17945 O 1754.03 -1.50306 -1.03511 0
M  V30 17946 C 1754.08 -2.89543 2.16442 0
M  V30 17947 O 1753.8 -2.59828 3.52734 0
M  V30 17948 C 1755.3 -3.83838 2.21773 0
M  V30 17949 H 1752.52 -0.488708 0.459789 0
M  V30 17950 H 1755.06 -0.976614 1.79673 0
M  V30 17951 H 1753.22 -3.45933 1.74383 0
M  V30 17952 H 1753.63 -3.44219 3.95744 0
M  V30 17953 H 1755.11 -4.73478 2.83765 0
M  V30 17954 H 1755.58 -4.21862 1.22185 0
M  V30 17955 H 1756.19 -3.33381 2.64078 0
M  V30 17956 N 1754.5 -1.20861 -1.01145 0
M  V30 17957 C 1755.75 -1.02191 -1.74823 0
M  V30 17958 C 1756.08 0.445357 -1.89333 0
M  V30 17959 O 1755.33 1.34684 -1.41982 0
M  V30 17960 C 1755.63 -1.65666 -3.16685 0
M  V30 17961 C 1755.3 -3.15494 -3.2214 0
M  V30 17962 C 1753.96 -3.56381 -3.23336 0
M  V30 17963 C 1756.31 -4.11481 -3.19895 0
M  V30 17964 C 1753.64 -4.91772 -3.19964 0
M  V30 17965 C 1755.99 -5.46826 -3.18064 0
M  V30 17966 C 1754.66 -5.87118 -3.17566 0
M  V30 17967 H 1753.93 -0.373945 -0.639724 0
M  V30 17968 H 1756.57 -1.50361 -1.18592 0
M  V30 17969 H 1754.88 -1.09772 -3.76108 0
M  V30 17970 H 1756.58 -1.4873 -3.72398 0
M  V30 17971 H 1753.17 -2.82926 -3.21948 0
M  V30 17972 H 1757.35 -3.80924 -3.18136 0
M  V30 17973 H 1752.61 -5.22247 -3.17913 0
M  V30 17974 H 1756.78 -6.20945 -3.15279 0
M  V30 17975 H 1754.41 -6.92 -3.14707 0
M  V30 17976 N 1755.98 1.20536 -1.01532 0
M  V30 17977 C 1756.89 2.26953 -0.594109 0
M  V30 17978 C 1757.91 1.70069 0.367771 0
M  V30 17979 O 1759.08 2.00093 0.229036 0
M  V30 17980 C 1756.15 3.46644 0.0622939 0
M  V30 17981 C 1755.21 4.18762 -0.945368 0
M  V30 17982 C 1754.44 5.32739 -0.320195 0
M  V30 17983 O 1754.67 5.63565 0.880407 0
M  V30 17984 O 1753.6 5.92912 -1.03629 0
M  V30 17985 H 1757.43 2.65196 -1.48003 0
M  V30 17986 H 1755.01 1.2713 -0.784752 0
M  V30 17987 H 1756.89 4.19211 0.428952 0
M  V30 17988 H 1755.57 3.10279 0.922428 0
M  V30 17989 H 1754.48 3.48372 -1.36337 0
M  V30 17990 H 1755.81 4.59064 -1.77543 0
M  V30 17991 N 1757.46 0.791395 1.36289 0
M  V30 17992 C 1758.7 0.370134 2.01021 0
M  V30 17993 C 1759.06 -1.03918 1.61447 0
M  V30 17994 O 1760.27 -1.56163 2.18784 0
M  V30 17995 C 1758.54 0.530868 3.53435 0
M  V30 17996 S 1760.1 0.197778 4.38354 0
M  V30 17997 H 1756.91 0.141315 0.696815 0
M  V30 17998 H 1759.52 1.03032 1.66147 0
M  V30 17999 H 1758.22 1.55683 3.79725 0
M  V30 18000 H 1757.75 -0.14518 3.93132 0
M  V30 18001 H 1759.77 -0.999956 4.8602 0
M  V30 18002 N 1758.94 -1.47929 0.54358 0
M  V30 18003 C 1759.9 -2.28316 -0.201107 0
M  V30 18004 C 1760.9 -1.36165 -0.855313 0
M  V30 18005 O 1762.09 -1.58928 -0.71327 0
M  V30 18006 C 1759.22 -3.1545 -1.29245 0
M  V30 18007 H 1760.42 -2.9562 0.504848 0
M  V30 18008 H 1757.97 -1.53394 0.300011 0
M  V30 18009 H 1758.71 -2.52807 -2.03124 0
M  V30 18010 H 1758.49 -3.83251 -0.82832 0
M  V30 18011 H 1759.98 -3.76053 -1.81587 0
M  V30 18012 N 1760.42 -0.27936 -1.55104 0
M  V30 18013 C 1761.35 0.639572 -2.20096 0
M  V30 18014 C 1762.36 1.11423 -1.18696 0
M  V30 18015 O 1763.55 1.0354 -1.45402 0
M  V30 18016 C 1760.65 1.88494 -2.81644 0
M  V30 18017 C 1759.82 1.55639 -4.08773 0
M  V30 18018 C 1758.88 2.65466 -4.54328 0
M  V30 18019 O 1757.91 2.31473 -5.20008 0
M  V30 18020 N 1759.11 3.95606 -4.24825 0
M  V30 18021 H 1761.88 0.0833048 -2.99584 0
M  V30 18022 H 1759.44 -0.100637 -1.61587 0
M  V30 18023 H 1761.43 2.61272 -3.09062 0
M  V30 18024 H 1760 2.35015 -2.06123 0
M  V30 18025 H 1759.22 0.662253 -3.88597 0
M  V30 18026 H 1760.51 1.31196 -4.91594 0
M  V30 18027 H 1759.91 4.26043 -3.72161 0
M  V30 18028 H 1758.46 4.64748 -4.57004 0
M  V30 18029 N 1761.9 1.57599 -0.0067085 0
M  V30 18030 C 1763.14 1.90036 0.675957 0
M  V30 18031 C 1763.46 0.882449 1.74563 0
M  V30 18032 O 1764.66 1.09728 2.48339 0
M  V30 18033 C 1763.12 3.37366 1.25349 0
M  V30 18034 C 1762.73 4.47468 0.218284 0
M  V30 18035 C 1764.47 3.78904 1.91396 0
M  V30 18036 C 1762.38 5.85879 0.806182 0
M  V30 18037 H 1761.31 0.709125 0.256237 0
M  V30 18038 H 1763.96 1.83373 -0.0683502 0
M  V30 18039 H 1762.34 3.38888 2.04868 0
M  V30 18040 H 1763.52 4.57472 -0.552808 0
M  V30 18041 H 1761.83 4.14992 -0.342131 0
M  V30 18042 H 1764.43 4.79654 2.36297 0
M  V30 18043 H 1764.77 3.12773 2.74734 0
M  V30 18044 H 1765.3 3.79709 1.186 0
M  V30 18045 H 1762.04 6.55499 0.0114275 0
M  V30 18046 H 1761.56 5.79526 1.54628 0
M  V30 18047 H 1763.24 6.33748 1.30278 0
M  V30 18048 N 1763.37 -0.266145 1.55336 0
M  V30 18049 C 1764.6 -1.01915 1.80633 0
M  V30 18050 C 1765.02 -1.78897 0.581172 0
M  V30 18051 O 1764.38 -1.75118 -0.469399 0
M  V30 18052 C 1764.43 -1.948 3.03456 0
M  V30 18053 O 1763.53 -3.03678 2.79022 0
M  V30 18054 H 1762.87 -0.29102 0.596828 0
M  V30 18055 H 1765.4 -0.292973 2.02492 0
M  V30 18056 H 1765.41 -2.36626 3.32373 0
M  V30 18057 H 1764.09 -1.38182 3.92273 0
M  V30 18058 H 1762.67 -2.66118 2.61219 0
M  V30 18059 N 1764.85 -1.48386 -0.530967 0
M  V30 18060 C 1766.1 -1.56045 -1.28431 0
M  V30 18061 C 1766.42 -0.235695 -1.9357 0
M  V30 18062 O 1765.69 0.742677 -1.81276 0
M  V30 18063 H 1764.27 -0.574868 -0.477007 0
M  V30 18064 H 1766.93 -1.84844 -0.617955 0
M  V30 18065 H 1766.03 -2.34096 -2.0641 0
M  V30 18066 N 1766.33 0.779763 -1.36958 0
M  V30 18067 C 1767.55 1.57389 -1.35068 0
M  V30 18068 C 1767.98 1.87993 0.0635244 0
M  V30 18069 O 1767.34 1.48625 1.03828 0
M  V30 18070 C 1767.39 2.86582 -2.18868 0
M  V30 18071 O 1766.49 3.80609 -1.58779 0
M  V30 18072 H 1765.83 0.477052 -0.461863 0
M  V30 18073 H 1768.36 0.965741 -1.80373 0
M  V30 18074 H 1768.37 3.35761 -2.31794 0
M  V30 18075 H 1767.05 2.63635 -3.21666 0
M  V30 18076 H 1765.62 3.39229 -1.54848 0
M  V30 18077 N 1767.81 1.21396 1.00503 0
M  V30 18078 C 1769.22 1.02983 1.55728 0
M  V30 18079 C 1769.57 -0.410383 1.9186 0
M  V30 18080 O 1768.69 -1.29358 1.7348 0
M  V30 18081 C 1769.29 1.86316 2.8297 0
M  V30 18082 C 1767.85 1.72235 3.34682 0
M  V30 18083 C 1767 1.8353 2.07875 0
M  V30 18084 H 1769.95 1.35418 0.827499 0
M  V30 18085 H 1769.97 1.37339 3.5485 0
M  V30 18086 H 1769.48 2.91131 2.56641 0
M  V30 18087 H 1767.58 0.701047 3.65945 0
M  V30 18088 H 1767.69 2.54198 4.06103 0
M  V30 18089 H 1766.06 1.26838 2.20872 0
M  V30 18090 H 1766.84 2.89852 1.83958 0
M  V30 18091 N 1769.29 -1.19996 1.0217 0
M  V30 18092 C 1770.25 -2.21179 0.601036 0
M  V30 18093 C 1771.25 -1.57345 -0.331531 0
M  V30 18094 O 1772.44 -1.73789 -0.119521 0
M  V30 18095 C 1769.57 -3.40683 -0.121557 0
M  V30 18096 H 1770.76 -2.5991 1.49622 0
M  V30 18097 H 1768.32 -1.33548 0.812071 0
M  V30 18098 H 1769.05 -3.07461 -1.03142 0
M  V30 18099 H 1768.84 -3.88245 0.548448 0
M  V30 18100 H 1770.33 -4.1565 -0.403046 0
M  V30 18101 N 1770.76 -0.798611 -1.35867 0
M  V30 18102 C 1772.01 -0.37526 -1.98993 0
M  V30 18103 C 1772.34 1.05549 -1.6337 0
M  V30 18104 O 1771.59 1.74552 -0.88488 0
M  V30 18105 C 1771.89 -0.496572 -3.53934 0
M  V30 18106 C 1771.56 -1.88946 -4.09402 0
M  V30 18107 C 1770.22 -2.27056 -4.24263 0
M  V30 18108 C 1772.57 -2.8011 -4.39531 0
M  V30 18109 C 1769.9 -3.55712 -4.66568 0
M  V30 18110 C 1772.25 -4.08205 -4.83272 0
M  V30 18111 C 1770.92 -4.46323 -4.96338 0
M  V30 18112 H 1770.19 -0.137317 -0.728165 0
M  V30 18113 H 1772.83 -1.01786 -1.6221 0
M  V30 18114 H 1771.14 0.229499 -3.91127 0
M  V30 18115 H 1772.84 -0.149903 -4.0072 0
M  V30 18116 H 1769.43 -1.58336 -3.98281 0
M  V30 18117 H 1773.61 -2.51919 -4.2761 0
M  V30 18118 H 1768.87 -3.85105 -4.74873 0
M  V30 18119 H 1773.04 -4.78952 -5.05547 0
M  V30 18120 H 1770.67 -5.4607 -5.28877 0
M  V30 18121 N 1772.24 1.47639 -0.551417 0
M  V30 18122 C 1773.17 2.27972 0.236919 0
M  V30 18123 C 1774.19 1.3666 0.884752 0
M  V30 18124 O 1775.38 1.61532 0.75958 0
M  V30 18125 C 1772.48 3.10738 1.3526 0
M  V30 18126 C 1771.65 4.29972 0.802659 0
M  V30 18127 C 1770.71 4.94379 1.80212 0
M  V30 18128 O 1769.73 5.52946 1.35053 0
M  V30 18129 N 1770.94 4.8855 3.13526 0
M  V30 18130 H 1773.7 2.9627 -0.452154 0
M  V30 18131 H 1771.26 1.57204 -0.387116 0
M  V30 18132 H 1773.25 3.50692 2.01983 0
M  V30 18133 H 1771.82 2.44721 1.945 0
M  V30 18134 H 1771.04 3.94178 -0.0411825 0
M  V30 18135 H 1772.33 5.07109 0.41448 0
M  V30 18136 H 1771.73 4.42157 3.52865 0
M  V30 18137 H 1770.29 5.32541 3.75823 0
M  V30 18138 N 1773.72 0.287581 1.54954 0
M  V30 18139 C 1774.65 -0.587855 2.25979 0
M  V30 18140 C 1775.63 -1.14884 1.25442 0
M  V30 18141 O 1776.82 -1.18067 1.54188 0
M  V30 18142 C 1773.95 -1.76618 2.99037 0
M  V30 18143 C 1772.9 -1.33617 4.06609 0
M  V30 18144 C 1772.23 -2.59859 4.67309 0
M  V30 18145 C 1773.53 -0.477219 5.20115 0
M  V30 18146 H 1775.22 0.00450183 2.994 0
M  V30 18147 H 1772.77 0.00360521 1.44 0
M  V30 18148 H 1774.72 -2.38461 3.4744 0
M  V30 18149 H 1773.44 -2.38457 2.23172 0
M  V30 18150 H 1772.1 -0.74088 3.59036 0
M  V30 18151 H 1771.75 -3.19983 3.88098 0
M  V30 18152 H 1771.45 -2.31793 5.3995 0
M  V30 18153 H 1772.97 -3.22528 5.18467 0
M  V30 18154 H 1774.39 -1.00096 5.64494 0
M  V30 18155 H 1772.79 -0.290913 5.99394 0
M  V30 18156 H 1773.86 0.500993 4.82305 0
M  V30 18157 N 1775.2 -1.57593 0.0150662 0
M  V30 18158 C 1776.13 -2.06239 -0.999912 0
M  V30 18159 C 1777.14 -0.983112 -1.29764 0
M  V30 18160 O 1778.33 -1.25961 -1.26476 0
M  V30 18161 C 1775.43 -2.46011 -2.33092 0
M  V30 18162 C 1774.61 -3.76851 -2.2204 0
M  V30 18163 C 1773.66 -4.03326 -3.37956 0
M  V30 18164 O 1772.69 -4.73781 -3.15469 0
M  V30 18165 N 1773.89 -3.52399 -4.61298 0
M  V30 18166 H 1776.66 -2.93936 -0.584952 0
M  V30 18167 H 1774.22 -1.60984 -0.172001 0
M  V30 18168 H 1776.21 -2.60825 -3.09439 0
M  V30 18169 H 1774.78 -1.63753 -2.66277 0
M  V30 18170 H 1774 -3.71969 -1.30509 0
M  V30 18171 H 1775.29 -4.626 -2.11845 0
M  V30 18172 H 1774.69 -2.95374 -4.82463 0
M  V30 18173 H 1773.24 -3.72516 -5.3486 0
M  V30 18174 N 1776.68 0.257904 -1.55475 0
M  V30 18175 C 1777.95 1.00965 -1.67528 0
M  V30 18176 C 1778.33 2.03763 -0.551694 0
M  V30 18177 O 1777.68 2.24099 0.446314 0
M  V30 18178 C 1777.89 1.65289 -3.07377 0
M  V30 18179 C 1779.24 2.15888 -3.65619 0
M  V30 18180 O 1780.26 1.7525 -3.10106 0
M  V30 18181 O 1779.12 2.90471 -4.62913 0
M  V30 18182 H 1776.22 0.469266 -0.680969 0
M  V30 18183 H 1778.76 0.252562 -1.6781 0
M  V30 18184 H 1777.53 0.908769 -3.80601 0
M  V30 18185 H 1777.16 2.47646 -3.11058 0
M  V30 18186 N 1778.15 1.48666 0.52309 0
M  V30 18187 C 1779.4 1.56724 1.27601 0
M  V30 18188 C 1779.72 0.245958 1.93443 0
M  V30 18189 O 1778.99 -0.733053 1.81668 0
M  V30 18190 H 1777.57 0.57739 0.473952 0
M  V30 18191 H 1780.24 1.85169 0.608144 0
M  V30 18192 H 1779.33 2.35188 2.05166 0
M  V30 18193 N 1779.63 -0.772489 1.37369 0
M  V30 18194 C 1780.87 -1.54405 1.33935 0
M  V30 18195 C 1781.24 -1.9185 -0.0757718 0
M  V30 18196 O 1782.44 -2.67772 -0.234832 0
M  V30 18197 C 1780.71 -2.77561 2.25154 0
M  V30 18198 S 1782.27 -3.67634 2.39564 0
M  V30 18199 H 1779.09 -0.52862 0.475481 0
M  V30 18200 H 1781.69 -0.908446 1.73111 0
M  V30 18201 H 1780.39 -2.4813 3.26894 0
M  V30 18202 H 1779.92 -3.46081 1.87059 0
M  V30 18203 H 1781.94 -4.69502 1.60567 0
M  V30 18204 N 1781.11 -1.21927 -0.998575 0
M  V30 18205 C 1782.02 -1.00049 -2.12197 0
M  V30 18206 C 1783.04 0.0494414 -1.7393 0
M  V30 18207 O 1784.21 -0.142033 -2.00899 0
M  V30 18208 C 1781.28 -0.574871 -3.41901 0
M  V30 18209 C 1780.34 -1.69776 -3.94303 0
M  V30 18210 C 1779.57 -1.29236 -5.17816 0
M  V30 18211 O 1779.79 -0.168709 -5.7015 0
M  V30 18212 O 1778.73 -2.10671 -5.63827 0
M  V30 18213 H 1782.55 -1.94154 -2.33534 0
M  V30 18214 H 1780.14 -1.00472 -1.10571 0
M  V30 18215 H 1782.02 -0.347603 -4.19964 0
M  V30 18216 H 1780.7 0.337389 -3.21937 0
M  V30 18217 H 1779.6 -1.9795 -3.17438 0
M  V30 18218 H 1780.94 -2.58768 -4.18688 0
M  V30 18219 N 1782.59 1.19452 -1.02805 0
M  V30 18220 C 1783.82 1.92795 -0.742546 0
M  V30 18221 C 1784.23 1.75678 0.702418 0
M  V30 18222 O 1783.57 1.07547 1.48927 0
M  V30 18223 C 1783.63 3.44934 -1.01296 0
M  V30 18224 C 1783.3 3.85821 -2.44931 0
M  V30 18225 C 1784.29 3.90645 -3.43063 0
M  V30 18226 C 1781.98 4.17483 -2.79309 0
M  V30 18227 C 1783.97 4.26561 -4.73629 0
M  V30 18228 C 1781.66 4.53071 -4.10085 0
M  V30 18229 C 1782.66 4.57584 -5.07056 0
M  V30 18230 O 1782.34 4.9235 -6.35489 0
M  V30 18231 H 1782.08 0.619261 -0.271094 0
M  V30 18232 H 1784.63 1.5256 -1.37531 0
M  V30 18233 H 1782.86 3.85348 -0.323051 0
M  V30 18234 H 1784.55 3.99513 -0.717246 0
M  V30 18235 H 1785.32 3.66335 -3.17842 0
M  V30 18236 H 1781.19 4.13154 -2.0451 0
M  V30 18237 H 1784.74 4.29998 -5.49315 0
M  V30 18238 H 1780.64 4.76839 -4.3508 0
M  V30 18239 H 1781.4 5.10301 -6.39949 0
M  V30 18240 N 1784.07 0.805805 1.35442 0
M  V30 18241 C 1785.31 0.386379 1.99085 0
M  V30 18242 C 1785.65 -1.04356 1.63779 0
M  V30 18243 O 1784.92 -1.72386 0.900731 0
M  V30 18244 C 1785.2 0.569062 3.55575 0
M  V30 18245 C 1785.06 2.04387 4.00682 0
M  V30 18246 C 1786.38 -0.00574668 4.401 0
M  V30 18247 H 1783.49 0.141862 0.723218 0
M  V30 18248 H 1786.14 1.01519 1.60605 0
M  V30 18249 H 1784.29 0.0337767 3.88485 0
M  V30 18250 H 1785.96 2.64148 3.78184 0
M  V30 18251 H 1784.2 2.54059 3.5162 0
M  V30 18252 H 1784.87 2.12258 5.09559 0
M  V30 18253 H 1787.35 0.451387 4.13644 0
M  V30 18254 H 1786.22 0.151994 5.4869 0
M  V30 18255 H 1786.49 -1.09937 4.28213 0
M  V30 18256 N 1785.54 -1.47344 0.559239 0
M  V30 18257 C 1786.79 -2.02468 0.035943 0
M  V30 18258 C 1787.12 -1.43337 -1.31472 0
M  V30 18259 O 1786.37 -0.579355 -1.86928 0
M  V30 18260 C 1786.67 -3.57247 -0.104523 0
M  V30 18261 C 1786.34 -4.35307 1.17551 0
M  V30 18262 C 1785 -4.56354 1.52625 0
M  V30 18263 C 1787.35 -4.8031 2.02365 0
M  V30 18264 C 1784.68 -5.19653 2.72356 0
M  V30 18265 C 1787.03 -5.4493 3.213 0
M  V30 18266 C 1785.7 -5.64209 3.56685 0
M  V30 18267 H 1784.97 -0.740883 0.0131525 0
M  V30 18268 H 1787.61 -1.76992 0.73116 0
M  V30 18269 H 1785.92 -3.81727 -0.88272 0
M  V30 18270 H 1787.62 -3.97551 -0.5248 0
M  V30 18271 H 1784.21 -4.19206 0.892413 0
M  V30 18272 H 1788.39 -4.63827 1.76575 0
M  V30 18273 H 1783.65 -5.32773 2.99938 0
M  V30 18274 H 1787.82 -5.78764 3.87305 0
M  V30 18275 H 1785.45 -6.13028 4.49556 0
M  V30 18276 N 1787.02 -0.295795 -1.54799 0
M  V30 18277 C 1788.27 0.315754 -1.99213 0
M  V30 18278 C 1788.58 1.55405 -1.18779 0
M  V30 18279 O 1789.79 2.23986 -1.53436 0
M  V30 18280 C 1788.25 0.613119 -3.54639 0
M  V30 18281 C 1787.85 -0.606546 -4.43875 0
M  V30 18282 C 1789.6 1.18615 -4.07591 0
M  V30 18283 C 1787.51 -0.282622 -5.90724 0
M  V30 18284 H 1786.44 0.121758 -0.744104 0
M  V30 18285 H 1789.09 -0.403686 -1.79005 0
M  V30 18286 H 1787.47 1.39202 -3.70728 0
M  V30 18287 H 1788.64 -1.3829 -4.39559 0
M  V30 18288 H 1786.96 -1.09785 -4.01667 0
M  V30 18289 H 1789.55 1.44266 -5.1487 0
M  V30 18290 H 1789.9 2.12674 -3.57876 0
M  V30 18291 H 1790.43 0.469078 -3.95025 0
M  V30 18292 H 1787.17 -1.19164 -6.44578 0
M  V30 18293 H 1786.69 0.456564 -5.9806 0
M  V30 18294 H 1788.37 0.117703 -6.46893 0
M  V30 18295 N 1788.5 1.57583 -0.0234236 0
M  V30 18296 C 1789.75 1.92678 0.651665 0
M  V30 18297 C 1790.1 0.899808 1.70062 0
M  V30 18298 O 1789.4 -0.0849285 1.91412 0
M  V30 18299 C 1789.59 3.32283 1.31616 0
M  V30 18300 C 1789.42 4.48465 0.333088 0
M  V30 18301 C 1788.19 5.05258 -0.064996 0
M  V30 18302 C 1790.39 5.12661 -0.4103 0
M  V30 18303 N 1788.37 6.04961 -1.04383 0
M  V30 18304 C 1789.74 6.07411 -1.24307 0
M  V30 18305 C 1791.79 4.95661 -0.471616 0
M  V30 18306 C 1790.5 6.8699 -2.13161 0
M  V30 18307 C 1792.52 5.75845 -1.34747 0
M  V30 18308 C 1791.89 6.70206 -2.16803 0
M  V30 18309 H 1787.98 0.753011 0.210947 0
M  V30 18310 H 1790.57 1.94495 -0.0892644 0
M  V30 18311 H 1788.74 3.31296 2.02726 0
M  V30 18312 H 1790.47 3.54742 1.94782 0
M  V30 18313 H 1787.23 4.72596 0.30827 0
M  V30 18314 H 1787.65 6.595 -1.52932 0
M  V30 18315 H 1792.29 4.22539 0.148528 0
M  V30 18316 H 1790.01 7.59422 -2.76233 0
M  V30 18317 H 1793.6 5.64726 -1.39913 0
M  V30 18318 H 1792.48 7.3117 -2.83479 0
M  V30 18319 N 1789.98 -0.249655 1.5561 0
M  V30 18320 C 1791.4 -0.598032 1.47972 0
M  V30 18321 C 1791.6 -1.88461 0.713067 0
M  V30 18322 O 1790.65 -2.51344 0.241314 0
M  V30 18323 C 1791.96 -0.703318 2.92359 0
M  V30 18324 C 1793.51 -0.795828 3.02714 0
M  V30 18325 C 1793.99 -0.932698 4.48402 0
M  V30 18326 N 1795.48 -0.997638 4.52329 0
M  V30 18327 C 1796.21 -1.12276 5.623 0
M  V30 18328 N 1795.71 -1.21359 6.82088 0
M  V30 18329 N 1797.5 -1.1557 5.50091 0
M  V30 18330 H 1789.65 0.594976 2.03897 0
M  V30 18331 H 1791.92 0.204956 0.925579 0
M  V30 18332 H 1791.62 0.171981 3.51279 0
M  V30 18333 H 1791.5 -1.57614 3.42692 0
M  V30 18334 H 1793.88 -1.66158 2.43876 0
M  V30 18335 H 1793.96 0.102087 2.55596 0
M  V30 18336 H 1793.61 -0.0715123 5.0785 0
M  V30 18337 H 1793.54 -1.84561 4.93198 0
M  V30 18338 H 1796.03 -0.938895 3.66051 0
M  V30 18339 H 1796.34 -1.30805 7.61649 0
M  V30 18340 H 1794.69 -1.18322 6.84854 0
M  V30 18341 H 1797.88 -1.0812 4.55442 0
M  V30 18342 H 1798.05 -1.24976 6.35834 0
M  V30 18343 N 1791.46 -1.48941 -0.515198 0
M  V30 18344 C 1792.69 -1.61396 -1.29457 0
M  V30 18345 C 1793.1 -0.279847 -1.86714 0
M  V30 18346 O 1792.46 0.732861 -1.67139 0
M  V30 18347 C 1792.51 -2.67194 -2.43494 0
M  V30 18348 O 1792.23 -3.95429 -1.88593 0
M  V30 18349 C 1793.73 -2.90224 -3.35089 0
M  V30 18350 H 1790.95 -0.543754 -0.393157 0
M  V30 18351 H 1793.49 -1.94875 -0.619996 0
M  V30 18352 H 1791.65 -2.36532 -3.06808 0
M  V30 18353 H 1792.06 -4.53593 -2.63351 0
M  V30 18354 H 1793.54 -3.68018 -4.1142 0
M  V30 18355 H 1794.01 -1.99601 -3.91224 0
M  V30 18356 H 1794.62 -3.22247 -2.77555 0
M  V30 18357 N 1792.94 0.765193 -1.37777 0
M  V30 18358 C 1794.18 1.52623 -1.33545 0
M  V30 18359 C 1794.51 1.94043 0.077992 0
M  V30 18360 O 1793.79 1.64566 1.03673 0
M  V30 18361 C 1794.07 2.78679 -2.28057 0
M  V30 18362 C 1793.93 2.43471 -3.78209 0
M  V30 18363 C 1795.24 3.80646 -2.20899 0
M  V30 18364 H 1792.36 0.553678 -0.486425 0
M  V30 18365 H 1795.01 0.877326 -1.68532 0
M  V30 18366 H 1793.16 3.3405 -1.9835 0
M  V30 18367 H 1794.83 1.93965 -4.1854 0
M  V30 18368 H 1793.07 1.76081 -3.96457 0
M  V30 18369 H 1793.74 3.33609 -4.39783 0
M  V30 18370 H 1796.22 3.34786 -2.47099 0
M  V30 18371 H 1795.09 4.6656 -2.89159 0
M  V30 18372 H 1795.35 4.25389 -1.20403 0
M  V30 18373 N 1794.41 1.22455 0.992094 0
M  V30 18374 C 1795.32 1.01173 2.11663 0
M  V30 18375 C 1796.34 -0.0402168 1.73954 0
M  V30 18376 O 1797.52 0.152685 2.0082 0
M  V30 18377 C 1794.58 0.592995 3.41591 0
M  V30 18378 C 1793.64 1.71865 3.93397 0
M  V30 18379 C 1792.87 1.3198 5.17124 0
M  V30 18380 O 1793.1 0.198943 5.70053 0
M  V30 18381 O 1792.03 2.13658 5.62702 0
M  V30 18382 H 1795.86 1.9539 2.32501 0
M  V30 18383 H 1793.44 1.01056 1.10036 0
M  V30 18384 H 1795.32 0.36987 4.19774 0
M  V30 18385 H 1794 -0.320311 3.22111 0
M  V30 18386 H 1792.91 1.9963 3.16384 0
M  V30 18387 H 1794.24 2.60985 4.1731 0
M  V30 18388 N 1795.89 -1.18905 1.03437 0
M  V30 18389 C 1796.85 -2.20529 0.624461 0
M  V30 18390 C 1797.85 -1.57688 -0.314824 0
M  V30 18391 O 1799.04 -1.73906 -0.101082 0
M  V30 18392 C 1796.18 -3.40793 -0.0854166 0
M  V30 18393 H 1797.37 -2.58309 1.5237 0
M  V30 18394 H 1794.92 -1.32679 0.826189 0
M  V30 18395 H 1795.66 -3.08538 -0.998747 0
M  V30 18396 H 1795.44 -3.87642 0.589596 0
M  V30 18397 H 1796.93 -4.16055 -0.358938 0
M  V30 18398 N 1797.37 -0.812977 -1.35013 0
M  V30 18399 C 1798.61 -0.402068 -2.00407 0
M  V30 18400 C 1798.97 1.01337 -1.63079 0
M  V30 18401 O 1800.17 1.52663 -2.21241 0
M  V30 18402 C 1798.45 -0.587029 -3.52546 0
M  V30 18403 S 1800 -0.267491 -4.37984 0
M  V30 18404 H 1796.82 -0.152383 -0.694479 0
M  V30 18405 H 1799.42 -1.05662 -1.64486 0
M  V30 18406 H 1798.13 -1.61704 -3.772 0
M  V30 18407 H 1797.66 0.0826178 -3.93313 0
M  V30 18408 H 1799.67 0.922508 -4.87549 0
M  V30 18409 N 1798.85 1.47045 -0.567045 0
M  V30 18410 C 1800.26 1.86202 -0.13627 0
M  V30 18411 C 1800.61 1.47252 1.29658 0
M  V30 18412 O 1799.73 0.880121 1.97694 0
M  V30 18413 C 1800.33 3.37945 -0.240528 0
M  V30 18414 C 1798.89 3.76157 0.135272 0
M  V30 18415 C 1798.04 2.71089 -0.583628 0
M  V30 18416 H 1800.99 1.38423 -0.776196 0
M  V30 18417 H 1801.01 3.76673 0.538293 0
M  V30 18418 H 1800.52 3.66263 -1.28348 0
M  V30 18419 H 1798.62 3.53456 1.17896 0
M  V30 18420 H 1798.73 4.78547 -0.230137 0
M  V30 18421 H 1797.1 2.54687 -0.0256067 0
M  V30 18422 H 1797.88 3.02247 -1.62792 0
M  V30 18423 N 1800.33 0.304 1.5464 0
M  V30 18424 C 1801.57 -0.304845 2.00496 0
M  V30 18425 C 1801.9 -1.53308 1.19206 0
M  V30 18426 O 1801.18 -1.92627 0.269305 0
M  V30 18427 C 1801.46 -0.658462 3.54029 0
M  V30 18428 C 1801.32 0.579125 4.46056 0
M  V30 18429 C 1802.63 -1.4838 4.14332 0
M  V30 18430 H 1799.75 -0.109327 0.728846 0
M  V30 18431 H 1802.4 0.416694 1.85374 0
M  V30 18432 H 1800.55 -1.27319 3.67045 0
M  V30 18433 H 1802.22 1.21758 4.44941 0
M  V30 18434 H 1800.46 1.21179 4.16531 0
M  V30 18435 H 1801.13 0.287518 5.51251 0
M  V30 18436 H 1803.61 -0.964367 4.04771 0
M  V30 18437 H 1802.48 -1.70001 5.21911 0
M  V30 18438 H 1802.74 -2.47394 3.66399 0
M  V30 18439 N 1801.8 -1.57568 0.0317802 0
M  V30 18440 C 1803.05 -1.92194 -0.647238 0
M  V30 18441 C 1803.38 -0.908747 -1.71626 0
M  V30 18442 O 1802.66 0.0681334 -1.94381 0
M  V30 18443 C 1802.94 -3.3729 -1.26124 0
M  V30 18444 C 1802.79 -4.49348 -0.201594 0
M  V30 18445 C 1804.11 -3.824 -2.17849 0
M  V30 18446 H 1801.23 -0.698927 -0.233817 0
M  V30 18447 H 1803.87 -1.89789 0.0895831 0
M  V30 18448 H 1802.02 -3.39471 -1.88922 0
M  V30 18449 H 1803.7 -4.59299 0.429155 0
M  V30 18450 H 1801.94 -4.31218 0.472624 0
M  V30 18451 H 1802.61 -5.47908 -0.670859 0
M  V30 18452 H 1805.09 -3.81972 -1.65034 0
M  V30 18453 H 1803.96 -4.84614 -2.57761 0
M  V30 18454 H 1804.22 -3.18054 -3.07073 0
M  V30 18455 N 1803.28 0.241399 -1.5574 0
M  V30 18456 C 1804.7 0.590176 -1.48287 0
M  V30 18457 C 1804.9 1.8808 -0.723052 0
M  V30 18458 O 1803.95 2.51213 -0.25464 0
M  V30 18459 C 1805.27 0.687804 -2.92728 0
M  V30 18460 C 1806.82 0.779763 -3.03131 0
M  V30 18461 C 1807.29 0.908905 -4.48891 0
M  V30 18462 N 1808.78 0.973636 -4.52852 0
M  V30 18463 C 1809.52 1.09292 -5.62888 0
M  V30 18464 N 1809.01 1.1774 -6.82722 0
M  V30 18465 N 1810.81 1.12651 -5.50696 0
M  V30 18466 H 1802.96 -0.605781 -2.03578 0
M  V30 18467 H 1805.22 -0.209862 -0.924479 0
M  V30 18468 H 1804.93 -0.190608 -3.51183 0
M  V30 18469 H 1804.8 1.55794 -3.43523 0
M  V30 18470 H 1807.19 1.64863 -2.44754 0
M  V30 18471 H 1807.27 -0.115641 -2.55538 0
M  V30 18472 H 1806.91 0.0445788 -5.0788 0
M  V30 18473 H 1806.84 1.81943 -4.9417 0
M  V30 18474 H 1809.33 0.919469 -3.66544 0
M  V30 18475 H 1809.65 1.26764 -7.62332 0
M  V30 18476 H 1807.99 1.14688 -6.85472 0
M  V30 18477 H 1811.18 1.05703 -4.56009 0
M  V30 18478 H 1811.35 1.21602 -6.36488 0
M  V30 18479 N 1804.76 1.49212 0.507292 0
M  V30 18480 C 1806.01 1.58616 1.26368 0
M  V30 18481 C 1806.34 0.269215 1.92325 0
M  V30 18482 O 1805.61 -0.72672 1.80414 0
M  V30 18483 C 1805.9 2.74088 2.33555 0
M  V30 18484 C 1805.75 4.15557 1.7214 0
M  V30 18485 C 1807.07 2.85225 3.35164 0
M  V30 18486 H 1804.19 0.577347 0.458083 0
M  V30 18487 H 1806.83 1.81473 0.562797 0
M  V30 18488 H 1804.98 2.5473 2.93335 0
M  V30 18489 H 1806.65 4.46416 1.16236 0
M  V30 18490 H 1804.9 4.21498 1.02576 0
M  V30 18491 H 1805.57 4.92215 2.49856 0
M  V30 18492 H 1808.04 3.02828 2.85367 0
M  V30 18493 H 1806.92 3.67709 4.07531 0
M  V30 18494 H 1807.18 1.94316 3.97107 0
M  V30 18495 N 1806.24 -0.757876 1.38181 0
M  V30 18496 C 1807.15 -1.90234 1.37289 0
M  V30 18497 C 1808.16 -1.71883 0.270567 0
M  V30 18498 O 1809.34 -1.94881 0.508279 0
M  V30 18499 C 1806.41 -3.25546 1.19251 0
M  V30 18500 C 1805.47 -3.56452 2.39249 0
M  V30 18501 C 1804.7 -4.85308 2.22063 0
M  V30 18502 O 1804.92 -5.57373 1.2121 0
M  V30 18503 O 1803.86 -5.15594 3.10558 0
M  V30 18504 H 1807.68 -1.9394 2.33711 0
M  V30 18505 H 1805.27 -0.902559 1.19056 0
M  V30 18506 H 1807.15 -4.06454 1.11235 0
M  V30 18507 H 1805.82 -3.22661 0.259109 0
M  V30 18508 H 1804.73 -2.75723 2.52839 0
M  V30 18509 H 1806.06 -3.64094 3.31205 0
M  V30 18510 N 1807.72 -1.22979 -0.985586 0
M  V30 18511 C 1808.96 -1.05667 -1.72275 0
M  V30 18512 C 1809.29 0.408045 -1.90683 0
M  V30 18513 O 1808.56 1.29293 -1.47174 0
M  V30 18514 H 1807.14 -0.388017 -0.63832 0
M  V30 18515 H 1809.8 -1.54612 -1.18665 0
M  V30 18516 H 1808.89 -1.54043 -2.71436 0
M  V30 18517 N 1809.19 1.18355 -1.04066 0
M  V30 18518 C 1810.47 1.8419 -0.65828 0
M  V30 18519 C 1810.85 1.92688 0.862238 0
M  V30 18520 O 1810.2 1.4528 1.76369 0
M  V30 18521 C 1810.41 3.22495 -1.3341 0
M  V30 18522 C 1811.76 3.9853 -1.46489 0
M  V30 18523 O 1812.78 3.31934 -1.29221 0
M  V30 18524 O 1811.64 5.17848 -1.74629 0
M  V30 18525 H 1808.73 0.794278 -0.230329 0
M  V30 18526 H 1811.28 1.25747 -1.13955 0
M  V30 18527 H 1810.05 3.11213 -2.37197 0
M  V30 18528 H 1809.68 3.88594 -0.841449 0
M  V30 18529 N 1810.67 0.820125 1.3458 0
M  V30 18530 C 1811.62 0.22828 2.31477 0
M  V30 18531 C 1812.61 -0.629439 1.57272 0
M  V30 18532 O 1813.82 -0.521091 1.72292 0
M  V30 18533 H 1810.2 0.0550728 0.749981 0
M  V30 18534 H 1812.17 1.0604 2.78923 0
M  V30 18535 C 1810.92 -0.597495 3.42528 0
M  V30 18536 H 1810.24 0.0531749 3.99765 0
M  V30 18537 H 1811.68 -0.977765 4.12572 0
M  V30 18538 C 1810.14 -1.76868 2.86739 0
M  V30 18539 O 1810.67 -2.86674 2.81391 0
M  V30 18540 N 1808.87 -1.58453 2.436 0
M  V30 18541 H 1808.42 -0.691318 2.4815 0
M  V30 18542 H 1808.38 -2.36969 2.06624 0
M  V30 18543 N 1812.15 -1.46743 0.574835 0
M  V30 18544 C 1813.39 -2.04312 0.0599973 0
M  V30 18545 C 1813.75 -1.43757 -1.27271 0
M  V30 18546 O 1814.96 -1.92479 -1.87631 0
M  V30 18547 C 1813.23 -3.57398 -0.0130197 0
M  V30 18548 S 1814.79 -4.3626 -0.471425 0
M  V30 18549 H 1811.6 -0.710203 0.0336583 0
M  V30 18550 H 1814.21 -1.79887 0.765555 0
M  V30 18551 H 1812.91 -3.9899 0.961003 0
M  V30 18552 H 1812.44 -3.86347 -0.741591 0
M  V30 18553 H 1814.46 -4.65149 -1.72773 0
M  V30 18554 N 1813.63 -0.312197 -1.54477 0
M  V30 18555 C 1814.54 0.568096 -2.27618 0
M  V30 18556 C 1815.55 1.13892 -1.31547 0
M  V30 18557 O 1816.73 1.16131 -1.64546 0
M  V30 18558 C 1813.8 1.71843 -3.01116 0
M  V30 18559 C 1812.86 1.18056 -4.12748 0
M  V30 18560 C 1812.09 2.27607 -4.82733 0
M  V30 18561 O 1812.31 3.4773 -4.52151 0
M  V30 18562 O 1811.25 1.93667 -5.69892 0
M  V30 18563 H 1815.07 -0.0255513 -3.03689 0
M  V30 18564 H 1812.66 -0.0782698 -1.49195 0
M  V30 18565 H 1814.54 2.38839 -3.4718 0
M  V30 18566 H 1813.21 2.29847 -2.2793 0
M  V30 18567 H 1812.12 0.476007 -3.71059 0
M  V30 18568 H 1813.45 0.645802 -4.87945 0
M  V30 18569 N 1815.11 1.57549 -0.040136 0
M  V30 18570 C 1816.35 1.92535 0.637037 0
M  V30 18571 C 1816.69 0.917836 1.71141 0
M  V30 18572 O 1815.96 -0.057824 1.94414 0
M  V30 18573 C 1816.24 3.37955 1.24333 0
M  V30 18574 C 1816.1 4.49449 0.177761 0
M  V30 18575 C 1817.42 3.8355 2.15818 0
M  V30 18576 H 1814.53 0.700157 0.230107 0
M  V30 18577 H 1817.18 1.89739 -0.0996468 0
M  V30 18578 H 1815.33 3.40468 1.87119 0
M  V30 18579 H 1817 4.59065 -0.453507 0
M  V30 18580 H 1815.24 4.30961 -0.495486 0
M  V30 18581 H 1815.91 5.48256 0.641792 0
M  V30 18582 H 1818.39 3.82842 1.63006 0
M  V30 18583 H 1817.26 4.85974 2.55188 0
M  V30 18584 H 1817.53 3.19678 3.05382 0
M  V30 18585 N 1816.58 -0.233136 1.55866 0
M  V30 18586 C 1817.53 -1.28882 1.91463 0
M  V30 18587 C 1818.5 -1.47151 0.770435 0
M  V30 18588 O 1819.69 -1.6091 1.02531 0
M  V30 18589 C 1816.83 -2.63653 2.22668 0
M  V30 18590 C 1815.94 -2.53278 3.49963 0
M  V30 18591 C 1815.07 -3.80494 3.70672 0
M  V30 18592 C 1814.11 -3.64794 4.9152 0
M  V30 18593 N 1813.25 -4.83933 5.08678 0
M  V30 18594 H 1818.09 -0.978251 2.81486 0
M  V30 18595 H 1815.63 -0.471757 1.3933 0
M  V30 18596 H 1817.59 -3.42119 2.38769 0
M  V30 18597 H 1816.22 -2.9283 1.35833 0
M  V30 18598 H 1815.27 -1.66308 3.4212 0
M  V30 18599 H 1816.58 -2.37592 4.38579 0
M  V30 18600 H 1815.73 -4.67404 3.86806 0
M  V30 18601 H 1814.47 -3.99092 2.80315 0
M  V30 18602 H 1813.48 -2.76268 4.75348 0
M  V30 18603 H 1814.7 -3.47677 5.8335 0
M  V30 18604 H 1812.65 -5.02866 4.21262 0
M  V30 18605 H 1812.57 -4.7093 5.91406 0
M  V30 18606 H 1813.83 -5.72302 5.29236 0
M  V30 18607 N 1818.06 -1.49479 -0.499372 0
M  V30 18608 C 1819.34 -1.4955 -1.26071 0
M  V30 18609 C 1819.72 -0.224142 -2.09907 0
M  V30 18610 O 1819.07 0.793432 -2.14282 0
M  V30 18611 C 1819.28 -2.77534 -2.11604 0
M  V30 18612 C 1820.63 -3.27088 -2.70738 0
M  V30 18613 O 1821.65 -2.78662 -2.2187 0
M  V30 18614 O 1820.51 -4.11432 -3.59703 0
M  V30 18615 H 1817.6 -0.598631 -0.570587 0
M  V30 18616 H 1820.15 -1.61744 -0.513509 0
M  V30 18617 H 1818.92 -3.61556 -1.49642 0
M  V30 18618 H 1818.54 -2.68208 -2.93514 0
M  V30 18619 N 1819.54 0.750537 -1.38581 0
M  V30 18620 C 1820.95 1.32802 -1.31227 0
M  V30 18621 C 1821.3 1.96176 0.0305372 0
M  V30 18622 O 1820.43 1.95272 0.932614 0
M  V30 18623 C 1821.02 2.41468 -2.37652 0
M  V30 18624 C 1819.58 2.94929 -2.33867 0
M  V30 18625 C 1818.73 1.68339 -2.20357 0
M  V30 18626 H 1821.68 0.549187 -1.48895 0
M  V30 18627 H 1821.7 3.21481 -2.03544 0
M  V30 18628 H 1821.21 1.95313 -3.35372 0
M  V30 18629 H 1819.31 3.45404 -1.39738 0
M  V30 18630 H 1819.43 3.491 -3.28125 0
M  V30 18631 H 1817.79 1.92082 -1.67262 0
M  V30 18632 H 1818.57 1.24258 -3.20023 0
M  V30 18633 N 1821.02 1.235 0.979051 0
M  V30 18634 C 1822.44 0.997948 1.24552 0
M  V30 18635 C 1822.64 -0.300139 1.99252 0
M  V30 18636 O 1821.69 -1.01923 2.31015 0
M  V30 18637 C 1823 2.2057 2.04375 0
M  V30 18638 C 1824.55 2.25075 2.17509 0
M  V30 18639 C 1825.03 3.45441 3.00724 0
M  V30 18640 N 1826.52 3.45688 3.08308 0
M  V30 18641 C 1827.25 4.35478 3.73024 0
M  V30 18642 N 1826.75 5.35506 4.39551 0
M  V30 18643 N 1828.54 4.23218 3.69923 0
M  V30 18644 H 1820.69 2.06936 0.478649 0
M  V30 18645 H 1822.96 0.907514 0.274083 0
M  V30 18646 H 1822.66 3.14781 1.56863 0
M  V30 18647 H 1822.54 2.21765 3.05123 0
M  V30 18648 H 1824.92 1.31403 2.64229 0
M  V30 18649 H 1825 2.27912 1.16146 0
M  V30 18650 H 1824.65 4.3942 2.547 0
M  V30 18651 H 1824.58 3.39845 4.0226 0
M  V30 18652 H 1827.07 2.73315 2.60974 0
M  V30 18653 H 1827.38 6.00274 4.86715 0
M  V30 18654 H 1825.73 5.39404 4.38256 0
M  V30 18655 H 1828.92 3.44315 3.17119 0
M  V30 18656 H 1829.09 4.93396 4.20076 0
M  V30 18657 N 1822.5 -1.17802 1.04693 0
M  V30 18658 C 1823.45 -2.19584 0.613744 0
M  V30 18659 C 1824.43 -1.57111 -0.34713 0
M  V30 18660 O 1825.62 -1.76228 -0.16517 0
M  V30 18661 C 1822.75 -3.43297 -0.0152847 0
M  V30 18662 C 1821.84 -4.12879 0.969114 0
M  V30 18663 N 1822.23 -4.58364 2.13859 0
M  V30 18664 C 1820.53 -4.3883 0.796487 0
M  V30 18665 C 1821.23 -5.12003 2.76094 0
M  V30 18666 N 1820.2 -5.039 2.03926 0
M  V30 18667 H 1824.01 -2.5245 1.50486 0
M  V30 18668 H 1821.52 -1.34076 0.916373 0
M  V30 18669 H 1823.52 -4.15484 -0.343354 0
M  V30 18670 H 1822.18 -3.11924 -0.901858 0
M  V30 18671 H 1823.19 -4.52613 2.51718 0
M  V30 18672 H 1819.87 -4.17481 -0.0394627 0
M  V30 18673 H 1821.26 -5.57355 3.7524 0
M  V30 18674 N 1823.98 -0.827251 -1.34143 0
M  V30 18675 C 1825.22 -0.41656 -1.9776 0
M  V30 18676 C 1825.54 1.02488 -1.65895 0
M  V30 18677 O 1824.81 1.71219 -0.951891 0
M  V30 18678 H 1823.39 -0.151044 -0.73157 0
M  V30 18679 H 1826.06 -1.05765 -1.63706 0
M  V30 18680 H 1825.15 -0.539101 -3.07409 0
M  V30 18681 N 1825.45 1.46436 -0.582609 0
M  V30 18682 C 1826.4 2.32025 0.163475 0
M  V30 18683 C 1827.4 1.44476 0.884478 0
M  V30 18684 O 1828.6 1.61102 0.802878 0
M  V30 18685 H 1824.98 0.748585 0.0715868 0
M  V30 18686 H 1826.95 2.92764 -0.577205 0
M  V30 18687 C 1825.7 3.2764 1.16392 0
M  V30 18688 H 1825.02 3.94986 0.618553 0
M  V30 18689 H 1826.46 3.90308 1.65636 0
M  V30 18690 C 1824.92 2.52986 2.22486 0
M  V30 18691 O 1825.45 2.29283 3.29837 0
M  V30 18692 N 1823.65 2.1355 1.97091 0
M  V30 18693 H 1823.2 2.33027 1.09801 0
M  V30 18694 H 1823.16 1.63919 2.68287 0
M  V30 18695 N 1826.93 0.320385 1.54309 0
M  V30 18696 C 1827.86 -0.539789 2.27175 0
M  V30 18697 C 1828.84 -1.12198 1.2785 0
M  V30 18698 O 1830.03 -1.1477 1.56657 0
M  V30 18699 C 1827.16 -1.70236 3.02716 0
M  V30 18700 C 1826.11 -1.24962 4.09351 0
M  V30 18701 C 1825.44 -2.49888 4.72715 0
M  V30 18702 C 1826.74 -0.366788 5.21011 0
M  V30 18703 H 1828.43 0.0680079 2.99323 0
M  V30 18704 H 1825.98 0.0341488 1.4396 0
M  V30 18705 H 1827.93 -2.31037 3.5242 0
M  V30 18706 H 1826.65 -2.33669 2.2818 0
M  V30 18707 H 1825.31 -0.664556 3.60526 0
M  V30 18708 H 1824.96 -3.11679 3.94798 0
M  V30 18709 H 1824.66 -2.20288 5.44745 0
M  V30 18710 H 1826.19 -3.11458 5.25192 0
M  V30 18711 H 1827.6 -0.881001 5.6649 0
M  V30 18712 H 1826 -0.163707 5.99877 0
M  V30 18713 H 1827.07 0.603185 4.81134 0
M  V30 18714 N 1828.41 -1.57525 0.0484906 0
M  V30 18715 C 1829.64 -1.96611 -0.634631 0
M  V30 18716 C 1830.05 -0.924571 -1.65071 0
M  V30 18717 O 1829.39 0.0999398 -1.83428 0
M  V30 18718 C 1829.45 -3.31924 -1.38082 0
M  V30 18719 C 1829.12 -4.54022 -0.520883 0
M  V30 18720 C 1830.11 -5.19468 0.21192 0
M  V30 18721 C 1827.8 -5.00257 -0.452595 0
M  V30 18722 C 1829.79 -6.29483 1.00148 0
M  V30 18723 C 1827.48 -6.1015 0.340652 0
M  V30 18724 C 1828.48 -6.74624 1.06638 0
M  V30 18725 O 1828.17 -7.82404 1.84659 0
M  V30 18726 H 1827.9 -0.652007 -0.178503 0
M  V30 18727 H 1830.45 -2.05103 0.110397 0
M  V30 18728 H 1828.68 -3.19979 -2.17142 0
M  V30 18729 H 1830.37 -3.55777 -1.95392 0
M  V30 18730 H 1831.14 -4.84707 0.168615 0
M  V30 18731 H 1827.02 -4.49866 -1.00706 0
M  V30 18732 H 1830.56 -6.79739 1.56844 0
M  V30 18733 H 1826.46 -6.44347 0.385605 0
M  V30 18734 H 1827.22 -7.99168 1.76842 0
M  V30 18735 N 1829.89 0.224867 -1.55988 0
M  V30 18736 C 1831.16 0.973884 -1.69632 0
M  V30 18737 C 1831.54 2.02547 -0.594791 0
M  V30 18738 O 1830.89 2.24995 0.398679 0
M  V30 18739 C 1831.1 1.58732 -3.10814 0
M  V30 18740 C 1832.45 2.08084 -3.70117 0
M  V30 18741 O 1833.47 1.68633 -3.13754 0
M  V30 18742 O 1832.33 2.80586 -4.68971 0
M  V30 18743 H 1829.43 0.454716 -0.690769 0
M  V30 18744 H 1831.97 0.216911 -1.68308 0
M  V30 18745 H 1830.75 0.827834 -3.82443 0
M  V30 18746 H 1830.37 2.40992 -3.16241 0
M  V30 18747 N 1831.37 1.49742 0.491438 0
M  V30 18748 C 1832.3 1.70033 1.60034 0
M  V30 18749 C 1833.28 0.549076 1.60994 0
M  V30 18750 O 1834.46 0.785983 1.77584 0
M  V30 18751 C 1831.59 1.7757 2.98473 0
M  V30 18752 C 1830.55 2.9258 3.12379 0
M  V30 18753 C 1829.87 2.85239 4.52264 0
M  V30 18754 C 1831.17 4.33385 2.91504 0
M  V30 18755 H 1832.87 2.62875 1.43307 0
M  V30 18756 H 1830.41 1.26502 0.687989 0
M  V30 18757 H 1832.36 1.90351 3.75958 0
M  V30 18758 H 1831.09 0.813343 3.1631 0
M  V30 18759 H 1829.75 2.79417 2.37322 0
M  V30 18760 H 1829.4 1.86892 4.66991 0
M  V30 18761 H 1829.1 3.62437 4.62508 0
M  V30 18762 H 1830.62 3.00041 5.31797 0
M  V30 18763 H 1832.03 4.4718 3.58752 0
M  V30 18764 H 1830.43 5.11878 3.13211 0
M  V30 18765 H 1831.5 4.47166 1.87539 0
M  V30 18766 N 1832.84 -0.743177 1.38977 0
M  V30 18767 C 1833.79 -1.85709 1.37043 0
M  V30 18768 C 1834.76 -1.64481 0.231351 0
M  V30 18769 O 1835.95 -1.86002 0.4252 0
M  V30 18770 C 1833.09 -3.23131 1.21162 0
M  V30 18771 C 1832.2 -3.5612 2.44545 0
M  V30 18772 C 1831.33 -4.82901 2.21315 0
M  V30 18773 C 1830.37 -5.08708 3.40415 0
M  V30 18774 N 1829.51 -6.26688 3.16555 0
M  V30 18775 H 1834.35 -1.86698 2.32267 0
M  V30 18776 H 1831.89 -0.912384 1.15386 0
M  V30 18777 H 1833.85 -4.02446 1.09968 0
M  V30 18778 H 1832.48 -3.21443 0.295716 0
M  V30 18779 H 1831.53 -2.71569 2.66373 0
M  V30 18780 H 1832.84 -3.71114 3.3328 0
M  V30 18781 H 1831.99 -5.70179 2.07317 0
M  V30 18782 H 1830.73 -4.70065 1.29962 0
M  V30 18783 H 1829.74 -4.19894 3.54921 0
M  V30 18784 H 1830.96 -5.23434 4.32659 0
M  V30 18785 H 1828.91 -6.15156 2.27858 0
M  V30 18786 H 1828.83 -6.4223 3.98843 0
M  V30 18787 H 1830.09 -7.16827 3.06233 0
M  V30 18788 N 1834.32 -1.24018 -0.972487 0
M  V30 18789 C 1835.73 -1.07076 -1.52943 0
M  V30 18790 C 1836.08 0.35937 -1.92881 0
M  V30 18791 O 1835.21 1.24713 -1.76849 0
M  V30 18792 C 1835.8 -1.93753 -2.7793 0
M  V30 18793 C 1834.36 -1.81048 -3.29998 0
M  V30 18794 C 1833.51 -1.88977 -2.02936 0
M  V30 18795 H 1836.46 -1.37565 -0.791304 0
M  V30 18796 H 1836.48 -1.46699 -3.51084 0
M  V30 18797 H 1835.99 -2.97833 -2.48832 0
M  V30 18798 H 1834.1 -0.797825 -3.63958 0
M  V30 18799 H 1834.21 -2.64876 -3.99221 0
M  V30 18800 H 1832.57 -1.32649 -2.17431 0
M  V30 18801 H 1833.36 -2.94627 -1.76209 0
M  V30 18802 N 1835.8 1.17245 -1.05316 0
M  V30 18803 C 1836.73 2.23491 -0.67631 0
M  V30 18804 C 1837.71 1.66937 0.326507 0
M  V30 18805 O 1838.9 1.93127 0.203823 0
M  V30 18806 C 1836.03 3.47262 -0.0515755 0
M  V30 18807 C 1834.98 4.16646 -0.97929 0
M  V30 18808 C 1834.31 5.34254 -0.218369 0
M  V30 18809 C 1835.61 4.68736 -2.30399 0
M  V30 18810 H 1837.3 2.55269 -1.56455 0
M  V30 18811 H 1834.85 1.22699 -0.753714 0
M  V30 18812 H 1836.8 4.20805 0.223865 0
M  V30 18813 H 1835.52 3.14755 0.871614 0
M  V30 18814 H 1834.18 3.45017 -1.23931 0
M  V30 18815 H 1833.83 4.97998 0.707624 0
M  V30 18816 H 1833.53 5.81615 -0.83654 0
M  V30 18817 H 1835.05 6.1058 0.0497574 0
M  V30 18818 H 1836.47 5.3391 -2.08837 0
M  V30 18819 H 1834.87 5.2668 -2.87625 0
M  V30 18820 H 1835.94 3.85477 -2.94169 0
M  V30 18821 N 1837.28 0.834353 1.33702 0
M  V30 18822 C 1838.53 0.427042 1.97537 0
M  V30 18823 C 1838.85 -1.01607 1.66436 0
M  V30 18824 O 1838.12 -1.70711 0.960958 0
M  V30 18825 H 1836.7 0.154921 0.730759 0
M  V30 18826 H 1839.36 1.06632 1.63143 0
M  V30 18827 H 1838.46 0.555396 3.07118 0
M  V30 18828 N 1838.76 -1.46125 0.590367 0
M  V30 18829 C 1839.69 -2.33159 -0.126114 0
M  V30 18830 C 1840.67 -1.45806 -0.876057 0
M  V30 18831 O 1841.85 -1.7461 -0.850009 0
M  V30 18832 C 1838.98 -3.28217 -1.13537 0
M  V30 18833 C 1837.94 -4.25072 -0.499773 0
M  V30 18834 C 1837.26 -5.09694 -1.61605 0
M  V30 18835 C 1838.56 -5.19202 0.567992 0
M  V30 18836 H 1840.26 -2.93315 0.600577 0
M  V30 18837 H 1837.8 -1.41044 0.290265 0
M  V30 18838 H 1839.76 -3.87965 -1.64503 0
M  V30 18839 H 1838.48 -2.66185 -1.89244 0
M  V30 18840 H 1837.14 -3.66598 -0.0111313 0
M  V30 18841 H 1836.79 -4.44041 -2.36297 0
M  V30 18842 H 1836.49 -5.75292 -1.19637 0
M  V30 18843 H 1838.01 -5.72307 -2.12832 0
M  V30 18844 H 1839.42 -5.73121 0.143102 0
M  V30 18845 H 1837.82 -5.93184 0.908428 0
M  V30 18846 H 1838.89 -4.62671 1.45133 0
M  V30 18847 N 1840.23 -0.328564 -1.54137 0
M  V30 18848 C 1841.18 0.550592 -2.25989 0
M  V30 18849 C 1842.18 1.11442 -1.27581 0
M  V30 18850 O 1843.38 1.06189 -1.45341 0
M  V30 18851 H 1839.76 0.196215 -0.72595 0
M  V30 18852 H 1841.73 -0.0776348 -2.98299 0
M  V30 18853 C 1840.48 1.69733 -3.03457 0
M  V30 18854 H 1839.8 1.27273 -3.79001 0
M  V30 18855 H 1841.24 2.28797 -3.56971 0
M  V30 18856 C 1839.7 2.61791 -2.12054 0
M  V30 18857 O 1840.23 3.63641 -1.7067 0
M  V30 18858 N 1838.44 2.30138 -1.7744 0
M  V30 18859 H 1837.98 1.47355 -2.11292 0
M  V30 18860 H 1837.94 2.91994 -1.16564 0
M  V30 18861 N 1841.71 1.57497 -0.0568439 0
M  V30 18862 C 1842.99 1.84277 0.655847 0
M  V30 18863 C 1843.37 0.94638 1.88698 0
M  V30 18864 O 1842.72 0.00884889 2.28498 0
M  V30 18865 C 1842.93 3.34134 1.00775 0
M  V30 18866 C 1844.28 4.01286 1.38763 0
M  V30 18867 O 1845.3 3.38792 1.09992 0
M  V30 18868 O 1844.16 5.11482 1.92479 0
M  V30 18869 H 1841.25 0.760773 0.324275 0
M  V30 18870 H 1843.8 1.69479 -0.0866388 0
M  V30 18871 H 1842.57 3.91075 0.132718 0
M  V30 18872 H 1842.19 3.5414 1.80749 0
M  V30 18873 N 1843.19 -0.216591 1.56105 0
M  V30 18874 C 1844.42 -0.957013 1.83436 0
M  V30 18875 C 1844.83 -1.77743 0.636612 0
M  V30 18876 O 1844.19 -1.78178 -0.394833 0
M  V30 18877 C 1844.24 -1.87058 3.09341 0
M  V30 18878 O 1843.96 -1.08331 4.24495 0
M  V30 18879 C 1845.46 -2.72448 3.49695 0
M  V30 18880 H 1842.68 -0.280249 0.609673 0
M  V30 18881 H 1845.23 -0.230324 2.03199 0
M  V30 18882 H 1843.38 -2.55116 2.91539 0
M  V30 18883 H 1843.8 -1.70391 4.96052 0
M  V30 18884 H 1845.27 -3.32244 4.40815 0
M  V30 18885 H 1845.75 -3.4509 2.71679 0
M  V30 18886 H 1846.35 -2.09796 3.69954 0
M  V30 18887 N 1844.67 -1.5 -0.48349 0
M  V30 18888 C 1845.92 -1.59612 -1.23317 0
M  V30 18889 C 1846.23 -0.29614 -1.93345 0
M  V30 18890 O 1847.44 -0.271008 -2.70144 0
M  V30 18891 C 1845.89 -2.81692 -2.24003 0
M  V30 18892 C 1845.5 -4.18518 -1.59834 0
M  V30 18893 C 1847.24 -3.00643 -2.9969 0
M  V30 18894 C 1845.15 -5.31799 -2.58735 0
M  V30 18895 H 1844.08 -0.594352 -0.463963 0
M  V30 18896 H 1846.73 -1.76414 -0.505016 0
M  V30 18897 H 1845.11 -2.58422 -3.00057 0
M  V30 18898 H 1846.29 -4.51994 -0.896542 0
M  V30 18899 H 1844.6 -4.0507 -0.964743 0
M  V30 18900 H 1847.2 -3.82445 -3.73684 0
M  V30 18901 H 1847.54 -2.11883 -3.58345 0
M  V30 18902 H 1848.08 -3.24035 -2.30751 0
M  V30 18903 H 1844.82 -6.22674 -2.04836 0
M  V30 18904 H 1844.34 -5.02756 -3.27103 0
M  V30 18905 H 1846.01 -5.61861 -3.20814 0
M  V30 18906 N 1846.15 0.735796 -1.39369 0
M  V30 18907 C 1847.39 1.49756 -1.36752 0
M  V30 18908 C 1847.73 1.94165 0.036815 0
M  V30 18909 O 1847 1.66728 1.00159 0
M  V30 18910 C 1847.28 2.73779 -2.33916 0
M  V30 18911 C 1847.14 2.35394 -3.83288 0
M  V30 18912 C 1848.46 3.75875 -2.28924 0
M  V30 18913 H 1845.57 0.543236 -0.49806 0
M  V30 18914 H 1848.22 0.841381 -1.70355 0
M  V30 18915 H 1846.37 3.29768 -2.05391 0
M  V30 18916 H 1848.04 1.85043 -4.2256 0
M  V30 18917 H 1846.28 1.67632 -4.00102 0
M  V30 18918 H 1846.95 3.24206 -4.4676 0
M  V30 18919 H 1849.43 3.29469 -2.54144 0
M  V30 18920 H 1848.3 4.60321 -2.98991 0
M  V30 18921 H 1848.57 4.22739 -1.29399 0
M  V30 18922 N 1847.63 1.24532 0.965897 0
M  V30 18923 C 1848.85 1.11412 1.74934 0
M  V30 18924 C 1849.28 -0.329168 1.85197 0
M  V30 18925 O 1848.63 -1.23833 1.3242 0
M  V30 18926 C 1848.68 1.76068 3.14694 0
M  V30 18927 O 1847.79 1.03267 3.99261 0
M  V30 18928 H 1847.13 0.389633 0.537663 0
M  V30 18929 H 1849.66 1.64875 1.2115 0
M  V30 18930 H 1849.67 1.81897 3.65209 0
M  V30 18931 H 1848.34 2.8108 3.0654 0
M  V30 18932 H 1846.92 1.05236 3.57743 0
M  V30 18933 N 1849.1 -1.16685 1.05936 0
M  V30 18934 C 1850.07 -2.19155 0.671098 0
M  V30 18935 C 1851.07 -1.5832 -0.281305 0
M  V30 18936 O 1852.26 -1.74082 -0.0641708 0
M  V30 18937 C 1849.39 -3.40897 -0.0131101 0
M  V30 18938 H 1850.58 -2.55019 1.57815 0
M  V30 18939 H 1848.13 -1.30897 0.854147 0
M  V30 18940 H 1848.87 -3.10587 -0.933077 0
M  V30 18941 H 1848.65 -3.86304 0.671687 0
M  V30 18942 H 1850.14 -4.16722 -0.270606 0
M  V30 18943 N 1850.58 -0.841432 -1.33258 0
M  V30 18944 C 1851.83 -0.437512 -1.97307 0
M  V30 18945 C 1852.15 1.00723 -1.66973 0
M  V30 18946 O 1851.42 1.70199 -0.969998 0
M  V30 18947 H 1850 -0.158794 -0.729927 0
M  V30 18948 H 1852.66 -1.07495 -1.62575 0
M  V30 18949 H 1851.76 -0.571675 -3.0682 0
M  V30 18950 N 1852.06 1.4581 -0.598108 0
M  V30 18951 C 1852.97 2.34249 0.12834 0
M  V30 18952 C 1853.99 1.50677 0.870202 0
M  V30 18953 O 1855.16 1.83505 0.829924 0
M  V30 18954 C 1852.23 3.28135 1.1193 0
M  V30 18955 C 1851.29 4.27611 0.380432 0
M  V30 18956 C 1850.52 5.17012 1.32419 0
M  V30 18957 O 1850.74 5.09648 2.56154 0
M  V30 18958 O 1849.68 5.962 0.826397 0
M  V30 18959 H 1853.5 2.9775 -0.598199 0
M  V30 18960 H 1851.09 1.45037 -0.358416 0
M  V30 18961 H 1852.97 3.86014 1.6903 0
M  V30 18962 H 1851.65 2.6721 1.82703 0
M  V30 18963 H 1850.55 3.73375 -0.23279 0
M  V30 18964 H 1851.89 4.91365 -0.286627 0
M  V30 18965 N 1853.54 0.336733 1.53961 0
M  V30 18966 C 1854.77 -0.263064 2.04918 0
M  V30 18967 C 1855.18 -1.45301 1.21178 0
M  V30 18968 O 1854.52 -1.82147 0.238356 0
M  V30 18969 C 1854.58 -0.748277 3.51626 0
M  V30 18970 C 1854.24 0.321112 4.5587 0
M  V30 18971 C 1855.24 1.16157 5.06758 0
M  V30 18972 C 1852.93 0.473083 5.00067 0
M  V30 18973 C 1854.92 2.1396 6.00416 0
M  V30 18974 C 1852.61 1.45452 5.93538 0
M  V30 18975 C 1853.61 2.28624 6.43599 0
M  V30 18976 O 1853.29 3.25098 7.35232 0
M  V30 18977 H 1853.03 -0.0558258 0.673691 0
M  V30 18978 H 1855.58 0.484895 1.99594 0
M  V30 18979 H 1853.81 -1.54737 3.54392 0
M  V30 18980 H 1855.5 -1.26787 3.8559 0
M  V30 18981 H 1856.26 1.05521 4.73382 0
M  V30 18982 H 1852.14 -0.164435 4.60707 0
M  V30 18983 H 1855.69 2.78916 6.39415 0
M  V30 18984 H 1851.58 1.56146 6.26329 0
M  V30 18985 H 1852.35 3.2049 7.53146 0
M  V30 18986 N 1855.02 -1.57465 0.0651956 0
M  V30 18987 C 1856.24 -1.9756 -0.614633 0
M  V30 18988 C 1856.66 -0.943308 -1.63546 0
M  V30 18989 O 1856.02 0.0708362 -1.82362 0
M  V30 18990 C 1856.07 -3.37735 -1.28909 0
M  V30 18991 O 1855.79 -4.37008 -0.309131 0
M  V30 18992 C 1857.29 -3.92667 -2.05736 0
M  V30 18993 H 1854.51 -0.64987 -0.167061 0
M  V30 18994 H 1857.05 -2.0405 0.135647 0
M  V30 18995 H 1855.21 -3.32352 -1.9905 0
M  V30 18996 H 1855.62 -5.18483 -0.792206 0
M  V30 18997 H 1857.1 -4.92988 -2.48329 0
M  V30 18998 H 1857.57 -3.28851 -2.91124 0
M  V30 18999 H 1858.18 -4.01431 -1.40476 0
M  V30 19000 N 1856.49 0.20831 -1.56217 0
M  V30 19001 C 1857.72 0.945898 -1.83675 0
M  V30 19002 C 1858.13 1.77908 -0.643841 0
M  V30 19003 O 1857.47 1.79361 0.396885 0
M  V30 19004 C 1857.54 1.90219 -3.05052 0
M  V30 19005 C 1857.2 1.25224 -4.39509 0
M  V30 19006 C 1858.2 0.635617 -5.16 0
M  V30 19007 C 1855.88 1.26005 -4.86239 0
M  V30 19008 C 1857.88 0.0354655 -6.3739 0
M  V30 19009 C 1855.56 0.656058 -6.07568 0
M  V30 19010 C 1856.56 0.0448326 -6.82985 0
M  V30 19011 O 1856.25 -0.549727 -8.02018 0
M  V30 19012 H 1855.98 0.282151 -0.614302 0
M  V30 19013 H 1858.54 0.224595 -2.04168 0
M  V30 19014 H 1856.77 2.66284 -2.8041 0
M  V30 19015 H 1858.45 2.50644 -3.19268 0
M  V30 19016 H 1859.22 0.62182 -4.80997 0
M  V30 19017 H 1855.1 1.72519 -4.27502 0
M  V30 19018 H 1858.64 -0.442232 -6.96197 0
M  V30 19019 H 1854.54 0.667312 -6.42041 0
M  V30 19020 H 1855.31 -0.445338 -8.17288 0
M  V30 19021 N 1857.97 1.50255 0.475528 0
M  V30 19022 C 1859.2 1.64532 1.24951 0
M  V30 19023 C 1859.61 0.326223 1.86366 0
M  V30 19024 O 1858.95 -0.701313 1.69786 0
M  V30 19025 C 1859.01 2.67528 2.40143 0
M  V30 19026 C 1858.68 4.11204 1.99399 0
M  V30 19027 C 1859.68 4.97213 1.51906 0
M  V30 19028 C 1857.36 4.57094 2.08256 0
M  V30 19029 C 1859.35 6.27158 1.13805 0
M  V30 19030 C 1857.04 5.87046 1.69766 0
M  V30 19031 C 1858.04 6.71903 1.22618 0
M  V30 19032 O 1857.73 7.9943 0.846604 0
M  V30 19033 H 1857.46 0.556201 0.384209 0
M  V30 19034 H 1860.01 1.972 0.574555 0
M  V30 19035 H 1858.24 2.30094 3.10795 0
M  V30 19036 H 1859.93 2.71072 3.02117 0
M  V30 19037 H 1860.7 4.62977 1.44489 0
M  V30 19038 H 1856.58 3.91194 2.43903 0
M  V30 19039 H 1860.12 6.93345 0.769334 0
M  V30 19040 H 1856.02 6.20804 1.76841 0
M  V30 19041 H 1856.79 8.12662 0.975845 0
M  V30 19042 N 1859.45 -0.728395 1.39758 0
M  V30 19043 C 1860.7 -1.48808 1.37341 0
M  V30 19044 C 1861.02 -1.94479 -0.0285032 0
M  V30 19045 O 1860.28 -1.67586 -1.01062 0
M  V30 19046 C 1860.58 -2.73735 2.29791 0
M  V30 19047 C 1860.24 -2.46897 3.77296 0
M  V30 19048 C 1858.91 -2.39287 4.17487 0
M  V30 19049 C 1861.26 -2.24097 4.70564 0
M  V30 19050 C 1858.59 -2.06927 5.48997 0
M  V30 19051 C 1860.94 -1.93252 6.02359 0
M  V30 19052 C 1859.6 -1.84115 6.41606 0
M  V30 19053 H 1858.87 -0.544527 0.502565 0
M  V30 19054 H 1861.52 -0.835461 1.72315 0
M  V30 19055 H 1859.82 -3.43772 1.87957 0
M  V30 19056 H 1861.52 -3.31785 2.2521 0
M  V30 19057 H 1858.11 -2.53701 3.45447 0
M  V30 19058 H 1862.3 -2.28939 4.40341 0
M  V30 19059 H 1857.55 -1.98381 5.78321 0
M  V30 19060 H 1861.73 -1.7462 6.74152 0
M  V30 19061 H 1859.35 -1.58807 7.43427 0
M  V30 19062 N 1860.93 -1.25042 -0.959279 0
M  V30 19063 C 1862.34 -1.01764 -1.22948 0
M  V30 19064 C 1862.54 0.268402 -1.99704 0
M  V30 19065 O 1861.6 0.982348 -2.32607 0
M  V30 19066 C 1862.91 -2.23794 -2.0084 0
M  V30 19067 C 1864.46 -2.28507 -2.13901 0
M  V30 19068 C 1864.94 -3.50181 -2.9519 0
M  V30 19069 N 1866.43 -3.50549 -3.0277 0
M  V30 19070 C 1867.16 -4.41357 -3.66049 0
M  V30 19071 N 1866.66 -5.42431 -4.30976 0
M  V30 19072 N 1868.45 -4.29049 -3.63143 0
M  V30 19073 H 1860.6 -2.07672 -0.445667 0
M  V30 19074 H 1862.86 -0.91176 -0.259611 0
M  V30 19075 H 1862.57 -3.17237 -1.51835 0
M  V30 19076 H 1862.44 -2.26592 -3.01556 0
M  V30 19077 H 1864.83 -1.3559 -2.62105 0
M  V30 19078 H 1864.91 -2.29731 -1.12505 0
M  V30 19079 H 1864.56 -4.43417 -2.47677 0
M  V30 19080 H 1864.49 -3.46202 -3.96802 0
M  V30 19081 H 1866.98 -2.77432 -2.56593 0
M  V30 19082 H 1867.29 -6.07941 -4.77104 0
M  V30 19083 H 1865.64 -5.46308 -4.29619 0
M  V30 19084 H 1868.83 -3.49317 -3.11601 0
M  V30 19085 H 1869 -5.00017 -4.12174 0
M  V30 19086 N 1862.41 1.16121 -1.06553 0
M  V30 19087 C 1863.65 1.86991 -0.784989 0
M  V30 19088 C 1863.99 1.81645 0.686919 0
M  V30 19089 O 1863.26 1.23394 1.50347 0
M  V30 19090 C 1863.54 3.36448 -1.28355 0
M  V30 19091 C 1863.4 3.5047 -2.81941 0
M  V30 19092 C 1864.72 4.30933 -0.893561 0
M  V30 19093 H 1861.83 0.678978 -0.286633 0
M  V30 19094 H 1864.48 1.36475 -1.32192 0
M  V30 19095 H 1862.63 3.796 -0.826796 0
M  V30 19096 H 1864.3 3.16237 -3.35845 0
M  V30 19097 H 1862.54 2.92294 -3.20541 0
M  V30 19098 H 1863.21 4.55443 -3.11891 0
M  V30 19099 H 1865.69 3.95696 -1.287 0
M  V30 19100 H 1864.56 5.3401 -1.26984 0
M  V30 19101 H 1864.83 4.41642 0.201274 0
M  V30 19102 N 1863.88 0.848487 1.3281 0
M  V30 19103 C 1865.12 0.455061 1.9927 0
M  V30 19104 C 1865.49 -0.969773 1.65709 0
M  V30 19105 O 1866.69 -1.46743 2.25211 0
M  V30 19106 C 1864.96 0.680294 3.50866 0
M  V30 19107 S 1866.52 0.383521 4.37121 0
M  V30 19108 H 1863.34 0.170742 0.690194 0
M  V30 19109 H 1865.94 1.09986 1.61627 0
M  V30 19110 H 1864.64 1.71648 3.7278 0
M  V30 19111 H 1864.17 0.0216913 3.93394 0
M  V30 19112 H 1866.19 -0.792918 4.89824 0
M  V30 19113 N 1865.36 -1.4549 0.605832 0
M  V30 19114 C 1866.61 -2.01852 0.10014 0
M  V30 19115 C 1866.93 -1.47699 -1.27319 0
M  V30 19116 O 1866.2 -0.670571 -1.84066 0
M  V30 19117 H 1864.78 -0.746225 0.0340291 0
M  V30 19118 H 1867.44 -1.78311 0.786834 0
M  V30 19119 H 1866.54 -3.12062 0.0485925 0
M  V30 19120 N 1866.84 -0.344893 -1.5378 0
M  V30 19121 C 1867.79 0.511269 -2.25066 0
M  V30 19122 C 1868.76 1.09446 -1.24944 0
M  V30 19123 O 1869.94 1.13082 -1.53679 0
M  V30 19124 C 1867.08 1.65563 -3.02792 0
M  V30 19125 C 1866.2 1.09962 -4.17771 0
M  V30 19126 C 1865.33 2.21139 -4.82981 0
M  V30 19127 C 1864.37 1.62897 -5.90026 0
M  V30 19128 N 1863.51 2.67822 -6.49011 0
M  V30 19129 H 1868.35 -0.103166 -2.97821 0
M  V30 19130 H 1865.88 -0.0626846 -1.46966 0
M  V30 19131 H 1867.84 2.32936 -3.46117 0
M  V30 19132 H 1866.47 2.24103 -2.32331 0
M  V30 19133 H 1865.52 0.316786 -3.79079 0
M  V30 19134 H 1866.84 0.633622 -4.94759 0
M  V30 19135 H 1865.99 2.96375 -5.29383 0
M  V30 19136 H 1864.73 2.71083 -4.0542 0
M  V30 19137 H 1863.73 0.861672 -5.43006 0
M  V30 19138 H 1864.96 1.13803 -6.69497 0
M  V30 19139 H 1862.9 3.17018 -5.74313 0
M  V30 19140 H 1862.82 2.25848 -7.21477 0
M  V30 19141 H 1864.09 3.42822 -7.00066 0
M  V30 19142 N 1868.32 1.57428 -0.0735454 0
M  V30 19143 C 1869.25 2.15849 0.890584 0
M  V30 19144 C 1870.23 1.086 1.3092 0
M  V30 19145 O 1871.41 1.36643 1.37994 0
M  V30 19146 C 1868.54 2.72153 2.15755 0
M  V30 19147 C 1867.5 3.84584 1.87827 0
M  V30 19148 C 1866.82 4.27498 3.21169 0
M  V30 19149 C 1868.12 5.08746 1.18217 0
M  V30 19150 H 1869.82 2.96663 0.403904 0
M  V30 19151 H 1867.36 1.42703 0.192836 0
M  V30 19152 H 1869.32 3.11668 2.83621 0
M  V30 19153 H 1868.04 1.88562 2.66668 0
M  V30 19154 H 1866.7 3.45575 1.22366 0
M  V30 19155 H 1866.35 3.40827 3.69927 0
M  V30 19156 H 1866.05 5.03288 3.03273 0
M  V30 19157 H 1867.57 4.69631 3.9023 0
M  V30 19158 H 1868.99 5.45566 1.76155 0
M  V30 19159 H 1867.38 5.89825 1.10573 0
M  V30 19160 H 1868.45 4.84631 0.161525 0
M  V30 19161 N 1869.8 -0.200022 1.56326 0
M  V30 19162 C 1871.02 -0.941617 1.84793 0
M  V30 19163 C 1871.45 -1.76271 0.656525 0
M  V30 19164 O 1870.8 -1.76951 -0.394703 0
M  V30 19165 C 1870.85 -1.81754 3.11445 0
M  V30 19166 O 1869.96 -2.91571 2.91651 0
M  V30 19167 H 1869.3 -0.265444 0.608634 0
M  V30 19168 H 1871.83 -0.206826 2.03552 0
M  V30 19169 H 1871.84 -2.22316 3.4211 0
M  V30 19170 H 1870.51 -1.2142 3.97781 0
M  V30 19171 H 1869.09 -2.54799 2.72271 0
M  V30 19172 N 1871.27 -1.50505 -0.467553 0
M  V30 19173 C 1872.5 -1.65708 -1.24722 0
M  V30 19174 C 1872.92 -0.34155 -1.84973 0
M  V30 19175 O 1872.28 0.694993 -1.6745 0
M  V30 19176 C 1872.33 -2.75289 -2.32912 0
M  V30 19177 O 1871.43 -2.36788 -3.37646 0
M  V30 19178 H 1870.78 -0.55351 -0.366774 0
M  V30 19179 H 1873.31 -1.96901 -0.555988 0
M  V30 19180 H 1873.32 -2.98472 -2.7817 0
M  V30 19181 H 1871.99 -3.70765 -1.88431 0
M  V30 19182 H 1870.57 -2.24065 -2.98076 0
M  V30 19183 N 1872.75 0.720973 -1.40142 0
M  V30 19184 C 1874.03 1.47356 -1.28629 0
M  V30 19185 C 1874.41 2.10873 0.0978138 0
M  V30 19186 O 1873.76 1.99717 1.1102 0
M  V30 19187 C 1873.97 2.51364 -2.4211 0
M  V30 19188 C 1875.32 3.17348 -2.82091 0
M  V30 19189 O 1876.34 2.61682 -2.41663 0
M  V30 19190 O 1875.2 4.1811 -3.51918 0
M  V30 19191 H 1872.29 0.655019 -0.504855 0
M  V30 19192 H 1874.84 0.753605 -1.52049 0
M  V30 19193 H 1873.61 2.02907 -3.34581 0
M  V30 19194 H 1873.23 3.30901 -2.20432 0
M  V30 19195 N 1874.23 1.25549 0.952634 0
M  V30 19196 C 1875.48 1.1058 1.7 0
M  V30 19197 C 1875.81 -0.35206 1.90982 0
M  V30 19198 O 1875.08 -1.25938 1.48222 0
M  V30 19199 C 1875.37 1.86283 3.08173 0
M  V30 19200 C 1875.22 3.39909 2.94588 0
M  V30 19201 C 1876.54 1.64755 4.08098 0
M  V30 19202 H 1873.66 0.403095 0.616996 0
M  V30 19203 H 1876.3 1.54406 1.1072 0
M  V30 19204 H 1874.45 1.49033 3.58778 0
M  V30 19205 H 1876.12 3.86845 2.51294 0
M  V30 19206 H 1874.37 3.67518 2.30462 0
M  V30 19207 H 1875.04 3.88094 3.92539 0
M  V30 19208 H 1877.51 1.97186 3.66411 0
M  V30 19209 H 1876.39 2.20157 5.02814 0
M  V30 19210 H 1876.65 0.589348 4.38154 0
M  V30 19211 N 1875.71 -1.15554 1.07168 0
M  V30 19212 C 1876.95 -1.87964 0.803046 0
M  V30 19213 C 1877.31 -1.80344 -0.658795 0
M  V30 19214 O 1878.51 -2.47765 -1.0424 0
M  V30 19215 C 1876.78 -3.33115 1.29495 0
M  V30 19216 S 1878.34 -4.2328 1.15671 0
M  V30 19217 H 1875.16 -0.648695 0.29106 0
M  V30 19218 H 1877.76 -1.39428 1.3704 0
M  V30 19219 H 1876.47 -3.36205 2.35361 0
M  V30 19220 H 1876 -3.86704 0.722721 0
M  V30 19221 H 1878.01 -4.96113 0.0930855 0
M  V30 19222 N 1877.19 -0.855519 -1.32358 0
M  V30 19223 C 1878.6 -0.513833 -1.7949 0
M  V30 19224 C 1878.95 0.968373 -1.70637 0
M  V30 19225 O 1878.07 1.75541 -1.26547 0
M  V30 19226 C 1878.67 -0.925925 -3.25902 0
M  V30 19227 C 1877.23 -0.636124 -3.70986 0
M  V30 19228 C 1876.38 -1.12519 -2.53446 0
M  V30 19229 H 1879.33 -1.04264 -1.19644 0
M  V30 19230 H 1879.35 -0.242659 -3.79725 0
M  V30 19231 H 1878.86 -2.00473 -3.32313 0
M  V30 19232 H 1876.96 0.431924 -3.70088 0
M  V30 19233 H 1877.07 -1.20302 -4.6375 0
M  V30 19234 H 1875.44 -0.545429 -2.48791 0
M  V30 19235 H 1876.22 -2.21112 -2.62611 0
M  V30 19236 N 1878.67 1.45167 -0.61354 0
M  V30 19237 C 1879.89 2.06565 -0.117608 0
M  V30 19238 C 1880.31 1.45716 1.20051 0
M  V30 19239 O 1879.67 0.573512 1.73254 0
M  V30 19240 C 1879.72 3.61493 0.0221474 0
M  V30 19241 O 1879.44 4.20072 -1.24383 0
M  V30 19242 C 1880.94 4.39889 0.548841 0
M  V30 19243 H 1878.16 0.667172 -0.0715756 0
M  V30 19244 H 1880.7 1.86318 -0.84296 0
M  V30 19245 H 1878.86 3.81063 0.697854 0
M  V30 19246 H 1879.27 5.13317 -1.07733 0
M  V30 19247 H 1880.75 5.48776 0.595696 0
M  V30 19248 H 1881.22 4.1009 1.57234 0
M  V30 19249 H 1881.83 4.25198 -0.0930203 0
M  V30 19250 N 1880.14 0.353044 1.53595 0
M  V30 19251 C 1881.37 -0.244309 2.05956 0
M  V30 19252 C 1881.79 -1.42681 1.22571 0
M  V30 19253 O 1881.15 -1.79681 0.241723 0
M  V30 19254 C 1881.2 -0.628083 3.55088 0
M  V30 19255 O 1880.3 -1.72693 3.74501 0
M  V30 19256 H 1879.64 -0.038537 0.662881 0
M  V30 19257 H 1882.17 0.510013 1.98141 0
M  V30 19258 H 1882.18 -0.902597 3.97891 0
M  V30 19259 H 1880.86 0.236643 4.15226 0
M  V30 19260 H 1879.44 -1.44895 3.43599 0
M  V30 19261 N 1881.62 -1.57387 0.0818932 0
M  V30 19262 C 1882.9 -1.85297 -0.626447 0
M  V30 19263 C 1883.28 -0.976281 -1.87168 0
M  V30 19264 O 1882.63 -0.0451999 -2.28455 0
M  V30 19265 C 1882.84 -3.35695 -0.954461 0
M  V30 19266 C 1884.18 -4.03442 -1.32361 0
M  V30 19267 O 1885.21 -3.40499 -1.04588 0
M  V30 19268 O 1884.07 -5.1448 -1.84317 0
M  V30 19269 H 1881.16 -0.765835 -0.31213 0
M  V30 19270 H 1883.71 -1.69319 0.11359 0
M  V30 19271 H 1882.48 -3.91237 -0.0704846 0
M  V30 19272 H 1882.1 -3.56971 -1.75092 0
M  V30 19273 N 1883.1 0.191729 -1.56429 0
M  V30 19274 C 1884.05 1.23761 -1.94813 0
M  V30 19275 C 1885.02 1.45057 -0.809178 0
M  V30 19276 O 1886.2 1.58135 -1.06762 0
M  V30 19277 C 1883.34 2.57656 -2.2958 0
M  V30 19278 C 1882.45 2.4391 -3.56555 0
M  V30 19279 C 1881.59 3.70533 -3.8063 0
M  V30 19280 C 1880.63 3.51634 -5.01019 0
M  V30 19281 N 1879.77 4.70276 -5.2133 0
M  V30 19282 H 1884.61 0.903277 -2.8398 0
M  V30 19283 H 1882.14 0.434651 -1.40532 0
M  V30 19284 H 1884.1 3.35668 -2.47755 0
M  V30 19285 H 1882.73 2.89125 -1.43549 0
M  V30 19286 H 1881.78 1.57179 -3.46409 0
M  V30 19287 H 1883.09 2.25881 -4.44724 0
M  V30 19288 H 1882.25 4.56984 -3.99062 0
M  V30 19289 H 1880.99 3.9152 -2.90798 0
M  V30 19290 H 1879.99 2.63568 -4.82506 0
M  V30 19291 H 1881.22 3.32089 -5.92363 0
M  V30 19292 H 1879.16 4.9152 -4.34446 0
M  V30 19293 H 1879.08 4.55084 -6.03684 0
M  V30 19294 H 1880.35 5.58069 -5.44224 0
M  V30 19295 N 1884.58 1.50751 0.459565 0
M  V30 19296 C 1885.8 1.66367 1.23842 0
M  V30 19297 C 1886.23 0.351355 1.84789 0
M  V30 19298 O 1885.59 -0.686103 1.67816 0
M  V30 19299 C 1885.63 2.76521 2.31449 0
M  V30 19300 O 1884.74 2.38576 3.36386 0
M  V30 19301 H 1884.08 0.555447 0.363833 0
M  V30 19302 H 1886.61 1.97193 0.545538 0
M  V30 19303 H 1886.62 2.99943 2.76583 0
M  V30 19304 H 1885.29 3.71759 1.86462 0
M  V30 19305 H 1883.87 2.25643 2.96883 0
M  V30 19306 N 1886.06 -0.713531 1.40522 0
M  V30 19307 C 1887 -1.82761 1.40951 0
M  V30 19308 C 1887.97 -1.63953 0.266188 0
M  V30 19309 O 1889.16 -1.85058 0.464558 0
M  V30 19310 C 1886.3 -3.20488 1.27989 0
M  V30 19311 C 1885.41 -3.50853 2.52044 0
M  V30 19312 C 1884.55 -4.78097 2.31509 0
M  V30 19313 C 1883.58 -5.01373 3.51129 0
M  V30 19314 N 1882.72 -6.19832 3.29777 0
M  V30 19315 H 1887.56 -1.81729 2.36175 0
M  V30 19316 H 1885.1 -0.887703 1.17296 0
M  V30 19317 H 1887.06 -4.00023 1.1848 0
M  V30 19318 H 1885.69 -3.20743 0.363832 0
M  V30 19319 H 1884.74 -2.65858 2.72073 0
M  V30 19320 H 1886.05 -3.63961 3.41077 0
M  V30 19321 H 1885.2 -5.65654 2.19365 0
M  V30 19322 H 1883.94 -4.67203 1.39903 0
M  V30 19323 H 1882.95 -4.12271 3.63748 0
M  V30 19324 H 1884.17 -5.14139 4.43664 0
M  V30 19325 H 1882.12 -6.10184 2.40855 0
M  V30 19326 H 1882.04 -6.33626 4.12376 0
M  V30 19327 H 1883.3 -7.1017 3.2137 0
M  V30 19328 N 1887.53 -1.26053 -0.945962 0
M  V30 19329 C 1888.78 -1.1148 -1.69411 0
M  V30 19330 C 1889.11 0.341927 -1.91166 0
M  V30 19331 O 1888.39 1.2515 -1.48888 0
M  V30 19332 C 1888.67 -1.87915 -3.07181 0
M  V30 19333 C 1888.52 -3.41466 -2.92781 0
M  V30 19334 C 1889.84 -1.66917 -4.07218 0
M  V30 19335 H 1886.96 -0.406361 -0.614849 0
M  V30 19336 H 1889.6 -1.54991 -1.099 0
M  V30 19337 H 1887.75 -1.50934 -3.57982 0
M  V30 19338 H 1889.43 -3.88172 -2.49238 0
M  V30 19339 H 1887.67 -3.68735 -2.2851 0
M  V30 19340 H 1888.34 -3.90171 -3.90475 0
M  V30 19341 H 1890.82 -1.99127 -3.6536 0
M  V30 19342 H 1889.69 -2.22821 -5.01639 0
M  V30 19343 H 1889.95 -0.612576 -4.37835 0
M  V30 19344 N 1889.01 1.14984 -1.07779 0
M  V30 19345 C 1890.26 1.86148 -0.804777 0
M  V30 19346 C 1890.59 1.82364 0.667615 0
M  V30 19347 O 1889.87 1.24982 1.4903 0
M  V30 19348 C 1890.15 3.35067 -1.31916 0
M  V30 19349 C 1890 3.4746 -2.85642 0
M  V30 19350 C 1891.32 4.29961 -0.939217 0
M  V30 19351 H 1888.44 0.675899 -0.293818 0
M  V30 19352 H 1891.08 1.35065 -1.33632 0
M  V30 19353 H 1889.23 3.78702 -0.867011 0
M  V30 19354 H 1890.9 3.12658 -3.3918 0
M  V30 19355 H 1889.15 2.88878 -3.23623 0
M  V30 19356 H 1889.82 4.52109 -3.16704 0
M  V30 19357 H 1892.29 3.94309 -1.3289 0
M  V30 19358 H 1891.17 5.32633 -1.32641 0
M  V30 19359 H 1891.43 4.4183 0.15442 0
M  V30 19360 N 1890.49 0.862526 1.31902 0
M  V30 19361 C 1891.71 0.483159 2.01694 0
M  V30 19362 C 1892.14 -0.914778 1.64358 0
M  V30 19363 O 1891.5 -1.60229 0.848308 0
M  V30 19364 C 1891.55 0.638911 3.54895 0
M  V30 19365 O 1890.65 -0.324962 4.11118 0
M  V30 19366 H 1889.99 0.193128 0.635293 0
M  V30 19367 H 1892.52 1.16389 1.6827 0
M  V30 19368 H 1892.53 0.529394 4.04551 0
M  V30 19369 H 1891.21 1.65828 3.81411 0
M  V30 19370 H 1889.78 -0.171025 3.72508 0
M  V30 19371 N 1891.97 -1.4484 0.62123 0
M  V30 19372 C 1893.19 -2.07012 0.126801 0
M  V30 19373 C 1893.62 -1.46046 -1.18542 0
M  V30 19374 O 1892.98 -0.558202 -1.72493 0
M  V30 19375 C 1893.02 -3.60597 0.0150611 0
M  V30 19376 O 1892.13 -3.9929 -1.03157 0
M  V30 19377 H 1891.47 -0.659131 0.0802646 0
M  V30 19378 H 1894 -1.85874 0.855105 0
M  V30 19379 H 1894.01 -4.07608 -0.178742 0
M  V30 19380 H 1892.68 -4.04354 0.973153 0
M  V30 19381 H 1891.26 -3.63927 -0.813135 0
M  V30 19382 N 1893.45 -0.361184 -1.53405 0
M  V30 19383 C 1894.69 0.230007 -2.03102 0
M  V30 19384 C 1895.05 1.4635 -1.2428 0
M  V30 19385 O 1896.25 2.13003 -1.63961 0
M  V30 19386 C 1894.52 0.519128 -3.5361 0
M  V30 19387 S 1896.08 1.08462 -4.25184 0
M  V30 19388 H 1892.9 0.0672785 -0.70781 0
M  V30 19389 H 1895.5 -0.503033 -1.88918 0
M  V30 19390 H 1894.21 -0.38616 -4.08579 0
M  V30 19391 H 1893.74 1.28136 -3.71947 0
M  V30 19392 H 1895.75 2.36918 -4.35987 0
M  V30 19393 N 1894.92 1.57341 -0.0902386 0
M  V30 19394 C 1895.86 2.10775 0.900374 0
M  V30 19395 C 1896.87 1.0439 1.24926 0
M  V30 19396 O 1898.06 1.31851 1.20322 0
M  V30 19397 C 1895.16 2.56852 2.21089 0
M  V30 19398 C 1894.33 3.87016 2.03808 0
M  V30 19399 C 1893.39 4.18991 3.18328 0
M  V30 19400 O 1892.42 4.88292 2.92505 0
M  V30 19401 N 1893.62 3.74006 4.43959 0
M  V30 19402 H 1896.38 2.96392 0.444045 0
M  V30 19403 H 1893.94 1.61621 0.0949979 0
M  V30 19404 H 1895.94 2.75292 2.96642 0
M  V30 19405 H 1894.51 1.76271 2.58161 0
M  V30 19406 H 1893.73 3.77772 1.12613 0
M  V30 19407 H 1895.01 4.72181 1.89532 0
M  V30 19408 H 1894.41 3.18056 4.67821 0
M  V30 19409 H 1892.97 3.97611 5.16477 0
M  V30 19410 N 1896.4 -0.183431 1.56529 0
M  V30 19411 C 1897.31 -1.24746 1.98684 0
M  V30 19412 C 1898.33 -1.49139 0.8963 0
M  V30 19413 O 1899.5 -1.61525 1.20298 0
M  V30 19414 C 1896.57 -2.56927 2.32786 0
M  V30 19415 C 1895.63 -2.40503 3.55607 0
M  V30 19416 C 1894.86 -3.66381 3.88073 0
M  V30 19417 O 1895.09 -4.71048 3.21668 0
M  V30 19418 O 1894.02 -3.61214 4.81465 0
M  V30 19419 H 1897.85 -0.919676 2.8944 0
M  V30 19420 H 1895.43 -0.389352 1.44237 0
M  V30 19421 H 1897.31 -3.34923 2.55744 0
M  V30 19422 H 1895.99 -2.89309 1.45196 0
M  V30 19423 H 1894.9 -1.6058 3.37883 0
M  V30 19424 H 1896.23 -2.1305 4.43701 0
M  V30 19425 N 1897.88 -1.50992 -0.451564 0
M  V30 19426 C 1898.83 -1.71277 -1.54703 0
M  V30 19427 C 1899.8 -0.554233 -1.56581 0
M  V30 19428 O 1900.98 -0.787053 -1.73811 0
M  V30 19429 C 1898.12 -1.83078 -2.92535 0
M  V30 19430 C 1897.24 -3.10559 -3.00295 0
M  V30 19431 C 1896.37 -3.13039 -4.29162 0
M  V30 19432 C 1895.41 -4.34893 -4.30737 0
M  V30 19433 N 1894.55 -4.35002 -5.51106 0
M  V30 19434 H 1899.39 -2.64791 -1.3671 0
M  V30 19435 H 1896.92 -1.31243 -0.664356 0
M  V30 19436 H 1898.88 -1.87901 -3.7249 0
M  V30 19437 H 1897.51 -0.929851 -3.09117 0
M  V30 19438 H 1896.56 -3.15113 -2.13091 0
M  V30 19439 H 1897.88 -4.00503 -2.9732 0
M  V30 19440 H 1897.03 -3.167 -5.17481 0
M  V30 19441 H 1895.77 -2.20959 -4.34774 0
M  V30 19442 H 1894.77 -4.31423 -3.40814 0
M  V30 19443 H 1896 -5.28221 -4.26801 0
M  V30 19444 H 1893.94 -3.45785 -5.57466 0
M  V30 19445 H 1893.86 -5.18738 -5.49952 0
M  V30 19446 H 1895.13 -4.42836 -6.41496 0
M  V30 19447 N 1899.36 0.706069 -1.40899 0
M  V30 19448 C 1900.77 1.01535 -1.23137 0
M  V30 19449 C 1900.97 2.01181 -0.113293 0
M  V30 19450 O 1900.03 2.46966 0.525732 0
M  V30 19451 C 1901.34 1.54998 -2.57674 0
M  V30 19452 C 1902.89 1.66935 -2.64767 0
M  V30 19453 C 1903.37 2.23802 -3.99596 0
M  V30 19454 N 1904.86 2.31176 -4.01388 0
M  V30 19455 C 1905.59 2.76181 -5.02506 0
M  V30 19456 N 1905.09 3.20868 -6.14016 0
M  V30 19457 N 1906.88 2.7565 -4.89871 0
M  V30 19458 H 1899.03 0.045751 -2.12351 0
M  V30 19459 H 1901.3 0.0828835 -0.94437 0
M  V30 19460 H 1901 0.892393 -3.4019 0
M  V30 19461 H 1900.88 2.53377 -2.79428 0
M  V30 19462 H 1903.26 2.31808 -1.82617 0
M  V30 19463 H 1903.34 0.671301 -2.46834 0
M  V30 19464 H 1902.99 1.59547 -4.8219 0
M  V30 19465 H 1902.92 3.24339 -4.14864 0
M  V30 19466 H 1905.41 1.99627 -3.2087 0
M  V30 19467 H 1905.72 3.53803 -6.87054 0
M  V30 19468 H 1904.07 3.18803 -6.17568 0
M  V30 19469 H 1907.26 2.40081 -4.01844 0
M  V30 19470 H 1907.43 3.10407 -5.68816 0
M  V30 19471 N 1900.84 1.26553 0.939264 0
M  V30 19472 C 1901.75 1.10059 2.07181 0
M  V30 19473 C 1902.76 0.033599 1.73968 0
M  V30 19474 O 1903.94 0.237723 1.99992 0
M  V30 19475 C 1901 0.737342 3.38769 0
M  V30 19476 C 1900.06 1.88395 3.85753 0
M  V30 19477 C 1899.3 1.53794 5.11061 0
M  V30 19478 O 1899.52 0.440543 5.68696 0
M  V30 19479 O 1898.45 2.37332 5.53134 0
M  V30 19480 H 1902.28 2.05075 2.24004 0
M  V30 19481 H 1899.87 1.05633 1.05651 0
M  V30 19482 H 1901.75 0.547578 4.17827 0
M  V30 19483 H 1900.42 -0.183404 3.2318 0
M  V30 19484 H 1899.33 2.1287 3.07632 0
M  V30 19485 H 1900.66 2.78449 4.05865 0
M  V30 19486 N 1902.31 -1.14411 1.08387 0
M  V30 19487 C 1903.73 -1.67013 0.83448 0
M  V30 19488 C 1904.08 -1.85509 -0.638802 0
M  V30 19489 O 1903.2 -1.56611 -1.49338 0
M  V30 19490 C 1903.8 -3.03377 1.50825 0
M  V30 19491 C 1902.36 -3.53013 1.3061 0
M  V30 19492 C 1901.5 -2.28494 1.57117 0
M  V30 19493 H 1904.45 -0.984794 1.24449 0
M  V30 19494 H 1904.47 -3.68824 0.935352 0
M  V30 19495 H 1903.99 -2.89883 2.5805 0
M  V30 19496 H 1902.09 -3.7173 0.254538 0
M  V30 19497 H 1902.2 -4.33799 2.0336 0
M  V30 19498 H 1900.56 -2.34558 0.99271 0
M  V30 19499 H 1901.35 -2.17576 2.65547 0
M  V30 19500 N 1903.79 -0.869509 -1.31443 0
M  V30 19501 C 1904.72 -0.282169 -2.27456 0
M  V30 19502 C 1905.74 0.55453 -1.53065 0
M  V30 19503 O 1906.93 0.376597 -1.74482 0
M  V30 19504 C 1904.03 0.618652 -3.33206 0
M  V30 19505 C 1903.2 -0.185505 -4.37006 0
M  V30 19506 C 1902.26 0.643383 -5.22252 0
M  V30 19507 O 1901.28 0.0715827 -5.69155 0
M  V30 19508 N 1902.49 1.95545 -5.46573 0
M  V30 19509 H 1905.25 -1.10726 -2.78496 0
M  V30 19510 H 1902.81 -0.730947 -1.4446 0
M  V30 19511 H 1904.8 1.17886 -3.8715 0
M  V30 19512 H 1903.37 1.34442 -2.82213 0
M  V30 19513 H 1902.59 -0.927156 -3.83142 0
M  V30 19514 H 1903.88 -0.73731 -5.03429 0
M  V30 19515 H 1903.28 2.44315 -5.10222 0
M  V30 19516 H 1901.84 2.46345 -6.03455 0
M  V30 19517 N 1905.27 1.44508 -0.628902 0
M  V30 19518 C 1906.52 2.01667 -0.13224 0
M  V30 19519 C 1906.84 1.49706 1.24953 0
M  V30 19520 O 1906.11 0.699769 1.82976 0
M  V30 19521 H 1904.69 0.745589 -0.0458966 0
M  V30 19522 H 1907.35 1.77037 -0.815102 0
M  V30 19523 H 1906.45 3.11945 -0.0982328 0
M  V30 19524 N 1906.75 0.369315 1.53212 0
M  V30 19525 C 1908 -0.219209 2.0131 0
M  V30 19526 C 1908.32 -1.48469 1.25647 0
M  V30 19527 O 1907.58 -1.92734 0.339443 0
M  V30 19528 C 1907.88 -0.553392 3.5309 0
M  V30 19529 C 1907.54 0.618198 4.46642 0
M  V30 19530 C 1906.21 0.939656 4.71936 0
M  V30 19531 C 1908.56 1.40294 5.01963 0
M  V30 19532 C 1905.89 2.04776 5.49803 0
M  V30 19533 C 1908.24 2.50149 5.81041 0
M  V30 19534 C 1906.9 2.82826 6.0462 0
M  V30 19535 H 1906.17 -0.0802141 0.736646 0
M  V30 19536 H 1908.82 0.502547 1.84788 0
M  V30 19537 H 1907.12 -1.35621 3.67579 0
M  V30 19538 H 1908.82 -1.02106 3.87783 0
M  V30 19539 H 1905.41 0.35762 4.27105 0
M  V30 19540 H 1909.6 1.16784 4.82364 0
M  V30 19541 H 1904.85 2.30487 5.66291 0
M  V30 19542 H 1909.03 3.1137 6.22914 0
M  V30 19543 H 1906.65 3.68812 6.64742 0
M  V30 19544 N 1908.23 -1.57291 0.0985816 0
M  V30 19545 C 1909.18 -2.10757 -0.869797 0
M  V30 19546 C 1910.16 -1.02343 -1.24156 0
M  V30 19547 O 1911.35 -1.28612 -1.21606 0
M  V30 19548 C 1908.48 -2.69425 -2.12756 0
M  V30 19549 C 1907.57 -3.84888 -1.78107 0
M  V30 19550 N 1907.96 -4.92778 -1.14034 0
M  V30 19551 C 1906.26 -3.94688 -2.07695 0
M  V30 19552 C 1906.96 -5.73373 -0.980736 0
M  V30 19553 N 1905.93 -5.22519 -1.49917 0
M  V30 19554 H 1909.74 -2.91555 -0.370523 0
M  V30 19555 H 1907.25 -1.62063 -0.104525 0
M  V30 19556 H 1909.25 -3.0606 -2.83077 0
M  V30 19557 H 1907.91 -1.90083 -2.63246 0
M  V30 19558 H 1908.92 -5.11578 -0.806735 0
M  V30 19559 H 1905.6 -3.2636 -2.60375 0
M  V30 19560 H 1906.99 -6.70188 -0.479379 0
M  V30 19561 N 1909.71 0.175127 -1.56624 0
M  V30 19562 C 1910.65 1.21687 -1.96114 0
M  V30 19563 C 1911.62 1.44191 -0.824518 0
M  V30 19564 O 1912.81 1.56994 -1.08433 0
M  V30 19565 C 1909.95 2.55207 -2.323 0
M  V30 19566 C 1909.06 2.40115 -3.59122 0
M  V30 19567 C 1908.2 3.66475 -3.84538 0
M  V30 19568 C 1907.23 3.463 -5.04721 0
M  V30 19569 N 1906.37 4.6472 -5.26288 0
M  V30 19570 H 1911.21 0.873106 -2.84923 0
M  V30 19571 H 1908.75 0.419721 -1.40985 0
M  V30 19572 H 1910.71 3.33022 -2.51302 0
M  V30 19573 H 1909.34 2.87587 -1.46607 0
M  V30 19574 H 1908.39 1.53496 -3.48056 0
M  V30 19575 H 1909.7 2.21151 -4.47095 0
M  V30 19576 H 1908.85 4.52726 -4.03886 0
M  V30 19577 H 1907.59 3.88414 -2.94934 0
M  V30 19578 H 1906.6 2.58435 -4.85274 0
M  V30 19579 H 1907.82 3.25787 -5.95852 0
M  V30 19580 H 1905.77 4.86885 -4.39635 0
M  V30 19581 H 1905.69 4.48656 -6.08477 0
M  V30 19582 H 1906.95 5.52265 -5.50112 0
M  V30 19583 N 1911.18 1.5123 0.44355 0
M  V30 19584 C 1912.43 1.63833 1.19527 0
M  V30 19585 C 1912.76 0.350544 1.9101 0
M  V30 19586 O 1912.04 -0.649546 1.83333 0
M  V30 19587 C 1912.32 2.83747 2.21719 0
M  V30 19588 C 1912.17 4.22484 1.5436 0
M  V30 19589 C 1913.49 2.99184 3.22765 0
M  V30 19590 H 1910.61 0.596256 0.433184 0
M  V30 19591 H 1913.25 1.83697 0.485321 0
M  V30 19592 H 1911.4 2.66942 2.82267 0
M  V30 19593 H 1913.08 4.50944 0.971976 0
M  V30 19594 H 1911.32 4.25469 0.846069 0
M  V30 19595 H 1911.99 5.0237 2.28754 0
M  V30 19596 H 1914.47 3.14659 2.72266 0
M  V30 19597 H 1913.34 3.84663 3.91569 0
M  V30 19598 H 1913.6 2.10984 3.88508 0
M  V30 19599 N 1912.66 -0.698586 1.41271 0
M  V30 19600 C 1913.62 -1.7943 1.4261 0
M  V30 19601 C 1914.62 -1.57641 0.317187 0
M  V30 19602 O 1915.81 -1.64369 0.576922 0
M  V30 19603 C 1912.95 -3.17762 1.23452 0
M  V30 19604 H 1914.14 -1.79637 2.40147 0
M  V30 19605 H 1911.69 -0.905916 1.27369 0
M  V30 19606 H 1912.43 -3.23195 0.267431 0
M  V30 19607 H 1912.21 -3.34978 2.03794 0
M  V30 19608 H 1913.7 -3.97751 1.27217 0
M  V30 19609 N 1914.14 -1.27049 -0.93254 0
M  V30 19610 C 1915.39 -1.12879 -1.67639 0
M  V30 19611 C 1915.71 0.326803 -1.92242 0
M  V30 19612 O 1914.98 1.22934 -1.52525 0
M  V30 19613 H 1913.56 -0.414741 -0.621288 0
M  V30 19614 H 1916.22 -1.59505 -1.12 0
M  V30 19615 H 1915.32 -1.65417 -2.64658 0
M  V30 19616 N 1915.62 1.13835 -1.08993 0
M  V30 19617 C 1916.55 2.21226 -0.74707 0
M  V30 19618 C 1917.53 1.67891 0.273232 0
M  V30 19619 O 1918.71 1.93678 0.142278 0
M  V30 19620 C 1915.84 3.46922 -0.162028 0
M  V30 19621 C 1914.8 4.1332 -1.11135 0
M  V30 19622 C 1914.12 5.33289 -0.388228 0
M  V30 19623 C 1915.42 4.61169 -2.45195 0
M  V30 19624 H 1917.12 2.50162 -1.64497 0
M  V30 19625 H 1914.66 1.20239 -0.792368 0
M  V30 19626 H 1916.62 4.21304 0.0898753 0
M  V30 19627 H 1915.34 3.17368 0.771036 0
M  V30 19628 H 1914 3.40899 -1.34845 0
M  V30 19629 H 1913.65 4.99997 0.548832 0
M  V30 19630 H 1913.35 5.78659 -1.02115 0
M  V30 19631 H 1914.87 6.10429 -0.144519 0
M  V30 19632 H 1916.29 5.26996 -2.25717 0
M  V30 19633 H 1914.68 5.17263 -3.04235 0
M  V30 19634 H 1915.75 3.75923 -3.06284 0
M  V30 19635 N 1917.1 0.876467 1.3098 0
M  V30 19636 C 1918.03 0.352925 2.30817 0
M  V30 19637 C 1919.01 -0.559675 1.60629 0
M  V30 19638 O 1920.19 -0.475326 1.88293 0
M  V30 19639 C 1917.32 -0.440827 3.44491 0
M  V30 19640 C 1916.28 0.379253 4.26316 0
M  V30 19641 C 1915.6 -0.540582 5.3196 0
M  V30 19642 C 1916.9 1.61682 4.96645 0
M  V30 19643 H 1918.6 1.18719 2.74857 0
M  V30 19644 H 1916.14 0.572316 1.32138 0
M  V30 19645 H 1918.09 -0.817661 4.13391 0
M  V30 19646 H 1916.82 -1.30866 2.99235 0
M  V30 19647 H 1915.48 0.738117 3.59092 0
M  V30 19648 H 1915.13 -1.40588 4.82953 0
M  V30 19649 H 1914.83 0.00427133 5.876 0
M  V30 19650 H 1916.35 -0.914118 6.03719 0
M  V30 19651 H 1917.76 1.31105 5.58108 0
M  V30 19652 H 1916.16 2.10123 5.62111 0
M  V30 19653 H 1917.23 2.36602 4.23258 0
M  V30 19654 N 1918.57 -1.44173 0.636557 0
M  V30 19655 C 1919.8 -2.06352 0.150456 0
M  V30 19656 C 1920.22 -1.47608 -1.17718 0
M  V30 19657 O 1919.57 -0.601003 -1.7232 0
M  V30 19658 C 1919.62 -3.61483 0.0353658 0
M  V30 19659 O 1919.35 -4.1804 1.3105 0
M  V30 19660 C 1920.85 -4.40707 -0.478789 0
M  V30 19661 H 1918.07 -0.665948 0.0821807 0
M  V30 19662 H 1920.61 -1.84953 0.872495 0
M  V30 19663 H 1918.77 -3.82125 -0.637142 0
M  V30 19664 H 1919.18 -5.11538 1.15886 0
M  V30 19665 H 1920.65 -5.49655 -0.508315 0
M  V30 19666 H 1921.13 -4.1254 -1.5069 0
M  V30 19667 H 1921.74 -4.24996 0.160654 0
M  V30 19668 N 1920.05 -0.377435 -1.53014 0
M  V30 19669 C 1920.98 0.498304 -2.23718 0
M  V30 19670 C 1922 1.03648 -1.25542 0
M  V30 19671 O 1923.19 0.940837 -1.51692 0
M  V30 19672 C 1920.29 1.70201 -2.93061 0
M  V30 19673 C 1919.46 1.29328 -4.17843 0
M  V30 19674 C 1918.52 2.36036 -4.70291 0
M  V30 19675 O 1917.54 1.97934 -5.33677 0
M  V30 19676 N 1918.75 3.67788 -4.49124 0
M  V30 19677 H 1921.51 -0.107388 -2.99508 0
M  V30 19678 H 1919.07 -0.203197 -1.6062 0
M  V30 19679 H 1921.06 2.41087 -3.25052 0
M  V30 19680 H 1919.63 2.21431 -2.20652 0
M  V30 19681 H 1918.85 0.413779 -3.92022 0
M  V30 19682 H 1920.14 0.996666 -4.98943 0
M  V30 19683 H 1919.54 4.01512 -3.98503 0
M  V30 19684 H 1918.1 4.34744 -4.85635 0
M  V30 19685 N 1921.53 1.57237 -0.106922 0
M  V30 19686 C 1922.48 2.14668 0.847728 0
M  V30 19687 C 1923.45 1.06838 1.2718 0
M  V30 19688 O 1924.63 1.34686 1.35146 0
M  V30 19689 C 1921.77 2.74079 2.09702 0
M  V30 19690 C 1920.89 3.96178 1.7224 0
M  V30 19691 C 1920.02 4.43715 2.92045 0
M  V30 19692 C 1919.06 5.58375 2.50766 0
M  V30 19693 N 1918.2 6.00711 3.63443 0
M  V30 19694 H 1923.04 2.95924 0.351133 0
M  V30 19695 H 1920.57 1.46209 0.161636 0
M  V30 19696 H 1922.53 3.06649 2.82882 0
M  V30 19697 H 1921.16 1.95532 2.56841 0
M  V30 19698 H 1920.21 3.69846 0.889819 0
M  V30 19699 H 1921.53 4.7936 1.37896 0
M  V30 19700 H 1920.68 4.78131 3.73464 0
M  V30 19701 H 1919.42 3.59458 3.29607 0
M  V30 19702 H 1918.42 5.23576 1.67776 0
M  V30 19703 H 1919.65 6.4439 2.14334 0
M  V30 19704 H 1917.59 5.19397 4.00702 0
M  V30 19705 H 1917.51 6.78718 3.32983 0
M  V30 19706 H 1918.78 6.39761 4.45338 0
M  V30 19707 N 1923.01 -0.166818 1.56715 0
M  V30 19708 C 1923.94 -1.2086 1.99787 0
M  V30 19709 C 1924.92 -1.45918 0.874178 0
M  V30 19710 O 1926.1 -1.57176 1.14058 0
M  V30 19711 C 1923.23 -2.54648 2.3616 0
M  V30 19712 C 1922.19 -2.44151 3.51532 0
M  V30 19713 C 1921.51 -3.82469 3.7366 0
M  V30 19714 C 1922.81 -1.9424 4.84838 0
M  V30 19715 H 1924.51 -0.850538 2.87065 0
M  V30 19716 H 1922.05 -0.407696 1.38108 0
M  V30 19717 H 1924.01 -3.27736 2.64891 0
M  V30 19718 H 1922.73 -2.92251 1.45797 0
M  V30 19719 H 1921.39 -1.73516 3.22936 0
M  V30 19720 H 1921.04 -4.17473 2.8058 0
M  V30 19721 H 1920.74 -3.76312 4.5129 0
M  V30 19722 H 1922.26 -4.57136 4.04796 0
M  V30 19723 H 1923.68 -2.57105 5.12416 0
M  V30 19724 H 1922.07 -1.99021 5.66137 0
M  V30 19725 H 1923.14 -0.89695 4.76532 0
M  V30 19726 N 1924.49 -1.51463 -0.435524 0
M  V30 19727 C 1925.71 -1.68031 -1.20719 0
M  V30 19728 C 1926.13 -0.378427 -1.84969 0
M  V30 19729 O 1925.49 0.643234 -1.70789 0
M  V30 19730 C 1925.54 -2.79726 -2.28989 0
M  V30 19731 O 1925.26 -4.0487 -1.67367 0
M  V30 19732 C 1926.76 -3.07578 -3.19234 0
M  V30 19733 H 1923.98 -0.56383 -0.363781 0
M  V30 19734 H 1926.52 -1.97888 -0.515825 0
M  V30 19735 H 1924.68 -2.52463 -2.93839 0
M  V30 19736 H 1925.09 -4.66915 -2.38937 0
M  V30 19737 H 1926.57 -3.89309 -3.91334 0
M  V30 19738 H 1927.04 -2.20059 -3.80093 0
M  V30 19739 H 1927.65 -3.36507 -2.60083 0
M  V30 19740 N 1925.96 0.691085 -1.4164 0
M  V30 19741 C 1927.19 1.47764 -1.44393 0
M  V30 19742 C 1927.6 1.89137 -0.0489239 0
M  V30 19743 O 1926.95 1.57642 0.943111 0
M  V30 19744 C 1927.01 2.76837 -2.29351 0
M  V30 19745 C 1926.67 2.5764 -3.77453 0
M  V30 19746 C 1927.67 2.23295 -4.69505 0
M  V30 19747 C 1925.35 2.73141 -4.21544 0
M  V30 19748 C 1927.35 2.04696 -6.03638 0
M  V30 19749 C 1925.03 2.54158 -5.5574 0
M  V30 19750 C 1926.03 2.19987 -6.46603 0
M  V30 19751 O 1925.72 2.01173 -7.78322 0
M  V30 19752 H 1925.45 0.461744 -0.493729 0
M  V30 19753 H 1928.01 0.857998 -1.86621 0
M  V30 19754 H 1926.24 3.41223 -1.81944 0
M  V30 19755 H 1927.93 3.38659 -2.23752 0
M  V30 19756 H 1928.69 2.1093 -4.36731 0
M  V30 19757 H 1924.57 2.98721 -3.51122 0
M  V30 19758 H 1928.11 1.77947 -6.74523 0
M  V30 19759 H 1924.01 2.66115 -5.88093 0
M  V30 19760 H 1924.78 2.15901 -7.89512 0
M  V30 19761 N 1927.44 1.27542 0.925789 0
M  V30 19762 C 1928.35 1.1225 2.06002 0
M  V30 19763 C 1929.37 0.0520487 1.73922 0
M  V30 19764 O 1930.54 0.258921 1.99729 0
M  V30 19765 C 1927.61 0.773231 3.37967 0
M  V30 19766 C 1926.67 1.92476 3.83733 0
M  V30 19767 C 1925.9 1.59206 5.09401 0
M  V30 19768 O 1926.13 0.500836 5.68197 0
M  V30 19769 O 1925.06 2.43185 5.50586 0
M  V30 19770 H 1928.89 2.07439 2.21817 0
M  V30 19771 H 1926.47 1.06747 1.04525 0
M  V30 19772 H 1928.35 0.591863 4.17223 0
M  V30 19773 H 1927.03 -0.149116 3.23356 0
M  V30 19774 H 1925.94 2.1612 3.05357 0
M  V30 19775 H 1927.27 2.82738 4.02889 0
M  V30 19776 N 1928.92 -1.13255 1.09595 0
M  V30 19777 C 1929.87 -2.20794 0.731624 0
M  V30 19778 C 1930.86 -1.67263 -0.268256 0
M  V30 19779 O 1932.07 -1.79533 -0.129535 0
M  V30 19780 H 1928.44 -0.719521 0.218618 0
M  V30 19781 H 1930.41 -2.48784 1.6477 0
M  V30 19782 C 1929.16 -3.47283 0.170214 0
M  V30 19783 H 1928.49 -3.88814 0.930805 0
M  V30 19784 H 1929.93 -4.23974 -0.0467499 0
M  V30 19785 C 1928.39 -3.18609 -1.09497 0
M  V30 19786 O 1928.92 -3.37534 -2.17793 0
M  V30 19787 N 1927.12 -2.72477 -1.01017 0
M  V30 19788 H 1926.67 -2.57278 -0.128814 0
M  V30 19789 H 1926.63 -2.53668 -1.85741 0
M  V30 19790 N 1930.4 -0.883401 -1.30514 0
M  V30 19791 C 1931.65 -0.500062 -1.95816 0
M  V30 19792 C 1931.97 0.953596 -1.70093 0
M  V30 19793 O 1931.24 1.67027 -1.02365 0
M  V30 19794 H 1929.82 -0.181936 -0.724506 0
M  V30 19795 H 1932.48 -1.12613 -1.59073 0
M  V30 19796 H 1931.58 -0.668998 -3.04846 0
M  V30 19797 N 1931.88 1.43833 -0.644194 0
M  V30 19798 C 1932.81 2.33467 0.0394911 0
M  V30 19799 C 1933.79 1.48957 0.821339 0
M  V30 19800 O 1934.97 1.77644 0.784618 0
M  V30 19801 C 1932.1 3.32205 1.01277 0
M  V30 19802 C 1931.06 4.26634 0.341666 0
M  V30 19803 C 1930.38 5.15341 1.42577 0
M  V30 19804 C 1931.68 5.16737 -0.760299 0
M  V30 19805 H 1933.38 2.90883 -0.709025 0
M  V30 19806 H 1930.92 1.3987 -0.342413 0
M  V30 19807 H 1932.88 3.93803 1.49991 0
M  V30 19808 H 1931.6 2.73025 1.79234 0
M  V30 19809 H 1930.26 3.66387 -0.124937 0
M  V30 19810 H 1929.91 4.52505 2.19654 0
M  V30 19811 H 1929.61 5.79336 0.98203 0
M  V30 19812 H 1931.13 5.79811 1.91444 0
M  V30 19813 H 1932.54 5.72195 -0.355713 0
M  V30 19814 H 1930.94 5.89404 -1.12796 0
M  V30 19815 H 1932.01 4.56966 -1.62204 0
M  V30 19816 N 1933.35 0.385544 1.52811 0
M  V30 19817 C 1934.28 -0.442951 2.2926 0
M  V30 19818 C 1935.27 -1.06674 1.32494 0
M  V30 19819 O 1936.45 -1.08022 1.61384 0
M  V30 19820 C 1933.58 -1.57243 3.09664 0
M  V30 19821 C 1932.53 -1.07488 4.14283 0
M  V30 19822 C 1931.86 -2.29614 4.82889 0
M  V30 19823 C 1933.16 -0.145479 5.22097 0
M  V30 19824 H 1934.85 0.1949 2.98765 0
M  V30 19825 H 1932.4 0.0951762 1.43685 0
M  V30 19826 H 1934.35 -2.15882 3.61902 0
M  V30 19827 H 1933.08 -2.23781 2.37885 0
M  V30 19828 H 1931.74 -0.511047 3.6302 0
M  V30 19829 H 1931.38 -2.94653 4.07662 0
M  V30 19830 H 1931.08 -1.96985 5.53598 0
M  V30 19831 H 1932.61 -2.88902 5.37929 0
M  V30 19832 H 1934.02 -0.639941 5.69717 0
M  V30 19833 H 1932.42 0.0908687 6.00031 0
M  V30 19834 H 1933.49 0.806707 4.78142 0
M  V30 19835 N 1934.83 -1.57178 0.115259 0
M  V30 19836 C 1935.78 -2.15114 -0.836331 0
M  V30 19837 C 1936.75 -1.07511 -1.26612 0
M  V30 19838 O 1937.93 -1.354 -1.3443 0
M  V30 19839 C 1935.07 -2.75187 -2.08245 0
M  V30 19840 C 1934.19 -3.97086 -1.70137 0
M  V30 19841 C 1933.32 -4.45258 -2.89687 0
M  V30 19842 C 1932.36 -5.59697 -2.47801 0
M  V30 19843 N 1931.5 -6.0263 -3.60252 0
M  V30 19844 H 1936.34 -2.96106 -0.335434 0
M  V30 19845 H 1933.88 -1.46293 -0.15388 0
M  V30 19846 H 1935.83 -3.08145 -2.81252 0
M  V30 19847 H 1934.46 -1.96891 -2.558 0
M  V30 19848 H 1933.52 -3.70313 -0.870192 0
M  V30 19849 H 1934.83 -4.80085 -1.35352 0
M  V30 19850 H 1933.98 -4.80105 -3.70923 0
M  V30 19851 H 1932.72 -3.61201 -3.27696 0
M  V30 19852 H 1931.73 -5.24458 -1.64997 0
M  V30 19853 H 1932.95 -6.45517 -2.10913 0
M  V30 19854 H 1930.9 -5.21515 -3.97942 0
M  V30 19855 H 1930.81 -6.80474 -3.29379 0
M  V30 19856 H 1932.08 -6.42114 -4.41939 0
M  V30 19857 N 1936.31 0.158505 -1.56801 0
M  V30 19858 C 1937.24 1.22518 -1.92522 0
M  V30 19859 C 1938.22 1.42142 -0.789589 0
M  V30 19860 O 1939.41 1.56941 -1.04412 0
M  V30 19861 C 1936.53 2.58604 -2.18728 0
M  V30 19862 C 1935.58 2.55642 -3.41394 0
M  V30 19863 S 1936.41 2.03464 -4.95341 0
M  V30 19864 C 1937.57 3.41302 -5.24656 0
M  V30 19865 H 1937.8 0.920362 -2.82695 0
M  V30 19866 H 1935.33 0.363629 -1.50057 0
M  V30 19867 H 1937.29 3.36923 -2.34506 0
M  V30 19868 H 1935.95 2.8628 -1.29239 0
M  V30 19869 H 1935.15 3.55792 -3.56971 0
M  V30 19870 H 1934.75 1.85426 -3.24797 0
M  V30 19871 H 1937.04 4.37361 -5.17418 0
M  V30 19872 H 1937.98 3.30588 -6.26192 0
M  V30 19873 H 1938.39 3.37906 -4.52194 0
M  V30 19874 N 1937.79 1.51692 0.427485 0
M  V30 19875 C 1938.74 1.74303 1.54017 0
M  V30 19876 C 1939.73 0.609588 1.58052 0
M  V30 19877 O 1940.94 0.791207 1.61678 0
M  V30 19878 H 1937.31 0.550902 0.51187 0
M  V30 19879 H 1939.28 2.67556 1.32123 0
M  V30 19880 C 1938.03 1.89415 2.91577 0
M  V30 19881 H 1937.36 2.76041 2.89208 0
M  V30 19882 H 1938.8 2.09244 3.68772 0
M  V30 19883 C 1937.25 0.656462 3.30442 0
M  V30 19884 O 1937.78 -0.184283 4.01277 0
M  V30 19885 N 1935.99 0.497681 2.86307 0
M  V30 19886 H 1935.54 1.18293 2.28833 0
M  V30 19887 H 1935.5 -0.329176 3.12672 0
M  V30 19888 N 1939.27 -0.683564 1.42004 0
M  V30 19889 C 1940.51 -1.44363 1.42005 0
M  V30 19890 C 1940.84 -1.94471 0.0333832 0
M  V30 19891 O 1940.1 -1.70716 -0.95679 0
M  V30 19892 C 1940.4 -2.66286 2.38383 0
M  V30 19893 C 1940.06 -2.34769 3.8496 0
M  V30 19894 C 1938.72 -2.25884 4.24888 0
M  V30 19895 C 1941.08 -2.09012 4.77455 0
M  V30 19896 C 1938.4 -1.89356 5.55303 0
M  V30 19897 C 1940.76 -1.73991 6.08202 0
M  V30 19898 C 1939.42 -1.6361 6.47138 0
M  V30 19899 H 1938.69 -0.528262 0.519634 0
M  V30 19900 H 1941.34 -0.780217 1.74885 0
M  V30 19901 H 1939.64 -3.37618 1.98799 0
M  V30 19902 H 1941.34 -3.24452 2.35652 0
M  V30 19903 H 1937.93 -2.42583 3.53343 0
M  V30 19904 H 1942.11 -2.14814 4.47402 0
M  V30 19905 H 1937.37 -1.79882 5.84339 0
M  V30 19906 H 1941.54 -1.53084 6.79366 0
M  V30 19907 H 1939.17 -1.35075 7.48103 0
M  V30 19908 N 1940.75 -1.28031 -0.919012 0
M  V30 19909 C 1941.97 -1.17714 -1.7015 0
M  V30 19910 C 1942.39 0.264914 -1.86932 0
M  V30 19911 O 1941.75 1.17957 -1.39256 0
M  V30 19912 C 1941.8 -1.86548 -3.09648 0
M  V30 19913 O 1941.52 -3.25121 -2.93646 0
M  V30 19914 C 1943.02 -1.82467 -4.04006 0
M  V30 19915 H 1940.24 -0.408863 -0.532045 0
M  V30 19916 H 1942.78 -1.69061 -1.1506 0
M  V30 19917 H 1940.94 -1.39085 -3.61572 0
M  V30 19918 H 1941.35 -3.59518 -3.81899 0
M  V30 19919 H 1942.83 -2.35229 -4.99371 0
M  V30 19920 H 1943.3 -0.795892 -4.31928 0
M  V30 19921 H 1943.91 -2.29585 -3.5801 0
M  V30 19922 N 1942.22 1.12672 -1.10194 0
M  V30 19923 C 1943.47 1.83763 -0.841168 0
M  V30 19924 C 1943.79 1.84369 0.635061 0
M  V30 19925 O 1943.06 1.30504 1.46101 0
M  V30 19926 H 1941.64 0.680461 -0.308192 0
M  V30 19927 H 1944.3 1.36447 -1.3917 0
M  V30 19928 H 1943.4 2.88034 -1.20178 0
M  V30 19929 N 1943.7 0.89031 1.30043 0
M  V30 19930 C 1944.95 0.51044 1.95548 0
M  V30 19931 C 1945.27 -0.944562 1.70596 0
M  V30 19932 O 1944.54 -1.66482 1.0325 0
M  V30 19933 H 1943.12 0.185776 0.723531 0
M  V30 19934 H 1945.78 1.13455 1.58474 0
M  V30 19935 H 1944.88 0.685155 3.04487 0
M  V30 19936 N 1945.18 -1.43489 0.651812 0
M  V30 19937 C 1946.46 -1.95371 0.0946135 0
M  V30 19938 C 1946.84 -1.59316 -1.38498 0
M  V30 19939 O 1946.18 -0.87757 -2.10976 0
M  V30 19940 C 1946.39 -3.47346 0.339353 0
M  V30 19941 C 1947.74 -4.23901 0.243543 0
M  V30 19942 O 1948.77 -3.55161 0.271836 0
M  V30 19943 O 1947.63 -5.46248 0.166055 0
M  V30 19944 H 1944.72 -0.826934 -0.0104284 0
M  V30 19945 H 1947.27 -1.53436 0.724952 0
M  V30 19946 H 1946.04 -3.66712 1.36522 0
M  V30 19947 H 1945.66 -3.96277 -0.324122 0
M  V30 19948 N 1946.66 -0.393643 -1.52605 0
M  V30 19949 C 1947.89 0.1871 -2.06052 0
M  V30 19950 C 1948.3 1.40154 -1.26501 0
M  V30 19951 O 1947.66 1.798 -0.31279 0
M  V30 19952 C 1947.71 0.552918 -3.57246 0
M  V30 19953 O 1947.43 -0.613274 -4.33786 0
M  V30 19954 C 1948.93 1.18906 -4.27055 0
M  V30 19955 H 1946.15 0.0272042 -0.670448 0
M  V30 19956 H 1948.69 -0.560126 -1.9668 0
M  V30 19957 H 1946.85 1.25004 -3.66678 0
M  V30 19958 H 1947.26 -0.311611 -5.23574 0
M  V30 19959 H 1948.74 1.39535 -5.34073 0
M  V30 19960 H 1949.21 2.15768 -3.82545 0
M  V30 19961 H 1949.82 0.532579 -4.21952 0
M  V30 19962 N 1948.14 1.57115 -0.123593 0
M  V30 19963 C 1949.38 1.97238 0.536324 0
M  V30 19964 C 1949.74 1.00568 1.63554 0
M  V30 19965 O 1950.94 1.29647 2.35468 0
M  V30 19966 C 1949.21 3.41596 1.05106 0
M  V30 19967 S 1950.77 4.03734 1.71886 0
M  V30 19968 H 1947.59 0.689335 0.17418 0
M  V30 19969 H 1950.19 1.94371 -0.209763 0
M  V30 19970 H 1948.89 4.09698 0.239937 0
M  V30 19971 H 1948.43 3.48123 1.83231 0
M  V30 19972 H 1950.44 3.94867 3.0049 0
M  V30 19973 N 1949.61 -0.150187 1.56883 0
M  V30 19974 C 1950.56 -1.19064 1.94442 0
M  V30 19975 C 1951.55 -1.38715 0.815284 0
M  V30 19976 O 1952.74 -1.40331 1.07871 0
M  V30 19977 C 1949.87 -2.52506 2.32585 0
M  V30 19978 C 1948.95 -2.3646 3.52062 0
M  V30 19979 N 1949.35 -1.90165 4.68691 0
M  V30 19980 C 1947.64 -2.67222 3.57083 0
M  V30 19981 C 1948.34 -1.87087 5.50793 0
M  V30 19982 N 1947.32 -2.30281 4.92414 0
M  V30 19983 H 1951.12 -0.824746 2.82091 0
M  V30 19984 H 1948.64 -0.358273 1.58399 0
M  V30 19985 H 1950.63 -3.27717 2.57696 0
M  V30 19986 H 1949.29 -2.8988 1.46286 0
M  V30 19987 H 1950.3 -1.60179 4.92507 0
M  V30 19988 H 1946.98 -3.08492 2.81316 0
M  V30 19989 H 1948.37 -1.52813 6.54292 0
M  V30 19990 N 1951.09 -1.51916 -0.419434 0
M  V30 19991 C 1952.04 -1.7452 -1.51035 0
M  V30 19992 C 1953.01 -0.587321 -1.5537 0
M  V30 19993 O 1954.19 -0.823744 -1.72102 0
M  V30 19994 C 1951.33 -1.89242 -2.88585 0
M  V30 19995 C 1950.45 -3.16859 -2.9364 0
M  V30 19996 C 1949.58 -3.22072 -4.22426 0
M  V30 19997 C 1948.62 -4.43931 -4.21416 0
M  V30 19998 N 1947.76 -4.46594 -5.41755 0
M  V30 19999 H 1952.6 -2.67631 -1.31063 0
M  V30 20000 H 1950.14 -1.32623 -0.636368 0
M  V30 20001 H 1952.09 -1.9576 -3.68421 0
M  V30 20002 H 1950.72 -0.995211 -3.07076 0
M  V30 20003 H 1949.78 -3.19562 -2.06359 0
M  V30 20004 H 1951.09 -4.06719 -2.88758 0
M  V30 20005 H 1950.24 -3.27605 -5.10647 0
M  V30 20006 H 1948.98 -2.30131 -4.29989 0
M  V30 20007 H 1947.99 -4.38555 -3.31586 0
M  V30 20008 H 1949.21 -5.37155 -4.15501 0
M  V30 20009 H 1947.16 -3.57532 -5.50006 0
M  V30 20010 H 1947.07 -5.30286 -5.38825 0
M  V30 20011 H 1948.34 -4.56343 -6.31958 0
M  V30 20012 N 1952.57 0.676023 -1.42365 0
M  V30 20013 C 1953.82 1.43821 -1.4298 0
M  V30 20014 C 1954.15 1.94147 -0.0455702 0
M  V30 20015 O 1953.42 1.70826 0.929976 0
M  V30 20016 C 1953.71 2.63612 -2.45318 0
M  V30 20017 C 1953.56 2.18926 -3.92927 0
M  V30 20018 C 1954.88 3.65827 -2.4466 0
M  V30 20019 H 1952 0.521622 -0.520653 0
M  V30 20020 H 1954.64 0.76837 -1.7377 0
M  V30 20021 H 1952.79 3.2076 -2.19193 0
M  V30 20022 H 1954.46 1.66955 -4.30028 0
M  V30 20023 H 1952.71 1.50512 -4.06852 0
M  V30 20024 H 1953.38 3.04965 -4.60109 0
M  V30 20025 H 1955.85 3.18393 -2.6789 0
M  V30 20026 H 1954.73 4.47226 -3.18245 0
M  V30 20027 H 1954.99 4.1687 -1.47213 0
M  V30 20028 N 1954.05 1.28517 0.912209 0
M  V30 20029 C 1955.28 1.18443 1.69277 0
M  V30 20030 C 1955.69 -0.259286 1.87415 0
M  V30 20031 O 1955.03 -1.1869 1.40208 0
M  V30 20032 C 1955.09 1.81281 3.10447 0
M  V30 20033 C 1954.76 3.30534 3.15589 0
M  V30 20034 C 1955.75 4.26946 2.9667 0
M  V30 20035 C 1953.44 3.71517 3.38053 0
M  V30 20036 C 1955.43 5.62317 3.0013 0
M  V30 20037 C 1953.12 5.07014 3.41145 0
M  V30 20038 C 1954.12 6.02224 3.22204 0
M  V30 20039 O 1953.8 7.35249 3.2506 0
M  V30 20040 H 1953.54 0.412073 0.535885 0
M  V30 20041 H 1956.09 1.70185 1.15005 0
M  V30 20042 H 1954.32 1.24035 3.66268 0
M  V30 20043 H 1956.01 1.65704 3.70536 0
M  V30 20044 H 1956.78 3.96618 2.7914 0
M  V30 20045 H 1952.65 2.97873 3.51842 0
M  V30 20046 H 1956.2 6.36608 2.85264 0
M  V30 20047 H 1952.1 5.36992 3.58204 0
M  V30 20048 H 1952.86 7.43896 3.41411 0
M  V30 20049 N 1955.53 -1.12086 1.1079 0
M  V30 20050 C 1956.46 -2.17667 0.717897 0
M  V30 20051 C 1957.47 -1.60913 -0.247179 0
M  V30 20052 O 1958.66 -1.78473 -0.0310924 0
M  V30 20053 C 1955.76 -3.38877 0.0392451 0
M  V30 20054 C 1954.93 -4.25114 1.02943 0
M  V30 20055 C 1953.99 -5.24815 0.381583 0
M  V30 20056 O 1953.02 -5.59739 1.03348 0
M  V30 20057 N 1954.22 -5.74118 -0.858416 0
M  V30 20058 H 1956.99 -2.51737 1.6263 0
M  V30 20059 H 1954.55 -1.27544 0.997209 0
M  V30 20060 H 1956.54 -4.02661 -0.405715 0
M  V30 20061 H 1955.11 -3.02927 -0.771627 0
M  V30 20062 H 1954.33 -3.57889 1.65255 0
M  V30 20063 H 1955.62 -4.79575 1.69957 0
M  V30 20064 H 1955.01 -5.47915 -1.40734 0
M  V30 20065 H 1953.57 -6.39771 -1.24647 0
M  V30 20066 N 1957 -0.897194 -1.29569 0
M  V30 20067 C 1958.42 -0.592933 -1.48177 0
M  V30 20068 C 1958.62 0.866214 -1.81931 0
M  V30 20069 O 1957.68 1.64658 -1.91427 0
M  V30 20070 C 1958.99 -1.5166 -2.59653 0
M  V30 20071 C 1960.54 -1.52153 -2.73529 0
M  V30 20072 C 1961.01 -2.43142 -3.88131 0
M  V30 20073 N 1962.5 -2.41175 -3.9546 0
M  V30 20074 C 1963.24 -3.08283 -4.83476 0
M  V30 20075 N 1962.73 -3.84662 -5.76201 0
M  V30 20076 N 1964.53 -2.97453 -4.76946 0
M  V30 20077 H 1956.68 -1.84096 -1.05935 0
M  V30 20078 H 1958.94 -0.788701 -0.52598 0
M  V30 20079 H 1958.65 -2.55612 -2.41569 0
M  V30 20080 H 1958.52 -1.23526 -3.564 0
M  V30 20081 H 1960.91 -0.489472 -2.91012 0
M  V30 20082 H 1960.99 -1.84324 -1.77365 0
M  V30 20083 H 1960.63 -3.46441 -3.71404 0
M  V30 20084 H 1960.56 -2.08282 -4.83659 0
M  V30 20085 H 1963.05 -1.8568 -3.29137 0
M  V30 20086 H 1963.37 -4.32929 -6.4015 0
M  V30 20087 H 1961.71 -3.88769 -5.76094 0
M  V30 20088 H 1964.9 -2.37301 -4.03492 0
M  V30 20089 H 1965.08 -3.50029 -5.45329 0
M  V30 20090 N 1958.48 1.43142 -0.659413 0
M  V30 20091 C 1959.71 2.06603 -0.181642 0
M  V30 20092 C 1960.13 1.49137 1.14629 0
M  V30 20093 O 1959.49 0.603739 1.70952 0
M  V30 20094 C 1959.54 3.6043 -0.110662 0
M  V30 20095 O 1958.64 4.01884 0.925344 0
M  V30 20096 H 1957.98 0.656771 -0.097712 0
M  V30 20097 H 1960.51 1.83541 -0.904086 0
M  V30 20098 H 1960.52 4.07939 0.0706089 0
M  V30 20099 H 1959.2 4.01632 -1.08002 0
M  V30 20100 H 1957.78 3.65954 0.716361 0
M  V30 20101 N 1959.96 0.40173 1.52394 0
M  V30 20102 C 1961.19 -0.17617 2.06149 0
M  V30 20103 C 1961.6 -1.39481 1.27242 0
M  V30 20104 O 1960.96 -1.79631 0.322321 0
M  V30 20105 C 1961.01 -0.533965 3.57535 0
M  V30 20106 O 1960.73 0.63627 4.33455 0
M  V30 20107 C 1962.23 -1.16639 4.2768 0
M  V30 20108 H 1959.45 -0.0236483 0.670583 0
M  V30 20109 H 1962 0.570549 1.9638 0
M  V30 20110 H 1960.15 -1.23058 3.67336 0
M  V30 20111 H 1960.57 0.339373 5.23401 0
M  V30 20112 H 1962.04 -1.36701 5.34805 0
M  V30 20113 H 1962.52 -2.13737 3.83684 0
M  V30 20114 H 1963.12 -0.510194 4.22229 0
M  V30 20115 N 1961.44 -1.57047 0.131923 0
M  V30 20116 C 1962.4 -2.14813 -0.799243 0
M  V30 20117 C 1963.4 -1.08616 -1.18572 0
M  V30 20118 O 1964.59 -1.3433 -1.10911 0
M  V30 20119 C 1961.72 -2.69894 -2.08255 0
M  V30 20120 H 1962.92 -2.98426 -0.296996 0
M  V30 20121 H 1960.47 -1.55858 -0.117418 0
M  V30 20122 H 1961.2 -1.89905 -2.62881 0
M  V30 20123 H 1960.99 -3.47574 -1.81479 0
M  V30 20124 H 1962.48 -3.14451 -2.74792 0
M  V30 20125 N 1962.92 0.141865 -1.5696 0
M  V30 20126 C 1964.17 0.852066 -1.82819 0
M  V30 20127 C 1964.48 1.82103 -0.713987 0
M  V30 20128 O 1965.68 2.57575 -0.858321 0
M  V30 20129 C 1964.14 1.56589 -3.24049 0
M  V30 20130 C 1963.75 0.639071 -4.43418 0
M  V30 20131 C 1965.49 2.26257 -3.59177 0
M  V30 20132 C 1963.4 1.35481 -5.75673 0
M  V30 20133 H 1962.33 0.321934 -0.681817 0
M  V30 20134 H 1964.98 0.104791 -1.83201 0
M  V30 20135 H 1963.36 2.35898 -3.1807 0
M  V30 20136 H 1964.54 -0.119159 -4.60646 0
M  V30 20137 H 1962.85 0.0505413 -4.16369 0
M  V30 20138 H 1965.45 2.80455 -4.55246 0
M  V30 20139 H 1965.79 3.02992 -2.85485 0
M  V30 20140 H 1966.32 1.53861 -3.6684 0
M  V30 20141 H 1963.06 0.629214 -6.52473 0
M  V30 20142 H 1962.58 2.08562 -5.62372 0
M  V30 20143 H 1964.26 1.89432 -6.18647 0
M  V30 20144 N 1964.39 1.52136 0.411372 0
M  V30 20145 C 1965.64 1.66085 1.15853 0
M  V30 20146 C 1965.97 0.38968 1.90556 0
M  V30 20147 O 1965.22 -0.62727 1.85375 0
M  V30 20148 C 1965.52 2.832 2.1802 0
M  V30 20149 C 1965.19 4.21504 1.6014 0
M  V30 20150 C 1963.85 4.59124 1.4408 0
M  V30 20151 C 1966.2 5.07702 1.17848 0
M  V30 20152 C 1963.53 5.80621 0.842405 0
M  V30 20153 C 1965.88 6.29802 0.594283 0
M  V30 20154 C 1964.55 6.66172 0.420791 0
M  V30 20155 H 1963.82 0.607749 0.423937 0
M  V30 20156 H 1966.46 1.86233 0.446046 0
M  V30 20157 H 1964.77 2.57378 2.95405 0
M  V30 20158 H 1966.47 2.91189 2.75699 0
M  V30 20159 H 1963.06 3.91858 1.73623 0
M  V30 20160 H 1967.24 4.79224 1.29066 0
M  V30 20161 H 1962.5 6.07426 0.695983 0
M  V30 20162 H 1966.67 6.95921 0.258177 0
M  V30 20163 H 1964.3 7.60187 -0.044991 0
M  V30 20164 N 1965.87 -0.668464 1.42721 0
M  V30 20165 C 1967.12 -1.42849 1.43528 0
M  V30 20166 C 1967.45 -1.94425 0.0540077 0
M  V30 20167 O 1966.7 -1.71721 -0.938629 0
M  V30 20168 C 1967 -2.63743 2.41194 0
M  V30 20169 C 1966.67 -2.30672 3.87429 0
M  V30 20170 C 1965.33 -2.21365 4.2726 0
M  V30 20171 C 1967.68 -2.03937 4.79645 0
M  V30 20172 C 1965.01 -1.83456 5.5728 0
M  V30 20173 C 1967.36 -1.6753 6.10013 0
M  V30 20174 C 1966.03 -1.56737 6.48837 0
M  V30 20175 H 1965.3 -0.522721 0.525208 0
M  V30 20176 H 1967.94 -0.761625 1.75703 0
M  V30 20177 H 1966.25 -3.35491 2.02369 0
M  V30 20178 H 1967.95 -3.21934 2.3908 0
M  V30 20179 H 1964.54 -2.38821 3.55896 0
M  V30 20180 H 1968.72 -2.10057 4.49655 0
M  V30 20181 H 1963.98 -1.73674 5.86214 0
M  V30 20182 H 1968.15 -1.4587 6.80952 0
M  V30 20183 H 1965.78 -1.27133 7.49494 0
M  V30 20184 N 1967.35 -1.28999 -0.905381 0
M  V30 20185 C 1968.58 -1.19339 -1.68647 0
M  V30 20186 C 1968.99 0.249343 -1.8755 0
M  V30 20187 O 1968.33 1.17945 -1.40836 0
M  V30 20188 C 1968.39 -1.82925 -3.09481 0
M  V30 20189 C 1968.06 -3.32203 -3.13832 0
M  V30 20190 C 1969.06 -4.28513 -2.94402 0
M  V30 20191 C 1966.74 -3.73305 -3.36078 0
M  V30 20192 C 1968.73 -5.63901 -2.97144 0
M  V30 20193 C 1966.42 -5.08816 -3.38452 0
M  V30 20194 C 1967.42 -6.03924 -3.19006 0
M  V30 20195 O 1967.11 -7.36963 -3.21156 0
M  V30 20196 H 1966.84 -0.414909 -0.533692 0
M  V30 20197 H 1969.39 -1.70793 -1.14101 0
M  V30 20198 H 1967.62 -1.25976 -3.65605 0
M  V30 20199 H 1969.31 -1.67667 -3.69652 0
M  V30 20200 H 1970.08 -3.98093 -2.77033 0
M  V30 20201 H 1965.96 -2.99735 -3.50257 0
M  V30 20202 H 1969.5 -6.38112 -2.81884 0
M  V30 20203 H 1965.4 -5.38884 -3.55351 0
M  V30 20204 H 1966.17 -7.45696 -3.37461 0
M  V30 20205 N 1968.83 1.11497 -1.11383 0
M  V30 20206 C 1970.07 1.84854 -0.872254 0
M  V30 20207 C 1970.43 1.82665 0.591408 0
M  V30 20208 O 1971.63 2.51463 0.949721 0
M  V30 20209 C 1969.91 3.2808 -1.41769 0
M  V30 20210 S 1971.46 4.18695 -1.31301 0
M  V30 20211 H 1968.28 0.637445 -0.314936 0
M  V30 20212 H 1970.88 1.34246 -1.42121 0
M  V30 20213 H 1969.59 3.27238 -2.47677 0
M  V30 20214 H 1969.12 3.83756 -0.865746 0
M  V30 20215 H 1971.13 4.95425 -0.27715 0
M  V30 20216 N 1970.31 0.904053 1.29092 0
M  V30 20217 C 1971.58 0.451521 1.90317 0
M  V30 20218 C 1971.96 -1.06911 1.82025 0
M  V30 20219 O 1971.31 -1.9129 1.24982 0
M  V30 20220 C 1971.52 0.970986 3.35221 0
M  V30 20221 C 1972.87 1.01728 4.12234 0
M  V30 20222 O 1973.89 0.918956 3.44142 0
M  V30 20223 O 1972.75 1.16562 5.33925 0
M  V30 20224 H 1969.85 0.141495 0.814806 0
M  V30 20225 H 1972.39 0.994203 1.37527 0
M  V30 20226 H 1971.17 2.01497 3.35432 0
M  V30 20227 H 1970.79 0.408567 3.95495 0
M  V30 20228 N 1971.79 -1.4279 0.666995 0
M  V30 20229 C 1973.2 -1.56027 0.335817 0
M  V30 20230 C 1973.4 -1.64812 -1.15928 0
M  V30 20231 O 1972.46 -1.61074 -1.94451 0
M  V30 20232 C 1973.77 -2.81425 1.05928 0
M  V30 20233 C 1975.32 -2.95187 1.04085 0
M  V30 20234 C 1975.79 -4.23435 1.74548 0
M  V30 20235 N 1977.28 -4.3033 1.71379 0
M  V30 20236 C 1978.02 -5.2836 2.22762 0
M  V30 20237 N 1977.52 -6.32589 2.82494 0
M  V30 20238 N 1979.31 -5.20106 2.13182 0
M  V30 20239 H 1971.46 -1.35332 1.63704 0
M  V30 20240 H 1973.72 -0.650895 0.689231 0
M  V30 20241 H 1973.43 -2.81044 2.1144 0
M  V30 20242 H 1973.3 -3.72077 0.619546 0
M  V30 20243 H 1975.69 -2.95099 -0.00591289 0
M  V30 20244 H 1975.77 -2.05786 1.5194 0
M  V30 20245 H 1975.41 -4.24283 2.79189 0
M  V30 20246 H 1975.34 -5.11756 1.24149 0
M  V30 20247 H 1977.84 -3.55633 1.27803 0
M  V30 20248 H 1978.15 -7.03733 3.19343 0
M  V30 20249 H 1976.49 -6.33173 2.86561 0
M  V30 20250 H 1979.68 -4.37597 1.66211 0
M  V30 20251 H 1979.86 -5.96343 2.53534 0
M  V30 20252 N 1973.26 -0.409806 -1.52179 0
M  V30 20253 C 1974.51 0.16543 -2.01422 0
M  V30 20254 C 1974.83 1.45588 -1.29727 0
M  V30 20255 O 1974.1 1.9127 -0.423399 0
M  V30 20256 H 1972.68 0.0641237 -0.744243 0
M  V30 20257 H 1975.34 -0.546204 -1.8709 0
M  V30 20258 H 1974.44 0.361061 -3.10004 0
M  V30 20259 N 1974.74 1.56975 -0.14025 0
M  V30 20260 C 1975.97 2.00267 0.519675 0
M  V30 20261 C 1976.38 1.02026 1.58859 0
M  V30 20262 O 1975.74 0.0162519 1.82493 0
M  V30 20263 C 1975.79 3.435 1.12648 0
M  V30 20264 O 1975.51 4.37985 0.100277 0
M  V30 20265 C 1977.01 4.02036 1.86767 0
M  V30 20266 H 1974.23 0.657101 0.135865 0
M  V30 20267 H 1976.78 2.0317 -0.232847 0
M  V30 20268 H 1974.93 3.4147 1.82967 0
M  V30 20269 H 1975.35 5.21672 0.543929 0
M  V30 20270 H 1976.82 5.04274 2.24525 0
M  V30 20271 H 1977.3 3.42367 2.75103 0
M  V30 20272 H 1977.9 4.07676 1.21163 0
M  V30 20273 N 1976.22 -0.133539 1.57033 0
M  V30 20274 C 1977.15 -1.18985 1.95896 0
M  V30 20275 C 1978.16 -1.38453 0.856426 0
M  V30 20276 O 1979.35 -1.37785 1.13479 0
M  V30 20277 C 1976.45 -2.55242 2.22946 0
M  V30 20278 C 1975.63 -2.56572 3.54245 0
M  V30 20279 C 1974.69 -3.74467 3.69677 0
M  V30 20280 O 1973.71 -3.5872 4.41937 0
M  V30 20281 N 1974.91 -4.92459 3.0735 0
M  V30 20282 H 1977.68 -0.859396 2.87114 0
M  V30 20283 H 1975.24 -0.32297 1.58646 0
M  V30 20284 H 1977.23 -3.32645 2.30498 0
M  V30 20285 H 1975.8 -2.80526 1.37926 0
M  V30 20286 H 1975.02 -1.64988 3.58012 0
M  V30 20287 H 1976.31 -2.54504 4.40574 0
M  V30 20288 H 1975.71 -5.08156 2.48584 0
M  V30 20289 H 1974.26 -5.6759 3.20445 0
M  V30 20290 N 1977.7 -1.52352 -0.403298 0
M  V30 20291 C 1979.11 -1.41285 -0.742343 0
M  V30 20292 C 1979.31 -0.521946 -1.94623 0
M  V30 20293 O 1978.37 0.0100547 -2.52498 0
M  V30 20294 C 1979.68 -2.83907 -0.990819 0
M  V30 20295 C 1981.23 -2.93289 -1.09318 0
M  V30 20296 C 1981.71 -4.36892 -1.37437 0
M  V30 20297 N 1983.2 -4.40153 -1.4429 0
M  V30 20298 C 1983.93 -5.48333 -1.67686 0
M  V30 20299 N 1983.43 -6.66622 -1.88647 0
M  V30 20300 N 1985.22 -5.35856 -1.69748 0
M  V30 20301 H 1977.37 -2.08806 0.389077 0
M  V30 20302 H 1979.63 -0.941383 0.111813 0
M  V30 20303 H 1979.34 -3.51247 -0.178511 0
M  V30 20304 H 1979.21 -3.25302 -1.9094 0
M  V30 20305 H 1981.6 -2.26127 -1.89607 0
M  V30 20306 H 1981.68 -2.55343 -0.152822 0
M  V30 20307 H 1981.33 -5.04616 -0.576634 0
M  V30 20308 H 1981.26 -4.72379 -2.32734 0
M  V30 20309 H 1983.75 -3.54888 -1.29857 0
M  V30 20310 H 1984.06 -7.44848 -2.05965 0
M  V30 20311 H 1982.41 -6.69676 -1.859 0
M  V30 20312 H 1985.6 -4.42419 -1.52914 0
M  V30 20313 H 1985.77 -6.20237 -1.87642 0
M  V30 20314 N 1979.18 0.660885 -1.43074 0
M  V30 20315 C 1980.59 1.24187 -1.39407 0
M  V30 20316 C 1980.94 1.95973 -0.0942854 0
M  V30 20317 O 1980.06 2.00808 0.80654 0
M  V30 20318 C 1980.66 2.25865 -2.52528 0
M  V30 20319 C 1979.22 2.79459 -2.5215 0
M  V30 20320 C 1978.36 1.53984 -2.30617 0
M  V30 20321 H 1981.31 0.453383 -1.52086 0
M  V30 20322 H 1981.34 3.07886 -2.23577 0
M  V30 20323 H 1980.85 1.73589 -3.47114 0
M  V30 20324 H 1978.95 3.35818 -1.61422 0
M  V30 20325 H 1979.06 3.27526 -3.49662 0
M  V30 20326 H 1977.43 1.81056 -1.79139 0
M  V30 20327 H 1978.21 1.03654 -3.27278 0
M  V30 20328 N 1980.65 1.29477 0.898527 0
M  V30 20329 C 1981.9 1.1769 1.65157 0
M  V30 20330 C 1982.23 -0.270742 1.92303 0
M  V30 20331 O 1981.51 -1.19538 1.5343 0
M  V30 20332 C 1981.79 1.99186 2.99995 0
M  V30 20333 C 1981.64 3.52097 2.79906 0
M  V30 20334 C 1982.96 1.81916 4.00743 0
M  V30 20335 H 1980.08 0.428901 0.599344 0
M  V30 20336 H 1982.72 1.58963 1.04071 0
M  V30 20337 H 1980.87 1.64116 3.52134 0
M  V30 20338 H 1982.55 3.97155 2.3466 0
M  V30 20339 H 1980.79 3.76962 2.14667 0
M  V30 20340 H 1981.46 4.04394 3.75725 0
M  V30 20341 H 1983.94 2.12549 3.57718 0
M  V30 20342 H 1982.81 2.41285 4.93024 0
M  V30 20343 H 1983.07 0.774654 4.3526 0
M  V30 20344 N 1982.13 -1.10905 1.11972 0
M  V30 20345 C 1983.38 -1.82762 0.872019 0
M  V30 20346 C 1983.71 -1.84941 -0.602247 0
M  V30 20347 O 1982.96 -1.30212 -1.46094 0
M  V30 20348 C 1983.26 -3.29439 1.38581 0
M  V30 20349 C 1982.93 -3.47414 2.87427 0
M  V30 20350 C 1981.59 -3.52027 3.2807 0
M  V30 20351 C 1983.94 -3.53209 3.83266 0
M  V30 20352 C 1981.27 -3.59998 4.63269 0
M  V30 20353 C 1983.62 -3.62712 5.18288 0
M  V30 20354 C 1982.29 -3.65588 5.58482 0
M  V30 20355 H 1981.56 -0.668775 0.319094 0
M  V30 20356 H 1984.2 -1.30759 1.39908 0
M  V30 20357 H 1982.51 -3.83976 0.779104 0
M  V30 20358 H 1984.2 -3.83539 1.17042 0
M  V30 20359 H 1980.79 -3.44497 2.5499 0
M  V30 20360 H 1984.98 -3.489 3.52963 0
M  V30 20361 H 1980.23 -3.60504 4.93808 0
M  V30 20362 H 1984.41 -3.6614 5.9238 0
M  V30 20363 H 1982.04 -3.71517 6.63234 0
M  V30 20364 N 1983.61 -0.910886 -1.2861 0
M  V30 20365 C 1984.54 -0.413998 -2.29801 0
M  V30 20366 C 1985.52 0.51689 -1.62056 0
M  V30 20367 O 1986.71 0.425236 -1.89487 0
M  V30 20368 C 1983.84 0.349336 -3.45539 0
M  V30 20369 C 1982.79 -0.49215 -4.25161 0
M  V30 20370 C 1982.12 0.399352 -5.33207 0
M  V30 20371 C 1983.42 -1.74792 -4.92184 0
M  V30 20372 H 1985.11 -1.25965 -2.71612 0
M  V30 20373 H 1982.66 -0.607149 -1.30575 0
M  V30 20374 H 1984.61 0.70777 -4.15414 0
M  V30 20375 H 1983.33 1.22887 -3.02599 0
M  V30 20376 H 1981.99 -0.833064 -3.57009 0
M  V30 20377 H 1981.64 1.27734 -4.86511 0
M  V30 20378 H 1981.34 -0.160062 -5.87382 0
M  V30 20379 H 1982.86 0.753731 -6.0593 0
M  V30 20380 H 1984.28 -1.45856 -5.54436 0
M  V30 20381 H 1982.68 -2.24952 -5.56342 0
M  V30 20382 H 1983.75 -2.4774 -4.16837 0
M  V30 20383 N 1985.09 1.42434 -0.674558 0
M  V30 20384 C 1986.04 2.308 0.00392457 0
M  V30 20385 C 1987.01 1.45949 0.792972 0
M  V30 20386 O 1988.19 1.74781 0.765269 0
M  V30 20387 C 1985.33 3.31784 0.949392 0
M  V30 20388 C 1984.44 4.31725 0.154193 0
M  V30 20389 C 1983.58 5.19783 1.09539 0
M  V30 20390 C 1982.62 6.11404 0.291864 0
M  V30 20391 N 1981.75 6.92015 1.18576 0
M  V30 20392 H 1986.59 2.88266 -0.755438 0
M  V30 20393 H 1984.13 1.41992 -0.384274 0
M  V30 20394 H 1986.09 3.88861 1.51138 0
M  V30 20395 H 1984.72 2.75918 1.67539 0
M  V30 20396 H 1983.77 3.76768 -0.524416 0
M  V30 20397 H 1985.08 4.96584 -0.469669 0
M  V30 20398 H 1984.24 5.81592 1.72732 0
M  V30 20399 H 1982.98 4.551 1.75314 0
M  V30 20400 H 1981.98 5.48664 -0.353276 0
M  V30 20401 H 1983.21 6.78136 -0.361786 0
M  V30 20402 H 1981.15 6.29961 1.82991 0
M  V30 20403 H 1981.07 7.53478 0.616968 0
M  V30 20404 H 1982.34 7.5831 1.80516 0
M  V30 20405 N 1986.57 0.417871 1.51959 0
M  V30 20406 C 1987.48 -0.409946 2.3099 0
M  V30 20407 C 1988.49 -1.04559 1.39081 0
M  V30 20408 O 1989.67 -1.0452 1.72155 0
M  V30 20409 C 1986.73 -1.50691 3.12239 0
M  V30 20410 C 1985.79 -0.893424 4.199 0
M  V30 20411 C 1985.03 -1.93812 4.97265 0
M  V30 20412 O 1985.25 -3.15756 4.75031 0
M  V30 20413 O 1984.18 -1.53948 5.81879 0
M  V30 20414 H 1988.01 0.234696 3.02792 0
M  V30 20415 H 1985.6 0.180861 1.48301 0
M  V30 20416 H 1987.48 -2.14355 3.62808 0
M  V30 20417 H 1986.15 -2.136 2.43222 0
M  V30 20418 H 1985.06 -0.219262 3.73457 0
M  V30 20419 H 1986.39 -0.308133 4.91235 0
M  V30 20420 N 1988.04 -1.56898 0.148573 0
M  V30 20421 C 1989.27 -2.0054 -0.509047 0
M  V30 20422 C 1989.69 -1.02867 -1.58315 0
M  V30 20423 O 1989.04 -0.0259297 -1.82482 0
M  V30 20424 C 1989.1 -3.44093 -1.10825 0
M  V30 20425 O 1988.82 -4.38032 -0.077048 0
M  V30 20426 C 1990.32 -4.03021 -1.84633 0
M  V30 20427 H 1987.54 -0.657812 -0.132378 0
M  V30 20428 H 1990.08 -2.03044 0.243618 0
M  V30 20429 H 1988.24 -3.42436 -1.81153 0
M  V30 20430 H 1988.65 -5.21953 -0.516256 0
M  V30 20431 H 1990.12 -5.05458 -2.21847 0
M  V30 20432 H 1990.6 -3.43821 -2.73283 0
M  V30 20433 H 1991.21 -4.08313 -1.19 0
M  V30 20434 N 1989.52 0.125209 -1.57102 0
M  V30 20435 C 1990.75 0.852378 -1.89075 0
M  V30 20436 C 1991.17 1.72938 -0.739878 0
M  V30 20437 O 1990.53 1.78633 0.309828 0
M  V30 20438 C 1990.58 1.66688 -3.19762 0
M  V30 20439 O 1989.68 2.77324 -3.0523 0
M  V30 20440 H 1989.02 0.236103 -0.620606 0
M  V30 20441 H 1991.55 0.109473 -2.04307 0
M  V30 20442 H 1991.56 2.0574 -3.52328 0
M  V30 20443 H 1990.24 1.02303 -4.03121 0
M  V30 20444 H 1988.82 2.41519 -2.84118 0
M  V30 20445 N 1991 1.52564 0.395213 0
M  V30 20446 C 1992.28 1.5788 1.1547 0
M  V30 20447 C 1992.66 0.36821 2.07864 0
M  V30 20448 O 1992.01 -0.643933 2.19239 0
M  V30 20449 C 1992.22 2.91451 1.91982 0
M  V30 20450 C 1993.56 3.44961 2.47562 0
M  V30 20451 O 1994.59 2.93284 2.02146 0
M  V30 20452 O 1993.45 4.35233 3.30506 0
M  V30 20453 H 1990.54 0.636516 0.527993 0
M  V30 20454 H 1993.09 1.64897 0.400867 0
M  V30 20455 H 1991.86 3.71006 1.2438 0
M  V30 20456 H 1991.48 2.8779 2.7434 0
M  V30 20457 N 1992.48 -0.653289 1.43422 0
M  V30 20458 C 1993.72 -1.42498 1.46539 0
M  V30 20459 C 1994.08 -1.91802 0.087095 0
M  V30 20460 O 1995.28 -2.68799 -0.00704917 0
M  V30 20461 C 1993.55 -2.57481 2.47868 0
M  V30 20462 S 1995.11 -3.46008 2.69859 0
M  V30 20463 H 1991.93 -0.486421 0.518571 0
M  V30 20464 H 1994.53 -0.758465 1.80188 0
M  V30 20465 H 1993.24 -2.19533 3.46747 0
M  V30 20466 H 1992.77 -3.28983 2.15717 0
M  V30 20467 H 1994.78 -4.54205 1.9978 0
M  V30 20468 N 1993.96 -1.29952 -0.891648 0
M  V30 20469 C 1995.18 -1.21422 -1.68141 0
M  V30 20470 C 1995.61 0.220633 -1.86802 0
M  V30 20471 O 1994.96 1.15902 -1.39414 0
M  V30 20472 C 1995.01 -1.94116 -3.03894 0
M  V30 20473 O 1994.12 -1.26369 -3.92562 0
M  V30 20474 H 1993.46 -0.420318 -0.514032 0
M  V30 20475 H 1995.99 -1.71658 -1.11331 0
M  V30 20476 H 1996 -2.02881 -3.53982 0
M  V30 20477 H 1994.67 -2.98474 -2.89631 0
M  V30 20478 H 1993.25 -1.25915 -3.50998 0
M  V30 20479 N 1995.44 1.1031 -1.12559 0
M  V30 20480 C 1996.67 1.85808 -0.903269 0
M  V30 20481 C 1997.07 1.80999 0.551003 0
M  V30 20482 O 1996.42 1.19782 1.39277 0
M  V30 20483 C 1996.48 3.35108 -1.30165 0
M  V30 20484 C 1996.14 3.63675 -2.76748 0
M  V30 20485 C 1997.14 3.60165 -3.74936 0
M  V30 20486 C 1994.82 3.92309 -3.13686 0
M  V30 20487 C 1996.82 3.84886 -5.08076 0
M  V30 20488 C 1994.51 4.16686 -4.47008 0
M  V30 20489 C 1995.5 4.12965 -5.44012 0
M  V30 20490 O 1995.19 4.36721 -6.7493 0
M  V30 20491 H 1994.92 0.594057 -0.322602 0
M  V30 20492 H 1997.48 1.40355 -1.49966 0
M  V30 20493 H 1995.71 3.81224 -0.648473 0
M  V30 20494 H 1997.4 3.91997 -1.05325 0
M  V30 20495 H 1998.16 3.3808 -3.47745 0
M  V30 20496 H 1994.04 3.94335 -2.3879 0
M  V30 20497 H 1997.59 3.81897 -5.83781 0
M  V30 20498 H 1993.48 4.3825 -4.73927 0
M  V30 20499 H 1994.25 4.54229 -6.80895 0
M  V30 20500 N 1996.91 0.917694 1.28125 0
M  V30 20501 C 1997.84 0.426179 2.29578 0
M  V30 20502 C 1998.82 -0.508289 1.62328 0
M  V30 20503 O 2000.01 -0.415181 1.8971 0
M  V30 20504 C 1997.14 -0.331007 3.45719 0
M  V30 20505 C 1996.09 0.51469 4.24894 0
M  V30 20506 C 1995.42 -0.371069 5.33411 0
M  V30 20507 C 1996.72 1.774 4.9125 0
M  V30 20508 H 1998.41 1.27403 2.7094 0
M  V30 20509 H 1995.96 0.614065 1.30251 0
M  V30 20510 H 1997.91 -0.68573 4.15783 0
M  V30 20511 H 1996.64 -1.2128 3.03247 0
M  V30 20512 H 1995.3 0.851986 3.56562 0
M  V30 20513 H 1994.94 -1.25152 4.87182 0
M  V30 20514 H 1994.64 0.19121 5.87289 0
M  V30 20515 H 1996.17 -0.721587 6.06321 0
M  V30 20516 H 1997.58 1.48795 5.53654 0
M  V30 20517 H 1995.98 2.27899 5.55141 0
M  V30 20518 H 1997.05 2.49947 4.15517 0
M  V30 20519 N 1998.39 -1.42074 0.682102 0
M  V30 20520 C 1999.64 -2.01435 0.207406 0
M  V30 20521 C 1999.97 -1.53963 -1.18851 0
M  V30 20522 O 1999.22 -0.735693 -1.81345 0
M  V30 20523 C 1999.52 -3.56848 0.198622 0
M  V30 20524 C 1999.19 -4.23779 1.54021 0
M  V30 20525 C 1997.85 -4.41777 1.90752 0
M  V30 20526 C 2000.2 -4.61432 2.42343 0
M  V30 20527 C 1997.53 -4.94701 3.15417 0
M  V30 20528 C 1999.88 -5.15739 3.66328 0
M  V30 20529 C 1998.54 -5.3195 4.03219 0
M  V30 20530 H 1997.81 -0.737103 0.0758954 0
M  V30 20531 H 2000.46 -1.70159 0.878532 0
M  V30 20532 H 1998.77 -3.87834 -0.556029 0
M  V30 20533 H 2000.46 -4.00568 -0.185986 0
M  V30 20534 H 1997.05 -4.10135 1.24448 0
M  V30 20535 H 2001.24 -4.47193 2.15249 0
M  V30 20536 H 1996.49 -5.05436 3.44012 0
M  V30 20537 H 2000.67 -5.43857 4.34963 0
M  V30 20538 H 1998.29 -5.72723 4.99893 0
M  V30 20539 N 1999.87 -0.425924 -1.51735 0
M  V30 20540 C 2000.78 0.39769 -2.31205 0
M  V30 20541 C 2001.8 1.0382 -1.39633 0
M  V30 20542 O 2002.97 1.03606 -1.72707 0
M  V30 20543 C 2000.04 1.49033 -3.13033 0
M  V30 20544 C 1999.1 0.871143 -4.20368 0
M  V30 20545 C 1998.33 1.91172 -4.98286 0
M  V30 20546 O 1998.55 3.13232 -4.76699 0
M  V30 20547 O 1997.49 1.5086 -5.82688 0
M  V30 20548 H 2001.31 -0.25075 -3.02663 0
M  V30 20549 H 1998.9 -0.188723 -1.48203 0
M  V30 20550 H 2000.78 2.12428 -3.6394 0
M  V30 20551 H 1999.46 2.12307 -2.44351 0
M  V30 20552 H 1998.36 0.199453 -3.73568 0
M  V30 20553 H 1999.7 0.282077 -4.91391 0
M  V30 20554 N 2001.35 1.56817 -0.156891 0
M  V30 20555 C 2002.59 1.97508 0.486025 0
M  V30 20556 C 2002.95 1.0407 1.61825 0
M  V30 20557 O 2002.24 0.0775994 1.91443 0
M  V30 20558 C 2002.44 3.42242 1.02981 0
M  V30 20559 C 2002.26 4.49674 -0.0481867 0
M  V30 20560 C 2001.03 5.0289 -0.492971 0
M  V30 20561 C 2003.23 5.07339 -0.843306 0
M  V30 20562 N 2001.21 5.93938 -1.55278 0
M  V30 20563 C 2002.59 5.9469 -1.75338 0
M  V30 20564 C 2004.64 4.89881 -0.889995 0
M  V30 20565 C 2003.34 6.66453 -2.70617 0
M  V30 20566 C 2005.37 5.62353 -1.83065 0
M  V30 20567 C 2004.73 6.4942 -2.72823 0
M  V30 20568 H 2000.83 0.76818 0.14637 0
M  V30 20569 H 2003.41 1.93039 -0.253779 0
M  V30 20570 H 2001.59 3.47285 1.73919 0
M  V30 20571 H 2003.32 3.69974 1.64017 0
M  V30 20572 H 2000.07 4.73508 -0.0933666 0
M  V30 20573 H 2000.5 6.44167 -2.08275 0
M  V30 20574 H 2005.14 4.22278 -0.210111 0
M  V30 20575 H 2002.86 7.33279 -3.396 0
M  V30 20576 H 2006.44 5.50837 -1.8727 0
M  V30 20577 H 2005.32 7.04514 -3.44426 0
M  V30 20578 N 2002.83 -0.116876 1.57166 0
M  V30 20579 C 2004.24 -0.470473 1.52508 0
M  V30 20580 C 2004.44 -1.8174 0.870224 0
M  V30 20581 O 2003.5 -2.48395 0.453461 0
M  V30 20582 C 2004.81 -0.453012 2.97268 0
M  V30 20583 C 2006.36 -0.536413 3.08369 0
M  V30 20584 C 2006.83 -0.549319 4.54694 0
M  V30 20585 N 2008.32 -0.610698 4.59157 0
M  V30 20586 C 2009.06 -0.642166 5.69793 0
M  V30 20587 N 2008.56 -0.631152 6.89919 0
M  V30 20588 N 2010.35 -0.685335 5.57906 0
M  V30 20589 H 2002.5 0.765638 1.98121 0
M  V30 20590 H 2004.76 0.282662 0.904879 0
M  V30 20591 H 2004.47 0.469074 3.48558 0
M  V30 20592 H 2004.34 -1.28004 3.54817 0
M  V30 20593 H 2006.73 -1.44892 2.57081 0
M  V30 20594 H 2006.81 0.318339 2.53811 0
M  V30 20595 H 2006.45 0.35915 5.06629 0
M  V30 20596 H 2006.38 -1.42098 5.07066 0
M  V30 20597 H 2008.88 -0.625287 3.72691 0
M  V30 20598 H 2009.19 -0.657846 7.69995 0
M  V30 20599 H 2007.53 -0.598543 6.92418 0
M  V30 20600 H 2010.72 -0.691318 4.62967 0
M  V30 20601 H 2010.9 -0.706392 6.44138 0
M  V30 20602 N 2004.3 -1.52772 -0.387116 0
M  V30 20603 C 2005.53 -1.71787 -1.15312 0
M  V30 20604 C 2005.95 -0.437082 -1.83671 0
M  V30 20605 O 2005.3 0.588573 -1.72749 0
M  V30 20606 C 2005.35 -2.86869 -2.19974 0
M  V30 20607 O 2005.08 -4.0999 -1.54402 0
M  V30 20608 C 2006.58 -3.17579 -3.09287 0
M  V30 20609 H 2003.8 -0.575118 -0.345659 0
M  V30 20610 H 2006.34 -1.99428 -0.452607 0
M  V30 20611 H 2004.5 -2.61684 -2.85658 0
M  V30 20612 H 2004.91 -4.7428 -2.23961 0
M  V30 20613 H 2006.38 -4.01562 -3.7875 0
M  V30 20614 H 2006.86 -2.3204 -3.729 0
M  V30 20615 H 2007.47 -3.44611 -2.49246 0
M  V30 20616 N 2005.78 0.645673 -1.43767 0
M  V30 20617 C 2006.71 1.77107 -1.45484 0
M  V30 20618 C 2007.73 1.58993 -0.350002 0
M  V30 20619 O 2008.92 1.67575 -0.61489 0
M  V30 20620 C 2006.02 3.14639 -1.25919 0
M  V30 20621 C 2005.19 3.59344 -2.49381 0
M  V30 20622 C 2004.25 4.75703 -2.24929 0
M  V30 20623 O 2003.27 4.84756 -2.98329 0
M  V30 20624 N 2004.48 5.66422 -1.27068 0
M  V30 20625 H 2007.24 1.7611 -2.42498 0
M  V30 20626 H 2004.8 0.829768 -1.3902 0
M  V30 20627 H 2006.79 3.9018 -1.07432 0
M  V30 20628 H 2005.36 3.10364 -0.37323 0
M  V30 20629 H 2004.58 2.74166 -2.83243 0
M  V30 20630 H 2005.87 3.8596 -3.3153 0
M  V30 20631 H 2005.27 5.61787 -0.664185 0
M  V30 20632 H 2003.83 6.41653 -1.14562 0
M  V30 20633 N 2007.26 1.30423 0.884744 0
M  V30 20634 C 2008.49 1.22007 1.66727 0
M  V30 20635 C 2008.9 -0.219474 1.87923 0
M  V30 20636 O 2008.24 -1.1569 1.42694 0
M  V30 20637 C 2008.3 1.87825 3.06532 0
M  V30 20638 C 2007.97 3.37154 3.08507 0
M  V30 20639 C 2008.96 4.33143 2.87547 0
M  V30 20640 C 2006.65 3.78604 3.30097 0
M  V30 20641 C 2008.64 5.68557 2.88135 0
M  V30 20642 C 2006.33 5.14136 3.30314 0
M  V30 20643 C 2007.33 6.08923 3.09357 0
M  V30 20644 O 2007.02 7.41979 3.09391 0
M  V30 20645 H 2006.75 0.423347 0.527023 0
M  V30 20646 H 2009.3 1.72587 1.11369 0
M  V30 20647 H 2007.53 1.31776 3.63555 0
M  V30 20648 H 2009.22 1.73527 3.66938 0
M  V30 20649 H 2009.99 4.0245 2.70664 0
M  V30 20650 H 2005.87 3.05269 3.45444 0
M  V30 20651 H 2009.41 6.42516 2.71696 0
M  V30 20652 H 2005.31 5.44469 3.46733 0
M  V30 20653 H 2006.07 7.5097 3.25555 0
M  V30 20654 N 2008.74 -1.09711 1.13142 0
M  V30 20655 C 2009.7 -2.14443 0.809114 0
M  V30 20656 C 2010.7 -1.59789 -0.18005 0
M  V30 20657 O 2011.89 -1.74137 0.0466686 0
M  V30 20658 C 2009.02 -3.40291 0.203714 0
M  V30 20659 H 2010.22 -2.44466 1.73713 0
M  V30 20660 H 2007.77 -1.252 0.935663 0
M  V30 20661 H 2008.5 -3.15892 -0.733667 0
M  V30 20662 H 2008.29 -3.8125 0.916003 0
M  V30 20663 H 2009.78 -4.176 -0.00503851 0
M  V30 20664 N 2010.22 -0.924476 -1.27637 0
M  V30 20665 C 2011.46 -0.570467 -1.96278 0
M  V30 20666 C 2011.82 0.87151 -1.71081 0
M  V30 20667 O 2013.02 1.33363 -2.33383 0
M  V30 20668 C 2011.29 -0.883702 -3.46303 0
M  V30 20669 S 2012.85 -0.637722 -4.34141 0
M  V30 20670 H 2009.67 -0.210692 -0.679065 0
M  V30 20671 H 2012.27 -1.19222 -1.5494 0
M  V30 20672 H 2010.98 -1.9309 -3.62138 0
M  V30 20673 H 2010.51 -0.251014 -3.92598 0
M  V30 20674 H 2012.52 0.505988 -4.93613 0
M  V30 20675 N 2011.69 1.41711 -0.689627 0
M  V30 20676 C 2013.11 1.84377 -0.293587 0
M  V30 20677 C 2013.46 1.57711 1.16712 0
M  V30 20678 O 2012.58 1.0445 1.89523 0
M  V30 20679 C 2013.18 3.34691 -0.526073 0
M  V30 20680 C 2011.74 3.7595 -0.184009 0
M  V30 20681 C 2010.88 2.65167 -0.811277 0
M  V30 20682 H 2013.83 1.31347 -0.890718 0
M  V30 20683 H 2013.85 3.7988 0.217124 0
M  V30 20684 H 2013.37 3.54068 -1.58927 0
M  V30 20685 H 2011.47 3.62176 0.875158 0
M  V30 20686 H 2011.58 4.74875 -0.63488 0
M  V30 20687 H 2009.94 2.53554 -0.241363 0
M  V30 20688 H 2010.73 2.87363 -1.87822 0
M  V30 20689 N 2013.17 0.433965 1.51507 0
M  V30 20690 C 2014.58 -0.0299408 1.86676 0
M  V30 20691 C 2014.93 -1.42245 1.35132 0
M  V30 20692 O 2014.06 -2.0474 0.700735 0
M  V30 20693 C 2014.65 -0.0611079 3.38745 0
M  V30 20694 C 2013.21 -0.469416 3.73461 0
M  V30 20695 C 2012.36 0.340116 2.75206 0
M  V30 20696 H 2015.31 0.649958 1.4478 0
M  V30 20697 H 2015.33 -0.871298 3.7039 0
M  V30 20698 H 2014.84 0.952511 3.7623 0
M  V30 20699 H 2012.95 -1.48876 3.41565 0
M  V30 20700 H 2013.06 -0.196556 4.78697 0
M  V30 20701 H 2011.42 -0.201099 2.53905 0
M  V30 20702 H 2012.21 1.35255 3.15533 0
M  V30 20703 N 2014.65 -1.56732 0.165206 0
M  V30 20704 C 2015.9 -1.96697 -0.481311 0
M  V30 20705 C 2016.23 -1.05092 -1.63664 0
M  V30 20706 O 2015.48 -0.0837635 -1.95521 0
M  V30 20707 C 2015.78 -3.42783 -1.01165 0
M  V30 20708 C 2015.45 -4.50892 0.0271385 0
M  V30 20709 C 2014.11 -4.80183 0.31265 0
M  V30 20710 C 2016.46 -5.16026 0.732556 0
M  V30 20711 C 2013.79 -5.71909 1.30907 0
M  V30 20712 C 2016.14 -6.08827 1.71792 0
M  V30 20713 C 2014.8 -6.36488 2.01094 0
M  V30 20714 H 2014.07 -0.719765 -0.176124 0
M  V30 20715 H 2016.72 -1.89783 0.255878 0
M  V30 20716 H 2015.03 -3.46619 -1.82654 0
M  V30 20717 H 2016.72 -3.71044 -1.52078 0
M  V30 20718 H 2013.31 -4.28107 -0.205569 0
M  V30 20719 H 2017.5 -4.93513 0.525186 0
M  V30 20720 H 2012.75 -5.91626 1.54234 0
M  V30 20721 H 2016.93 -6.58367 2.26993 0
M  V30 20722 H 2014.55 -7.07367 2.78454 0
M  V30 20723 N 2016.13 0.10854 -1.57226 0
M  V30 20724 C 2017.41 0.845372 -1.76388 0
M  V30 20725 C 2017.79 1.97577 -0.743397 0
M  V30 20726 O 2017.13 2.27333 0.230685 0
M  V30 20727 C 2017.34 1.3524 -3.21732 0
M  V30 20728 C 2018.69 1.80056 -3.84532 0
M  V30 20729 O 2019.72 1.44895 -3.25398 0
M  V30 20730 O 2018.57 2.45026 -4.88492 0
M  V30 20731 H 2015.67 0.402224 -0.722596 0
M  V30 20732 H 2018.21 0.0914662 -1.69453 0
M  V30 20733 H 2016.99 0.541866 -3.8753 0
M  V30 20734 H 2016.61 2.16871 -3.33246 0
M  V30 20735 N 2017.61 1.52975 0.379009 0
M  V30 20736 C 2018.54 1.81436 1.46981 0
M  V30 20737 C 2019.52 0.666985 1.56478 0
M  V30 20738 O 2020.7 0.915545 1.71264 0
M  V30 20739 C 2017.83 1.99221 2.84479 0
M  V30 20740 C 2016.79 3.14946 2.89816 0
M  V30 20741 C 2016.11 3.18001 4.2986 0
M  V30 20742 C 2017.41 4.53814 2.58554 0
M  V30 20743 H 2019.11 2.72781 1.23413 0
M  V30 20744 H 2016.65 1.31257 0.592257 0
M  V30 20745 H 2018.61 2.17714 3.60803 0
M  V30 20746 H 2017.33 1.04573 3.09406 0
M  V30 20747 H 2015.99 2.96251 2.15942 0
M  V30 20748 H 2015.64 2.21017 4.51841 0
M  V30 20749 H 2015.34 3.95746 4.34349 0
M  V30 20750 H 2016.86 3.38662 5.08075 0
M  V30 20751 H 2018.27 4.72559 3.24593 0
M  V30 20752 H 2016.67 5.33701 2.74379 0
M  V30 20753 H 2017.74 4.59845 1.53853 0
M  V30 20754 N 2019.08 -0.63804 1.44107 0
M  V30 20755 C 2020.31 -1.4251 1.49995 0
M  V30 20756 C 2020.73 -1.88401 0.122604 0
M  V30 20757 O 2020.08 -1.60419 -0.870168 0
M  V30 20758 C 2020.14 -2.65002 2.45879 0
M  V30 20759 O 2019.86 -2.21025 3.78259 0
M  V30 20760 C 2021.36 -3.58203 2.61162 0
M  V30 20761 H 2018.58 -0.437285 0.508943 0
M  V30 20762 H 2021.12 -0.780912 1.89003 0
M  V30 20763 H 2019.28 -3.25527 2.10026 0
M  V30 20764 H 2019.69 -3.00388 4.29962 0
M  V30 20765 H 2021.16 -4.40776 3.32295 0
M  V30 20766 H 2021.64 -4.06556 1.6616 0
M  V30 20767 H 2022.25 -3.0355 2.97888 0
M  V30 20768 N 2020.56 -1.3089 -0.877815 0
M  V30 20769 C 2021.47 -1.19819 -2.01694 0
M  V30 20770 C 2022.49 -0.116563 -1.73609 0
M  V30 20771 O 2023.66 -0.332871 -1.9863 0
M  V30 20772 C 2020.73 -0.898133 -3.34865 0
M  V30 20773 C 2019.79 -2.06586 -3.76325 0
M  V30 20774 C 2019.02 -1.78002 -5.03141 0
M  V30 20775 O 2019.25 -0.711373 -5.65947 0
M  V30 20776 O 2018.18 -2.63452 -5.41181 0
M  V30 20777 H 2022.01 -2.15529 -2.13965 0
M  V30 20778 H 2019.59 -1.10553 -1.00491 0
M  V30 20779 H 2021.47 -0.746305 -4.14739 0
M  V30 20780 H 2020.15 0.0290018 -3.23687 0
M  V30 20781 H 2019.06 -2.27305 -2.97125 0
M  V30 20782 H 2020.39 -2.97497 -3.92118 0
M  V30 20783 N 2022.04 1.0911 -1.13723 0
M  V30 20784 C 2023.28 1.82962 -0.911268 0
M  V30 20785 C 2023.64 1.83878 0.552529 0
M  V30 20786 O 2024.85 2.53421 0.896168 0
M  V30 20787 C 2023.12 3.24999 -1.48696 0
M  V30 20788 S 2024.68 4.15816 -1.40153 0
M  V30 20789 H 2021.49 0.630622 -0.328386 0
M  V30 20790 H 2024.1 1.31201 -1.44936 0
M  V30 20791 H 2022.8 3.2191 -2.54562 0
M  V30 20792 H 2022.33 3.81833 -0.946951 0
M  V30 20793 H 2024.35 4.94726 -0.382175 0
M  V30 20794 N 2023.52 0.931232 1.27145 0
M  V30 20795 C 2024.74 0.589393 1.98849 0
M  V30 20796 C 2025.17 -0.82637 1.68976 0
M  V30 20797 O 2024.53 -1.55507 0.93205 0
M  V30 20798 C 2024.57 0.826135 3.51009 0
M  V30 20799 O 2023.68 -0.106581 4.12262 0
M  V30 20800 H 2023.02 0.226532 0.624163 0
M  V30 20801 H 2025.55 1.25145 1.61864 0
M  V30 20802 H 2025.56 0.743094 4.01176 0
M  V30 20803 H 2024.23 1.85812 3.72084 0
M  V30 20804 H 2022.81 0.0266735 3.7289 0
M  V30 20805 N 2025 -1.41343 0.697132 0
M  V30 20806 C 2026.24 -2.01204 0.22876 0
M  V30 20807 C 2026.57 -1.55215 -1.17211 0
M  V30 20808 O 2025.83 -0.754886 -1.80555 0
M  V30 20809 C 2026.13 -3.56617 0.236459 0
M  V30 20810 C 2025.79 -4.22121 1.58507 0
M  V30 20811 C 2024.45 -4.39729 1.95427 0
M  V30 20812 C 2026.81 -4.58835 2.47224 0
M  V30 20813 C 2024.13 -4.91328 3.20646 0
M  V30 20814 C 2026.49 -5.11825 3.71777 0
M  V30 20815 C 2025.15 -5.27643 4.08838 0
M  V30 20816 H 2024.42 -0.736257 0.0837091 0
M  V30 20817 H 2027.07 -1.69218 0.89653 0
M  V30 20818 H 2025.37 -3.88402 -0.514862 0
M  V30 20819 H 2027.07 -4.00743 -0.14349 0
M  V30 20820 H 2023.66 -4.08792 1.28791 0
M  V30 20821 H 2027.84 -4.44885 2.1998 0
M  V30 20822 H 2023.1 -5.01759 3.49353 0
M  V30 20823 H 2027.27 -5.39213 4.40706 0
M  V30 20824 H 2024.9 -5.67388 5.05939 0
M  V30 20825 N 2026.48 -0.441993 -1.51275 0
M  V30 20826 C 2027.42 0.367101 -2.27862 0
M  V30 20827 C 2028.39 1.01278 -1.31651 0
M  V30 20828 O 2029.58 1.0308 -1.60559 0
M  V30 20829 C 2026.72 1.45971 -3.12708 0
M  V30 20830 C 2025.83 0.831707 -4.23918 0
M  V30 20831 C 2024.97 1.89976 -4.96067 0
M  V30 20832 C 2024 1.25043 -5.99192 0
M  V30 20833 N 2023.14 2.26005 -6.6473 0
M  V30 20834 H 2027.98 -0.292361 -2.96562 0
M  V30 20835 H 2025.52 -0.156023 -1.4627 0
M  V30 20836 H 2027.48 2.10453 -3.6023 0
M  V30 20837 H 2026.11 2.08874 -2.46113 0
M  V30 20838 H 2025.16 0.0750644 -3.80326 0
M  V30 20839 H 2026.47 0.317691 -4.97787 0
M  V30 20840 H 2025.62 2.62108 -5.4716 0
M  V30 20841 H 2024.36 2.44751 -4.21839 0
M  V30 20842 H 2023.37 0.514597 -5.47386 0
M  V30 20843 H 2024.59 0.709951 -6.75379 0
M  V30 20844 H 2022.54 2.79852 -5.93312 0
M  V30 20845 H 2022.46 1.79508 -7.34379 0
M  V30 20846 H 2023.72 2.97607 -7.20452 0
M  V30 20847 N 2027.95 1.56642 -0.173515 0
M  V30 20848 C 2029.23 1.88634 0.517348 0
M  V30 20849 C 2029.61 1.08374 1.81158 0
M  V30 20850 O 2028.96 0.178319 2.27803 0
M  V30 20851 C 2029.17 3.40689 0.757118 0
M  V30 20852 C 2030.52 4.10473 1.08614 0
M  V30 20853 O 2031.54 3.46018 0.845582 0
M  V30 20854 O 2030.4 5.24351 1.54008 0
M  V30 20855 H 2027.49 0.782731 0.266949 0
M  V30 20856 H 2030.04 1.68369 -0.212115 0
M  V30 20857 H 2028.81 3.90982 -0.157737 0
M  V30 20858 H 2028.43 3.66572 1.53982 0
M  V30 20859 N 2029.43 -0.1002 1.57281 0
M  V30 20860 C 2030.68 -0.803034 1.85461 0
M  V30 20861 C 2031 -1.79518 0.761475 0
M  V30 20862 O 2030.27 -1.94741 -0.212768 0
M  V30 20863 H 2028.85 -0.299556 0.684306 0
M  V30 20864 H 2031.51 -0.0830444 1.94723 0
M  V30 20865 H 2030.61 -1.33676 2.82024 0
M  V30 20866 N 2030.91 -1.53174 -0.370891 0
M  V30 20867 C 2031.87 -1.7857 -1.43685 0
M  V30 20868 C 2032.87 -0.656018 -1.4681 0
M  V30 20869 O 2034.06 -0.924191 -1.47663 0
M  V30 20870 C 2031.19 -1.90295 -2.82844 0
M  V30 20871 H 2032.39 -2.73766 -1.22442 0
M  V30 20872 H 2029.94 -1.4417 -0.603713 0
M  V30 20873 H 2030.68 -0.971472 -3.09407 0
M  V30 20874 H 2030.46 -2.72456 -2.81975 0
M  V30 20875 H 2031.95 -2.11554 -3.60048 0
M  V30 20876 N 2032.39 0.630389 -1.44443 0
M  V30 20877 C 2033.64 1.38719 -1.46975 0
M  V30 20878 C 2033.96 1.94723 -0.103861 0
M  V30 20879 O 2033.23 1.75822 0.863919 0
M  V30 20880 H 2031.81 0.5149 -0.54119 0
M  V30 20881 H 2034.47 0.741905 -1.80227 0
M  V30 20882 H 2033.56 2.21813 -2.19557 0
M  V30 20883 N 2033.87 1.31354 0.870861 0
M  V30 20884 C 2034.81 1.18858 1.99939 0
M  V30 20885 C 2035.81 0.0970869 1.69122 0
M  V30 20886 O 2037.01 0.258917 1.78128 0
M  V30 20887 H 2033.39 0.367991 0.65581 0
M  V30 20888 H 2035.36 2.14338 2.07609 0
M  V30 20889 C 2034.11 0.911812 3.35531 0
M  V30 20890 H 2033.43 1.74383 3.59765 0
M  V30 20891 H 2034.87 0.864551 4.15092 0
M  V30 20892 C 2033.33 -0.385431 3.34688 0
M  V30 20893 O 2033.86 -1.40251 3.76421 0
M  V30 20894 N 2032.07 -0.401645 2.87811 0
M  V30 20895 H 2031.61 0.426528 2.54044 0
M  V30 20896 H 2031.57 -1.26952 2.87629 0
M  V30 20897 N 2035.34 -1.08505 1.143 0
M  V30 20898 C 2036.57 -1.85155 0.934475 0
M  V30 20899 C 2036.99 -1.81002 -0.511866 0
M  V30 20900 O 2036.35 -1.19437 -1.36398 0
M  V30 20901 C 2036.4 -3.30656 1.43871 0
M  V30 20902 O 2035.5 -4.07557 0.630143 0
M  V30 20903 H 2034.84 -0.573775 0.334183 0
M  V30 20904 H 2037.37 -1.36959 1.51998 0
M  V30 20905 H 2037.38 -3.815 1.44644 0
M  V30 20906 H 2036.06 -3.32995 2.49173 0
M  V30 20907 H 2034.64 -3.66441 0.691067 0
M  V30 20908 N 2036.82 -0.937962 -1.26649 0
M  V30 20909 C 2038.07 -0.583818 -1.93902 0
M  V30 20910 C 2038.4 0.876602 -1.73626 0
M  V30 20911 O 2037.65 1.64203 -1.0647 0
M  V30 20912 C 2037.95 -0.868478 -3.46687 0
M  V30 20913 C 2037.62 -2.31227 -3.87098 0
M  V30 20914 C 2036.28 -2.70695 -3.97841 0
M  V30 20915 C 2038.63 -3.25068 -4.07407 0
M  V30 20916 C 2035.96 -4.03107 -4.26288 0
M  V30 20917 C 2038.31 -4.57073 -4.37341 0
M  V30 20918 C 2036.97 -4.96361 -4.46298 0
M  V30 20919 H 2036.24 -0.213634 -0.709536 0
M  V30 20920 H 2038.89 -1.18386 -1.50522 0
M  V30 20921 H 2037.2 -0.185864 -3.91359 0
M  V30 20922 H 2038.89 -0.573289 -3.96881 0
M  V30 20923 H 2035.48 -1.99611 -3.7928 0
M  V30 20924 H 2039.67 -2.95773 -3.98537 0
M  V30 20925 H 2034.92 -4.33214 -4.31434 0
M  V30 20926 H 2039.1 -5.29781 -4.52001 0
M  V30 20927 H 2036.72 -5.98992 -4.68095 0
M  V30 20928 N 2038.3 1.40971 -0.704618 0
M  V30 20929 C 2039.58 1.94885 -0.167059 0
M  V30 20930 C 2039.96 1.64346 1.3249 0
M  V30 20931 O 2039.3 0.955268 2.07574 0
M  V30 20932 C 2039.51 3.45847 -0.468035 0
M  V30 20933 C 2040.86 4.22705 -0.400704 0
M  V30 20934 O 2041.89 3.53908 -0.403464 0
M  V30 20935 O 2040.75 5.45255 -0.368676 0
M  V30 20936 H 2037.84 0.826752 -0.0202699 0
M  V30 20937 H 2040.39 1.50639 -0.7814 0
M  V30 20938 H 2039.16 3.61392 -1.50038 0
M  V30 20939 H 2038.78 3.97207 0.176823 0
M  V30 20940 N 2039.78 0.45001 1.51039 0
M  V30 20941 C 2040.71 -0.345315 2.30933 0
M  V30 20942 C 2041.69 -1.00959 1.36899 0
M  V30 20943 O 2042.87 -1.0108 1.6582 0
M  V30 20944 C 2040 -1.43968 3.16055 0
M  V30 20945 C 2038.96 -0.898198 4.18469 0
M  V30 20946 C 2038.28 -2.08927 4.92193 0
M  V30 20947 C 2039.58 0.0760911 5.22245 0
M  V30 20948 H 2041.28 0.321441 2.97669 0
M  V30 20949 H 2038.82 0.156032 1.43152 0
M  V30 20950 H 2040.78 -2.00338 3.70732 0
M  V30 20951 H 2039.5 -2.1349 2.47163 0
M  V30 20952 H 2038.16 -0.356617 3.64861 0
M  V30 20953 H 2037.81 -2.77098 4.19792 0
M  V30 20954 H 2037.51 -1.73328 5.61454 0
M  V30 20955 H 2039.03 -2.65827 5.49698 0
M  V30 20956 H 2040.45 -0.397728 5.71919 0
M  V30 20957 H 2038.84 0.345281 5.99106 0
M  V30 20958 H 2039.91 1.00878 4.74291 0
M  V30 20959 N 2041.26 -1.56548 0.18182 0
M  V30 20960 C 2042.48 -2.02015 -0.469543 0
M  V30 20961 C 2042.91 -1.06119 -1.55307 0
M  V30 20962 O 2042.26 -0.0424595 -1.8125 0
M  V30 20963 C 2042.31 -3.46016 -1.01515 0
M  V30 20964 O 2041.42 -3.53215 -2.12869 0
M  V30 20965 H 2040.76 -0.65461 -0.111273 0
M  V30 20966 H 2043.29 -2.02552 0.288798 0
M  V30 20967 H 2043.3 -3.85537 -1.33511 0
M  V30 20968 H 2041.97 -4.15308 -0.22188 0
M  V30 20969 H 2040.55 -3.2556 -1.81838 0
M  V30 20970 N 2042.73 0.0918577 -1.57332 0
M  V30 20971 C 2043.96 0.81208 -1.9084 0
M  V30 20972 C 2044.38 1.71329 -0.776394 0
M  V30 20973 O 2043.74 1.7925 0.271867 0
M  V30 20974 C 2043.79 1.59867 -3.23226 0
M  V30 20975 O 2042.89 2.70787 -3.11044 0
M  V30 20976 H 2042.24 0.222886 -0.625474 0
M  V30 20977 H 2044.77 0.0661119 -2.04493 0
M  V30 20978 H 2044.78 1.98221 -3.56613 0
M  V30 20979 H 2043.45 0.937296 -4.05201 0
M  V30 20980 H 2042.03 2.35438 -2.89177 0
M  V30 20981 N 2044.21 1.53368 0.362763 0
M  V30 20982 C 2045.14 1.82984 1.45048 0
M  V30 20983 C 2046.12 0.683544 1.55762 0
M  V30 20984 O 2047.31 0.933658 1.70283 0
M  V30 20985 C 2044.44 2.02227 2.8235 0
M  V30 20986 C 2043.39 3.18002 2.86459 0
M  V30 20987 C 2042.72 3.22543 4.26463 0
M  V30 20988 C 2044.02 4.56531 2.53726 0
M  V30 20989 H 2045.71 2.74075 1.20513 0
M  V30 20990 H 2043.26 1.31877 0.578302 0
M  V30 20991 H 2045.21 2.21529 3.58473 0
M  V30 20992 H 2043.94 1.07849 3.08279 0
M  V30 20993 H 2042.59 2.98525 2.12787 0
M  V30 20994 H 2042.24 2.25797 4.49472 0
M  V30 20995 H 2041.94 4.00331 4.30127 0
M  V30 20996 H 2043.47 3.44032 5.04455 0
M  V30 20997 H 2044.88 4.75975 3.19563 0
M  V30 20998 H 2043.28 5.36581 2.68703 0
M  V30 20999 H 2044.35 4.61451 1.48967 0
M  V30 21000 N 2045.69 -0.62272 1.44776 0
M  V30 21001 C 2046.92 -1.41403 1.51723 0
M  V30 21002 C 2047.34 -1.87534 0.145802 0
M  V30 21003 O 2046.7 -1.59244 -0.866667 0
M  V30 21004 C 2046.75 -2.60482 2.49362 0
M  V30 21005 O 2045.85 -3.60604 2.00096 0
M  V30 21006 H 2045.19 -0.422766 0.51202 0
M  V30 21007 H 2047.72 -0.759294 1.89989 0
M  V30 21008 H 2047.73 -3.0792 2.67674 0
M  V30 21009 H 2046.41 -2.26253 3.48974 0
M  V30 21010 H 2044.98 -3.19918 1.9159 0
M  V30 21011 N 2047.17 -1.31814 -0.863883 0
M  V30 21012 C 2048.58 -1.10603 -1.15061 0
M  V30 21013 C 2048.78 0.119526 -2.01145 0
M  V30 21014 O 2047.84 0.807099 -2.39253 0
M  V30 21015 C 2049.15 -2.38075 -1.83686 0
M  V30 21016 C 2050.7 -2.43744 -1.96361 0
M  V30 21017 C 2051.18 -3.71113 -2.68401 0
M  V30 21018 N 2052.67 -3.72042 -2.75933 0
M  V30 21019 C 2053.4 -4.67294 -3.32301 0
M  V30 21020 N 2052.9 -5.72905 -3.89553 0
M  V30 21021 N 2054.69 -4.54804 -3.30317 0
M  V30 21022 H 2046.84 -2.10406 -0.290393 0
M  V30 21023 H 2049.11 -0.928505 -0.191264 0
M  V30 21024 H 2048.81 -3.27625 -1.27885 0
M  V30 21025 H 2048.69 -2.48336 -2.83917 0
M  V30 21026 H 2051.07 -1.54659 -2.51326 0
M  V30 21027 H 2051.15 -2.37443 -0.951544 0
M  V30 21028 H 2050.8 -4.60567 -2.14103 0
M  V30 21029 H 2050.73 -3.74682 -3.70028 0
M  V30 21030 H 2053.22 -2.95701 -2.35307 0
M  V30 21031 H 2053.53 -6.41656 -4.30694 0
M  V30 21032 H 2051.88 -5.76671 -3.87911 0
M  V30 21033 H 2055.07 -3.71468 -2.84832 0
M  V30 21034 H 2055.24 -5.29213 -3.73948 0
M  V30 21035 N 2048.65 1.07897 -1.14873 0
M  V30 21036 C 2049.88 1.8385 -0.942478 0
M  V30 21037 C 2050.28 1.82127 0.512486 0
M  V30 21038 O 2049.63 1.22709 1.36705 0
M  V30 21039 C 2049.69 3.32272 -1.37244 0
M  V30 21040 C 2049.35 3.57723 -2.844 0
M  V30 21041 C 2050.35 3.52131 -3.82492 0
M  V30 21042 C 2048.04 3.85567 -3.21937 0
M  V30 21043 C 2050.03 3.74022 -5.16126 0
M  V30 21044 C 2047.72 4.07111 -4.55745 0
M  V30 21045 C 2048.71 4.01333 -5.52649 0
M  V30 21046 O 2048.4 4.22306 -6.84042 0
M  V30 21047 H 2048.13 0.587081 -0.33513 0
M  V30 21048 H 2050.69 1.37142 -1.52909 0
M  V30 21049 H 2048.92 3.79763 -0.72919 0
M  V30 21050 H 2050.61 3.89674 -1.13617 0
M  V30 21051 H 2051.37 3.30628 -3.54838 0
M  V30 21052 H 2047.25 3.89182 -2.471 0
M  V30 21053 H 2050.8 3.69428 -5.91751 0
M  V30 21054 H 2046.69 4.28099 -4.83117 0
M  V30 21055 H 2047.46 4.39684 -6.90377 0
M  V30 21056 N 2050.12 0.944665 1.2615 0
M  V30 21057 C 2051.35 0.610451 1.98213 0
M  V30 21058 C 2051.77 -0.808401 1.69843 0
M  V30 21059 O 2051.13 -1.5451 0.948491 0
M  V30 21060 C 2051.18 0.863318 3.50113 0
M  V30 21061 O 2050.28 -0.062849 4.12352 0
M  V30 21062 H 2049.63 0.233139 0.621725 0
M  V30 21063 H 2052.16 1.26855 1.60527 0
M  V30 21064 H 2052.17 0.785602 4.00365 0
M  V30 21065 H 2050.84 1.89748 3.70092 0
M  V30 21066 H 2049.42 0.066222 3.72841 0
M  V30 21067 N 2051.6 -1.40596 0.712085 0
M  V30 21068 C 2052.88 -1.94794 0.177392 0
M  V30 21069 C 2053.26 -1.65047 -1.31616 0
M  V30 21070 O 2052.61 -0.966262 -2.07064 0
M  V30 21071 C 2052.82 -3.45594 0.486369 0
M  V30 21072 C 2054.17 -4.22487 0.423115 0
M  V30 21073 O 2055.19 -3.53689 0.422227 0
M  V30 21074 O 2054.05 -5.45052 0.397587 0
M  V30 21075 H 2051.14 -0.826632 0.0246541 0
M  V30 21076 H 2053.69 -1.50223 0.789377 0
M  V30 21077 H 2052.46 -3.60591 1.51953 0
M  V30 21078 H 2052.08 -3.97295 -0.155756 0
M  V30 21079 N 2053.08 -0.458013 -1.50798 0
M  V30 21080 C 2054.03 0.357083 -2.29843 0
M  V30 21081 C 2055.02 1.00229 -1.36567 0
M  V30 21082 O 2056.23 0.934888 -1.53818 0
M  V30 21083 H 2052.6 0.133985 -0.739968 0
M  V30 21084 H 2054.57 -0.330165 -2.96568 0
M  V30 21085 C 2053.32 1.43404 -3.1675 0
M  V30 21086 H 2052.65 0.946947 -3.88424 0
M  V30 21087 H 2054.09 1.9772 -3.75077 0
M  V30 21088 C 2052.55 2.42878 -2.33478 0
M  V30 21089 O 2053.08 3.47868 -2.00874 0
M  V30 21090 N 2051.28 2.14272 -1.96306 0
M  V30 21091 H 2050.83 1.28918 -2.2302 0
M  V30 21092 H 2050.79 2.81064 -1.40891 0
M  V30 21093 N 2054.56 1.56449 -0.190119 0
M  V30 21094 C 2055.81 1.98494 0.444021 0
M  V30 21095 C 2056.16 1.07479 1.59581 0
M  V30 21096 O 2055.45 0.11819 1.91235 0
M  V30 21097 C 2055.65 3.44349 0.956988 0
M  V30 21098 C 2055.48 4.49471 -0.143558 0
M  V30 21099 C 2054.25 5.01731 -0.59953 0
M  V30 21100 C 2056.44 5.05436 -0.950731 0
M  V30 21101 N 2054.43 5.9051 -1.67842 0
M  V30 21102 C 2055.8 5.90837 -1.87913 0
M  V30 21103 C 2057.85 4.87883 -0.993705 0
M  V30 21104 C 2056.56 6.60563 -2.84692 0
M  V30 21105 C 2058.58 5.58343 -1.94953 0
M  V30 21106 C 2057.94 6.43487 -2.86537 0
M  V30 21107 H 2054.04 0.771111 0.130043 0
M  V30 21108 H 2056.63 1.92457 -0.294668 0
M  V30 21109 H 2054.8 3.50896 1.66513 0
M  V30 21110 H 2056.53 3.7337 1.56132 0
M  V30 21111 H 2053.28 4.73203 -0.193784 0
M  V30 21112 H 2053.71 6.39604 -2.21892 0
M  V30 21113 H 2058.35 4.21737 -0.299635 0
M  V30 21114 H 2056.07 7.2591 -3.55078 0
M  V30 21115 H 2059.65 5.4674 -1.98912 0
M  V30 21116 H 2058.53 6.9705 -3.59292 0
M  V30 21117 N 2056.04 -0.0835127 1.57379 0
M  V30 21118 C 2056.95 -1.11858 2.06216 0
M  V30 21119 C 2057.96 -1.43137 0.989333 0
M  V30 21120 O 2059.14 -1.53548 1.30327 0
M  V30 21121 C 2056.2 -2.41603 2.48655 0
M  V30 21122 C 2055.27 -2.17401 3.70183 0
M  V30 21123 C 2054.5 -3.40959 4.10588 0
M  V30 21124 O 2054.72 -4.49637 3.50974 0
M  V30 21125 O 2053.66 -3.29863 5.03462 0
M  V30 21126 H 2057.48 -0.733741 2.94703 0
M  V30 21127 H 2055.07 -0.296834 1.46421 0
M  V30 21128 H 2056.95 -3.1798 2.76526 0
M  V30 21129 H 2055.62 -2.7949 1.63301 0
M  V30 21130 H 2054.53 -1.38767 3.47411 0
M  V30 21131 H 2055.86 -1.84401 4.56352 0
M  V30 21132 N 2057.52 -1.53558 -0.354624 0
M  V30 21133 C 2058.48 -1.80084 -1.41783 0
M  V30 21134 C 2059.48 -0.671552 -1.46105 0
M  V30 21135 O 2060.67 -0.939801 -1.46674 0
M  V30 21136 C 2057.8 -1.93284 -2.8081 0
M  V30 21137 H 2058.99 -2.75049 -1.19532 0
M  V30 21138 H 2056.55 -1.44802 -0.588388 0
M  V30 21139 H 2057.28 -1.00423 -3.0836 0
M  V30 21140 H 2057.07 -2.75432 -2.7907 0
M  V30 21141 H 2058.56 -2.15361 -3.57784 0
M  V30 21142 N 2058.99 0.615033 -1.45104 0
M  V30 21143 C 2060.24 1.37029 -1.48007 0
M  V30 21144 C 2060.56 1.95213 -0.122939 0
M  V30 21145 O 2061.76 2.71484 -0.0295763 0
M  V30 21146 C 2060.22 2.48178 -2.60645 0
M  V30 21147 C 2059.83 1.96437 -4.02637 0
M  V30 21148 C 2061.57 3.25251 -2.72786 0
M  V30 21149 C 2059.48 3.05024 -5.0667 0
M  V30 21150 H 2058.41 0.515004 -0.550715 0
M  V30 21151 H 2061.06 0.659974 -1.71221 0
M  V30 21152 H 2059.44 3.2186 -2.307 0
M  V30 21153 H 2060.61 1.29514 -4.42225 0
M  V30 21154 H 2058.93 1.32132 -3.9488 0
M  V30 21155 H 2061.53 4.06229 -3.47681 0
M  V30 21156 H 2061.87 3.75776 -1.7916 0
M  V30 21157 H 2062.4 2.58666 -3.0222 0
M  V30 21158 H 2059.14 2.59425 -6.01979 0
M  V30 21159 H 2058.66 3.70538 -4.71658 0
M  V30 21160 H 2060.34 3.69532 -5.31089 0
M  V30 21161 N 2060.47 1.3227 0.85688 0
M  V30 21162 C 2061.7 1.25698 1.6434 0
M  V30 21163 C 2062.11 -0.175425 1.87983 0
M  V30 21164 O 2061.47 -1.11179 1.44726 0
M  V30 21165 C 2061.52 2.0111 3.00395 0
M  V30 21166 O 2061.24 3.38761 2.778 0
M  V30 21167 C 2062.74 2.01535 3.9484 0
M  V30 21168 H 2059.96 0.433782 0.511932 0
M  V30 21169 H 2062.51 1.74358 1.06863 0
M  V30 21170 H 2060.66 1.56178 3.54524 0
M  V30 21171 H 2061.08 3.7733 3.64311 0
M  V30 21172 H 2062.55 2.58787 4.87579 0
M  V30 21173 H 2063.03 1.00106 4.27639 0
M  V30 21174 H 2063.63 2.46404 3.46648 0
M  V30 21175 N 2061.95 -1.07287 1.15444 0
M  V30 21176 C 2063.2 -1.7954 0.927885 0
M  V30 21177 C 2063.52 -1.87189 -0.546373 0
M  V30 21178 O 2062.79 -1.37326 -1.39708 0
M  V30 21179 H 2061.37 -0.664981 0.340307 0
M  V30 21180 H 2064.03 -1.29652 1.45521 0
M  V30 21181 H 2063.13 -2.81972 1.33784 0
M  V30 21182 N 2063.43 -0.951342 -1.25647 0
M  V30 21183 C 2064.66 -0.621431 -1.97347 0
M  V30 21184 C 2065.07 0.805774 -1.70742 0
M  V30 21185 O 2064.43 1.53857 -0.981537 0
M  V30 21186 C 2064.48 -0.866537 -3.50961 0
M  V30 21187 O 2064.2 -2.23762 -3.76646 0
M  V30 21188 C 2065.7 -0.548561 -4.39893 0
M  V30 21189 H 2062.92 -0.233273 -0.629146 0
M  V30 21190 H 2065.46 -1.27482 -1.59902 0
M  V30 21191 H 2063.62 -0.259607 -3.86529 0
M  V30 21192 H 2064.03 -2.30528 -4.71123 0
M  V30 21193 H 2065.51 -0.770622 -5.46594 0
M  V30 21194 H 2065.98 0.51678 -4.36149 0
M  V30 21195 H 2066.59 -1.13467 -4.09885 0
M  V30 21196 N 2064.91 1.40216 -0.719531 0
M  V30 21197 C 2066.15 2.00418 -0.260225 0
M  V30 21198 C 2066.47 1.57349 1.15179 0
M  V30 21199 O 2065.74 0.814718 1.78155 0
M  V30 21200 H 2064.32 0.741161 -0.0932204 0
M  V30 21201 H 2066.99 1.71495 -0.926041 0
M  V30 21202 H 2066.08 3.10689 -0.29642 0
M  V30 21203 N 2066.38 0.466004 1.50553 0
M  V30 21204 C 2067.66 -0.152071 1.95008 0
M  V30 21205 C 2068.04 -1.57451 1.40614 0
M  V30 21206 O 2067.39 -2.20345 0.605014 0
M  V30 21207 C 2067.6 -0.100584 3.48855 0
M  V30 21208 C 2068.95 -0.291998 4.23595 0
M  V30 21209 O 2069.97 -0.177401 3.55758 0
M  V30 21210 O 2068.83 -0.52288 5.43993 0
M  V30 21211 H 2065.92 -0.114439 0.819044 0
M  V30 21212 H 2068.47 0.526042 1.61341 0
M  V30 21213 H 2067.24 0.892745 3.8098 0
M  V30 21214 H 2066.86 -0.820375 3.89044 0
M  V30 21215 N 2067.86 -1.56346 0.198413 0
M  V30 21216 C 2069.27 -1.84047 -0.313597 0
M  V30 21217 C 2069.62 -1.11918 -1.61148 0
M  V30 21218 O 2068.75 -0.381091 -2.13018 0
M  V30 21219 C 2069.34 -3.33872 -0.575755 0
M  V30 21220 C 2067.9 -3.61973 -1.03213 0
M  V30 21221 C 2067.05 -2.77177 -0.0825349 0
M  V30 21222 H 2070 -1.52983 0.422128 0
M  V30 21223 H 2070.02 -3.52823 -1.42466 0
M  V30 21224 H 2069.53 -3.86341 0.369036 0
M  V30 21225 H 2067.63 -3.14939 -1.99108 0
M  V30 21226 H 2067.75 -4.70134 -0.922545 0
M  V30 21227 H 2066.11 -2.4789 -0.585043 0
M  V30 21228 H 2066.89 -3.32437 0.856759 0
M  V30 21229 N 2069.34 0.0751653 -1.57421 0
M  V30 21230 C 2070.25 1.10763 -2.06806 0
M  V30 21231 C 2071.27 1.4261 -0.99691 0
M  V30 21232 O 2072.44 1.52854 -1.31139 0
M  V30 21233 C 2069.51 2.40281 -2.49932 0
M  V30 21234 C 2068.57 2.15435 -3.7133 0
M  V30 21235 C 2067.8 3.38777 -4.1239 0
M  V30 21236 O 2068.02 4.4777 -3.53353 0
M  V30 21237 O 2066.96 3.27189 -5.05204 0
M  V30 21238 H 2070.78 0.718102 -2.95088 0
M  V30 21239 H 2068.37 0.289065 -1.46577 0
M  V30 21240 H 2070.25 3.16509 -2.78208 0
M  V30 21241 H 2068.93 2.7862 -1.64781 0
M  V30 21242 H 2067.83 1.36922 -3.48142 0
M  V30 21243 H 2069.17 1.81978 -4.57324 0
M  V30 21244 N 2070.82 1.53744 0.346476 0
M  V30 21245 C 2071.77 1.77908 1.42593 0
M  V30 21246 C 2072.75 0.634184 1.47875 0
M  V30 21247 O 2073.94 0.893482 1.52794 0
M  V30 21248 C 2071.07 1.9895 2.79775 0
M  V30 21249 C 2070.16 3.19496 2.78897 0
M  V30 21250 N 2070.55 4.41025 2.47651 0
M  V30 21251 C 2068.85 3.20605 3.10046 0
M  V30 21252 C 2069.55 5.22862 2.54932 0
M  V30 21253 N 2068.53 4.59509 2.90434 0
M  V30 21254 H 2072.33 2.69465 1.17328 0
M  V30 21255 H 2069.84 1.52629 0.554814 0
M  V30 21256 H 2071.84 2.14394 3.57549 0
M  V30 21257 H 2070.5 1.08632 3.05989 0
M  V30 21258 H 2071.51 4.68426 2.20901 0
M  V30 21259 H 2068.19 2.40246 3.4145 0
M  V30 21260 H 2069.58 6.29851 2.33959 0
M  V30 21261 N 2072.3 -0.607329 1.45428 0
M  V30 21262 C 2073.53 -1.39094 1.52763 0
M  V30 21263 C 2073.93 -1.8853 0.159113 0
M  V30 21264 O 2073.28 -1.62873 -0.849596 0
M  V30 21265 C 2073.34 -2.62994 2.45101 0
M  V30 21266 C 2073 -2.35195 3.91832 0
M  V30 21267 C 2074 -1.95542 4.81725 0
M  V30 21268 C 2071.69 -2.48099 4.36752 0
M  V30 21269 C 2073.68 -1.69154 6.14545 0
M  V30 21270 C 2071.37 -2.21325 5.69613 0
M  V30 21271 C 2072.36 -1.81914 6.58328 0
M  V30 21272 O 2072.05 -1.55453 7.88727 0
M  V30 21273 H 2071.78 -0.432173 0.51981 0
M  V30 21274 H 2074.34 -0.747733 1.91306 0
M  V30 21275 H 2072.57 -3.30035 2.01528 0
M  V30 21276 H 2074.26 -3.25037 2.43116 0
M  V30 21277 H 2075.02 -1.85109 4.48285 0
M  V30 21278 H 2070.9 -2.77741 3.67941 0
M  V30 21279 H 2074.45 -1.38318 6.8375 0
M  V30 21280 H 2070.34 -2.31375 6.02608 0
M  V30 21281 H 2071.11 -1.69503 8.00757 0
M  V30 21282 N 2073.77 -1.32722 -0.849853 0
M  V30 21283 C 2074.7 -1.24675 -1.97429 0
M  V30 21284 C 2075.69 -0.129581 -1.69606 0
M  V30 21285 O 2076.87 -0.317548 -1.91586 0
M  V30 21286 C 2074 -0.973971 -3.33363 0
M  V30 21287 C 2072.95 -2.05289 -3.75553 0
M  V30 21288 C 2072.28 -1.63244 -5.09171 0
M  V30 21289 C 2073.58 -3.46845 -3.90507 0
M  V30 21290 H 2075.27 -2.18753 -2.0442 0
M  V30 21291 H 2072.82 -1.0531 -0.982132 0
M  V30 21292 H 2074.77 -0.904206 -4.11585 0
M  V30 21293 H 2073.5 0.00243816 -3.266 0
M  V30 21294 H 2072.16 -2.11289 -2.99587 0
M  V30 21295 H 2071.8 -0.643348 -4.98869 0
M  V30 21296 H 2071.5 -2.35437 -5.38371 0
M  V30 21297 H 2073.03 -1.57713 -5.8988 0
M  V30 21298 H 2074.44 -3.43408 -4.59069 0
M  V30 21299 H 2072.84 -4.17429 -4.3113 0
M  V30 21300 H 2073.91 -3.86155 -2.93278 0
M  V30 21301 N 2075.25 1.06673 -1.16011 0
M  V30 21302 C 2076.5 1.78785 -0.933751 0
M  V30 21303 C 2076.81 1.87999 0.539969 0
M  V30 21304 O 2078.02 2.56701 0.884117 0
M  V30 21305 C 2076.48 3.21313 -1.6213 0
M  V30 21306 C 2076.08 3.20277 -3.13252 0
M  V30 21307 C 2077.83 3.97985 -1.47675 0
M  V30 21308 C 2075.74 4.57501 -3.74762 0
M  V30 21309 H 2074.67 0.670074 -0.345711 0
M  V30 21310 H 2077.32 1.19679 -1.39101 0
M  V30 21311 H 2075.7 3.80653 -1.09174 0
M  V30 21312 H 2076.87 2.70541 -3.7302 0
M  V30 21313 H 2075.19 2.57103 -3.27547 0
M  V30 21314 H 2077.78 4.99417 -1.91016 0
M  V30 21315 H 2078.13 4.14123 -0.425173 0
M  V30 21316 H 2078.66 3.45157 -1.97766 0
M  V30 21317 H 2075.4 4.46568 -4.79851 0
M  V30 21318 H 2074.92 5.07446 -3.19778 0
M  V30 21319 H 2076.6 5.26463 -3.76093 0
M  V30 21320 N 2076.73 0.957992 1.25141 0
M  V30 21321 C 2077.68 0.472054 2.2776 0
M  V30 21322 C 2078.67 -0.459404 1.63052 0
M  V30 21323 O 2079.88 -0.335763 1.76841 0
M  V30 21324 H 2076.25 0.134161 0.739936 0
M  V30 21325 H 2078.22 1.34973 2.6613 0
M  V30 21326 C 2076.97 -0.231515 3.46928 0
M  V30 21327 H 2076.3 0.476093 3.96955 0
M  V30 21328 H 2077.74 -0.535494 4.20605 0
M  V30 21329 C 2076.2 -1.45518 3.03852 0
M  V30 21330 O 2076.73 -2.55274 3.10159 0
M  V30 21331 N 2074.93 -1.31773 2.59006 0
M  V30 21332 H 2074.48 -0.424725 2.54074 0
M  V30 21333 H 2074.44 -2.13762 2.30549 0
M  V30 21334 N 2078.21 -1.39832 0.726957 0
M  V30 21335 C 2079.45 -2.00971 0.271788 0
M  V30 21336 C 2079.79 -1.57537 -1.13559 0
M  V30 21337 O 2079.06 -0.800579 -1.7726 0
M  V30 21338 C 2079.35 -3.5825 0.364596 0
M  V30 21339 C 2079.2 -4.11724 1.81117 0
M  V30 21340 C 2080.52 -4.39345 -0.257652 0
M  V30 21341 H 2077.64 -0.730152 0.100232 0
M  V30 21342 H 2080.28 -1.66152 0.921599 0
M  V30 21343 H 2078.43 -3.88042 -0.18865 0
M  V30 21344 H 2080.1 -3.92684 2.42068 0
M  V30 21345 H 2078.34 -3.65585 2.33516 0
M  V30 21346 H 2079.01 -5.20873 1.82743 0
M  V30 21347 H 2081.49 -4.1555 0.213875 0
M  V30 21348 H 2080.37 -5.4866 -0.162327 0
M  V30 21349 H 2080.63 -4.21218 -1.34267 0
M  V30 21350 N 2079.69 -0.473982 -1.50304 0
M  V30 21351 C 2080.93 0.0787179 -2.04248 0
M  V30 21352 C 2081.29 1.36728 -1.34794 0
M  V30 21353 O 2082.49 2.00254 -1.7931 0
M  V30 21354 C 2080.76 0.255399 -3.56486 0
M  V30 21355 S 2082.32 0.766239 -4.32058 0
M  V30 21356 H 2079.14 0.0145896 -0.71085 0
M  V30 21357 H 2081.74 -0.641781 -1.84666 0
M  V30 21358 H 2080.45 -0.68817 -4.04589 0
M  V30 21359 H 2079.98 1.00193 -3.80427 0
M  V30 21360 H 2081.99 2.03925 -4.52359 0
M  V30 21361 N 2081.16 1.56239 -0.206702 0
M  V30 21362 C 2082.11 2.19624 0.709491 0
M  V30 21363 C 2083.08 1.1471 1.20128 0
M  V30 21364 O 2084.27 1.43008 1.26307 0
M  V30 21365 C 2081.41 2.8686 1.91847 0
M  V30 21366 C 2080.52 4.0633 1.46696 0
M  V30 21367 C 2079.65 4.6139 2.63235 0
M  V30 21368 C 2078.69 5.73193 2.14747 0
M  V30 21369 N 2077.83 6.22608 3.24505 0
M  V30 21370 H 2082.67 2.97558 0.162225 0
M  V30 21371 H 2080.21 1.46941 0.0683253 0
M  V30 21372 H 2082.17 3.24019 2.62807 0
M  V30 21373 H 2080.8 2.1147 2.43886 0
M  V30 21374 H 2079.85 3.74757 0.652809 0
M  V30 21375 H 2081.16 4.87159 1.07131 0
M  V30 21376 H 2080.31 5.00914 3.42301 0
M  V30 21377 H 2079.05 3.79693 3.0608 0
M  V30 21378 H 2078.06 5.33186 1.34139 0
M  V30 21379 H 2079.28 6.56716 1.72919 0
M  V30 21380 H 2077.23 5.43829 3.66859 0
M  V30 21381 H 2077.15 6.98521 2.89145 0
M  V30 21382 H 2078.41 6.66788 4.0375 0
M  V30 21383 N 2082.64 -0.0668159 1.57458 0
M  V30 21384 C 2083.87 -0.781616 1.92108 0
M  V30 21385 C 2084.29 -1.70072 0.803553 0
M  V30 21386 O 2083.65 -1.7966 -0.243316 0
M  V30 21387 C 2083.7 -1.54705 3.25728 0
M  V30 21388 O 2082.8 -2.65804 3.15312 0
M  V30 21389 H 2082.14 -0.212907 0.628941 0
M  V30 21390 H 2084.67 -0.0335704 2.04572 0
M  V30 21391 H 2084.68 -1.92522 3.59721 0
M  V30 21392 H 2083.36 -0.872713 4.06641 0
M  V30 21393 H 2081.94 -2.30807 2.92886 0
M  V30 21394 N 2084.12 -1.53926 -0.338317 0
M  V30 21395 C 2085.05 -1.85269 -1.42119 0
M  V30 21396 C 2086.03 -0.708238 -1.54654 0
M  V30 21397 O 2087.22 -0.960631 -1.68777 0
M  V30 21398 C 2084.35 -2.06693 -2.79097 0
M  V30 21399 C 2083.3 -3.22519 -2.81364 0
M  V30 21400 C 2082.63 -3.29286 -4.21277 0
M  V30 21401 C 2083.93 -4.6051 -2.46431 0
M  V30 21402 H 2085.62 -2.75957 -1.16137 0
M  V30 21403 H 2083.17 -1.32781 -0.557249 0
M  V30 21404 H 2085.12 -2.27204 -3.54903 0
M  V30 21405 H 2083.84 -1.1274 -3.06524 0
M  V30 21406 H 2082.5 -3.01872 -2.08011 0
M  V30 21407 H 2082.15 -2.32919 -4.45823 0
M  V30 21408 H 2081.85 -4.07123 -4.23704 0
M  V30 21409 H 2083.38 -3.52014 -4.98918 0
M  V30 21410 H 2084.79 -4.80999 -3.1195 0
M  V30 21411 H 2083.19 -5.40788 -2.60132 0
M  V30 21412 H 2084.26 -4.63762 -1.41607 0
M  V30 21413 N 2085.6 0.599608 -1.45748 0
M  V30 21414 C 2086.56 1.6918 -1.54631 0
M  V30 21415 C 2087.56 1.55081 -0.425029 0
M  V30 21416 O 2088.75 1.60004 -0.688782 0
M  V30 21417 C 2085.88 3.08502 -1.45049 0
M  V30 21418 H 2087.08 1.62667 -2.51951 0
M  V30 21419 H 2084.63 0.816022 -1.33307 0
M  V30 21420 H 2085.37 3.20585 -0.489439 0
M  V30 21421 H 2085.15 3.20144 -2.26386 0
M  V30 21422 H 2086.64 3.88042 -1.54315 0
M  V30 21423 N 2087.08 1.33171 0.842803 0
M  V30 21424 C 2088.49 1.21918 1.41397 0
M  V30 21425 C 2088.84 -0.163526 1.95517 0
M  V30 21426 O 2087.96 -1.06291 1.88497 0
M  V30 21427 C 2088.56 2.20727 2.57031 0
M  V30 21428 C 2087.12 2.13325 3.10112 0
M  V30 21429 C 2086.27 2.08432 1.82897 0
M  V30 21430 H 2089.22 1.44827 0.648912 0
M  V30 21431 H 2089.24 1.81271 3.34546 0
M  V30 21432 H 2088.75 3.21352 2.1761 0
M  V30 21433 H 2086.85 1.15989 3.54087 0
M  V30 21434 H 2086.96 3.03691 3.70552 0
M  V30 21435 H 2085.33 1.53848 2.02985 0
M  V30 21436 H 2086.11 3.10858 1.45678 0
M  V30 21437 N 2088.56 -1.06056 1.16576 0
M  V30 21438 C 2089.49 -2.13555 0.832268 0
M  V30 21439 C 2090.5 -1.61997 -0.161536 0
M  V30 21440 O 2091.69 -1.78387 0.0635559 0
M  V30 21441 C 2088.79 -3.38193 0.218821 0
M  V30 21442 C 2087.96 -4.19059 1.25332 0
M  V30 21443 C 2087.02 -5.22054 0.659239 0
M  V30 21444 O 2086.05 -5.53474 1.32874 0
M  V30 21445 N 2087.25 -5.77861 -0.552882 0
M  V30 21446 H 2090.01 -2.42762 1.75745 0
M  V30 21447 H 2087.58 -1.22078 1.06342 0
M  V30 21448 H 2089.57 -4.04246 -0.191703 0
M  V30 21449 H 2088.14 -3.06591 -0.609967 0
M  V30 21450 H 2087.36 -3.48626 1.83993 0
M  V30 21451 H 2088.65 -4.69892 1.95139 0
M  V30 21452 H 2088.04 -5.54604 -1.11493 0
M  V30 21453 H 2086.6 -6.45478 -0.905585 0
M  V30 21454 N 2090.03 -0.964615 -1.24631 0
M  V30 21455 C 2091 -0.497206 -2.23742 0
M  V30 21456 C 2092 0.404569 -1.55627 0
M  V30 21457 O 2093.19 0.200461 -1.73043 0
M  V30 21458 C 2090.32 0.280348 -3.39745 0
M  V30 21459 H 2091.51 -1.37334 -2.66607 0
M  V30 21460 H 2089.06 -0.748889 -1.37191 0
M  V30 21461 H 2089.8 1.17372 -3.02315 0
M  V30 21462 H 2089.58 -0.366741 -3.90381 0
M  V30 21463 H 2091.07 0.596501 -4.13318 0
M  V30 21464 N 2091.51 1.39445 -0.734362 0
M  V30 21465 C 2092.76 2.0013 -0.281468 0
M  V30 21466 C 2093.08 1.58562 1.13504 0
M  V30 21467 O 2092.35 0.833568 1.77281 0
M  V30 21468 H 2090.93 0.74013 -0.101076 0
M  V30 21469 H 2093.59 1.70503 -0.944178 0
M  V30 21470 H 2092.69 3.10357 -0.329356 0
M  V30 21471 N 2092.99 0.481946 1.5005 0
M  V30 21472 C 2094.22 -0.0666474 2.06793 0
M  V30 21473 C 2094.63 -1.3254 1.34457 0
M  V30 21474 O 2093.99 -1.7767 0.417087 0
M  V30 21475 C 2094.04 -0.343693 3.59862 0
M  V30 21476 O 2093.76 0.86514 4.29473 0
M  V30 21477 C 2095.26 -0.93805 4.33261 0
M  V30 21478 H 2092.48 0.0119311 0.670894 0
M  V30 21479 H 2095.03 0.673843 1.93079 0
M  V30 21480 H 2093.18 -1.03413 3.73342 0
M  V30 21481 H 2093.6 0.616339 5.20866 0
M  V30 21482 H 2095.07 -1.0816 5.413 0
M  V30 21483 H 2095.55 -1.93098 3.94474 0
M  V30 21484 H 2096.15 -0.285663 4.2434 0
M  V30 21485 N 2094.47 -1.56127 0.214985 0
M  V30 21486 C 2095.38 -2.2362 -0.709323 0
M  V30 21487 C 2096.39 -1.24168 -1.21895 0
M  V30 21488 O 2097.57 -1.56962 -1.26194 0
M  V30 21489 C 2094.63 -2.89781 -1.90337 0
M  V30 21490 C 2093.7 -4.04558 -1.43636 0
M  V30 21491 C 2092.93 -4.67555 -2.57349 0
M  V30 21492 O 2093.15 -4.29521 -3.75324 0
M  V30 21493 O 2092.09 -5.56666 -2.28925 0
M  V30 21494 H 2095.91 -3.03255 -0.164408 0
M  V30 21495 H 2093.5 -1.49392 -0.0151812 0
M  V30 21496 H 2095.38 -3.31565 -2.60082 0
M  V30 21497 H 2094.05 -2.1311 -2.43651 0
M  V30 21498 H 2092.96 -3.67356 -0.707115 0
M  V30 21499 H 2094.29 -4.82951 -0.94967 0
M  V30 21500 N 2095.95 0.0584645 -1.57492 0
M  V30 21501 C 2097.36 0.608705 -1.76498 0
M  V30 21502 C 2097.71 1.77203 -0.84224 0
M  V30 21503 O 2096.83 2.1638 -0.0296265 0
M  V30 21504 C 2097.43 1.11101 -3.20066 0
M  V30 21505 C 2095.99 1.607 -3.40371 0
M  V30 21506 C 2095.13 0.532159 -2.72146 0
M  V30 21507 H 2098.08 -0.167741 -1.57811 0
M  V30 21508 H 2098.11 1.97943 -3.2496 0
M  V30 21509 H 2097.62 0.264112 -3.872 0
M  V30 21510 H 2095.72 2.47671 -2.7837 0
M  V30 21511 H 2095.83 1.67476 -4.48875 0
M  V30 21512 H 2094.2 0.980354 -2.35077 0
M  V30 21513 H 2094.98 -0.304774 -3.41944 0
M  V30 21514 N 2097.42 1.54103 0.330149 0
M  V30 21515 C 2098.66 1.73714 1.07716 0
M  V30 21516 C 2099.03 0.496836 1.8546 0
M  V30 21517 O 2100.23 0.570188 2.62683 0
M  V30 21518 C 2098.5 2.97366 1.98264 0
M  V30 21519 S 2100.06 3.3785 2.80005 0
M  V30 21520 H 2096.88 0.610907 0.363749 0
M  V30 21521 H 2099.48 1.92269 0.353943 0
M  V30 21522 H 2098.18 3.85792 1.39973 0
M  V30 21523 H 2097.71 2.81315 2.75001 0
M  V30 21524 H 2099.73 2.92633 4.00725 0
M  V30 21525 N 2098.9 -0.59187 1.46064 0
M  V30 21526 C 2100.31 -1.17395 1.45174 0
M  V30 21527 C 2100.66 -1.953 0.187679 0
M  V30 21528 O 2099.79 -2.04428 -0.709814 0
M  V30 21529 C 2100.38 -2.1356 2.63017 0
M  V30 21530 C 2098.94 -2.6711 2.65197 0
M  V30 21531 C 2098.09 -1.42806 2.37701 0
M  V30 21532 H 2101.04 -0.380305 1.54076 0
M  V30 21533 H 2101.06 -2.96868 2.38012 0
M  V30 21534 H 2100.57 -1.5683 3.55001 0
M  V30 21535 H 2098.68 -3.27734 1.7726 0
M  V30 21536 H 2098.79 -3.1047 3.6489 0
M  V30 21537 H 2097.15 -1.72303 1.87573 0
M  V30 21538 H 2097.94 -0.879215 3.3185 0
M  V30 21539 N 2100.38 -1.33616 -0.835729 0
M  V30 21540 C 2101.79 -1.22666 -1.40748 0
M  V30 21541 C 2102.14 0.153155 -1.95601 0
M  V30 21542 O 2101.27 1.0529 -1.89058 0
M  V30 21543 C 2101.86 -2.22087 -2.55857 0
M  V30 21544 C 2100.42 -2.14967 -3.08976 0
M  V30 21545 C 2099.57 -2.09399 -1.81789 0
M  V30 21546 H 2102.52 -1.45169 -0.641222 0
M  V30 21547 H 2102.54 -1.83042 -3.3358 0
M  V30 21548 H 2102.05 -3.22502 -2.15903 0
M  V30 21549 H 2100.15 -1.17865 -3.53466 0
M  V30 21550 H 2100.27 -3.05652 -3.68936 0
M  V30 21551 H 2098.63 -1.54922 -2.02166 0
M  V30 21552 H 2099.41 -3.11626 -1.44027 0
M  V30 21553 N 2101.86 1.05436 -1.17136 0
M  V30 21554 C 2102.77 2.16633 -0.900413 0
M  V30 21555 C 2103.78 1.7351 0.130523 0
M  V30 21556 O 2104.96 2.01342 -0.0481629 0
M  V30 21557 C 2102.03 3.4421 -0.414754 0
M  V30 21558 C 2101.09 4.01793 -1.51198 0
M  V30 21559 C 2100.32 5.23281 -1.0494 0
M  V30 21560 O 2100.54 5.70317 0.0974405 0
M  V30 21561 O 2099.48 5.73041 -1.8414 0
M  V30 21562 H 2103.3 2.42336 -1.83049 0
M  V30 21563 H 2100.89 1.15137 -0.952042 0
M  V30 21564 H 2102.77 4.21128 -0.151319 0
M  V30 21565 H 2101.44 3.20013 0.487199 0
M  V30 21566 H 2100.35 3.26326 -1.82926 0
M  V30 21567 H 2101.68 4.30304 -2.38955 0
M  V30 21568 N 2103.34 0.971211 1.24118 0
M  V30 21569 C 2104.3 0.509064 2.23475 0
M  V30 21570 C 2105.3 -0.39631 1.5584 0
M  V30 21571 O 2106.49 -0.191281 1.73147 0
M  V30 21572 C 2103.62 -0.262327 3.39889 0
M  V30 21573 H 2104.81 1.38746 2.65875 0
M  V30 21574 H 2102.37 0.756154 1.36792 0
M  V30 21575 H 2103.1 -1.15767 3.02933 0
M  V30 21576 H 2102.89 0.387439 3.90181 0
M  V30 21577 H 2104.38 -0.574574 4.13628 0
M  V30 21578 N 2104.81 -1.39054 0.741747 0
M  V30 21579 C 2105.78 -2.28913 0.114619 0
M  V30 21580 C 2106.78 -1.46629 -0.660038 0
M  V30 21581 O 2107.97 -1.67223 -0.488056 0
M  V30 21582 C 2105.1 -3.3022 -0.846607 0
M  V30 21583 H 2106.29 -2.85875 0.906381 0
M  V30 21584 H 2103.85 -1.47814 0.508001 0
M  V30 21585 H 2104.58 -2.78326 -1.66448 0
M  V30 21586 H 2104.37 -3.90999 -0.293686 0
M  V30 21587 H 2105.86 -3.97443 -1.28176 0
M  V30 21588 N 2106.29 -0.489897 -1.49792 0
M  V30 21589 C 2107.26 0.283286 -2.27443 0
M  V30 21590 C 2108.26 0.903846 -1.32993 0
M  V30 21591 O 2109.45 0.770101 -1.56253 0
M  V30 21592 C 2106.58 1.40534 -3.10585 0
M  V30 21593 H 2107.77 -0.397946 -2.97248 0
M  V30 21594 H 2105.32 -0.244516 -1.54376 0
M  V30 21595 H 2106.06 2.12106 -2.4532 0
M  V30 21596 H 2105.84 0.965947 -3.80016 0
M  V30 21597 H 2107.33 1.95026 -3.69262 0
M  V30 21598 N 2107.77 1.56011 -0.223262 0
M  V30 21599 C 2109.01 2.0025 0.409802 0
M  V30 21600 C 2109.37 1.10766 1.56827 0
M  V30 21601 O 2110.58 1.44359 2.26746 0
M  V30 21602 C 2108.85 3.47588 0.831689 0
M  V30 21603 S 2110.41 4.13848 1.45862 0
M  V30 21604 H 2107.22 0.699017 0.129988 0
M  V30 21605 H 2109.83 1.92644 -0.332951 0
M  V30 21606 H 2108.53 4.10395 -0.0211012 0
M  V30 21607 H 2108.06 3.59071 1.60721 0
M  V30 21608 H 2110.08 4.13178 2.7477 0
M  V30 21609 N 2109.25 -0.0501116 1.5752 0
M  V30 21610 C 2110.18 -1.05708 2.08202 0
M  V30 21611 C 2111.16 -1.39032 0.980009 0
M  V30 21612 O 2112.34 -1.48283 1.25403 0
M  V30 21613 C 2109.47 -2.36429 2.54399 0
M  V30 21614 C 2108.43 -2.17402 3.68674 0
M  V30 21615 C 2107.75 -3.53698 4.01001 0
M  V30 21616 C 2109.05 -1.57741 4.97911 0
M  V30 21617 H 2110.75 -0.635258 2.92583 0
M  V30 21618 H 2108.29 -0.304127 1.40752 0
M  V30 21619 H 2110.25 -3.07184 2.88472 0
M  V30 21620 H 2108.97 -2.80631 1.67074 0
M  V30 21621 H 2107.63 -1.49084 3.34917 0
M  V30 21622 H 2107.28 -3.9551 3.10774 0
M  V30 21623 H 2106.98 -3.418 4.77961 0
M  V30 21624 H 2108.5 -4.25849 4.3759 0
M  V30 21625 H 2109.92 -2.18387 5.30075 0
M  V30 21626 H 2108.31 -1.56478 5.7934 0
M  V30 21627 H 2109.38 -0.540999 4.81873 0
M  V30 21628 N 2110.73 -1.54276 -0.321972 0
M  V30 21629 C 2111.66 -1.86766 -1.40146 0
M  V30 21630 C 2112.64 -0.724601 -1.53895 0
M  V30 21631 O 2113.82 -0.978478 -1.67748 0
M  V30 21632 C 2110.95 -2.09642 -2.76889 0
M  V30 21633 C 2109.91 -3.25485 -2.77927 0
M  V30 21634 C 2109.23 -3.33736 -4.17761 0
M  V30 21635 C 2110.53 -4.63097 -2.41533 0
M  V30 21636 H 2112.23 -2.77174 -1.13204 0
M  V30 21637 H 2109.77 -1.33364 -0.543134 0
M  V30 21638 H 2111.73 -2.30955 -3.52474 0
M  V30 21639 H 2110.45 -1.15985 -3.05311 0
M  V30 21640 H 2109.11 -3.04062 -2.04798 0
M  V30 21641 H 2108.76 -2.37634 -4.43327 0
M  V30 21642 H 2108.46 -4.11594 -4.19362 0
M  V30 21643 H 2109.98 -3.57285 -4.95156 0
M  V30 21644 H 2111.39 -4.84281 -3.06831 0
M  V30 21645 H 2109.79 -5.43516 -2.54382 0
M  V30 21646 H 2110.86 -4.65238 -1.3668 0
M  V30 21647 N 2112.2 0.584116 -1.46376 0
M  V30 21648 C 2113.45 1.33973 -1.51313 0
M  V30 21649 C 2113.77 1.94294 -0.165758 0
M  V30 21650 O 2113.04 1.78481 0.807546 0
M  V30 21651 H 2111.62 0.497422 -0.557298 0
M  V30 21652 H 2114.29 0.684191 -1.82496 0
M  V30 21653 H 2113.38 2.14716 -2.26503 0
M  V30 21654 N 2113.68 1.34058 0.828631 0
M  V30 21655 C 2114.93 1.25844 1.58138 0
M  V30 21656 C 2115.25 -0.173004 1.94231 0
M  V30 21657 O 2114.52 -1.10425 1.61812 0
M  V30 21658 H 2113.1 0.4628 0.586366 0
M  V30 21659 H 2115.76 1.67901 0.989709 0
M  V30 21660 H 2114.86 1.85925 2.50676 0
M  V30 21661 N 2115.16 -1.04814 1.17694 0
M  V30 21662 C 2116.39 -1.82088 0.992908 0
M  V30 21663 C 2116.81 -1.82538 -0.454023 0
M  V30 21664 O 2116.17 -1.23716 -1.3253 0
M  V30 21665 C 2116.22 -3.25912 1.54318 0
M  V30 21666 O 2115.32 -4.05346 0.759486 0
M  V30 21667 H 2114.66 -0.562852 0.352268 0
M  V30 21668 H 2117.19 -1.32054 1.56279 0
M  V30 21669 H 2117.2 -3.76705 1.56708 0
M  V30 21670 H 2115.88 -3.24899 2.59641 0
M  V30 21671 H 2114.45 -3.64056 0.807298 0
M  V30 21672 N 2116.64 -0.977779 -1.23601 0
M  V30 21673 C 2117.59 -0.51555 -2.24968 0
M  V30 21674 C 2118.56 0.4442 -1.6005 0
M  V30 21675 O 2119.74 0.352328 -1.87519 0
M  V30 21676 C 2116.88 0.17842 -3.44638 0
M  V30 21677 C 2115.99 -0.821283 -4.24121 0
M  V30 21678 C 2115.13 -0.102387 -5.31101 0
M  V30 21679 C 2114.17 -1.09148 -6.0229 0
M  V30 21680 N 2113.31 -0.401914 -7.00949 0
M  V30 21681 H 2118.15 -1.38475 -2.63872 0
M  V30 21682 H 2115.68 -0.693946 -1.29703 0
M  V30 21683 H 2117.64 0.597555 -4.12898 0
M  V30 21684 H 2116.27 1.01151 -3.06543 0
M  V30 21685 H 2115.32 -1.35882 -3.55303 0
M  V30 21686 H 2116.63 -1.5751 -4.73278 0
M  V30 21687 H 2115.79 0.374242 -6.05545 0
M  V30 21688 H 2114.53 0.684048 -4.82879 0
M  V30 21689 H 2113.53 -1.57889 -5.26641 0
M  V30 21690 H 2114.76 -1.87853 -6.52601 0
M  V30 21691 H 2112.7 0.365361 -6.54982 0
M  V30 21692 H 2112.62 -1.09443 -7.48036 0
M  V30 21693 H 2113.89 0.0524137 -7.79482 0
M  V30 21694 N 2118.12 1.38658 -0.749111 0
M  V30 21695 C 2119.53 1.82966 -0.371524 0
M  V30 21696 C 2119.88 1.62519 1.09918 0
M  V30 21697 O 2119 1.12394 1.84923 0
M  V30 21698 C 2119.6 3.32158 -0.667553 0
M  V30 21699 C 2118.16 3.74831 -0.343297 0
M  V30 21700 C 2117.31 2.61488 -0.923014 0
M  V30 21701 H 2120.26 1.2745 -0.945625 0
M  V30 21702 H 2120.28 3.80459 0.0558088 0
M  V30 21703 H 2119.79 3.47008 -1.73801 0
M  V30 21704 H 2117.89 3.65562 0.72076 0
M  V30 21705 H 2118 4.71755 -0.83572 0
M  V30 21706 H 2116.37 2.52302 -0.348687 0
M  V30 21707 H 2117.15 2.79138 -1.99841 0
M  V30 21708 N 2119.6 0.497834 1.49531 0
M  V30 21709 C 2120.84 -0.0478795 2.02743 0
M  V30 21710 C 2121.17 -1.36937 1.37702 0
M  V30 21711 O 2120.45 -1.8765 0.511637 0
M  V30 21712 C 2120.73 -0.203749 3.59523 0
M  V30 21713 C 2120.59 1.14064 4.35097 0
M  V30 21714 C 2121.9 -0.945869 4.29815 0
M  V30 21715 H 2119.02 -0.0159264 0.736828 0
M  V30 21716 H 2121.67 0.648629 1.78586 0
M  V30 21717 H 2119.82 -0.796987 3.80237 0
M  V30 21718 H 2121.49 1.77252 4.25887 0
M  V30 21719 H 2119.73 1.73071 3.9778 0
M  V30 21720 H 2120.4 0.984923 5.43142 0
M  V30 21721 H 2122.88 -0.44277 4.13738 0
M  V30 21722 H 2121.75 -1.02377 5.39268 0
M  V30 21723 H 2122.01 -1.98884 3.94839 0
M  V30 21724 N 2121.07 -1.5589 0.231532 0
M  V30 21725 C 2122.02 -2.22104 -0.690835 0
M  V30 21726 C 2123.02 -1.20363 -1.19202 0
M  V30 21727 O 2124.22 -1.38416 -1.1507 0
M  V30 21728 H 2120.6 -0.712259 -0.241228 0
M  V30 21729 H 2122.57 -2.98201 -0.109056 0
M  V30 21730 C 2121.32 -2.92249 -1.88377 0
M  V30 21731 H 2120.64 -3.703 -1.50725 0
M  V30 21732 H 2122.08 -3.41964 -2.50672 0
M  V30 21733 C 2120.54 -1.95268 -2.7454 0
M  V30 21734 O 2121.07 -1.47596 -3.73602 0
M  V30 21735 N 2119.27 -1.62701 -2.40783 0
M  V30 21736 H 2118.82 -2.01663 -1.6028 0
M  V30 21737 H 2118.78 -0.98076 -2.98711 0
M  V30 21738 N 2122.55 0.0417572 -1.57545 0
M  V30 21739 C 2123.48 1.04602 -2.0876 0
M  V30 21740 C 2124.46 1.3851 -0.987368 0
M  V30 21741 O 2125.65 1.47615 -1.26188 0
M  V30 21742 C 2122.78 2.35076 -2.55649 0
M  V30 21743 C 2121.73 2.15444 -3.69821 0
M  V30 21744 C 2121.06 3.51566 -4.02871 0
M  V30 21745 C 2122.36 1.55098 -4.9874 0
M  V30 21746 H 2124.05 0.619732 -2.92916 0
M  V30 21747 H 2121.6 0.296659 -1.40911 0
M  V30 21748 H 2123.55 3.0565 -2.90097 0
M  V30 21749 H 2122.27 2.79741 -1.6856 0
M  V30 21750 H 2120.93 1.47306 -3.35703 0
M  V30 21751 H 2120.58 3.93857 -3.12867 0
M  V30 21752 H 2120.28 3.3926 -4.79767 0
M  V30 21753 H 2121.81 4.23523 -4.39842 0
M  V30 21754 H 2123.22 2.15573 -5.31226 0
M  V30 21755 H 2121.62 1.53403 -5.80162 0
M  V30 21756 H 2122.69 0.515437 -4.82153 0
M  V30 21757 N 2124.03 1.54445 0.313786 0
M  V30 21758 C 2125.28 1.72775 1.04849 0
M  V30 21759 C 2125.6 0.509507 1.88226 0
M  V30 21760 O 2124.87 -0.476396 1.90019 0
M  V30 21761 H 2123.45 0.637053 0.390092 0
M  V30 21762 H 2126.11 1.91771 0.347859 0
M  V30 21763 H 2125.21 2.61155 1.70893 0
M  V30 21764 N 2125.51 -0.576345 1.46683 0
M  V30 21765 C 2126.92 -0.900361 1.31779 0
M  V30 21766 C 2127.12 -1.99344 0.293964 0
M  V30 21767 O 2126.18 -2.50697 -0.301245 0
M  V30 21768 C 2127.49 -1.31169 2.70583 0
M  V30 21769 C 2129.04 -1.42419 2.78722 0
M  V30 21770 C 2129.52 -1.86916 4.18123 0
M  V30 21771 N 2131.01 -1.94099 4.20571 0
M  V30 21772 C 2131.74 -2.29817 5.2533 0
M  V30 21773 N 2131.24 -2.64282 6.40411 0
M  V30 21774 N 2133.03 -2.30426 5.12699 0
M  V30 21775 H 2125.18 0.145622 2.119 0
M  V30 21776 H 2127.44 0.00247797 0.947997 0
M  V30 21777 H 2127.15 -0.582484 3.46843 0
M  V30 21778 H 2127.02 -2.2719 3.01106 0
M  V30 21779 H 2129.41 -2.14425 2.02746 0
M  V30 21780 H 2129.49 -0.446341 2.51876 0
M  V30 21781 H 2129.14 -1.15486 4.94596 0
M  V30 21782 H 2129.07 -2.8567 4.4238 0
M  V30 21783 H 2131.56 -1.69927 3.3754 0
M  V30 21784 H 2131.87 -2.90509 7.16118 0
M  V30 21785 H 2130.22 -2.61906 6.43762 0
M  V30 21786 H 2133.41 -2.02927 4.21827 0
M  V30 21787 H 2133.58 -2.57934 5.94453 0
M  V30 21788 N 2126.99 -1.34495 -0.82151 0
M  V30 21789 C 2128.23 -1.27119 -1.58014 0
M  V30 21790 C 2128.56 0.158163 -1.93555 0
M  V30 21791 O 2127.84 1.10389 -1.60139 0
M  V30 21792 C 2128.12 -2.16338 -2.87871 0
M  V30 21793 C 2127.98 -3.67818 -2.58902 0
M  V30 21794 C 2129.29 -2.04971 -3.89455 0
M  V30 21795 H 2126.41 -0.463115 -0.573318 0
M  V30 21796 H 2129.06 -1.6476 -0.946264 0
M  V30 21797 H 2127.21 -1.84367 -3.41966 0
M  V30 21798 H 2128.88 -4.10161 -2.11106 0
M  V30 21799 H 2127.12 -3.88837 -1.92324 0
M  V30 21800 H 2127.79 -4.25612 -3.51509 0
M  V30 21801 H 2130.27 -2.33044 -3.44717 0
M  V30 21802 H 2129.14 -2.6962 -4.78118 0
M  V30 21803 H 2129.4 -1.02711 -4.30003 0
M  V30 21804 N 2128.46 1.04188 -1.18248 0
M  V30 21805 C 2129.88 1.29568 -0.931902 0
M  V30 21806 C 2130.08 1.97424 0.403235 0
M  V30 21807 O 2129.14 2.25409 1.13785 0
M  V30 21808 C 2130.45 2.15557 -2.09656 0
M  V30 21809 C 2132 2.28907 -2.13473 0
M  V30 21810 C 2132.47 3.18262 -3.29353 0
M  V30 21811 N 2133.96 3.25849 -3.29206 0
M  V30 21812 C 2134.7 3.95141 -4.15513 0
M  V30 21813 N 2134.19 4.66775 -5.1195 0
M  V30 21814 N 2135.99 3.91408 -4.03431 0
M  V30 21815 H 2128.14 0.585496 -2.04171 0
M  V30 21816 H 2130.4 0.320854 -0.892052 0
M  V30 21817 H 2130.11 1.73002 -3.06208 0
M  V30 21818 H 2129.98 3.16231 -2.05616 0
M  V30 21819 H 2132.37 2.70698 -1.175 0
M  V30 21820 H 2132.45 1.27828 -2.21571 0
M  V30 21821 H 2132.09 2.77182 -4.25597 0
M  V30 21822 H 2132.02 4.1937 -3.18491 0
M  V30 21823 H 2134.51 2.74819 -2.59389 0
M  V30 21824 H 2134.83 5.17239 -5.74181 0
M  V30 21825 H 2133.17 4.65683 -5.15911 0
M  V30 21826 H 2136.36 3.34577 -3.27377 0
M  V30 21827 H 2136.54 4.45139 -4.70909 0
M  V30 21828 N 2129.94 0.98432 1.23081 0
M  V30 21829 C 2131.22 0.571642 1.8706 0
M  V30 21830 C 2131.6 -0.951185 1.88456 0
M  V30 21831 O 2130.95 -1.82954 1.36894 0
M  V30 21832 C 2131.16 1.18221 3.28367 0
M  V30 21833 C 2132.51 1.27739 4.04929 0
M  V30 21834 O 2133.53 1.13596 3.37601 0
M  V30 21835 O 2132.39 1.50282 5.25431 0
M  V30 21836 H 2129.48 0.193027 0.804158 0
M  V30 21837 H 2132.03 1.07965 1.30926 0
M  V30 21838 H 2130.8 2.22421 3.21939 0
M  V30 21839 H 2130.42 0.65926 3.92096 0
M  V30 21840 N 2131.42 -1.38259 0.756453 0
M  V30 21841 C 2132.67 -1.99657 0.313271 0
M  V30 21842 C 2132.99 -1.60347 -1.10967 0
M  V30 21843 O 2132.26 -0.861667 -1.75932 0
M  V30 21844 H 2130.84 -0.738428 0.112838 0
M  V30 21845 H 2133.5 -1.68979 0.971184 0
M  V30 21846 H 2132.6 -3.09794 0.378689 0
M  V30 21847 N 2132.9 -0.505757 -1.49264 0
M  V30 21848 C 2134.31 -0.0591588 -1.86606 0
M  V30 21849 C 2134.66 1.35636 -1.41765 0
M  V30 21850 O 2133.79 2.01164 -0.797622 0
M  V30 21851 C 2134.38 -0.100581 -3.38651 0
M  V30 21852 C 2132.94 0.290698 -3.75276 0
M  V30 21853 C 2132.09 -0.471033 -2.7327 0
M  V30 21854 H 2135.04 -0.718294 -1.41514 0
M  V30 21855 H 2135.06 0.693588 -3.74125 0
M  V30 21856 H 2134.57 -1.13093 -3.71257 0
M  V30 21857 H 2132.67 1.3241 -3.48279 0
M  V30 21858 H 2132.78 -0.0320604 -4.79089 0
M  V30 21859 H 2131.15 0.0797288 -2.54575 0
M  V30 21860 H 2131.93 -1.50155 -3.0872 0
M  V30 21861 N 2134.38 1.55765 -0.239796 0
M  V30 21862 C 2135.31 2.18397 0.695377 0
M  V30 21863 C 2136.32 1.15822 1.14407 0
M  V30 21864 O 2137.51 1.4272 1.07207 0
M  V30 21865 C 2134.61 2.76755 1.95601 0
M  V30 21866 C 2133.78 4.0468 1.65992 0
M  V30 21867 C 2132.84 4.47425 2.76943 0
M  V30 21868 O 2131.87 5.13949 2.44632 0
M  V30 21869 N 2133.07 4.14619 4.0629 0
M  V30 21870 H 2135.84 2.99275 0.15952 0
M  V30 21871 H 2133.4 1.61791 -0.0594819 0
M  V30 21872 H 2135.39 3.02313 2.69052 0
M  V30 21873 H 2133.96 2.00075 2.40185 0
M  V30 21874 H 2133.18 3.86786 0.760934 0
M  V30 21875 H 2134.47 4.88096 1.43664 0
M  V30 21876 H 2133.86 3.61198 4.35376 0
M  V30 21877 H 2132.42 4.45028 4.76228 0
M  V30 21878 N 2135.85 -0.0334016 1.57565 0
M  V30 21879 C 2137.1 -0.720703 1.90204 0
M  V30 21880 C 2137.46 -1.73196 0.837914 0
M  V30 21881 O 2136.75 -1.90981 -0.153879 0
M  V30 21882 C 2136.94 -1.4351 3.27322 0
M  V30 21883 C 2136.77 -0.494547 4.46972 0
M  V30 21884 C 2135.54 -0.117196 5.05164 0
M  V30 21885 C 2137.74 0.225215 5.13807 0
M  V30 21886 N 2135.72 0.825061 6.0833 0
M  V30 21887 C 2137.09 1.02328 6.11497 0
M  V30 21888 C 2139.15 0.292619 4.97039 0
M  V30 21889 C 2137.85 1.88256 6.94228 0
M  V30 21890 C 2139.88 1.139 5.80328 0
M  V30 21891 C 2139.24 1.92501 6.77586 0
M  V30 21892 H 2135.34 -0.237957 0.744917 0
M  V30 21893 H 2137.92 0.0190891 1.94691 0
M  V30 21894 H 2136.09 -2.14538 3.23772 0
M  V30 21895 H 2137.82 -2.07444 3.4749 0
M  V30 21896 H 2134.58 -0.478444 4.71177 0
M  V30 21897 H 2135 1.29057 6.64585 0
M  V30 21898 H 2139.65 -0.30076 4.21729 0
M  V30 21899 H 2137.36 2.48675 7.68886 0
M  V30 21900 H 2140.95 1.19463 5.69403 0
M  V30 21901 H 2139.83 2.56935 7.40914 0
M  V30 21902 N 2137.33 -1.54609 -0.305591 0
M  V30 21903 C 2138.75 -1.4572 -0.650988 0
M  V30 21904 C 2138.95 -0.644662 -1.90909 0
M  V30 21905 O 2138 -0.150545 -2.52051 0
M  V30 21906 C 2139.32 -2.89634 -0.808259 0
M  V30 21907 C 2140.87 -2.99648 -0.904441 0
M  V30 21908 C 2141.34 -4.44748 -1.09375 0
M  V30 21909 N 2142.83 -4.48438 -1.16006 0
M  V30 21910 C 2143.57 -5.57887 -1.32474 0
M  V30 21911 N 2143.06 -6.77269 -1.4587 0
M  V30 21912 N 2144.86 -5.45567 -1.35326 0
M  V30 21913 H 2137.01 -2.05909 0.521082 0
M  V30 21914 H 2139.27 -0.932366 0.171455 0
M  V30 21915 H 2138.98 -3.51671 0.0452303 0
M  V30 21916 H 2138.85 -3.36787 -1.69866 0
M  V30 21917 H 2141.24 -2.37727 -1.74842 0
M  V30 21918 H 2141.32 -2.55798 0.00987599 0
M  V30 21919 H 2140.96 -5.07262 -0.25455 0
M  V30 21920 H 2140.89 -4.86224 -2.02222 0
M  V30 21921 H 2143.38 -3.62428 -1.07025 0
M  V30 21922 H 2143.7 -7.56439 -1.58179 0
M  V30 21923 H 2142.04 -6.80143 -1.42934 0
M  V30 21924 H 2145.23 -4.51248 -1.24469 0
M  V30 21925 H 2145.4 -6.30915 -1.47817 0
M  V30 21926 N 2138.81 0.568558 -1.46987 0
M  V30 21927 C 2140.09 1.3291 -1.43507 0
M  V30 21928 C 2140.47 2.10724 -0.12598 0
M  V30 21929 O 2139.82 2.10348 0.892528 0
M  V30 21930 C 2140.03 2.2432 -2.6736 0
M  V30 21931 C 2141.37 2.85701 -3.14102 0
M  V30 21932 O 2142.4 2.34627 -2.68009 0
M  V30 21933 O 2141.26 3.78504 -3.94204 0
M  V30 21934 H 2138.35 0.597891 -0.571363 0
M  V30 21935 H 2140.9 0.588401 -1.59173 0
M  V30 21936 H 2139.67 1.66345 -3.54182 0
M  V30 21937 H 2139.29 3.05705 -2.54224 0
M  V30 21938 N 2140.29 1.34929 0.814366 0
M  V30 21939 C 2141.54 1.27514 1.56795 0
M  V30 21940 C 2141.86 -0.152393 1.94404 0
M  V30 21941 O 2141.13 -1.08703 1.62974 0
M  V30 21942 H 2139.71 0.468993 0.581424 0
M  V30 21943 H 2142.37 1.68941 0.971845 0
M  V30 21944 H 2141.47 1.88573 2.4869 0
M  V30 21945 N 2141.77 -1.0356 1.18799 0
M  V30 21946 C 2143.02 -1.76246 0.980824 0
M  V30 21947 C 2143.33 -1.89365 -0.489935 0
M  V30 21948 O 2144.53 -2.58955 -0.815746 0
M  V30 21949 C 2142.99 -3.16901 1.70592 0
M  V30 21950 C 2142.6 -3.11859 3.21633 0
M  V30 21951 C 2144.34 -3.9393 1.58175 0
M  V30 21952 C 2142.25 -4.47404 3.8676 0
M  V30 21953 H 2141.18 -0.660673 0.363355 0
M  V30 21954 H 2143.83 -1.15949 1.42225 0
M  V30 21955 H 2142.21 -3.77625 1.19228 0
M  V30 21956 H 2143.39 -2.60556 3.80062 0
M  V30 21957 H 2141.7 -2.48328 3.34249 0
M  V30 21958 H 2144.3 -4.94177 2.0419 0
M  V30 21959 H 2144.64 -4.1285 0.534821 0
M  V30 21960 H 2145.17 -3.39792 2.06848 0
M  V30 21961 H 2141.91 -4.33688 4.91523 0
M  V30 21962 H 2141.43 -4.9879 3.3312 0
M  V30 21963 H 2143.11 -5.16306 3.89919 0
M  V30 21964 N 2143.25 -0.990834 -1.22557 0
M  V30 21965 C 2144.49 -0.660998 -1.90562 0
M  V30 21966 C 2144.81 0.810271 -1.78028 0
M  V30 21967 O 2146.01 1.2516 -2.4093 0
M  V30 21968 C 2144.47 -1.13172 -3.41643 0
M  V30 21969 C 2144.08 -2.62807 -3.62817 0
M  V30 21970 C 2145.82 -0.876119 -4.15361 0
M  V30 21971 C 2143.73 -3.03493 -5.07588 0
M  V30 21972 H 2142.66 -0.243531 -0.713589 0
M  V30 21973 H 2145.31 -1.20012 -1.38814 0
M  V30 21974 H 2143.69 -0.520742 -3.92561 0
M  V30 21975 H 2144.87 -3.29233 -3.22401 0
M  V30 21976 H 2143.18 -2.86227 -3.02428 0
M  V30 21977 H 2145.78 -1.15582 -5.22058 0
M  V30 21978 H 2146.12 0.187761 -4.15876 0
M  V30 21979 H 2146.65 -1.44919 -3.70464 0
M  V30 21980 H 2143.39 -4.09048 -5.12211 0
M  V30 21981 H 2142.91 -2.41769 -5.48915 0
M  V30 21982 H 2144.59 -2.94679 -5.75998 0
M  V30 21983 N 2144.72 1.37856 -0.763775 0
M  V30 21984 C 2145.97 2.00179 -0.324977 0
M  V30 21985 C 2146.3 1.60492 1.09343 0
M  V30 21986 O 2145.58 0.847295 1.75075 0
M  V30 21987 C 2145.86 3.57157 -0.459452 0
M  V30 21988 C 2145.71 4.06777 -1.9197 0
M  V30 21989 C 2147.03 4.39874 0.141077 0
M  V30 21990 H 2144.15 0.727238 -0.119555 0
M  V30 21991 H 2146.79 1.6365 -0.965327 0
M  V30 21992 H 2144.94 3.88405 0.0857008 0
M  V30 21993 H 2146.62 3.86128 -2.52394 0
M  V30 21994 H 2144.86 3.59266 -2.43127 0
M  V30 21995 H 2145.53 5.15845 -1.96489 0
M  V30 21996 H 2148.01 4.14837 -0.323975 0
M  V30 21997 H 2146.88 5.48897 0.0168029 0
M  V30 21998 H 2147.14 4.2463 1.23052 0
M  V30 21999 N 2146.2 0.513665 1.48994 0
M  V30 22000 C 2147.13 -0.247058 2.32189 0
M  V30 22001 C 2148.11 -0.950613 1.41058 0
M  V30 22002 O 2149.3 -0.939562 1.69958 0
M  V30 22003 C 2146.43 -1.30433 3.21876 0
M  V30 22004 C 2145.38 -0.719902 4.21902 0
M  V30 22005 C 2144.71 -1.87863 5.00611 0
M  V30 22006 C 2146.01 0.297524 5.21452 0
M  V30 22007 H 2147.7 0.447403 2.96038 0
M  V30 22008 H 2145.25 0.216608 1.42362 0
M  V30 22009 H 2147.2 -1.84434 3.78896 0
M  V30 22010 H 2145.92 -2.02815 2.55995 0
M  V30 22011 H 2144.58 -0.201546 3.66046 0
M  V30 22012 H 2144.23 -2.59044 4.31167 0
M  V30 22013 H 2143.93 -1.49359 5.68301 0
M  V30 22014 H 2145.46 -2.42273 5.60478 0
M  V30 22015 H 2146.87 -0.1548 5.73091 0
M  V30 22016 H 2145.27 0.599071 5.97102 0
M  V30 22017 H 2146.34 1.20903 4.69585 0
M  V30 22018 N 2147.68 -1.55636 0.248053 0
M  V30 22019 C 2148.63 -2.21428 -0.651012 0
M  V30 22020 C 2149.6 -1.17855 -1.17045 0
M  V30 22021 O 2150.78 -1.46306 -1.22471 0
M  V30 22022 C 2147.92 -2.91846 -1.84174 0
M  V30 22023 C 2147.03 -4.10077 -1.35872 0
M  V30 22024 C 2146.17 -4.68207 -2.50909 0
M  V30 22025 C 2145.21 -5.78685 -1.99475 0
M  V30 22026 N 2144.35 -6.30993 -3.07883 0
M  V30 22027 H 2149.19 -2.97884 -0.0832758 0
M  V30 22028 H 2146.72 -1.47071 -0.0293424 0
M  V30 22029 H 2148.68 -3.30873 -2.54124 0
M  V30 22030 H 2147.31 -2.17862 -2.38193 0
M  V30 22031 H 2146.36 -3.76356 -0.553219 0
M  V30 22032 H 2147.67 -4.89829 -0.941776 0
M  V30 22033 H 2146.83 -5.09814 -3.28899 0
M  V30 22034 H 2145.57 -3.87674 -2.95905 0
M  V30 22035 H 2144.57 -5.36555 -1.19955 0
M  V30 22036 H 2145.8 -6.6107 -1.55447 0
M  V30 22037 H 2143.74 -5.53365 -3.52312 0
M  V30 22038 H 2143.66 -7.05941 -2.70523 0
M  V30 22039 H 2144.93 -6.77258 -3.8593 0
M  V30 22040 N 2149.16 0.0250451 -1.5758 0
M  V30 22041 C 2150.39 0.725656 -1.93437 0
M  V30 22042 C 2150.8 1.69204 -0.846562 0
M  V30 22043 O 2150.14 1.82762 0.185397 0
M  V30 22044 C 2150.2 1.53415 -3.25121 0
M  V30 22045 C 2149.86 0.732109 -4.51098 0
M  V30 22046 C 2150.86 0.0306335 -5.19891 0
M  V30 22047 C 2148.55 0.685464 -4.97601 0
M  V30 22048 C 2150.54 -0.706745 -6.3347 0
M  V30 22049 C 2148.23 -0.0556568 -6.11075 0
M  V30 22050 C 2149.23 -0.750517 -6.78864 0
M  V30 22051 O 2148.91 -1.4796 -7.90167 0
M  V30 22052 H 2148.65 0.208724 -0.64297 0
M  V30 22053 H 2151.2 -0.0145992 -2.05395 0
M  V30 22054 H 2149.43 2.31832 -3.09501 0
M  V30 22055 H 2151.12 2.11775 -3.46275 0
M  V30 22056 H 2151.88 0.0576759 -4.84966 0
M  V30 22057 H 2147.76 1.21582 -4.44678 0
M  V30 22058 H 2151.31 -1.24965 -6.86316 0
M  V30 22059 H 2147.2 -0.0846083 -6.45445 0
M  V30 22060 H 2147.97 -1.39369 -8.06547 0
M  V30 22061 N 2150.64 1.54769 0.297388 0
M  V30 22062 C 2151.88 1.74479 1.03367 0
M  V30 22063 C 2152.21 0.531007 1.86799 0
M  V30 22064 O 2151.49 -0.471847 1.8869 0
M  V30 22065 C 2151.77 3.03588 1.93665 0
M  V30 22066 C 2151.63 4.35274 1.13389 0
M  V30 22067 C 2152.94 3.28586 2.92779 0
M  V30 22068 H 2150.06 0.63483 0.37438 0
M  V30 22069 H 2152.71 1.87487 0.308023 0
M  V30 22070 H 2150.86 2.9263 2.55538 0
M  V30 22071 H 2152.53 4.58155 0.537739 0
M  V30 22072 H 2150.77 4.31596 0.436685 0
M  V30 22073 H 2151.44 5.21886 1.7983 0
M  V30 22074 H 2153.92 3.39177 2.41035 0
M  V30 22075 H 2152.79 4.20233 3.53122 0
M  V30 22076 H 2153.05 2.47054 3.66629 0
M  V30 22077 N 2152.11 -0.560755 1.47286 0
M  V30 22078 C 2153.39 -1.32148 1.4421 0
M  V30 22079 C 2153.77 -2.10654 0.137154 0
M  V30 22080 O 2153.12 -2.10818 -0.88136 0
M  V30 22081 C 2153.33 -2.22899 2.68546 0
M  V30 22082 C 2154.68 -2.84031 3.15613 0
M  V30 22083 O 2155.7 -2.33202 2.69249 0
M  V30 22084 O 2154.56 -3.76408 3.96206 0
M  V30 22085 H 2151.65 -0.594853 0.574525 0
M  V30 22086 H 2154.2 -0.579952 1.59482 0
M  V30 22087 H 2152.97 -1.64465 3.55059 0
M  V30 22088 H 2152.59 -3.04353 2.55842 0
M  V30 22089 N 2153.59 -1.35359 -0.807199 0
M  V30 22090 C 2154.84 -1.28344 -1.56116 0
M  V30 22091 C 2155.16 0.142081 -1.94482 0
M  V30 22092 O 2154.43 1.07837 -1.63548 0
M  V30 22093 H 2153.01 -0.47207 -0.578929 0
M  V30 22094 H 2155.67 -1.69454 -0.962872 0
M  V30 22095 H 2154.77 -1.89889 -2.47686 0
M  V30 22096 N 2155.07 1.02928 -1.19346 0
M  V30 22097 C 2156.35 1.73394 -0.905199 0
M  V30 22098 C 2156.73 2.02711 0.589208 0
M  V30 22099 O 2156.07 1.68142 1.54727 0
M  V30 22100 C 2156.28 3.01097 -1.7647 0
M  V30 22101 C 2157.63 3.74613 -1.99876 0
M  V30 22102 O 2158.66 3.11023 -1.73618 0
M  V30 22103 O 2157.52 4.88931 -2.44149 0
M  V30 22104 H 2154.61 0.755081 -0.337316 0
M  V30 22105 H 2157.16 1.08891 -1.30157 0
M  V30 22106 H 2155.93 2.75657 -2.77721 0
M  V30 22107 H 2155.55 3.7334 -1.36758 0
M  V30 22108 N 2156.55 0.997319 1.2203 0
M  V30 22109 C 2157.48 0.571319 2.26403 0
M  V30 22110 C 2158.46 -0.404025 1.65232 0
M  V30 22111 O 2159.64 -0.293692 1.91966 0
M  V30 22112 C 2156.77 -0.110472 3.47124 0
M  V30 22113 C 2155.73 0.783865 4.20761 0
M  V30 22114 C 2155.05 -0.0310887 5.34691 0
M  V30 22115 C 2156.35 2.08283 4.78974 0
M  V30 22116 H 2158.05 1.44376 2.6229 0
M  V30 22117 H 2155.59 0.695656 1.26082 0
M  V30 22118 H 2157.55 -0.419919 4.19303 0
M  V30 22119 H 2156.27 -1.01749 3.10346 0
M  V30 22120 H 2154.93 1.07702 3.50422 0
M  V30 22121 H 2154.58 -0.939162 4.94155 0
M  V30 22122 H 2154.28 0.564316 5.84884 0
M  V30 22123 H 2155.8 -0.334528 6.09683 0
M  V30 22124 H 2157.22 1.83704 5.43071 0
M  V30 22125 H 2155.61 2.62743 5.39524 0
M  V30 22126 H 2156.68 2.75867 3.9878 0
M  V30 22127 N 2158.03 -1.37449 0.771075 0
M  V30 22128 C 2159.27 -2.01548 0.340251 0
M  V30 22129 C 2159.63 -1.59886 -1.06304 0
M  V30 22130 O 2160.83 -2.16442 -1.59394 0
M  V30 22131 C 2159.1 -3.54184 0.478341 0
M  V30 22132 S 2160.66 -4.38599 0.132682 0
M  V30 22133 H 2157.48 -0.698836 0.130955 0
M  V30 22134 H 2160.08 -1.67658 1.00554 0
M  V30 22135 H 2158.79 -3.81994 1.50029 0
M  V30 22136 H 2158.32 -3.92873 -0.203525 0
M  V30 22137 H 2160.33 -4.84482 -1.072 0
M  V30 22138 N 2159.5 -0.52156 -1.4872 0
M  V30 22139 C 2160.92 -0.0789475 -1.86533 0
M  V30 22140 C 2161.27 1.34125 -1.43196 0
M  V30 22141 O 2160.39 2.00307 -0.818913 0
M  V30 22142 C 2160.99 -0.136494 -3.38525 0
M  V30 22143 C 2159.55 0.250879 -3.75563 0
M  V30 22144 C 2158.69 -0.499991 -2.72755 0
M  V30 22145 H 2161.64 -0.733264 -1.40744 0
M  V30 22146 H 2161.66 0.653868 -3.7484 0
M  V30 22147 H 2161.18 -1.17024 -3.70036 0
M  V30 22148 H 2159.28 1.28709 -3.49664 0
M  V30 22149 H 2159.39 -0.0828724 -4.79028 0
M  V30 22150 H 2157.75 0.0527232 -2.54645 0
M  V30 22151 H 2158.54 -1.53421 -3.0711 0
M  V30 22152 N 2160.98 1.55502 -0.256304 0
M  V30 22153 C 2162.26 1.91111 0.41663 0
M  V30 22154 C 2162.64 1.17825 1.75159 0
M  V30 22155 O 2161.99 0.298822 2.26538 0
M  V30 22156 C 2162.2 3.44223 0.575462 0
M  V30 22157 C 2163.55 4.15653 0.867028 0
M  V30 22158 O 2164.57 3.50014 0.660977 0
M  V30 22159 O 2163.43 5.31777 1.25997 0
M  V30 22160 H 2160.52 0.795781 0.225083 0
M  V30 22161 H 2163.07 1.67008 -0.301066 0
M  V30 22162 H 2161.84 3.89596 -0.364767 0
M  V30 22163 H 2161.46 3.74219 1.34334 0
M  V30 22164 N 2162.46 -0.0166879 1.57591 0
M  V30 22165 C 2163.71 -0.703596 1.89457 0
M  V30 22166 C 2164.03 -1.75229 0.855563 0
M  V30 22167 O 2163.3 -1.95595 -0.109241 0
M  V30 22168 H 2161.88 -0.262861 0.699223 0
M  V30 22169 H 2164.54 0.0202908 1.94889 0
M  V30 22170 H 2163.64 -1.18538 2.88713 0
M  V30 22171 N 2163.94 -1.54924 -0.289176 0
M  V30 22172 C 2165.19 -1.73974 -1.02059 0
M  V30 22173 C 2165.5 -0.539167 -1.88022 0
M  V30 22174 O 2166.71 -0.611723 -2.64519 0
M  V30 22175 C 2165.16 -3.07847 -1.86435 0
M  V30 22176 C 2164.77 -4.35421 -1.05417 0
M  V30 22177 C 2166.51 -3.36252 -2.59104 0
M  V30 22178 C 2164.42 -5.6034 -1.89138 0
M  V30 22179 H 2163.35 -0.648438 -0.384766 0
M  V30 22180 H 2166 -1.81397 -0.276999 0
M  V30 22181 H 2164.38 -2.94419 -2.64827 0
M  V30 22182 H 2165.56 -4.59718 -0.315551 0
M  V30 22183 H 2163.87 -4.14039 -0.442763 0
M  V30 22184 H 2166.47 -4.26785 -3.22115 0
M  V30 22185 H 2166.81 -2.55656 -3.28551 0
M  V30 22186 H 2167.35 -3.50705 -1.87753 0
M  V30 22187 H 2164.09 -6.43638 -1.2414 0
M  V30 22188 H 2163.61 -5.4021 -2.6064 0
M  V30 22189 H 2165.28 -5.98038 -2.46899 0
M  V30 22190 N 2165.42 0.552936 -1.47582 0
M  V30 22191 C 2166.83 0.879282 -1.33195 0
M  V30 22192 C 2167.03 1.98851 -0.32564 0
M  V30 22193 O 2166.09 2.51144 0.261323 0
M  V30 22194 C 2167.4 1.26848 -2.72635 0
M  V30 22195 C 2168.95 1.37967 -2.80952 0
M  V30 22196 C 2169.42 1.8024 -4.21043 0
M  V30 22197 N 2170.92 1.87383 -4.23606 0
M  V30 22198 C 2171.65 2.2143 -5.2892 0
M  V30 22199 N 2171.15 2.54061 -6.44535 0
M  V30 22200 N 2172.94 2.2224 -5.163 0
M  V30 22201 H 2165.09 -0.179315 -2.11642 0
M  V30 22202 H 2167.35 -0.0175595 -0.947837 0
M  V30 22203 H 2167.06 0.52723 -3.47726 0
M  V30 22204 H 2166.93 2.22371 -3.04682 0
M  V30 22205 H 2169.32 2.11172 -2.06132 0
M  V30 22206 H 2169.4 0.406213 -2.52554 0
M  V30 22207 H 2169.05 1.07603 -4.96371 0
M  V30 22208 H 2168.98 2.78596 -4.46869 0
M  V30 22209 H 2171.47 1.64536 -3.40201 0
M  V30 22210 H 2171.78 2.79079 -7.20649 0
M  V30 22211 H 2170.12 2.51631 -6.47848 0
M  V30 22212 H 2173.32 1.9619 -4.25002 0
M  V30 22213 H 2173.49 2.48444 -5.98481 0
M  V30 22214 N 2166.89 1.35785 0.800009 0
M  V30 22215 C 2167.84 1.29246 1.91217 0
M  V30 22216 C 2168.81 0.16314 1.65297 0
M  V30 22217 O 2170 0.347924 1.87601 0
M  V30 22218 C 2167.14 1.07697 3.27865 0
M  V30 22219 C 2166.25 2.2961 3.65928 0
M  V30 22220 C 2165.38 2.01158 4.91639 0
M  V30 22221 C 2164.42 3.19089 5.22349 0
M  V30 22222 N 2163.56 2.90371 6.39241 0
M  V30 22223 H 2168.4 2.24348 1.96142 0
M  V30 22224 H 2165.94 1.11515 0.959316 0
M  V30 22225 H 2167.9 0.93233 4.06649 0
M  V30 22226 H 2166.53 0.162546 3.2239 0
M  V30 22227 H 2165.58 2.54915 2.82351 0
M  V30 22228 H 2166.89 3.1765 3.84578 0
M  V30 22229 H 2166.04 1.83563 5.78264 0
M  V30 22230 H 2164.78 1.10413 4.75037 0
M  V30 22231 H 2163.79 3.37255 4.34211 0
M  V30 22232 H 2165.01 4.10645 5.40877 0
M  V30 22233 H 2162.96 2.02227 6.24052 0
M  V30 22234 H 2162.88 3.71946 6.58173 0
M  V30 22235 H 2164.14 2.76331 7.28877 0
M  V30 22236 N 2168.37 -1.02294 1.19891 0
M  V30 22237 C 2169.32 -2.107 0.942023 0
M  V30 22238 C 2170.29 -1.65626 -0.125398 0
M  V30 22239 O 2171.47 -1.90792 0.0179973 0
M  V30 22240 C 2168.61 -3.41556 0.493291 0
M  V30 22241 C 2167.73 -4.00144 1.62815 0
M  V30 22242 C 2166.86 -5.19034 1.13036 0
M  V30 22243 C 2165.9 -5.69691 2.23872 0
M  V30 22244 N 2165.04 -6.79849 1.75357 0
M  V30 22245 H 2169.88 -2.3201 1.87017 0
M  V30 22246 H 2167.42 -1.13784 0.932293 0
M  V30 22247 H 2169.37 -4.16648 0.214483 0
M  V30 22248 H 2168 -3.20339 -0.397861 0
M  V30 22249 H 2167.06 -3.22208 2.02203 0
M  V30 22250 H 2168.37 -4.3375 2.46298 0
M  V30 22251 H 2167.52 -6.01307 0.807136 0
M  V30 22252 H 2166.26 -4.86978 0.265337 0
M  V30 22253 H 2165.27 -4.86027 2.57018 0
M  V30 22254 H 2166.49 -6.03784 3.1084 0
M  V30 22255 H 2164.44 -6.49634 0.911717 0
M  V30 22256 H 2164.35 -7.12613 2.52425 0
M  V30 22257 H 2165.62 -7.65702 1.46016 0
M  V30 22258 N 2169.85 -1.00378 -1.21499 0
M  V30 22259 C 2171.08 -0.704325 -1.95074 0
M  V30 22260 C 2171.5 0.726447 -1.73506 0
M  V30 22261 O 2170.86 1.49809 -1.02113 0
M  V30 22262 C 2170.91 -1.02938 -3.45595 0
M  V30 22263 O 2170.01 -0.133961 -4.12182 0
M  V30 22264 H 2169.35 -0.262537 -0.609894 0
M  V30 22265 H 2171.88 -1.34369 -1.54292 0
M  V30 22266 H 2171.89 -0.975727 -3.96161 0
M  V30 22267 H 2170.57 -2.0719 -3.60618 0
M  V30 22268 H 2169.14 -0.244034 -3.72101 0
M  V30 22269 N 2171.33 1.37038 -0.778354 0
M  V30 22270 C 2172.56 2.03792 -0.357266 0
M  V30 22271 C 2172.97 1.587 1.02272 0
M  V30 22272 O 2172.33 0.771294 1.654 0
M  V30 22273 C 2172.38 3.59293 -0.398808 0
M  V30 22274 O 2172.1 4.02737 -1.72437 0
M  V30 22275 C 2173.6 4.43288 0.0330462 0
M  V30 22276 H 2170.82 0.654304 -0.148753 0
M  V30 22277 H 2173.37 1.75239 -1.05412 0
M  V30 22278 H 2171.52 3.86596 0.249525 0
M  V30 22279 H 2171.93 4.97286 -1.66754 0
M  V30 22280 H 2173.41 5.5198 -0.0471696 0
M  V30 22281 H 2173.89 4.25606 1.08428 0
M  V30 22282 H 2174.49 4.21225 -0.58735 0
M  V30 22283 N 2172.81 0.529439 1.48441 0
M  V30 22284 C 2174.04 -0.000824174 2.069 0
M  V30 22285 C 2174.45 -1.28195 1.38605 0
M  V30 22286 O 2173.81 -1.76253 0.4734 0
M  V30 22287 C 2173.86 -0.229032 3.60774 0
M  V30 22288 O 2173.58 1.00134 4.26503 0
M  V30 22289 C 2175.08 -0.799736 4.36027 0
M  V30 22290 H 2172.3 0.0332691 0.670175 0
M  V30 22291 H 2174.84 0.734929 1.90838 0
M  V30 22292 H 2173 -0.914832 3.76443 0
M  V30 22293 H 2173.41 0.781737 5.18642 0
M  V30 22294 H 2174.89 -0.908842 5.44467 0
M  V30 22295 H 2175.36 -1.8045 4.00418 0
M  V30 22296 H 2175.97 -0.150518 4.25034 0
M  V30 22297 N 2174.29 -1.55364 0.264547 0
M  V30 22298 C 2175.53 -1.98537 -0.355827 0
M  V30 22299 C 2175.85 -1.15624 -1.57767 0
M  V30 22300 O 2177.05 -1.48892 -2.27032 0
M  V30 22301 C 2175.51 -3.53332 -0.684446 0
M  V30 22302 C 2175.12 -4.45007 0.516993 0
M  V30 22303 C 2176.86 -4.05119 -1.26803 0
M  V30 22304 C 2174.77 -5.91174 0.163548 0
M  V30 22305 H 2173.7 -0.7415 -0.136725 0
M  V30 22306 H 2176.35 -1.79782 0.367539 0
M  V30 22307 H 2174.73 -3.67848 -1.46643 0
M  V30 22308 H 2175.91 -4.42256 1.29406 0
M  V30 22309 H 2174.22 -4.03797 1.0167 0
M  V30 22310 H 2176.82 -5.11859 -1.5461 0
M  V30 22311 H 2177.16 -3.53519 -2.19841 0
M  V30 22312 H 2177.69 -3.93999 -0.548571 0
M  V30 22313 H 2174.43 -6.46848 1.06153 0
M  V30 22314 H 2173.95 -5.97019 -0.576966 0
M  V30 22315 H 2175.63 -6.46524 -0.248012 0
M  V30 22316 N 2175.76 0.00833021 -1.57598 0
M  V30 22317 C 2177.18 0.364296 -1.55387 0
M  V30 22318 C 2177.38 1.75313 -0.993353 0
M  V30 22319 O 2176.44 2.44681 -0.623498 0
M  V30 22320 C 2177.75 0.247154 -2.99683 0
M  V30 22321 C 2179.3 0.32271 -3.11332 0
M  V30 22322 C 2179.77 0.234786 -4.57398 0
M  V30 22323 N 2181.26 0.292944 -4.62273 0
M  V30 22324 C 2182 0.248123 -5.72863 0
M  V30 22325 N 2181.49 0.154382 -6.92628 0
M  V30 22326 N 2183.29 0.299377 -5.61302 0
M  V30 22327 H 2175.44 -0.900301 -1.92376 0
M  V30 22328 H 2177.7 -0.344326 -0.883257 0
M  V30 22329 H 2177.41 -0.708073 -3.44498 0
M  V30 22330 H 2177.28 1.03257 -3.62792 0
M  V30 22331 H 2179.67 1.26838 -2.66451 0
M  V30 22332 H 2179.75 -0.492428 -2.51016 0
M  V30 22333 H 2179.39 -0.707303 -5.02951 0
M  V30 22334 H 2179.32 1.0683 -5.1565 0
M  V30 22335 H 2181.81 0.367063 -3.76113 0
M  V30 22336 H 2182.13 0.12585 -7.72698 0
M  V30 22337 H 2180.47 0.12013 -6.94896 0
M  V30 22338 H 2183.66 0.370748 -4.66629 0
M  V30 22339 H 2183.84 0.260981 -6.47474 0
M  V30 22340 N 2177.24 1.55075 0.280956 0
M  V30 22341 C 2178.49 1.75306 1.01361 0
M  V30 22342 C 2178.82 0.549775 1.86568 0
M  V30 22343 O 2178.07 -0.467908 1.90024 0
M  V30 22344 C 2178.37 3.00658 1.93234 0
M  V30 22345 C 2178.04 4.3356 1.23841 0
M  V30 22346 C 2176.7 4.69683 1.0465 0
M  V30 22347 C 2179.05 5.15863 0.743962 0
M  V30 22348 C 2176.38 5.85671 0.347296 0
M  V30 22349 C 2178.73 6.32573 0.0583841 0
M  V30 22350 C 2177.39 6.67342 -0.145308 0
M  V30 22351 H 2176.66 0.641491 0.370905 0
M  V30 22352 H 2179.31 1.89343 0.286608 0
M  V30 22353 H 2177.62 2.81488 2.72529 0
M  V30 22354 H 2179.31 3.13507 2.50029 0
M  V30 22355 H 2175.9 4.05163 1.39788 0
M  V30 22356 H 2180.09 4.88438 0.879877 0
M  V30 22357 H 2175.34 6.11139 0.178683 0
M  V30 22358 H 2179.52 6.95606 -0.332548 0
M  V30 22359 H 2177.14 7.5707 -0.689091 0
M  V30 22360 N 2178.72 -0.545102 1.47873 0
M  V30 22361 C 2179.95 -1.32682 1.58755 0
M  V30 22362 C 2180.36 -1.8724 0.242172 0
M  V30 22363 O 2179.72 -1.65628 -0.766386 0
M  V30 22364 C 2179.77 -2.48828 2.62234 0
M  V30 22365 O 2179.49 -1.96522 3.91549 0
M  V30 22366 C 2180.99 -3.40869 2.83414 0
M  V30 22367 H 2178.21 -0.404033 0.535722 0
M  V30 22368 H 2180.76 -0.659132 1.93586 0
M  V30 22369 H 2178.91 -3.11511 2.30303 0
M  V30 22370 H 2179.33 -2.72436 4.48195 0
M  V30 22371 H 2180.8 -4.18751 3.59655 0
M  V30 22372 H 2181.28 -3.95166 1.91679 0
M  V30 22373 H 2181.88 -2.83991 3.1659 0
M  V30 22374 N 2180.2 -1.36208 -0.792797 0
M  V30 22375 C 2181.44 -1.31628 -1.56376 0
M  V30 22376 C 2181.8 0.104244 -1.91717 0
M  V30 22377 O 2183 0.274558 -2.67394 0
M  V30 22378 C 2181.27 -2.21009 -2.80873 0
M  V30 22379 S 2182.83 -2.3408 -3.7115 0
M  V30 22380 H 2179.65 -0.467581 -0.53562 0
M  V30 22381 H 2182.25 -1.71744 -0.934044 0
M  V30 22382 H 2180.96 -3.23174 -2.52956 0
M  V30 22383 H 2180.49 -1.81901 -3.4882 0
M  V30 22384 H 2182.5 -1.5358 -4.71834 0
M  V30 22385 N 2181.68 1.01656 -1.20431 0
M  V30 22386 C 2182.9 1.79392 -1.04084 0
M  V30 22387 C 2183.33 1.83678 0.405466 0
M  V30 22388 O 2182.68 1.27186 1.29203 0
M  V30 22389 C 2182.73 3.21706 -1.62904 0
M  V30 22390 O 2181.84 4.0319 -0.866689 0
M  V30 22391 H 2181.18 0.553315 -0.367068 0
M  V30 22392 H 2183.71 1.27864 -1.59725 0
M  V30 22393 H 2183.72 3.72418 -1.6664 0
M  V30 22394 H 2182.39 3.17901 -2.68164 0
M  V30 22395 H 2180.97 3.61788 -0.903537 0
M  V30 22396 N 2183.15 1.01021 1.20965 0
M  V30 22397 C 2184.06 0.584483 2.27202 0
M  V30 22398 C 2185.08 -0.374977 1.69912 0
M  V30 22399 O 2186.26 -0.237516 1.99995 0
M  V30 22400 C 2183.32 -0.0769879 3.46615 0
M  V30 22401 C 2182.38 0.927608 4.19159 0
M  V30 22402 C 2181.61 0.297609 5.3287 0
M  V30 22403 O 2181.84 -0.904289 5.63186 0
M  V30 22404 O 2180.77 1.01114 5.93346 0
M  V30 22405 H 2184.6 1.46877 2.65821 0
M  V30 22406 H 2182.18 0.779356 1.27461 0
M  V30 22407 H 2184.06 -0.446718 4.19026 0
M  V30 22408 H 2182.74 -0.935572 3.09885 0
M  V30 22409 H 2181.65 1.34859 3.48947 0
M  V30 22410 H 2182.98 1.75595 4.59812 0
M  V30 22411 N 2184.63 -1.36623 0.78561 0
M  V30 22412 C 2185.86 -2.04129 0.366917 0
M  V30 22413 C 2186.28 -1.58852 -1.00736 0
M  V30 22414 O 2185.64 -0.755202 -1.64822 0
M  V30 22415 C 2185.69 -3.5797 0.43472 0
M  V30 22416 O 2184.79 -4.08584 -0.559755 0
M  V30 22417 H 2184.13 -0.645306 0.156447 0
M  V30 22418 H 2186.66 -1.74656 1.06566 0
M  V30 22419 H 2186.67 -4.06918 0.296959 0
M  V30 22420 H 2185.35 -3.90277 1.43724 0
M  V30 22421 H 2183.92 -3.70918 -0.38397 0
M  V30 22422 N 2186.11 -0.537304 -1.48158 0
M  V30 22423 C 2187.04 0.258662 -2.27736 0
M  V30 22424 C 2188.05 0.897752 -1.3581 0
M  V30 22425 O 2189.24 0.774959 -1.608 0
M  V30 22426 C 2186.34 1.38219 -3.09433 0
M  V30 22427 C 2185.52 0.843651 -4.29187 0
M  V30 22428 C 2184.58 1.84921 -4.92636 0
M  V30 22429 O 2183.6 1.40323 -5.51632 0
M  V30 22430 N 2184.8 3.18174 -4.85536 0
M  V30 22431 H 2187.57 -0.423863 -2.96688 0
M  V30 22432 H 2185.13 -0.372098 -1.57566 0
M  V30 22433 H 2187.12 2.0532 -3.48749 0
M  V30 22434 H 2185.69 1.96827 -2.42854 0
M  V30 22435 H 2184.91 -0.00356721 -3.942 0
M  V30 22436 H 2186.2 0.462851 -5.0669 0
M  V30 22437 H 2185.6 3.57068 -4.3877 0
M  V30 22438 H 2184.15 3.80888 -5.28931 0
M  V30 22439 N 2187.59 1.55221 -0.272782 0
M  V30 22440 C 2188.83 1.99841 0.345178 0
M  V30 22441 C 2189.17 1.16093 1.55679 0
M  V30 22442 O 2188.44 0.230441 1.9313 0
M  V30 22443 C 2188.73 3.5263 0.729656 0
M  V30 22444 C 2188.58 4.47133 -0.489138 0
M  V30 22445 C 2189.9 4.11259 1.56698 0
M  V30 22446 H 2187.02 0.726495 0.123989 0
M  V30 22447 H 2189.66 1.86176 -0.379262 0
M  V30 22448 H 2187.81 3.64405 1.34689 0
M  V30 22449 H 2189.48 4.47304 -1.12769 0
M  V30 22450 H 2187.72 4.18888 -1.12762 0
M  V30 22451 H 2188.39 5.51718 -0.176396 0
M  V30 22452 H 2190.87 4.02745 1.04572 0
M  V30 22453 H 2189.75 5.1838 1.80481 0
M  V30 22454 H 2190.01 3.61341 2.54726 0
M  V30 22455 N 2189.07 2.77022e-05 1.576 0
M  V30 22456 C 2190.01 -1.0096 2.09547 0
M  V30 22457 C 2191.01 -1.3559 1.01547 0
M  V30 22458 O 2192.21 -1.34154 1.20012 0
M  V30 22459 H 2188.59 -0.343238 0.669098 0
M  V30 22460 H 2190.56 -0.545912 2.93364 0
M  V30 22461 C 2189.31 -2.29263 2.61407 0
M  V30 22462 H 2188.63 -2.03484 3.44143 0
M  V30 22463 H 2190.07 -2.98185 3.01433 0
M  V30 22464 C 2188.53 -3.00245 1.52822 0
M  V30 22465 O 2189.06 -3.9123 0.911146 0
M  V30 22466 N 2187.27 -2.62071 1.25567 0
M  V30 22467 H 2186.81 -1.88164 1.75932 0
M  V30 22468 H 2186.77 -3.09878 0.531333 0
M  V30 22469 N 2190.54 -1.55222 -0.272728 0
M  V30 22470 C 2191.77 -1.80199 -1.02679 0
M  V30 22471 C 2192.19 -0.573583 -1.79141 0
M  V30 22472 O 2191.55 0.476818 -1.74918 0
M  V30 22473 C 2191.6 -3.02627 -1.96084 0
M  V30 22474 O 2190.7 -2.77732 -3.04858 0
M  V30 22475 H 2190.05 -0.595589 -0.293547 0
M  V30 22476 H 2192.58 -2.02366 -0.301554 0
M  V30 22477 H 2192.59 -3.31367 -2.38033 0
M  V30 22478 H 2191.26 -3.91684 -1.39844 0
M  V30 22479 H 2189.84 -2.60089 -2.67223 0
M  V30 22480 N 2192.02 0.537252 -1.4816 0
M  V30 22481 C 2193.44 0.865105 -1.3412 0
M  V30 22482 C 2193.64 1.98495 -0.346713 0
M  V30 22483 O 2192.69 2.51407 0.234671 0
M  V30 22484 C 2194.01 1.23949 -2.73965 0
M  V30 22485 C 2195.56 1.34979 -2.824 0
M  V30 22486 C 2196.03 1.75764 -4.22931 0
M  V30 22487 N 2197.52 1.8288 -4.25569 0
M  V30 22488 C 2198.26 2.15808 -5.31239 0
M  V30 22489 N 2197.75 2.4721 -6.47193 0
M  V30 22490 N 2199.55 2.16752 -5.18628 0
M  V30 22491 H 2191.7 -0.201752 -2.1144 0
M  V30 22492 H 2193.96 -0.0276116 -0.947598 0
M  V30 22493 H 2193.67 0.49032 -3.48265 0
M  V30 22494 H 2193.54 2.19126 -3.07023 0
M  V30 22495 H 2195.93 2.08974 -2.0836 0
M  V30 22496 H 2196.01 0.379404 -2.52971 0
M  V30 22497 H 2195.65 1.02332 -4.97484 0
M  V30 22498 H 2195.58 2.7384 -4.49799 0
M  V30 22499 H 2198.07 1.60918 -3.41927 0
M  V30 22500 H 2198.39 2.7142 -7.23568 0
M  V30 22501 H 2196.73 2.44746 -6.5048 0
M  V30 22502 H 2199.92 1.91672 -4.27059 0
M  V30 22503 H 2200.09 2.42082 -6.01082 0
M  V30 22504 N 2193.5 1.36626 0.785562 0
M  V30 22505 C 2194.91 1.27805 1.36098 0
M  V30 22506 C 2195.26 -0.080453 1.96035 0
M  V30 22507 O 2194.39 -0.982008 1.92836 0
M  V30 22508 C 2194.98 2.3143 2.47438 0
M  V30 22509 C 2193.54 2.26286 3.00785 0
M  V30 22510 C 2192.69 2.16002 1.73892 0
M  V30 22511 H 2195.64 1.47449 0.586902 0
M  V30 22512 H 2195.66 1.95297 3.26557 0
M  V30 22513 H 2195.17 3.30293 2.03785 0
M  V30 22514 H 2193.27 1.30903 3.48848 0
M  V30 22515 H 2193.39 3.19134 3.57338 0
M  V30 22516 H 2191.75 1.62319 1.96277 0
M  V30 22517 H 2192.53 3.16757 1.32362 0
M  V30 22518 N 2194.98 -1.01016 1.20969 0
M  V30 22519 C 2195.91 -2.09374 0.907615 0
M  V30 22520 C 2196.89 -1.61971 -0.14284 0
M  V30 22521 O 2198.07 -1.88494 -0.0150059 0
M  V30 22522 C 2195.2 -3.36762 0.36185 0
M  V30 22523 C 2194.25 -4.03065 1.3943 0
M  V30 22524 S 2195.08 -4.46145 2.96167 0
M  V30 22525 C 2196.24 -5.76726 2.43183 0
M  V30 22526 H 2196.47 -2.34675 1.82524 0
M  V30 22527 H 2194 -1.14223 1.03886 0
M  V30 22528 H 2195.96 -4.10465 0.0535244 0
M  V30 22529 H 2194.62 -3.09521 -0.534376 0
M  V30 22530 H 2193.81 -4.94735 0.96194 0
M  V30 22531 H 2193.42 -3.35614 1.65044 0
M  V30 22532 H 2195.71 -6.5222 1.83346 0
M  V30 22533 H 2196.65 -6.24767 3.33275 0
M  V30 22534 H 2197.06 -5.33298 1.85078 0
M  V30 22535 N 2196.46 -1.01661 -1.20428 0
M  V30 22536 C 2197.7 -0.70595 -1.89796 0
M  V30 22537 C 2198.03 0.764408 -1.78849 0
M  V30 22538 O 2197.29 1.571 -1.16697 0
M  V30 22539 C 2197.59 -1.0872 -3.40462 0
M  V30 22540 C 2197.25 -2.55377 -3.71609 0
M  V30 22541 C 2195.91 -2.95448 -3.79821 0
M  V30 22542 C 2198.27 -3.50319 -3.85909 0
M  V30 22543 C 2195.59 -4.29402 -3.99789 0
M  V30 22544 C 2197.95 -4.83961 -4.07387 0
M  V30 22545 C 2196.61 -5.23739 -4.13828 0
M  V30 22546 H 2195.88 -0.258325 -0.694513 0
M  V30 22547 H 2198.53 -1.27719 -1.42689 0
M  V30 22548 H 2196.83 -0.434378 -3.89385 0
M  V30 22549 H 2198.53 -0.82453 -3.92432 0
M  V30 22550 H 2195.12 -2.23327 -3.65818 0
M  V30 22551 H 2199.3 -3.2052 -3.7892 0
M  V30 22552 H 2194.56 -4.59775 -4.0301 0
M  V30 22553 H 2198.73 -5.57454 -4.17394 0
M  V30 22554 H 2196.36 -6.27549 -4.29053 0
M  V30 22555 N 2197.93 1.36205 -0.792844 0
M  V30 22556 C 2199.18 1.984 -0.363388 0
M  V30 22557 C 2199.5 1.63628 1.07169 0
M  V30 22558 O 2200.7 2.19083 1.60358 0
M  V30 22559 C 2199.16 3.54884 -0.598782 0
M  V30 22560 C 2198.77 3.98577 -2.0455 0
M  V30 22561 C 2200.51 4.23855 -0.234001 0
M  V30 22562 C 2198.42 5.47852 -2.22737 0
M  V30 22563 H 2197.35 0.742332 -0.132133 0
M  V30 22564 H 2200 1.55457 -0.974963 0
M  V30 22565 H 2198.38 3.95914 0.0825526 0
M  V30 22566 H 2199.55 3.68737 -2.76351 0
M  V30 22567 H 2197.87 3.42454 -2.36885 0
M  V30 22568 H 2200.47 5.33566 -0.348121 0
M  V30 22569 H 2200.81 4.08179 0.818279 0
M  V30 22570 H 2201.34 3.88199 -0.868707 0
M  V30 22571 H 2198.08 5.6848 -3.2636 0
M  V30 22572 H 2197.6 5.79308 -1.55444 0
M  V30 22573 H 2199.28 6.14124 -2.03618 0
M  V30 22574 N 2199.41 0.545154 1.47871 0
M  V30 22575 C 2200.64 0.0190975 2.07391 0
M  V30 22576 C 2201.06 -1.25969 1.39691 0
M  V30 22577 O 2200.42 -1.7516 0.467847 0
M  V30 22578 C 2200.47 -0.172272 3.60188 0
M  V30 22579 O 2199.57 -1.23759 3.93392 0
M  V30 22580 H 2198.91 0.0459176 0.66241 0
M  V30 22581 H 2201.44 0.757399 1.90065 0
M  V30 22582 H 2201.45 -0.390233 4.0613 0
M  V30 22583 H 2200.13 0.761796 4.08864 0
M  V30 22584 H 2198.71 -1.00108 3.59211 0
M  V30 22585 N 2200.89 -1.55074 0.28101 0
M  V30 22586 C 2201.85 -2.21453 -0.590858 0
M  V30 22587 C 2202.85 -1.19423 -1.07679 0
M  V30 22588 O 2204.04 -1.44289 -0.976025 0
M  V30 22589 C 2201.18 -2.88515 -1.81582 0
M  V30 22590 H 2202.37 -2.99898 -0.0112027 0
M  V30 22591 H 2199.92 -1.56268 0.0316713 0
M  V30 22592 H 2200.66 -2.14097 -2.43584 0
M  V30 22593 H 2200.44 -3.63289 -1.47524 0
M  V30 22594 H 2201.93 -3.39211 -2.43569 0
M  V30 22595 N 2202.37 -0.00838561 -1.57598 0
M  V30 22596 C 2203.62 0.675698 -1.91212 0
M  V30 22597 C 2203.95 1.72956 -0.883169 0
M  V30 22598 O 2203.22 1.94258 0.0969819 0
M  V30 22599 C 2203.51 1.31117 -3.35381 0
M  V30 22600 C 2203.36 0.268278 -4.48999 0
M  V30 22601 C 2204.68 2.23502 -3.79124 0
M  V30 22602 H 2201.8 0.244167 -0.695379 0
M  V30 22603 H 2204.44 -0.0613989 -1.89901 0
M  V30 22604 H 2202.59 1.93941 -3.36629 0
M  V30 22605 H 2204.26 -0.360925 -4.59886 0
M  V30 22606 H 2202.5 -0.408557 -4.31872 0
M  V30 22607 H 2203.18 0.752122 -5.46852 0
M  V30 22608 H 2205.65 1.70686 -3.7948 0
M  V30 22609 H 2204.53 2.64927 -4.80734 0
M  V30 22610 H 2204.79 3.11761 -3.13461 0
M  V30 22611 N 2203.85 1.55365 0.264492 0
M  V30 22612 C 2204.76 1.91936 1.34899 0
M  V30 22613 C 2205.77 0.81762 1.53594 0
M  V30 22614 O 2206.95 1.11745 1.67556 0
M  V30 22615 C 2204.01 2.19126 2.68672 0
M  V30 22616 C 2203.08 3.42634 2.58651 0
M  V30 22617 C 2202.31 3.68517 3.86045 0
M  V30 22618 O 2202.53 2.96765 4.87121 0
M  V30 22619 O 2201.47 4.62051 3.85736 0
M  V30 22620 H 2205.29 2.84272 1.06878 0
M  V30 22621 H 2202.88 1.4202 0.46375 0
M  V30 22622 H 2204.76 2.38001 3.47755 0
M  V30 22623 H 2203.43 1.29971 2.96461 0
M  V30 22624 H 2202.34 3.29086 1.77914 0
M  V30 22625 H 2203.67 4.32035 2.3581 0
M  V30 22626 N 2205.33 -0.529387 1.48443 0
M  V30 22627 C 2206.6 -1.29059 1.4698 0
M  V30 22628 C 2206.98 -2.10316 0.181806 0
M  V30 22629 O 2206.33 -2.1264 -0.836444 0
M  V30 22630 C 2206.54 -2.17152 2.73214 0
M  V30 22631 C 2207.89 -2.77273 3.21566 0
M  V30 22632 O 2208.91 -2.27439 2.74135 0
M  V30 22633 O 2207.77 -3.67919 4.04101 0
M  V30 22634 H 2204.87 -0.582532 0.587014 0
M  V30 22635 H 2207.41 -0.545993 1.60677 0
M  V30 22636 H 2206.18 -1.56896 3.58468 0
M  V30 22637 H 2205.81 -2.98858 2.6224 0
M  V30 22638 N 2206.8 -1.37041 -0.778305 0
M  V30 22639 C 2208.04 -1.33279 -1.54971 0
M  V30 22640 C 2208.41 0.0839039 -1.91817 0
M  V30 22641 O 2209.61 0.246181 -2.6767 0
M  V30 22642 C 2207.88 -2.23976 -2.78513 0
M  V30 22643 S 2209.44 -2.38003 -3.68646 0
M  V30 22644 H 2206.26 -0.473236 -0.530631 0
M  V30 22645 H 2208.86 -1.72725 -0.915776 0
M  V30 22646 H 2207.56 -3.25839 -2.49514 0
M  V30 22647 H 2207.09 -1.85591 -3.46871 0
M  V30 22648 H 2209.11 -1.58576 -4.70179 0
M  V30 22649 N 2208.28 1.00373 -1.21503 0
M  V30 22650 C 2209.19 2.12619 -0.991484 0
M  V30 22651 C 2210.21 1.73907 0.056814 0
M  V30 22652 O 2211.38 2.00957 -0.133516 0
M  V30 22653 C 2208.45 3.42141 -0.560372 0
M  V30 22654 C 2207.51 3.95019 -1.68103 0
M  V30 22655 C 2206.74 5.1836 -1.27039 0
M  V30 22656 O 2206.97 5.70217 -0.144538 0
M  V30 22657 O 2205.9 5.64715 -2.08279 0
M  V30 22658 H 2209.73 2.34354 -1.93162 0
M  V30 22659 H 2207.31 1.10995 -1.00002 0
M  V30 22660 H 2209.19 4.20107 -0.329798 0
M  V30 22661 H 2207.87 3.21791 0.351033 0
M  V30 22662 H 2206.77 3.18274 -1.96602 0
M  V30 22663 H 2208.11 4.19782 -2.56991 0
M  V30 22664 N 2209.76 1.02298 1.19887 0
M  V30 22665 C 2210.99 0.734366 1.93108 0
M  V30 22666 C 2211.4 -0.709859 1.75379 0
M  V30 22667 O 2210.74 -1.49382 1.06915 0
M  V30 22668 C 2210.8 0.99833 3.4536 0
M  V30 22669 C 2210.47 2.43293 3.86856 0
M  V30 22670 C 2211.46 3.41404 3.92096 0
M  V30 22671 C 2209.15 2.77537 4.18663 0
M  V30 22672 C 2211.14 4.71817 4.28565 0
M  V30 22673 C 2208.83 4.08161 4.54806 0
M  V30 22674 C 2209.83 5.05111 4.5973 0
M  V30 22675 O 2209.52 6.33397 4.95039 0
M  V30 22676 H 2209.25 0.268467 0.620404 0
M  V30 22677 H 2211.8 1.36883 1.53141 0
M  V30 22678 H 2210.03 0.306713 3.85482 0
M  V30 22679 H 2211.72 0.700304 3.99813 0
M  V30 22680 H 2212.49 3.16286 3.67679 0
M  V30 22681 H 2208.37 2.02757 4.14018 0
M  V30 22682 H 2211.91 5.47487 4.32323 0
M  V30 22683 H 2207.81 4.33055 4.78679 0
M  V30 22684 H 2208.57 6.37781 5.13009 0
M  V30 22685 N 2211.24 -1.35782 0.800057 0
M  V30 22686 C 2212.47 -2.03198 0.389642 0
M  V30 22687 C 2212.88 -1.60307 -0.997347 0
M  V30 22688 O 2212.24 -0.79751 -1.64152 0
M  V30 22689 C 2212.29 -3.58613 0.455918 0
M  V30 22690 O 2212.01 -3.99943 1.78822 0
M  V30 22691 C 2213.51 -4.43284 0.0374812 0
M  V30 22692 H 2210.73 -0.651855 0.159143 0
M  V30 22693 H 2213.27 -1.7354 1.08186 0
M  V30 22694 H 2211.43 -3.86944 -0.187989 0
M  V30 22695 H 2211.84 -4.9457 1.74645 0
M  V30 22696 H 2213.32 -5.51835 0.134979 0
M  V30 22697 H 2213.79 -4.27277 -1.01643 0
M  V30 22698 H 2214.4 -4.20237 0.654289 0
M  V30 22699 N 2212.72 -0.552988 -1.4758 0
M  V30 22700 C 2213.96 -0.0273599 -2.02482 0
M  V30 22701 C 2214.29 1.32078 -1.42778 0
M  V30 22702 O 2213.55 1.87172 -0.571426 0
M  V30 22703 C 2213.84 0.119666 -3.572 0
M  V30 22704 C 2213.51 -1.15705 -4.35802 0
M  V30 22705 C 2212.17 -1.50689 -4.56997 0
M  V30 22706 C 2214.52 -2.00327 -4.81164 0
M  V30 22707 C 2211.85 -2.70151 -5.20803 0
M  V30 22708 C 2214.2 -3.18988 -5.46287 0
M  V30 22709 C 2212.87 -3.5429 -5.65716 0
M  V30 22710 H 2212.14 -0.0100117 -0.740932 0
M  V30 22711 H 2214.79 -0.723651 -1.77301 0
M  V30 22712 H 2213.09 0.898893 -3.81349 0
M  V30 22713 H 2214.79 0.541648 -3.97325 0
M  V30 22714 H 2211.38 -0.874635 -4.19581 0
M  V30 22715 H 2215.56 -1.74607 -4.64571 0
M  V30 22716 H 2210.82 -2.97677 -5.3404 0
M  V30 22717 H 2214.99 -3.84849 -5.804 0
M  V30 22718 H 2212.62 -4.46953 -6.14929 0
M  V30 22719 N 2214.19 1.54923 -0.28923 0
M  V30 22720 C 2215.16 2.21763 0.579105 0
M  V30 22721 C 2216.16 1.19992 1.07045 0
M  V30 22722 O 2217.35 1.44805 0.968359 0
M  V30 22723 C 2214.48 2.89473 1.8005 0
M  V30 22724 H 2215.67 2.999 -0.00470179 0
M  V30 22725 H 2213.22 1.56249 -0.0399581 0
M  V30 22726 H 2213.96 2.15386 2.42445 0
M  V30 22727 H 2213.74 3.64067 1.45595 0
M  V30 22728 H 2215.23 3.40498 2.41767 0
M  V30 22729 N 2215.67 0.0167433 1.57591 0
M  V30 22730 C 2216.92 -0.659827 1.924 0
M  V30 22731 C 2217.27 -1.70442 0.892591 0
M  V30 22732 O 2216.57 -1.91374 -0.0930418 0
M  V30 22733 C 2216.76 -1.33024 3.31722 0
M  V30 22734 C 2216.59 -0.352096 4.4832 0
M  V30 22735 C 2215.36 0.0435771 5.05281 0
M  V30 22736 C 2217.56 0.388564 5.1283 0
M  V30 22737 N 2215.54 1.01818 6.05398 0
M  V30 22738 C 2216.91 1.21731 6.07932 0
M  V30 22739 C 2218.96 0.4506 4.95857 0
M  V30 22740 C 2217.67 2.10247 6.87887 0
M  V30 22741 C 2219.69 1.32305 5.76411 0
M  V30 22742 C 2219.06 2.1396 6.71119 0
M  V30 22743 H 2215.15 -0.214137 0.75211 0
M  V30 22744 H 2217.74 0.0810187 1.94531 0
M  V30 22745 H 2215.91 -2.04128 3.30433 0
M  V30 22746 H 2217.64 -1.96284 3.53913 0
M  V30 22747 H 2214.4 -0.328301 4.72461 0
M  V30 22748 H 2214.82 1.50135 6.60143 0
M  V30 22749 H 2219.46 -0.166438 4.22472 0
M  V30 22750 H 2217.18 2.73011 7.60586 0
M  V30 22751 H 2220.77 1.37518 5.65314 0
M  V30 22752 H 2219.65 2.80377 7.32365 0
M  V30 22753 N 2217.15 -1.55503 -0.256249 0
M  V30 22754 C 2218.56 -1.67432 -0.826039 0
M  V30 22755 C 2218.91 -0.612478 -1.86395 0
M  V30 22756 O 2218.04 0.242987 -2.15031 0
M  V30 22757 C 2218.63 -3.03535 -1.50507 0
M  V30 22758 C 2217.19 -3.17435 -2.02267 0
M  V30 22759 C 2216.34 -2.63282 -0.870502 0
M  V30 22760 H 2219.29 -1.58667 -0.0322449 0
M  V30 22761 H 2219.31 -2.97458 -2.37274 0
M  V30 22762 H 2218.82 -3.80796 -0.749417 0
M  V30 22763 H 2216.92 -2.44979 -2.80742 0
M  V30 22764 H 2217.04 -4.24223 -2.22648 0
M  V30 22765 H 2215.4 -2.20866 -1.26847 0
M  V30 22766 H 2216.18 -3.43061 -0.128088 0
M  V30 22767 N 2218.63 0.521507 -1.48721 0
M  V30 22768 C 2219.86 1.3014 -1.60846 0
M  V30 22769 C 2220.27 1.86831 -0.271929 0
M  V30 22770 O 2219.63 1.66827 0.739939 0
M  V30 22771 C 2219.68 2.44625 -2.6616 0
M  V30 22772 O 2219.4 1.90268 -3.94626 0
M  V30 22773 C 2220.9 3.36317 -2.88801 0
M  V30 22774 H 2218.12 0.395459 -0.542082 0
M  V30 22775 H 2220.67 0.628251 -1.94611 0
M  V30 22776 H 2218.82 3.07808 -2.3523 0
M  V30 22777 H 2219.23 2.65271 -4.52472 0
M  V30 22778 H 2220.71 4.12976 -3.66271 0
M  V30 22779 H 2221.19 3.92066 -1.97941 0
M  V30 22780 H 2221.79 2.78919 -3.21068 0
M  V30 22781 N 2220.11 1.37452 0.771027 0
M  V30 22782 C 2221.07 1.33097 1.86596 0
M  V30 22783 C 2222.07 0.234873 1.59075 0
M  V30 22784 O 2223.26 0.490762 1.67144 0
M  V30 22785 C 2220.39 1.06779 3.23745 0
M  V30 22786 H 2221.58 2.30492 1.91869 0
M  V30 22787 H 2219.14 1.22491 0.970855 0
M  V30 22788 H 2219.87 0.099186 3.24148 0
M  V30 22789 H 2219.66 1.86118 3.45112 0
M  V30 22790 H 2221.15 1.06384 4.03822 0
M  V30 22791 N 2221.58 -0.997276 1.22033 0
M  V30 22792 C 2222.81 -1.77178 1.06844 0
M  V30 22793 C 2223.23 -1.8491 -0.381292 0
M  V30 22794 O 2222.58 -1.31607 -1.26435 0
M  V30 22795 C 2222.64 -3.20708 1.6682 0
M  V30 22796 O 2222.36 -3.13403 3.06121 0
M  V30 22797 C 2223.86 -4.14625 1.56846 0
M  V30 22798 H 2221.08 -0.556572 0.374792 0
M  V30 22799 H 2223.62 -1.25407 1.61535 0
M  V30 22800 H 2221.78 -3.69561 1.16203 0
M  V30 22801 H 2222.19 -4.03634 3.34933 0
M  V30 22802 H 2223.66 -5.13103 2.03541 0
M  V30 22803 H 2224.14 -4.3606 0.524231 0
M  V30 22804 H 2224.75 -3.71666 2.06747 0
M  V30 22805 N 2223.06 -1.02932 -1.19343 0
M  V30 22806 C 2224.03 -0.615107 -2.20792 0
M  V30 22807 C 2225.03 0.321505 -1.57553 0
M  V30 22808 O 2226.22 0.108453 -1.73862 0
M  V30 22809 C 2223.35 0.0998623 -3.40754 0
M  V30 22810 H 2224.54 -1.51273 -2.58952 0
M  V30 22811 H 2222.09 -0.820558 -1.33028 0
M  V30 22812 H 2222.83 1.01182 -3.08112 0
M  V30 22813 H 2222.61 -0.573158 -3.87888 0
M  V30 22814 H 2224.1 0.376572 -4.15899 0
M  V30 22815 N 2224.54 1.35356 -0.807246 0
M  V30 22816 C 2225.78 2.00575 -0.393569 0
M  V30 22817 C 2226.14 1.62648 1.02027 0
M  V30 22818 O 2227.35 2.20592 1.53599 0
M  V30 22819 C 2225.62 3.52792 -0.572079 0
M  V30 22820 S 2227.18 4.38093 -0.248922 0
M  V30 22821 H 2223.99 0.695118 -0.149438 0
M  V30 22822 H 2226.6 1.64933 -1.04964 0
M  V30 22823 H 2225.3 3.77882 -1.60104 0
M  V30 22824 H 2224.83 3.93275 0.0992899 0
M  V30 22825 H 2226.85 4.87154 0.943167 0
M  V30 22826 N 2226.02 0.560807 1.47284 0
M  V30 22827 C 2227.43 0.128376 1.86258 0
M  V30 22828 C 2227.78 -1.30281 1.46701 0
M  V30 22829 O 2226.91 -1.98065 0.871733 0
M  V30 22830 C 2227.5 0.2262 3.38044 0
M  V30 22831 C 2226.06 -0.151217 3.76096 0
M  V30 22832 C 2225.21 0.572131 2.71334 0
M  V30 22833 H 2228.16 0.770322 1.38751 0
M  V30 22834 H 2228.18 -0.554256 3.76442 0
M  V30 22835 H 2227.69 1.26794 3.66804 0
M  V30 22836 H 2225.79 -1.19393 3.52953 0
M  V30 22837 H 2225.9 0.209849 4.7864 0
M  V30 22838 H 2224.27 0.01481 2.54696 0
M  V30 22839 H 2225.05 1.6151 3.02935 0
M  V30 22840 N 2227.5 -1.54768 0.297442 0
M  V30 22841 C 2228.43 -2.19555 -0.622149 0
M  V30 22842 C 2229.41 -1.16378 -1.13556 0
M  V30 22843 O 2230.59 -1.45004 -1.20442 0
M  V30 22844 C 2227.72 -2.83657 -1.85085 0
M  V30 22845 C 2226.76 -4.0033 -1.47099 0
M  V30 22846 S 2227.6 -5.32871 -0.529967 0
M  V30 22847 C 2228.75 -6.00453 -1.76654 0
M  V30 22848 H 2228.99 -2.97213 -0.0717284 0
M  V30 22849 H 2226.52 -1.54184 0.0815949 0
M  V30 22850 H 2228.48 -3.21215 -2.55599 0
M  V30 22851 H 2227.14 -2.05851 -2.37243 0
M  V30 22852 H 2226.33 -4.43951 -2.38586 0
M  V30 22853 H 2225.93 -3.6431 -0.845821 0
M  V30 22854 H 2228.23 -6.21044 -2.70759 0
M  V30 22855 H 2229.17 -6.94662 -1.37296 0
M  V30 22856 H 2229.58 -5.30057 -1.94164 0
M  V30 22857 N 2228.97 -0.0251005 -1.5758 0
M  V30 22858 C 2229.92 0.958093 -2.09974 0
M  V30 22859 C 2230.89 1.32558 -1.00088 0
M  V30 22860 O 2232.08 1.4196 -1.27484 0
M  V30 22861 C 2229.22 2.23656 -2.62816 0
M  V30 22862 C 2228.33 1.92587 -3.86696 0
M  V30 22863 C 2227.46 3.14699 -4.27946 0
M  V30 22864 C 2226.5 2.79432 -5.44595 0
M  V30 22865 N 2225.64 3.94157 -5.81021 0
M  V30 22866 H 2230.48 0.504377 -2.93701 0
M  V30 22867 H 2228.02 0.237366 -1.45172 0
M  V30 22868 H 2229.98 2.98429 -2.91541 0
M  V30 22869 H 2228.61 2.66651 -1.81926 0
M  V30 22870 H 2227.66 1.08073 -3.64725 0
M  V30 22871 H 2228.97 1.6261 -4.7155 0
M  V30 22872 H 2228.12 3.97796 -4.58086 0
M  V30 22873 H 2226.86 3.47834 -3.41852 0
M  V30 22874 H 2225.87 1.94746 -5.14154 0
M  V30 22875 H 2227.09 2.47517 -6.32386 0
M  V30 22876 H 2225.04 4.27141 -4.97882 0
M  V30 22877 H 2224.96 3.6779 -6.60505 0
M  V30 22878 H 2226.22 4.77969 -6.15764 0
M  V30 22879 N 2230.45 1.55637 0.247999 0
M  V30 22880 C 2231.68 1.8181 0.997996 0
M  V30 22881 C 2232.1 0.60201 1.78206 0
M  V30 22882 O 2231.46 -0.44893 1.75654 0
M  V30 22883 C 2231.51 3.05708 1.91245 0
M  V30 22884 O 2230.61 2.82547 3.00401 0
M  V30 22885 H 2229.95 0.600184 0.284035 0
M  V30 22886 H 2232.48 2.0282 0.269321 0
M  V30 22887 H 2232.49 3.35112 2.32731 0
M  V30 22888 H 2231.17 3.93859 1.33595 0
M  V30 22889 H 2229.75 2.64307 2.63051 0
M  V30 22890 N 2231.93 -0.513613 1.48996 0
M  V30 22891 C 2232.88 -1.63741 1.65201 0
M  V30 22892 C 2233.87 -1.61282 0.518118 0
M  V30 22893 O 2235.08 -1.65942 0.697364 0
M  V30 22894 H 2231.45 -0.542565 0.520699 0
M  V30 22895 H 2233.43 -1.47222 2.59554 0
M  V30 22896 C 2232.17 -3.01942 1.72414 0
M  V30 22897 H 2231.5 -3.04535 2.59034 0
M  V30 22898 H 2232.94 -3.80145 1.87792 0
M  V30 22899 C 2231.4 -3.33658 0.466238 0
M  V30 22900 O 2231.93 -3.99564 -0.413674 0
M  V30 22901 N 2230.13 -2.88686 0.332981 0
M  V30 22902 H 2229.68 -2.35229 1.05001 0
M  V30 22903 H 2229.64 -3.10275 -0.507611 0
M  V30 22904 N 2233.41 -1.37859 -0.763727 0
M  V30 22905 C 2234.32 -1.36481 -1.90814 0
M  V30 22906 C 2235.34 -0.263278 -1.71997 0
M  V30 22907 O 2236.51 -0.500013 -1.95094 0
M  V30 22908 C 2233.58 -1.1787 -3.26048 0
M  V30 22909 C 2232.64 -2.37736 -3.57463 0
M  V30 22910 C 2231.87 -2.20003 -4.86245 0
M  V30 22911 O 2232.09 -1.18846 -5.57882 0
M  V30 22912 O 2231.03 -3.0837 -5.16906 0
M  V30 22913 H 2234.85 -2.32887 -1.94929 0
M  V30 22914 H 2232.44 -1.18672 -0.907598 0
M  V30 22915 H 2234.32 -1.09511 -4.06922 0
M  V30 22916 H 2233 -0.245429 -3.22768 0
M  V30 22917 H 2231.9 -2.51668 -2.76792 0
M  V30 22918 H 2233.24 -3.29658 -3.65494 0
M  V30 22919 N 2234.89 0.990791 -1.22561 0
M  V30 22920 C 2235.84 2.06579 -0.964844 0
M  V30 22921 C 2236.82 1.60674 0.085319 0
M  V30 22922 O 2238.01 1.76555 -0.125474 0
M  V30 22923 C 2235.14 3.38918 -0.546767 0
M  V30 22924 C 2234.23 3.91451 -1.63177 0
M  V30 22925 N 2234.62 4.17184 -2.85992 0
M  V30 22926 C 2232.92 4.19878 -1.50395 0
M  V30 22927 C 2233.62 4.59913 -3.56167 0
M  V30 22928 N 2232.59 4.63731 -2.83646 0
M  V30 22929 H 2236.4 2.24418 -1.89773 0
M  V30 22930 H 2233.91 1.17271 -1.12345 0
M  V30 22931 H 2235.91 4.15501 -0.341263 0
M  V30 22932 H 2234.57 3.22478 0.379197 0
M  V30 22933 H 2235.58 4.05314 -3.22399 0
M  V30 22934 H 2232.26 4.12498 -0.644327 0
M  V30 22935 H 2233.65 4.88427 -4.61398 0
M  V30 22936 N 2236.37 1.03564 1.18795 0
M  V30 22937 C 2237.64 0.650466 1.84468 0
M  V30 22938 C 2238.02 -0.870399 1.92321 0
M  V30 22939 O 2237.37 -1.76983 1.44531 0
M  V30 22940 C 2237.58 1.32042 3.23057 0
M  V30 22941 C 2238.93 1.44799 3.99147 0
M  V30 22942 O 2239.95 1.27812 3.32479 0
M  V30 22943 O 2238.81 1.72432 5.18584 0
M  V30 22944 H 2235.91 0.22696 0.795247 0
M  V30 22945 H 2238.45 1.13421 1.26229 0
M  V30 22946 H 2237.22 2.35876 3.12215 0
M  V30 22947 H 2236.85 0.824968 3.88947 0
M  V30 22948 N 2237.84 -1.34926 0.814413 0
M  V30 22949 C 2239.12 -1.92941 0.321397 0
M  V30 22950 C 2239.5 -1.74355 -1.19011 0
M  V30 22951 O 2238.85 -1.1172 -1.99326 0
M  V30 22952 C 2239.06 -3.41034 0.741383 0
M  V30 22953 C 2240.41 -4.18184 0.73534 0
M  V30 22954 O 2241.43 -3.49582 0.683422 0
M  V30 22955 O 2240.29 -5.40601 0.800798 0
M  V30 22956 H 2237.38 -0.822526 0.0859038 0
M  V30 22957 H 2239.93 -1.43954 0.898634 0
M  V30 22958 H 2238.7 -3.48326 1.78282 0
M  V30 22959 H 2238.32 -3.97356 0.139377 0
M  V30 22960 N 2239.32 -0.56861 -1.46985 0
M  V30 22961 C 2240.56 -0.0513358 -2.04336 0
M  V30 22962 C 2240.93 1.27879 -1.43217 0
M  V30 22963 O 2242.13 1.88445 -1.91682 0
M  V30 22964 C 2240.4 0.02817 -3.57389 0
M  V30 22965 S 2241.96 0.489915 -4.36057 0
M  V30 22966 H 2238.77 -0.0306474 -0.710339 0
M  V30 22967 H 2241.38 -0.757923 -1.8021 0
M  V30 22968 H 2240.08 -0.944081 -3.99394 0
M  V30 22969 H 2239.61 0.757962 -3.86029 0
M  V30 22970 H 2241.63 1.74744 -4.64413 0
M  V30 22971 N 2240.8 1.54608 -0.305646 0
M  V30 22972 C 2241.73 2.2115 0.602122 0
M  V30 22973 C 2242.74 1.20571 1.09392 0
M  V30 22974 O 2243.93 1.47138 1.01057 0
M  V30 22975 C 2241.03 2.84802 1.83687 0
M  V30 22976 C 2240.21 4.11356 1.48678 0
M  V30 22977 C 2239.27 4.58768 2.57717 0
M  V30 22978 O 2238.29 5.23862 2.22614 0
M  V30 22979 N 2239.49 4.31478 3.88339 0
M  V30 22980 H 2242.26 2.99682 0.0324439 0
M  V30 22981 H 2239.82 1.61393 -0.128049 0
M  V30 22982 H 2241.81 3.13452 2.55988 0
M  V30 22983 H 2240.38 2.10082 2.31483 0
M  V30 22984 H 2239.6 3.89665 0.5962 0
M  V30 22985 H 2240.89 4.9375 1.22833 0
M  V30 22986 H 2240.29 3.79339 4.19665 0
M  V30 22987 H 2238.84 4.64826 4.56924 0
M  V30 22988 N 2242.28 0.033457 1.57564 0
M  V30 22989 C 2243.52 -0.645193 1.92263 0
M  V30 22990 C 2243.86 -1.71529 0.910573 0
M  V30 22991 O 2243.13 -1.94388 -0.0660648 0
M  V30 22992 C 2243.41 -1.25765 3.37425 0
M  V30 22993 C 2243.27 -0.196812 4.49369 0
M  V30 22994 C 2244.59 -2.17442 3.82632 0
M  V30 22995 H 2241.71 -0.233073 0.699175 0
M  V30 22996 H 2244.35 0.0916027 1.89779 0
M  V30 22997 H 2242.5 -1.8856 3.39672 0
M  V30 22998 H 2244.17 0.434043 4.59253 0
M  V30 22999 H 2242.41 0.477213 4.31167 0
M  V30 23000 H 2243.08 -0.665027 5.47979 0
M  V30 23001 H 2245.56 -1.64628 3.82148 0
M  V30 23002 H 2244.44 -2.57246 4.84888 0
M  V30 23003 H 2244.7 -3.06734 3.18381 0
M  V30 23004 N 2243.76 -1.55766 -0.239741 0
M  V30 23005 C 2244.98 -1.81995 -0.984138 0
M  V30 23006 C 2245.4 -0.610156 -1.78669 0
M  V30 23007 O 2244.76 0.42124 -1.77572 0
M  V30 23008 C 2244.81 -3.0653 -1.91629 0
M  V30 23009 O 2244.53 -4.2284 -1.14621 0
M  V30 23010 C 2246.03 -3.45612 -2.77609 0
M  V30 23011 H 2243.25 -0.605446 -0.289269 0
M  V30 23012 H 2245.79 -2.02835 -0.260464 0
M  V30 23013 H 2243.95 -2.87719 -2.59415 0
M  V30 23014 H 2244.36 -4.93467 -1.77736 0
M  V30 23015 H 2245.84 -4.35834 -3.38751 0
M  V30 23016 H 2246.31 -2.66526 -3.49086 0
M  V30 23017 H 2246.92 -3.66798 -2.15265 0
M  V30 23018 N 2245.23 0.505704 -1.49266 0
M  V30 23019 C 2246.18 1.62863 -1.66067 0
M  V30 23020 C 2247.18 1.61005 -0.526664 0
M  V30 23021 O 2248.38 1.6557 -0.706155 0
M  V30 23022 H 2244.76 0.539796 -0.523569 0
M  V30 23023 H 2246.73 1.45843 -2.60331 0
M  V30 23024 C 2245.48 3.01023 -1.74013 0
M  V30 23025 H 2244.8 3.03157 -2.60645 0
M  V30 23026 H 2246.24 3.79144 -1.89805 0
M  V30 23027 C 2244.7 3.33406 -0.483927 0
M  V30 23028 O 2245.23 3.99778 0.392478 0
M  V30 23029 N 2243.43 2.88505 -0.348287 0
M  V30 23030 H 2242.98 2.34669 -1.06247 0
M  V30 23031 H 2242.94 3.1054 0.491149 0
M  V30 23032 N 2246.71 1.38262 0.756405 0
M  V30 23033 C 2248.12 1.30663 1.33357 0
M  V30 23034 C 2248.47 -0.038853 1.96162 0
M  V30 23035 O 2247.6 -0.940884 1.94875 0
M  V30 23036 C 2248.19 2.36627 2.42473 0
M  V30 23037 C 2246.75 2.32615 2.95917 0
M  V30 23038 C 2245.9 2.19642 1.69272 0
M  V30 23039 H 2248.85 1.48661 0.555494 0
M  V30 23040 H 2248.87 2.0218 3.22341 0
M  V30 23041 H 2248.38 3.34541 1.96733 0
M  V30 23042 H 2246.49 1.38273 3.45993 0
M  V30 23043 H 2246.6 3.26642 3.50488 0
M  V30 23044 H 2244.96 1.66446 1.9279 0
M  V30 23045 H 2245.75 3.19493 1.25614 0
M  V30 23046 N 2248.19 -0.984277 1.23084 0
M  V30 23047 C 2249.42 -1.76569 1.08803 0
M  V30 23048 C 2249.84 -1.84688 -0.356625 0
M  V30 23049 O 2249.2 -1.30567 -1.25785 0
M  V30 23050 C 2249.25 -3.17273 1.71376 0
M  V30 23051 O 2248.35 -4.0075 0.973283 0
M  V30 23052 H 2247.69 -0.543388 0.381609 0
M  V30 23053 H 2250.22 -1.23584 1.63059 0
M  V30 23054 H 2250.23 -3.67869 1.76456 0
M  V30 23055 H 2248.91 -3.10679 2.76498 0
M  V30 23056 H 2247.48 -3.59265 0.999141 0
M  V30 23057 N 2249.67 -1.04192 -1.18244 0
M  V30 23058 C 2250.9 -0.766106 -1.92194 0
M  V30 23059 C 2251.31 0.676902 -1.76248 0
M  V30 23060 O 2250.67 1.46153 -1.09296 0
M  V30 23061 C 2250.72 -1.12448 -3.43566 0
M  V30 23062 O 2250.44 -2.51084 -3.5901 0
M  V30 23063 C 2251.94 -0.873351 -4.34612 0
M  V30 23064 H 2249.16 -0.279299 -0.610109 0
M  V30 23065 H 2251.71 -1.38992 -1.50005 0
M  V30 23066 H 2249.86 -0.54561 -3.83539 0
M  V30 23067 H 2250.27 -2.64839 -4.52726 0
M  V30 23068 H 2251.75 -1.17395 -5.39372 0
M  V30 23069 H 2252.23 0.191832 -4.38781 0
M  V30 23070 H 2252.83 -1.43558 -4.00339 0
M  V30 23071 N 2251.15 1.34492 -0.821557 0
M  V30 23072 C 2252.39 1.97935 -0.408173 0
M  V30 23073 C 2252.72 1.65459 1.0319 0
M  V30 23074 O 2251.99 0.944625 1.71621 0
M  V30 23075 H 2250.57 0.732204 -0.147941 0
M  V30 23076 H 2253.23 1.64153 -1.0507 0
M  V30 23077 H 2252.32 3.07634 -0.526065 0
M  V30 23078 N 2252.62 0.576397 1.46681 0
M  V30 23079 C 2253.57 -0.181248 2.27278 0
M  V30 23080 C 2254.56 -0.867697 1.35498 0
M  V30 23081 O 2255.75 -0.762835 1.59718 0
M  V30 23082 C 2252.88 -1.19836 3.21705 0
M  V30 23083 C 2251.97 -0.514346 4.20969 0
M  V30 23084 N 2252.36 0.426496 5.03999 0
M  V30 23085 C 2250.65 -0.765886 4.39375 0
M  V30 23086 C 2251.36 0.825667 5.7581 0
M  V30 23087 N 2250.33 0.176211 5.43314 0
M  V30 23088 H 2254.13 0.541836 2.88862 0
M  V30 23089 H 2251.65 0.397725 1.57454 0
M  V30 23090 H 2253.64 -1.75527 3.78148 0
M  V30 23091 H 2252.3 -1.92233 2.6168 0
M  V30 23092 H 2253.32 0.80169 5.11657 0
M  V30 23093 H 2249.99 -1.47691 3.90504 0
M  V30 23094 H 2251.38 1.59987 6.52575 0
M  V30 23095 N 2254.1 -1.54444 0.313841 0
M  V30 23096 C 2255.03 -2.26944 -0.549415 0
M  V30 23097 C 2256.01 -1.27374 -1.12739 0
M  V30 23098 O 2257.2 -1.56169 -1.15433 0
M  V30 23099 C 2254.33 -3.01992 -1.71517 0
M  V30 23100 C 2253.28 -4.08818 -1.26696 0
M  V30 23101 C 2252.61 -4.71652 -2.5189 0
M  V30 23102 C 2253.91 -5.2085 -0.38887 0
M  V30 23103 H 2255.6 -2.99349 0.0553188 0
M  V30 23104 H 2253.15 -1.43973 0.028046 0
M  V30 23105 H 2255.1 -3.51437 -2.32529 0
M  V30 23106 H 2253.83 -2.27187 -2.34635 0
M  V30 23107 H 2252.48 -3.60241 -0.679833 0
M  V30 23108 H 2252.13 -3.93473 -3.13349 0
M  V30 23109 H 2251.83 -5.43806 -2.22595 0
M  V30 23110 H 2253.36 -5.23867 -3.13681 0
M  V30 23111 H 2254.77 -5.66112 -0.905007 0
M  V30 23112 H 2253.17 -5.99802 -0.189135 0
M  V30 23113 H 2254.24 -4.81385 0.582784 0
M  V30 23114 N 2255.58 -0.0418125 -1.57545 0
M  V30 23115 C 2256.83 0.634048 -1.92318 0
M  V30 23116 C 2257.16 1.714 -0.919364 0
M  V30 23117 O 2256.41 1.95576 0.0697909 0
M  V30 23118 C 2256.71 1.27729 -3.33796 0
M  V30 23119 C 2256.38 0.326464 -4.49717 0
M  V30 23120 C 2255.04 0.0647968 -4.81156 0
M  V30 23121 C 2257.39 -0.325714 -5.20181 0
M  V30 23122 C 2254.72 -0.856641 -5.80412 0
M  V30 23123 C 2257.07 -1.23529 -6.20422 0
M  V30 23124 C 2255.73 -1.50572 -6.50296 0
M  V30 23125 H 2255 0.232015 -0.70374 0
M  V30 23126 H 2257.65 -0.106293 -1.91205 0
M  V30 23127 H 2255.96 2.09268 -3.31231 0
M  V30 23128 H 2257.65 1.80701 -3.57978 0
M  V30 23129 H 2254.24 0.54059 -4.25177 0
M  V30 23130 H 2258.43 -0.136634 -4.96112 0
M  V30 23131 H 2253.68 -1.07373 -6.01898 0
M  V30 23132 H 2257.86 -1.74676 -6.74138 0
M  V30 23133 H 2255.48 -2.22136 -7.27021 0
M  V30 23134 N 2257.06 1.55891 0.231477 0
M  V30 23135 C 2258.34 1.69217 0.981066 0
M  V30 23136 C 2258.72 0.586199 2.02798 0
M  V30 23137 O 2258.06 -0.408214 2.24824 0
M  V30 23138 C 2258.27 3.10138 1.60048 0
M  V30 23139 C 2259.62 3.69231 2.09651 0
M  V30 23140 O 2260.65 3.13036 1.69961 0
M  V30 23141 O 2259.5 4.67777 2.82572 0
M  V30 23142 H 2256.6 0.688835 0.45764 0
M  V30 23143 H 2259.14 1.68215 0.224043 0
M  V30 23144 H 2257.92 3.82089 0.844038 0
M  V30 23145 H 2257.54 3.15217 2.42331 0
M  V30 23146 N 2258.54 -0.497781 1.49532 0
M  V30 23147 C 2259.47 -1.60754 1.69353 0
M  V30 23148 C 2260.45 -1.61226 0.542246 0
M  V30 23149 O 2261.63 -1.77915 0.778448 0
M  V30 23150 C 2258.76 -2.99223 1.76303 0
M  V30 23151 C 2257.72 -3.13617 2.91253 0
M  V30 23152 C 2257.04 -4.53469 2.8332 0
M  V30 23153 C 2258.34 -2.93339 4.32145 0
M  V30 23154 H 2260.04 -1.4442 2.62265 0
M  V30 23155 H 2257.58 -0.693345 1.26209 0
M  V30 23156 H 2259.54 -3.76762 1.88756 0
M  V30 23157 H 2258.26 -3.16652 0.799927 0
M  V30 23158 H 2256.92 -2.38504 2.78409 0
M  V30 23159 H 2256.57 -4.67779 1.8491 0
M  V30 23160 H 2256.27 -4.6404 3.60473 0
M  V30 23161 H 2257.79 -5.33064 2.97784 0
M  V30 23162 H 2259.2 -3.60645 4.45655 0
M  V30 23163 H 2257.6 -3.15378 5.10545 0
M  V30 23164 H 2258.67 -1.89433 4.46367 0
M  V30 23165 N 2260.01 -1.38661 -0.749062 0
M  V30 23166 C 2261.24 -1.3854 -1.54342 0
M  V30 23167 C 2261.66 0.0216325 -1.88088 0
M  V30 23168 O 2261.02 1.00491 -1.50901 0
M  V30 23169 C 2261.07 -2.25197 -2.81636 0
M  V30 23170 O 2260.17 -1.67218 -3.76977 0
M  V30 23171 H 2259.52 -0.472375 -0.466646 0
M  V30 23172 H 2262.05 -1.8248 -0.925323 0
M  V30 23173 H 2262.06 -2.39215 -3.30515 0
M  V30 23174 H 2260.73 -3.27459 -2.56405 0
M  V30 23175 H 2259.31 -1.62366 -3.35696 0
M  V30 23176 N 2261.49 0.977736 -1.23605 0
M  V30 23177 C 2262.72 1.75989 -1.09738 0
M  V30 23178 C 2263.14 1.84875 0.346825 0
M  V30 23179 O 2262.5 1.31232 1.25091 0
M  V30 23180 C 2262.55 3.1636 -1.73057 0
M  V30 23181 O 2261.65 4.00229 -0.994522 0
M  V30 23182 H 2260.99 0.541357 -0.384485 0
M  V30 23183 H 2263.52 1.22717 -1.63712 0
M  V30 23184 H 2263.53 3.66928 -1.78404 0
M  V30 23185 H 2262.21 3.09208 -2.78142 0
M  V30 23186 H 2260.79 3.5873 -1.01818 0
M  V30 23187 N 2262.97 1.04818 1.1769 0
M  V30 23188 C 2263.9 0.66683 2.23776 0
M  V30 23189 C 2264.88 -0.333581 1.66797 0
M  V30 23190 O 2266.07 -0.212008 1.93039 0
M  V30 23191 C 2263.2 0.0368544 3.4728 0
M  V30 23192 C 2262.15 0.961619 4.17057 0
M  V30 23193 C 2261.48 0.19572 5.34342 0
M  V30 23194 C 2262.78 2.2841 4.69709 0
M  V30 23195 H 2264.47 1.55371 2.5593 0
M  V30 23196 H 2262.02 0.748506 1.23018 0
M  V30 23197 H 2263.97 -0.241701 4.20706 0
M  V30 23198 H 2262.69 -0.884949 3.14382 0
M  V30 23199 H 2261.35 1.22468 3.45539 0
M  V30 23200 H 2261 -0.728729 4.97693 0
M  V30 23201 H 2260.7 0.811878 5.81964 0
M  V30 23202 H 2262.23 -0.0756399 6.10553 0
M  V30 23203 H 2263.64 2.06572 5.34791 0
M  V30 23204 H 2262.04 2.8539 5.27895 0
M  V30 23205 H 2263.11 2.92532 3.86721 0
M  V30 23206 N 2264.45 -1.34055 0.828678 0
M  V30 23207 C 2265.67 -2.02858 0.431673 0
M  V30 23208 C 2266.1 -1.61976 -0.95631 0
M  V30 23209 O 2265.46 -0.807256 -1.62336 0
M  V30 23210 C 2265.51 -3.56406 0.548385 0
M  V30 23211 O 2264.61 -4.10158 -0.429484 0
M  V30 23212 H 2263.95 -0.640003 0.176897 0
M  V30 23213 H 2266.48 -1.71177 1.12069 0
M  V30 23214 H 2266.49 -4.05767 0.426267 0
M  V30 23215 H 2265.17 -3.85507 1.56067 0
M  V30 23216 H 2263.74 -3.71952 -0.265771 0
M  V30 23217 N 2265.93 -0.584167 -1.46374 0
M  V30 23218 C 2267.18 -0.0701642 -2.01978 0
M  V30 23219 C 2267.5 1.29497 -1.45792 0
M  V30 23220 O 2266.77 1.85041 -0.643172 0
M  V30 23221 H 2265.35 -0.0229476 -0.746647 0
M  V30 23222 H 2268.01 -0.760277 -1.7946 0
M  V30 23223 H 2267.1 -0.00226126 -3.121 0
M  V30 23224 N 2267.41 1.54275 -0.322027 0
M  V30 23225 C 2268.82 1.59571 0.0306719 0
M  V30 23226 C 2269.02 1.3386 1.50612 0
M  V30 23227 O 2268.08 1.12227 2.26189 0
M  V30 23228 C 2269.39 2.9821 -0.386175 0
M  V30 23229 C 2270.94 3.11184 -0.336701 0
M  V30 23230 C 2271.41 4.52166 -0.728687 0
M  V30 23231 N 2272.9 4.58151 -0.682032 0
M  V30 23232 C 2273.64 5.65348 -0.957548 0
M  V30 23233 N 2273.14 6.80492 -1.30012 0
M  V30 23234 N 2274.93 5.55118 -0.883211 0
M  V30 23235 H 2267.08 1.69245 -1.28335 0
M  V30 23236 H 2269.34 0.791519 -0.52173 0
M  V30 23237 H 2269.05 3.22019 -1.41409 0
M  V30 23238 H 2268.92 3.76373 0.249596 0
M  V30 23239 H 2271.31 2.87111 0.682008 0
M  V30 23240 H 2271.39 2.35128 -1.00738 0
M  V30 23241 H 2271.03 4.76971 -1.7453 0
M  V30 23242 H 2270.96 5.26588 -0.0357077 0
M  V30 23243 H 2273.46 3.75456 -0.429051 0
M  V30 23244 H 2273.77 7.58186 -1.49577 0
M  V30 23245 H 2272.11 6.81992 -1.33836 0
M  V30 23246 H 2275.3 4.64041 -0.615082 0
M  V30 23247 H 2275.48 6.38573 -1.10129 0
M  V30 23248 N 2268.88 0.0501669 1.5752 0
M  V30 23249 C 2269.85 -0.909749 2.10372 0
M  V30 23250 C 2270.85 -1.24054 1.0231 0
M  V30 23251 O 2272.04 -1.17739 1.28387 0
M  V30 23252 C 2269.17 -2.21994 2.58712 0
M  V30 23253 H 2270.36 -0.451613 2.9648 0
M  V30 23254 H 2267.91 -0.19822 1.55038 0
M  V30 23255 H 2268.65 -2.72391 1.75994 0
M  V30 23256 H 2268.43 -1.99289 3.37678 0
M  V30 23257 H 2269.92 -2.90755 2.99752 0
M  V30 23258 N 2270.36 -1.56011 -0.223207 0
M  V30 23259 C 2271.61 -1.78594 -0.945971 0
M  V30 23260 C 2271.93 -0.618381 -1.84935 0
M  V30 23261 O 2271.2 0.364799 -1.92473 0
M  V30 23262 H 2269.78 -0.658713 -0.352287 0
M  V30 23263 H 2272.44 -1.93472 -0.23546 0
M  V30 23264 H 2271.54 -2.70675 -1.55376 0
M  V30 23265 N 2271.84 0.489844 -1.49794 0
M  V30 23266 C 2273.09 1.24324 -1.59843 0
M  V30 23267 C 2273.41 1.92323 -0.290169 0
M  V30 23268 O 2272.67 1.81866 0.722717 0
M  V30 23269 C 2272.97 2.32436 -2.71492 0
M  V30 23270 C 2272.63 1.81819 -4.12617 0
M  V30 23271 C 2271.3 1.67734 -4.5102 0
M  V30 23272 C 2273.65 1.44062 -5.00895 0
M  V30 23273 C 2270.98 1.14287 -5.75461 0
M  V30 23274 C 2273.33 0.920632 -6.25865 0
M  V30 23275 C 2271.99 0.766267 -6.63087 0
M  V30 23276 H 2271.26 0.454934 -0.584907 0
M  V30 23277 H 2273.91 0.542183 -1.83664 0
M  V30 23278 H 2272.21 3.08375 -2.41685 0
M  V30 23279 H 2273.91 2.90453 -2.76474 0
M  V30 23280 H 2270.5 1.93744 -3.8231 0
M  V30 23281 H 2274.69 1.53786 -4.71873 0
M  V30 23282 H 2269.94 1.01057 -6.0299 0
M  V30 23283 H 2274.12 0.619326 -6.93641 0
M  V30 23284 H 2271.74 0.34995 -7.59394 0
M  V30 23285 N 2273.32 1.39056 0.741698 0
M  V30 23286 C 2274.55 1.39174 1.53095 0
M  V30 23287 C 2274.96 -0.0154767 1.88794 0
M  V30 23288 O 2274.32 -0.985132 1.53627 0
M  V30 23289 C 2274.37 2.25845 2.8227 0
M  V30 23290 O 2274.09 3.61086 2.4809 0
M  V30 23291 C 2275.59 2.34273 3.76339 0
M  V30 23292 H 2272.81 0.475608 0.473327 0
M  V30 23293 H 2275.35 1.82787 0.917013 0
M  V30 23294 H 2273.51 1.85662 3.40012 0
M  V30 23295 H 2273.92 4.06848 3.31021 0
M  V30 23296 H 2275.4 2.99178 4.63893 0
M  V30 23297 H 2275.87 1.35989 4.17617 0
M  V30 23298 H 2276.48 2.74896 3.24518 0
M  V30 23299 N 2274.8 -0.971167 1.24121 0
M  V30 23300 C 2275.76 -2.04673 1.03159 0
M  V30 23301 C 2276.76 -1.60797 -0.00987496 0
M  V30 23302 O 2277.95 -1.72665 0.23076 0
M  V30 23303 C 2275.08 -3.36222 0.562824 0
M  V30 23304 H 2276.27 -2.24702 1.98618 0
M  V30 23305 H 2273.83 -1.14591 1.06295 0
M  V30 23306 H 2274.56 -3.21884 -0.39512 0
M  V30 23307 H 2274.35 -3.6941 1.31447 0
M  V30 23308 H 2275.84 -4.15306 0.437088 0
M  V30 23309 N 2276.27 -1.05441 -1.17133 0
M  V30 23310 C 2277.24 -0.661802 -2.19438 0
M  V30 23311 C 2278.24 0.288014 -1.582 0
M  V30 23312 O 2279.43 0.0715497 -1.74053 0
M  V30 23313 C 2276.56 0.027561 -3.40889 0
M  V30 23314 H 2277.75 -1.56732 -2.55685 0
M  V30 23315 H 2275.31 -0.84859 -1.31258 0
M  V30 23316 H 2276.04 0.946235 -3.10188 0
M  V30 23317 H 2275.83 -0.655306 -3.86585 0
M  V30 23318 H 2277.32 0.288269 -4.16604 0
M  V30 23319 N 2277.75 1.33613 -0.835776 0
M  V30 23320 C 2278.98 2.018 -0.442736 0
M  V30 23321 C 2279.39 1.63049 0.959779 0
M  V30 23322 O 2278.73 0.838117 1.63466 0
M  V30 23323 C 2278.8 3.56279 -0.480188 0
M  V30 23324 C 2278.46 4.18397 -1.83828 0
M  V30 23325 C 2279.46 4.37993 -2.80104 0
M  V30 23326 C 2277.14 4.5489 -2.13027 0
M  V30 23327 C 2279.14 4.93223 -4.03745 0
M  V30 23328 C 2276.82 5.09828 -3.36925 0
M  V30 23329 C 2277.82 5.28941 -4.32101 0
M  V30 23330 O 2277.51 5.82711 -5.53807 0
M  V30 23331 H 2277.24 0.65311 -0.174421 0
M  V30 23332 H 2279.79 1.71587 -1.12903 0
M  V30 23333 H 2278.02 3.85806 0.262863 0
M  V30 23334 H 2279.71 4.05763 -0.105406 0
M  V30 23335 H 2280.48 4.10151 -2.58845 0
M  V30 23336 H 2276.36 4.3931 -1.39741 0
M  V30 23337 H 2279.9 5.08056 -4.78043 0
M  V30 23338 H 2275.8 5.371 -3.58042 0
M  V30 23339 H 2276.57 6.0113 -5.55504 0
M  V30 23340 N 2279.23 0.591922 1.46062 0
M  V30 23341 C 2280.46 0.0850678 2.07225 0
M  V30 23342 C 2280.88 -1.21461 1.43628 0
M  V30 23343 O 2280.24 -1.73583 0.523336 0
M  V30 23344 C 2280.29 -0.0575933 3.60554 0
M  V30 23345 O 2279.39 -1.11181 3.9713 0
M  V30 23346 H 2278.73 0.0669684 0.660614 0
M  V30 23347 H 2281.26 0.817483 1.87559 0
M  V30 23348 H 2281.27 -0.260829 4.07165 0
M  V30 23349 H 2279.95 0.891488 4.06233 0
M  V30 23350 H 2278.52 -0.886292 3.62214 0
M  V30 23351 N 2280.71 -1.54102 0.330204 0
M  V30 23352 C 2281.62 -2.28265 -0.541493 0
M  V30 23353 C 2282.63 -1.32868 -1.12349 0
M  V30 23354 O 2283.81 -1.6589 -1.14203 0
M  V30 23355 C 2280.88 -3.03101 -1.68317 0
M  V30 23356 C 2279.94 -4.14098 -1.13231 0
M  V30 23357 C 2279.17 -4.85356 -2.21958 0
M  V30 23358 O 2279.39 -4.56178 -3.42429 0
M  V30 23359 O 2278.33 -5.72113 -1.87003 0
M  V30 23360 H 2282.15 -3.03639 0.0609914 0
M  V30 23361 H 2279.74 -1.49093 0.0956762 0
M  V30 23362 H 2281.62 -3.49944 -2.34771 0
M  V30 23363 H 2280.29 -2.30597 -2.27171 0
M  V30 23364 H 2279.2 -3.7159 -0.432671 0
M  V30 23365 H 2280.53 -4.88665 -0.588812 0
M  V30 23366 N 2282.19 -0.0585199 -1.57491 0
M  V30 23367 C 2283.13 0.913338 -2.11959 0
M  V30 23368 C 2284.1 1.30405 -1.02877 0
M  V30 23369 O 2285.29 1.39224 -1.30466 0
M  V30 23370 C 2282.43 2.18031 -2.67501 0
M  V30 23371 C 2281.54 1.84342 -3.90694 0
M  V30 23372 C 2280.68 3.05551 -4.34525 0
M  V30 23373 C 2279.72 2.67817 -5.504 0
M  V30 23374 N 2278.85 3.81744 -5.89251 0
M  V30 23375 H 2283.69 0.441965 -2.94704 0
M  V30 23376 H 2281.23 0.20652 -1.45643 0
M  V30 23377 H 2283.19 2.92178 -2.97805 0
M  V30 23378 H 2281.82 2.62732 -1.87542 0
M  V30 23379 H 2280.87 1.00313 -3.66935 0
M  V30 23380 H 2282.18 1.52571 -4.74893 0
M  V30 23381 H 2281.34 3.8799 -4.66421 0
M  V30 23382 H 2280.07 3.40505 -3.49153 0
M  V30 23383 H 2279.08 1.83797 -5.18169 0
M  V30 23384 H 2280.3 2.34048 -6.37494 0
M  V30 23385 H 2278.25 4.16485 -5.0683 0
M  V30 23386 H 2278.17 3.53697 -6.68158 0
M  V30 23387 H 2279.44 4.648 -6.25764 0
M  V30 23388 N 2283.66 1.56128 0.21493 0
M  V30 23389 C 2284.91 1.79093 0.936487 0
M  V30 23390 C 2285.23 0.62818 1.84605 0
M  V30 23391 O 2284.5 -0.354586 1.92664 0
M  V30 23392 H 2283.08 0.660572 0.348788 0
M  V30 23393 H 2285.75 1.93595 0.225196 0
M  V30 23394 H 2284.84 2.71495 1.53938 0
M  V30 23395 N 2285.14 -0.481893 1.50052 0
M  V30 23396 C 2286.07 -1.58948 1.71049 0
M  V30 23397 C 2287.05 -1.60641 0.559316 0
M  V30 23398 O 2288.24 -1.7708 0.797274 0
M  V30 23399 C 2285.37 -2.97336 1.79467 0
M  V30 23400 C 2284.32 -3.1051 2.94563 0
M  V30 23401 C 2283.65 -4.50439 2.88113 0
M  V30 23402 C 2284.95 -2.88739 4.35232 0
M  V30 23403 H 2286.64 -1.41631 2.63782 0
M  V30 23404 H 2284.19 -0.67992 1.26937 0
M  V30 23405 H 2286.14 -3.74738 1.92741 0
M  V30 23406 H 2284.87 -3.15786 0.833467 0
M  V30 23407 H 2283.52 -2.35538 2.80923 0
M  V30 23408 H 2283.17 -4.65791 1.89861 0
M  V30 23409 H 2282.87 -4.6019 3.65375 0
M  V30 23410 H 2284.4 -5.29875 3.03421 0
M  V30 23411 H 2285.81 -3.55898 4.49455 0
M  V30 23412 H 2284.21 -3.09946 5.13862 0
M  V30 23413 H 2285.28 -1.84688 4.48351 0
M  V30 23414 N 2286.62 -1.39448 -0.734313 0
M  V30 23415 C 2287.87 -1.36911 -1.4961 0
M  V30 23416 C 2288.2 0.0347488 -1.94169 0
M  V30 23417 O 2287.47 0.999818 -1.66835 0
M  V30 23418 C 2287.76 -2.34208 -2.7353 0
M  V30 23419 C 2287.61 -3.83538 -2.34986 0
M  V30 23420 C 2288.93 -2.29324 -3.75631 0
M  V30 23421 H 2286.05 -0.498638 -0.542705 0
M  V30 23422 H 2288.69 -1.70444 -0.839567 0
M  V30 23423 H 2286.84 -2.05742 -3.29549 0
M  V30 23424 H 2288.51 -4.22756 -1.84593 0
M  V30 23425 H 2286.76 -4.00281 -1.67206 0
M  V30 23426 H 2287.43 -4.47105 -3.2373 0
M  V30 23427 H 2289.9 -2.54495 -3.29198 0
M  V30 23428 H 2288.78 -2.9948 -4.60003 0
M  V30 23429 H 2289.04 -1.29849 -4.22601 0
M  V30 23430 N 2288.1 0.964571 -1.24635 0
M  V30 23431 C 2289.33 1.7403 -1.11342 0
M  V30 23432 C 2289.74 1.86182 0.336561 0
M  V30 23433 O 2289.08 1.3518 1.24386 0
M  V30 23434 C 2289.14 3.17678 -1.68289 0
M  V30 23435 C 2288.81 3.28987 -3.17201 0
M  V30 23436 C 2289.8 3.14071 -4.14313 0
M  V30 23437 C 2287.49 3.53127 -3.57221 0
M  V30 23438 C 2289.48 3.23125 -5.49426 0
M  V30 23439 C 2287.17 3.61819 -4.92474 0
M  V30 23440 C 2288.17 3.4683 -5.88386 0
M  V30 23441 O 2287.85 3.55185 -7.21179 0
M  V30 23442 H 2287.59 0.552465 -0.389561 0
M  V30 23443 H 2290.14 1.21944 -1.65284 0
M  V30 23444 H 2288.37 3.71084 -1.08784 0
M  V30 23445 H 2290.06 3.77071 -1.50241 0
M  V30 23446 H 2290.83 2.95302 -3.84736 0
M  V30 23447 H 2286.7 3.63858 -2.8307 0
M  V30 23448 H 2290.25 3.11344 -6.24268 0
M  V30 23449 H 2286.15 3.80102 -5.21721 0
M  V30 23450 H 2286.91 3.7188 -7.29142 0
M  V30 23451 N 2289.58 1.0606 1.16572 0
M  V30 23452 C 2290.51 0.613559 2.19797 0
M  V30 23453 C 2291.49 -0.362425 1.58509 0
M  V30 23454 O 2292.67 -0.271961 1.86528 0
M  V30 23455 C 2289.8 -0.100855 3.3855 0
M  V30 23456 C 2288.84 0.831512 4.18316 0
M  V30 23457 S 2289.68 2.32547 4.82371 0
M  V30 23458 C 2290.83 1.62248 6.04505 0
M  V30 23459 H 2291.07 1.4881 2.57377 0
M  V30 23460 H 2288.6 0.87336 1.27326 0
M  V30 23461 H 2290.56 -0.506827 4.07359 0
M  V30 23462 H 2289.22 -0.951551 2.9934 0
M  V30 23463 H 2288.41 0.278159 5.03232 0
M  V30 23464 H 2288.01 1.17725 3.54988 0
M  V30 23465 H 2290.31 0.92674 6.71132 0
M  V30 23466 H 2291.25 2.44945 6.64385 0
M  V30 23467 H 2291.66 1.10609 5.53557 0
M  V30 23468 N 2291.06 -1.33168 0.84285 0
M  V30 23469 C 2292.28 -2.02389 0.453164 0
M  V30 23470 C 2292.71 -1.62981 -0.939077 0
M  V30 23471 O 2292.06 -0.824429 -1.61471 0
M  V30 23472 C 2292.11 -3.55804 0.586156 0
M  V30 23473 O 2291.22 -4.1059 -0.385957 0
M  V30 23474 H 2290.56 -0.63809 0.183675 0
M  V30 23475 H 2293.09 -1.69979 1.13878 0
M  V30 23476 H 2293.1 -4.05292 0.46928 0
M  V30 23477 H 2291.77 -3.8383 1.60147 0
M  V30 23478 H 2290.35 -3.72213 -0.226305 0
M  V30 23479 N 2292.53 -0.599659 -1.45746 0
M  V30 23480 C 2293.78 -0.0893865 -2.01502 0
M  V30 23481 C 2294.1 1.28485 -1.47482 0
M  V30 23482 O 2295.3 1.88741 -1.95164 0
M  V30 23483 C 2293.76 -0.109145 -3.59734 0
M  V30 23484 C 2293.37 -1.48274 -4.22751 0
M  V30 23485 C 2295.11 0.346299 -4.23085 0
M  V30 23486 C 2293.02 -1.45931 -5.73113 0
M  V30 23487 H 2291.95 -0.029648 -0.753417 0
M  V30 23488 H 2294.6 -0.753818 -1.67302 0
M  V30 23489 H 2292.98 0.621785 -3.91088 0
M  V30 23490 H 2294.15 -2.23475 -4.02983 0
M  V30 23491 H 2292.47 -1.87962 -3.71563 0
M  V30 23492 H 2295.07 0.382886 -5.33327 0
M  V30 23493 H 2295.41 1.36736 -3.93203 0
M  V30 23494 H 2295.94 -0.331107 -3.9642 0
M  V30 23495 H 2292.68 -2.45773 -6.07681 0
M  V30 23496 H 2292.2 -0.749769 -5.95095 0
M  V30 23497 H 2293.88 -1.17952 -6.36157 0
M  V30 23498 N 2294.01 1.53925 -0.338371 0
M  V30 23499 C 2295.25 2.02738 0.260133 0
M  V30 23500 C 2295.62 1.22094 1.48179 0
M  V30 23501 O 2296.82 1.60781 2.15413 0
M  V30 23502 C 2295.09 3.528 0.571565 0
M  V30 23503 S 2296.65 4.23527 1.14762 0
M  V30 23504 H 2293.46 0.706733 0.0777786 0
M  V30 23505 H 2296.07 1.89643 -0.474932 0
M  V30 23506 H 2294.77 4.09107 -0.325464 0
M  V30 23507 H 2294.3 3.70004 1.33643 0
M  V30 23508 H 2296.32 4.32421 2.43364 0
M  V30 23509 N 2295.49 0.0668712 1.57458 0
M  V30 23510 C 2296.74 -0.60218 1.9292 0
M  V30 23511 C 2297.06 -1.70447 0.947245 0
M  V30 23512 O 2296.33 -1.95899 -0.00540674 0
M  V30 23513 H 2294.91 -0.225428 0.712174 0
M  V30 23514 H 2297.57 0.123569 1.94508 0
M  V30 23515 H 2296.67 -1.03067 2.9459 0
M  V30 23516 N 2296.97 -1.56239 -0.206647 0
M  V30 23517 C 2297.88 -1.96811 -1.27682 0
M  V30 23518 C 2298.89 -0.874062 -1.50453 0
M  V30 23519 O 2300.07 -1.17887 -1.63293 0
M  V30 23520 C 2297.13 -2.28946 -2.60354 0
M  V30 23521 C 2296.2 -3.51998 -2.45756 0
M  V30 23522 C 2295.43 -3.82591 -3.72102 0
M  V30 23523 O 2295.65 -3.1464 -4.75771 0
M  V30 23524 O 2294.59 -4.76049 -3.68321 0
M  V30 23525 H 2298.41 -2.88043 -0.962543 0
M  V30 23526 H 2296 -1.43643 -0.410721 0
M  V30 23527 H 2297.88 -2.50743 -3.38682 0
M  V30 23528 H 2296.55 -1.40885 -2.91433 0
M  V30 23529 H 2295.46 -3.35462 -1.65578 0
M  V30 23530 H 2296.79 -4.40489 -2.19613 0
M  V30 23531 N 2298.45 0.473929 -1.50305 0
M  V30 23532 C 2299.39 1.59304 -1.69485 0
M  V30 23533 C 2300.39 1.59852 -0.560697 0
M  V30 23534 O 2301.59 1.64035 -0.741116 0
M  V30 23535 H 2297.97 0.528569 -0.534901 0
M  V30 23536 H 2299.94 1.40288 -2.63366 0
M  V30 23537 C 2298.69 2.97264 -1.80359 0
M  V30 23538 H 2298.01 2.9756 -2.67017 0
M  V30 23539 H 2299.45 3.75032 -1.97805 0
M  V30 23540 C 2297.91 3.32305 -0.554538 0
M  V30 23541 O 2298.44 4.00521 0.307591 0
M  V30 23542 N 2296.65 2.87702 -0.409404 0
M  V30 23543 H 2296.19 2.32362 -1.112 0
M  V30 23544 H 2296.15 3.11512 0.425168 0
M  V30 23545 N 2299.92 1.39835 0.726907 0
M  V30 23546 C 2300.83 1.41492 1.87128 0
M  V30 23547 C 2301.85 0.308787 1.71238 0
M  V30 23548 O 2303.03 0.551563 1.937 0
M  V30 23549 C 2300.09 1.26473 3.22809 0
M  V30 23550 C 2299.15 2.4713 3.51034 0
M  V30 23551 C 2298.38 2.32818 4.80241 0
M  V30 23552 O 2298.61 1.33595 5.54534 0
M  V30 23553 O 2297.54 3.21966 5.08548 0
M  V30 23554 H 2301.37 2.37974 1.88686 0
M  V30 23555 H 2298.95 1.21037 0.875815 0
M  V30 23556 H 2300.83 1.20262 4.03875 0
M  V30 23557 H 2299.51 0.330919 3.22004 0
M  V30 23558 H 2298.42 2.58919 2.70022 0
M  V30 23559 H 2299.75 3.39233 3.56626 0
M  V30 23560 N 2301.4 -0.957948 1.25144 0
M  V30 23561 C 2302.35 -2.0754 1.05023 0
M  V30 23562 C 2303.34 -1.69391 -0.0178454 0
M  V30 23563 O 2304.55 -1.79474 0.137504 0
M  V30 23564 H 2300.92 -0.679259 0.322662 0
M  V30 23565 H 2302.9 -2.21669 1.99763 0
M  V30 23566 C 2301.64 -3.40943 0.682134 0
M  V30 23567 H 2300.97 -3.70764 1.4958 0
M  V30 23568 H 2302.41 -4.2 0.581019 0
M  V30 23569 C 2300.87 -3.31303 -0.61155 0
M  V30 23570 O 2301.4 -3.66041 -1.65459 0
M  V30 23571 N 2299.6 -2.84424 -0.595932 0
M  V30 23572 H 2299.15 -2.56352 0.253237 0
M  V30 23573 H 2299.11 -2.78356 -1.46168 0
M  V30 23574 N 2302.88 -1.06677 -1.16008 0
M  V30 23575 C 2304.12 -0.79507 -1.88303 0
M  V30 23576 C 2304.48 0.666434 -1.80063 0
M  V30 23577 O 2305.68 1.05289 -2.47321 0
M  V30 23578 C 2303.96 -1.28082 -3.33661 0
M  V30 23579 S 2305.51 -1.13876 -4.23766 0
M  V30 23580 H 2302.33 -0.288308 -0.649923 0
M  V30 23581 H 2304.93 -1.36448 -1.40008 0
M  V30 23582 H 2303.64 -2.33933 -3.37199 0
M  V30 23583 H 2303.17 -0.706321 -3.87007 0
M  V30 23584 H 2305.18 -0.0720541 -4.96148 0
M  V30 23585 N 2304.36 1.32719 -0.8499 0
M  V30 23586 C 2305.77 1.79706 -0.50622 0
M  V30 23587 C 2306.12 1.70225 0.975597 0
M  V30 23588 O 2305.24 1.25802 1.76076 0
M  V30 23589 C 2305.84 3.26292 -0.912101 0
M  V30 23590 C 2304.4 3.71252 -0.620392 0
M  V30 23591 C 2303.55 2.5392 -1.11444 0
M  V30 23592 H 2306.5 1.20085 -1.03756 0
M  V30 23593 H 2306.52 3.79825 -0.22656 0
M  V30 23594 H 2306.03 3.3316 -1.99063 0
M  V30 23595 H 2304.13 3.69902 0.447609 0
M  V30 23596 H 2304.24 4.64256 -1.18335 0
M  V30 23597 H 2302.61 2.4902 -0.534878 0
M  V30 23598 H 2303.39 2.63546 -2.19997 0
M  V30 23599 N 2305.84 0.60738 1.45426 0
M  V30 23600 C 2307.25 0.187567 1.85755 0
M  V30 23601 C 2307.6 -1.25548 1.50772 0
M  V30 23602 O 2306.72 -1.95191 0.934304 0
M  V30 23603 C 2307.32 0.333632 3.37153 0
M  V30 23604 C 2305.88 -0.031488 3.76387 0
M  V30 23605 C 2305.02 0.658164 2.69376 0
M  V30 23606 H 2307.98 0.814074 1.3623 0
M  V30 23607 H 2308 -0.434213 3.78014 0
M  V30 23608 H 2307.51 1.38399 3.62584 0
M  V30 23609 H 2305.61 -1.08104 3.56573 0
M  V30 23610 H 2305.72 0.362019 4.7773 0
M  V30 23611 H 2304.09 0.095832 2.5452 0
M  V30 23612 H 2304.87 1.71066 2.97643 0
M  V30 23613 N 2307.31 -1.53743 0.34653 0
M  V30 23614 C 2308.56 -2.00565 -0.248577 0
M  V30 23615 C 2308.88 -1.23596 -1.50828 0
M  V30 23616 O 2308.15 -0.343946 -1.92857 0
M  V30 23617 H 2306.73 -0.740955 -0.0948434 0
M  V30 23618 H 2309.4 -1.89188 0.468375 0
M  V30 23619 H 2308.49 -3.08246 -0.48894 0
M  V30 23620 N 2308.79 -0.0752207 -1.5742 0
M  V30 23621 C 2310.04 0.593991 -1.93906 0
M  V30 23622 C 2310.37 1.69055 -0.955731 0
M  V30 23623 O 2309.65 1.94495 0.0145031 0
M  V30 23624 C 2309.93 1.16774 -3.4064 0
M  V30 23625 C 2309.78 0.0776002 -4.49733 0
M  V30 23626 C 2311.1 2.07221 -3.88262 0
M  V30 23627 H 2308.22 0.214454 -0.705109 0
M  V30 23628 H 2310.86 -0.141887 -1.89469 0
M  V30 23629 H 2309.01 1.79488 -3.44552 0
M  V30 23630 H 2310.68 -0.555653 -4.57941 0
M  V30 23631 H 2308.93 -0.591361 -4.2975 0
M  V30 23632 H 2309.6 0.519507 -5.4955 0
M  V30 23633 H 2312.07 1.54438 -3.86378 0
M  V30 23634 H 2310.95 2.44299 -4.91537 0
M  V30 23635 H 2311.21 2.98185 -3.26402 0
M  V30 23636 N 2310.27 1.56347 0.198358 0
M  V30 23637 C 2311.52 1.80076 0.917439 0
M  V30 23638 C 2311.84 0.647725 1.83928 0
M  V30 23639 O 2311.11 -0.334132 1.93029 0
M  V30 23640 H 2309.69 0.664234 0.341762 0
M  V30 23641 H 2312.35 1.93823 0.20465 0
M  V30 23642 H 2311.45 2.73112 1.5105 0
M  V30 23643 N 2311.75 -0.465951 1.50554 0
M  V30 23644 C 2312.71 -1.54571 1.69235 0
M  V30 23645 C 2313.71 -1.50625 0.562928 0
M  V30 23646 O 2314.9 -1.53153 0.830042 0
M  V30 23647 C 2312.03 -2.9419 1.72235 0
M  V30 23648 H 2313.23 -1.39322 2.65574 0
M  V30 23649 H 2310.78 -0.692687 1.40113 0
M  V30 23650 H 2311.51 -3.14877 0.776085 0
M  V30 23651 H 2311.3 -2.98461 2.5429 0
M  V30 23652 H 2312.79 -3.72573 1.88625 0
M  V30 23653 N 2313.23 -1.40218 -0.719481 0
M  V30 23654 C 2314.47 -1.39732 -1.49179 0
M  V30 23655 C 2314.83 0.00247239 -1.92 0
M  V30 23656 O 2316.03 0.132432 -2.68474 0
M  V30 23657 C 2314.3 -2.35587 -2.68763 0
M  V30 23658 S 2315.86 -2.53425 -3.5822 0
M  V30 23659 H 2312.68 -0.495316 -0.510082 0
M  V30 23660 H 2315.28 -1.76453 -0.841693 0
M  V30 23661 H 2313.99 -3.36128 -2.35469 0
M  V30 23662 H 2313.52 -2.00136 -3.38688 0
M  V30 23663 H 2315.53 -1.78375 -4.6303 0
M  V30 23664 N 2314.7 0.951297 -1.25651 0
M  V30 23665 C 2315.95 1.69631 -1.10597 0
M  V30 23666 C 2316.28 1.91279 0.352482 0
M  V30 23667 O 2315.53 1.48382 1.27598 0
M  V30 23668 C 2315.83 3.08228 -1.80915 0
M  V30 23669 C 2315.5 3.06369 -3.30831 0
M  V30 23670 C 2314.16 3.05569 -3.71727 0
M  V30 23671 C 2316.51 2.99444 -4.26594 0
M  V30 23672 C 2313.84 2.95597 -5.06793 0
M  V30 23673 C 2316.19 2.91014 -5.61688 0
M  V30 23674 C 2314.86 2.88552 -6.01909 0
M  V30 23675 H 2314.13 0.620723 -0.404702 0
M  V30 23676 H 2316.77 1.11117 -1.55966 0
M  V30 23677 H 2315.08 3.70306 -1.27986 0
M  V30 23678 H 2316.78 3.64701 -1.66716 0
M  V30 23679 H 2313.37 3.07766 -2.98292 0
M  V30 23680 H 2317.55 2.99178 -3.95987 0
M  V30 23681 H 2312.81 2.92062 -5.37131 0
M  V30 23682 H 2316.98 2.84618 -6.35583 0
M  V30 23683 H 2314.61 2.80581 -7.06526 0
M  V30 23684 N 2316.18 1.07291 1.1544 0
M  V30 23685 C 2317.43 0.794129 1.85844 0
M  V30 23686 C 2317.75 -0.681776 1.82693 0
M  V30 23687 O 2317.02 -1.49375 1.26744 0
M  V30 23688 H 2315.6 0.290775 0.688083 0
M  V30 23689 H 2318.26 1.35652 1.39945 0
M  V30 23690 H 2317.36 1.12809 2.90999 0
M  V30 23691 N 2317.66 -1.32267 0.856927 0
M  V30 23692 C 2318.59 -2.27715 0.260452 0
M  V30 23693 C 2319.61 -1.52529 -0.56911 0
M  V30 23694 O 2320.79 -1.74115 -0.39323 0
M  V30 23695 C 2317.89 -3.326 -0.650419 0
M  V30 23696 C 2317.07 -4.37164 0.143797 0
M  V30 23697 C 2316.13 -5.21614 -0.693188 0
M  V30 23698 O 2315.15 -5.69061 -0.12589 0
M  V30 23699 N 2316.35 -5.44682 -2.00752 0
M  V30 23700 H 2319.12 -2.7954 1.08063 0
M  V30 23701 H 2316.68 -1.45151 0.717129 0
M  V30 23702 H 2318.67 -3.86007 -1.21574 0
M  V30 23703 H 2317.24 -2.80917 -1.37128 0
M  V30 23704 H 2316.46 -3.84009 0.890553 0
M  V30 23705 H 2317.75 -5.0411 0.689238 0
M  V30 23706 H 2317.15 -5.07868 -2.49172 0
M  V30 23707 H 2315.71 -6.01076 -2.52092 0
M  V30 23708 N 2319.14 -0.615084 -1.45102 0
M  V30 23709 C 2320.37 -0.119806 -2.06553 0
M  V30 23710 C 2320.78 1.19896 -1.45844 0
M  V30 23711 O 2320.14 1.73193 -0.575355 0
M  V30 23712 C 2320.19 0.0183005 -3.61495 0
M  V30 23713 O 2319.91 -1.2483 -4.19939 0
M  V30 23714 C 2321.41 0.54416 -4.39947 0
M  V30 23715 H 2318.63 -0.0722856 -0.667095 0
M  V30 23716 H 2321.18 -0.844942 -1.86228 0
M  V30 23717 H 2319.33 0.693798 -3.81137 0
M  V30 23718 H 2319.74 -1.08279 -5.13202 0
M  V30 23719 H 2321.22 0.589856 -5.48839 0
M  V30 23720 H 2321.7 1.56798 -4.10257 0
M  V30 23721 H 2322.3 -0.0975451 -4.25188 0
M  V30 23722 N 2320.62 1.53557 -0.354678 0
M  V30 23723 C 2322.03 1.596 -0.00318231 0
M  V30 23724 C 2322.23 1.37024 1.47738 0
M  V30 23725 O 2321.29 1.17 2.23757 0
M  V30 23726 C 2322.6 2.97324 -0.449342 0
M  V30 23727 C 2324.15 3.104 -0.402632 0
M  V30 23728 C 2324.63 4.50519 -0.824434 0
M  V30 23729 N 2326.12 4.56601 -0.779059 0
M  V30 23730 C 2326.85 5.6319 -1.07725 0
M  V30 23731 N 2326.35 6.77581 -1.44417 0
M  V30 23732 N 2328.14 5.5312 -1.00076 0
M  V30 23733 H 2320.29 1.66485 -1.31896 0
M  V30 23734 H 2322.55 0.780274 -0.538402 0
M  V30 23735 H 2322.26 3.18947 -1.48208 0
M  V30 23736 H 2322.13 3.76818 0.169706 0
M  V30 23737 H 2324.52 2.88493 0.620954 0
M  V30 23738 H 2324.6 2.32939 -1.05703 0
M  V30 23739 H 2324.25 4.73162 -1.84608 0
M  V30 23740 H 2324.18 5.26394 -0.147397 0
M  V30 23741 H 2326.67 3.74462 -0.508594 0
M  V30 23742 H 2326.98 7.54843 -1.65625 0
M  V30 23743 H 2325.33 6.78999 -1.48272 0
M  V30 23744 H 2328.52 4.62632 -0.713374 0
M  V30 23745 H 2328.69 6.36093 -1.23649 0
M  V30 23746 N 2322.1 0.083568 1.57378 0
M  V30 23747 C 2323.34 -0.582464 1.93107 0
M  V30 23748 C 2323.66 -1.70051 0.96654 0
M  V30 23749 O 2324.86 -2.42691 1.2171 0
M  V30 23750 C 2323.32 -1.08745 3.43078 0
M  V30 23751 C 2322.93 0.000225151 4.48 0
M  V30 23752 C 2324.67 -1.72687 3.87788 0
M  V30 23753 C 2322.58 -0.519464 5.89114 0
M  V30 23754 H 2321.51 -0.221345 0.720779 0
M  V30 23755 H 2324.16 0.157707 1.82821 0
M  V30 23756 H 2322.54 -1.88095 3.48477 0
M  V30 23757 H 2323.72 0.775279 4.54231 0
M  V30 23758 H 2322.03 0.544133 4.12829 0
M  V30 23759 H 2324.63 -2.12621 4.90608 0
M  V30 23760 H 2324.97 -2.59152 3.258 0
M  V30 23761 H 2325.5 -0.999389 3.85042 0
M  V30 23762 H 2322.24 0.308301 6.54775 0
M  V30 23763 H 2321.76 -1.26178 5.86378 0
M  V30 23764 H 2323.44 -0.992125 6.39348 0
M  V30 23765 N 2323.57 -1.5645 -0.190064 0
M  V30 23766 C 2324.8 -1.85389 -0.929831 0
M  V30 23767 C 2325.22 -0.667735 -1.75849 0
M  V30 23768 O 2324.58 0.383428 -1.77199 0
M  V30 23769 C 2324.63 -3.12596 -1.79767 0
M  V30 23770 O 2323.73 -2.93502 -2.89708 0
M  V30 23771 H 2323.07 -0.610312 -0.261563 0
M  V30 23772 H 2325.6 -2.0368 -0.193861 0
M  V30 23773 H 2325.61 -3.43519 -2.20133 0
M  V30 23774 H 2324.29 -3.98546 -1.18885 0
M  V30 23775 H 2322.87 -2.73888 -2.5306 0
M  V30 23776 N 2325.05 0.45796 -1.50799 0
M  V30 23777 C 2326.3 1.21085 -1.62685 0
M  V30 23778 C 2326.63 1.91336 -0.332301 0
M  V30 23779 O 2325.91 1.82705 0.667011 0
M  V30 23780 C 2326.19 2.24417 -2.81619 0
M  V30 23781 C 2326.04 1.58384 -4.20992 0
M  V30 23782 C 2327.36 3.25605 -2.9609 0
M  V30 23783 H 2324.48 0.438853 -0.592095 0
M  V30 23784 H 2327.12 0.502828 -1.83226 0
M  V30 23785 H 2325.27 2.84801 -2.64236 0
M  V30 23786 H 2326.94 1.01496 -4.49996 0
M  V30 23787 H 2325.19 0.886629 -4.24643 0
M  V30 23788 H 2325.86 2.33538 -5.00164 0
M  V30 23789 H 2328.33 2.75256 -3.12047 0
M  V30 23790 H 2327.21 3.95221 -3.80909 0
M  V30 23791 H 2327.47 3.90503 -2.07267 0
M  V30 23792 N 2326.53 1.40598 0.712035 0
M  V30 23793 C 2327.78 1.38793 1.46904 0
M  V30 23794 C 2328.1 -0.00776963 1.94998 0
M  V30 23795 O 2327.37 -0.963144 1.70588 0
M  V30 23796 H 2325.95 0.51083 0.545034 0
M  V30 23797 H 2328.61 1.75685 0.843851 0
M  V30 23798 H 2327.71 2.06501 2.34017 0
M  V30 23799 N 2328.01 -0.94462 1.26153 0
M  V30 23800 C 2328.95 -2.04283 1.07411 0
M  V30 23801 C 2329.92 -1.66088 -0.0198121 0
M  V30 23802 O 2331.11 -1.90291 0.139297 0
M  V30 23803 C 2328.25 -3.37728 0.709509 0
M  V30 23804 C 2327.36 -3.8898 1.87933 0
M  V30 23805 C 2326.5 -5.10795 1.45816 0
M  V30 23806 C 2325.54 -5.543 2.59649 0
M  V30 23807 N 2324.67 -6.67321 2.18238 0
M  V30 23808 H 2329.51 -2.19647 2.01393 0
M  V30 23809 H 2327.05 -1.07624 1.00277 0
M  V30 23810 H 2329.01 -4.14441 0.479021 0
M  V30 23811 H 2327.64 -3.22221 -0.193332 0
M  V30 23812 H 2326.69 -3.08697 2.22285 0
M  V30 23813 H 2328 -4.17208 2.73384 0
M  V30 23814 H 2327.16 -5.94957 1.18791 0
M  V30 23815 H 2325.9 -4.84304 0.5745 0
M  V30 23816 H 2324.9 -4.68697 2.87407 0
M  V30 23817 H 2326.13 -5.82794 3.48609 0
M  V30 23818 H 2324.07 -6.4252 1.32301 0
M  V30 23819 H 2323.99 -6.95118 2.97233 0
M  V30 23820 H 2325.26 -7.54866 1.94416 0
M  V30 23821 N 2329.49 -1.07901 -1.1487 0
M  V30 23822 C 2330.45 -0.708199 -2.17984 0
M  V30 23823 C 2331.45 0.254393 -1.58775 0
M  V30 23824 O 2332.64 0.0346144 -1.74166 0
M  V30 23825 C 2329.77 -0.0447528 -3.40871 0
M  V30 23826 H 2330.96 -1.6212 -2.52303 0
M  V30 23827 H 2328.52 -0.876241 -1.29428 0
M  V30 23828 H 2329.25 0.880227 -3.12126 0
M  V30 23829 H 2329.04 -0.737159 -3.85108 0
M  V30 23830 H 2330.53 0.199836 -4.17122 0
M  V30 23831 N 2330.96 1.31811 -0.863929 0
M  V30 23832 C 2331.91 2.30601 -0.304261 0
M  V30 23833 C 2332.91 1.59256 0.577391 0
M  V30 23834 O 2334.11 1.73912 0.464163 0
M  V30 23835 H 2330.49 0.747765 -0.0797008 0
M  V30 23836 H 2332.46 2.75286 -1.15153 0
M  V30 23837 C 2331.21 3.44307 0.484556 0
M  V30 23838 H 2330.53 3.99374 -0.18458 0
M  V30 23839 H 2331.97 4.15564 0.841591 0
M  V30 23840 C 2330.43 2.92399 1.67345 0
M  V30 23841 O 2330.96 2.90664 2.77268 0
M  V30 23842 N 2329.16 2.48678 1.50358 0
M  V30 23843 H 2328.71 2.50289 0.609358 0
M  V30 23844 H 2328.67 2.14303 2.30047 0
M  V30 23845 N 2332.44 0.62277 1.44773 0
M  V30 23846 C 2333.39 -0.0871274 2.30635 0
M  V30 23847 C 2334.36 -0.845072 1.42996 0
M  V30 23848 O 2335.54 -0.827782 1.71908 0
M  V30 23849 C 2332.68 -1.06839 3.28146 0
M  V30 23850 C 2331.8 -0.309733 4.30888 0
M  V30 23851 C 2330.93 -1.28206 5.15496 0
M  V30 23852 C 2329.97 -0.51209 6.09954 0
M  V30 23853 N 2329.11 -1.43446 6.8729 0
M  V30 23854 H 2333.95 0.651025 2.90802 0
M  V30 23855 H 2331.48 0.332835 1.43285 0
M  V30 23856 H 2333.44 -1.65059 3.8316 0
M  V30 23857 H 2332.07 -1.77377 2.69699 0
M  V30 23858 H 2331.12 0.388247 3.78414 0
M  V30 23859 H 2332.44 0.290341 4.97954 0
M  V30 23860 H 2331.59 -1.93586 5.74986 0
M  V30 23861 H 2330.33 -1.91607 4.48484 0
M  V30 23862 H 2329.33 0.155248 5.49581 0
M  V30 23863 H 2330.56 0.117077 6.78999 0
M  V30 23864 H 2328.51 -2.05583 6.22954 0
M  V30 23865 H 2328.42 -0.888203 7.50764 0
M  V30 23866 H 2329.69 -2.07736 7.51309 0
M  V30 23867 N 2333.92 -1.53367 0.362817 0
M  V30 23868 C 2335.34 -1.59596 0.0116462 0
M  V30 23869 C 2335.54 -1.37806 -1.4701 0
M  V30 23870 O 2334.59 -1.18185 -2.23133 0
M  V30 23871 C 2335.9 -2.97081 0.465104 0
M  V30 23872 C 2337.45 -3.10182 0.419088 0
M  V30 23873 C 2337.93 -4.50075 0.848314 0
M  V30 23874 N 2339.42 -4.56182 0.803263 0
M  V30 23875 C 2340.15 -5.62611 1.1071 0
M  V30 23876 N 2339.65 -6.76805 1.48008 0
M  V30 23877 N 2341.44 -5.52581 1.03008 0
M  V30 23878 H 2333.59 -1.65783 1.32777 0
M  V30 23879 H 2335.86 -0.777408 0.542532 0
M  V30 23880 H 2335.56 -3.18157 1.49897 0
M  V30 23881 H 2335.44 -3.76903 -0.14972 0
M  V30 23882 H 2337.82 -2.88818 -0.605646 0
M  V30 23883 H 2337.9 -2.32375 1.06937 0
M  V30 23884 H 2337.55 -4.72176 1.87115 0
M  V30 23885 H 2337.48 -5.26308 0.175311 0
M  V30 23886 H 2339.97 -3.74187 0.528446 0
M  V30 23887 H 2340.28 -7.53954 1.69626 0
M  V30 23888 H 2338.63 -6.78204 1.51871 0
M  V30 23889 H 2341.82 -4.62247 0.737898 0
M  V30 23890 H 2341.99 -6.35429 1.27021 0
M  V30 23891 N 2335.4 -0.091913 -1.57332 0
M  V30 23892 C 2336.33 0.865333 -2.16874 0
M  V30 23893 C 2337.31 1.29644 -1.1012 0
M  V30 23894 O 2338.49 1.3639 -1.38244 0
M  V30 23895 C 2335.62 2.12564 -2.74652 0
M  V30 23896 C 2334.58 1.83326 -3.8675 0
M  V30 23897 C 2333.9 3.16158 -4.31217 0
M  V30 23898 C 2335.2 1.12271 -5.10091 0
M  V30 23899 H 2336.9 0.369255 -2.97114 0
M  V30 23900 H 2334.44 0.176168 -1.42918 0
M  V30 23901 H 2336.4 2.79964 -3.14957 0
M  V30 23902 H 2335.12 2.64449 -1.91662 0
M  V30 23903 H 2333.78 1.18325 -3.4698 0
M  V30 23904 H 2333.43 3.65924 -3.45121 0
M  V30 23905 H 2333.13 2.97379 -5.06793 0
M  V30 23906 H 2334.65 3.84722 -4.74153 0
M  V30 23907 H 2336.07 1.69776 -5.47585 0
M  V30 23908 H 2334.46 1.03682 -5.91075 0
M  V30 23909 H 2335.53 0.104956 -4.84786 0
M  V30 23910 N 2336.88 1.56548 0.181765 0
M  V30 23911 C 2338.29 1.50432 0.533133 0
M  V30 23912 C 2338.49 0.79433 1.85183 0
M  V30 23913 O 2337.55 0.350361 2.50057 0
M  V30 23914 C 2338.86 2.95141 0.575545 0
M  V30 23915 C 2340.41 3.05887 0.663466 0
M  V30 23916 C 2340.88 4.52033 0.736866 0
M  V30 23917 N 2342.38 4.56239 0.800037 0
M  V30 23918 C 2343.11 5.6665 0.877227 0
M  V30 23919 N 2342.61 6.86719 0.915895 0
M  V30 23920 N 2344.4 5.54595 0.915444 0
M  V30 23921 H 2336.55 2.01117 -0.68306 0
M  V30 23922 H 2338.81 0.915793 -0.245004 0
M  V30 23923 H 2338.52 3.50199 -0.324543 0
M  V30 23924 H 2338.39 3.4922 1.42566 0
M  V30 23925 H 2340.78 2.50869 1.55398 0
M  V30 23926 H 2340.86 2.54911 -0.213115 0
M  V30 23927 H 2340.51 5.0768 -0.149351 0
M  V30 23928 H 2340.44 5.00756 1.62944 0
M  V30 23929 H 2342.93 3.69787 0.778861 0
M  V30 23930 H 2343.24 7.66616 0.975678 0
M  V30 23931 H 2341.58 6.89351 0.884348 0
M  V30 23932 H 2344.78 4.59712 0.882164 0
M  V30 23933 H 2344.95 6.40666 0.97214 0
M  V30 23934 N 2338.35 -0.449957 1.5104 0
M  V30 23935 C 2339.58 -1.2214 1.6663 0
M  V30 23936 C 2339.99 -1.85786 0.357809 0
M  V30 23937 O 2339.34 -1.70952 -0.672394 0
M  V30 23938 C 2339.4 -2.35568 2.71566 0
M  V30 23939 C 2339.06 -1.92391 4.14529 0
M  V30 23940 C 2340.06 -1.43444 4.9972 0
M  V30 23941 C 2337.74 -2.00467 4.60563 0
M  V30 23942 C 2339.74 -1.03144 6.28999 0
M  V30 23943 C 2337.42 -1.59778 5.89843 0
M  V30 23944 C 2338.42 -1.11196 6.73887 0
M  V30 23945 O 2338.11 -0.710794 8.00751 0
M  V30 23946 H 2337.84 -0.374714 0.562642 0
M  V30 23947 H 2340.4 -0.541001 1.98147 0
M  V30 23948 H 2338.63 -3.06845 2.35336 0
M  V30 23949 H 2340.32 -2.97473 2.76161 0
M  V30 23950 H 2341.08 -1.3661 4.65363 0
M  V30 23951 H 2336.96 -2.37228 3.95277 0
M  V30 23952 H 2340.5 -0.651541 6.94551 0
M  V30 23953 H 2336.4 -1.66278 6.23716 0
M  V30 23954 H 2337.17 -0.83777 8.14201 0
M  V30 23955 N 2339.83 -1.40974 -0.704569 0
M  V30 23956 C 2341.08 -1.40054 -1.46672 0
M  V30 23957 C 2341.41 -0.00644516 -1.94199 0
M  V30 23958 O 2340.69 0.964205 -1.68918 0
M  V30 23959 C 2340.97 -2.39957 -2.68501 0
M  V30 23960 C 2340.82 -3.88436 -2.26798 0
M  V30 23961 C 2342.14 -2.3724 -3.70682 0
M  V30 23962 H 2339.26 -0.510038 -0.532006 0
M  V30 23963 H 2341.9 -1.72187 -0.803225 0
M  V30 23964 H 2340.05 -2.12686 -3.25111 0
M  V30 23965 H 2341.72 -4.26577 -1.75585 0
M  V30 23966 H 2339.97 -4.03737 -1.58678 0
M  V30 23967 H 2340.64 -4.53871 -3.14173 0
M  V30 23968 H 2343.11 -2.6142 -3.23726 0
M  V30 23969 H 2341.99 -3.0917 -4.53547 0
M  V30 23970 H 2342.25 -1.38784 -4.19752 0
M  V30 23971 N 2341.31 0.937917 -1.26653 0
M  V30 23972 C 2342.59 1.66202 -1.03132 0
M  V30 23973 C 2342.97 2.06523 0.437219 0
M  V30 23974 O 2342.32 1.79156 1.41828 0
M  V30 23975 C 2342.53 2.87177 -1.98319 0
M  V30 23976 C 2343.87 3.58754 -2.27113 0
M  V30 23977 O 2344.9 2.97287 -1.96211 0
M  V30 23978 O 2343.76 4.69474 -2.79744 0
M  V30 23979 H 2340.85 0.727979 -0.392396 0
M  V30 23980 H 2343.4 0.989358 -1.37876 0
M  V30 23981 H 2342.17 2.54296 -2.97404 0
M  V30 23982 H 2341.79 3.62167 -1.64075 0
M  V30 23983 N 2342.79 1.08509 1.14296 0
M  V30 23984 C 2343.72 0.673897 2.19069 0
M  V30 23985 C 2344.73 -0.279549 1.60382 0
M  V30 23986 O 2345.92 -0.067044 1.78374 0
M  V30 23987 C 2343.02 -0.0290383 3.38888 0
M  V30 23988 C 2342.2 0.943569 4.27101 0
M  V30 23989 C 2341.25 0.275768 5.25477 0
M  V30 23990 O 2340.28 0.9205 5.61708 0
M  V30 23991 N 2341.48 -0.973913 5.72272 0
M  V30 23992 H 2344.25 1.57525 2.54963 0
M  V30 23993 H 2341.81 0.97131 1.29527 0
M  V30 23994 H 2343.8 -0.486759 4.01762 0
M  V30 23995 H 2342.37 -0.832502 3.01311 0
M  V30 23996 H 2341.59 1.5801 3.61146 0
M  V30 23997 H 2342.88 1.6026 4.82902 0
M  V30 23998 H 2342.28 -1.51745 5.44968 0
M  V30 23999 H 2340.83 -1.37511 6.37129 0
M  V30 24000 N 2344.27 -1.31351 0.870907 0
M  V30 24001 C 2345.51 -1.96964 0.483022 0
M  V30 24002 C 2345.85 -1.68674 -0.962433 0
M  V30 24003 O 2345.12 -0.983739 -1.67788 0
M  V30 24004 C 2345.4 -3.52376 0.741814 0
M  V30 24005 C 2345.26 -3.90236 2.23687 0
M  V30 24006 C 2346.58 -4.39604 0.208915 0
M  V30 24007 H 2343.69 -0.715438 0.176967 0
M  V30 24008 H 2346.34 -1.55462 1.09232 0
M  V30 24009 H 2344.49 -3.87858 0.223217 0
M  V30 24010 H 2346.16 -3.64851 2.82279 0
M  V30 24011 H 2344.4 -3.38809 2.70907 0
M  V30 24012 H 2345.07 -4.986 2.36859 0
M  V30 24013 H 2347.55 -4.10951 0.652601 0
M  V30 24014 H 2346.42 -5.47295 0.419432 0
M  V30 24015 H 2346.69 -4.33065 -0.889199 0
M  V30 24016 N 2345.74 -0.630439 -1.44441 0
M  V30 24017 C 2346.67 0.0617672 -2.33418 0
M  V30 24018 C 2347.66 0.835515 -1.48166 0
M  V30 24019 O 2348.84 0.801533 -1.76887 0
M  V30 24020 C 2345.97 1.04443 -3.31223 0
M  V30 24021 C 2344.92 0.382361 -4.26289 0
M  V30 24022 C 2344.25 1.47488 -5.13957 0
M  V30 24023 C 2345.55 -0.710956 -5.17439 0
M  V30 24024 H 2347.24 -0.681236 -2.91547 0
M  V30 24025 H 2344.79 -0.329051 -1.4019 0
M  V30 24026 H 2346.74 1.53742 -3.92354 0
M  V30 24027 H 2345.47 1.81831 -2.71302 0
M  V30 24028 H 2344.13 -0.0899698 -3.6649 0
M  V30 24029 H 2343.77 2.23962 -4.50389 0
M  V30 24030 H 2343.47 1.03727 -5.78372 0
M  V30 24031 H 2345 1.96968 -5.77958 0
M  V30 24032 H 2346.41 -0.301097 -5.72509 0
M  V30 24033 H 2344.81 -1.07166 -5.90454 0
M  V30 24034 H 2345.88 -1.57837 -4.58493 0
M  V30 24035 N 2347.22 1.53172 -0.370945 0
M  V30 24036 C 2348.15 2.23504 0.507783 0
M  V30 24037 C 2349.17 1.25102 1.0418 0
M  V30 24038 O 2350.36 1.51292 0.947259 0
M  V30 24039 C 2347.46 2.92337 1.71442 0
M  V30 24040 C 2346.63 4.17291 1.31098 0
M  V30 24041 C 2345.69 4.69286 2.38027 0
M  V30 24042 O 2344.71 5.32833 2.00195 0
M  V30 24043 N 2345.92 4.47561 3.69689 0
M  V30 24044 H 2348.68 2.9955 -0.0946908 0
M  V30 24045 H 2346.24 1.60704 -0.196386 0
M  V30 24046 H 2348.23 3.24027 2.42463 0
M  V30 24047 H 2346.8 2.19711 2.22364 0
M  V30 24048 H 2346.02 3.91843 0.430393 0
M  V30 24049 H 2347.31 4.98516 1.01781 0
M  V30 24050 H 2346.71 3.96797 4.03198 0
M  V30 24051 H 2345.27 4.83788 4.36798 0
M  V30 24052 N 2348.7 0.100255 1.57281 0
M  V30 24053 C 2349.63 -0.853819 2.1733 0
M  V30 24054 C 2350.61 -1.29058 1.10806 0
M  V30 24055 O 2351.8 -1.35655 1.38966 0
M  V30 24056 C 2348.93 -2.11104 2.75776 0
M  V30 24057 C 2347.88 -1.81273 3.87717 0
M  V30 24058 C 2347.21 -3.13867 4.32888 0
M  V30 24059 C 2348.51 -1.09565 5.10679 0
M  V30 24060 H 2350.2 -0.353493 2.97306 0
M  V30 24061 H 2347.75 -0.168587 1.4301 0
M  V30 24062 H 2349.7 -2.7829 3.16437 0
M  V30 24063 H 2348.42 -2.63429 1.93061 0
M  V30 24064 H 2347.08 -1.16483 3.47602 0
M  V30 24065 H 2346.73 -3.64089 3.47057 0
M  V30 24066 H 2346.43 -2.94687 5.08363 0
M  V30 24067 H 2347.95 -3.82202 4.76187 0
M  V30 24068 H 2349.37 -1.66869 5.48477 0
M  V30 24069 H 2347.77 -1.00546 5.91617 0
M  V30 24070 H 2348.84 -0.0792447 4.84835 0
M  V30 24071 N 2350.18 -1.56643 -0.17346 0
M  V30 24072 C 2351.43 -1.82142 -0.891752 0
M  V30 24073 C 2351.76 -0.677768 -1.81989 0
M  V30 24074 O 2351.03 0.320412 -1.91843 0
M  V30 24075 C 2351.32 -3.18018 -1.68928 0
M  V30 24076 C 2351.17 -4.42908 -0.784409 0
M  V30 24077 C 2352.49 -3.50812 -2.65742 0
M  V30 24078 H 2349.61 -0.662572 -0.322749 0
M  V30 24079 H 2352.25 -1.89341 -0.158062 0
M  V30 24080 H 2350.4 -3.12011 -2.31476 0
M  V30 24081 H 2352.07 -4.60979 -0.171965 0
M  V30 24082 H 2350.31 -4.33702 -0.0923355 0
M  V30 24083 H 2350.99 -5.34526 -1.3779 0
M  V30 24084 H 2353.46 -3.57259 -2.1332 0
M  V30 24085 H 2352.34 -4.46965 -3.18612 0
M  V30 24086 H 2352.6 -2.75407 -3.45838 0
M  V30 24087 N 2351.66 0.44194 -1.51277 0
M  V30 24088 C 2352.89 1.21255 -1.67275 0
M  V30 24089 C 2353.3 1.85593 -0.367656 0
M  V30 24090 O 2352.64 1.71306 0.663318 0
M  V30 24091 C 2352.7 2.34124 -2.72811 0
M  V30 24092 C 2352.36 1.9019 -4.15544 0
M  V30 24093 C 2353.36 1.40792 -5.00473 0
M  V30 24094 C 2351.05 1.98022 -4.61619 0
M  V30 24095 C 2353.04 0.998063 -6.29537 0
M  V30 24096 C 2350.73 1.56647 -5.90682 0
M  V30 24097 C 2351.73 1.07621 -6.74468 0
M  V30 24098 O 2351.41 0.668318 -8.01117 0
M  V30 24099 H 2351.15 0.371725 -0.564621 0
M  V30 24100 H 2353.7 0.530486 -1.98431 0
M  V30 24101 H 2351.93 3.05593 -2.3696 0
M  V30 24102 H 2353.62 2.96004 -2.77734 0
M  V30 24103 H 2354.38 1.3414 -4.66081 0
M  V30 24104 H 2350.26 2.35128 -3.9653 0
M  V30 24105 H 2353.81 0.614698 -6.94886 0
M  V30 24106 H 2349.7 1.62968 -6.24589 0
M  V30 24107 H 2350.47 0.794579 -8.14634 0
M  V30 24108 N 2353.14 1.41345 0.697083 0
M  V30 24109 C 2354.08 1.43074 1.81103 0
M  V30 24110 C 2355.05 0.285303 1.63631 0
M  V30 24111 O 2356.24 0.486124 1.84503 0
M  V30 24112 C 2353.38 1.31721 3.18973 0
M  V30 24113 C 2352.49 2.56121 3.47888 0
M  V30 24114 C 2351.63 2.37072 4.75363 0
M  V30 24115 C 2350.66 3.56957 4.97241 0
M  V30 24116 N 2349.8 3.36988 6.15941 0
M  V30 24117 H 2354.64 2.3828 1.7896 0
M  V30 24118 H 2352.18 1.18324 0.873954 0
M  V30 24119 H 2354.14 1.2314 3.98613 0
M  V30 24120 H 2352.77 0.40124 3.20297 0
M  V30 24121 H 2351.82 2.75157 2.62665 0
M  V30 24122 H 2353.13 3.45301 3.59956 0
M  V30 24123 H 2352.28 2.25951 5.63055 0
M  V30 24124 H 2351.02 1.45346 4.65538 0
M  V30 24125 H 2350.03 3.68535 4.07998 0
M  V30 24126 H 2351.25 4.49634 5.08926 0
M  V30 24127 H 2349.2 2.4796 6.07332 0
M  V30 24128 H 2349.12 4.19743 6.2877 0
M  V30 24129 H 2350.38 3.29636 7.06371 0
M  V30 24130 N 2354.61 -0.931187 1.27148 0
M  V30 24131 C 2355.89 -1.65653 1.04012 0
M  V30 24132 C 2356.27 -2.06752 -0.426261 0
M  V30 24133 O 2355.62 -1.79906 -1.40876 0
M  V30 24134 C 2355.83 -2.86121 1.99839 0
M  V30 24135 C 2357.18 -3.57545 2.29013 0
M  V30 24136 O 2358.2 -2.96243 1.97784 0
M  V30 24137 O 2357.06 -4.67984 2.8223 0
M  V30 24138 H 2354.15 -0.725888 0.396252 0
M  V30 24139 H 2356.7 -0.982032 1.38399 0
M  V30 24140 H 2355.47 -2.52716 2.98748 0
M  V30 24141 H 2355.09 -3.61292 1.65993 0
M  V30 24142 N 2356.09 -1.09114 -1.13719 0
M  V30 24143 C 2357.34 -0.823594 -1.84557 0
M  V30 24144 C 2357.66 0.652625 -1.83755 0
M  V30 24145 O 2356.93 1.47339 -1.29104 0
M  V30 24146 H 2355.51 -0.301685 -0.68337 0
M  V30 24147 H 2358.17 -1.37861 -1.37769 0
M  V30 24148 H 2357.27 -1.17425 -2.89168 0
M  V30 24149 N 2357.57 1.30887 -0.877861 0
M  V30 24150 C 2358.79 2.01116 -0.506665 0
M  V30 24151 C 2359.22 1.65414 0.895535 0
M  V30 24152 O 2358.58 0.86695 1.59228 0
M  V30 24153 C 2358.63 3.54125 -0.680285 0
M  V30 24154 O 2357.73 4.11469 0.276961 0
M  V30 24155 H 2357.07 0.632996 -0.200529 0
M  V30 24156 H 2359.6 1.669 -1.18345 0
M  V30 24157 H 2359.61 4.03906 -0.576571 0
M  V30 24158 H 2358.29 3.79449 -1.70267 0
M  V30 24159 H 2356.86 3.72682 0.12754 0
M  V30 24160 N 2359.05 0.638091 1.44105 0
M  V30 24161 C 2360.46 0.226927 1.85316 0
M  V30 24162 C 2360.81 -1.22322 1.53401 0
M  V30 24163 O 2359.93 -1.93166 0.975497 0
M  V30 24164 C 2360.53 0.405072 3.3637 0
M  V30 24165 C 2359.09 0.0483563 3.76369 0
M  V30 24166 C 2358.24 0.715155 2.67919 0
M  V30 24167 H 2361.19 0.842787 1.34472 0
M  V30 24168 H 2361.21 -0.353933 3.7885 0
M  V30 24169 H 2360.72 1.46059 3.59567 0
M  V30 24170 H 2358.82 -1.00516 3.58786 0
M  V30 24171 H 2358.93 0.463271 4.76855 0
M  V30 24172 H 2357.3 0.149798 2.54259 0
M  V30 24173 H 2358.08 1.77341 2.93948 0
M  V30 24174 N 2360.53 -1.52973 0.379063 0
M  V30 24175 C 2361.77 -2.03356 -0.206289 0
M  V30 24176 C 2362.13 -1.2598 -1.4489 0
M  V30 24177 O 2363.33 -1.66436 -2.11075 0
M  V30 24178 C 2361.6 -3.54191 -0.477825 0
M  V30 24179 S 2363.16 -4.26421 -1.03492 0
M  V30 24180 H 2359.98 -0.708547 -0.0590135 0
M  V30 24181 H 2362.58 -1.88318 0.525046 0
M  V30 24182 H 2361.28 -4.08101 0.433817 0
M  V30 24183 H 2360.82 -3.73417 -1.23786 0
M  V30 24184 H 2362.83 -4.38722 -2.31814 0
M  V30 24185 N 2362 -0.108595 -1.57225 0
M  V30 24186 C 2363.41 0.418432 -1.81951 0
M  V30 24187 C 2363.77 1.6729 -1.0251 0
M  V30 24188 O 2362.89 2.1485 -0.258534 0
M  V30 24189 C 2363.49 0.765921 -3.30029 0
M  V30 24190 C 2362.04 1.23763 -3.55471 0
M  V30 24191 C 2361.19 0.241057 -2.7625 0
M  V30 24192 H 2364.14 -0.333868 -1.55148 0
M  V30 24193 H 2364.16 1.62428 -3.44089 0
M  V30 24194 H 2363.68 -0.147288 -3.8782 0
M  V30 24195 H 2361.78 2.16809 -3.03026 0
M  V30 24196 H 2361.89 1.19014 -4.64082 0
M  V30 24197 H 2360.25 0.725977 -2.44135 0
M  V30 24198 H 2361.04 -0.665066 -3.36796 0
M  V30 24199 N 2363.48 1.56732 0.16515 0
M  V30 24200 C 2364.71 1.86844 0.90022 0
M  V30 24201 C 2365.13 0.695627 1.74765 0
M  V30 24202 O 2364.49 -0.355188 1.77787 0
M  V30 24203 C 2364.54 3.15416 1.74771 0
M  V30 24204 O 2363.64 2.98073 2.85002 0
M  V30 24205 H 2362.98 0.614396 0.251821 0
M  V30 24206 H 2365.51 2.03962 0.161433 0
M  V30 24207 H 2365.52 3.46978 2.1464 0
M  V30 24208 H 2364.2 4.00387 1.12529 0
M  V30 24209 H 2362.77 2.7788 2.48671 0
M  V30 24210 N 2364.96 -0.433911 1.51509 0
M  V30 24211 C 2365.91 -1.52693 1.73071 0
M  V30 24212 C 2366.88 -1.55923 0.572469 0
M  V30 24213 O 2368.06 -1.7288 0.807284 0
M  V30 24214 C 2365.2 -2.90378 1.86479 0
M  V30 24215 C 2364.32 -2.96651 3.14042 0
M  V30 24216 C 2363.45 -4.2548 3.18026 0
M  V30 24217 C 2362.49 -4.25633 4.3989 0
M  V30 24218 N 2361.63 -5.45992 4.41404 0
M  V30 24219 H 2366.47 -1.33611 2.66369 0
M  V30 24220 H 2364 -0.648994 1.32009 0
M  V30 24221 H 2365.96 -3.70272 1.92236 0
M  V30 24222 H 2364.59 -3.08011 0.965864 0
M  V30 24223 H 2363.64 -2.09399 3.17579 0
M  V30 24224 H 2364.95 -2.92626 4.03945 0
M  V30 24225 H 2364.11 -5.13749 3.22717 0
M  V30 24226 H 2362.85 -4.32166 2.26018 0
M  V30 24227 H 2361.85 -3.35755 4.35371 0
M  V30 24228 H 2363.08 -4.20607 5.33166 0
M  V30 24229 H 2361.02 -5.53393 3.52268 0
M  V30 24230 H 2360.94 -5.43861 5.2512 0
M  V30 24231 H 2362.21 -6.36284 4.50292 0
M  V30 24232 N 2366.44 -1.41713 -0.689577 0
M  V30 24233 C 2367.66 -1.44962 -1.48327 0
M  V30 24234 C 2368.09 -0.0581613 -1.8801 0
M  V30 24235 O 2367.45 0.940008 -1.55028 0
M  V30 24236 C 2367.49 -2.36939 -2.71831 0
M  V30 24237 O 2366.6 -1.83057 -3.69546 0
M  V30 24238 H 2365.94 -0.491742 -0.446191 0
M  V30 24239 H 2368.47 -1.8624 -0.847094 0
M  V30 24240 H 2368.48 -2.53018 -3.20071 0
M  V30 24241 H 2367.15 -3.38039 -2.42285 0
M  V30 24242 H 2365.73 -1.76458 -3.28507 0
M  V30 24243 N 2367.92 0.924431 -1.2764 0
M  V30 24244 C 2369.16 1.66916 -1.13944 0
M  V30 24245 C 2369.49 1.92446 0.314555 0
M  V30 24246 O 2368.76 1.53305 1.21961 0
M  V30 24247 H 2367.34 0.618635 -0.418689 0
M  V30 24248 H 2370 1.10982 -1.60215 0
M  V30 24249 H 2369.09 2.63599 -1.67098 0
M  V30 24250 N 2369.39 1.09715 1.13139 0
M  V30 24251 C 2370.32 0.761141 2.20746 0
M  V30 24252 C 2371.31 -0.262537 1.68062 0
M  V30 24253 O 2372.49 -0.129943 1.93765 0
M  V30 24254 C 2369.62 0.184115 3.46812 0
M  V30 24255 C 2368.57 1.13764 4.12604 0
M  V30 24256 C 2367.9 0.422176 5.33031 0
M  V30 24257 C 2369.2 2.48127 4.59598 0
M  V30 24258 H 2370.89 1.66086 2.4911 0
M  V30 24259 H 2368.44 0.800008 1.19732 0
M  V30 24260 H 2370.39 -0.0630474 4.21353 0
M  V30 24261 H 2369.12 -0.750812 3.17853 0
M  V30 24262 H 2367.78 1.37013 3.40034 0
M  V30 24263 H 2367.42 -0.516984 5.00336 0
M  V30 24264 H 2367.12 1.05798 5.77997 0
M  V30 24265 H 2368.65 0.183385 6.10325 0
M  V30 24266 H 2370.06 2.29068 5.25548 0
M  V30 24267 H 2368.46 3.07523 5.15315 0
M  V30 24268 H 2369.53 3.08671 3.73965 0
M  V30 24269 N 2370.87 -1.30419 0.88479 0
M  V30 24270 C 2372.1 -2.00845 0.517323 0
M  V30 24271 C 2372.52 -1.65887 -0.88675 0
M  V30 24272 O 2371.88 -0.875382 -1.58766 0
M  V30 24273 C 2371.93 -3.53759 0.699056 0
M  V30 24274 O 2371.03 -4.1161 -0.255136 0
M  V30 24275 H 2370.37 -0.631924 0.203883 0
M  V30 24276 H 2372.9 -1.6627 1.19228 0
M  V30 24277 H 2372.91 -4.03594 0.597983 0
M  V30 24278 H 2371.59 -3.78541 1.72277 0
M  V30 24279 H 2370.17 -3.72744 -0.107774 0
M  V30 24280 N 2372.35 -0.645724 -1.43764 0
M  V30 24281 C 2373.58 -0.163355 -2.05953 0
M  V30 24282 C 2373.99 1.1732 -1.48434 0
M  V30 24283 O 2373.33 1.7337 -0.607326 0
M  V30 24284 C 2373.39 0.0102433 -3.59499 0
M  V30 24285 C 2373.06 -1.25043 -4.3956 0
M  V30 24286 C 2374.05 -2.17747 -4.72104 0
M  V30 24287 C 2371.74 -1.48992 -4.79694 0
M  V30 24288 C 2373.73 -3.32699 -5.43682 0
M  V30 24289 C 2371.42 -2.64238 -5.51018 0
M  V30 24290 C 2372.42 -3.55918 -5.82933 0
M  V30 24291 O 2372.11 -4.69153 -6.52802 0
M  V30 24292 H 2371.84 -0.0837104 -0.670797 0
M  V30 24293 H 2374.39 -0.88444 -1.85383 0
M  V30 24294 H 2372.62 0.786624 -3.78615 0
M  V30 24295 H 2374.31 0.449017 -4.03409 0
M  V30 24296 H 2375.08 -2.00484 -4.41623 0
M  V30 24297 H 2370.96 -0.785158 -4.54265 0
M  V30 24298 H 2374.5 -4.04279 -5.6851 0
M  V30 24299 H 2370.4 -2.81439 -5.80915 0
M  V30 24300 H 2371.17 -4.68322 -6.7128 0
M  V30 24301 N 2373.83 1.5277 -0.38717 0
M  V30 24302 C 2374.78 2.2639 0.449009 0
M  V30 24303 C 2375.75 1.27914 1.05958 0
M  V30 24304 O 2376.93 1.56739 1.08801 0
M  V30 24305 C 2374.07 3.07242 1.5715 0
M  V30 24306 C 2373.18 4.20644 0.983992 0
M  V30 24307 C 2372.32 4.88896 2.07736 0
M  V30 24308 C 2371.36 5.94294 1.46564 0
M  V30 24309 N 2370.49 6.5615 2.49822 0
M  V30 24310 H 2375.33 2.97424 -0.185257 0
M  V30 24311 H 2372.87 1.46738 -0.10319 0
M  V30 24312 H 2374.83 3.52409 2.23303 0
M  V30 24313 H 2373.46 2.38423 2.17611 0
M  V30 24314 H 2372.51 3.79808 0.212126 0
M  V30 24315 H 2373.82 4.96318 0.496942 0
M  V30 24316 H 2372.98 5.37355 2.81663 0
M  V30 24317 H 2371.72 4.12741 2.598 0
M  V30 24318 H 2370.72 5.45175 0.7116 0
M  V30 24319 H 2371.95 6.7238 0.95297 0
M  V30 24320 H 2369.89 5.82837 3.0106 0
M  V30 24321 H 2369.81 7.2743 2.05866 0
M  V30 24322 H 2371.08 7.09254 3.23386 0
M  V30 24323 N 2375.31 0.116931 1.57166 0
M  V30 24324 C 2376.53 -0.552675 1.99901 0
M  V30 24325 C 2376.96 -1.59562 0.996067 0
M  V30 24326 O 2376.31 -1.81271 -0.0325241 0
M  V30 24327 C 2376.36 -1.15736 3.41522 0
M  V30 24328 O 2375.47 -2.27292 3.4411 0
M  V30 24329 H 2374.81 -0.138246 0.649449 0
M  V30 24330 H 2377.34 0.204795 2.03572 0
M  V30 24331 H 2377.35 -1.49339 3.79686 0
M  V30 24332 H 2376.02 -0.393421 4.14035 0
M  V30 24333 H 2374.6 -1.95144 3.17763 0
M  V30 24334 N 2376.78 -1.56818 -0.156836 0
M  V30 24335 C 2378.03 -1.83077 -0.872383 0
M  V30 24336 C 2378.36 -0.697033 -1.8126 0
M  V30 24337 O 2377.64 0.300046 -1.92172 0
M  V30 24338 C 2377.92 -3.19792 -1.65545 0
M  V30 24339 C 2377.77 -4.43715 -0.737389 0
M  V30 24340 C 2379.09 -3.53611 -2.62006 0
M  V30 24341 H 2376.21 -0.665958 -0.315704 0
M  V30 24342 H 2378.85 -1.89498 -0.137971 0
M  V30 24343 H 2377 -3.14449 -2.28154 0
M  V30 24344 H 2378.68 -4.61136 -0.123062 0
M  V30 24345 H 2376.92 -4.33775 -0.0463305 0
M  V30 24346 H 2377.59 -5.35957 -1.32113 0
M  V30 24347 H 2380.07 -3.59501 -2.09519 0
M  V30 24348 H 2378.94 -4.50319 -3.13853 0
M  V30 24349 H 2379.2 -2.79059 -3.42897 0
M  V30 24350 N 2378.26 0.425871 -1.51737 0
M  V30 24351 C 2379.51 1.17133 -1.64203 0
M  V30 24352 C 2379.82 1.92074 -0.369739 0
M  V30 24353 O 2381.03 2.68912 -0.373945 0
M  V30 24354 C 2379.49 2.13086 -2.90039 0
M  V30 24355 C 2379.09 1.4374 -4.24315 0
M  V30 24356 C 2380.84 2.87994 -3.11865 0
M  V30 24357 C 2378.75 2.38243 -5.41289 0
M  V30 24358 H 2377.68 0.440933 -0.611632 0
M  V30 24359 H 2380.33 0.437296 -1.78213 0
M  V30 24360 H 2378.71 2.89972 -2.69689 0
M  V30 24361 H 2379.88 0.723328 -4.55087 0
M  V30 24362 H 2378.2 0.809393 -4.08458 0
M  V30 24363 H 2380.79 3.5881 -3.96433 0
M  V30 24364 H 2381.14 3.49995 -2.2541 0
M  V30 24365 H 2381.67 2.18212 -3.32609 0
M  V30 24366 H 2378.41 1.80914 -6.3004 0
M  V30 24367 H 2377.93 3.07671 -5.14878 0
M  V30 24368 H 2379.61 2.99129 -5.73699 0
M  V30 24369 N 2379.74 1.42077 0.682052 0
M  V30 24370 C 2380.97 1.45746 1.47556 0
M  V30 24371 C 2381.39 0.0681312 1.87977 0
M  V30 24372 O 2380.75 -0.931773 1.55524 0
M  V30 24373 C 2380.8 2.38378 2.70571 0
M  V30 24374 O 2379.9 1.85014 3.6857 0
M  V30 24375 H 2379.24 0.494101 0.443577 0
M  V30 24376 H 2381.77 1.86687 0.837206 0
M  V30 24377 H 2381.78 2.54712 3.18725 0
M  V30 24378 H 2380.46 3.39319 2.40489 0
M  V30 24379 H 2379.03 1.78198 3.27567 0
M  V30 24380 N 2381.22 -0.917649 1.28129 0
M  V30 24381 C 2382.47 -1.66639 1.15055 0
M  V30 24382 C 2382.79 -1.92147 -0.301643 0
M  V30 24383 O 2382.05 -1.51713 -1.23619 0
M  V30 24384 C 2382.35 -3.03323 1.89023 0
M  V30 24385 C 2382.01 -2.9749 3.38837 0
M  V30 24386 C 2380.68 -2.95606 3.79698 0
M  V30 24387 C 2383.03 -2.88028 4.34384 0
M  V30 24388 C 2380.36 -2.82057 5.14452 0
M  V30 24389 C 2382.71 -2.7602 5.69206 0
M  V30 24390 C 2381.37 -2.72492 6.09348 0
M  V30 24391 H 2380.64 -0.609775 0.421017 0
M  V30 24392 H 2383.29 -1.06942 1.58857 0
M  V30 24393 H 2381.59 -3.66783 1.37759 0
M  V30 24394 H 2383.29 -3.60152 1.76327 0
M  V30 24395 H 2379.88 -2.99749 3.06347 0
M  V30 24396 H 2384.07 -2.88574 4.0378 0
M  V30 24397 H 2379.32 -2.77718 5.44686 0
M  V30 24398 H 2383.5 -2.67666 6.42906 0
M  V30 24399 H 2381.12 -2.6175 7.13716 0
M  V30 24400 N 2382.7 -1.10314 -1.12555 0
M  V30 24401 C 2383.94 -0.846043 -1.84309 0
M  V30 24402 C 2384.28 0.626827 -1.83806 0
M  V30 24403 O 2383.55 1.46209 -1.2827 0
M  V30 24404 C 2383.83 -1.39347 -3.32046 0
M  V30 24405 C 2383.69 -2.93311 -3.41011 0
M  V30 24406 C 2385.01 -1.03476 -4.27762 0
M  V30 24407 H 2382.13 -0.308801 -0.669187 0
M  V30 24408 H 2384.77 -1.36607 -1.32055 0
M  V30 24409 H 2382.92 -0.951153 -3.76677 0
M  V30 24410 H 2384.59 -3.4606 -3.05025 0
M  V30 24411 H 2382.83 -3.29978 -2.81598 0
M  V30 24412 H 2383.5 -3.26696 -4.44942 0
M  V30 24413 H 2385.98 -1.4164 -3.91251 0
M  V30 24414 H 2384.86 -1.44472 -5.29546 0
M  V30 24415 H 2385.12 0.0559627 -4.42065 0
M  V30 24416 N 2384.18 1.29948 -0.891694 0
M  V30 24417 C 2385.42 1.97666 -0.52033 0
M  V30 24418 C 2385.78 1.68808 0.914767 0
M  V30 24419 O 2386.98 2.29914 1.39259 0
M  V30 24420 C 2385.25 3.48439 -0.795283 0
M  V30 24421 S 2386.81 4.35624 -0.527029 0
M  V30 24422 H 2383.63 0.684207 -0.193342 0
M  V30 24423 H 2386.23 1.57924 -1.15241 0
M  V30 24424 H 2384.93 3.66935 -1.83812 0
M  V30 24425 H 2384.47 3.9311 -0.151019 0
M  V30 24426 H 2386.48 4.92166 0.631446 0
M  V30 24427 N 2385.65 0.653339 1.4342 0
M  V30 24428 C 2387.07 0.320914 1.5634 0
M  V30 24429 C 2387.27 -1.17496 1.63698 0
M  V30 24430 O 2386.33 -1.95979 1.59212 0
M  V30 24431 C 2387.64 1.03238 2.82423 0
M  V30 24432 C 2389.19 1.01264 2.96167 0
M  V30 24433 C 2389.66 1.705 4.25081 0
M  V30 24434 N 2391.15 1.67264 4.31945 0
M  V30 24435 C 2391.89 2.1771 5.30462 0
M  V30 24436 N 2391.38 2.76445 6.35256 0
M  V30 24437 N 2393.18 2.08209 5.22116 0
M  V30 24438 H 2385.33 1.62406 1.36887 0
M  V30 24439 H 2387.59 0.682989 0.657442 0
M  V30 24440 H 2387.3 2.08749 2.83049 0
M  V30 24441 H 2387.17 0.584013 3.72651 0
M  V30 24442 H 2389.56 -0.0340717 2.9508 0
M  V30 24443 H 2389.64 1.49969 2.07227 0
M  V30 24444 H 2389.28 2.75128 4.26928 0
M  V30 24445 H 2389.21 1.1926 5.12918 0
M  V30 24446 H 2391.7 1.24404 3.56836 0
M  V30 24447 H 2392.02 3.12613 7.06748 0
M  V30 24448 H 2390.36 2.80506 6.35879 0
M  V30 24449 H 2393.55 1.62028 4.39163 0
M  V30 24450 H 2393.73 2.47832 5.98735 0
M  V30 24451 N 2387.13 -1.52563 0.395266 0
M  V30 24452 C 2388.54 -1.86539 -0.0774391 0
M  V30 24453 C 2388.89 -1.31468 -1.45638 0
M  V30 24454 O 2388.02 -0.648403 -2.06457 0
M  V30 24455 C 2388.61 -3.3848 -0.147297 0
M  V30 24456 C 2387.17 -3.72146 -0.564308 0
M  V30 24457 C 2386.32 -2.75983 0.269968 0
M  V30 24458 H 2389.27 -1.46387 0.612902 0
M  V30 24459 H 2389.29 -3.68052 -0.965278 0
M  V30 24460 H 2388.8 -3.78532 0.856454 0
M  V30 24461 H 2386.9 -3.37665 -1.57521 0
M  V30 24462 H 2387.02 -4.78041 -0.318318 0
M  V30 24463 H 2385.38 -2.53311 -0.265651 0
M  V30 24464 H 2386.16 -3.18873 1.27181 0
M  V30 24465 N 2388.61 -0.125265 -1.57101 0
M  V30 24466 C 2389.52 0.836161 -2.19193 0
M  V30 24467 C 2390.54 1.28802 -1.16987 0
M  V30 24468 O 2391.71 1.34972 -1.49481 0
M  V30 24469 C 2388.78 2.06612 -2.78411 0
M  V30 24470 C 2387.84 1.66558 -3.95673 0
M  V30 24471 C 2387.07 2.8369 -4.52057 0
M  V30 24472 O 2387.29 3.99295 -4.07333 0
M  V30 24473 O 2386.23 2.60414 -5.42649 0
M  V30 24474 H 2390.05 0.337723 -3.01816 0
M  V30 24475 H 2387.64 0.100669 -1.4906 0
M  V30 24476 H 2389.52 2.78635 -3.16134 0
M  V30 24477 H 2388.2 2.5545 -1.98814 0
M  V30 24478 H 2387.1 0.916232 -3.62706 0
M  V30 24479 H 2388.44 1.22456 -4.76724 0
M  V30 24480 N 2390.09 1.56899 0.148518 0
M  V30 24481 C 2391.05 1.97246 1.16733 0
M  V30 24482 C 2392.05 0.858801 1.35946 0
M  V30 24483 O 2393.24 1.12545 1.32964 0
M  V30 24484 C 2390.37 2.28709 2.52794 0
M  V30 24485 H 2391.57 2.88437 0.821228 0
M  V30 24486 H 2389.12 1.5131 0.391804 0
M  V30 24487 H 2389.85 1.40305 2.92378 0
M  V30 24488 H 2389.64 3.09906 2.4021 0
M  V30 24489 H 2391.13 2.60768 3.26175 0
M  V30 24490 N 2391.57 -0.417818 1.51961 0
M  V30 24491 C 2392.98 -0.755791 1.4057 0
M  V30 24492 C 2393.18 -1.95112 0.503351 0
M  V30 24493 O 2392.24 -2.52477 -0.0341481 0
M  V30 24494 C 2393.55 -1.01787 2.82949 0
M  V30 24495 C 2395.1 -1.12111 2.92233 0
M  V30 24496 C 2395.57 -1.416 4.35561 0
M  V30 24497 N 2397.06 -1.48483 4.38756 0
M  V30 24498 C 2397.8 -1.7291 5.46708 0
M  V30 24499 N 2397.3 -1.94999 6.64791 0
M  V30 24500 N 2399.09 -1.74854 5.34212 0
M  V30 24501 H 2391.24 0.369135 2.09168 0
M  V30 24502 H 2393.5 0.102825 0.942407 0
M  V30 24503 H 2393.21 -0.212019 3.5106 0
M  V30 24504 H 2393.08 -1.94036 3.23465 0
M  V30 24505 H 2395.47 -1.91756 2.24307 0
M  V30 24506 H 2395.55 -0.17718 2.55186 0
M  V30 24507 H 2395.19 -0.62476 5.04043 0
M  V30 24508 H 2395.12 -2.37231 4.70137 0
M  V30 24509 H 2397.62 -1.33238 3.53633 0
M  V30 24510 H 2397.93 -2.13063 7.42849 0
M  V30 24511 H 2396.27 -1.92281 6.67872 0
M  V30 24512 H 2399.46 -1.57129 4.4094 0
M  V30 24513 H 2399.64 -1.93552 6.18419 0
M  V30 24514 N 2393.04 -1.42436 -0.674508 0
M  V30 24515 C 2394.45 -1.38216 -1.25512 0
M  V30 24516 C 2394.81 -0.0755809 -1.96054 0
M  V30 24517 O 2393.93 0.825665 -2.00029 0
M  V30 24518 C 2394.53 -2.50361 -2.28265 0
M  V30 24519 C 2393.08 -2.49472 -2.81852 0
M  V30 24520 C 2392.23 -2.29137 -1.56178 0
M  V30 24521 H 2395.18 -1.51646 -0.467875 0
M  V30 24522 H 2395.2 -2.20629 -3.10005 0
M  V30 24523 H 2394.72 -3.45442 -1.76894 0
M  V30 24524 H 2392.82 -1.5821 -3.37343 0
M  V30 24525 H 2392.93 -3.46521 -3.30848 0
M  V30 24526 H 2391.29 -1.77403 -1.82758 0
M  V30 24527 H 2392.08 -3.26274 -1.06773 0
M  V30 24528 N 2394.52 0.910841 -1.28614 0
M  V30 24529 C 2395.75 1.69397 -1.18795 0
M  V30 24530 C 2396.16 1.87097 0.253006 0
M  V30 24531 O 2395.52 1.40005 1.17068 0
M  V30 24532 C 2395.57 3.08454 -1.88516 0
M  V30 24533 O 2395.29 2.9157 -3.26984 0
M  V30 24534 C 2396.79 4.02836 -1.85036 0
M  V30 24535 H 2394.01 0.529431 -0.412243 0
M  V30 24536 H 2396.56 1.13981 -1.6979 0
M  V30 24537 H 2394.71 3.60679 -1.41385 0
M  V30 24538 H 2395.13 3.79602 -3.61943 0
M  V30 24539 H 2396.6 4.97863 -2.38404 0
M  V30 24540 H 2397.08 4.31413 -0.823379 0
M  V30 24541 H 2397.68 3.56541 -2.31859 0
M  V30 24542 N 2396 1.10909 1.11969 0
M  V30 24543 C 2396.95 0.757342 2.19925 0
M  V30 24544 C 2397.94 -0.248718 1.67564 0
M  V30 24545 O 2399.15 -0.108574 1.79672 0
M  V30 24546 H 2395.52 0.227 0.716921 0
M  V30 24547 H 2397.49 1.67662 2.46844 0
M  V30 24548 C 2396.24 0.210732 3.47061 0
M  V30 24549 H 2395.57 0.976117 3.87701 0
M  V30 24550 H 2397.01 0.00273292 4.24 0
M  V30 24551 C 2395.47 -1.05771 3.19866 0
M  V30 24552 O 2396 -2.13839 3.40053 0
M  V30 24553 N 2394.2 -0.978301 2.73638 0
M  V30 24554 H 2393.75 -0.0987794 2.57411 0
M  V30 24555 H 2393.71 -1.82768 2.55818 0
M  V30 24556 N 2397.48 -1.29474 0.898573 0
M  V30 24557 C 2398.89 -1.48114 0.594509 0
M  V30 24558 C 2399.09 -1.82023 -0.864278 0
M  V30 24559 O 2398.15 -1.91602 -1.64454 0
M  V30 24560 C 2399.46 -2.59492 1.51936 0
M  V30 24561 C 2401.01 -2.73367 1.52444 0
M  V30 24562 C 2401.49 -3.87872 2.43555 0
M  V30 24563 N 2402.98 -3.95204 2.41596 0
M  V30 24564 C 2403.71 -4.83148 3.08798 0
M  V30 24565 N 2403.21 -5.75791 3.85275 0
M  V30 24566 N 2405 -4.7663 2.97961 0
M  V30 24567 H 2397.15 -1.05739 1.84209 0
M  V30 24568 H 2399.42 -0.52514 0.78926 0
M  V30 24569 H 2399.12 -2.41296 2.55869 0
M  V30 24570 H 2399 -3.56269 1.23905 0
M  V30 24571 H 2401.38 -2.9096 0.492569 0
M  V30 24572 H 2401.46 -1.77169 1.84513 0
M  V30 24573 H 2401.11 -3.71035 3.46836 0
M  V30 24574 H 2401.04 -4.83437 2.08797 0
M  V30 24575 H 2403.53 -3.28939 1.86031 0
M  V30 24576 H 2403.84 -6.39689 4.3361 0
M  V30 24577 H 2402.19 -5.7568 3.89381 0
M  V30 24578 H 2405.38 -4.03239 2.3773 0
M  V30 24579 H 2405.55 -5.44956 3.50609 0
M  V30 24580 N 2398.96 -0.660936 -1.43071 0
M  V30 24581 C 2400.37 -0.25638 -1.84931 0
M  V30 24582 C 2400.72 1.19866 -1.55328 0
M  V30 24583 O 2399.84 1.91589 -1.0061 0
M  V30 24584 C 2400.44 -0.458534 -3.35683 0
M  V30 24585 C 2399 -0.108227 -3.76244 0
M  V30 24586 C 2398.14 -0.757688 -2.66748 0
M  V30 24587 H 2401.1 -0.864074 -1.33114 0
M  V30 24588 H 2401.12 0.293617 -3.79365 0
M  V30 24589 H 2400.63 -1.51761 -3.57198 0
M  V30 24590 H 2398.73 0.94795 -3.6034 0
M  V30 24591 H 2398.84 -0.539076 -4.76058 0
M  V30 24592 H 2397.21 -0.190229 -2.53989 0
M  V30 24593 H 2397.99 -1.81995 -2.91089 0
M  V30 24594 N 2400.43 1.52351 -0.403352 0
M  V30 24595 C 2401.37 2.2332 0.469424 0
M  V30 24596 C 2402.35 1.23924 1.0527 0
M  V30 24597 O 2403.53 1.52956 1.10166 0
M  V30 24598 C 2400.66 2.95733 1.65105 0
M  V30 24599 C 2399.7 4.09512 1.19171 0
M  V30 24600 S 2400.54 5.35256 0.161624 0
M  V30 24601 C 2401.69 6.11196 1.34871 0
M  V30 24602 H 2401.92 2.97002 -0.133186 0
M  V30 24603 H 2399.46 1.53256 -0.187615 0
M  V30 24604 H 2401.42 3.3806 2.32864 0
M  V30 24605 H 2400.08 2.21705 2.22499 0
M  V30 24606 H 2399.27 4.59332 2.07436 0
M  V30 24607 H 2398.87 3.69271 0.592846 0
M  V30 24608 H 2401.16 6.38221 2.27333 0
M  V30 24609 H 2402.11 7.0247 0.891157 0
M  V30 24610 H 2402.51 5.42173 1.57189 0
M  V30 24611 N 2401.91 0.133594 1.57033 0
M  V30 24612 C 2402.84 -0.807528 2.19092 0
M  V30 24613 C 2403.82 -1.26679 1.13519 0
M  V30 24614 O 2405.01 -1.32677 1.41812 0
M  V30 24615 C 2402.14 -2.05207 2.80191 0
M  V30 24616 C 2401.09 -1.73008 3.91475 0
M  V30 24617 C 2400.42 -3.04614 4.39448 0
M  V30 24618 C 2401.72 -0.987077 5.12888 0
M  V30 24619 H 2403.41 -0.290351 2.97989 0
M  V30 24620 H 2400.96 -0.138214 1.43335 0
M  V30 24621 H 2402.91 -2.71515 3.22269 0
M  V30 24622 H 2401.64 -2.59275 1.98606 0
M  V30 24623 H 2400.29 -1.09083 3.49995 0
M  V30 24624 H 2399.94 -3.56645 3.54702 0
M  V30 24625 H 2399.64 -2.83838 5.145 0
M  V30 24626 H 2401.17 -3.72016 4.84187 0
M  V30 24627 H 2402.58 -1.55198 5.51894 0
M  V30 24628 H 2400.98 -0.879746 5.93616 0
M  V30 24629 H 2402.05 0.0236139 4.84894 0
M  V30 24630 N 2403.39 -1.56975 -0.140195 0
M  V30 24631 C 2404.64 -1.82909 -0.85012 0
M  V30 24632 C 2404.95 -0.715924 -1.82027 0
M  V30 24633 O 2406.16 -0.861061 -2.57484 0
M  V30 24634 C 2404.61 -3.24216 -1.56244 0
M  V30 24635 C 2404.22 -4.43486 -0.634352 0
M  V30 24636 C 2405.97 -3.59417 -2.25875 0
M  V30 24637 C 2403.87 -5.75816 -1.34868 0
M  V30 24638 H 2402.8 -0.682159 -0.321209 0
M  V30 24639 H 2405.45 -1.83212 -0.102842 0
M  V30 24640 H 2403.84 -3.18321 -2.35559 0
M  V30 24641 H 2405.01 -4.60633 0.124061 0
M  V30 24642 H 2403.33 -4.16374 -0.0461104 0
M  V30 24643 H 2405.92 -4.55544 -2.7997 0
M  V30 24644 H 2406.27 -2.85807 -3.02688 0
M  V30 24645 H 2406.8 -3.67003 -1.53471 0
M  V30 24646 H 2403.54 -6.5254 -0.62227 0
M  V30 24647 H 2403.06 -5.62593 -2.07964 0
M  V30 24648 H 2404.74 -6.18849 -1.88773 0
M  V30 24649 N 2404.87 0.409753 -1.5218 0
M  V30 24650 C 2406.09 1.18305 -1.70349 0
M  V30 24651 C 2406.52 1.83534 -0.411919 0
M  V30 24652 O 2405.88 1.69981 0.630557 0
M  V30 24653 C 2405.92 2.22233 -2.83981 0
M  V30 24654 O 2405.03 3.2836 -2.49506 0
M  V30 24655 H 2404.37 0.345374 -0.567109 0
M  V30 24656 H 2406.9 0.48041 -1.9888 0
M  V30 24657 H 2406.91 2.66572 -3.08874 0
M  V30 24658 H 2405.58 1.74139 -3.77688 0
M  V30 24659 H 2404.16 2.89304 -2.35282 0
M  V30 24660 N 2406.35 1.42792 0.666944 0
M  V30 24661 C 2407.28 1.4968 1.79216 0
M  V30 24662 C 2408.26 0.352652 1.66404 0
M  V30 24663 O 2409.44 0.568026 1.85707 0
M  V30 24664 C 2406.57 1.40611 3.17562 0
M  V30 24665 C 2405.53 2.53133 3.45119 0
M  V30 24666 C 2404.85 2.2912 4.83123 0
M  V30 24667 C 2406.15 3.95424 3.41229 0
M  V30 24668 H 2407.85 2.43856 1.73709 0
M  V30 24669 H 2405.39 1.17369 0.834299 0
M  V30 24670 H 2407.35 1.44036 3.9602 0
M  V30 24671 H 2406.07 0.429327 3.23766 0
M  V30 24672 H 2404.73 2.49039 2.69027 0
M  V30 24673 H 2404.38 1.29717 4.85986 0
M  V30 24674 H 2404.08 3.0454 5.02523 0
M  V30 24675 H 2405.6 2.34307 5.63855 0
M  V30 24676 H 2407.01 4.0108 4.09644 0
M  V30 24677 H 2405.41 4.70758 3.72165 0
M  V30 24678 H 2406.48 4.21536 2.39657 0
M  V30 24679 N 2407.82 -0.904008 1.29095 0
M  V30 24680 C 2409.1 -1.63409 1.07503 0
M  V30 24681 C 2409.48 -2.07609 -0.38231 0
M  V30 24682 O 2408.83 -1.82854 -1.37028 0
M  V30 24683 C 2409.04 -2.81818 2.05863 0
M  V30 24684 C 2410.39 -3.52607 2.36545 0
M  V30 24685 O 2411.41 -2.91981 2.04024 0
M  V30 24686 O 2410.27 -4.61892 2.92093 0
M  V30 24687 H 2407.36 -0.71732 0.41156 0
M  V30 24688 H 2409.91 -0.952455 1.40451 0
M  V30 24689 H 2408.68 -2.46322 3.04041 0
M  V30 24690 H 2408.31 -3.5769 1.73619 0
M  V30 24691 N 2409.3 -1.11501 -1.11379 0
M  V30 24692 C 2410.25 -0.773925 -2.17437 0
M  V30 24693 C 2411.22 0.25487 -1.64133 0
M  V30 24694 O 2412.4 0.131647 -1.90345 0
M  V30 24695 C 2409.54 -0.223977 -3.44372 0
M  V30 24696 C 2408.66 -1.30941 -4.11678 0
M  V30 24697 C 2407.79 -0.719932 -5.26299 0
M  V30 24698 C 2406.83 -1.78517 -5.8549 0
M  V30 24699 N 2405.97 -1.21514 -6.91505 0
M  V30 24700 H 2410.81 -1.68251 -2.45959 0
M  V30 24701 H 2408.35 -0.840212 -1.20743 0
M  V30 24702 H 2410.3 0.112848 -4.17047 0
M  V30 24703 H 2408.93 0.647796 -3.16233 0
M  V30 24704 H 2407.99 -1.76318 -3.3707 0
M  V30 24705 H 2409.3 -2.11532 -4.51725 0
M  V30 24706 H 2408.45 -0.333201 -6.05784 0
M  V30 24707 H 2407.19 0.117291 -4.87559 0
M  V30 24708 H 2406.2 -2.1812 -5.04682 0
M  V30 24709 H 2407.42 -2.62544 -6.26297 0
M  V30 24710 H 2405.37 -0.39957 -6.54782 0
M  V30 24711 H 2405.28 -1.95776 -7.30211 0
M  V30 24712 H 2406.55 -0.855318 -7.74793 0
M  V30 24713 N 2410.78 1.28995 -0.905426 0
M  V30 24714 C 2411.71 2.26592 -0.344788 0
M  V30 24715 C 2412.73 1.54536 0.512108 0
M  V30 24716 O 2413.92 1.75454 0.328337 0
M  V30 24717 C 2411.02 3.34785 0.526528 0
M  V30 24718 C 2410.19 4.36329 -0.305948 0
M  V30 24719 C 2409.25 5.23828 0.499117 0
M  V30 24720 O 2408.27 5.69136 -0.0854004 0
M  V30 24721 N 2409.48 5.51758 1.80398 0
M  V30 24722 H 2412.24 2.75336 -1.18364 0
M  V30 24723 H 2409.8 1.4239 -0.770506 0
M  V30 24724 H 2411.79 3.90254 1.07164 0
M  V30 24725 H 2410.36 2.85813 1.26608 0
M  V30 24726 H 2409.58 3.80439 -1.03246 0
M  V30 24727 H 2410.87 5.01205 -0.875861 0
M  V30 24728 H 2410.27 5.16766 2.30151 0
M  V30 24729 H 2408.83 6.10019 2.2961 0
M  V30 24730 N 2412.26 0.668514 1.42719 0
M  V30 24731 C 2413.49 0.196384 2.05966 0
M  V30 24732 C 2413.9 -1.144 1.50193 0
M  V30 24733 O 2413.26 -1.70939 0.639238 0
M  V30 24734 C 2413.31 0.115879 3.61314 0
M  V30 24735 O 2413.03 1.40329 4.15017 0
M  V30 24736 C 2414.53 -0.380501 4.41664 0
M  V30 24737 H 2411.75 0.0969946 0.663953 0
M  V30 24738 H 2414.3 0.913478 1.82964 0
M  V30 24739 H 2412.45 -0.551864 3.83449 0
M  V30 24740 H 2412.87 1.27252 5.08829 0
M  V30 24741 H 2414.34 -0.385751 5.5065 0
M  V30 24742 H 2414.82 -1.41463 4.15794 0
M  V30 24743 H 2415.42 0.255284 4.24533 0
M  V30 24744 N 2413.74 -1.52135 0.411426 0
M  V30 24745 C 2414.98 -2.03748 -0.163108 0
M  V30 24746 C 2415.34 -1.29025 -1.42185 0
M  V30 24747 O 2416.54 -1.70876 -2.07497 0
M  V30 24748 C 2414.81 -3.55125 -0.402588 0
M  V30 24749 S 2416.37 -4.2852 -0.94424 0
M  V30 24750 H 2413.19 -0.709639 -0.0439709 0
M  V30 24751 H 2415.79 -1.87162 0.564873 0
M  V30 24752 H 2414.5 -4.07089 0.520284 0
M  V30 24753 H 2414.03 -3.75959 -1.15838 0
M  V30 24754 H 2416.04 -4.4354 -2.22456 0
M  V30 24755 N 2415.22 -0.14192 -1.5696 0
M  V30 24756 C 2416.44 0.517544 -2.00322 0
M  V30 24757 C 2416.86 1.5875 -1.02195 0
M  V30 24758 O 2416.22 1.82491 -0.018194 0
M  V30 24759 C 2416.27 1.12283 -3.4362 0
M  V30 24760 O 2415.99 0.0956159 -4.37996 0
M  V30 24761 C 2417.49 1.86339 -4.02234 0
M  V30 24762 H 2414.71 0.135166 -0.657245 0
M  V30 24763 H 2417.25 -0.235009 -2.03145 0
M  V30 24764 H 2415.41 1.82603 -3.41665 0
M  V30 24765 H 2415.82 0.538377 -5.2173 0
M  V30 24766 H 2417.3 2.23988 -5.04513 0
M  V30 24767 H 2417.77 2.74738 -3.42659 0
M  V30 24768 H 2418.38 1.2073 -4.07804 0
M  V30 24769 N 2416.69 1.57047 0.131868 0
M  V30 24770 C 2417.62 2.0243 1.1638 0
M  V30 24771 C 2418.6 0.906465 1.43935 0
M  V30 24772 O 2419.79 1.17531 1.54596 0
M  V30 24773 C 2416.92 2.41774 2.49324 0
M  V30 24774 C 2415.87 3.56883 2.36259 0
M  V30 24775 C 2415.2 3.82087 3.74051 0
M  V30 24776 C 2416.5 4.89045 1.83392 0
M  V30 24777 H 2418.19 2.88888 0.786383 0
M  V30 24778 H 2415.74 1.38982 0.37683 0
M  V30 24779 H 2417.69 2.72126 3.21754 0
M  V30 24780 H 2416.42 1.52271 2.88931 0
M  V30 24781 H 2415.08 3.26721 1.6628 0
M  V30 24782 H 2414.72 2.8981 4.1112 0
M  V30 24783 H 2414.42 4.59561 3.66166 0
M  V30 24784 H 2415.95 4.14878 4.48005 0
M  V30 24785 H 2417.36 5.18016 2.45627 0
M  V30 24786 H 2415.76 5.70429 1.8636 0
M  V30 24787 H 2416.83 4.78412 0.790578 0
M  V30 24788 N 2418.17 -0.401677 1.52395 0
M  V30 24789 C 2419.42 -1.14793 1.6682 0
M  V30 24790 C 2419.75 -1.90304 0.401805 0
M  V30 24791 O 2419 -1.8577 -0.615454 0
M  V30 24792 C 2419.3 -2.16212 2.84582 0
M  V30 24793 C 2418.97 -1.57453 4.22516 0
M  V30 24794 C 2417.63 -1.41153 4.60032 0
M  V30 24795 C 2419.98 -1.14613 5.08442 0
M  V30 24796 C 2417.31 -0.805418 5.81145 0
M  V30 24797 C 2419.66 -0.554169 6.30168 0
M  V30 24798 C 2418.32 -0.378364 6.66427 0
M  V30 24799 H 2417.59 -0.420058 0.610436 0
M  V30 24800 H 2420.24 -0.434179 1.86513 0
M  V30 24801 H 2418.55 -2.9376 2.59254 0
M  V30 24802 H 2420.24 -2.7384 2.92938 0
M  V30 24803 H 2416.83 -1.71125 3.92956 0
M  V30 24804 H 2421.02 -1.26012 4.80036 0
M  V30 24805 H 2416.27 -0.657292 6.07857 0
M  V30 24806 H 2420.45 -0.21386 6.96072 0
M  V30 24807 H 2418.07 0.0933942 7.60143 0
M  V30 24808 N 2419.65 -1.43144 -0.659362 0
M  V30 24809 C 2420.9 -1.44435 -1.41932 0
M  V30 24810 C 2421.22 -0.0663864 -1.94387 0
M  V30 24811 O 2420.48 0.927676 -1.72316 0
M  V30 24812 C 2420.78 -2.42868 -2.62202 0
M  V30 24813 C 2420.44 -3.8889 -2.28201 0
M  V30 24814 C 2419.11 -4.28661 -2.1864 0
M  V30 24815 C 2421.46 -4.80934 -2.00878 0
M  V30 24816 C 2418.79 -5.58437 -1.79904 0
M  V30 24817 C 2421.14 -6.11068 -1.63642 0
M  V30 24818 C 2419.8 -6.49822 -1.52603 0
M  V30 24819 H 2419.07 -0.528526 -0.519367 0
M  V30 24820 H 2421.72 -1.76184 -0.750422 0
M  V30 24821 H 2420.02 -2.04501 -3.34195 0
M  V30 24822 H 2421.72 -2.41125 -3.20406 0
M  V30 24823 H 2418.31 -3.5741 -2.3655 0
M  V30 24824 H 2422.5 -4.50983 -2.0719 0
M  V30 24825 H 2417.75 -5.87308 -1.69938 0
M  V30 24826 H 2421.93 -6.81867 -1.41531 0
M  V30 24827 H 2419.55 -7.50288 -1.22358 0
M  V30 24828 N 2421.13 0.897149 -1.29572 0
M  V30 24829 C 2422.35 1.68654 -1.20708 0
M  V30 24830 C 2422.78 1.86706 0.22855 0
M  V30 24831 O 2422.14 1.38922 1.16492 0
M  V30 24832 C 2422.18 3.04714 -1.92826 0
M  V30 24833 O 2421.29 3.93094 -1.24704 0
M  V30 24834 H 2420.63 0.515809 -0.418135 0
M  V30 24835 H 2423.16 1.12057 -1.71185 0
M  V30 24836 H 2423.17 3.54839 -2.01378 0
M  V30 24837 H 2421.84 2.90894 -2.97244 0
M  V30 24838 H 2420.42 3.51529 -1.24426 0
M  V30 24839 N 2422.61 1.1209 1.10786 0
M  V30 24840 C 2423.85 0.88518 1.83129 0
M  V30 24841 C 2424.21 -0.582807 1.83361 0
M  V30 24842 O 2423.5 -1.42514 1.28064 0
M  V30 24843 C 2423.69 1.38932 3.29291 0
M  V30 24844 C 2423.52 2.90478 3.43297 0
M  V30 24845 C 2422.29 3.58675 3.55922 0
M  V30 24846 C 2424.49 3.88498 3.37007 0
M  V30 24847 N 2422.47 4.98372 3.58467 0
M  V30 24848 C 2423.84 5.14304 3.46254 0
M  V30 24849 C 2425.9 3.80961 3.20583 0
M  V30 24850 C 2424.6 6.33458 3.40769 0
M  V30 24851 C 2426.63 4.99634 3.16418 0
M  V30 24852 C 2425.99 6.24296 3.26242 0
M  V30 24853 H 2422.09 0.37714 0.685047 0
M  V30 24854 H 2424.67 1.42653 1.32508 0
M  V30 24855 H 2422.84 0.875066 3.78414 0
M  V30 24856 H 2424.58 1.09603 3.89576 0
M  V30 24857 H 2421.33 3.09158 3.58774 0
M  V30 24858 H 2421.75 5.71226 3.6336 0
M  V30 24859 H 2426.4 2.85479 3.11868 0
M  V30 24860 H 2424.11 7.2921 3.48251 0
M  V30 24861 H 2427.7 4.95528 3.04866 0
M  V30 24862 H 2426.58 7.14584 3.23017 0
M  V30 24863 N 2424.08 -1.28513 0.912254 0
M  V30 24864 C 2425.03 -2.24966 0.370688 0
M  V30 24865 C 2426.02 -1.5239 -0.516348 0
M  V30 24866 O 2427.21 -1.73376 -0.356314 0
M  V30 24867 C 2424.34 -3.41084 -0.389466 0
M  V30 24868 C 2423.42 -4.20983 0.513204 0
M  V30 24869 N 2423.82 -4.78948 1.62612 0
M  V30 24870 C 2422.11 -4.44898 0.313313 0
M  V30 24871 C 2422.81 -5.39051 2.18628 0
M  V30 24872 N 2421.79 -5.23129 1.47774 0
M  V30 24873 H 2425.59 -2.67352 1.22066 0
M  V30 24874 H 2423.11 -1.43267 0.764737 0
M  V30 24875 H 2425.1 -4.09264 -0.794281 0
M  V30 24876 H 2423.76 -3.00232 -1.23655 0
M  V30 24877 H 2424.77 -4.77358 2.00872 0
M  V30 24878 H 2421.45 -4.14563 -0.494379 0
M  V30 24879 H 2422.84 -5.94942 3.12239 0
M  V30 24880 N 2425.56 -0.676073 -1.42362 0
M  V30 24881 C 2426.79 -0.207304 -2.05859 0
M  V30 24882 C 2427.21 1.13602 -1.50798 0
M  V30 24883 O 2426.56 1.70597 -0.648295 0
M  V30 24884 C 2426.61 -0.135039 -3.61248 0
M  V30 24885 O 2426.33 -1.42528 -4.14267 0
M  V30 24886 C 2427.84 0.357073 -4.4186 0
M  V30 24887 H 2425.06 -0.100514 -0.663429 0
M  V30 24888 H 2427.6 -0.923168 -1.82477 0
M  V30 24889 H 2425.75 0.531521 -3.83736 0
M  V30 24890 H 2426.17 -1.29948 -5.08147 0
M  V30 24891 H 2427.64 0.356544 -5.50847 0
M  V30 24892 H 2428.12 1.39256 -4.16539 0
M  V30 24893 H 2428.73 -0.277794 -4.24392 0
M  V30 24894 N 2427.04 1.51915 -0.419488 0
M  V30 24895 C 2428.45 1.86639 0.0477525 0
M  V30 24896 C 2428.8 1.33769 1.43528 0
M  V30 24897 O 2427.93 0.681167 2.054 0
M  V30 24898 C 2428.52 3.38671 0.0934289 0
M  V30 24899 C 2427.08 3.72997 0.505031 0
M  V30 24900 C 2426.23 2.75518 -0.31384 0
M  V30 24901 H 2429.18 1.45394 -0.636113 0
M  V30 24902 H 2429.2 3.69542 0.906602 0
M  V30 24903 H 2428.71 3.77122 -0.916567 0
M  V30 24904 H 2426.81 3.40129 1.52129 0
M  V30 24905 H 2426.93 4.78487 0.242225 0
M  V30 24906 H 2425.29 2.53701 0.225318 0
M  V30 24907 H 2426.07 3.16809 -1.32238 0
M  V30 24908 N 2428.52 0.150242 1.56882 0
M  V30 24909 C 2429.45 -0.784245 2.19936 0
M  V30 24910 C 2430.43 -1.25467 1.14856 0
M  V30 24911 O 2431.61 -1.31165 1.43211 0
M  V30 24912 C 2428.74 -2.02224 2.82352 0
M  V30 24913 C 2427.7 -1.68846 3.93287 0
M  V30 24914 C 2427.02 -2.99936 4.42654 0
M  V30 24915 C 2428.32 -0.932623 5.13906 0
M  V30 24916 H 2430.02 -0.258729 2.9828 0
M  V30 24917 H 2427.56 -0.123004 1.43474 0
M  V30 24918 H 2429.52 -2.68082 3.25131 0
M  V30 24919 H 2428.24 -2.57154 2.01345 0
M  V30 24920 H 2426.9 -1.05365 3.51132 0
M  V30 24921 H 2426.55 -3.52863 3.58464 0
M  V30 24922 H 2426.25 -2.78365 5.17481 0
M  V30 24923 H 2427.77 -3.66859 4.88105 0
M  V30 24924 H 2429.19 -1.49336 5.53509 0
M  V30 24925 H 2427.58 -0.816735 5.94516 0
M  V30 24926 H 2428.65 0.0750421 4.84842 0
M  V30 24927 N 2430 -1.57115 -0.123538 0
M  V30 24928 C 2430.96 -1.99078 -1.1358 0
M  V30 24929 C 2431.96 -0.88032 -1.34562 0
M  V30 24930 O 2433.15 -1.14646 -1.31156 0
M  V30 24931 C 2430.28 -2.32702 -2.49124 0
M  V30 24932 H 2431.47 -2.89707 -0.775236 0
M  V30 24933 H 2429.03 -1.51914 -0.367683 0
M  V30 24934 H 2429.76 -1.44939 -2.90109 0
M  V30 24935 H 2429.55 -3.13688 -2.35249 0
M  V30 24936 H 2431.04 -2.65924 -3.21985 0
M  V30 24937 N 2431.47 0.393589 -1.52606 0
M  V30 24938 C 2432.71 1.14807 -1.69112 0
M  V30 24939 C 2433.08 1.87356 -0.419723 0
M  V30 24940 O 2434.28 2.64816 -0.46108 0
M  V30 24941 C 2432.55 2.1039 -2.88913 0
M  V30 24942 S 2434.11 2.93736 -3.25983 0
M  V30 24943 H 2430.93 0.388699 -0.595343 0
M  V30 24944 H 2433.53 0.433144 -1.90641 0
M  V30 24945 H 2432.23 1.55806 -3.79675 0
M  V30 24946 H 2431.76 2.86398 -2.69703 0
M  V30 24947 H 2433.78 4.12482 -2.75813 0
M  V30 24948 N 2432.95 1.43492 0.651762 0
M  V30 24949 C 2433.86 1.51213 1.79365 0
M  V30 24950 C 2434.88 0.399123 1.69361 0
M  V30 24951 O 2436.05 0.653464 1.90504 0
M  V30 24952 C 2433.12 1.43407 3.15651 0
M  V30 24953 C 2432.18 2.6539 3.37441 0
M  V30 24954 C 2431.41 2.57947 4.67225 0
M  V30 24955 O 2431.64 1.62802 5.46673 0
M  V30 24956 O 2430.57 3.48471 4.90767 0
M  V30 24957 H 2434.4 2.47641 1.75806 0
M  V30 24958 H 2431.98 1.25509 0.810425 0
M  V30 24959 H 2433.86 1.41501 3.96932 0
M  V30 24960 H 2432.54 0.501141 3.19797 0
M  V30 24961 H 2431.45 2.72868 2.55918 0
M  V30 24962 H 2432.78 3.5766 3.38142 0
M  V30 24963 N 2434.43 -0.890264 1.30046 0
M  V30 24964 C 2435.36 -2.00089 1.1179 0
M  V30 24965 C 2436.38 -1.62679 0.0626593 0
M  V30 24966 O 2437.56 -1.7582 0.308143 0
M  V30 24967 C 2434.66 -3.31975 0.681585 0
M  V30 24968 C 2433.84 -3.97855 1.81742 0
M  V30 24969 C 2432.9 -5.08038 1.37054 0
M  V30 24970 O 2431.92 -5.29957 2.07687 0
M  V30 24971 N 2433.12 -5.79976 0.246627 0
M  V30 24972 H 2435.89 -2.16302 2.07445 0
M  V30 24973 H 2433.45 -1.06303 1.22112 0
M  V30 24974 H 2435.44 -4.03044 0.365746 0
M  V30 24975 H 2434.01 -3.12065 -0.182773 0
M  V30 24976 H 2433.23 -3.20028 2.30165 0
M  V30 24977 H 2434.52 -4.3861 2.57873 0
M  V30 24978 H 2433.92 -5.64665 -0.342051 0
M  V30 24979 H 2432.48 -6.51799 -0.00978981 0
M  V30 24980 N 2435.91 -1.12676 -1.1019 0
M  V30 24981 C 2436.87 -0.800017 -2.14784 0
M  V30 24982 C 2437.87 0.186822 -1.59711 0
M  V30 24983 O 2439.06 -0.0392864 -1.74156 0
M  V30 24984 C 2436.19 -0.189287 -3.40374 0
M  V30 24985 H 2437.39 -1.72676 -2.452 0
M  V30 24986 H 2434.94 -0.930348 -1.25595 0
M  V30 24987 H 2435.67 0.747051 -3.15578 0
M  V30 24988 H 2435.46 -0.899833 -3.81635 0
M  V30 24989 H 2436.95 0.0227409 -4.17594 0
M  V30 24990 N 2437.39 1.28028 -0.919057 0
M  V30 24991 C 2438.61 1.98865 -0.571006 0
M  V30 24992 C 2439.03 1.68636 0.848966 0
M  V30 24993 O 2438.39 0.942063 1.56306 0
M  V30 24994 C 2438.44 3.53052 -0.776939 0
M  V30 24995 O 2438.16 3.82219 -2.14104 0
M  V30 24996 C 2439.66 4.41146 -0.436433 0
M  V30 24997 H 2436.88 0.634879 -0.217186 0
M  V30 24998 H 2439.42 1.63094 -1.23371 0
M  V30 24999 H 2437.58 3.87065 -0.161153 0
M  V30 25000 H 2437.99 4.76838 -2.18463 0
M  V30 25001 H 2439.47 5.48379 -0.631267 0
M  V30 25002 H 2439.94 4.34693 0.62761 0
M  V30 25003 H 2440.55 4.1264 -1.02999 0
M  V30 25004 N 2438.86 0.683613 1.42002 0
M  V30 25005 C 2439.77 0.0109488 2.34597 0
M  V30 25006 C 2440.79 -0.779218 1.55577 0
M  V30 25007 O 2441.97 -0.719522 1.88109 0
M  V30 25008 C 2439.03 -0.922529 3.34201 0
M  V30 25009 C 2438.09 -0.125908 4.29115 0
M  V30 25010 C 2437.33 -1.01493 5.23961 0
M  V30 25011 O 2437.55 -2.25447 5.23956 0
M  V30 25012 O 2436.48 -0.471004 6.00054 0
M  V30 25013 H 2440.31 0.773904 2.93674 0
M  V30 25014 H 2437.89 0.443886 1.42653 0
M  V30 25015 H 2439.78 -1.45816 3.95368 0
M  V30 25016 H 2438.45 -1.66518 2.77585 0
M  V30 25017 H 2437.36 0.454034 3.71335 0
M  V30 25018 H 2438.69 0.577822 4.88797 0
M  V30 25019 N 2440.34 -1.5169 0.427538 0
M  V30 25020 C 2441.58 -2.0391 -0.141488 0
M  V30 25021 C 2441.95 -1.30526 -1.40808 0
M  V30 25022 O 2443.15 -1.73067 -2.05673 0
M  V30 25023 C 2441.42 -3.55532 -0.3649 0
M  V30 25024 S 2442.98 -4.29498 -0.898737 0
M  V30 25025 H 2439.8 -0.710065 -0.0364417 0
M  V30 25026 H 2442.4 -1.86552 0.584692 0
M  V30 25027 H 2441.1 -4.06514 0.563431 0
M  V30 25028 H 2440.63 -3.77166 -1.11844 0
M  V30 25029 H 2442.65 -4.45875 -2.17739 0
M  V30 25030 N 2441.82 -0.15856 -1.568 0
M  V30 25031 C 2443.05 0.49948 -2.01296 0
M  V30 25032 C 2443.47 1.56865 -1.03802 0
M  V30 25033 O 2442.83 1.81293 -0.0155481 0
M  V30 25034 C 2442.88 1.0664 -3.44471 0
M  V30 25035 O 2441.98 2.18089 -3.50016 0
M  V30 25036 H 2441.32 0.120979 -0.652886 0
M  V30 25037 H 2443.85 -0.258697 -2.02958 0
M  V30 25038 H 2443.86 1.3922 -3.83512 0
M  V30 25039 H 2442.54 0.283508 -4.14933 0
M  V30 25040 H 2441.11 1.86651 -3.22825 0
M  V30 25041 N 2443.3 1.57178 0.115204 0
M  V30 25042 C 2444.55 1.85326 0.823537 0
M  V30 25043 C 2444.88 0.744845 1.79348 0
M  V30 25044 O 2444.15 -0.24899 1.929 0
M  V30 25045 C 2444.44 3.24068 1.57008 0
M  V30 25046 C 2444.29 4.45514 0.619486 0
M  V30 25047 C 2445.61 3.60433 2.52539 0
M  V30 25048 H 2442.73 0.674094 0.297936 0
M  V30 25049 H 2445.37 1.89798 0.0876805 0
M  V30 25050 H 2443.52 3.20387 2.19737 0
M  V30 25051 H 2445.19 4.613 0.000756553 0
M  V30 25052 H 2443.43 4.33746 -0.0686937 0
M  V30 25053 H 2444.11 5.39272 1.17856 0
M  V30 25054 H 2446.58 3.6493 1.99914 0
M  V30 25055 H 2445.46 4.58482 3.01803 0
M  V30 25056 H 2445.72 2.88052 3.35378 0
M  V30 25057 N 2444.78 -0.38549 1.52813 0
M  V30 25058 C 2446.19 -0.725804 1.42142 0
M  V30 25059 C 2446.39 -1.94 0.544624 0
M  V30 25060 O 2445.45 -2.52493 0.0194136 0
M  V30 25061 C 2446.76 -0.957618 2.85044 0
M  V30 25062 C 2448.31 -1.05887 2.94545 0
M  V30 25063 C 2448.79 -1.32329 4.38467 0
M  V30 25064 N 2450.28 -1.39143 4.41807 0
M  V30 25065 C 2451.01 -1.61275 5.50253 0
M  V30 25066 N 2450.51 -1.80854 6.68778 0
M  V30 25067 N 2452.3 -1.63483 5.37801 0
M  V30 25068 H 2444.45 0.413419 2.08338 0
M  V30 25069 H 2446.71 0.122792 0.940014 0
M  V30 25070 H 2446.42 -0.137507 3.51431 0
M  V30 25071 H 2446.29 -1.87131 3.27509 0
M  V30 25072 H 2448.68 -1.86955 2.28324 0
M  V30 25073 H 2448.76 -0.123012 2.55504 0
M  V30 25074 H 2448.41 -0.517704 5.05255 0
M  V30 25075 H 2448.34 -2.27205 4.75063 0
M  V30 25076 H 2450.83 -1.25707 3.56379 0
M  V30 25077 H 2451.14 -1.97258 7.47201 0
M  V30 25078 H 2449.49 -1.78072 6.718 0
M  V30 25079 H 2452.68 -1.47741 4.44174 0
M  V30 25080 H 2452.85 -1.80391 6.22385 0
M  V30 25081 N 2446.26 -1.43835 -0.644143 0
M  V30 25082 C 2447.2 -1.49978 -1.77791 0
M  V30 25083 C 2448.2 -0.372565 -1.65252 0
M  V30 25084 O 2449.4 -0.546954 -1.71489 0
M  V30 25085 H 2445.78 -0.47036 -0.586741 0
M  V30 25086 H 2447.75 -2.45426 -1.69731 0
M  V30 25087 C 2446.5 -1.44865 -3.16084 0
M  V30 25088 H 2445.82 -2.30911 -3.26374 0
M  V30 25089 H 2447.26 -1.53224 -3.95346 0
M  V30 25090 C 2445.72 -0.167522 -3.36483 0
M  V30 25091 O 2446.25 0.76754 -3.94299 0
M  V30 25092 N 2444.46 -0.0748066 -2.90504 0
M  V30 25093 H 2444 -0.83655 -2.43638 0
M  V30 25094 H 2443.96 0.781661 -3.04528 0
M  V30 25095 N 2447.73 0.883355 -1.30517 0
M  V30 25096 C 2448.98 1.63207 -1.19197 0
M  V30 25097 C 2449.3 1.9335 0.253171 0
M  V30 25098 O 2448.57 1.57107 1.17022 0
M  V30 25099 H 2447.15 0.605001 -0.438158 0
M  V30 25100 H 2449.81 1.05829 -1.63665 0
M  V30 25101 H 2448.91 2.5815 -1.754 0
M  V30 25102 N 2449.21 1.13259 1.09591 0
M  V30 25103 C 2450.44 0.916765 1.86038 0
M  V30 25104 C 2450.86 -0.529114 1.80505 0
M  V30 25105 O 2450.22 -1.37532 1.1813 0
M  V30 25106 C 2450.27 1.40709 3.32014 0
M  V30 25107 O 2449.37 0.591225 4.0814 0
M  V30 25108 H 2448.71 0.328693 0.576937 0
M  V30 25109 H 2451.24 1.50685 1.38403 0
M  V30 25110 H 2451.25 1.40997 3.82863 0
M  V30 25111 H 2449.93 2.45985 3.35357 0
M  V30 25112 H 2448.5 0.656069 3.67083 0
M  V30 25113 N 2450.69 -1.27539 0.925834 0
M  V30 25114 C 2451.91 -1.99097 0.580959 0
M  V30 25115 C 2452.34 -1.68624 -0.833526 0
M  V30 25116 O 2451.7 -0.925449 -1.55901 0
M  V30 25117 C 2451.75 -3.51356 0.811248 0
M  V30 25118 O 2450.85 -4.12213 -0.124056 0
M  V30 25119 H 2450.19 -0.625118 0.223884 0
M  V30 25120 H 2452.72 -1.62393 1.24458 0
M  V30 25121 H 2452.73 -4.01487 0.726081 0
M  V30 25122 H 2451.41 -3.72869 1.84233 0
M  V30 25123 H 2449.98 -3.72898 0.0108661 0
M  V30 25124 N 2452.17 -0.691135 -1.41637 0
M  V30 25125 C 2453.42 -0.217353 -2.00525 0
M  V30 25126 C 2453.73 1.18846 -1.55355 0
M  V30 25127 O 2454.94 1.75947 -2.06772 0
M  V30 25128 C 2453.39 -0.337702 -3.58312 0
M  V30 25129 C 2453 -1.7486 -4.12466 0
M  V30 25130 C 2454.74 0.076532 -4.24431 0
M  V30 25131 C 2452.65 -1.82084 -5.62672 0
M  V30 25132 H 2451.58 -0.0775025 -0.750006 0
M  V30 25133 H 2454.23 -0.858689 -1.62169 0
M  V30 25134 H 2452.61 0.371809 -3.94251 0
M  V30 25135 H 2453.79 -2.48651 -3.87955 0
M  V30 25136 H 2452.1 -2.11212 -3.58857 0
M  V30 25137 H 2454.7 0.0429344 -5.34683 0
M  V30 25138 H 2455.04 1.11453 -4.01103 0
M  V30 25139 H 2455.58 -0.582545 -3.93511 0
M  V30 25140 H 2452.31 -2.83921 -5.90821 0
M  V30 25141 H 2451.83 -1.12671 -5.89122 0
M  V30 25142 H 2453.51 -1.5817 -6.27368 0
M  V30 25143 N 2453.65 1.51461 -0.435577 0
M  V30 25144 C 2454.89 2.02372 0.131673 0
M  V30 25145 C 2455.22 1.31922 1.42514 0
M  V30 25146 O 2454.5 0.433606 1.89605 0
M  V30 25147 C 2454.78 3.58373 0.352238 0
M  V30 25148 C 2454.64 4.39441 -0.959754 0
M  V30 25149 C 2455.95 4.25537 1.12279 0
M  V30 25150 H 2453.07 0.735539 0.0463807 0
M  V30 25151 H 2455.72 1.81115 -0.574229 0
M  V30 25152 H 2453.87 3.76616 0.953534 0
M  V30 25153 H 2455.54 4.32852 -1.5949 0
M  V30 25154 H 2453.78 4.04596 -1.56475 0
M  V30 25155 H 2454.45 5.4675 -0.75949 0
M  V30 25156 H 2456.93 4.11553 0.613473 0
M  V30 25157 H 2455.8 5.34574 1.24588 0
M  V30 25158 H 2456.06 3.86277 2.15041 0
M  V30 25159 N 2455.12 0.166873 1.56714 0
M  V30 25160 C 2456.4 -0.52534 1.88413 0
M  V30 25161 C 2456.78 -1.81616 1.07606 0
M  V30 25162 O 2456.13 -2.27877 0.168661 0
M  V30 25163 C 2456.34 -0.771553 3.40365 0
M  V30 25164 C 2457.69 -1.10353 4.10009 0
M  V30 25165 O 2458.71 -0.860243 3.45656 0
M  V30 25166 O 2457.57 -1.56229 5.23693 0
M  V30 25167 H 2454.66 -0.270265 0.781592 0
M  V30 25168 H 2457.21 0.204976 1.68458 0
M  V30 25169 H 2455.98 0.141162 3.91045 0
M  V30 25170 H 2455.61 -1.55535 3.65916 0
M  V30 25171 N 2456.6 -1.57237 -0.106866 0
M  V30 25172 C 2457.53 -2.04256 -1.13145 0
M  V30 25173 C 2458.51 -0.929249 -1.42474 0
M  V30 25174 O 2459.7 -1.19976 -1.52707 0
M  V30 25175 C 2456.83 -2.4571 -2.45446 0
M  V30 25176 C 2455.78 -3.60597 -2.30552 0
M  V30 25177 C 2455.11 -3.87989 -3.67925 0
M  V30 25178 C 2456.41 -4.919 -1.75588 0
M  V30 25179 H 2458.1 -2.90103 -0.740323 0
M  V30 25180 H 2455.65 -1.39564 -0.354672 0
M  V30 25181 H 2457.6 -2.7721 -3.17384 0
M  V30 25182 H 2456.33 -1.56848 -2.86472 0
M  V30 25183 H 2454.98 -3.29325 -1.61061 0
M  V30 25184 H 2454.63 -2.96314 -4.06457 0
M  V30 25185 H 2454.33 -4.65328 -3.58808 0
M  V30 25186 H 2455.86 -4.21953 -4.41348 0
M  V30 25187 H 2457.27 -5.21858 -2.37355 0
M  V30 25188 H 2455.67 -5.73322 -1.77262 0
M  V30 25189 H 2456.74 -4.79609 -0.714367 0
M  V30 25190 N 2458.08 0.377381 -1.53015 0
M  V30 25191 C 2459.31 1.14665 -1.7282 0
M  V30 25192 C 2459.73 1.82619 -0.450757 0
M  V30 25193 O 2459.09 1.71281 0.59436 0
M  V30 25194 C 2459.14 2.16159 -2.88631 0
M  V30 25195 O 2458.24 3.22994 -2.56415 0
M  V30 25196 H 2457.58 0.333268 -0.574307 0
M  V30 25197 H 2460.11 0.438117 -1.99854 0
M  V30 25198 H 2460.12 2.5996 -3.14459 0
M  V30 25199 H 2458.8 1.66088 -3.81297 0
M  V30 25200 H 2457.37 2.84248 -2.41365 0
M  V30 25201 N 2459.56 1.44175 0.636506 0
M  V30 25202 C 2460.97 1.41495 1.21803 0
M  V30 25203 C 2461.32 0.127535 1.95785 0
M  V30 25204 O 2460.45 -0.772341 2.02148 0
M  V30 25205 C 2461.04 2.56325 2.21547 0
M  V30 25206 C 2459.6 2.56857 2.75139 0
M  V30 25207 C 2458.75 2.33197 1.50048 0
M  V30 25208 H 2461.7 1.52834 0.427504 0
M  V30 25209 H 2461.72 2.28771 3.04046 0
M  V30 25210 H 2461.23 3.50011 1.67673 0
M  V30 25211 H 2459.33 1.67098 3.3303 0
M  V30 25212 H 2459.44 3.55171 3.21544 0
M  V30 25213 H 2457.81 1.82186 1.7799 0
M  V30 25214 H 2458.59 3.2899 0.980845 0
M  V30 25215 N 2461.04 -0.876421 1.30983 0
M  V30 25216 C 2461.97 -1.99901 1.20672 0
M  V30 25217 C 2462.95 -1.69832 0.0953838 0
M  V30 25218 O 2464.13 -1.92187 0.278884 0
M  V30 25219 C 2461.26 -3.35258 0.906609 0
M  V30 25220 C 2460.22 -3.79613 1.97681 0
M  V30 25221 C 2459.54 -5.12357 1.52952 0
M  V30 25222 C 2460.84 -3.97416 3.38907 0
M  V30 25223 H 2462.54 -2.08786 2.1459 0
M  V30 25224 H 2460.08 -1.00315 1.0331 0
M  V30 25225 H 2462.04 -4.13323 0.821098 0
M  V30 25226 H 2460.76 -3.26529 -0.0682395 0
M  V30 25227 H 2459.42 -3.03783 2.05211 0
M  V30 25228 H 2459.07 -5.00064 0.542707 0
M  V30 25229 H 2458.77 -5.43005 2.24542 0
M  V30 25230 H 2460.29 -5.92938 1.45796 0
M  V30 25231 H 2461.7 -4.65894 3.34089 0
M  V30 25232 H 2460.1 -4.39453 4.08658 0
M  V30 25233 H 2461.17 -3.00999 3.80168 0
M  V30 25234 N 2462.51 -1.13839 -1.08989 0
M  V30 25235 C 2463.76 -0.897541 -1.8063 0
M  V30 25236 C 2464.08 0.577737 -1.86873 0
M  V30 25237 O 2465.28 0.935656 -2.54868 0
M  V30 25238 C 2463.74 -1.55623 -3.24514 0
M  V30 25239 C 2463.35 -3.06735 -3.26523 0
M  V30 25240 C 2465.09 -1.39627 -4.0088 0
M  V30 25241 C 2463 -3.65469 -4.64959 0
M  V30 25242 H 2461.93 -0.332141 -0.676904 0
M  V30 25243 H 2464.58 -1.36662 -1.22457 0
M  V30 25244 H 2462.96 -1.01483 -3.82776 0
M  V30 25245 H 2464.13 -3.67494 -2.78002 0
M  V30 25246 H 2462.45 -3.22301 -2.6365 0
M  V30 25247 H 2465.05 -1.80915 -5.03164 0
M  V30 25248 H 2465.39 -0.341651 -4.14896 0
M  V30 25249 H 2465.92 -1.90772 -3.49072 0
M  V30 25250 H 2462.66 -4.70757 -4.56145 0
M  V30 25251 H 2462.18 -3.0949 -5.13786 0
M  V30 25252 H 2463.86 -3.6541 -5.33933 0
M  V30 25253 N 2463.99 1.27046 -0.932584 0
M  V30 25254 C 2464.94 2.24348 -0.406431 0
M  V30 25255 C 2465.93 1.53192 0.492039 0
M  V30 25256 O 2467.12 1.73921 0.328687 0
M  V30 25257 C 2464.25 3.4166 0.335154 0
M  V30 25258 C 2463.33 4.20114 -0.580114 0
M  V30 25259 N 2463.72 4.763 -1.70211 0
M  V30 25260 C 2462.02 4.44343 -0.384053 0
M  V30 25261 C 2462.72 5.35505 -2.27177 0
M  V30 25262 N 2461.7 5.20712 -1.56078 0
M  V30 25263 H 2465.5 2.65376 -1.26304 0
M  V30 25264 H 2463.02 1.42033 -0.787433 0
M  V30 25265 H 2465.01 4.10476 0.72907 0
M  V30 25266 H 2463.67 3.02162 1.18863 0
M  V30 25267 H 2464.68 4.74102 -2.08441 0
M  V30 25268 H 2461.36 4.15297 0.428363 0
M  V30 25269 H 2462.75 5.899 -3.21664 0
M  V30 25270 N 2465.47 0.698636 1.41269 0
M  V30 25271 C 2466.89 0.37049 1.5524 0
M  V30 25272 C 2467.09 -1.12228 1.67353 0
M  V30 25273 O 2466.14 -1.90815 1.65366 0
M  V30 25274 C 2467.46 1.1217 2.78995 0
M  V30 25275 C 2469 1.10635 2.92795 0
M  V30 25276 C 2469.48 1.83937 4.19441 0
M  V30 25277 N 2470.97 1.80922 4.26405 0
M  V30 25278 C 2471.7 2.34476 5.23267 0
M  V30 25279 N 2471.2 2.96515 6.26139 0
M  V30 25280 N 2472.99 2.24715 5.15228 0
M  V30 25281 H 2465.14 1.66678 1.31651 0
M  V30 25282 H 2467.41 0.703559 0.635381 0
M  V30 25283 H 2467.11 2.17648 2.76265 0
M  V30 25284 H 2466.99 0.702274 3.70605 0
M  V30 25285 H 2469.37 0.0598232 2.95039 0
M  V30 25286 H 2469.46 1.56486 2.0235 0
M  V30 25287 H 2469.1 2.88571 4.17959 0
M  V30 25288 H 2469.03 1.35518 5.08864 0
M  V30 25289 H 2471.52 1.35693 3.52698 0
M  V30 25290 H 2471.83 3.34939 6.96445 0
M  V30 25291 H 2470.18 3.00594 6.26633 0
M  V30 25292 H 2473.37 1.75918 4.33786 0
M  V30 25293 H 2473.54 2.66755 5.90547 0
M  V30 25294 N 2466.95 -1.51228 0.443603 0
M  V30 25295 C 2468.18 -2.06556 -0.119253 0
M  V30 25296 C 2468.59 -1.3104 -1.35919 0
M  V30 25297 O 2467.95 -0.371736 -1.78674 0
M  V30 25298 C 2468 -3.58871 -0.435165 0
M  V30 25299 O 2467.72 -4.31535 0.755562 0
M  V30 25300 C 2469.22 -4.30734 -1.04801 0
M  V30 25301 H 2466.44 -0.67098 -0.0051466 0
M  V30 25302 H 2468.99 -1.94732 0.624487 0
M  V30 25303 H 2467.14 -3.7059 -1.12881 0
M  V30 25304 H 2467.55 -5.22266 0.483582 0
M  V30 25305 H 2469.03 -5.38372 -1.21901 0
M  V30 25306 H 2469.51 -3.89432 -2.03074 0
M  V30 25307 H 2470.11 -4.23475 -0.393562 0
M  V30 25308 N 2468.43 -0.175182 -1.56623 0
M  V30 25309 C 2469.67 0.467851 -1.9661 0
M  V30 25310 C 2470 1.63517 -1.06241 0
M  V30 25311 O 2469.27 1.95471 -0.129557 0
M  V30 25312 H 2467.85 0.175832 -0.726011 0
M  V30 25313 H 2470.51 -0.257268 -1.93195 0
M  V30 25314 H 2469.6 0.825289 -3.00991 0
M  V30 25315 N 2469.91 1.57292 0.0985263 0
M  V30 25316 C 2471.15 1.85546 0.80106 0
M  V30 25317 C 2471.47 0.763385 1.79436 0
M  V30 25318 O 2470.74 -0.210696 1.94764 0
M  V30 25319 H 2469.32 0.684625 0.298828 0
M  V30 25320 H 2471.99 1.94732 0.0809722 0
M  V30 25321 H 2471.08 2.82166 1.33375 0
M  V30 25322 N 2471.38 -0.369261 1.53213 0
M  V30 25323 C 2472.61 -1.13136 1.7287 0
M  V30 25324 C 2473.02 -1.83628 0.455787 0
M  V30 25325 O 2472.36 -1.74276 -0.580831 0
M  V30 25326 C 2472.43 -2.20842 2.83671 0
M  V30 25327 C 2472.09 -1.70148 4.24145 0
M  V30 25328 C 2473.09 -1.16754 5.06621 0
M  V30 25329 C 2470.77 -1.75772 4.70542 0
M  V30 25330 C 2472.77 -0.696566 6.33582 0
M  V30 25331 C 2470.45 -1.28287 5.97483 0
M  V30 25332 C 2471.45 -0.753188 6.78834 0
M  V30 25333 O 2471.14 -0.285334 8.03393 0
M  V30 25334 H 2470.87 -0.344362 0.581713 0
M  V30 25335 H 2473.43 -0.435207 2.00736 0
M  V30 25336 H 2471.66 -2.93939 2.5127 0
M  V30 25337 H 2473.34 -2.82416 2.91541 0
M  V30 25338 H 2474.11 -1.1175 4.7195 0
M  V30 25339 H 2469.99 -2.15941 4.07296 0
M  V30 25340 H 2473.53 -0.282459 6.97028 0
M  V30 25341 H 2469.43 -1.32983 6.31653 0
M  V30 25342 H 2470.2 -0.405001 8.17497 0
M  V30 25343 N 2472.86 -1.4451 -0.628851 0
M  V30 25344 C 2473.77 -1.54047 -1.76937 0
M  V30 25345 C 2474.79 -0.426016 -1.68704 0
M  V30 25346 O 2475.96 -0.683689 -1.8944 0
M  V30 25347 C 2473.03 -1.4841 -3.13329 0
M  V30 25348 C 2472.09 -2.70725 -3.33176 0
M  V30 25349 C 2471.32 -2.65348 -4.63062 0
M  V30 25350 O 2471.55 -1.71478 -5.44014 0
M  V30 25351 O 2470.48 -3.56234 -4.85161 0
M  V30 25352 H 2474.31 -2.50406 -1.71844 0
M  V30 25353 H 2471.89 -1.26782 -0.790355 0
M  V30 25354 H 2473.77 -1.47798 -3.94631 0
M  V30 25355 H 2472.45 -0.551955 -3.18959 0
M  V30 25356 H 2471.35 -2.76905 -2.51544 0
M  V30 25357 H 2472.69 -3.62994 -3.32409 0
M  V30 25358 N 2474.34 0.869463 -1.31446 0
M  V30 25359 C 2475.3 1.95828 -1.19097 0
M  V30 25360 C 2476.3 1.60367 -0.117934 0
M  V30 25361 O 2477.49 1.70285 -0.367238 0
M  V30 25362 C 2474.62 3.30686 -0.828223 0
M  V30 25363 H 2475.82 2.08208 -2.15846 0
M  V30 25364 H 2473.37 1.05782 -1.15065 0
M  V30 25365 H 2474.11 3.24006 0.138085 0
M  V30 25366 H 2473.89 3.57797 -1.60387 0
M  V30 25367 H 2475.38 4.1052 -0.76573 0
M  V30 25368 N 2475.82 1.14415 1.08383 0
M  V30 25369 C 2477.05 0.934676 1.84248 0
M  V30 25370 C 2477.46 -0.520202 1.81908 0
M  V30 25371 O 2476.8 -1.37224 1.22128 0
M  V30 25372 C 2476.86 1.35834 3.3285 0
M  V30 25373 C 2476.52 2.82881 3.58925 0
M  V30 25374 C 2477.52 3.80996 3.53749 0
M  V30 25375 C 2475.21 3.20299 3.86928 0
M  V30 25376 C 2477.2 5.14536 3.76207 0
M  V30 25377 C 2474.89 4.54016 4.09039 0
M  V30 25378 C 2475.89 5.50943 4.03672 0
M  V30 25379 O 2475.57 6.82245 4.25202 0
M  V30 25380 H 2475.31 0.332638 0.588496 0
M  V30 25381 H 2477.86 1.52326 1.37789 0
M  V30 25382 H 2476.09 0.713085 3.80068 0
M  V30 25383 H 2477.78 1.11964 3.90152 0
M  V30 25384 H 2478.54 3.53434 3.32129 0
M  V30 25385 H 2474.42 2.45448 3.90226 0
M  V30 25386 H 2477.97 5.90179 3.71933 0
M  V30 25387 H 2473.86 4.81297 4.30143 0
M  V30 25388 H 2474.63 6.88507 4.42606 0
M  V30 25389 N 2477.3 -1.26549 0.939309 0
M  V30 25390 C 2478.57 -1.89 0.503833 0
M  V30 25391 C 2478.95 -1.84904 -1.01851 0
M  V30 25392 O 2478.3 -1.3021 -1.8777 0
M  V30 25393 C 2478.51 -3.32415 1.06306 0
M  V30 25394 C 2479.86 -4.09271 1.13058 0
M  V30 25395 O 2480.88 -3.41477 1.01351 0
M  V30 25396 O 2479.74 -5.30507 1.31242 0
M  V30 25397 H 2476.84 -0.810594 0.163911 0
M  V30 25398 H 2479.38 -1.34733 1.03175 0
M  V30 25399 H 2478.15 -3.29748 2.1067 0
M  V30 25400 H 2477.78 -3.94218 0.517477 0
M  V30 25401 N 2478.77 -0.706118 -1.40896 0
M  V30 25402 C 2479.68 -0.0482698 -2.3455 0
M  V30 25403 C 2480.7 0.754369 -1.56797 0
M  V30 25404 O 2481.88 0.689505 -1.89229 0
M  V30 25405 C 2478.94 0.869244 -3.35626 0
M  V30 25406 C 2478 0.057624 -4.29261 0
M  V30 25407 C 2477.23 0.931439 -5.25509 0
M  V30 25408 O 2477.46 2.17083 -5.27476 0
M  V30 25409 O 2476.39 0.375481 -6.00728 0
M  V30 25410 H 2480.22 -0.820527 -2.92406 0
M  V30 25411 H 2477.8 -0.466525 -1.41929 0
M  V30 25412 H 2479.68 1.39507 -3.97638 0
M  V30 25413 H 2478.36 1.62081 -2.80199 0
M  V30 25414 H 2477.27 -0.513053 -3.70565 0
M  V30 25415 H 2478.6 -0.655512 -4.87815 0
M  V30 25416 N 2480.25 1.50991 -0.451617 0
M  V30 25417 C 2481.48 2.07105 0.11063 0
M  V30 25418 C 2481.9 1.3154 1.34458 0
M  V30 25419 O 2481.26 0.357396 1.77742 0
M  V30 25420 C 2481.31 3.58406 0.397175 0
M  V30 25421 O 2480.41 3.84883 1.48117 0
M  V30 25422 H 2479.75 0.663985 -0.00440438 0
M  V30 25423 H 2482.28 1.94429 -0.637061 0
M  V30 25424 H 2482.29 4.02894 0.643439 0
M  V30 25425 H 2480.97 4.12827 -0.504626 0
M  V30 25426 H 2479.54 3.52248 1.22375 0
M  V30 25427 N 2481.73 0.183486 1.56528 0
M  V30 25428 C 2482.64 -0.754233 2.22145 0
M  V30 25429 C 2483.66 -1.24372 1.21687 0
M  V30 25430 O 2484.83 -1.29331 1.54388 0
M  V30 25431 C 2481.9 -1.96136 2.85887 0
M  V30 25432 C 2480.96 -1.51758 4.01582 0
M  V30 25433 C 2480.19 -2.66717 4.62275 0
M  V30 25434 O 2480.41 -3.83902 4.21872 0
M  V30 25435 O 2479.35 -2.40094 5.5194 0
M  V30 25436 H 2483.17 -0.225473 3.02862 0
M  V30 25437 H 2480.76 -0.045277 1.49331 0
M  V30 25438 H 2482.64 -2.6671 3.26257 0
M  V30 25439 H 2481.32 -2.47895 2.08158 0
M  V30 25440 H 2480.22 -0.780985 3.65857 0
M  V30 25441 H 2481.56 -1.04678 4.8094 0
M  V30 25442 N 2483.21 -1.57342 -0.0901833 0
M  V30 25443 C 2484.48 -1.77363 -0.82473 0
M  V30 25444 C 2484.86 -0.766404 -1.96696 0
M  V30 25445 O 2484.21 0.204139 -2.27586 0
M  V30 25446 C 2484.42 -3.23288 -1.31476 0
M  V30 25447 C 2485.77 -3.86607 -1.75556 0
M  V30 25448 O 2486.79 -3.27067 -1.41087 0
M  V30 25449 O 2485.65 -4.91318 -2.39309 0
M  V30 25450 H 2482.75 -0.727241 -0.393764 0
M  V30 25451 H 2485.29 -1.69549 -0.071684 0
M  V30 25452 H 2484.07 -3.88136 -0.496603 0
M  V30 25453 H 2483.69 -3.35754 -2.12967 0
M  V30 25454 N 2484.69 0.36113 -1.53407 0
M  V30 25455 C 2485.96 1.11924 -1.60413 0
M  V30 25456 C 2486.34 2.06992 -0.414421 0
M  V30 25457 O 2485.69 2.20619 0.594937 0
M  V30 25458 C 2485.9 1.85442 -2.95655 0
M  V30 25459 C 2487.25 2.39817 -3.5039 0
M  V30 25460 O 2488.27 1.95563 -2.97714 0
M  V30 25461 O 2487.13 3.20729 -4.42487 0
M  V30 25462 H 2484.23 0.513684 -0.648119 0
M  V30 25463 H 2486.77 0.364036 -1.65749 0
M  V30 25464 H 2485.54 1.16085 -3.73684 0
M  V30 25465 H 2485.17 2.67861 -2.9383 0
M  V30 25466 N 2486.16 1.44842 0.621179 0
M  V30 25467 C 2487.13 1.52103 1.71457 0
M  V30 25468 C 2488.13 0.40196 1.55695 0
M  V30 25469 O 2489.32 0.664953 1.61009 0
M  V30 25470 C 2486.45 1.40453 3.10622 0
M  V30 25471 H 2487.64 2.49509 1.66389 0
M  V30 25472 H 2485.2 1.32081 0.835721 0
M  V30 25473 H 2485.93 0.441793 3.21277 0
M  V30 25474 H 2485.72 2.21608 3.23469 0
M  V30 25475 H 2487.21 1.48537 3.9029 0
M  V30 25476 N 2487.64 -0.862479 1.31905 0
M  V30 25477 C 2488.87 -1.65395 1.25137 0
M  V30 25478 C 2489.29 -1.87247 -0.178967 0
M  V30 25479 O 2488.65 -1.41962 -1.12768 0
M  V30 25480 C 2488.7 -2.99494 2.00837 0
M  V30 25481 O 2487.8 -3.89649 1.35082 0
M  V30 25482 H 2487.14 -0.504542 0.431664 0
M  V30 25483 H 2489.67 -1.07479 1.74096 0
M  V30 25484 H 2489.68 -3.49375 2.10715 0
M  V30 25485 H 2488.36 -2.8291 3.04852 0
M  V30 25486 H 2486.94 -3.48106 1.33702 0
M  V30 25487 N 2489.12 -1.14988 -1.07775 0
M  V30 25488 C 2490.4 -0.832726 -1.76989 0
M  V30 25489 C 2490.78 0.672525 -2.00101 0
M  V30 25490 O 2490.13 1.61547 -1.61601 0
M  V30 25491 C 2490.34 -1.63869 -3.08136 0
M  V30 25492 C 2491.68 -1.84215 -3.82557 0
M  V30 25493 O 2492.71 -1.60609 -3.17936 0
M  V30 25494 O 2491.57 -2.23723 -4.98608 0
M  V30 25495 H 2488.66 -0.305804 -0.768383 0
M  V30 25496 H 2491.21 -1.25543 -1.14179 0
M  V30 25497 H 2489.98 -2.66085 -2.86905 0
M  V30 25498 H 2489.6 -1.21203 -3.78676 0
M  V30 25499 N 2490.6 1.26049 -0.946007 0
M  V30 25500 C 2491.83 1.97609 -0.613059 0
M  V30 25501 C 2492.24 1.70399 0.813005 0
M  V30 25502 O 2491.6 0.975006 1.54272 0
M  V30 25503 C 2491.65 3.51325 -0.851651 0
M  V30 25504 O 2491.37 3.77591 -2.22163 0
M  V30 25505 C 2492.87 4.40121 -0.529909 0
M  V30 25506 H 2490.09 0.630129 -0.230604 0
M  V30 25507 H 2492.64 1.60441 -1.26803 0
M  V30 25508 H 2490.79 3.86636 -0.243219 0
M  V30 25509 H 2491.2 4.72096 -2.28528 0
M  V30 25510 H 2492.68 5.46916 -0.747444 0
M  V30 25511 H 2493.16 4.35926 0.535264 0
M  V30 25512 H 2493.76 4.10362 -1.11728 0
M  V30 25513 N 2492.08 0.71358 1.4052 0
M  V30 25514 C 2493.02 0.0485636 2.32549 0
M  V30 25515 C 2494.02 -0.749193 1.51932 0
M  V30 25516 O 2495.22 -0.652787 1.67746 0
M  V30 25517 H 2491.6 -0.00309817 0.751994 0
M  V30 25518 H 2493.57 0.841494 2.86289 0
M  V30 25519 C 2492.32 -0.860628 3.36881 0
M  V30 25520 H 2491.64 -0.256176 3.98978 0
M  V30 25521 H 2493.08 -1.29393 4.03774 0
M  V30 25522 C 2491.54 -1.98516 2.72201 0
M  V30 25523 O 2492.07 -3.07579 2.58375 0
M  V30 25524 N 2490.28 -1.76819 2.30615 0
M  V30 25525 H 2489.82 -0.881175 2.4206 0
M  V30 25526 H 2489.78 -2.5224 1.87677 0
M  V30 25527 N 2493.55 -1.50749 0.459618 0
M  V30 25528 C 2494.97 -1.867 0.00174828 0
M  V30 25529 C 2495.32 -1.37527 -1.39931 0
M  V30 25530 O 2494.44 -0.735385 -2.03522 0
M  V30 25531 C 2495.04 -3.388 -0.00360343 0
M  V30 25532 C 2493.6 -3.74204 -0.40596 0
M  V30 25533 C 2492.74 -2.74589 0.386778 0
M  V30 25534 H 2495.69 -1.43656 0.674438 0
M  V30 25535 H 2495.71 -3.71815 -0.808306 0
M  V30 25536 H 2495.23 -3.74559 1.01623 0
M  V30 25537 H 2493.33 -3.44043 -1.43057 0
M  V30 25538 H 2493.44 -4.78961 -0.115278 0
M  V30 25539 H 2491.8 -2.5421 -0.157974 0
M  V30 25540 H 2492.59 -3.13192 1.40591 0
M  V30 25541 N 2495.03 -0.191784 -1.56429 0
M  V30 25542 C 2496.31 0.495298 -1.89225 0
M  V30 25543 C 2496.69 1.79881 -1.10481 0
M  V30 25544 O 2496.04 2.2758 -0.204892 0
M  V30 25545 C 2496.25 0.717307 -3.41549 0
M  V30 25546 C 2497.6 1.03816 -4.11713 0
M  V30 25547 O 2498.62 0.805143 -3.46981 0
M  V30 25548 O 2497.48 1.47878 -5.26112 0
M  V30 25549 H 2494.57 0.257796 -0.785793 0
M  V30 25550 H 2497.12 -0.23175 -1.6811 0
M  V30 25551 H 2495.89 -0.203356 -3.90771 0
M  V30 25552 H 2495.51 1.49693 -3.68344 0
M  V30 25553 N 2496.51 1.57387 0.0818378 0
M  V30 25554 C 2497.76 1.86754 0.782882 0
M  V30 25555 C 2498.09 0.782149 1.78081 0
M  V30 25556 O 2497.34 -0.222916 1.94426 0
M  V30 25557 C 2497.64 3.22754 1.53507 0
M  V30 25558 C 2497.31 4.45773 0.678056 0
M  V30 25559 C 2495.97 4.79167 0.441845 0
M  V30 25560 C 2498.32 5.21134 0.0831327 0
M  V30 25561 C 2495.65 5.85342 -0.398936 0
M  V30 25562 C 2498 6.28197 -0.745045 0
M  V30 25563 C 2496.66 6.60099 -0.991223 0
M  V30 25564 H 2495.93 0.683383 0.286477 0
M  V30 25565 H 2498.58 1.9145 0.0439472 0
M  V30 25566 H 2496.89 3.13804 2.34594 0
M  V30 25567 H 2498.58 3.42708 2.08212 0
M  V30 25568 H 2495.17 4.1963 0.872283 0
M  V30 25569 H 2499.36 4.95656 0.25276 0
M  V30 25570 H 2494.61 6.08463 -0.598512 0
M  V30 25571 H 2498.79 6.85758 -1.21283 0
M  V30 25572 H 2496.41 7.42199 -1.6445 0
M  V30 25573 N 2497.99 -0.35299 1.53596 0
M  V30 25574 C 2499.22 -1.11296 1.7406 0
M  V30 25575 C 2499.63 -1.83134 0.475237 0
M  V30 25576 O 2498.97 -1.74882 -0.562314 0
M  V30 25577 C 2499.03 -2.1782 2.85997 0
M  V30 25578 C 2498.7 -1.65639 4.25926 0
M  V30 25579 C 2499.69 -1.11374 5.07831 0
M  V30 25580 C 2497.38 -1.70771 4.7238 0
M  V30 25581 C 2499.37 -0.629327 6.34286 0
M  V30 25582 C 2497.06 -1.21943 5.9881 0
M  V30 25583 C 2498.06 -0.681146 6.79595 0
M  V30 25584 O 2497.74 -0.200107 8.03651 0
M  V30 25585 H 2497.48 -0.338173 0.585333 0
M  V30 25586 H 2500.03 -0.413892 2.01187 0
M  V30 25587 H 2498.26 -2.91258 2.54373 0
M  V30 25588 H 2499.95 -2.79308 2.9452 0
M  V30 25589 H 2500.72 -1.06738 4.73109 0
M  V30 25590 H 2496.59 -2.11609 4.09564 0
M  V30 25591 H 2500.14 -0.208514 6.97288 0
M  V30 25592 H 2496.04 -1.26276 6.33028 0
M  V30 25593 H 2496.8 -0.318272 8.17881 0
M  V30 25594 N 2499.47 -1.45169 -0.613489 0
M  V30 25595 C 2500.72 -1.48153 -1.36871 0
M  V30 25596 C 2501.03 -0.125017 -1.952 0
M  V30 25597 O 2502.24 -0.0324653 -2.71481 0
M  V30 25598 C 2500.69 -2.60909 -2.47901 0
M  V30 25599 C 2500.3 -4.02846 -1.96009 0
M  V30 25600 C 2502.04 -2.73132 -3.2496 0
M  V30 25601 C 2499.95 -5.06994 -3.04485 0
M  V30 25602 H 2498.88 -0.551262 -0.514418 0
M  V30 25603 H 2501.53 -1.71291 -0.658152 0
M  V30 25604 H 2499.91 -2.31042 -3.21614 0
M  V30 25605 H 2501.09 -4.42362 -1.29044 0
M  V30 25606 H 2499.4 -3.9502 -1.31712 0
M  V30 25607 H 2502 -3.48113 -4.05859 0
M  V30 25608 H 2502.34 -1.7956 -3.75585 0
M  V30 25609 H 2502.88 -3.02495 -2.58344 0
M  V30 25610 H 2499.61 -6.02255 -2.58784 0
M  V30 25611 H 2499.13 -4.72053 -3.70036 0
M  V30 25612 H 2500.81 -5.31481 -3.68967 0
M  V30 25613 N 2500.95 0.855472 -1.32361 0
M  V30 25614 C 2501.89 1.98538 -1.21183 0
M  V30 25615 C 2502.89 1.68997 -0.116818 0
M  V30 25616 O 2504.09 1.77814 -0.279688 0
M  V30 25617 H 2500.47 0.651471 -0.375619 0
M  V30 25618 H 2502.44 2.05094 -2.16747 0
M  V30 25619 C 2501.19 3.34444 -0.950908 0
M  V30 25620 H 2500.51 3.57705 -1.7857 0
M  V30 25621 H 2501.95 4.14055 -0.912936 0
M  V30 25622 C 2500.41 3.35115 0.346346 0
M  V30 25623 O 2500.94 3.78032 1.35848 0
M  V30 25624 N 2499.15 2.8826 0.368029 0
M  V30 25625 H 2498.69 2.53529 -0.456147 0
M  V30 25626 H 2498.65 2.89091 1.23586 0
M  V30 25627 N 2502.42 1.15558 1.07164 0
M  V30 25628 C 2503.67 0.926164 1.79179 0
M  V30 25629 C 2503.99 -0.547934 1.87769 0
M  V30 25630 O 2505.19 -0.894991 2.56324 0
M  V30 25631 C 2503.65 1.60766 3.21997 0
M  V30 25632 C 2503.26 3.11891 3.21602 0
M  V30 25633 C 2505 1.45987 3.98608 0
M  V30 25634 C 2502.91 3.7282 4.59085 0
M  V30 25635 H 2501.84 0.342868 0.671534 0
M  V30 25636 H 2504.49 1.38593 1.20268 0
M  V30 25637 H 2502.87 1.0756 3.81113 0
M  V30 25638 H 2504.04 3.7187 2.7212 0
M  V30 25639 H 2502.36 3.26454 2.58489 0
M  V30 25640 H 2504.96 1.88897 5.00222 0
M  V30 25641 H 2505.3 0.407614 4.143 0
M  V30 25642 H 2505.83 1.96301 3.45992 0
M  V30 25643 H 2502.57 4.77954 4.48598 0
M  V30 25644 H 2502.09 3.17624 5.08797 0
M  V30 25645 H 2503.77 3.73858 5.28052 0
M  V30 25646 N 2503.9 -1.25546 0.952678 0
M  V30 25647 C 2505.14 -1.94959 0.614047 0
M  V30 25648 C 2505.51 -1.7298 -0.833185 0
M  V30 25649 O 2506.71 -2.36296 -1.28131 0
M  V30 25650 C 2504.98 -3.44248 0.960623 0
M  V30 25651 S 2506.54 -4.32613 0.734271 0
M  V30 25652 H 2503.35 -0.674204 0.225766 0
M  V30 25653 H 2505.96 -1.52245 1.22644 0
M  V30 25654 H 2504.66 -3.57747 2.01109 0
M  V30 25655 H 2504.19 -3.91942 0.338405 0
M  V30 25656 H 2506.21 -4.94618 -0.395908 0
M  V30 25657 N 2505.38 -0.721022 -1.40139 0
M  V30 25658 C 2506.31 -0.0325072 -2.29177 0
M  V30 25659 C 2507.32 0.7181 -1.46107 0
M  V30 25660 O 2508.51 0.564578 -1.69336 0
M  V30 25661 C 2505.61 0.978235 -3.24475 0
M  V30 25662 C 2504.79 0.292039 -4.36424 0
M  V30 25663 C 2503.85 1.20892 -5.12124 0
M  V30 25664 O 2502.87 0.691667 -5.64982 0
M  V30 25665 N 2504.07 2.53969 -5.21996 0
M  V30 25666 H 2506.84 -0.797035 -2.88907 0
M  V30 25667 H 2504.4 -0.569094 -1.51568 0
M  V30 25668 H 2506.39 1.59391 -3.7199 0
M  V30 25669 H 2504.96 1.64408 -2.65874 0
M  V30 25670 H 2504.18 -0.503916 -3.90966 0
M  V30 25671 H 2505.47 -0.184061 -5.08467 0
M  V30 25672 H 2504.87 2.98484 -4.80545 0
M  V30 25673 H 2503.42 3.10667 -5.73 0
M  V30 25674 N 2506.86 1.50503 -0.467606 0
M  V30 25675 C 2508.27 1.86696 -0.0116494 0
M  V30 25676 C 2508.62 1.38267 1.392 0
M  V30 25677 O 2507.74 0.746168 2.03129 0
M  V30 25678 C 2508.34 3.38797 -0.014364 0
M  V30 25679 C 2506.9 3.74414 0.386109 0
M  V30 25680 C 2506.05 2.7438 -0.401335 0
M  V30 25681 H 2509 1.43296 -0.682047 0
M  V30 25682 H 2509.02 3.72239 0.788576 0
M  V30 25683 H 2508.53 3.74015 -1.03608 0
M  V30 25684 H 2506.63 3.44796 1.41231 0
M  V30 25685 H 2506.74 4.79016 0.0898754 0
M  V30 25686 H 2505.11 2.5429 0.144491 0
M  V30 25687 H 2505.89 3.12442 -1.4225 0
M  V30 25688 N 2508.34 0.200077 1.56325 0
M  V30 25689 C 2509.27 -0.713877 2.2232 0
M  V30 25690 C 2510.25 -1.2175 1.1879 0
M  V30 25691 O 2511.43 -1.26543 1.47311 0
M  V30 25692 C 2508.56 -1.93139 2.88643 0
M  V30 25693 C 2507.52 -1.56248 3.9846 0
M  V30 25694 C 2506.84 -2.85701 4.51972 0
M  V30 25695 C 2508.14 -0.768656 5.16613 0
M  V30 25696 H 2509.84 -0.163702 2.98952 0
M  V30 25697 H 2507.38 -0.0772966 1.43792 0
M  V30 25698 H 2509.33 -2.57602 3.33495 0
M  V30 25699 H 2508.06 -2.50618 2.09424 0
M  V30 25700 H 2506.72 -0.941409 3.54306 0
M  V30 25701 H 2506.37 -3.4128 3.69509 0
M  V30 25702 H 2506.07 -2.61761 5.26075 0
M  V30 25703 H 2507.59 -3.51145 4.99529 0
M  V30 25704 H 2509 -1.3165 5.57979 0
M  V30 25705 H 2507.4 -0.627181 5.96814 0
M  V30 25706 H 2508.47 0.229253 4.84358 0
M  V30 25707 N 2509.81 -1.57429 -0.0734901 0
M  V30 25708 C 2510.76 -2.04609 -1.10625 0
M  V30 25709 C 2511.76 -0.951113 -1.40179 0
M  V30 25710 O 2512.96 -1.13623 -1.39606 0
M  V30 25711 H 2509.34 -0.652358 -0.374076 0
M  V30 25712 H 2511.31 -2.90498 -0.682167 0
M  V30 25713 C 2510.06 -2.50428 -2.41208 0
M  V30 25714 H 2509.38 -3.34276 -2.19317 0
M  V30 25715 H 2510.82 -2.87195 -3.11922 0
M  V30 25716 C 2509.28 -1.3865 -3.07047 0
M  V30 25717 O 2509.81 -0.727652 -3.95055 0
M  V30 25718 N 2508.01 -1.13205 -2.67643 0
M  V30 25719 H 2507.56 -1.66963 -1.96166 0
M  V30 25720 H 2507.52 -0.386202 -3.12019 0
M  V30 25721 N 2511.29 0.344839 -1.53781 0
M  V30 25722 C 2512.7 0.920523 -1.62429 0
M  V30 25723 C 2513.05 1.89595 -0.504781 0
M  V30 25724 O 2512.18 2.13288 0.365673 0
M  V30 25725 C 2512.77 1.67634 -2.94422 0
M  V30 25726 C 2511.33 2.20106 -3.05336 0
M  V30 25727 C 2510.48 1.01978 -2.57868 0
M  V30 25728 H 2513.43 0.123014 -1.58223 0
M  V30 25729 H 2513.45 2.53912 -2.83389 0
M  V30 25730 H 2512.96 0.966158 -3.75882 0
M  V30 25731 H 2511.06 2.94304 -2.28508 0
M  V30 25732 H 2511.18 2.46566 -4.10782 0
M  V30 25733 H 2509.54 1.39281 -2.13243 0
M  V30 25734 H 2510.32 0.324248 -3.41765 0
M  V30 25735 N 2512.77 1.45492 0.605781 0
M  V30 25736 C 2513.7 1.48794 1.73019 0
M  V30 25737 C 2514.68 0.34414 1.58916 0
M  V30 25738 O 2515.86 0.544908 1.80452 0
M  V30 25739 C 2512.99 1.34469 3.10863 0
M  V30 25740 C 2512.04 2.52737 3.4355 0
M  V30 25741 S 2512.87 4.15197 3.38189 0
M  V30 25742 C 2514.03 4.03341 4.78609 0
M  V30 25743 H 2514.26 2.43931 1.69956 0
M  V30 25744 H 2511.79 1.33097 0.782587 0
M  V30 25745 H 2513.75 1.26891 3.90396 0
M  V30 25746 H 2512.41 0.407995 3.11439 0
M  V30 25747 H 2511.6 2.38644 4.4392 0
M  V30 25748 H 2511.21 2.57185 2.71536 0
M  V30 25749 H 2513.5 3.68597 5.68456 0
M  V30 25750 H 2514.44 5.03629 4.97758 0
M  V30 25751 H 2514.85 3.34967 4.54375 0
M  V30 25752 N 2514.25 -0.848441 1.32813 0
M  V30 25753 C 2515.2 -1.94576 1.18846 0
M  V30 25754 C 2516.18 -1.60626 0.0937799 0
M  V30 25755 O 2517.37 -1.74066 0.320917 0
M  V30 25756 C 2514.5 -3.30742 0.920048 0
M  V30 25757 C 2513.59 -3.70891 2.05672 0
M  V30 25758 N 2513.98 -3.82814 3.30586 0
M  V30 25759 C 2512.28 -4.00562 1.96127 0
M  V30 25760 C 2512.98 -4.1748 4.05074 0
M  V30 25761 N 2511.96 -4.29334 3.33427 0
M  V30 25762 H 2515.76 -2.01936 2.13539 0
M  V30 25763 H 2513.27 -1.04058 1.24682 0
M  V30 25764 H 2515.27 -4.09134 0.800931 0
M  V30 25765 H 2513.93 -3.24695 -0.0184505 0
M  V30 25766 H 2514.94 -3.66972 3.65448 0
M  V30 25767 H 2511.62 -4.02782 1.09878 0
M  V30 25768 H 2513.01 -4.34122 5.12823 0
M  V30 25769 N 2515.73 -1.16125 -1.06549 0
M  V30 25770 C 2516.97 -0.939299 -1.78946 0
M  V30 25771 C 2517.3 0.534443 -1.87533 0
M  V30 25772 O 2516.57 1.3883 -1.38213 0
M  V30 25773 H 2515.15 -0.344534 -0.662801 0
M  V30 25774 H 2517.81 -1.46344 -1.28722 0
M  V30 25775 H 2516.9 -1.35577 -2.81114 0
M  V30 25776 N 2517.2 1.25039 -0.959323 0
M  V30 25777 C 2518.45 1.93168 -0.617559 0
M  V30 25778 C 2518.78 1.74903 0.843951 0
M  V30 25779 O 2518.06 1.09699 1.60613 0
M  V30 25780 C 2518.34 3.46429 -0.982796 0
M  V30 25781 C 2518.19 3.739 -2.50038 0
M  V30 25782 C 2519.51 4.3712 -0.511253 0
M  V30 25783 H 2516.63 0.701548 -0.225832 0
M  V30 25784 H 2519.27 1.47568 -1.19682 0
M  V30 25785 H 2517.42 3.85399 -0.489874 0
M  V30 25786 H 2519.1 3.44538 -3.06743 0
M  V30 25787 H 2517.34 3.19342 -2.93603 0
M  V30 25788 H 2518.01 4.81099 -2.70644 0
M  V30 25789 H 2520.49 4.05479 -0.934146 0
M  V30 25790 H 2519.36 5.43106 -0.795456 0
M  V30 25791 H 2519.62 4.38162 0.588757 0
M  V30 25792 N 2518.68 0.728444 1.39755 0
M  V30 25793 C 2520.09 0.344321 1.83497 0
M  V30 25794 C 2520.44 -1.12318 1.6087 0
M  V30 25795 O 2519.57 -1.86571 1.09637 0
M  V30 25796 C 2520.16 0.61817 3.33113 0
M  V30 25797 C 2518.72 0.287615 3.753 0
M  V30 25798 C 2517.87 0.884094 2.62829 0
M  V30 25799 H 2520.82 0.926601 1.2884 0
M  V30 25800 H 2520.84 -0.112282 3.80334 0
M  V30 25801 H 2520.35 1.68631 3.4955 0
M  V30 25802 H 2518.46 -0.774948 3.64452 0
M  V30 25803 H 2518.57 0.765595 4.72943 0
M  V30 25804 H 2516.93 0.311194 2.52792 0
M  V30 25805 H 2517.72 1.95676 2.82074 0
M  V30 25806 N 2520.16 -1.50253 0.475581 0
M  V30 25807 C 2521.4 -2.04257 -0.0765443 0
M  V30 25808 C 2521.76 -1.34939 -1.36585 0
M  V30 25809 O 2522.97 -1.79523 -2.00063 0
M  V30 25810 C 2521.24 -3.56513 -0.251605 0
M  V30 25811 S 2522.8 -4.32139 -0.76164 0
M  V30 25812 H 2519.61 -0.710865 -0.0138331 0
M  V30 25813 H 2522.22 -1.84597 0.643746 0
M  V30 25814 H 2520.92 -4.04516 0.692476 0
M  V30 25815 H 2520.45 -3.80534 -0.997879 0
M  V30 25816 H 2522.47 -4.52576 -2.03443 0
M  V30 25817 N 2521.64 -0.208365 -1.56217 0
M  V30 25818 C 2523.05 0.301871 -1.84243 0
M  V30 25819 C 2523.4 1.60432 -1.12942 0
M  V30 25820 O 2522.53 2.12771 -0.394647 0
M  V30 25821 C 2523.12 0.554484 -3.34232 0
M  V30 25822 C 2521.68 1.00906 -3.62622 0
M  V30 25823 C 2520.83 0.0648843 -2.77224 0
M  V30 25824 H 2523.78 -0.43186 -1.52711 0
M  V30 25825 H 2523.8 1.40216 -3.53723 0
M  V30 25826 H 2523.31 -0.393629 -3.86099 0
M  V30 25827 H 2521.41 1.97099 -3.16201 0
M  V30 25828 H 2521.52 0.892591 -4.70712 0
M  V30 25829 H 2519.89 0.569247 -2.48257 0
M  V30 25830 H 2520.67 -0.87791 -3.31885 0
M  V30 25831 N 2523.12 1.57465 0.0651402 0
M  V30 25832 C 2524.08 2.03157 1.06113 0
M  V30 25833 C 2525.08 0.929655 1.31202 0
M  V30 25834 O 2526.27 1.19435 1.26811 0
M  V30 25835 C 2523.4 2.41788 2.40315 0
M  V30 25836 H 2524.59 2.92385 0.667179 0
M  V30 25837 H 2522.15 1.53174 0.311048 0
M  V30 25838 H 2522.88 1.55606 2.8453 0
M  V30 25839 H 2522.67 3.22203 2.23445 0
M  V30 25840 H 2524.16 2.77691 3.11893 0
M  V30 25841 N 2524.59 -0.336679 1.53962 0
M  V30 25842 C 2525.84 -1.07402 1.71199 0
M  V30 25843 C 2526.16 -1.88962 0.481509 0
M  V30 25844 O 2525.43 -1.89291 -0.504552 0
M  V30 25845 H 2524.01 -0.399506 0.631192 0
M  V30 25846 H 2526.68 -0.37629 1.91233 0
M  V30 25847 H 2525.77 -1.74751 2.5859 0
M  V30 25848 N 2526.07 -1.45812 -0.598057 0
M  V30 25849 C 2527.04 -1.54811 -1.69015 0
M  V30 25850 C 2528.04 -0.426679 -1.55036 0
M  V30 25851 O 2529.23 -0.690485 -1.59931 0
M  V30 25852 C 2526.36 -1.45377 -3.08348 0
M  V30 25853 H 2527.55 -2.52124 -1.62399 0
M  V30 25854 H 2525.1 -1.33394 -0.814603 0
M  V30 25855 H 2525.84 -0.49285 -3.20533 0
M  V30 25856 H 2525.62 -2.26726 -3.19903 0
M  V30 25857 H 2527.11 -1.54728 -3.87878 0
M  V30 25858 N 2527.55 0.841385 -1.33261 0
M  V30 25859 C 2528.51 1.93257 -1.23224 0
M  V30 25860 C 2529.51 1.60081 -0.151923 0
M  V30 25861 O 2530.7 1.69468 -0.403276 0
M  V30 25862 C 2527.84 3.28855 -0.89818 0
M  V30 25863 H 2529.03 2.03583 -2.20214 0
M  V30 25864 H 2526.58 1.03317 -1.17283 0
M  V30 25865 H 2527.32 3.24226 0.0693271 0
M  V30 25866 H 2527.1 3.54314 -1.6794 0
M  V30 25867 H 2528.59 4.08803 -0.852635 0
M  V30 25868 N 2529.03 1.16688 1.05932 0
M  V30 25869 C 2530.28 0.952062 1.79063 0
M  V30 25870 C 2530.61 -0.518597 1.87148 0
M  V30 25871 O 2529.88 -1.38481 1.36577 0
M  V30 25872 C 2530.17 1.58469 3.23357 0
M  V30 25873 C 2530.02 3.12694 3.2333 0
M  V30 25874 C 2531.34 1.2824 4.21002 0
M  V30 25875 H 2528.46 0.347292 0.650044 0
M  V30 25876 H 2531.1 1.44074 1.23866 0
M  V30 25877 H 2529.25 1.16915 3.7049 0
M  V30 25878 H 2530.92 3.63255 2.84329 0
M  V30 25879 H 2529.16 3.45834 2.6188 0
M  V30 25880 H 2529.84 3.52082 4.25138 0
M  V30 25881 H 2532.31 1.6421 3.82327 0
M  V30 25882 H 2531.19 1.75101 5.20222 0
M  V30 25883 H 2531.45 0.201869 4.41639 0
M  V30 25884 N 2530.51 -1.24529 0.96594 0
M  V30 25885 C 2531.75 -1.94296 0.63469 0
M  V30 25886 C 2532.11 -1.73854 -0.814791 0
M  V30 25887 O 2533.31 -2.37642 -1.25618 0
M  V30 25888 C 2531.58 -3.4321 0.997081 0
M  V30 25889 S 2533.14 -4.3181 0.780114 0
M  V30 25890 H 2529.96 -0.671771 0.232904 0
M  V30 25891 H 2532.56 -1.50936 1.24252 0
M  V30 25892 H 2531.27 -3.55594 2.04892 0
M  V30 25893 H 2530.8 -3.91561 0.379957 0
M  V30 25894 H 2532.81 -4.9501 -0.343425 0
M  V30 25895 N 2531.99 -0.735845 -1.39367 0
M  V30 25896 C 2532.93 -0.096423 -2.30598 0
M  V30 25897 C 2533.9 0.728768 -1.49259 0
M  V30 25898 O 2535.09 0.688557 -1.77943 0
M  V30 25899 C 2532.23 0.804246 -3.35598 0
M  V30 25900 C 2531.34 -0.033652 -4.31987 0
M  V30 25901 C 2530.48 0.868369 -5.24054 0
M  V30 25902 C 2529.51 0.02577 -6.12095 0
M  V30 25903 N 2528.65 0.883771 -6.96516 0
M  V30 25904 H 2533.49 -0.880052 -2.84709 0
M  V30 25905 H 2531.03 -0.445644 -1.40187 0
M  V30 25906 H 2532.99 1.34089 -3.95064 0
M  V30 25907 H 2531.62 1.55384 -2.82941 0
M  V30 25908 H 2530.67 -0.687726 -3.74132 0
M  V30 25909 H 2531.98 -0.685123 -4.94072 0
M  V30 25910 H 2531.13 1.47283 -5.88551 0
M  V30 25911 H 2529.87 1.55362 -4.62292 0
M  V30 25912 H 2528.88 -0.591482 -5.46609 0
M  V30 25913 H 2530.1 -0.656274 -6.75921 0
M  V30 25914 H 2528.05 1.5543 -6.37321 0
M  V30 25915 H 2527.97 0.288798 -7.55448 0
M  V30 25916 H 2529.23 1.47376 -7.65441 0
M  V30 25917 N 2533.46 1.49999 -0.483543 0
M  V30 25918 C 2534.71 2.02689 0.0672236 0
M  V30 25919 C 2535.04 1.36389 1.38245 0
M  V30 25920 O 2534.32 0.493708 1.8813 0
M  V30 25921 C 2534.6 3.59312 0.238046 0
M  V30 25922 C 2534.45 4.36166 -1.09907 0
M  V30 25923 C 2535.77 4.28893 0.98684 0
M  V30 25924 H 2532.89 0.736642 0.0229566 0
M  V30 25925 H 2535.53 1.79196 -0.631558 0
M  V30 25926 H 2533.68 3.79459 0.833233 0
M  V30 25927 H 2535.36 4.27559 -1.7318 0
M  V30 25928 H 2533.6 3.99413 -1.69268 0
M  V30 25929 H 2534.27 5.44057 -0.93305 0
M  V30 25930 H 2536.75 4.13296 0.48223 0
M  V30 25931 H 2535.62 5.38267 1.07518 0
M  V30 25932 H 2535.88 3.92923 2.02643 0
M  V30 25933 N 2534.94 0.216646 1.56104 0
M  V30 25934 C 2536.35 -0.292096 1.84401 0
M  V30 25935 C 2536.7 -1.59831 1.13791 0
M  V30 25936 O 2535.83 -2.12559 0.405925 0
M  V30 25937 C 2536.42 -0.536751 3.34521 0
M  V30 25938 C 2534.98 -0.989813 3.63152 0
M  V30 25939 C 2534.13 -0.0501815 2.77255 0
M  V30 25940 H 2537.08 0.439953 1.5248 0
M  V30 25941 H 2537.1 -1.38338 3.54461 0
M  V30 25942 H 2536.61 0.414099 3.85884 0
M  V30 25943 H 2534.71 -1.95419 3.17241 0
M  V30 25944 H 2534.83 -0.867615 4.71179 0
M  V30 25945 H 2533.19 -0.556073 2.48556 0
M  V30 25946 H 2533.97 0.895498 3.31415 0
M  V30 25947 N 2536.42 -1.57498 -0.0567885 0
M  V30 25948 C 2537.67 -1.87159 -0.751968 0
M  V30 25949 C 2537.98 -0.811406 -1.77976 0
M  V30 25950 O 2539.19 -0.996338 -2.52558 0
M  V30 25951 C 2537.64 -3.32042 -1.38838 0
M  V30 25952 C 2537.25 -4.46225 -0.398377 0
M  V30 25953 C 2539 -3.70885 -2.06505 0
M  V30 25954 C 2536.9 -5.82156 -1.04156 0
M  V30 25955 H 2535.83 -0.698227 -0.284597 0
M  V30 25956 H 2538.48 -1.83499 -0.00558046 0
M  V30 25957 H 2536.87 -3.3036 -2.18354 0
M  V30 25958 H 2538.04 -4.59328 0.368058 0
M  V30 25959 H 2536.35 -4.16034 0.174665 0
M  V30 25960 H 2538.95 -4.69745 -2.55429 0
M  V30 25961 H 2539.29 -3.0145 -2.87112 0
M  V30 25962 H 2539.83 -3.74623 -1.33801 0
M  V30 25963 H 2536.57 -6.54921 -0.275498 0
M  V30 25964 H 2536.09 -5.72826 -1.7785 0
M  V30 25965 H 2537.77 -6.27985 -1.55704 0
M  V30 25966 N 2537.9 0.328509 -1.54138 0
M  V30 25967 C 2539.17 1.08496 -1.62751 0
M  V30 25968 C 2539.55 2.06067 -0.458234 0
M  V30 25969 O 2538.9 2.21831 0.548007 0
M  V30 25970 C 2539.11 1.79129 -2.99522 0
M  V30 25971 C 2540.46 2.3233 -3.55398 0
M  V30 25972 O 2541.48 1.89204 -3.01795 0
M  V30 25973 O 2540.34 3.11271 -4.49191 0
M  V30 25974 H 2537.44 0.499821 -0.658869 0
M  V30 25975 H 2539.98 0.328797 -1.66484 0
M  V30 25976 H 2538.76 1.08132 -3.76063 0
M  V30 25977 H 2538.38 2.61568 -2.99446 0
M  V30 25978 N 2539.38 1.46127 0.590316 0
M  V30 25979 C 2540.62 1.50744 1.34613 0
M  V30 25980 C 2540.94 0.15752 1.94363 0
M  V30 25981 O 2540.21 -0.815104 1.78137 0
M  V30 25982 H 2538.79 0.555184 0.49978 0
M  V30 25983 H 2541.46 1.82204 0.691921 0
M  V30 25984 H 2540.55 2.25591 2.15674 0
M  V30 25985 N 2540.85 -0.834306 1.33705 0
M  V30 25986 C 2542.26 -1.40617 1.22815 0
M  V30 25987 C 2542.62 -1.95618 -0.151073 0
M  V30 25988 O 2541.74 -1.8917 -1.05089 0
M  V30 25989 C 2542.34 -2.5562 2.2236 0
M  V30 25990 C 2540.89 -3.08747 2.15295 0
M  V30 25991 C 2540.04 -1.81566 2.09592 0
M  V30 25992 H 2542.99 -0.639677 1.45237 0
M  V30 25993 H 2543.01 -3.33385 1.83397 0
M  V30 25994 H 2542.53 -2.1556 3.22731 0
M  V30 25995 H 2540.63 -3.53341 1.18241 0
M  V30 25996 H 2540.74 -3.68611 3.06044 0
M  V30 25997 H 2539.1 -2.02001 1.55138 0
M  V30 25998 H 2539.89 -1.43696 3.11779 0
M  V30 25999 N 2542.33 -1.17248 -1.05312 0
M  V30 26000 C 2543.74 -0.966258 -1.59751 0
M  V30 26001 C 2544.09 0.487344 -1.90051 0
M  V30 26002 O 2543.22 1.36242 -1.68128 0
M  V30 26003 C 2543.81 -1.74764 -2.90246 0
M  V30 26004 C 2542.37 -1.58612 -3.41349 0
M  V30 26005 C 2541.52 -1.75006 -2.151 0
M  V30 26006 H 2544.47 -1.31975 -0.881383 0
M  V30 26007 H 2544.49 -1.22931 -3.60095 0
M  V30 26008 H 2544 -2.80555 -2.68161 0
M  V30 26009 H 2542.1 -0.55305 -3.68473 0
M  V30 26010 H 2542.22 -2.37631 -4.16015 0
M  V30 26011 H 2540.58 -1.17837 -2.25802 0
M  V30 26012 H 2541.36 -2.82206 -1.95486 0
M  V30 26013 N 2543.81 1.24015 -0.972531 0
M  V30 26014 C 2545.06 1.91522 -0.632636 0
M  V30 26015 C 2545.37 1.76806 0.83661 0
M  V30 26016 O 2546.58 2.39045 1.28723 0
M  V30 26017 C 2545.03 3.43286 -1.08088 0
M  V30 26018 C 2544.64 3.66679 -2.57392 0
M  V30 26019 C 2546.39 4.16615 -0.814362 0
M  V30 26020 C 2544.29 5.12038 -2.95924 0
M  V30 26021 H 2543.22 0.717125 -0.232911 0
M  V30 26022 H 2545.87 1.4058 -1.17938 0
M  V30 26023 H 2544.26 3.93291 -0.462409 0
M  V30 26024 H 2545.43 3.27253 -3.24411 0
M  V30 26025 H 2543.75 3.06644 -2.81706 0
M  V30 26026 H 2546.34 5.23717 -1.07819 0
M  V30 26027 H 2546.69 4.15552 0.249477 0
M  V30 26028 H 2547.22 3.72574 -1.39404 0
M  V30 26029 H 2543.96 5.18227 -4.01399 0
M  V30 26030 H 2543.48 5.52444 -2.33593 0
M  V30 26031 H 2545.16 5.80309 -2.86096 0
M  V30 26032 N 2545.29 0.743226 1.38974 0
M  V30 26033 C 2546.57 0.220739 1.9435 0
M  V30 26034 C 2546.95 -1.27907 1.67937 0
M  V30 26035 O 2546.29 -2.04861 1.01215 0
M  V30 26036 C 2546.5 0.563231 3.44425 0
M  V30 26037 C 2547.85 0.517121 4.21439 0
M  V30 26038 O 2548.88 0.500908 3.5266 0
M  V30 26039 O 2547.73 0.518901 5.44031 0
M  V30 26040 H 2544.83 0.0430616 0.825878 0
M  V30 26041 H 2547.37 0.822644 1.48427 0
M  V30 26042 H 2546.15 1.59947 3.57117 0
M  V30 26043 H 2545.77 -0.0672184 3.97543 0
M  V30 26044 N 2546.77 -1.4974 0.491491 0
M  V30 26045 C 2548.02 -2.01616 -0.0581834 0
M  V30 26046 C 2548.33 -1.37693 -1.38925 0
M  V30 26047 O 2549.53 -1.80842 -2.02506 0
M  V30 26048 C 2547.99 -3.5957 -0.154172 0
M  V30 26049 C 2547.6 -4.32461 1.16968 0
M  V30 26050 C 2549.34 -4.19421 -0.654717 0
M  V30 26051 C 2547.25 -5.82249 1.03637 0
M  V30 26052 H 2546.18 -0.753568 -0.0255184 0
M  V30 26053 H 2548.83 -1.72365 0.629475 0
M  V30 26054 H 2547.21 -3.85495 -0.90607 0
M  V30 26055 H 2548.39 -4.18244 1.93412 0
M  V30 26056 H 2546.7 -3.84312 1.60292 0
M  V30 26057 H 2549.3 -5.291 -0.77181 0
M  V30 26058 H 2549.64 -3.82153 -1.6512 0
M  V30 26059 H 2550.17 -3.9778 0.040374 0
M  V30 26060 H 2546.91 -6.24024 2.00683 0
M  V30 26061 H 2546.43 -5.98985 0.312651 0
M  V30 26062 H 2548.11 -6.43079 0.711227 0
M  V30 26063 N 2548.24 -0.224922 -1.55987 0
M  V30 26064 C 2549.49 0.405064 -1.97999 0
M  V30 26065 C 2549.81 1.60054 -1.1139 0
M  V30 26066 O 2549.08 1.9496 -0.191679 0
M  V30 26067 H 2547.66 0.152645 -0.731238 0
M  V30 26068 H 2550.33 -0.318601 -1.92278 0
M  V30 26069 H 2549.42 0.729113 -3.03464 0
M  V30 26070 N 2549.72 1.57526 0.0484352 0
M  V30 26071 C 2551.14 1.54409 0.403723 0
M  V30 26072 C 2551.34 0.948415 1.77785 0
M  V30 26073 O 2550.39 0.561026 2.46188 0
M  V30 26074 C 2551.71 2.98957 0.323341 0
M  V30 26075 C 2553.26 3.1041 0.401837 0
M  V30 26076 C 2553.73 4.56652 0.351115 0
M  V30 26077 N 2555.22 4.61377 0.410495 0
M  V30 26078 C 2555.96 5.72046 0.393833 0
M  V30 26079 N 2555.45 6.92011 0.330602 0
M  V30 26080 N 2557.25 5.60358 0.442128 0
M  V30 26081 H 2549.4 1.94604 -0.851051 0
M  V30 26082 H 2551.66 0.891734 -0.321736 0
M  V30 26083 H 2551.37 3.46189 -0.620171 0
M  V30 26084 H 2551.24 3.60046 1.12456 0
M  V30 26085 H 2553.63 2.63137 1.33578 0
M  V30 26086 H 2553.71 2.52187 -0.428386 0
M  V30 26087 H 2553.35 5.04588 -0.579075 0
M  V30 26088 H 2553.28 5.12764 1.19919 0
M  V30 26089 H 2555.77 3.75057 0.462663 0
M  V30 26090 H 2556.09 7.72127 0.322457 0
M  V30 26091 H 2554.43 6.94365 0.296938 0
M  V30 26092 H 2557.62 4.65535 0.489382 0
M  V30 26093 H 2557.79 6.466 0.425675 0
M  V30 26094 N 2551.2 -0.32033 1.5431 0
M  V30 26095 C 2552.45 -1.05946 1.72926 0
M  V30 26096 C 2552.78 -1.87567 0.503218 0
M  V30 26097 O 2552.05 -1.87969 -0.499806 0
M  V30 26098 C 2552.34 -1.9815 3.0068 0
M  V30 26099 C 2552.19 -1.19838 4.33542 0
M  V30 26100 C 2553.51 -2.97625 3.24203 0
M  V30 26101 H 2550.63 -0.383763 0.629202 0
M  V30 26102 H 2553.27 -0.335821 1.87009 0
M  V30 26103 H 2551.42 -2.59854 2.88804 0
M  V30 26104 H 2553.09 -0.605693 4.57306 0
M  V30 26105 H 2551.34 -0.500708 4.30901 0
M  V30 26106 H 2552.01 -1.87558 5.19159 0
M  V30 26107 H 2554.48 -2.46044 3.35562 0
M  V30 26108 H 2553.36 -3.59322 4.14945 0
M  V30 26109 H 2553.62 -3.70256 2.41584 0
M  V30 26110 N 2552.68 -1.46438 -0.582558 0
M  V30 26111 C 2553.64 -1.56595 -1.67363 0
M  V30 26112 C 2554.64 -0.443099 -1.54574 0
M  V30 26113 O 2555.83 -0.707409 -1.5919 0
M  V30 26114 C 2552.96 -1.48639 -3.06789 0
M  V30 26115 H 2554.16 -2.53833 -1.59715 0
M  V30 26116 H 2551.71 -1.3425 -0.800409 0
M  V30 26117 H 2552.44 -0.526819 -3.19992 0
M  V30 26118 H 2552.23 -2.30106 -3.1748 0
M  V30 26119 H 2553.72 -1.58833 -3.86215 0
M  V30 26120 N 2554.16 0.827204 -1.34146 0
M  V30 26121 C 2555.4 1.58004 -1.26012 0
M  V30 26122 C 2555.73 1.94249 0.170937 0
M  V30 26123 O 2555 1.61929 1.10253 0
M  V30 26124 H 2553.58 0.585873 -0.463424 0
M  V30 26125 H 2556.24 0.987922 -1.68006 0
M  V30 26126 H 2555.33 2.50478 -1.86191 0
M  V30 26127 N 2555.63 1.17805 1.04688 0
M  V30 26128 C 2557.05 0.974717 1.59236 0
M  V30 26129 C 2557.4 -0.477259 1.90307 0
M  V30 26130 O 2556.52 -1.35349 1.68848 0
M  V30 26131 C 2557.12 1.76301 2.89315 0
M  V30 26132 C 2555.68 1.6042 3.40503 0
M  V30 26133 C 2554.82 1.76144 2.14169 0
M  V30 26134 H 2557.77 1.3244 0.874371 0
M  V30 26135 H 2557.79 1.24839 3.59438 0
M  V30 26136 H 2557.31 2.81973 2.6667 0
M  V30 26137 H 2555.41 0.572583 3.68174 0
M  V30 26138 H 2555.52 2.39834 4.14749 0
M  V30 26139 H 2553.88 1.19032 2.25174 0
M  V30 26140 H 2554.67 2.83238 1.93987 0
M  V30 26141 N 2557.11 -1.23497 0.979094 0
M  V30 26142 C 2558.52 -1.73703 0.684422 0
M  V30 26143 C 2558.87 -1.79175 -0.799417 0
M  V30 26144 O 2558 -1.42876 -1.62528 0
M  V30 26145 C 2558.59 -3.15462 1.2357 0
M  V30 26146 C 2557.15 -3.63128 0.990694 0
M  V30 26147 C 2556.3 -2.41422 1.36421 0
M  V30 26148 H 2559.25 -1.09039 1.15309 0
M  V30 26149 H 2559.27 -3.75619 0.607483 0
M  V30 26150 H 2558.78 -3.11446 2.31566 0
M  V30 26151 H 2556.89 -3.72528 -0.0732481 0
M  V30 26152 H 2557 -4.49998 1.64435 0
M  V30 26153 H 2555.36 -2.42377 0.782658 0
M  V30 26154 H 2556.15 -2.40079 2.45391 0
M  V30 26155 N 2558.59 -0.750586 -1.38578 0
M  V30 26156 C 2559.84 -0.302207 -1.99423 0
M  V30 26157 C 2560.15 1.1215 -1.60255 0
M  V30 26158 O 2561.36 1.67019 -2.14049 0
M  V30 26159 C 2559.82 -0.48937 -3.56557 0
M  V30 26160 C 2559.42 -1.92196 -4.04678 0
M  V30 26161 C 2561.17 -0.103553 -4.24374 0
M  V30 26162 C 2559.07 -2.05785 -5.54443 0
M  V30 26163 H 2558 -0.109243 -0.746044 0
M  V30 26164 H 2560.66 -0.926698 -1.58381 0
M  V30 26165 H 2559.04 0.204259 -3.95473 0
M  V30 26166 H 2560.21 -2.64882 -3.7706 0
M  V30 26167 H 2558.53 -2.26242 -3.49576 0
M  V30 26168 H 2561.12 -0.183881 -5.34384 0
M  V30 26169 H 2561.47 0.943409 -4.05469 0
M  V30 26170 H 2562 -0.748923 -3.90687 0
M  V30 26171 H 2558.74 -3.08725 -5.78247 0
M  V30 26172 H 2558.26 -1.37556 -5.83814 0
M  V30 26173 H 2559.94 -1.84637 -6.20095 0
M  V30 26174 N 2560.07 1.49477 -0.499425 0
M  V30 26175 C 2561 2.31943 0.269203 0
M  V30 26176 C 2561.98 1.40144 0.96403 0
M  V30 26177 O 2563.17 1.69054 0.955737 0
M  V30 26178 C 2560.3 3.20617 1.33499 0
M  V30 26179 C 2559.25 4.21196 0.760128 0
M  V30 26180 C 2558.58 4.98796 1.92631 0
M  V30 26181 C 2559.88 5.21712 -0.247753 0
M  V30 26182 H 2561.57 2.96452 -0.419134 0
M  V30 26183 H 2559.12 1.42562 -0.203013 0
M  V30 26184 H 2561.07 3.77119 1.88041 0
M  V30 26185 H 2559.79 2.54048 2.05249 0
M  V30 26186 H 2558.45 3.65837 0.236466 0
M  V30 26187 H 2558.1 4.28676 2.63146 0
M  V30 26188 H 2557.8 5.6685 1.54775 0
M  V30 26189 H 2559.32 5.58141 2.4761 0
M  V30 26190 H 2560.74 5.72917 0.209479 0
M  V30 26191 H 2559.13 5.97647 -0.542067 0
M  V30 26192 H 2560.2 4.70718 -1.16417 0
M  V30 26193 N 2561.55 0.233191 1.55865 0
M  V30 26194 C 2562.5 -0.688471 2.22177 0
M  V30 26195 C 2563.49 -1.19074 1.20489 0
M  V30 26196 O 2564.7 -1.14922 1.38538 0
M  V30 26197 H 2561.07 -0.24047 0.712515 0
M  V30 26198 H 2563.04 -0.105883 2.98212 0
M  V30 26199 C 2561.79 -1.88066 2.92449 0
M  V30 26200 H 2561.11 -1.5033 3.7046 0
M  V30 26201 H 2562.55 -2.50308 3.42231 0
M  V30 26202 C 2561.01 -2.74332 1.9556 0
M  V30 26203 O 2561.54 -3.73445 1.47993 0
M  V30 26204 N 2559.75 -2.4061 1.62957 0
M  V30 26205 H 2559.3 -1.60065 2.01834 0
M  V30 26206 H 2559.25 -2.98607 0.983939 0
M  V30 26207 N 2563.03 -1.57549 -0.0400806 0
M  V30 26208 C 2564.44 -1.77197 -0.588066 0
M  V30 26209 C 2564.79 -0.862863 -1.76208 0
M  V30 26210 O 2563.91 -0.0548769 -2.1633 0
M  V30 26211 C 2564.51 -3.21341 -1.07358 0
M  V30 26212 C 2563.07 -3.42223 -1.56717 0
M  V30 26213 C 2562.21 -2.72748 -0.500362 0
M  V30 26214 H 2565.16 -1.57605 0.186147 0
M  V30 26215 H 2565.19 -3.27248 -1.94137 0
M  V30 26216 H 2564.7 -3.87482 -0.218906 0
M  V30 26217 H 2562.8 -2.81242 -2.44405 0
M  V30 26218 H 2562.91 -4.50799 -1.62226 0
M  V30 26219 H 2561.28 -2.36205 -0.952853 0
M  V30 26220 H 2562.06 -3.41565 0.344659 0
M  V30 26221 N 2564.5 0.312142 -1.54478 0
M  V30 26222 C 2565.75 1.0463 -1.7244 0
M  V30 26223 C 2566.07 1.88802 -0.511196 0
M  V30 26224 O 2567.27 2.65398 -0.572388 0
M  V30 26225 C 2565.73 1.90984 -3.05046 0
M  V30 26226 C 2565.34 1.11869 -4.33808 0
M  V30 26227 C 2567.08 2.64067 -3.32369 0
M  V30 26228 C 2564.99 1.97435 -5.5747 0
M  V30 26229 H 2563.92 0.394349 -0.642654 0
M  V30 26230 H 2566.57 0.303898 -1.80966 0
M  V30 26231 H 2564.95 2.69168 -2.90455 0
M  V30 26232 H 2566.12 0.383762 -4.59199 0
M  V30 26233 H 2564.44 0.504179 -4.13336 0
M  V30 26234 H 2567.04 3.28415 -4.21957 0
M  V30 26235 H 2567.38 3.3231 -2.5075 0
M  V30 26236 H 2567.91 1.92938 -3.47879 0
M  V30 26237 H 2564.65 1.33681 -6.41724 0
M  V30 26238 H 2564.17 2.68631 -5.36281 0
M  V30 26239 H 2565.85 2.55749 -5.94307 0
M  V30 26240 N 2565.98 1.46745 0.574784 0
M  V30 26241 C 2566.94 1.57481 1.66531 0
M  V30 26242 C 2567.94 0.45129 1.54337 0
M  V30 26243 O 2569.13 0.715841 1.58812 0
M  V30 26244 C 2566.27 1.50264 3.05996 0
M  V30 26245 H 2567.46 2.54676 1.58367 0
M  V30 26246 H 2565.01 1.34673 0.793278 0
M  V30 26247 H 2565.75 0.543781 3.19708 0
M  V30 26248 H 2565.53 2.31787 3.16255 0
M  V30 26249 H 2567.02 1.60879 3.85367 0
M  V30 26250 N 2567.46 -0.820078 1.34583 0
M  V30 26251 C 2568.41 -1.95255 1.26404 0
M  V30 26252 C 2569.4 -1.68628 0.161583 0
M  V30 26253 O 2570.61 -1.7701 0.326734 0
M  V30 26254 H 2566.98 -0.641283 0.39276 0
M  V30 26255 H 2568.95 -1.99275 2.22108 0
M  V30 26256 C 2567.7 -3.31806 1.03925 0
M  V30 26257 H 2567.03 -3.52845 1.87991 0
M  V30 26258 H 2568.47 -4.11489 1.02239 0
M  V30 26259 C 2566.92 -3.35915 -0.257374 0
M  V30 26260 O 2567.45 -3.81501 -1.25778 0
M  V30 26261 N 2565.66 -2.89135 -0.291473 0
M  V30 26262 H 2565.21 -2.52231 0.523205 0
M  V30 26263 H 2565.17 -2.92266 -1.15878 0
M  V30 26264 N 2568.94 -1.18359 -1.04062 0
M  V30 26265 C 2569.85 -0.925634 -2.15567 0
M  V30 26266 C 2570.86 0.110265 -1.7365 0
M  V30 26267 O 2572.04 -0.0716572 -2.01272 0
M  V30 26268 C 2569.1 -0.454897 -3.43703 0
M  V30 26269 C 2568.17 -1.55877 -4.00001 0
M  V30 26270 C 2567.4 -1.11039 -5.22021 0
M  V30 26271 O 2567.62 0.0308754 -5.70392 0
M  V30 26272 O 2566.56 -1.90815 -5.70853 0
M  V30 26273 H 2570.38 -1.85864 -2.40183 0
M  V30 26274 H 2567.97 -0.965414 -1.14018 0
M  V30 26275 H 2569.85 -0.200456 -4.20923 0
M  V30 26276 H 2568.52 0.449819 -3.20559 0
M  V30 26277 H 2567.43 -1.86722 -3.24169 0
M  V30 26278 H 2568.76 -2.43961 -4.27486 0
M  V30 26279 N 2570.42 1.22976 -0.98563 0
M  V30 26280 C 2571.66 1.9084 -0.652914 0
M  V30 26281 C 2571.98 1.77683 0.817811 0
M  V30 26282 O 2573.18 2.40397 1.26181 0
M  V30 26283 C 2571.64 3.4212 -1.11723 0
M  V30 26284 C 2571.25 3.63928 -2.61267 0
M  V30 26285 C 2572.99 4.15728 -0.858503 0
M  V30 26286 C 2570.9 5.0887 -3.01339 0
M  V30 26287 H 2569.83 0.714614 -0.240504 0
M  V30 26288 H 2572.48 1.39322 -1.19423 0
M  V30 26289 H 2570.86 3.92778 -0.504096 0
M  V30 26290 H 2572.04 3.23794 -3.27863 0
M  V30 26291 H 2570.35 3.03639 -2.84943 0
M  V30 26292 H 2572.95 5.22544 -1.13368 0
M  V30 26293 H 2573.29 4.15793 0.205388 0
M  V30 26294 H 2573.82 3.71075 -1.43347 0
M  V30 26295 H 2570.56 5.1394 -4.06873 0
M  V30 26296 H 2570.08 5.49935 -2.3944 0
M  V30 26297 H 2571.76 5.77242 -2.92235 0
M  V30 26298 N 2571.89 0.757924 1.38178 0
M  V30 26299 C 2573.12 0.326499 2.04004 0
M  V30 26300 C 2573.53 -1.05153 1.57288 0
M  V30 26301 O 2572.87 -1.67996 0.743174 0
M  V30 26302 C 2572.94 0.275465 3.58443 0
M  V30 26303 C 2572.6 1.59577 4.28234 0
M  V30 26304 C 2573.6 2.54574 4.53308 0
M  V30 26305 C 2571.28 1.8664 4.66338 0
M  V30 26306 C 2573.28 3.74851 5.15525 0
M  V30 26307 C 2570.96 3.0719 5.28278 0
M  V30 26308 C 2571.96 4.01115 5.52807 0
M  V30 26309 O 2571.65 5.19545 6.13456 0
M  V30 26310 H 2571.38 0.136751 0.662024 0
M  V30 26311 H 2573.94 1.02896 1.77768 0
M  V30 26312 H 2572.17 -0.483269 3.83668 0
M  V30 26313 H 2573.85 -0.127027 4.05701 0
M  V30 26314 H 2574.62 2.34944 4.24295 0
M  V30 26315 H 2570.5 1.14366 4.46589 0
M  V30 26316 H 2574.04 4.48178 5.34586 0
M  V30 26317 H 2569.94 3.26711 5.56714 0
M  V30 26318 H 2570.71 5.20184 6.31942 0
M  V30 26319 N 2573.37 -1.4921 0.507345 0
M  V30 26320 C 2574.3 -2.32082 -0.256899 0
M  V30 26321 C 2575.28 -1.40654 -0.956584 0
M  V30 26322 O 2576.47 -1.69559 -0.946759 0
M  V30 26323 C 2573.6 -3.21321 -1.31797 0
M  V30 26324 C 2572.55 -4.21593 -0.737781 0
M  V30 26325 C 2571.88 -4.9981 -1.89983 0
M  V30 26326 C 2573.18 -5.21573 0.275417 0
M  V30 26327 H 2574.87 -2.96225 0.43485 0
M  V30 26328 H 2572.42 -1.42452 0.210571 0
M  V30 26329 H 2574.37 -3.78111 -1.86038 0
M  V30 26330 H 2573.1 -2.55133 -2.03899 0
M  V30 26331 H 2571.75 -3.65957 -0.217061 0
M  V30 26332 H 2571.4 -4.30065 -2.60869 0
M  V30 26333 H 2571.1 -5.67662 -1.51767 0
M  V30 26334 H 2572.63 -5.59446 -2.44647 0
M  V30 26335 H 2574.04 -5.7302 -0.179093 0
M  V30 26336 H 2572.44 -5.97351 0.573754 0
M  V30 26337 H 2573.51 -4.70094 1.18912 0
M  V30 26338 N 2574.85 -0.241454 -1.55739 0
M  V30 26339 C 2575.8 0.676679 -2.22539 0
M  V30 26340 C 2576.79 1.18434 -1.21119 0
M  V30 26341 O 2578 1.14186 -1.39146 0
M  V30 26342 H 2574.37 0.236688 -0.713781 0
M  V30 26343 H 2576.34 0.0900663 -2.98264 0
M  V30 26344 C 2575.09 1.86513 -2.93442 0
M  V30 26345 H 2574.42 1.48364 -3.71252 0
M  V30 26346 H 2575.86 2.48489 -3.43553 0
M  V30 26347 C 2574.32 2.73291 -1.97012 0
M  V30 26348 O 2574.85 3.72655 -1.49971 0
M  V30 26349 N 2573.05 2.39743 -1.64231 0
M  V30 26350 H 2572.6 1.58992 -2.0268 0
M  V30 26351 H 2572.56 2.98081 -0.999761 0
M  V30 26352 N 2576.33 1.57568 0.0317248 0
M  V30 26353 C 2577.58 1.89151 0.723071 0
M  V30 26354 C 2577.9 0.838408 1.75502 0
M  V30 26355 O 2577.16 -0.160948 1.95037 0
M  V30 26356 C 2577.46 3.27475 1.43161 0
M  V30 26357 C 2577.12 4.47704 0.535893 0
M  V30 26358 C 2575.79 4.8033 0.289178 0
M  V30 26359 C 2578.14 5.21134 -0.0827041 0
M  V30 26360 C 2575.47 5.83777 -0.584956 0
M  V30 26361 C 2577.82 6.25509 -0.944524 0
M  V30 26362 C 2576.48 6.56612 -1.20073 0
M  V30 26363 H 2575.75 0.692151 0.26459 0
M  V30 26364 H 2578.4 1.91492 -0.0169833 0
M  V30 26365 H 2576.7 3.21109 2.24492 0
M  V30 26366 H 2578.4 3.49159 1.97203 0
M  V30 26367 H 2574.99 4.22193 0.738339 0
M  V30 26368 H 2579.17 4.96209 0.094943 0
M  V30 26369 H 2574.43 6.06251 -0.791787 0
M  V30 26370 H 2578.6 6.81552 -1.43038 0
M  V30 26371 H 2576.23 7.36592 -1.8798 0
M  V30 26372 N 2577.81 -0.303946 1.54641 0
M  V30 26373 C 2578.72 -1.3974 1.88441 0
M  V30 26374 C 2579.73 -1.55625 0.778266 0
M  V30 26375 O 2580.91 -1.70345 1.07445 0
M  V30 26376 C 2577.97 -2.74162 2.12217 0
M  V30 26377 C 2577.03 -2.67287 3.35941 0
M  V30 26378 C 2576.27 -3.95298 3.58573 0
M  V30 26379 O 2576.49 -4.94515 2.84272 0
M  V30 26380 O 2575.42 -3.9737 4.52085 0
M  V30 26381 H 2579.25 -1.14078 2.8146 0
M  V30 26382 H 2576.84 -0.499744 1.40794 0
M  V30 26383 H 2578.72 -3.53699 2.29073 0
M  V30 26384 H 2577.39 -2.99673 1.22384 0
M  V30 26385 H 2576.3 -1.86232 3.24451 0
M  V30 26386 H 2577.63 -2.46729 4.25894 0
M  V30 26387 N 2579.28 -1.47047 -0.566994 0
M  V30 26388 C 2580.51 -1.57011 -1.35508 0
M  V30 26389 C 2580.93 -0.217292 -1.86841 0
M  V30 26390 O 2580.29 0.805239 -1.62436 0
M  V30 26391 C 2580.34 -2.59125 -2.50772 0
M  V30 26392 O 2579.44 -2.13717 -3.52702 0
M  V30 26393 H 2578.79 -0.527787 -0.40291 0
M  V30 26394 H 2581.32 -1.92749 -0.686207 0
M  V30 26395 H 2581.33 -2.79234 -2.97476 0
M  V30 26396 H 2580 -3.57357 -2.12765 0
M  V30 26397 H 2578.58 -2.03664 -3.1237 0
M  V30 26398 N 2580.76 0.812929 -1.35016 0
M  V30 26399 C 2581.99 1.60636 -1.3119 0
M  V30 26400 C 2582.41 1.87782 0.109349 0
M  V30 26401 O 2581.77 1.46049 1.07421 0
M  V30 26402 C 2581.82 2.91834 -2.11814 0
M  V30 26403 O 2580.92 3.84367 -1.49451 0
M  V30 26404 H 2580.26 0.488173 -0.450092 0
M  V30 26405 H 2582.79 1.00944 -1.77965 0
M  V30 26406 H 2582.8 3.41314 -2.23537 0
M  V30 26407 H 2581.48 2.71401 -3.15142 0
M  V30 26408 H 2580.06 3.42904 -1.4653 0
M  V30 26409 N 2582.24 1.18909 1.03433 0
M  V30 26410 C 2583.47 1.01345 1.8038 0
M  V30 26411 C 2583.88 -0.437973 1.8365 0
M  V30 26412 O 2583.24 -1.30422 1.27657 0
M  V30 26413 C 2583.29 1.56879 3.25686 0
M  V30 26414 O 2583.01 2.96339 3.22668 0
M  V30 26415 C 2584.51 1.44022 4.19253 0
M  V30 26416 H 2581.73 0.3575 0.567833 0
M  V30 26417 H 2584.28 1.57602 1.30315 0
M  V30 26418 H 2582.43 1.04783 3.7296 0
M  V30 26419 H 2582.85 3.22362 4.13742 0
M  V30 26420 H 2584.32 1.87666 5.1912 0
M  V30 26421 H 2584.8 0.389892 4.37466 0
M  V30 26422 H 2585.4 1.95221 3.77848 0
M  V30 26423 N 2583.72 -1.22452 0.992137 0
M  V30 26424 C 2585.13 -1.72967 0.702807 0
M  V30 26425 C 2585.48 -1.80013 -0.780368 0
M  V30 26426 O 2584.61 -1.44591 -1.61004 0
M  V30 26427 C 2585.2 -3.14133 1.26909 0
M  V30 26428 C 2583.76 -3.62057 1.02915 0
M  V30 26429 C 2582.91 -2.39962 1.38974 0
M  V30 26430 H 2585.86 -1.0781 1.16459 0
M  V30 26431 H 2585.88 -3.74954 0.647289 0
M  V30 26432 H 2585.39 -3.08973 2.34856 0
M  V30 26433 H 2583.49 -3.72585 -0.0337324 0
M  V30 26434 H 2583.6 -4.48228 1.69199 0
M  V30 26435 H 2581.97 -2.41533 0.808322 0
M  V30 26436 H 2582.75 -2.37463 2.47924 0
M  V30 26437 N 2585.2 -0.765242 -1.37774 0
M  V30 26438 C 2586.44 -0.331705 -2.01691 0
M  V30 26439 C 2586.8 1.0698 -1.59434 0
M  V30 26440 O 2588 1.6031 -2.15764 0
M  V30 26441 C 2586.27 -0.463323 -3.54384 0
M  V30 26442 S 2587.83 -0.114088 -4.38652 0
M  V30 26443 H 2584.65 -0.127992 -0.699385 0
M  V30 26444 H 2587.25 -0.998426 -1.68082 0
M  V30 26445 H 2585.96 -1.48408 -3.82627 0
M  V30 26446 H 2585.49 0.220177 -3.92783 0
M  V30 26447 H 2587.5 1.09252 -4.84023 0
M  V30 26448 N 2586.67 1.48939 -0.515251 0
M  V30 26449 C 2587.6 2.32215 0.244587 0
M  V30 26450 C 2588.59 1.41159 0.949111 0
M  V30 26451 O 2589.77 1.70058 0.937753 0
M  V30 26452 C 2586.9 3.22015 1.30091 0
M  V30 26453 C 2585.85 4.21978 0.715412 0
M  V30 26454 C 2585.18 5.00811 1.8733 0
M  V30 26455 C 2586.48 5.2142 -0.303073 0
M  V30 26456 H 2588.17 2.95991 -0.450553 0
M  V30 26457 H 2585.72 1.42338 -0.218123 0
M  V30 26458 H 2587.67 3.79092 1.84031 0
M  V30 26459 H 2586.4 2.56211 2.02543 0
M  V30 26460 H 2585.06 3.66067 0.197651 0
M  V30 26461 H 2584.7 4.31443 2.58585 0
M  V30 26462 H 2584.4 5.68459 1.48754 0
M  V30 26463 H 2585.93 5.60736 2.41677 0
M  V30 26464 H 2587.34 5.73107 0.148701 0
M  V30 26465 H 2585.74 5.97038 -0.605425 0
M  V30 26466 H 2586.81 4.69456 -1.21403 0
M  V30 26467 N 2588.15 0.249709 1.55609 0
M  V30 26468 C 2589.12 -0.635355 2.20218 0
M  V30 26469 C 2590.12 -1.10064 1.17229 0
M  V30 26470 O 2591.31 -1.0049 1.42294 0
M  V30 26471 C 2588.44 -1.87358 2.84798 0
M  V30 26472 H 2589.63 -0.0716225 2.99814 0
M  V30 26473 H 2587.18 0.000180708 1.563 0
M  V30 26474 H 2587.92 -2.47848 2.09146 0
M  V30 26475 H 2587.7 -1.54813 3.60243 0
M  V30 26476 H 2589.19 -2.50354 3.34234 0
M  V30 26477 N 2589.63 -1.57583 -0.0233682 0
M  V30 26478 C 2590.91 -1.80701 -0.748762 0
M  V30 26479 C 2591.29 -0.84914 -1.93269 0
M  V30 26480 O 2590.64 0.107428 -2.28247 0
M  V30 26481 C 2590.85 -3.28573 -1.17646 0
M  V30 26482 C 2592.19 -3.93705 -1.59001 0
M  V30 26483 O 2593.22 -3.32757 -1.27088 0
M  V30 26484 O 2592.08 -5.01026 -2.18255 0
M  V30 26485 H 2589.17 -0.743287 -0.362564 0
M  V30 26486 H 2591.72 -1.697 0.000291787 0
M  V30 26487 H 2590.49 -3.89893 -0.331534 0
M  V30 26488 H 2590.11 -3.44485 -1.98535 0
M  V30 26489 N 2591.11 0.29574 -1.548 0
M  V30 26490 C 2592.06 1.36491 -1.86115 0
M  V30 26491 C 2593.03 1.50136 -0.710527 0
M  V30 26492 O 2594.21 1.6491 -0.959655 0
M  V30 26493 C 2591.35 2.72409 -2.11866 0
M  V30 26494 C 2590.46 2.67171 -3.39475 0
M  V30 26495 C 2589.6 3.95119 -3.55042 0
M  V30 26496 C 2588.64 3.84299 -4.76425 0
M  V30 26497 N 2587.78 5.04033 -4.88769 0
M  V30 26498 H 2592.62 1.09086 -2.77316 0
M  V30 26499 H 2590.15 0.527506 -1.37316 0
M  V30 26500 H 2592.11 3.51461 -2.24792 0
M  V30 26501 H 2590.74 2.98064 -1.23925 0
M  V30 26502 H 2589.79 1.79956 -3.35142 0
M  V30 26503 H 2591.1 2.55069 -4.28651 0
M  V30 26504 H 2590.26 4.82608 -3.67661 0
M  V30 26505 H 2589 4.10061 -2.64009 0
M  V30 26506 H 2588 2.95194 -4.63833 0
M  V30 26507 H 2589.23 3.70896 -5.6887 0
M  V30 26508 H 2587.17 5.19429 -4.00661 0
M  V30 26509 H 2587.09 4.94374 -5.71954 0
M  V30 26510 H 2588.36 5.93158 -5.0575 0
M  V30 26511 N 2592.59 1.47346 0.559187 0
M  V30 26512 C 2593.54 1.56093 1.66189 0
M  V30 26513 C 2594.52 0.419985 1.55322 0
M  V30 26514 O 2595.71 0.669791 1.63838 0
M  V30 26515 C 2592.84 1.57639 3.04967 0
M  V30 26516 C 2591.93 2.77111 3.21045 0
M  V30 26517 N 2592.32 4.01827 3.07196 0
M  V30 26518 C 2590.62 2.73831 3.52041 0
M  V30 26519 C 2591.32 4.81827 3.25911 0
M  V30 26520 N 2590.29 4.14112 3.52153 0
M  V30 26521 H 2594.1 2.50293 1.54047 0
M  V30 26522 H 2591.61 1.43313 0.763889 0
M  V30 26523 H 2593.61 1.61996 3.84139 0
M  V30 26524 H 2592.27 0.645337 3.18222 0
M  V30 26525 H 2593.28 4.32717 2.84564 0
M  V30 26526 H 2589.96 1.89854 3.71835 0
M  V30 26527 H 2591.35 5.90703 3.20188 0
M  V30 26528 N 2594.07 -0.805758 1.35445 0
M  V30 26529 C 2595.31 -1.56288 1.28764 0
M  V30 26530 C 2595.64 -1.94012 -0.137713 0
M  V30 26531 O 2594.9 -1.61644 -1.10317 0
M  V30 26532 C 2595.19 -2.86212 2.1405 0
M  V30 26533 C 2594.86 -2.67703 3.6283 0
M  V30 26534 C 2593.52 -2.62363 4.03385 0
M  V30 26535 C 2595.87 -2.50178 4.57231 0
M  V30 26536 C 2593.2 -2.37442 5.36506 0
M  V30 26537 C 2595.55 -2.26786 5.90551 0
M  V30 26538 C 2594.22 -2.19869 6.30249 0
M  V30 26539 H 2593.49 -0.5719 0.471181 0
M  V30 26540 H 2596.14 -0.930944 1.67349 0
M  V30 26541 H 2594.44 -3.53788 1.68348 0
M  V30 26542 H 2596.14 -3.43913 2.06216 0
M  V30 26543 H 2592.73 -2.72707 3.30649 0
M  V30 26544 H 2596.91 -2.53315 4.26784 0
M  V30 26545 H 2592.17 -2.30557 5.66263 0
M  V30 26546 H 2596.34 -2.12217 6.63277 0
M  V30 26547 H 2593.97 -2.0032 7.33332 0
M  V30 26548 N 2595.54 -1.19456 -1.02801 0
M  V30 26549 C 2596.49 -0.929711 -2.13211 0
M  V30 26550 C 2597.49 0.114776 -1.69011 0
M  V30 26551 O 2598.69 -0.0345463 -1.79967 0
M  V30 26552 H 2595.07 -0.283252 -0.696615 0
M  V30 26553 H 2597.04 -1.86747 -2.3274 0
M  V30 26554 C 2595.79 -0.485858 -3.44289 0
M  V30 26555 H 2595.11 -1.28112 -3.78718 0
M  V30 26556 H 2596.55 -0.339656 -4.22637 0
M  V30 26557 C 2595.01 0.800187 -3.27259 0
M  V30 26558 O 2595.54 1.8614 -3.5597 0
M  V30 26559 N 2593.74 0.75776 -2.80547 0
M  V30 26560 H 2593.29 -0.106085 -2.57381 0
M  V30 26561 H 2593.25 1.61862 -2.69533 0
M  V30 26562 N 2597.02 1.21924 -0.998617 0
M  V30 26563 C 2598.25 1.94548 -0.695311 0
M  V30 26564 C 2598.66 1.73913 0.745049 0
M  V30 26565 O 2598 1.03883 1.51506 0
M  V30 26566 C 2598.06 3.47301 -0.928546 0
M  V30 26567 C 2597.73 3.91679 -2.3545 0
M  V30 26568 C 2598.73 3.98895 -3.33435 0
M  V30 26569 C 2596.41 4.2417 -2.69045 0
M  V30 26570 C 2598.4 4.37984 -4.63086 0
M  V30 26571 C 2596.09 4.62937 -3.98915 0
M  V30 26572 C 2597.09 4.69813 -4.95746 0
M  V30 26573 O 2596.78 5.077 -6.23294 0
M  V30 26574 H 2596.51 0.625687 -0.255913 0
M  V30 26575 H 2599.06 1.55868 -1.3377 0
M  V30 26576 H 2597.29 3.86021 -0.228985 0
M  V30 26577 H 2598.98 4.01143 -0.619609 0
M  V30 26578 H 2599.75 3.73977 -3.08814 0
M  V30 26579 H 2595.63 4.18019 -1.94375 0
M  V30 26580 H 2599.17 4.43266 -5.38666 0
M  V30 26581 H 2595.07 4.87307 -4.23323 0
M  V30 26582 H 2595.84 5.25755 -6.27315 0
M  V30 26583 N 2598.5 0.772537 1.37367 0
M  V30 26584 C 2599.73 0.348623 2.03942 0
M  V30 26585 C 2600.14 -1.02944 1.58265 0
M  V30 26586 O 2599.5 -1.65726 0.764275 0
M  V30 26587 C 2599.55 0.383574 3.59459 0
M  V30 26588 O 2599.27 1.70728 4.03465 0
M  V30 26589 C 2600.77 -0.0518373 4.4327 0
M  V30 26590 H 2597.99 0.145978 0.654929 0
M  V30 26591 H 2600.54 1.04668 1.75684 0
M  V30 26592 H 2598.69 -0.26591 3.86486 0
M  V30 26593 H 2599.11 1.64645 4.97988 0
M  V30 26594 H 2600.58 0.0237703 5.51995 0
M  V30 26595 H 2601.06 -1.10231 4.25142 0
M  V30 26596 H 2601.66 0.569489 4.2147 0
M  V30 26597 N 2599.98 -1.48664 0.523142 0
M  V30 26598 C 2601.2 -2.07397 -0.011692 0
M  V30 26599 C 2601.63 -1.37805 -1.28029 0
M  V30 26600 O 2600.99 -0.441793 -1.75835 0
M  V30 26601 C 2601.03 -3.59893 -0.225723 0
M  V30 26602 O 2600.14 -3.91512 -1.29585 0
M  V30 26603 H 2599.48 -0.663019 0.036079 0
M  V30 26604 H 2602.01 -1.91168 0.7291 0
M  V30 26605 H 2602.02 -4.05505 -0.45048 0
M  V30 26606 H 2600.69 -4.09949 0.701016 0
M  V30 26607 H 2599.27 -3.57686 -1.05429 0
M  V30 26608 N 2601.46 -0.257958 -1.55475 0
M  V30 26609 C 2602.39 0.630873 -2.24816 0
M  V30 26610 C 2603.37 1.17257 -1.23226 0
M  V30 26611 O 2604.55 1.20988 -1.51906 0
M  V30 26612 C 2601.68 1.82293 -2.95612 0
M  V30 26613 C 2600.64 1.41352 -4.03985 0
M  V30 26614 C 2599.96 2.6873 -4.62264 0
M  V30 26615 C 2601.26 0.576389 -5.1911 0
M  V30 26616 H 2602.96 0.0526351 -2.99354 0
M  V30 26617 H 2600.5 0.0238757 -1.4398 0
M  V30 26618 H 2602.45 2.45047 -3.42826 0
M  V30 26619 H 2601.18 2.42672 -2.18581 0
M  V30 26620 H 2599.84 0.809261 -3.57556 0
M  V30 26621 H 2599.49 3.27331 -3.81921 0
M  V30 26622 H 2599.19 2.42055 -5.35428 0
M  V30 26623 H 2600.71 3.32363 -5.12218 0
M  V30 26624 H 2602.12 1.10851 -5.62481 0
M  V30 26625 H 2600.52 0.405246 -5.9873 0
M  V30 26626 H 2601.59 -0.408861 -4.83173 0
M  V30 26627 N 2602.93 1.57593 0.0150108 0
M  V30 26628 C 2604.18 1.89086 0.702082 0
M  V30 26629 C 2604.5 0.858308 1.75762 0
M  V30 26630 O 2605.7 1.06295 2.49827 0
M  V30 26631 C 2604.16 3.35606 1.29986 0
M  V30 26632 C 2603.77 4.47125 0.279929 0
M  V30 26633 C 2605.51 3.7623 1.96599 0
M  V30 26634 C 2603.42 5.84713 0.886846 0
M  V30 26635 H 2602.35 0.705527 0.265985 0
M  V30 26636 H 2605 1.83449 -0.0430731 0
M  V30 26637 H 2603.38 3.36033 2.09519 0
M  V30 26638 H 2604.55 4.5819 -0.489711 0
M  V30 26639 H 2602.87 4.15424 -0.284908 0
M  V30 26640 H 2605.47 4.76352 2.42885 0
M  V30 26641 H 2605.81 3.08957 2.79019 0
M  V30 26642 H 2606.34 3.78038 1.23822 0
M  V30 26643 H 2603.08 6.55421 0.101761 0
M  V30 26644 H 2602.6 5.7734 1.626 0
M  V30 26645 H 2604.28 6.31893 1.38999 0
M  V30 26646 N 2604.41 -0.287527 1.54955 0
M  V30 26647 C 2605.38 -1.33819 1.86078 0
M  V30 26648 C 2606.38 -1.43048 0.734439 0
M  V30 26649 O 2607.57 -1.4245 1.00268 0
M  V30 26650 C 2604.7 -2.72141 2.0531 0
M  V30 26651 H 2605.89 -1.0746 2.79986 0
M  V30 26652 H 2603.44 -0.524876 1.47223 0
M  V30 26653 H 2604.18 -3.03702 1.13735 0
M  V30 26654 H 2603.96 -2.66831 2.87304 0
M  V30 26655 H 2605.45 -3.48083 2.30713 0
M  V30 26656 N 2605.89 -1.47641 -0.551365 0
M  V30 26657 C 2607.14 -1.54565 -1.30827 0
M  V30 26658 C 2607.47 -0.210395 -1.93359 0
M  V30 26659 O 2606.72 0.797301 -1.78722 0
M  V30 26660 C 2607.02 -2.61649 -2.43464 0
M  V30 26661 C 2606.69 -4.04746 -1.98725 0
M  V30 26662 C 2605.35 -4.43698 -1.86241 0
M  V30 26663 C 2607.7 -4.94509 -1.64651 0
M  V30 26664 C 2605.03 -5.70243 -1.37985 0
M  V30 26665 C 2607.38 -6.21523 -1.17864 0
M  V30 26666 C 2606.04 -6.59352 -1.0398 0
M  V30 26667 H 2605.31 -0.565595 -0.478731 0
M  V30 26668 H 2607.96 -1.81265 -0.617665 0
M  V30 26669 H 2606.27 -2.28727 -3.18105 0
M  V30 26670 H 2607.96 -2.64228 -3.01637 0
M  V30 26671 H 2604.55 -3.73972 -2.09387 0
M  V30 26672 H 2608.74 -4.6511 -1.73166 0
M  V30 26673 H 2603.99 -5.98296 -1.25904 0
M  V30 26674 H 2608.17 -6.90486 -0.905618 0
M  V30 26675 H 2605.79 -7.57298 -0.663661 0
M  V30 26676 N 2607.37 0.798563 -1.3587 0
M  V30 26677 C 2608.32 1.90031 -1.25985 0
M  V30 26678 C 2609.3 1.60168 -0.153331 0
M  V30 26679 O 2610.49 1.72755 -0.3853 0
M  V30 26680 C 2607.62 3.27099 -1.04217 0
M  V30 26681 C 2606.71 3.63002 -2.19295 0
M  V30 26682 N 2607.1 3.70281 -3.44566 0
M  V30 26683 C 2605.4 3.93007 -2.10859 0
M  V30 26684 C 2606.1 4.02158 -4.2029 0
M  V30 26685 N 2605.08 4.16663 -3.49131 0
M  V30 26686 H 2608.88 1.93872 -2.20887 0
M  V30 26687 H 2606.39 0.993591 -1.28458 0
M  V30 26688 H 2608.39 4.0588 -0.952226 0
M  V30 26689 H 2607.05 3.2454 -0.102071 0
M  V30 26690 H 2608.06 3.53156 -3.78816 0
M  V30 26691 H 2604.74 3.98426 -1.24751 0
M  V30 26692 H 2606.13 4.1479 -5.28582 0
M  V30 26693 N 2608.85 1.19999 1.02166 0
M  V30 26694 C 2610.09 1.01828 1.7723 0
M  V30 26695 C 2610.45 -0.442395 1.86834 0
M  V30 26696 O 2611.65 -0.744144 2.58294 0
M  V30 26697 C 2609.92 1.67727 3.15598 0
M  V30 26698 S 2611.48 1.64591 4.06762 0
M  V30 26699 H 2608.3 0.365244 0.610015 0
M  V30 26700 H 2610.9 1.52469 1.22366 0
M  V30 26701 H 2609.61 2.73223 3.06231 0
M  V30 26702 H 2609.14 1.17196 3.75538 0
M  V30 26703 H 2611.15 0.675196 4.91585 0
M  V30 26704 N 2610.32 -1.21392 1.00507 0
M  V30 26705 C 2611.27 -2.23764 0.565535 0
M  V30 26706 C 2612.24 -1.61 -0.408438 0
M  V30 26707 O 2613.43 -1.88257 -0.31047 0
M  V30 26708 C 2610.57 -3.4495 -0.101606 0
M  V30 26709 C 2609.68 -4.22187 0.915554 0
M  V30 26710 C 2608.81 -5.30741 0.220667 0
M  V30 26711 C 2607.85 -5.99709 1.22537 0
M  V30 26712 N 2606.99 -6.99879 0.557954 0
M  V30 26713 H 2611.83 -2.60722 1.44319 0
M  V30 26714 H 2609.37 -1.28125 0.722666 0
M  V30 26715 H 2611.33 -4.14127 -0.505432 0
M  V30 26716 H 2609.96 -3.0872 -0.942976 0
M  V30 26717 H 2609.01 -3.52188 1.43762 0
M  V30 26718 H 2610.32 -4.69652 1.68013 0
M  V30 26719 H 2609.47 -6.06228 -0.239262 0
M  V30 26720 H 2608.21 -4.84283 -0.576315 0
M  V30 26721 H 2607.22 -5.22994 1.69581 0
M  V30 26722 H 2608.44 -6.48255 2.02344 0
M  V30 26723 H 2606.39 -6.55633 -0.21937 0
M  V30 26724 H 2606.31 -7.45413 1.26078 0
M  V30 26725 H 2607.57 -7.79406 0.121232 0
M  V30 26726 N 2611.8 -0.779811 -1.36955 0
M  V30 26727 C 2613.22 -0.460369 -1.52816 0
M  V30 26728 C 2613.42 1.0228 -1.73612 0
M  V30 26729 O 2612.47 1.80849 -1.7621 0
M  V30 26730 C 2613.79 -1.28246 -2.71981 0
M  V30 26731 C 2615.34 -1.27517 -2.85847 0
M  V30 26732 C 2615.81 -2.08079 -4.08004 0
M  V30 26733 N 2617.3 -2.05475 -4.15132 0
M  V30 26734 C 2618.04 -2.64586 -5.08706 0
M  V30 26735 N 2617.53 -3.32517 -6.07787 0
M  V30 26736 N 2619.33 -2.54372 -5.0125 0
M  V30 26737 H 2611.48 -1.74071 -1.2171 0
M  V30 26738 H 2613.74 -0.739407 -0.593281 0
M  V30 26739 H 2613.45 -2.33385 -2.63105 0
M  V30 26740 H 2613.32 -0.917153 -3.6588 0
M  V30 26741 H 2615.71 -0.231738 -2.94189 0
M  V30 26742 H 2615.79 -1.68018 -1.92883 0
M  V30 26743 H 2615.43 -3.12448 -4.00423 0
M  V30 26744 H 2615.36 -1.64956 -5.00097 0
M  V30 26745 H 2617.85 -1.56026 -3.44187 0
M  V30 26746 H 2618.17 -3.74974 -6.75732 0
M  V30 26747 H 2616.51 -3.36617 -6.08041 0
M  V30 26748 H 2619.7 -2.0091 -4.22792 0
M  V30 26749 H 2619.87 -3.00732 -5.7399 0
M  V30 26750 N 2613.28 1.48384 -0.531019 0
M  V30 26751 C 2614.53 2.021 0.00269637 0
M  V30 26752 C 2614.85 1.41029 1.34669 0
M  V30 26753 O 2614.12 0.576045 1.87239 0
M  V30 26754 H 2612.7 0.746989 0.00398461 0
M  V30 26755 H 2615.36 1.82084 -0.695086 0
M  V30 26756 H 2614.46 3.11905 0.110255 0
M  V30 26757 N 2614.76 0.2662 1.55336 0
M  V30 26758 C 2616 -0.353646 1.99693 0
M  V30 26759 C 2616.34 -1.5617 1.15432 0
M  V30 26760 O 2615.61 -1.93226 0.222252 0
M  V30 26761 C 2615.9 -0.744598 3.52318 0
M  V30 26762 C 2615.75 0.47018 4.47336 0
M  V30 26763 C 2617.07 -1.5844 4.10591 0
M  V30 26764 H 2614.19 -0.127068 0.725963 0
M  V30 26765 H 2616.83 0.371366 1.86335 0
M  V30 26766 H 2614.98 -1.36232 3.63831 0
M  V30 26767 H 2616.65 1.10872 4.47778 0
M  V30 26768 H 2614.89 1.10986 4.19362 0
M  V30 26769 H 2615.56 0.153007 5.51788 0
M  V30 26770 H 2618.04 -1.06279 4.02298 0
M  V30 26771 H 2616.92 -1.82677 5.1761 0
M  V30 26772 H 2617.18 -2.56256 3.60258 0
M  V30 26773 N 2616.24 -1.57599 -0.0066531 0
M  V30 26774 C 2617.46 -1.94952 -0.707704 0
M  V30 26775 C 2617.89 -0.867897 -1.66881 0
M  V30 26776 O 2617.24 0.174548 -1.80458 0
M  V30 26777 C 2617.29 -3.31397 -1.42157 0
M  V30 26778 O 2616.4 -3.2523 -2.53573 0
M  V30 26779 H 2615.74 -0.636611 -0.18874 0
M  V30 26780 H 2618.27 -2.04551 0.0445552 0
M  V30 26781 H 2618.28 -3.66809 -1.78649 0
M  V30 26782 H 2616.95 -4.09676 -0.716831 0
M  V30 26783 H 2615.53 -3.01484 -2.19457 0
M  V30 26784 N 2617.72 0.279305 -1.55105 0
M  V30 26785 C 2618.65 1.37041 -1.82469 0
M  V30 26786 C 2619.63 1.47823 -0.677287 0
M  V30 26787 O 2620.81 1.64546 -0.919607 0
M  V30 26788 C 2617.94 2.74746 -1.98071 0
M  V30 26789 C 2616.98 2.81281 -3.20599 0
M  V30 26790 S 2617.82 2.41166 -4.7812 0
M  V30 26791 C 2618.97 3.80858 -4.96687 0
M  V30 26792 H 2619.21 1.13625 -2.7473 0
M  V30 26793 H 2616.74 0.478599 -1.46795 0
M  V30 26794 H 2618.7 3.54051 -2.07745 0
M  V30 26795 H 2617.36 2.95418 -1.0671 0
M  V30 26796 H 2616.55 3.82336 -3.28383 0
M  V30 26797 H 2616.15 2.09991 -3.09483 0
M  V30 26798 H 2618.44 4.7607 -4.82042 0
M  V30 26799 H 2619.39 3.7803 -5.98748 0
M  V30 26800 H 2619.8 3.71868 -4.24705 0
M  V30 26801 N 2619.19 1.47931 0.543528 0
M  V30 26802 C 2620.44 1.5495 1.29749 0
M  V30 26803 C 2620.76 0.219276 1.93763 0
M  V30 26804 O 2620.03 -0.758019 1.8064 0
M  V30 26805 H 2618.61 0.570803 0.481864 0
M  V30 26806 H 2621.27 1.84314 0.633604 0
M  V30 26807 H 2620.37 2.32338 2.08388 0
M  V30 26808 N 2620.67 -0.791347 1.36292 0
M  V30 26809 C 2621.9 -1.58013 1.33564 0
M  V30 26810 C 2622.31 -1.88615 -0.0835285 0
M  V30 26811 O 2621.67 -1.49976 -1.03988 0
M  V30 26812 C 2621.72 -2.90229 2.15522 0
M  V30 26813 O 2621.44 -2.60946 3.51907 0
M  V30 26814 C 2622.94 -3.8454 2.20553 0
M  V30 26815 H 2620.16 -0.490165 0.458235 0
M  V30 26816 H 2622.71 -0.982314 1.79362 0
M  V30 26817 H 2620.86 -3.46484 1.73284 0
M  V30 26818 H 2621.28 -3.45474 3.9465 0
M  V30 26819 H 2622.75 -4.74377 2.8226 0
M  V30 26820 H 2623.23 -4.22248 1.20845 0
M  V30 26821 H 2623.83 -3.34218 2.63018 0
M  V30 26822 N 2622.15 -1.2054 -1.01528 0
M  V30 26823 C 2623.56 -1.01659 -1.56596 0
M  V30 26824 C 2623.91 0.426634 -1.91505 0
M  V30 26825 O 2623.04 1.30824 -1.72377 0
M  V30 26826 C 2623.63 -1.8391 -2.84539 0
M  V30 26827 C 2622.19 -1.69392 -3.3613 0
M  V30 26828 C 2621.34 -1.81761 -2.09424 0
M  V30 26829 H 2624.29 -1.34712 -0.83895 0
M  V30 26830 H 2624.31 -1.34325 -3.56001 0
M  V30 26831 H 2623.82 -2.88944 -2.591 0
M  V30 26832 H 2621.92 -0.669997 -3.66527 0
M  V30 26833 H 2622.04 -2.50746 -4.08244 0
M  V30 26834 H 2620.4 -1.24961 -2.21939 0
M  V30 26835 H 2621.18 -2.88282 -1.86409 0
M  V30 26836 N 2623.63 1.20858 -1.01149 0
M  V30 26837 C 2624.57 2.23461 -0.577394 0
M  V30 26838 C 2625.54 1.61214 0.399894 0
M  V30 26839 O 2626.73 1.88419 0.300482 0
M  V30 26840 C 2623.87 3.44999 0.0833113 0
M  V30 26841 C 2622.98 4.21695 -0.93793 0
M  V30 26842 C 2622.12 5.30617 -0.24881 0
M  V30 26843 C 2621.16 5.99051 -1.25716 0
M  V30 26844 N 2620.29 6.99574 -0.595062 0
M  V30 26845 H 2625.13 2.59953 -1.457 0
M  V30 26846 H 2622.67 1.2774 -0.72945 0
M  V30 26847 H 2624.63 4.14389 0.483462 0
M  V30 26848 H 2623.26 3.09215 0.92659 0
M  V30 26849 H 2622.31 3.51421 -1.45628 0
M  V30 26850 H 2623.62 4.68754 -1.70501 0
M  V30 26851 H 2622.78 6.06346 0.207109 0
M  V30 26852 H 2621.52 4.84582 0.550625 0
M  V30 26853 H 2620.52 5.22087 -1.72352 0
M  V30 26854 H 2621.75 6.47172 -2.05779 0
M  V30 26855 H 2619.69 6.5574 0.184597 0
M  V30 26856 H 2619.61 7.44734 -1.3003 0
M  V30 26857 H 2620.88 7.7933 -0.162564 0
M  V30 26858 N 2625.11 0.787064 1.3654 0
M  V30 26859 C 2626.04 0.198033 2.32659 0
M  V30 26860 C 2627.02 -0.665669 1.56534 0
M  V30 26861 O 2628.2 -0.599978 1.84699 0
M  V30 26862 C 2625.33 -0.669841 3.40779 0
M  V30 26863 C 2624.29 0.0937791 4.27897 0
M  V30 26864 C 2623.61 -0.894536 5.27164 0
M  V30 26865 C 2624.91 1.28163 5.06332 0
M  V30 26866 H 2626.61 1.00104 2.82169 0
M  V30 26867 H 2624.15 0.482817 1.35665 0
M  V30 26868 H 2626.1 -1.09184 4.0701 0
M  V30 26869 H 2624.83 -1.50553 2.8983 0
M  V30 26870 H 2623.49 0.496724 3.63219 0
M  V30 26871 H 2623.14 -1.72519 4.72489 0
M  V30 26872 H 2622.84 -0.388046 5.86317 0
M  V30 26873 H 2624.36 -1.31515 5.96269 0
M  V30 26874 H 2625.77 0.93551 5.65616 0
M  V30 26875 H 2624.17 1.72125 5.74885 0
M  V30 26876 H 2625.24 2.07815 4.38111 0
M  V30 26877 N 2626.58 -1.48101 0.53888 0
M  V30 26878 C 2627.51 -2.32575 -0.207613 0
M  V30 26879 C 2628.49 -1.42651 -0.926534 0
M  V30 26880 O 2629.68 -1.71529 -0.91058 0
M  V30 26881 C 2626.81 -3.24044 -1.24951 0
M  V30 26882 C 2625.76 -4.23063 -0.648189 0
M  V30 26883 C 2625.09 -5.03728 -1.79339 0
M  V30 26884 C 2626.39 -5.20872 0.385988 0
M  V30 26885 H 2628.08 -2.95236 0.497586 0
M  V30 26886 H 2625.63 -1.41973 0.24074 0
M  V30 26887 H 2627.58 -3.81972 -1.77976 0
M  V30 26888 H 2626.31 -2.59401 -1.98441 0
M  V30 26889 H 2624.97 -3.66335 -0.139388 0
M  V30 26890 H 2624.61 -4.35502 -2.51688 0
M  V30 26891 H 2624.31 -5.70754 -1.39692 0
M  V30 26892 H 2625.84 -5.6451 -2.32725 0
M  V30 26893 H 2627.25 -5.73271 -0.0575062 0
M  V30 26894 H 2625.65 -5.95999 0.700332 0
M  V30 26895 H 2626.72 -4.67466 1.28856 0
M  V30 26896 N 2628.06 -0.274434 -1.55192 0
M  V30 26897 C 2629.48 0.0797262 -1.59401 0
M  V30 26898 C 2629.68 1.54657 -1.29165 0
M  V30 26899 O 2628.73 2.29533 -1.05219 0
M  V30 26900 C 2630.05 -0.294291 -2.99256 0
M  V30 26901 C 2631.59 -0.240851 -3.12072 0
M  V30 26902 C 2632.07 -0.589298 -4.54193 0
M  V30 26903 N 2633.56 -0.540825 -4.60032 0
M  V30 26904 C 2634.3 -0.783247 -5.68025 0
M  V30 26905 N 2633.79 -1.09025 -6.84168 0
M  V30 26906 N 2635.58 -0.712091 -5.57571 0
M  V30 26907 H 2627.74 -1.2307 -1.73111 0
M  V30 26908 H 2630 -0.497143 -0.807188 0
M  V30 26909 H 2629.7 -1.3144 -3.26215 0
M  V30 26910 H 2629.58 0.365215 -3.75428 0
M  V30 26911 H 2631.97 0.769973 -2.84878 0
M  V30 26912 H 2632.05 -0.934605 -2.38115 0
M  V30 26913 H 2631.69 -1.59781 -4.82113 0
M  V30 26914 H 2631.62 0.126238 -5.26449 0
M  V30 26915 H 2634.11 -0.313393 -3.76598 0
M  V30 26916 H 2634.42 -1.26191 -7.62427 0
M  V30 26917 H 2632.77 -1.12801 -6.85785 0
M  V30 26918 H 2635.96 -0.472096 -4.65713 0
M  V30 26919 H 2636.13 -0.904402 -6.41658 0
M  V30 26920 N 2629.54 1.576 -0.00170483 0
M  V30 26921 C 2630.77 1.94923 0.693725 0
M  V30 26922 C 2631.18 0.876655 1.67213 0
M  V30 26923 O 2630.54 -0.144247 1.81929 0
M  V30 26924 C 2630.59 3.32267 1.42411 0
M  V30 26925 O 2630.31 4.35408 0.484937 0
M  V30 26926 C 2631.81 3.8406 2.21389 0
M  V30 26927 H 2629.03 0.642612 0.193107 0
M  V30 26928 H 2631.58 2.0443 -0.0533311 0
M  V30 26929 H 2629.73 3.24063 2.12278 0
M  V30 26930 H 2630.15 5.1487 1.00044 0
M  V30 26931 H 2631.62 4.82583 2.67988 0
M  V30 26932 H 2632.1 3.16856 3.04136 0
M  V30 26933 H 2632.7 3.95445 1.56535 0
M  V30 26934 N 2631.02 -0.271076 1.55251 0
M  V30 26935 C 2632.24 -1.02488 1.80308 0
M  V30 26936 C 2632.67 -1.7908 0.575489 0
M  V30 26937 O 2632.03 -1.74968 -0.474956 0
M  V30 26938 C 2632.07 -1.95762 3.02836 0
M  V30 26939 O 2631.18 -3.04563 2.78056 0
M  V30 26940 H 2630.52 -0.292913 0.595901 0
M  V30 26941 H 2633.05 -0.299401 2.02398 0
M  V30 26942 H 2633.06 -2.3768 3.3162 0
M  V30 26943 H 2631.73 -1.39427 3.91833 0
M  V30 26944 H 2630.31 -2.66946 2.60373 0
M  V30 26945 N 2632.5 -1.48217 -0.535675 0
M  V30 26946 C 2633.41 -1.64988 -1.66782 0
M  V30 26947 C 2634.42 -0.532443 -1.65653 0
M  V30 26948 O 2635.6 -0.802782 -1.84709 0
M  V30 26949 C 2632.66 -1.68037 -3.03257 0
M  V30 26950 C 2631.72 -2.91366 -3.15285 0
M  V30 26951 C 2630.96 -2.9426 -4.45249 0
M  V30 26952 O 2631.18 -2.05729 -5.32007 0
M  V30 26953 O 2630.11 -3.86368 -4.61523 0
M  V30 26954 H 2633.94 -2.60828 -1.55571 0
M  V30 26955 H 2631.53 -1.31552 -0.708127 0
M  V30 26956 H 2633.41 -1.72596 -3.84433 0
M  V30 26957 H 2632.08 -0.753684 -3.14804 0
M  V30 26958 H 2630.99 -2.92341 -2.33425 0
M  V30 26959 H 2632.32 -3.834 -3.08651 0
M  V30 26960 N 2633.97 0.784108 -1.3671 0
M  V30 26961 C 2635.21 1.55535 -1.32621 0
M  V30 26962 C 2635.58 1.91779 0.0920344 0
M  V30 26963 O 2636.78 2.67564 0.257526 0
M  V30 26964 C 2635.05 2.7946 -2.22793 0
M  V30 26965 S 2636.61 3.69652 -2.36438 0
M  V30 26966 H 2633.43 0.532632 -0.470982 0
M  V30 26967 H 2636.03 0.92309 -1.72335 0
M  V30 26968 H 2634.73 2.50893 -3.24778 0
M  V30 26969 H 2634.26 3.47655 -1.84118 0
M  V30 26970 H 2636.28 4.70847 -1.56581 0
M  V30 26971 N 2635.45 1.21076 1.00888 0
M  V30 26972 C 2636.73 0.934499 1.71833 0
M  V30 26973 C 2637.11 -0.554717 2.03681 0
M  V30 26974 O 2636.46 -1.51851 1.70744 0
M  V30 26975 C 2636.67 1.81555 2.98058 0
M  V30 26976 C 2638.02 2.06206 3.71166 0
M  V30 26977 O 2639.04 1.78872 3.08031 0
M  V30 26978 O 2637.9 2.52412 4.84717 0
M  V30 26979 H 2634.99 0.350083 0.749247 0
M  V30 26980 H 2637.54 1.31987 1.06666 0
M  V30 26981 H 2636.31 2.8236 2.70903 0
M  V30 26982 H 2635.93 1.43075 3.70965 0
M  V30 26983 N 2636.93 -1.2032 1.01789 0
M  V30 26984 C 2638.18 -1.89721 0.70797 0
M  V30 26985 C 2638.51 -1.78931 -0.762504 0
M  V30 26986 O 2637.76 -1.16864 -1.56975 0
M  V30 26987 C 2638.06 -3.40347 1.09082 0
M  V30 26988 C 2637.73 -3.71338 2.55772 0
M  V30 26989 C 2636.39 -3.79506 2.95852 0
M  V30 26990 C 2638.74 -3.85536 3.5073 0
M  V30 26991 C 2636.07 -3.99332 4.29827 0
M  V30 26992 C 2638.42 -4.06872 4.84394 0
M  V30 26993 C 2637.08 -4.1327 5.24179 0
M  V30 26994 H 2636.35 -0.694238 0.259064 0
M  V30 26995 H 2639 -1.42553 1.27871 0
M  V30 26996 H 2637.31 -3.89338 0.438521 0
M  V30 26997 H 2639 -3.92344 0.828705 0
M  V30 26998 H 2635.59 -3.6558 2.23717 0
M  V30 26999 H 2639.78 -3.78579 3.20923 0
M  V30 27000 H 2635.03 -4.02521 4.60203 0
M  V30 27001 H 2639.21 -4.16801 5.57898 0
M  V30 27002 H 2636.83 -4.28385 6.28005 0
M  V30 27003 N 2638.41 -0.794293 -1.3612 0
M  V30 27004 C 2639.65 -0.369487 -1.99406 0
M  V30 27005 C 2639.99 1.0574 -1.62888 0
M  V30 27006 O 2639.26 1.73144 -0.886084 0
M  V30 27007 C 2639.55 -0.538896 -3.56045 0
M  V30 27008 C 2639.4 -2.00983 -4.024 0
M  V30 27009 C 2640.72 0.0430585 -4.40079 0
M  V30 27010 H 2637.84 -0.135725 -0.724395 0
M  V30 27011 H 2640.48 -1.00154 -1.61459 0
M  V30 27012 H 2638.63 -0.000839293 -3.885 0
M  V30 27013 H 2640.3 -2.60932 -3.8041 0
M  V30 27014 H 2638.54 -2.51069 -3.53761 0
M  V30 27015 H 2639.21 -2.07931 -5.1134 0
M  V30 27016 H 2641.69 -0.416301 -4.14012 0
M  V30 27017 H 2640.57 -0.10547 -5.48799 0
M  V30 27018 H 2640.83 1.13563 -4.27266 0
M  V30 27019 N 2639.89 1.47813 -0.546727 0
M  V30 27020 C 2641.13 2.02491 -0.0187763 0
M  V30 27021 C 2641.46 1.42217 1.32682 0
M  V30 27022 O 2640.72 0.563487 1.87412 0
M  V30 27023 C 2641.02 3.57146 0.134807 0
M  V30 27024 C 2640.68 4.36288 -1.13856 0
M  V30 27025 C 2639.34 4.57632 -1.48751 0
M  V30 27026 C 2641.7 4.82009 -1.98285 0
M  V30 27027 C 2639.02 5.21943 -2.67941 0
M  V30 27028 C 2641.38 5.47634 -3.16669 0
M  V30 27029 C 2640.04 5.67213 -3.51889 0
M  V30 27030 H 2639.31 0.740968 -0.00687072 0
M  V30 27031 H 2641.96 1.77606 -0.716128 0
M  V30 27032 H 2640.26 3.80965 0.915051 0
M  V30 27033 H 2641.96 3.97092 0.558486 0
M  V30 27034 H 2638.55 4.19948 -0.856841 0
M  V30 27035 H 2642.73 4.65307 -1.72636 0
M  V30 27036 H 2637.99 5.35297 -2.9541 0
M  V30 27037 H 2642.16 5.82027 -3.82385 0
M  V30 27038 H 2639.79 6.16818 -4.44342 0
M  V30 27039 N 2641.36 0.28266 1.55044 0
M  V30 27040 C 2642.27 -0.61143 2.26492 0
M  V30 27041 C 2643.29 -1.16381 1.2935 0
M  V30 27042 O 2644.47 -1.1925 1.623 0
M  V30 27043 C 2641.53 -1.77558 2.97782 0
M  V30 27044 C 2640.59 -1.25911 4.1042 0
M  V30 27045 C 2639.83 -2.36778 4.78301 0
M  V30 27046 O 2640.05 -3.56295 4.45432 0
M  V30 27047 O 2638.98 -2.04507 5.66092 0
M  V30 27048 H 2642.81 -0.0324082 3.03683 0
M  V30 27049 H 2640.39 0.0497838 1.49317 0
M  V30 27050 H 2642.28 -2.45421 3.42559 0
M  V30 27051 H 2640.95 -2.34155 2.23502 0
M  V30 27052 H 2639.86 -0.546732 3.70083 0
M  V30 27053 H 2641.19 -0.738801 4.86624 0
M  V30 27054 N 2642.84 -1.57597 0.0100627 0
M  V30 27055 C 2644.09 -1.92119 -0.667977 0
M  V30 27056 C 2644.44 -0.885358 -1.70819 0
M  V30 27057 O 2643.74 0.101154 -1.91333 0
M  V30 27058 C 2643.93 -3.31155 -1.34429 0
M  V30 27059 C 2643.76 -4.48166 -0.371097 0
M  V30 27060 C 2642.53 -5.05295 0.0221574 0
M  V30 27061 C 2644.73 -5.1299 0.366821 0
M  V30 27062 N 2642.71 -6.05824 0.992506 0
M  V30 27063 C 2644.08 -6.08443 1.19153 0
M  V30 27064 C 2646.14 -4.96043 0.429576 0
M  V30 27065 C 2644.84 -6.88772 2.07329 0
M  V30 27066 C 2646.86 -5.76966 1.2986 0
M  V30 27067 C 2646.23 -6.7202 2.11113 0
M  V30 27068 H 2642.33 -0.751195 -0.217324 0
M  V30 27069 H 2644.91 -1.94564 0.0727717 0
M  V30 27070 H 2643.08 -3.29565 -2.05527 0
M  V30 27071 H 2644.81 -3.53078 -1.97783 0
M  V30 27072 H 2641.57 -4.72317 -0.348326 0
M  V30 27073 H 2641.99 -6.60773 1.47335 0
M  V30 27074 H 2646.63 -4.22398 -0.184346 0
M  V30 27075 H 2644.35 -7.61736 2.69784 0
M  V30 27076 H 2647.94 -5.65892 1.3512 0
M  V30 27077 H 2646.82 -7.33547 2.7727 0
M  V30 27078 N 2644.32 0.262839 -1.55393 0
M  V30 27079 C 2645.23 1.34694 -1.9208 0
M  V30 27080 C 2646.25 1.53506 -0.819254 0
M  V30 27081 O 2647.42 1.67437 -1.11924 0
M  V30 27082 C 2644.49 2.68439 -2.19412 0
M  V30 27083 C 2643.55 2.58286 -3.42909 0
M  V30 27084 C 2642.78 3.85653 -3.68928 0
M  V30 27085 O 2643 4.86805 -2.97283 0
M  V30 27086 O 2641.94 3.85244 -4.62462 0
M  V30 27087 H 2645.76 1.06576 -2.84386 0
M  V30 27088 H 2643.35 0.462239 -1.42069 0
M  V30 27089 H 2645.23 3.47502 -2.38371 0
M  V30 27090 H 2643.91 2.96323 -1.30287 0
M  V30 27091 H 2642.81 1.77564 -3.29275 0
M  V30 27092 H 2644.15 2.3535 -4.32286 0
M  V30 27093 N 2645.8 1.48499 0.527807 0
M  V30 27094 C 2647.03 1.60292 1.3082 0
M  V30 27095 C 2647.44 0.264007 1.86945 0
M  V30 27096 O 2646.8 -0.747005 1.66512 0
M  V30 27097 C 2646.85 2.6512 2.45751 0
M  V30 27098 O 2646.57 3.93816 1.91939 0
M  V30 27099 C 2648.07 2.87373 3.37538 0
M  V30 27100 H 2645.29 0.540401 0.397753 0
M  V30 27101 H 2647.84 1.94342 0.636495 0
M  V30 27102 H 2645.99 2.33923 3.08802 0
M  V30 27103 H 2646.4 4.51344 2.67187 0
M  V30 27104 H 2647.88 3.64517 4.14525 0
M  V30 27105 H 2648.36 1.96277 3.92902 0
M  V30 27106 H 2648.96 3.19883 2.80277 0
M  V30 27107 N 2647.28 -0.776847 1.37123 0
M  V30 27108 C 2648.69 -1.35282 1.28669 0
M  V30 27109 C 2649.04 -1.96082 -0.0679691 0
M  V30 27110 O 2648.16 -1.93457 -0.969709 0
M  V30 27111 C 2648.76 -2.45959 2.33001 0
M  V30 27112 C 2647.32 -2.99338 2.28197 0
M  V30 27113 C 2646.47 -1.72514 2.17105 0
M  V30 27114 H 2649.42 -0.577501 1.4782 0
M  V30 27115 H 2649.44 -3.25307 1.97372 0
M  V30 27116 H 2648.95 -2.01678 3.31584 0
M  V30 27117 H 2647.05 -3.48008 1.33121 0
M  V30 27118 H 2647.16 -3.55299 3.21403 0
M  V30 27119 H 2645.53 -1.95239 1.63565 0
M  V30 27120 H 2646.31 -1.30343 3.17594 0
M  V30 27121 N 2648.76 -1.2161 -1.00244 0
M  V30 27122 C 2650 -1.03641 -1.74317 0
M  V30 27123 C 2650.33 0.428715 -1.89409 0
M  V30 27124 O 2649.61 1.31807 -1.43028 0
M  V30 27125 C 2649.89 -1.73717 -3.15428 0
M  V30 27126 C 2649.75 -3.27765 -3.08043 0
M  V30 27127 C 2651.06 -1.4818 -4.14404 0
M  V30 27128 H 2648.18 -0.377911 -0.632734 0
M  V30 27129 H 2650.83 -1.4982 -1.16851 0
M  V30 27130 H 2648.98 -1.34458 -3.6449 0
M  V30 27131 H 2650.65 -3.76407 -2.66674 0
M  V30 27132 H 2648.89 -3.57935 -2.45081 0
M  V30 27133 H 2649.56 -3.71965 -4.07855 0
M  V30 27134 H 2652.04 -1.82264 -3.74057 0
M  V30 27135 H 2650.91 -1.99722 -5.11275 0
M  V30 27136 H 2651.17 -0.412351 -4.40173 0
M  V30 27137 N 2650.23 1.19778 -1.02425 0
M  V30 27138 C 2651.48 1.89623 -0.719085 0
M  V30 27139 C 2651.81 1.79131 0.750052 0
M  V30 27140 O 2651.09 1.18058 1.54572 0
M  V30 27141 C 2651.37 3.40732 -1.16505 0
M  V30 27142 C 2651.22 3.6012 -2.69506 0
M  V30 27143 C 2652.54 4.33796 -0.742242 0
M  V30 27144 H 2649.66 0.68859 -0.262702 0
M  V30 27145 H 2652.3 1.41016 -1.27336 0
M  V30 27146 H 2650.45 3.82261 -0.693477 0
M  V30 27147 H 2652.13 3.27794 -3.24575 0
M  V30 27148 H 2650.37 3.0333 -3.10118 0
M  V30 27149 H 2651.04 4.66076 -2.95765 0
M  V30 27150 H 2653.52 3.99957 -1.14777 0
M  V30 27151 H 2652.39 5.38126 -1.08223 0
M  V30 27152 H 2652.65 4.40667 0.355669 0
M  V30 27153 N 2651.71 0.801501 1.35697 0
M  V30 27154 C 2652.95 0.385063 2.0074 0
M  V30 27155 C 2653.32 -1.02716 1.62214 0
M  V30 27156 O 2654.52 -1.54533 2.19939 0
M  V30 27157 C 2652.79 0.557119 3.53031 0
M  V30 27158 S 2654.35 0.230349 4.38195 0
M  V30 27159 H 2651.16 0.14649 0.695746 0
M  V30 27160 H 2653.77 1.04264 1.65376 0
M  V30 27161 H 2652.47 1.58501 3.78557 0
M  V30 27162 H 2652 -0.11596 3.93229 0
M  V30 27163 H 2654.02 -0.963809 4.8675 0
M  V30 27164 N 2653.19 -1.47521 0.554558 0
M  V30 27165 C 2654.6 -1.86311 0.120479 0
M  V30 27166 C 2654.95 -1.46148 -1.30902 0
M  V30 27167 O 2654.08 -0.863329 -1.98433 0
M  V30 27168 C 2654.67 -3.38137 0.211868 0
M  V30 27169 C 2653.23 -3.76029 -0.167158 0
M  V30 27170 C 2652.38 -2.71574 0.560624 0
M  V30 27171 H 2655.33 -1.39076 0.764433 0
M  V30 27172 H 2655.35 -3.76203 -0.570209 0
M  V30 27173 H 2654.86 -3.67338 1.25238 0
M  V30 27174 H 2652.96 -3.52444 -1.20888 0
M  V30 27175 H 2653.08 -4.78725 0.189557 0
M  V30 27176 H 2651.44 -2.547 0.00401313 0
M  V30 27177 H 2652.22 -3.03617 1.60224 0
M  V30 27178 N 2654.67 -0.290879 -1.54892 0
M  V30 27179 C 2655.94 0.373955 -1.91992 0
M  V30 27180 C 2656.32 1.7249 -1.21697 0
M  V30 27181 O 2655.67 2.25816 -0.34921 0
M  V30 27182 C 2655.88 0.498642 -3.45419 0
M  V30 27183 C 2657.23 0.774225 -4.17482 0
M  V30 27184 O 2658.25 0.582846 -3.51399 0
M  V30 27185 O 2657.11 1.1412 -5.34452 0
M  V30 27186 H 2654.21 0.207301 -0.800597 0
M  V30 27187 H 2656.75 -0.338193 -1.66296 0
M  V30 27188 H 2655.53 -0.45146 -3.88687 0
M  V30 27189 H 2655.15 1.25965 -3.77119 0
M  V30 27190 N 2656.15 1.57589 -0.0184203 0
M  V30 27191 C 2657.06 2.13017 0.982906 0
M  V30 27192 C 2658.07 1.07981 1.36441 0
M  V30 27193 O 2659.25 1.39982 1.448 0
M  V30 27194 C 2656.31 2.63756 2.25019 0
M  V30 27195 C 2655.37 3.83465 1.93011 0
M  V30 27196 C 2654.61 4.31775 3.13698 0
M  V30 27197 O 2654.83 3.79312 4.26003 0
M  V30 27198 O 2653.76 5.23737 2.9662 0
M  V30 27199 H 2657.59 2.98831 0.541656 0
M  V30 27200 H 2655.17 1.48034 0.201539 0
M  V30 27201 H 2657.06 2.96507 2.99435 0
M  V30 27202 H 2655.73 1.8103 2.68346 0
M  V30 27203 H 2654.64 3.55657 1.16013 0
M  V30 27204 H 2655.97 4.6732 1.54508 0
M  V30 27205 N 2657.62 -0.254594 1.5553 0
M  V30 27206 C 2658.87 -0.985162 1.77264 0
M  V30 27207 C 2659.2 -1.85264 0.582319 0
M  V30 27208 O 2658.48 -1.89919 -0.419632 0
M  V30 27209 C 2658.76 -1.85219 3.08814 0
M  V30 27210 C 2658.61 -1.01342 4.38235 0
M  V30 27211 C 2659.93 -2.83606 3.36535 0
M  V30 27212 H 2657.05 -0.356731 0.644913 0
M  V30 27213 H 2659.69 -0.256202 1.88265 0
M  V30 27214 H 2657.84 -2.47371 2.99566 0
M  V30 27215 H 2659.52 -0.411189 4.59464 0
M  V30 27216 H 2657.76 -0.317498 4.32637 0
M  V30 27217 H 2658.43 -1.6537 5.26647 0
M  V30 27218 H 2660.91 -2.3159 3.45695 0
M  V30 27219 H 2659.78 -3.41399 4.29811 0
M  V30 27220 H 2660.04 -3.59677 2.5707 0
M  V30 27221 N 2659.1 -1.48777 -0.519925 0
M  V30 27222 C 2660.52 -1.3512 -0.849394 0
M  V30 27223 C 2660.72 -0.369855 -1.98077 0
M  V30 27224 O 2659.77 0.205315 -2.51664 0
M  V30 27225 C 2661.09 -2.75393 -1.20743 0
M  V30 27226 C 2662.63 -2.83956 -1.31674 0
M  V30 27227 C 2663.11 -4.24954 -1.70816 0
M  V30 27228 N 2664.6 -4.27675 -1.77901 0
M  V30 27229 C 2665.34 -5.33721 -2.09593 0
M  V30 27230 N 2664.83 -6.50034 -2.3964 0
M  V30 27231 N 2666.62 -5.21122 -2.10684 0
M  V30 27232 H 2658.78 -2.1119 0.226414 0
M  V30 27233 H 2661.04 -0.947211 0.0386686 0
M  V30 27234 H 2660.74 -3.48814 -0.449642 0
M  V30 27235 H 2660.62 -3.0956 -2.15528 0
M  V30 27236 H 2663.01 -2.10785 -2.06528 0
M  V30 27237 H 2663.09 -2.53396 -0.349855 0
M  V30 27238 H 2662.73 -4.98645 -0.965194 0
M  V30 27239 H 2662.66 -4.52964 -2.68572 0
M  V30 27240 H 2665.15 -3.43781 -1.56917 0
M  V30 27241 H 2665.46 -7.26687 -2.62957 0
M  V30 27242 H 2663.81 -6.53292 -2.37138 0
M  V30 27243 H 2667 -4.29267 -1.86674 0
M  V30 27244 H 2667.17 -6.03867 -2.35051 0
M  V30 27245 N 2660.58 0.769564 -1.37534 0
M  V30 27246 C 2661.51 1.89028 -1.27843 0
M  V30 27247 C 2662.49 1.61825 -0.158532 0
M  V30 27248 O 2663.67 1.85533 -0.333118 0
M  V30 27249 C 2660.8 3.24299 -0.977129 0
M  V30 27250 C 2659.85 3.7041 -2.11421 0
M  V30 27251 S 2660.68 3.83824 -3.73416 0
M  V30 27252 C 2661.84 5.2194 -3.45441 0
M  V30 27253 H 2662.07 1.96959 -2.22698 0
M  V30 27254 H 2659.6 0.930892 -1.23182 0
M  V30 27255 H 2661.56 4.02427 -0.81012 0
M  V30 27256 H 2660.22 3.14066 -0.0460253 0
M  V30 27257 H 2659.41 4.68484 -1.85845 0
M  V30 27258 H 2659.02 2.9939 -2.24146 0
M  V30 27259 H 2661.31 6.0718 -3.00565 0
M  V30 27260 H 2662.25 5.52529 -4.42851 0
M  V30 27261 H 2662.66 4.89981 -2.80319 0
M  V30 27262 N 2662.06 1.22139 0.995977 0
M  V30 27263 C 2663.34 0.952672 1.70832 0
M  V30 27264 C 2663.72 -0.533083 2.04258 0
M  V30 27265 O 2663.06 -1.50031 1.72345 0
M  V30 27266 C 2663.27 1.84706 2.96116 0
M  V30 27267 C 2664.62 2.10131 3.68958 0
M  V30 27268 O 2665.65 1.82129 3.06117 0
M  V30 27269 O 2664.5 2.57539 4.82012 0
M  V30 27270 H 2661.6 0.35801 0.745492 0
M  V30 27271 H 2664.14 1.33111 1.0526 0
M  V30 27272 H 2662.92 2.85218 2.67893 0
M  V30 27273 H 2662.54 1.47002 3.69427 0
M  V30 27274 N 2663.54 -1.19233 1.03059 0
M  V30 27275 C 2664.78 -1.88586 0.726614 0
M  V30 27276 C 2665.11 -1.80117 -0.747196 0
M  V30 27277 O 2664.38 -1.21277 -1.53847 0
M  V30 27278 H 2662.96 -0.698119 0.26578 0
M  V30 27279 H 2665.62 -1.44744 1.30519 0
M  V30 27280 H 2664.71 -2.94877 1.02245 0
M  V30 27281 N 2665.01 -0.808686 -1.3527 0
M  V30 27282 C 2666.25 -0.395703 -2.00533 0
M  V30 27283 C 2666.62 1.01854 -1.62757 0
M  V30 27284 O 2667.82 1.53364 -2.20755 0
M  V30 27285 C 2666.09 -0.575833 -3.52731 0
M  V30 27286 S 2667.65 -0.253584 -4.38067 0
M  V30 27287 H 2664.47 -0.150177 -0.694959 0
M  V30 27288 H 2667.07 -1.05139 -1.64821 0
M  V30 27289 H 2665.77 -1.60506 -3.77712 0
M  V30 27290 H 2665.3 0.0951047 -3.93285 0
M  V30 27291 H 2667.32 0.937982 -4.87254 0
M  V30 27292 N 2666.49 1.47225 -0.562374 0
M  V30 27293 C 2667.72 2.0685 -0.0452638 0
M  V30 27294 C 2668.14 1.41427 1.25076 0
M  V30 27295 O 2667.49 0.512544 1.75155 0
M  V30 27296 C 2667.54 3.61194 0.148611 0
M  V30 27297 O 2667.26 4.24167 -1.09609 0
M  V30 27298 C 2668.77 4.377 0.702411 0
M  V30 27299 H 2665.99 0.669267 -0.0481892 0
M  V30 27300 H 2668.53 1.89153 -0.777256 0
M  V30 27301 H 2666.68 3.78388 0.830751 0
M  V30 27302 H 2667.1 5.16772 -0.897073 0
M  V30 27303 H 2668.57 5.46356 0.787334 0
M  V30 27304 H 2669.05 4.04338 1.71486 0
M  V30 27305 H 2669.66 4.25263 0.0558025 0
M  V30 27306 N 2667.97 0.299089 1.54736 0
M  V30 27307 C 2668.9 -0.571045 2.2641 0
M  V30 27308 C 2669.88 -1.13949 1.26292 0
M  V30 27309 O 2671.07 -1.16918 1.55061 0
M  V30 27310 C 2668.2 -1.74391 3.00341 0
M  V30 27311 C 2667.15 -1.30591 4.0759 0
M  V30 27312 C 2666.48 -2.56379 4.69227 0
M  V30 27313 C 2667.78 -0.438553 5.20456 0
M  V30 27314 H 2669.47 0.0267517 2.99388 0
M  V30 27315 H 2667.02 0.0143065 1.43993 0
M  V30 27316 H 2668.97 -2.35872 3.49203 0
M  V30 27317 H 2667.69 -2.36792 2.24938 0
M  V30 27318 H 2666.35 -0.714177 3.59576 0
M  V30 27319 H 2666 -3.1709 3.90465 0
M  V30 27320 H 2665.7 -2.27774 5.41657 0
M  V30 27321 H 2667.22 -3.18666 5.2085 0
M  V30 27322 H 2668.64 -0.958986 5.65222 0
M  V30 27323 H 2667.04 -0.24636 5.99594 0
M  V30 27324 H 2668.11 0.536822 4.81919 0
M  V30 27325 N 2669.45 -1.57577 0.0267774 0
M  V30 27326 C 2670.68 -1.96002 -0.662627 0
M  V30 27327 C 2671.09 -0.903146 -1.65797 0
M  V30 27328 O 2670.45 0.115285 -1.82136 0
M  V30 27329 C 2670.5 -3.34491 -1.37107 0
M  V30 27330 O 2670.22 -4.36124 -0.415606 0
M  V30 27331 C 2671.72 -3.87533 -2.15251 0
M  V30 27332 H 2668.94 -0.645603 -0.182859 0
M  V30 27333 H 2671.49 -2.0432 0.0858475 0
M  V30 27334 H 2669.64 -3.27399 -2.07096 0
M  V30 27335 H 2670.05 -5.16397 -0.918405 0
M  V30 27336 H 2671.53 -4.86786 -2.60277 0
M  V30 27337 H 2672.01 -3.21654 -2.99057 0
M  V30 27338 H 2672.61 -3.97886 -1.50224 0
M  V30 27339 N 2670.93 0.246342 -1.55663 0
M  V30 27340 C 2672.2 0.997169 -1.68273 0
M  V30 27341 C 2672.58 2.03348 -0.566821 0
M  V30 27342 O 2671.93 2.24424 0.429648 0
M  V30 27343 C 2672.14 1.63001 -3.08597 0
M  V30 27344 C 2673.49 2.13165 -3.67214 0
M  V30 27345 O 2674.51 1.7294 -3.114 0
M  V30 27346 O 2673.37 2.87023 -4.65059 0
M  V30 27347 H 2670.47 0.464193 -0.684437 0
M  V30 27348 H 2673.01 0.240085 -1.67993 0
M  V30 27349 H 2671.78 0.88046 -3.81266 0
M  V30 27350 H 2671.41 2.45328 -3.1289 0
M  V30 27351 N 2672.4 1.4905 0.512027 0
M  V30 27352 C 2673.31 1.6762 1.64136 0
M  V30 27353 C 2674.33 0.55873 1.64785 0
M  V30 27354 O 2675.51 0.832066 1.83408 0
M  V30 27355 C 2672.57 1.7284 3.00545 0
M  V30 27356 C 2671.63 2.96345 3.10609 0
M  V30 27357 C 2670.87 3.01306 4.40512 0
M  V30 27358 O 2671.09 2.14166 5.28667 0
M  V30 27359 O 2670.02 3.93661 4.55318 0
M  V30 27360 H 2673.85 2.6327 1.51402 0
M  V30 27361 H 2671.43 1.32662 0.687108 0
M  V30 27362 H 2673.32 1.7869 3.81638 0
M  V30 27363 H 2671.99 0.803671 3.13565 0
M  V30 27364 H 2670.9 2.96018 2.28745 0
M  V30 27365 H 2672.23 3.88261 3.02513 0
M  V30 27366 N 2673.88 -0.762259 1.3794 0
M  V30 27367 C 2674.81 -1.88523 1.30352 0
M  V30 27368 C 2675.83 -1.61342 0.21743 0
M  V30 27369 O 2677.02 -1.72083 0.474321 0
M  V30 27370 C 2674.12 -3.23967 0.994901 0
M  V30 27371 C 2673.29 -3.78721 2.18836 0
M  V30 27372 C 2672.35 -4.92662 1.84853 0
M  V30 27373 O 2671.37 -5.07749 2.57253 0
M  V30 27374 N 2672.58 -5.74985 0.798302 0
M  V30 27375 H 2675.34 -1.95545 2.27117 0
M  V30 27376 H 2672.9 -0.941802 1.31688 0
M  V30 27377 H 2674.89 -3.97723 0.748238 0
M  V30 27378 H 2673.46 -3.12387 0.115501 0
M  V30 27379 H 2672.68 -2.96633 2.5962 0
M  V30 27380 H 2673.97 -4.12035 2.98504 0
M  V30 27381 H 2673.37 -5.65354 0.197711 0
M  V30 27382 H 2671.93 -6.48925 0.61151 0
M  V30 27383 N 2675.36 -1.22666 -0.989486 0
M  V30 27384 C 2676.29 -1.02407 -2.09845 0
M  V30 27385 C 2677.27 0.0561004 -1.70007 0
M  V30 27386 O 2678.46 -0.106782 -1.93906 0
M  V30 27387 C 2675.59 -0.604723 -3.41995 0
M  V30 27388 C 2674.54 -1.63122 -3.95696 0
M  V30 27389 C 2673.87 -1.06759 -5.23934 0
M  V30 27390 C 2675.17 -3.02204 -4.25993 0
M  V30 27391 H 2676.86 -1.95162 -2.27051 0
M  V30 27392 H 2674.41 -0.939747 -1.09109 0
M  V30 27393 H 2676.36 -0.450093 -4.18989 0
M  V30 27394 H 2675.08 0.358493 -3.24627 0
M  V30 27395 H 2673.74 -1.77368 -3.20837 0
M  V30 27396 H 2673.39 -0.0956306 -5.02909 0
M  V30 27397 H 2673.09 -1.75338 -5.6083 0
M  V30 27398 H 2674.61 -0.924622 -6.03559 0
M  V30 27399 H 2676.03 -2.91311 -4.93772 0
M  V30 27400 H 2674.43 -3.67938 -4.74069 0
M  V30 27401 H 2675.5 -3.51879 -3.3363 0
M  V30 27402 N 2676.84 1.18685 -1.0369 0
M  V30 27403 C 2677.77 2.24402 -0.645446 0
M  V30 27404 C 2678.75 1.66471 0.349482 0
M  V30 27405 O 2679.94 1.92828 0.230419 0
M  V30 27406 C 2677.07 3.473 -0.00371441 0
M  V30 27407 C 2676.02 4.17956 -0.921779 0
M  V30 27408 C 2675.35 5.34504 -0.144723 0
M  V30 27409 C 2676.65 4.71867 -2.23918 0
M  V30 27410 H 2678.34 2.57401 -1.52922 0
M  V30 27411 H 2675.89 1.23726 -0.736733 0
M  V30 27412 H 2677.84 4.20456 0.281835 0
M  V30 27413 H 2676.56 3.13524 0.914908 0
M  V30 27414 H 2675.22 3.46692 -1.19165 0
M  V30 27415 H 2674.87 4.96975 0.776186 0
M  V30 27416 H 2674.57 5.82712 -0.756308 0
M  V30 27417 H 2676.09 6.10453 0.133897 0
M  V30 27418 H 2677.51 5.36737 -2.01459 0
M  V30 27419 H 2675.9 5.30594 -2.80339 0
M  V30 27420 H 2676.97 3.89495 -2.88829 0
M  V30 27421 N 2678.32 0.815849 1.34839 0
M  V30 27422 C 2679.55 0.41273 2.02435 0
M  V30 27423 C 2679.96 -0.983878 1.61606 0
M  V30 27424 O 2679.3 -1.64693 0.813758 0
M  V30 27425 C 2679.36 0.427245 3.56952 0
M  V30 27426 C 2679.02 1.77596 4.2108 0
M  V30 27427 C 2680.02 2.73571 4.42103 0
M  V30 27428 C 2677.71 2.06251 4.58002 0
M  V30 27429 C 2679.7 3.96379 4.99162 0
M  V30 27430 C 2677.39 3.29319 5.14774 0
M  V30 27431 C 2678.39 4.24201 5.35297 0
M  V30 27432 O 2678.07 5.45096 5.90869 0
M  V30 27433 H 2677.81 0.164706 0.655628 0
M  V30 27434 H 2680.36 1.10343 1.73244 0
M  V30 27435 H 2678.59 -0.320108 3.85373 0
M  V30 27436 H 2680.28 0.0451588 4.05875 0
M  V30 27437 H 2681.04 2.52728 4.13949 0
M  V30 27438 H 2676.92 1.33204 4.41336 0
M  V30 27439 H 2680.47 4.70448 5.15096 0
M  V30 27440 H 2676.36 3.5003 5.42356 0
M  V30 27441 H 2677.13 5.46519 6.0931 0
M  V30 27442 N 2679.8 -1.46924 0.570174 0
M  V30 27443 C 2681.02 -2.07329 0.0542956 0
M  V30 27444 C 2681.45 -1.41809 -1.2358 0
M  V30 27445 O 2680.8 -0.49751 -1.7434 0
M  V30 27446 C 2680.85 -3.60429 -0.111112 0
M  V30 27447 O 2679.96 -3.95436 -1.17064 0
M  V30 27448 H 2679.3 -0.661536 0.0571541 0
M  V30 27449 H 2681.83 -1.88752 0.789549 0
M  V30 27450 H 2681.84 -4.06733 -0.321244 0
M  V30 27451 H 2680.51 -4.07512 0.831084 0
M  V30 27452 H 2679.09 -3.60859 -0.939966 0
M  V30 27453 N 2681.27 -0.307291 -1.54575 0
M  V30 27454 C 2682.52 0.300132 -2.00263 0
M  V30 27455 C 2682.85 1.53411 -1.19564 0
M  V30 27456 O 2682.1 1.93945 -0.261521 0
M  V30 27457 C 2682.4 0.695191 -3.50574 0
M  V30 27458 C 2682.07 -0.437758 -4.4877 0
M  V30 27459 C 2680.73 -0.748765 -4.75339 0
M  V30 27460 C 2683.08 -1.19958 -5.07208 0
M  V30 27461 C 2680.41 -1.8246 -5.57607 0
M  V30 27462 C 2682.76 -2.26538 -5.90647 0
M  V30 27463 C 2681.43 -2.58238 -6.15524 0
M  V30 27464 H 2680.7 0.109826 -0.732816 0
M  V30 27465 H 2683.34 -0.427694 -1.86663 0
M  V30 27466 H 2681.65 1.5032 -3.61817 0
M  V30 27467 H 2683.35 1.17646 -3.83354 0
M  V30 27468 H 2679.94 -0.185262 -4.28199 0
M  V30 27469 H 2684.12 -0.97256 -4.86677 0
M  V30 27470 H 2679.38 -2.07486 -5.75117 0
M  V30 27471 H 2683.55 -2.86022 -6.34952 0
M  V30 27472 H 2681.18 -3.41732 -6.7906 0
M  V30 27473 N 2682.75 1.57561 -0.0351337 0
M  V30 27474 C 2683.7 2.11744 0.96267 0
M  V30 27475 C 2684.69 1.04542 1.33294 0
M  V30 27476 O 2685.9 1.2297 1.31447 0
M  V30 27477 H 2682.27 0.676577 0.328248 0
M  V30 27478 H 2684.25 2.94507 0.480428 0
M  V30 27479 C 2682.99 2.66449 2.23384 0
M  V30 27480 H 2682.32 3.4859 1.95768 0
M  V30 27481 H 2683.76 3.08 2.91397 0
M  V30 27482 C 2682.22 1.59472 2.96766 0
M  V30 27483 O 2682.75 0.998068 3.89103 0
M  V30 27484 N 2680.95 1.31373 2.59209 0
M  V30 27485 H 2680.5 1.8008 1.84199 0
M  V30 27486 H 2680.46 0.600227 3.08617 0
M  V30 27487 N 2684.23 -0.238084 1.55791 0
M  V30 27488 C 2685.16 -1.29842 1.9407 0
M  V30 27489 C 2686.14 -1.49752 0.806752 0
M  V30 27490 O 2687.33 -1.62212 1.06775 0
M  V30 27491 C 2684.46 -2.65149 2.24307 0
M  V30 27492 C 2683.41 -2.59921 3.40037 0
M  V30 27493 C 2682.74 -3.99105 3.55836 0
M  V30 27494 C 2684.04 -2.16139 4.7548 0
M  V30 27495 H 2685.73 -0.980514 2.82889 0
M  V30 27496 H 2683.28 -0.470229 1.36106 0
M  V30 27497 H 2685.23 -3.3947 2.49676 0
M  V30 27498 H 2683.95 -2.98594 1.32323 0
M  V30 27499 H 2682.61 -1.88057 3.1469 0
M  V30 27500 H 2682.26 -4.2983 2.61258 0
M  V30 27501 H 2681.96 -3.96493 4.33667 0
M  V30 27502 H 2683.48 -4.75113 3.83536 0
M  V30 27503 H 2684.9 -2.80197 5.00163 0
M  V30 27504 H 2683.29 -2.24621 5.56476 0
M  V30 27505 H 2684.36 -1.11325 4.71948 0
M  V30 27506 N 2685.71 -1.4932 -0.504115 0
M  V30 27507 C 2686.93 -1.62617 -1.28726 0
M  V30 27508 C 2687.36 -0.296342 -1.85751 0
M  V30 27509 O 2686.72 0.73562 -1.65706 0
M  V30 27510 C 2686.76 -2.69528 -2.39556 0
M  V30 27511 O 2685.87 -2.28484 -3.4332 0
M  V30 27512 H 2685.21 -0.544401 -0.380162 0
M  V30 27513 H 2687.74 -1.95486 -0.603838 0
M  V30 27514 H 2687.75 -2.916 -2.85365 0
M  V30 27515 H 2686.42 -3.66059 -1.97417 0
M  V30 27516 H 2685 -2.1673 -3.03451 0
M  V30 27517 N 2687.19 0.754933 -1.38342 0
M  V30 27518 C 2688.41 1.54928 -1.37885 0
M  V30 27519 C 2688.84 1.88077 0.0296055 0
M  V30 27520 O 2688.19 1.50474 1.0113 0
M  V30 27521 C 2688.24 2.82588 -2.24001 0
M  V30 27522 O 2687.35 3.77683 -1.65619 0
M  V30 27523 H 2686.69 0.468644 -0.470392 0
M  V30 27524 H 2689.22 0.93305 -1.82086 0
M  V30 27525 H 2689.23 3.31526 -2.37812 0
M  V30 27526 H 2687.9 2.57791 -3.26369 0
M  V30 27527 H 2686.48 3.36381 -1.60942 0
M  V30 27528 N 2688.66 1.23189 0.982967 0
M  V30 27529 C 2689.59 1.03519 2.09299 0
M  V30 27530 C 2690.57 -0.0470837 1.70035 0
M  V30 27531 O 2691.76 0.117064 1.93847 0
M  V30 27532 C 2688.89 0.622851 3.41669 0
M  V30 27533 C 2687.84 1.65218 3.94825 0
M  V30 27534 C 2687.17 1.09536 5.2336 0
M  V30 27535 C 2688.47 3.04459 4.24385 0
M  V30 27536 H 2690.16 1.96363 2.26013 0
M  V30 27537 H 2687.71 0.94552 1.08609 0
M  V30 27538 H 2689.66 0.472307 4.18745 0
M  V30 27539 H 2688.39 -0.341272 3.24812 0
M  V30 27540 H 2687.05 1.79067 3.19891 0
M  V30 27541 H 2686.69 0.1223 5.02851 0
M  V30 27542 H 2686.39 1.7831 5.59892 0
M  V30 27543 H 2687.92 0.956617 6.0306 0
M  V30 27544 H 2689.33 2.93926 4.9222 0
M  V30 27545 H 2687.73 3.70447 4.72112 0
M  V30 27546 H 2688.8 3.53644 3.31759 0
M  V30 27547 N 2690.14 -1.18133 1.04318 0
M  V30 27548 C 2691.37 -1.92653 0.768081 0
M  V30 27549 C 2691.79 -1.75801 -0.669009 0
M  V30 27550 O 2691.15 -1.06983 -1.4637 0
M  V30 27551 C 2691.2 -3.42024 1.14245 0
M  V30 27552 O 2690.3 -4.11519 0.269405 0
M  V30 27553 H 2689.64 -0.600932 0.282447 0
M  V30 27554 H 2692.17 -1.49791 1.39369 0
M  V30 27555 H 2692.18 -3.92739 1.10545 0
M  V30 27556 H 2690.86 -3.53611 2.18934 0
M  V30 27557 H 2689.43 -3.71097 0.366241 0
M  V30 27558 N 2691.62 -0.822988 -1.34405 0
M  V30 27559 C 2692.85 -0.424075 -2.02507 0
M  V30 27560 C 2693.26 0.969994 -1.61977 0
M  V30 27561 O 2692.62 1.62775 -0.825257 0
M  V30 27562 C 2692.67 -0.51672 -3.57788 0
M  V30 27563 O 2692.39 -1.85584 -3.9685 0
M  V30 27564 C 2693.89 -0.112715 -4.43157 0
M  V30 27565 H 2691.11 -0.170184 -0.64906 0
M  V30 27566 H 2693.66 -1.11116 -1.71678 0
M  V30 27567 H 2691.81 0.122285 -3.87207 0
M  V30 27568 H 2692.23 -1.83014 -4.91535 0
M  V30 27569 H 2693.7 -0.228623 -5.51526 0
M  V30 27570 H 2694.18 0.943761 -4.2894 0
M  V30 27571 H 2694.78 -0.725522 -4.19066 0
M  V30 27572 N 2693.1 1.4662 -0.577957 0
M  V30 27573 C 2694.32 2.07297 -0.06529 0
M  V30 27574 C 2694.75 1.42462 1.22826 0
M  V30 27575 O 2694.11 0.506748 1.74074 0
M  V30 27576 C 2694.15 3.60483 0.0919955 0
M  V30 27577 O 2693.26 3.96051 1.14965 0
M  V30 27578 H 2692.6 0.661223 -0.0606616 0
M  V30 27579 H 2695.13 1.88331 -0.799548 0
M  V30 27580 H 2695.14 4.06898 0.299669 0
M  V30 27581 H 2693.81 4.07065 -0.852683 0
M  V30 27582 H 2692.39 3.61352 0.920815 0
M  V30 27583 N 2694.58 0.315484 1.5441 0
M  V30 27584 C 2695.8 -0.291702 2.04833 0
M  V30 27585 C 2696.22 -1.46409 1.19206 0
M  V30 27586 O 2695.58 -1.81158 0.220899 0
M  V30 27587 C 2695.63 -0.733978 3.5397 0
M  V30 27588 O 2695.35 0.391758 4.36345 0
M  V30 27589 C 2696.85 -1.40481 4.20452 0
M  V30 27590 H 2694.07 -0.061283 0.668196 0
M  V30 27591 H 2696.61 0.459325 1.99275 0
M  V30 27592 H 2694.77 -1.435 3.59842 0
M  V30 27593 H 2695.18 0.044801 5.24481 0
M  V30 27594 H 2696.66 -1.66529 5.26281 0
M  V30 27595 H 2697.13 -2.34954 3.71071 0
M  V30 27596 H 2697.74 -0.746588 4.18696 0
M  V30 27597 N 2696.05 -1.5754 0.0434891 0
M  V30 27598 C 2697.3 -1.92385 -0.632001 0
M  V30 27599 C 2697.63 -0.921187 -1.71302 0
M  V30 27600 O 2696.88 0.0677096 -1.95583 0
M  V30 27601 C 2697.18 -3.33932 -1.27374 0
M  V30 27602 C 2696.85 -4.49751 -0.321678 0
M  V30 27603 C 2695.51 -4.81163 -0.0596765 0
M  V30 27604 C 2697.86 -5.20146 0.33125 0
M  V30 27605 C 2695.19 -5.80321 0.862817 0
M  V30 27606 C 2697.54 -6.2029 1.24189 0
M  V30 27607 C 2696.21 -6.50135 1.51264 0
M  V30 27608 H 2695.48 -0.703987 -0.231266 0
M  V30 27609 H 2698.12 -1.91193 0.108327 0
M  V30 27610 H 2696.43 -3.31454 -2.08915 0
M  V30 27611 H 2698.13 -3.5817 -1.8032 0
M  V30 27612 H 2694.72 -4.25234 -0.536065 0
M  V30 27613 H 2698.9 -4.96097 0.141913 0
M  V30 27614 H 2694.16 -6.01783 1.08014 0
M  V30 27615 H 2698.33 -6.73951 1.75393 0
M  V30 27616 H 2695.96 -7.26784 2.22909 0
M  V30 27617 N 2697.53 0.229818 -1.55915 0
M  V30 27618 C 2698.48 1.28474 -1.91737 0
M  V30 27619 C 2699.45 1.46987 -0.773565 0
M  V30 27620 O 2700.63 1.60691 -1.02874 0
M  V30 27621 C 2697.77 2.63178 -2.23229 0
M  V30 27622 C 2696.89 2.52533 -3.50501 0
M  V30 27623 C 2696.02 3.79705 -3.71481 0
M  V30 27624 C 2695.06 3.63747 -4.92295 0
M  V30 27625 N 2694.2 4.82849 -5.09707 0
M  V30 27626 H 2699.04 0.972258 -2.81693 0
M  V30 27627 H 2696.58 0.468791 -1.3943 0
M  V30 27628 H 2698.53 3.4161 -2.39496 0
M  V30 27629 H 2697.16 2.9254 -1.36456 0
M  V30 27630 H 2696.22 1.65579 -3.42473 0
M  V30 27631 H 2697.53 2.36658 -4.39083 0
M  V30 27632 H 2696.68 4.6658 -3.87799 0
M  V30 27633 H 2695.42 3.98495 -2.81164 0
M  V30 27634 H 2694.43 2.75256 -4.75935 0
M  V30 27635 H 2695.65 3.46435 -5.84089 0
M  V30 27636 H 2693.6 5.01969 -4.22331 0
M  V30 27637 H 2693.51 4.6967 -5.92407 0
M  V30 27638 H 2694.78 5.71174 -5.30453 0
M  V30 27639 N 2699.01 1.49585 0.49619 0
M  V30 27640 C 2700.26 1.59551 1.25186 0
M  V30 27641 C 2700.59 0.2835 1.9212 0
M  V30 27642 O 2699.86 -0.713292 1.80949 0
M  V30 27643 C 2700.15 2.75816 2.31511 0
M  V30 27644 C 2700 4.16825 1.69047 0
M  V30 27645 C 2701.32 2.87708 3.33035 0
M  V30 27646 H 2698.44 0.580735 0.45378 0
M  V30 27647 H 2701.08 1.81887 0.549295 0
M  V30 27648 H 2699.23 2.56902 2.91433 0
M  V30 27649 H 2700.9 4.47267 1.12915 0
M  V30 27650 H 2699.15 4.22249 0.994411 0
M  V30 27651 H 2699.82 4.94059 2.46191 0
M  V30 27652 H 2702.29 3.04941 2.83109 0
M  V30 27653 H 2701.17 3.70727 4.04787 0
M  V30 27654 H 2701.43 1.97262 3.95652 0
M  V30 27655 N 2700.49 -0.747586 1.3874 0
M  V30 27656 C 2701.72 -1.53684 1.38524 0
M  V30 27657 C 2702.13 -1.88785 -0.0234797 0
M  V30 27658 O 2701.49 -1.53208 -0.991635 0
M  V30 27659 C 2701.54 -2.83225 2.24646 0
M  V30 27660 O 2701.26 -2.49619 3.60031 0
M  V30 27661 C 2702.76 -3.77329 2.32675 0
M  V30 27662 H 2699.98 -0.475338 0.473597 0
M  V30 27663 H 2702.53 -0.924754 1.82397 0
M  V30 27664 H 2700.68 -3.40796 1.84219 0
M  V30 27665 H 2701.09 -3.32743 4.05441 0
M  V30 27666 H 2702.57 -4.65157 2.97209 0
M  V30 27667 H 2703.05 -4.18189 1.34217 0
M  V30 27668 H 2703.65 -3.25681 2.73518 0
M  V30 27669 N 2701.97 -1.23709 -0.97642 0
M  V30 27670 C 2703.38 -1.0006 -1.24339 0
M  V30 27671 C 2703.58 0.295897 -1.99316 0
M  V30 27672 O 2702.64 1.01431 -2.31231 0
M  V30 27673 C 2703.95 -2.21005 -2.03905 0
M  V30 27674 C 2705.5 -2.25537 -2.1703 0
M  V30 27675 C 2705.97 -3.4608 -2.99988 0
M  V30 27676 N 2707.47 -3.46343 -3.07572 0
M  V30 27677 C 2708.2 -4.36271 -3.72096 0
M  V30 27678 N 2707.7 -5.3644 -4.38411 0
M  V30 27679 N 2709.49 -4.24004 -3.69022 0
M  V30 27680 H 2701.64 -2.07038 -0.474244 0
M  V30 27681 H 2703.9 -0.908096 -0.272151 0
M  V30 27682 H 2703.61 -3.15114 -1.56192 0
M  V30 27683 H 2703.48 -2.22414 -3.0465 0
M  V30 27684 H 2705.87 -1.31965 -2.63949 0
M  V30 27685 H 2705.95 -2.28158 -1.1566 0
M  V30 27686 H 2705.6 -4.39961 -2.53764 0
M  V30 27687 H 2705.53 -3.40701 -4.01535 0
M  V30 27688 H 2708.02 -2.7387 -2.60392 0
M  V30 27689 H 2708.33 -6.01308 -4.85436 0
M  V30 27690 H 2706.67 -5.40336 -4.37107 0
M  V30 27691 H 2709.87 -3.44989 -3.16386 0
M  V30 27692 H 2710.04 -4.94289 -4.19025 0
M  V30 27693 N 2703.44 1.17579 -1.04943 0
M  V30 27694 C 2704.72 1.83696 -0.67195 0
M  V30 27695 C 2705.1 1.93323 0.847895 0
M  V30 27696 O 2704.45 1.46586 1.75285 0
M  V30 27697 C 2704.66 3.21494 -1.35803 0
M  V30 27698 C 2706.01 3.9743 -1.49447 0
M  V30 27699 O 2707.03 3.30965 -1.31684 0
M  V30 27700 O 2705.89 5.16536 -1.78472 0
M  V30 27701 H 2702.98 0.792544 -0.236226 0
M  V30 27702 H 2705.53 1.24897 -1.14887 0
M  V30 27703 H 2704.3 3.09441 -2.39503 0
M  V30 27704 H 2703.93 3.87958 -0.870304 0
M  V30 27705 N 2704.92 0.830104 1.33967 0
M  V30 27706 C 2706.15 0.433831 2.02812 0
M  V30 27707 C 2706.57 -0.954586 1.62078 0
M  V30 27708 O 2705.93 -1.6225 0.808983 0
M  V30 27709 C 2705.98 0.552178 3.56347 0
M  V30 27710 O 2705.08 -0.425119 4.10203 0
M  V30 27711 H 2704.42 0.177578 0.639814 0
M  V30 27712 H 2706.95 1.12251 1.71058 0
M  V30 27713 H 2706.96 0.430585 4.05722 0
M  V30 27714 H 2705.64 1.56477 3.85341 0
M  V30 27715 H 2704.22 -0.261812 3.7198 0
M  V30 27716 N 2706.4 -1.46311 0.585725 0
M  V30 27717 C 2707.82 -1.57667 0.247634 0
M  V30 27718 C 2708.02 -1.58039 -1.25004 0
M  V30 27719 O 2707.07 -1.49896 -2.03193 0
M  V30 27720 C 2708.39 -2.86931 0.899507 0
M  V30 27721 C 2709.93 -3.00568 0.873379 0
M  V30 27722 C 2710.41 -4.32572 1.50485 0
M  V30 27723 N 2711.9 -4.39278 1.46933 0
M  V30 27724 C 2712.64 -5.4004 1.92728 0
M  V30 27725 N 2712.13 -6.4746 2.4651 0
M  V30 27726 N 2713.92 -5.3126 1.83627 0
M  V30 27727 H 2706.08 -1.44314 1.55843 0
M  V30 27728 H 2708.34 -0.688587 0.651576 0
M  V30 27729 H 2708.04 -2.92479 1.95318 0
M  V30 27730 H 2707.92 -3.7497 0.409542 0
M  V30 27731 H 2710.31 -2.946 -0.171685 0
M  V30 27732 H 2710.39 -2.13997 1.40139 0
M  V30 27733 H 2710.03 -4.39297 2.54913 0
M  V30 27734 H 2709.96 -5.17923 0.952035 0
M  V30 27735 H 2712.45 -3.62251 1.07623 0
M  V30 27736 H 2712.76 -7.20562 2.79304 0
M  V30 27737 H 2711.11 -6.48271 2.50538 0
M  V30 27738 H 2714.3 -4.46244 1.41366 0
M  V30 27739 H 2714.47 -6.09644 2.19632 0
M  V30 27740 N 2707.88 -0.323668 -1.54241 0
M  V30 27741 C 2709.11 0.280835 -2.04985 0
M  V30 27742 C 2709.52 1.45774 -1.1998 0
M  V30 27743 O 2708.88 1.81038 -0.230503 0
M  V30 27744 C 2708.93 0.715195 -3.54355 0
M  V30 27745 O 2708.65 -0.414893 -4.36131 0
M  V30 27746 C 2710.15 1.3825 -4.21191 0
M  V30 27747 H 2707.37 0.0577385 -0.668511 0
M  V30 27748 H 2709.92 -0.469887 -1.99028 0
M  V30 27749 H 2708.07 1.41589 -3.60598 0
M  V30 27750 H 2708.49 -0.0726148 -5.2445 0
M  V30 27751 H 2709.96 1.63736 -5.27157 0
M  V30 27752 H 2710.44 2.32982 -3.72311 0
M  V30 27753 H 2711.04 0.724373 -4.19086 0
M  V30 27754 N 2709.36 1.57515 -0.0518432 0
M  V30 27755 C 2710.59 1.96746 0.630445 0
M  V30 27756 C 2711 0.928082 1.64873 0
M  V30 27757 O 2710.34 -0.0960356 1.83449 0
M  V30 27758 C 2710.4 3.32217 1.37375 0
M  V30 27759 C 2710.06 4.54132 0.511219 0
M  V30 27760 C 2711.06 5.19422 -0.222976 0
M  V30 27761 C 2708.75 5.00352 0.441947 0
M  V30 27762 C 2710.74 6.29269 -1.01487 0
M  V30 27763 C 2708.43 6.10076 -0.353637 0
M  V30 27764 C 2709.43 6.74395 -1.08073 0
M  V30 27765 O 2709.11 7.82009 -1.86323 0
M  V30 27766 H 2708.85 0.652385 0.177115 0
M  V30 27767 H 2711.4 2.05079 -0.114762 0
M  V30 27768 H 2709.63 3.2044 2.1646 0
M  V30 27769 H 2711.32 3.56192 1.94634 0
M  V30 27770 H 2712.08 4.8467 -0.178931 0
M  V30 27771 H 2707.96 4.50079 0.997483 0
M  V30 27772 H 2711.51 6.79404 -1.58291 0
M  V30 27773 H 2707.4 6.44264 -0.399318 0
M  V30 27774 H 2708.17 7.9879 -1.78542 0
M  V30 27775 N 2710.84 -0.221546 1.56035 0
M  V30 27776 C 2712.06 -0.966994 1.83477 0
M  V30 27777 C 2712.49 -1.77159 0.632171 0
M  V30 27778 O 2711.84 -1.76391 -0.419051 0
M  V30 27779 C 2711.89 -1.86029 3.0891 0
M  V30 27780 O 2711 -2.95562 2.87605 0
M  V30 27781 H 2710.34 -0.273807 0.604918 0
M  V30 27782 H 2712.87 -0.234858 2.03248 0
M  V30 27783 H 2712.88 -2.2701 3.39014 0
M  V30 27784 H 2711.55 -1.26891 3.9607 0
M  V30 27785 H 2710.13 -2.58527 2.68734 0
M  V30 27786 N 2712.31 -1.49846 -0.48825 0
M  V30 27787 C 2713.56 -1.60212 -1.24338 0
M  V30 27788 C 2713.89 -0.293685 -1.91966 0
M  V30 27789 O 2713.17 0.703686 -1.81324 0
M  V30 27790 C 2713.45 -2.7704 -2.30045 0
M  V30 27791 C 2713.3 -4.17716 -1.66834 0
M  V30 27792 C 2714.62 -2.8947 -3.31504 0
M  V30 27793 H 2711.74 -0.583133 -0.450694 0
M  V30 27794 H 2714.38 -1.82175 -0.539641 0
M  V30 27795 H 2712.53 -2.58444 -2.90067 0
M  V30 27796 H 2714.21 -4.4786 -1.10542 0
M  V30 27797 H 2712.45 -4.2277 -0.972004 0
M  V30 27798 H 2713.12 -4.95357 -2.43567 0
M  V30 27799 H 2715.6 -3.06438 -2.81487 0
M  V30 27800 H 2714.47 -3.72869 -4.02815 0
M  V30 27801 H 2714.73 -1.99357 -3.946 0
M  V30 27802 N 2713.79 0.740218 -1.39135 0
M  V30 27803 C 2715.04 1.49671 -1.35805 0
M  V30 27804 C 2715.36 1.94943 0.0470554 0
M  V30 27805 O 2714.63 1.68613 0.997318 0
M  V30 27806 H 2713.21 0.555215 -0.499745 0
M  V30 27807 H 2715.87 0.879076 -1.73949 0
M  V30 27808 H 2714.97 2.3813 -2.01744 0
M  V30 27809 N 2715.27 1.24225 0.969846 0
M  V30 27810 C 2716.52 1.08226 1.71508 0
M  V30 27811 C 2716.85 -0.378346 1.90479 0
M  V30 27812 O 2716.12 -1.27969 1.46473 0
M  V30 27813 C 2716.41 1.82019 3.10711 0
M  V30 27814 C 2716.26 3.35817 2.99244 0
M  V30 27815 C 2717.58 1.59115 4.1033 0
M  V30 27816 H 2714.7 0.394554 0.622492 0
M  V30 27817 H 2717.34 1.52865 1.12837 0
M  V30 27818 H 2715.49 1.44075 3.60797 0
M  V30 27819 H 2717.16 3.83345 2.56601 0
M  V30 27820 H 2715.4 3.64307 2.35505 0
M  V30 27821 H 2716.08 3.82648 3.9785 0
M  V30 27822 H 2718.55 1.92118 3.69093 0
M  V30 27823 H 2717.43 2.13207 5.058 0
M  V30 27824 H 2717.69 0.52891 4.38925 0
M  V30 27825 N 2716.75 -1.1702 1.05565 0
M  V30 27826 C 2717.99 -1.89053 0.777066 0
M  V30 27827 C 2718.35 -1.79419 -0.683586 0
M  V30 27828 O 2719.55 -2.46305 -1.07644 0
M  V30 27829 C 2717.82 -3.34868 1.24892 0
M  V30 27830 S 2719.38 -4.24833 1.09827 0
M  V30 27831 H 2716.2 -0.652644 0.282093 0
M  V30 27832 H 2718.8 -1.41304 1.35106 0
M  V30 27833 H 2717.51 -3.39416 2.30705 0
M  V30 27834 H 2717.04 -3.87664 0.66936 0
M  V30 27835 H 2719.05 -4.96194 0.0247073 0
M  V30 27836 N 2718.23 -0.837197 -1.33524 0
M  V30 27837 C 2719.45 -0.44553 -2.02046 0
M  V30 27838 C 2719.87 0.952759 -1.62997 0
M  V30 27839 O 2719.23 1.61891 -0.842475 0
M  V30 27840 C 2719.28 -0.554639 -3.5722 0
M  V30 27841 O 2719 -1.89783 -3.94859 0
M  V30 27842 C 2720.5 -0.159711 -4.43012 0
M  V30 27843 H 2717.72 -0.177059 -0.647218 0
M  V30 27844 H 2720.26 -1.12931 -1.7049 0
M  V30 27845 H 2718.42 0.08121 -3.87315 0
M  V30 27846 H 2718.83 -1.88217 -4.89566 0
M  V30 27847 H 2720.31 -0.287107 -5.51253 0
M  V30 27848 H 2720.78 0.898213 -4.29917 0
M  V30 27849 H 2721.39 -0.769929 -4.18273 0
M  V30 27850 N 2719.7 1.45999 -0.593476 0
M  V30 27851 C 2720.95 2.02329 -0.0831878 0
M  V30 27852 C 2721.28 1.46366 1.28091 0
M  V30 27853 O 2720.53 0.622825 1.85525 0
M  V30 27854 C 2720.83 3.57394 0.0211152 0
M  V30 27855 C 2720.5 4.32445 -1.27679 0
M  V30 27856 C 2719.16 4.52668 -1.63235 0
M  V30 27857 C 2721.51 4.75456 -2.1352 0
M  V30 27858 C 2718.84 5.13155 -2.8441 0
M  V30 27859 C 2721.19 5.37283 -3.33931 0
M  V30 27860 C 2719.86 5.55731 -3.69756 0
M  V30 27861 H 2719.13 0.740374 -0.0304406 0
M  V30 27862 H 2721.77 1.75238 -0.77227 0
M  V30 27863 H 2720.08 3.83683 0.793387 0
M  V30 27864 H 2721.78 3.98668 0.431872 0
M  V30 27865 H 2718.37 4.17009 -0.99001 0
M  V30 27866 H 2722.55 4.59579 -1.87352 0
M  V30 27867 H 2717.81 5.25628 -3.12291 0
M  V30 27868 H 2721.98 5.69567 -4.00708 0
M  V30 27869 H 2719.61 6.02369 -4.63741 0
M  V30 27870 N 2721.18 0.331843 1.54067 0
M  V30 27871 C 2722.15 -0.517729 2.23276 0
M  V30 27872 C 2723.15 -1.03695 1.22898 0
M  V30 27873 O 2724.34 -0.928058 1.4742 0
M  V30 27874 C 2721.47 -1.71998 2.94329 0
M  V30 27875 H 2722.66 0.0874034 2.99773 0
M  V30 27876 H 2720.21 0.0830317 1.56079 0
M  V30 27877 H 2720.95 -2.36413 2.2199 0
M  V30 27878 H 2720.73 -1.355 3.67943 0
M  V30 27879 H 2722.22 -2.32285 3.47035 0
M  V30 27880 N 2722.66 -1.57485 0.0601958 0
M  V30 27881 C 2723.91 -1.93331 -0.612467 0
M  V30 27882 C 2724.24 -0.939556 -1.69959 0
M  V30 27883 O 2723.51 0.0330616 -1.94472 0
M  V30 27884 C 2723.8 -3.39511 -1.20019 0
M  V30 27885 C 2723.65 -4.49639 -0.120511 0
M  V30 27886 C 2724.97 -3.86267 -2.10916 0
M  V30 27887 H 2722.09 -0.70303 -0.221172 0
M  V30 27888 H 2724.73 -1.89596 0.123801 0
M  V30 27889 H 2722.88 -3.42824 -1.82768 0
M  V30 27890 H 2724.55 -4.58451 0.51193 0
M  V30 27891 H 2722.8 -4.30295 0.550327 0
M  V30 27892 H 2723.47 -5.49029 -0.571922 0
M  V30 27893 H 2725.94 -3.84887 -1.58118 0
M  V30 27894 H 2724.82 -4.89184 -2.48978 0
M  V30 27895 H 2725.08 -3.23541 -3.01286 0
M  V30 27896 N 2724.14 0.213268 -1.5615 0
M  V30 27897 C 2725.39 0.93458 -1.79193 0
M  V30 27898 C 2725.71 1.84538 -0.630145 0
M  V30 27899 O 2724.98 1.92702 0.352536 0
M  V30 27900 H 2723.56 0.348085 -0.660943 0
M  V30 27901 H 2726.22 0.223136 -1.93618 0
M  V30 27902 H 2725.32 1.53649 -2.71658 0
M  V30 27903 N 2725.62 1.50103 0.480296 0
M  V30 27904 C 2727.03 1.53595 1.06139 0
M  V30 27905 C 2727.38 0.334089 1.93335 0
M  V30 27906 O 2726.5 -0.553993 2.09189 0
M  V30 27907 C 2727.1 2.78339 1.93165 0
M  V30 27908 C 2725.66 2.84542 2.464 0
M  V30 27909 C 2724.8 2.47772 1.24517 0
M  V30 27910 H 2727.76 1.56501 0.263302 0
M  V30 27911 H 2727.78 2.59673 2.78119 0
M  V30 27912 H 2727.29 3.65795 1.29676 0
M  V30 27913 H 2725.39 2.01416 3.13468 0
M  V30 27914 H 2725.5 3.87216 2.82136 0
M  V30 27915 H 2723.87 2.00005 1.57702 0
M  V30 27916 H 2724.65 3.37525 0.627043 0
M  V30 27917 N 2727.09 -0.732829 1.39526 0
M  V30 27918 C 2728 -1.87727 1.40698 0
M  V30 27919 C 2729.02 -1.71368 0.301526 0
M  V30 27920 O 2730.2 -1.93932 0.543347 0
M  V30 27921 C 2727.26 -3.23342 1.25104 0
M  V30 27922 C 2726.32 -3.52079 2.4564 0
M  V30 27923 C 2725.56 -4.81224 2.3078 0
M  V30 27924 O 2725.78 -5.55096 1.31243 0
M  V30 27925 O 2724.71 -5.09909 3.19808 0
M  V30 27926 H 2728.54 -1.89693 2.37172 0
M  V30 27927 H 2726.12 -0.880938 1.20664 0
M  V30 27928 H 2728.01 -4.04381 1.18548 0
M  V30 27929 H 2726.68 -3.22141 0.317266 0
M  V30 27930 H 2725.59 -2.71117 2.57772 0
M  V30 27931 H 2726.92 -3.5806 3.37718 0
M  V30 27932 N 2728.57 -1.24737 -0.963244 0
M  V30 27933 C 2729.5 -1.00153 -2.0616 0
M  V30 27934 C 2730.52 0.0305619 -1.62771 0
M  V30 27935 O 2731.71 -0.206997 -1.77296 0
M  V30 27936 C 2728.81 -0.490444 -3.35332 0
M  V30 27937 C 2727.98 -1.58671 -4.07606 0
M  V30 27938 C 2727.04 -1.07749 -5.1505 0
M  V30 27939 O 2726.06 -1.77011 -5.40977 0
M  V30 27940 N 2727.27 0.0857585 -5.80437 0
M  V30 27941 H 2730.03 -1.94723 -2.27822 0
M  V30 27942 H 2727.59 -1.15827 -1.13119 0
M  V30 27943 H 2729.58 -0.134442 -4.04477 0
M  V30 27944 H 2728.15 0.361101 -3.10507 0
M  V30 27945 H 2727.37 -2.11469 -3.32678 0
M  V30 27946 H 2728.66 -2.32344 -4.52652 0
M  V30 27947 H 2728.06 0.664707 -5.61781 0
M  V30 27948 H 2726.62 0.382867 -6.50675 0
M  V30 27949 N 2730.05 1.16459 -1.06184 0
M  V30 27950 C 2731.3 1.86593 -0.776359 0
M  V30 27951 C 2731.62 1.82034 0.699178 0
M  V30 27952 O 2730.89 1.25313 1.50577 0
M  V30 27953 H 2729.47 0.690827 -0.284196 0
M  V30 27954 H 2732.13 1.41233 -1.34311 0
M  V30 27955 H 2731.23 2.92062 -1.10027 0
M  V30 27956 N 2731.53 0.844266 1.33079 0
M  V30 27957 C 2732.78 0.44171 1.97214 0
M  V30 27958 C 2733.1 -1.00367 1.67187 0
M  V30 27959 O 2732.37 -1.69993 0.973618 0
M  V30 27960 H 2730.95 0.160348 0.729587 0
M  V30 27961 H 2733.61 1.07841 1.62346 0
M  V30 27962 H 2732.71 0.578204 3.06697 0
M  V30 27963 N 2733.01 -1.45682 0.60121 0
M  V30 27964 C 2734.25 -2.0417 0.0968396 0
M  V30 27965 C 2734.61 -1.4603 -1.24657 0
M  V30 27966 O 2735.81 -1.95832 -1.84128 0
M  V30 27967 C 2734.08 -3.57363 0.0514468 0
M  V30 27968 S 2735.64 -4.3704 -0.39266 0
M  V30 27969 H 2732.46 -0.70948 0.0464629 0
M  V30 27970 H 2735.06 -1.78477 0.797877 0
M  V30 27971 H 2733.77 -3.97192 1.03281 0
M  V30 27972 H 2733.3 -3.87622 -0.671785 0
M  V30 27973 H 2735.31 -4.6819 -1.64355 0
M  V30 27974 N 2734.48 -0.340009 -1.53889 0
M  V30 27975 C 2735.43 0.518413 -2.24902 0
M  V30 27976 C 2736.4 1.09842 -1.24595 0
M  V30 27977 O 2737.59 1.13569 -1.53319 0
M  V30 27978 C 2734.73 1.66523 -3.02265 0
M  V30 27979 C 2733.84 1.11288 -4.17419 0
M  V30 27980 C 2732.97 2.22672 -4.82277 0
M  V30 27981 C 2732.01 1.64769 -5.89506 0
M  V30 27982 N 2731.15 2.69881 -6.48158 0
M  V30 27983 H 2735.99 -0.0937102 -2.97853 0
M  V30 27984 H 2733.53 -0.0580182 -1.46986 0
M  V30 27985 H 2735.49 2.34034 -3.45375 0
M  V30 27986 H 2734.12 2.2484 -2.31618 0
M  V30 27987 H 2733.17 0.328819 -3.78976 0
M  V30 27988 H 2734.48 0.649328 -4.94556 0
M  V30 27989 H 2733.63 2.98054 -5.2844 0
M  V30 27990 H 2732.37 2.72369 -4.04557 0
M  V30 27991 H 2731.38 0.878908 -5.42729 0
M  V30 27992 H 2732.6 1.15928 -6.69132 0
M  V30 27993 H 2730.55 3.1884 -5.73304 0
M  V30 27994 H 2730.47 2.28138 -7.20756 0
M  V30 27995 H 2731.73 3.45043 -6.98975 0
M  V30 27996 N 2735.96 1.57451 -0.0685468 0
M  V30 27997 C 2737.24 1.84759 0.642134 0
M  V30 27998 C 2737.62 0.960377 1.87989 0
M  V30 27999 O 2736.97 0.0258296 2.28485 0
M  V30 28000 C 2737.18 3.34874 0.982888 0
M  V30 28001 C 2738.53 4.02306 1.35777 0
M  V30 28002 O 2739.55 3.396 1.07471 0
M  V30 28003 O 2738.41 5.12899 1.88672 0
M  V30 28004 H 2735.5 0.763161 0.318612 0
M  V30 28005 H 2738.05 1.6941 -0.0992313 0
M  V30 28006 H 2736.82 3.91163 0.103652 0
M  V30 28007 H 2736.44 3.55474 1.78112 0
M  V30 28008 N 2737.44 -0.204984 1.56261 0
M  V30 28009 C 2738.69 -0.925064 1.79686 0
M  V30 28010 C 2739.01 -1.84201 0.639922 0
M  V30 28011 O 2738.28 -1.92886 -0.342311 0
M  V30 28012 H 2736.86 -0.344575 0.66278 0
M  V30 28013 H 2739.52 -0.212865 1.93734 0
M  V30 28014 H 2738.62 -1.52206 2.72469 0
M  V30 28015 N 2738.92 -1.50356 -0.472329 0
M  V30 28016 C 2740.17 -1.60964 -1.22208 0
M  V30 28017 C 2740.49 -0.311473 -1.92496 0
M  V30 28018 O 2739.76 0.67097 -1.84051 0
M  V30 28019 H 2738.34 -0.593143 -0.454081 0
M  V30 28020 H 2741 -1.87127 -0.544944 0
M  V30 28021 H 2740.1 -2.42016 -1.97065 0
M  V30 28022 N 2740.4 0.725419 -1.39912 0
M  V30 28023 C 2741.64 1.48735 -1.37861 0
M  V30 28024 C 2741.98 1.94187 0.0223846 0
M  V30 28025 O 2741.25 1.67468 0.989175 0
M  V30 28026 C 2741.53 2.72033 -2.35945 0
M  V30 28027 C 2741.39 2.32539 -3.85027 0
M  V30 28028 C 2742.71 3.74163 -2.31711 0
M  V30 28029 H 2739.83 0.539519 -0.502084 0
M  V30 28030 H 2742.47 0.828697 -1.70975 0
M  V30 28031 H 2740.62 3.28232 -2.07836 0
M  V30 28032 H 2742.29 1.81898 -4.23923 0
M  V30 28033 H 2740.53 1.64654 -4.01337 0
M  V30 28034 H 2741.2 3.20877 -4.49157 0
M  V30 28035 H 2743.68 3.27571 -2.56586 0
M  V30 28036 H 2742.56 4.58087 -3.02403 0
M  V30 28037 H 2742.82 4.21766 -1.32537 0
M  V30 28038 N 2741.88 1.25246 0.956615 0
M  V30 28039 C 2743.12 1.11079 1.71583 0
M  V30 28040 C 2743.48 -0.342736 1.88916 0
M  V30 28041 O 2744.68 -0.606181 2.61876 0
M  V30 28042 C 2742.95 1.84221 3.06264 0
M  V30 28043 S 2744.51 1.85921 3.97466 0
M  V30 28044 H 2741.33 0.397066 0.589796 0
M  V30 28045 H 2743.93 1.58741 1.14112 0
M  V30 28046 H 2742.63 2.89072 2.91317 0
M  V30 28047 H 2742.17 1.36937 3.68798 0
M  V30 28048 H 2744.18 0.934825 4.87315 0
M  V30 28049 N 2743.35 -1.15894 1.068 0
M  V30 28050 C 2744.28 -2.22612 0.704716 0
M  V30 28051 C 2745.26 -1.67339 -0.305222 0
M  V30 28052 O 2746.45 -1.93371 -0.179213 0
M  V30 28053 C 2743.58 -3.47168 0.0957935 0
M  V30 28054 C 2742.53 -4.15365 1.03227 0
M  V30 28055 C 2741.86 -5.33933 0.286386 0
M  V30 28056 C 2743.16 -4.65764 2.3635 0
M  V30 28057 H 2744.85 -2.53256 1.59693 0
M  V30 28058 H 2742.4 -1.2173 0.769278 0
M  V30 28059 H 2744.35 -4.21056 -0.170259 0
M  V30 28060 H 2743.08 -3.15839 -0.831461 0
M  V30 28061 H 2741.74 -3.43411 1.28315 0
M  V30 28062 H 2741.38 -4.98858 -0.644149 0
M  V30 28063 H 2741.08 -5.80502 0.910538 0
M  V30 28064 H 2742.61 -6.10594 0.0280011 0
M  V30 28065 H 2744.02 -5.31207 2.15619 0
M  V30 28066 H 2742.42 -5.22975 2.94308 0
M  V30 28067 H 2743.49 -3.817 2.99054 0
M  V30 28068 N 2744.83 -0.851312 -1.32629 0
M  V30 28069 C 2745.76 -0.308812 -2.31449 0
M  V30 28070 C 2746.74 0.590227 -1.59532 0
M  V30 28071 O 2747.93 0.511172 -1.87352 0
M  V30 28072 C 2745.06 0.506488 -3.43587 0
M  V30 28073 C 2744.01 -0.297828 -4.26963 0
M  V30 28074 C 2743.34 0.642001 -5.30832 0
M  V30 28075 C 2744.64 -1.52174 -4.9964 0
M  V30 28076 H 2746.33 -1.13452 -2.77072 0
M  V30 28077 H 2743.88 -0.546995 -1.33206 0
M  V30 28078 H 2745.83 0.896402 -4.11756 0
M  V30 28079 H 2744.55 1.36553 -2.96683 0
M  V30 28080 H 2743.21 -0.669455 -3.60436 0
M  V30 28081 H 2742.86 1.49779 -4.80182 0
M  V30 28082 H 2742.56 0.107865 -5.87501 0
M  V30 28083 H 2744.09 1.02916 -6.01864 0
M  V30 28084 H 2745.5 -1.20431 -5.60508 0
M  V30 28085 H 2743.9 -1.99357 -5.66018 0
M  V30 28086 H 2744.97 -2.28481 -4.27697 0
M  V30 28087 N 2746.31 1.45361 -0.608928 0
M  V30 28088 C 2747.53 2.07112 -0.109246 0
M  V30 28089 C 2747.96 1.45035 1.19776 0
M  V30 28090 O 2747.32 0.543558 1.7296 0
M  V30 28091 C 2747.37 3.60597 0.0155111 0
M  V30 28092 O 2746.47 3.98401 1.06539 0
M  V30 28093 H 2745.81 0.659788 -0.0746735 0
M  V30 28094 H 2748.34 1.86592 -0.839316 0
M  V30 28095 H 2748.35 4.07442 0.213293 0
M  V30 28096 H 2747.03 4.05165 -0.938836 0
M  V30 28097 H 2745.6 3.63224 0.84396 0
M  V30 28098 N 2747.79 0.348166 1.53706 0
M  V30 28099 C 2749.04 -0.246443 2.00592 0
M  V30 28100 C 2749.36 -1.50696 1.23756 0
M  V30 28101 O 2748.63 -1.9282 0.345998 0
M  V30 28102 H 2747.21 -0.0940548 0.741055 0
M  V30 28103 H 2749.87 0.470388 1.89138 0
M  V30 28104 H 2748.96 -0.485659 3.08298 0
M  V30 28105 N 2749.27 -1.57412 0.0768958 0
M  V30 28106 C 2750.49 -1.98011 -0.599935 0
M  V30 28107 C 2750.91 -0.955436 -1.6284 0
M  V30 28108 O 2750.27 0.0572819 -1.8241 0
M  V30 28109 C 2750.32 -3.38683 -1.26396 0
M  V30 28110 O 2750.04 -4.37226 -0.276646 0
M  V30 28111 C 2751.54 -3.94185 -2.02813 0
M  V30 28112 H 2748.76 -0.651094 -0.162227 0
M  V30 28113 H 2751.3 -2.03943 0.150807 0
M  V30 28114 H 2749.46 -3.33822 -1.96575 0
M  V30 28115 H 2749.87 -5.19057 -0.753653 0
M  V30 28116 H 2751.35 -4.9482 -2.44658 0
M  V30 28117 H 2751.82 -3.31006 -2.88672 0
M  V30 28118 H 2752.43 -4.02463 -1.37489 0
M  V30 28119 N 2750.74 0.196695 -1.56368 0
M  V30 28120 C 2751.69 1.24378 -1.94419 0
M  V30 28121 C 2752.66 1.45313 -0.804569 0
M  V30 28122 O 2753.85 1.58473 -1.06259 0
M  V30 28123 C 2750.99 2.58384 -2.28761 0
M  V30 28124 C 2750.1 2.45041 -3.55779 0
M  V30 28125 C 2749.23 3.71739 -3.79451 0
M  V30 28126 C 2748.27 3.53223 -4.999 0
M  V30 28127 N 2747.41 4.71929 -5.19834 0
M  V30 28128 H 2752.25 0.912288 -2.83692 0
M  V30 28129 H 2749.79 0.43911 -1.40393 0
M  V30 28130 H 2751.75 3.36453 -2.46688 0
M  V30 28131 H 2750.38 2.8958 -1.4263 0
M  V30 28132 H 2749.43 1.58278 -3.45908 0
M  V30 28133 H 2750.74 2.27292 -4.44004 0
M  V30 28134 H 2749.89 4.58249 -3.97609 0
M  V30 28135 H 2748.63 3.92441 -2.89553 0
M  V30 28136 H 2747.64 2.65098 -4.81667 0
M  V30 28137 H 2748.86 3.33968 -5.91306 0
M  V30 28138 H 2746.81 4.92897 -4.32884 0
M  V30 28139 H 2746.73 4.56999 -6.02236 0
M  V30 28140 H 2747.99 5.59794 -5.42449 0
M  V30 28141 N 2752.22 1.50604 0.464349 0
M  V30 28142 C 2753.47 1.6161 1.21353 0
M  V30 28143 C 2753.79 0.321677 1.92328 0
M  V30 28144 O 2753.06 -0.661199 1.84404 0
M  V30 28145 H 2751.64 0.595543 0.450929 0
M  V30 28146 H 2754.3 1.87413 0.535013 0
M  V30 28147 H 2753.4 2.43058 1.95779 0
M  V30 28148 N 2753.7 -0.717989 1.40295 0
M  V30 28149 C 2754.66 -1.81378 1.40123 0
M  V30 28150 C 2755.66 -1.58063 0.295433 0
M  V30 28151 O 2756.85 -1.65149 0.554216 0
M  V30 28152 C 2753.99 -3.19433 1.19061 0
M  V30 28153 H 2755.18 -1.82929 2.37649 0
M  V30 28154 H 2752.73 -0.923382 1.26108 0
M  V30 28155 H 2753.47 -3.23533 0.222866 0
M  V30 28156 H 2753.25 -3.37755 1.99158 0
M  V30 28157 H 2754.74 -3.99466 1.21723 0
M  V30 28158 N 2755.18 -1.25752 -0.94996 0
M  V30 28159 C 2756.4 -1.13631 -1.73501 0
M  V30 28160 C 2756.83 0.305557 -1.85602 0
M  V30 28161 O 2756.19 1.22137 -1.33986 0
M  V30 28162 C 2756.23 -1.80061 -3.12427 0
M  V30 28163 O 2755.34 -1.08343 -3.97914 0
M  V30 28164 H 2754.68 -0.396449 -0.532658 0
M  V30 28165 H 2757.21 -1.66405 -1.1904 0
M  V30 28166 H 2757.22 -1.86533 -3.62863 0
M  V30 28167 H 2755.89 -2.84961 -3.02936 0
M  V30 28168 H 2754.47 -1.09784 -3.56373 0
M  V30 28169 N 2756.66 1.15326 -1.07413 0
M  V30 28170 C 2757.9 1.86127 -0.797682 0
M  V30 28171 C 2758.23 1.82365 0.676265 0
M  V30 28172 O 2757.49 1.24221 1.51221 0
M  V30 28173 C 2757.79 3.34755 -1.25196 0
M  V30 28174 C 2757.45 3.58711 -2.73198 0
M  V30 28175 C 2756.11 3.64959 -3.13622 0
M  V30 28176 C 2758.47 3.68363 -3.68725 0
M  V30 28177 C 2755.79 3.78369 -4.4839 0
M  V30 28178 C 2758.15 3.83298 -5.03255 0
M  V30 28179 C 2756.81 3.87791 -5.433 0
M  V30 28180 H 2756.08 0.681087 -0.291892 0
M  V30 28181 H 2758.73 1.36289 -1.34527 0
M  V30 28182 H 2757.03 3.86803 -0.62378 0
M  V30 28183 H 2758.73 3.87943 -1.01495 0
M  V30 28184 H 2755.32 3.5449 -2.40904 0
M  V30 28185 H 2759.5 3.62836 -3.3862 0
M  V30 28186 H 2754.76 3.80105 -4.78884 0
M  V30 28187 H 2758.93 3.89708 -5.77149 0
M  V30 28188 H 2756.56 3.97935 -6.47728 0
M  V30 28189 N 2758.13 0.858334 1.32176 0
M  V30 28190 C 2759.38 0.462603 1.96734 0
M  V30 28191 C 2759.7 -0.985882 1.68242 0
M  V30 28192 O 2758.97 -1.6895 0.991593 0
M  V30 28193 H 2757.55 0.168077 0.727846 0
M  V30 28194 H 2760.22 1.09557 1.61193 0
M  V30 28195 H 2759.31 0.610701 3.06067 0
M  V30 28196 N 2759.61 -1.45036 0.616628 0
M  V30 28197 C 2761.03 -1.57106 0.281022 0
M  V30 28198 C 2761.23 -1.60655 -1.21624 0
M  V30 28199 O 2760.28 -1.54173 -1.99968 0
M  V30 28200 C 2761.6 -2.84958 0.960167 0
M  V30 28201 C 2763.15 -2.98648 0.936937 0
M  V30 28202 C 2763.62 -4.29282 1.59627 0
M  V30 28203 N 2765.11 -4.36062 1.56217 0
M  V30 28204 C 2765.85 -5.35831 2.0414 0
M  V30 28205 N 2765.34 -6.42085 2.60189 0
M  V30 28206 N 2767.14 -5.27246 1.94854 0
M  V30 28207 H 2759.29 -1.40976 1.58869 0
M  V30 28208 H 2761.55 -0.674611 0.666036 0
M  V30 28209 H 2761.26 -2.8827 2.01478 0
M  V30 28210 H 2761.13 -3.74017 0.488987 0
M  V30 28211 H 2763.52 -2.94898 -0.109157 0
M  V30 28212 H 2763.6 -2.10976 1.44647 0
M  V30 28213 H 2763.24 -4.33791 2.64173 0
M  V30 28214 H 2763.17 -5.15787 1.06168 0
M  V30 28215 H 2765.66 -3.59887 1.15282 0
M  V30 28216 H 2765.98 -7.14475 2.94525 0
M  V30 28217 H 2764.32 -6.42811 2.64232 0
M  V30 28218 H 2767.51 -4.43145 1.50799 0
M  V30 28219 H 2767.68 -6.04848 2.32514 0
M  V30 28220 N 2761.09 -0.356312 -1.53519 0
M  V30 28221 C 2762.02 0.486621 -2.28373 0
M  V30 28222 C 2763 1.09183 -1.30434 0
M  V30 28223 O 2764.19 1.11082 -1.59293 0
M  V30 28224 C 2761.32 1.63124 -3.06607 0
M  V30 28225 C 2760.27 1.15374 -4.12156 0
M  V30 28226 C 2759.6 2.38788 -4.78419 0
M  V30 28227 C 2760.9 0.245088 -5.21725 0
M  V30 28228 H 2762.59 -0.137849 -2.99082 0
M  V30 28229 H 2760.14 -0.0677387 -1.43841 0
M  V30 28230 H 2762.09 2.22749 -3.57716 0
M  V30 28231 H 2760.81 2.2828 -2.33572 0
M  V30 28232 H 2759.47 0.580231 -3.61979 0
M  V30 28233 H 2759.12 3.02379 -4.01965 0
M  V30 28234 H 2758.82 2.07514 -5.49738 0
M  V30 28235 H 2760.34 2.99115 -5.32318 0
M  V30 28236 H 2761.76 0.748547 -5.68392 0
M  V30 28237 H 2760.16 0.0236553 -6.00095 0
M  V30 28238 H 2761.23 -0.715314 -4.79595 0
M  V30 28239 N 2762.57 1.57369 -0.0852427 0
M  V30 28240 C 2763.5 2.10488 0.907062 0
M  V30 28241 C 2764.51 1.03993 1.25257 0
M  V30 28242 O 2765.7 1.31469 1.2074 0
M  V30 28243 C 2762.8 2.56149 2.21903 0
M  V30 28244 C 2761.98 3.86367 2.05035 0
M  V30 28245 C 2761.03 4.17979 3.19657 0
M  V30 28246 O 2760.06 4.87361 2.94054 0
M  V30 28247 N 2761.26 3.72595 4.45144 0
M  V30 28248 H 2764.03 2.9625 0.453453 0
M  V30 28249 H 2761.59 1.6159 0.100129 0
M  V30 28250 H 2763.58 2.74349 2.97515 0
M  V30 28251 H 2762.15 1.75451 2.5872 0
M  V30 28252 H 2761.37 3.77413 1.13812 0
M  V30 28253 H 2762.66 4.71577 1.91031 0
M  V30 28254 H 2762.06 3.16569 4.68829 0
M  V30 28255 H 2760.61 3.95969 5.17737 0
M  V30 28256 N 2764.05 -0.188399 1.5647 0
M  V30 28257 C 2765.27 -0.927858 1.85487 0
M  V30 28258 C 2765.7 -1.75778 0.669606 0
M  V30 28259 O 2765.05 -1.7724 -0.381542 0
M  V30 28260 C 2765.1 -1.79434 3.12787 0
M  V30 28261 O 2764.21 -2.89395 2.9381 0
M  V30 28262 H 2763.55 -0.260914 0.61059 0
M  V30 28263 H 2766.08 -0.191693 2.037 0
M  V30 28264 H 2766.09 -2.19768 3.43753 0
M  V30 28265 H 2764.76 -1.18461 3.98673 0
M  V30 28266 H 2763.34 -2.52769 2.74157 0
M  V30 28267 N 2765.53 -1.50848 -0.456355 0
M  V30 28268 C 2766.46 -1.65443 -1.57174 0
M  V30 28269 C 2767.44 -0.502252 -1.54649 0
M  V30 28270 O 2768.62 -0.723664 -1.74056 0
M  V30 28271 C 2765.75 -1.65057 -2.9576 0
M  V30 28272 C 2764.79 -2.86013 -3.16384 0
M  V30 28273 S 2765.63 -4.4711 -2.94708 0
M  V30 28274 C 2766.78 -4.49439 -4.35609 0
M  V30 28275 H 2767.02 -2.5979 -1.44557 0
M  V30 28276 H 2764.55 -1.40295 -0.644733 0
M  V30 28277 H 2766.51 -1.65518 -3.75651 0
M  V30 28278 H 2765.17 -0.719207 -3.05755 0
M  V30 28279 H 2764.36 -2.82089 -4.17663 0
M  V30 28280 H 2763.96 -2.83195 -2.44288 0
M  V30 28281 H 2766.25 -4.23909 -5.28495 0
M  V30 28282 H 2767.2 -5.51145 -4.44572 0
M  V30 28283 H 2767.61 -3.78975 -4.18376 0
M  V30 28284 N 2767 0.710538 -1.40674 0
M  V30 28285 C 2767.95 1.8246 -1.4134 0
M  V30 28286 C 2768.92 1.63896 -0.269676 0
M  V30 28287 O 2770.11 1.84959 -0.468496 0
M  V30 28288 C 2767.25 3.20215 -1.28671 0
M  V30 28289 C 2766.36 3.50316 -2.5279 0
M  V30 28290 C 2765.49 4.77604 -2.32526 0
M  V30 28291 C 2764.53 5.00624 -3.52196 0
M  V30 28292 N 2763.67 6.19129 -3.31095 0
M  V30 28293 H 2768.51 1.81226 -2.36561 0
M  V30 28294 H 2766.05 0.885205 -1.17484 0
M  V30 28295 H 2768 3.9977 -1.19331 0
M  V30 28296 H 2766.63 3.20665 -0.370658 0
M  V30 28297 H 2765.69 2.65278 -2.72638 0
M  V30 28298 H 2767 3.63235 -3.41851 0
M  V30 28299 H 2766.15 5.65186 -2.20568 0
M  V30 28300 H 2764.89 4.66904 -1.40898 0
M  V30 28301 H 2763.9 4.11496 -3.64625 0
M  V30 28302 H 2765.12 5.13193 -4.44758 0
M  V30 28303 H 2763.07 6.0967 -2.42154 0
M  V30 28304 H 2762.98 6.32747 -4.13724 0
M  V30 28305 H 2764.25 7.09485 -3.2288 0
M  V30 28306 N 2768.48 1.26254 0.943277 0
M  V30 28307 C 2769.41 1.10125 2.059 0
M  V30 28308 C 2770.39 0.00703542 1.70099 0
M  V30 28309 O 2771.58 0.178675 1.93376 0
M  V30 28310 C 2768.71 0.731235 3.39515 0
M  V30 28311 C 2767.66 1.77695 3.89369 0
M  V30 28312 C 2766.99 1.26131 5.1961 0
M  V30 28313 C 2768.29 3.17806 4.14484 0
M  V30 28314 H 2769.98 2.03454 2.19651 0
M  V30 28315 H 2767.53 0.979594 1.05546 0
M  V30 28316 H 2769.48 0.605288 4.1703 0
M  V30 28317 H 2768.2 -0.237763 3.25733 0
M  V30 28318 H 2766.86 1.89153 3.14033 0
M  V30 28319 H 2766.51 0.282216 5.02208 0
M  V30 28320 H 2766.21 1.96032 5.53936 0
M  V30 28321 H 2767.74 1.14799 5.99711 0
M  V30 28322 H 2769.15 3.09437 4.8262 0
M  V30 28323 H 2767.55 3.85279 4.60087 0
M  V30 28324 H 2768.62 3.64019 3.2034 0
M  V30 28325 N 2769.96 -1.14755 1.08024 0
M  V30 28326 C 2771.24 -1.8185 0.720418 0
M  V30 28327 C 2771.62 -1.95504 -0.796341 0
M  V30 28328 O 2770.96 -1.51182 -1.71337 0
M  V30 28329 C 2771.17 -3.17781 1.44279 0
M  V30 28330 C 2772.52 -3.93328 1.59932 0
M  V30 28331 O 2773.55 -3.27357 1.40412 0
M  V30 28332 O 2772.41 -5.11623 1.92105 0
M  V30 28333 H 2769.5 -0.786003 0.257156 0
M  V30 28334 H 2772.05 -1.21807 1.18158 0
M  V30 28335 H 2770.82 -3.02983 2.47623 0
M  V30 28336 H 2770.44 -3.85514 0.972858 0
M  V30 28337 N 2771.44 -0.865331 -1.31719 0
M  V30 28338 C 2772.67 -0.487578 -2.00764 0
M  V30 28339 C 2773.08 0.923221 -1.65146 0
M  V30 28340 O 2772.42 1.61559 -0.874322 0
M  V30 28341 C 2772.48 -0.559431 -3.55121 0
M  V30 28342 C 2772.14 -1.93102 -4.14199 0
M  V30 28343 C 2773.14 -2.89791 -4.31645 0
M  V30 28344 C 2770.83 -2.23107 -4.50032 0
M  V30 28345 C 2772.82 -4.14632 -4.84107 0
M  V30 28346 C 2770.51 -3.48198 -5.02197 0
M  V30 28347 C 2771.51 -4.43776 -5.19184 0
M  V30 28348 O 2771.19 -5.6665 -5.70231 0
M  V30 28349 H 2770.93 -0.188926 -0.649063 0
M  V30 28350 H 2773.48 -1.16697 -1.6903 0
M  V30 28351 H 2771.71 0.176859 -3.86295 0
M  V30 28352 H 2773.4 -0.195766 -4.05428 0
M  V30 28353 H 2774.16 -2.67917 -4.04284 0
M  V30 28354 H 2770.04 -1.49492 -4.36088 0
M  V30 28355 H 2773.59 -4.89241 -4.97281 0
M  V30 28356 H 2769.48 -3.69918 -5.28991 0
M  V30 28357 H 2770.25 -5.68757 -5.88607 0
M  V30 28358 N 2772.92 1.44707 -0.624311 0
M  V30 28359 C 2774.33 1.56955 -0.28935 0
M  V30 28360 C 2774.53 1.61297 1.2077 0
M  V30 28361 O 2773.59 1.55231 1.99147 0
M  V30 28362 C 2774.9 2.84445 -0.975265 0
M  V30 28363 C 2776.45 2.98147 -0.952762 0
M  V30 28364 C 2776.92 4.2843 -1.61901 0
M  V30 28365 N 2778.41 4.35228 -1.58528 0
M  V30 28366 C 2779.15 5.3474 -2.06979 0
M  V30 28367 N 2778.65 6.40697 -2.6359 0
M  V30 28368 N 2780.44 5.26205 -1.97648 0
M  V30 28369 H 2772.59 1.40132 -1.59615 0
M  V30 28370 H 2774.85 0.67107 -0.669604 0
M  V30 28371 H 2774.56 2.87197 -2.03004 0
M  V30 28372 H 2774.43 3.73752 -0.508815 0
M  V30 28373 H 2776.82 2.94952 0.0935162 0
M  V30 28374 H 2776.9 2.10206 -1.45764 0
M  V30 28375 H 2776.54 4.32384 -2.6647 0
M  V30 28376 H 2776.47 5.15216 -1.08902 0
M  V30 28377 H 2778.97 3.5927 -1.17189 0
M  V30 28378 H 2779.28 7.12903 -2.9831 0
M  V30 28379 H 2777.62 6.41401 -2.67637 0
M  V30 28380 H 2780.81 4.42339 -1.53147 0
M  V30 28381 H 2780.99 6.03606 -2.35719 0
M  V30 28382 N 2774.39 0.364449 1.53328 0
M  V30 28383 C 2775.34 -0.498984 2.22473 0
M  V30 28384 C 2776.33 -1.04958 1.21953 0
M  V30 28385 O 2777.52 -0.97981 1.47407 0
M  V30 28386 C 2774.65 -1.63875 3.01662 0
M  V30 28387 C 2773.73 -1.10109 4.09557 0
M  V30 28388 N 2774.13 -0.286325 5.04989 0
M  V30 28389 C 2772.42 -1.37601 4.24243 0
M  V30 28390 C 2773.12 0.00791907 5.81699 0
M  V30 28391 N 2772.1 -0.589399 5.40395 0
M  V30 28392 H 2775.9 0.130335 2.93611 0
M  V30 28393 H 2773.42 0.172405 1.61482 0
M  V30 28394 H 2775.41 -2.26948 3.49714 0
M  V30 28395 H 2774.07 -2.27114 2.32055 0
M  V30 28396 H 2775.08 0.074375 5.17847 0
M  V30 28397 H 2771.76 -2.01126 3.65861 0
M  V30 28398 H 2773.15 0.666511 6.68586 0
M  V30 28399 N 2775.87 -1.57322 0.0935872 0
M  V30 28400 C 2776.8 -2.10966 -0.895886 0
M  V30 28401 C 2777.82 -1.04656 -1.24703 0
M  V30 28402 O 2779.01 -1.32107 -1.20041 0
M  V30 28403 C 2776.11 -2.57322 -2.20542 0
M  V30 28404 C 2775.28 -3.87449 -2.02983 0
M  V30 28405 C 2774.34 -4.19668 -3.17435 0
M  V30 28406 O 2773.36 -4.88914 -2.91465 0
M  V30 28407 N 2774.57 -3.7495 -4.43162 0
M  V30 28408 H 2777.33 -2.96486 -0.437736 0
M  V30 28409 H 2774.89 -1.61641 -0.0915579 0
M  V30 28410 H 2776.88 -2.75923 -2.96055 0
M  V30 28411 H 2775.45 -1.7682 -2.57785 0
M  V30 28412 H 2774.67 -3.78011 -1.11809 0
M  V30 28413 H 2775.96 -4.72583 -1.88527 0
M  V30 28414 H 2775.36 -3.19051 -4.67143 0
M  V30 28415 H 2773.92 -3.98709 -5.1563 0
M  V30 28416 N 2777.35 0.180099 -1.56568 0
M  V30 28417 C 2778.63 0.924901 -1.72351 0
M  V30 28418 C 2779.01 2.00761 -0.652558 0
M  V30 28419 O 2778.35 2.26045 0.334075 0
M  V30 28420 C 2778.56 1.49765 -3.15232 0
M  V30 28421 C 2779.91 1.97398 -3.75924 0
M  V30 28422 O 2780.94 1.59577 -3.18455 0
M  V30 28423 O 2779.8 2.6704 -4.76814 0
M  V30 28424 H 2776.89 0.434746 -0.703509 0
M  V30 28425 H 2779.44 0.168617 -1.6886 0
M  V30 28426 H 2778.21 0.71796 -3.84657 0
M  V30 28427 H 2777.83 2.31836 -3.23013 0
M  V30 28428 N 2778.83 1.51088 0.448349 0
M  V30 28429 C 2779.74 1.74431 1.56879 0
M  V30 28430 C 2780.75 0.628118 1.62267 0
M  V30 28431 O 2781.93 0.909107 1.79714 0
M  V30 28432 C 2778.99 1.85431 2.92944 0
M  V30 28433 C 2778.06 3.09252 2.97761 0
M  V30 28434 C 2777.29 3.19718 4.27336 0
M  V30 28435 O 2777.51 2.36396 5.19108 0
M  V30 28436 O 2776.45 4.12618 4.38212 0
M  V30 28437 H 2780.27 2.69455 1.40099 0
M  V30 28438 H 2777.86 1.35457 0.630223 0
M  V30 28439 H 2779.74 1.94716 3.73716 0
M  V30 28440 H 2778.41 0.935941 3.09874 0
M  V30 28441 H 2777.32 3.05454 2.15984 0
M  V30 28442 H 2778.65 4.00743 2.85773 0
M  V30 28443 N 2780.31 -0.703068 1.41049 0
M  V30 28444 C 2781.27 -1.79882 1.42039 0
M  V30 28445 C 2782.27 -1.57741 0.312181 0
M  V30 28446 O 2783.46 -1.64552 0.571701 0
M  V30 28447 C 2780.59 -3.18152 1.22443 0
M  V30 28448 H 2781.78 -1.80398 2.39575 0
M  V30 28449 H 2779.34 -0.909955 1.27081 0
M  V30 28450 H 2780.07 -3.23279 0.257169 0
M  V30 28451 H 2779.86 -3.35624 2.02729 0
M  V30 28452 H 2781.35 -3.98153 1.25953 0
M  V30 28453 N 2781.78 -1.26752 -0.936569 0
M  V30 28454 C 2783.03 -1.12736 -1.68578 0
M  V30 28455 C 2783.36 0.327711 -1.91415 0
M  V30 28456 O 2782.64 1.2404 -1.49814 0
M  V30 28457 C 2782.92 -1.90193 -3.05776 0
M  V30 28458 C 2782.77 -3.43632 -2.90236 0
M  V30 28459 C 2784.09 -1.69939 -4.05967 0
M  V30 28460 H 2781.21 -0.410919 -0.611812 0
M  V30 28461 H 2783.85 -1.55803 -1.08745 0
M  V30 28462 H 2782 -1.5359 -3.56851 0
M  V30 28463 H 2783.68 -3.90014 -2.46347 0
M  V30 28464 H 2781.92 -3.70423 -2.25763 0
M  V30 28465 H 2782.59 -3.93062 -3.87565 0
M  V30 28466 H 2785.07 -2.01836 -3.6387 0
M  V30 28467 H 2783.94 -2.26543 -4.9997 0
M  V30 28468 H 2784.2 -0.645097 -4.37368 0
M  V30 28469 N 2783.26 1.1418 -1.08631 0
M  V30 28470 C 2784.51 1.85545 -0.818589 0
M  V30 28471 C 2784.84 1.82855 0.654044 0
M  V30 28472 O 2784.12 1.26086 1.48097 0
M  V30 28473 C 2784.4 3.34078 -1.34403 0
M  V30 28474 C 2784.25 3.45328 -2.88217 0
M  V30 28475 C 2785.57 4.29251 -0.971144 0
M  V30 28476 H 2782.69 0.673697 -0.298833 0
M  V30 28477 H 2785.33 1.34068 -1.34632 0
M  V30 28478 H 2783.48 3.78047 -0.89513 0
M  V30 28479 H 2785.15 3.10128 -3.41494 0
M  V30 28480 H 2783.4 2.86465 -3.25761 0
M  V30 28481 H 2784.07 4.49743 -3.20055 0
M  V30 28482 H 2786.54 3.9331 -1.35816 0
M  V30 28483 H 2785.42 5.31632 -1.36595 0
M  V30 28484 H 2785.68 4.41933 0.121581 0
M  V30 28485 N 2784.74 0.872304 1.31258 0
M  V30 28486 C 2785.67 0.345595 2.30928 0
M  V30 28487 C 2786.65 -0.564772 1.6045 0
M  V30 28488 O 2787.84 -0.481301 1.88141 0
M  V30 28489 C 2784.97 -0.451762 3.44349 0
M  V30 28490 C 2783.92 0.365716 4.26435 0
M  V30 28491 C 2783.25 -0.557469 5.31786 0
M  V30 28492 C 2784.55 1.60104 4.97156 0
M  V30 28493 H 2786.24 1.17846 2.75232 0
M  V30 28494 H 2783.79 0.568117 1.32319 0
M  V30 28495 H 2785.74 -0.830782 4.13129 0
M  V30 28496 H 2784.46 -1.31816 2.98818 0
M  V30 28497 H 2783.12 0.726712 3.59325 0
M  V30 28498 H 2782.77 -1.42121 4.82505 0
M  V30 28499 H 2782.47 -0.0143845 5.87598 0
M  V30 28500 H 2783.99 -0.933281 6.03425 0
M  V30 28501 H 2785.41 1.29333 5.58521 0
M  V30 28502 H 2783.81 2.08337 5.62775 0
M  V30 28503 H 2784.88 2.35257 4.24007 0
M  V30 28504 N 2786.22 -1.44374 0.631976 0
M  V30 28505 C 2787.44 -2.06912 0.142182 0
M  V30 28506 C 2787.87 -1.46922 -1.17454 0
M  V30 28507 O 2787.23 -0.571005 -1.72073 0
M  V30 28508 C 2787.27 -3.60576 0.0418586 0
M  V30 28509 O 2786.38 -4.00045 -1.00187 0
M  V30 28510 H 2785.72 -0.658516 0.0851607 0
M  V30 28511 H 2788.25 -1.85233 0.868895 0
M  V30 28512 H 2788.26 -4.0773 -0.148445 0
M  V30 28513 H 2786.93 -4.0362 1.00318 0
M  V30 28514 H 2785.51 -3.64521 -0.786067 0
M  V30 28515 N 2787.7 -0.372575 -1.53133 0
M  V30 28516 C 2788.93 0.215166 -2.05477 0
M  V30 28517 C 2789.33 1.42433 -1.24537 0
M  V30 28518 O 2788.68 1.81541 -0.280803 0
M  V30 28519 C 2788.74 0.666006 -3.53277 0
M  V30 28520 C 2788.4 -0.427422 -4.54997 0
M  V30 28521 C 2789.4 -1.27953 -5.03909 0
M  V30 28522 C 2787.09 -0.589667 -4.98827 0
M  V30 28523 C 2789.08 -2.27915 -5.95259 0
M  V30 28524 C 2786.77 -1.59265 -5.89981 0
M  V30 28525 C 2787.76 -2.43582 -6.38088 0
M  V30 28526 O 2787.45 -3.42169 -7.27445 0
M  V30 28527 H 2787.18 0.0400872 -0.67481 0
M  V30 28528 H 2789.74 -0.531347 -1.98408 0
M  V30 28529 H 2787.97 1.46423 -3.57907 0
M  V30 28530 H 2789.66 1.17753 -3.88444 0
M  V30 28531 H 2790.42 -1.16541 -4.7079 0
M  V30 28532 H 2786.3 0.0568646 -4.60965 0
M  V30 28533 H 2789.85 -2.93764 -6.32731 0
M  V30 28534 H 2785.74 -1.70722 -6.22515 0
M  V30 28535 H 2786.51 -3.3798 -7.45461 0
M  V30 28536 N 2789.17 1.5727 -0.101929 0
M  V30 28537 C 2790.42 1.94886 0.560993 0
M  V30 28538 C 2790.75 0.984287 1.67408 0
M  V30 28539 O 2790.03 0.0185108 1.94491 0
M  V30 28540 C 2790.31 3.42573 1.10976 0
M  V30 28541 C 2790.16 4.498 0.00125511 0
M  V30 28542 C 2791.48 3.91724 2.00601 0
M  V30 28543 H 2788.6 0.708647 0.202455 0
M  V30 28544 H 2791.24 1.89201 -0.174026 0
M  V30 28545 H 2789.39 3.47549 1.73614 0
M  V30 28546 H 2791.07 4.56932 -0.6333 0
M  V30 28547 H 2789.31 4.28685 -0.664218 0
M  V30 28548 H 2789.98 5.50353 0.426156 0
M  V30 28549 H 2792.46 3.88944 1.47857 0
M  V30 28550 H 2791.33 4.95613 2.35921 0
M  V30 28551 H 2791.59 3.31416 2.92602 0
M  V30 28552 N 2790.65 -0.171793 1.56661 0
M  V30 28553 C 2791.6 -1.23203 1.97291 0
M  V30 28554 C 2792.59 -1.45853 0.861591 0
M  V30 28555 O 2793.8 -1.46438 1.0467 0
M  V30 28556 H 2790.18 -0.414139 0.627689 0
M  V30 28557 H 2792.15 -0.862492 2.85664 0
M  V30 28558 C 2790.9 -2.56396 2.34854 0
M  V30 28559 H 2790.22 -2.39791 3.19907 0
M  V30 28560 H 2791.66 -3.29271 2.67127 0
M  V30 28561 C 2790.12 -3.15116 1.19177 0
M  V30 28562 O 2790.65 -3.98832 0.479183 0
M  V30 28563 N 2788.85 -2.74199 0.962463 0
M  V30 28564 H 2788.4 -2.06223 1.54369 0
M  V30 28565 H 2788.36 -3.13823 0.190327 0
M  V30 28566 N 2792.13 -1.51324 -0.44033 0
M  V30 28567 C 2793.38 -1.6352 -1.18767 0
M  V30 28568 C 2793.7 -0.352234 -1.91792 0
M  V30 28569 O 2792.97 0.631779 -1.85433 0
M  V30 28570 H 2791.55 -0.602642 -0.441398 0
M  V30 28571 H 2794.21 -1.8824 -0.505129 0
M  V30 28572 H 2793.31 -2.46141 -1.91887 0
M  V30 28573 N 2793.61 0.695578 -1.41419 0
M  V30 28574 C 2794.89 1.45012 -1.31266 0
M  V30 28575 C 2795.27 2.11015 0.0597623 0
M  V30 28576 O 2794.61 2.01687 1.074 0
M  V30 28577 C 2794.82 2.46956 -2.46605 0
M  V30 28578 C 2796.17 3.12209 -2.87769 0
M  V30 28579 O 2797.2 2.5728 -2.46344 0
M  V30 28580 O 2796.05 4.11694 -3.59402 0
M  V30 28581 H 2793.15 0.645807 -0.516587 0
M  V30 28582 H 2795.69 0.726057 -1.53383 0
M  V30 28583 H 2794.47 1.96839 -3.38187 0
M  V30 28584 H 2794.09 3.26872 -2.26364 0
M  V30 28585 N 2795.09 1.27247 0.929833 0
M  V30 28586 C 2796.5 1.04606 1.2054 0
M  V30 28587 C 2796.7 -0.221719 2.00276 0
M  V30 28588 O 2795.76 -0.927792 2.34837 0
M  V30 28589 C 2797.07 2.2842 1.95562 0
M  V30 28590 C 2798.62 2.33437 2.08509 0
M  V30 28591 C 2799.1 3.56975 2.86937 0
M  V30 28592 N 2800.59 3.5752 2.94506 0
M  V30 28593 C 2801.32 4.4978 3.55648 0
M  V30 28594 N 2800.82 5.52342 4.18199 0
M  V30 28595 N 2802.61 4.37408 3.53031 0
M  V30 28596 H 2794.76 2.08655 0.397076 0
M  V30 28597 H 2797.02 0.917571 0.23826 0
M  V30 28598 H 2796.73 3.20694 1.44389 0
M  V30 28599 H 2796.6 2.33568 2.96186 0
M  V30 28600 H 2798.99 1.41671 2.58869 0
M  V30 28601 H 2799.07 2.32294 1.07113 0
M  V30 28602 H 2798.72 4.49077 2.37261 0
M  V30 28603 H 2798.65 3.55369 3.88614 0
M  V30 28604 H 2801.14 2.83345 2.50048 0
M  V30 28605 H 2801.45 6.1891 4.62785 0
M  V30 28606 H 2799.8 5.56187 4.16751 0
M  V30 28607 H 2802.99 3.56494 3.03364 0
M  V30 28608 H 2803.16 5.095 4.00391 0
M  V30 28609 N 2796.57 -1.13603 1.09235 0
M  V30 28610 C 2797.81 -1.86485 0.836818 0
M  V30 28611 C 2798.17 -1.81503 -0.626159 0
M  V30 28612 O 2799.37 -2.49605 -0.997536 0
M  V30 28613 C 2797.64 -3.30725 1.35482 0
M  V30 28614 S 2799.2 -4.21124 1.23287 0
M  V30 28615 H 2796.02 -0.643339 0.302714 0
M  V30 28616 H 2798.62 -1.36934 1.39533 0
M  V30 28617 H 2797.32 -3.31905 2.41387 0
M  V30 28618 H 2796.86 -3.85338 0.792354 0
M  V30 28619 H 2798.87 -4.95864 0.182555 0
M  V30 28620 N 2798.04 -0.879253 -1.30793 0
M  V30 28621 C 2799.45 -0.546124 -1.78534 0
M  V30 28622 C 2799.81 0.937437 -1.72356 0
M  V30 28623 O 2798.93 1.7323 -1.29693 0
M  V30 28624 C 2799.53 -0.984557 -3.24179 0
M  V30 28625 C 2798.08 -0.702936 -3.69778 0
M  V30 28626 C 2797.23 -1.17072 -2.51375 0
M  V30 28627 H 2800.18 -1.06405 -1.17744 0
M  V30 28628 H 2800.2 -0.311112 -3.79226 0
M  V30 28629 H 2799.72 -2.06435 -3.28643 0
M  V30 28630 H 2797.82 0.365101 -3.70807 0
M  V30 28631 H 2797.93 -1.28647 -4.61505 0
M  V30 28632 H 2796.29 -0.590215 -2.47767 0
M  V30 28633 H 2797.08 -2.25813 -2.5858 0
M  V30 28634 N 2799.52 1.44037 -0.639624 0
M  V30 28635 C 2800.93 1.85292 -0.228899 0
M  V30 28636 C 2801.28 1.53531 1.22158 0
M  V30 28637 O 2800.41 0.977552 1.93062 0
M  V30 28638 C 2801 3.36326 -0.408651 0
M  V30 28639 C 2799.56 3.76364 -0.0523615 0
M  V30 28640 C 2798.71 2.67843 -0.718006 0
M  V30 28641 H 2801.66 1.34382 -0.844218 0
M  V30 28642 H 2801.68 3.78888 0.349901 0
M  V30 28643 H 2801.19 3.59411 -1.46442 0
M  V30 28644 H 2799.29 3.58893 1.00134 0
M  V30 28645 H 2799.41 4.76805 -0.468345 0
M  V30 28646 H 2797.77 2.54243 -0.152504 0
M  V30 28647 H 2798.55 2.93759 -1.77653 0
M  V30 28648 N 2801 0.380691 1.52933 0
M  V30 28649 C 2801.91 -0.466152 2.29922 0
M  V30 28650 C 2802.93 -1.0792 1.36489 0
M  V30 28651 O 2804.1 -1.08687 1.69555 0
M  V30 28652 C 2801.17 -1.58261 3.08471 0
M  V30 28653 C 2800.23 -0.995553 4.17597 0
M  V30 28654 C 2799.46 -2.0588 4.92391 0
M  V30 28655 O 2799.68 -3.27246 4.6719 0
M  V30 28656 O 2798.62 -1.68092 5.77952 0
M  V30 28657 H 2802.44 0.160788 3.03274 0
M  V30 28658 H 2800.03 0.144643 1.48698 0
M  V30 28659 H 2801.91 -2.23139 3.57473 0
M  V30 28660 H 2800.59 -2.19467 2.37941 0
M  V30 28661 H 2799.49 -0.310266 3.72811 0
M  V30 28662 H 2800.83 -0.427831 4.90337 0
M  V30 28663 N 2802.48 -1.57214 0.110268 0
M  V30 28664 C 2803.71 -1.99239 -0.557799 0
M  V30 28665 C 2804.12 -0.989762 -1.60777 0
M  V30 28666 O 2803.48 0.0185772 -1.82491 0
M  V30 28667 C 2803.53 -3.41288 -1.19183 0
M  V30 28668 O 2803.25 -4.37714 -0.183842 0
M  V30 28669 C 2804.75 -3.98398 -1.94406 0
M  V30 28670 H 2801.97 -0.654389 -0.14838 0
M  V30 28671 H 2804.51 -2.03577 0.194032 0
M  V30 28672 H 2802.67 -3.37917 -1.8945 0
M  V30 28673 H 2803.08 -5.20539 -0.643383 0
M  V30 28674 H 2804.56 -4.99898 -2.34107 0
M  V30 28675 H 2805.03 -3.37055 -2.81586 0
M  V30 28676 H 2805.64 -4.05289 -1.28921 0
M  V30 28677 N 2803.96 0.163482 -1.5675 0
M  V30 28678 C 2805.23 0.906569 -1.73323 0
M  V30 28679 C 2805.61 2.00057 -0.673815 0
M  V30 28680 O 2804.96 2.26386 0.310082 0
M  V30 28681 C 2805.17 1.46413 -3.16803 0
M  V30 28682 C 2806.52 1.934 -3.77997 0
M  V30 28683 O 2807.54 1.56191 -3.2013 0
M  V30 28684 O 2806.4 2.61967 -4.7962 0
M  V30 28685 H 2803.5 0.427259 -0.708081 0
M  V30 28686 H 2806.04 0.150698 -1.6903 0
M  V30 28687 H 2804.81 0.677121 -3.85397 0
M  V30 28688 H 2804.44 2.28397 -3.25454 0
M  V30 28689 N 2805.43 1.51555 0.432299 0
M  V30 28690 C 2806.71 1.55017 1.19285 0
M  V30 28691 C 2807.09 0.317412 2.087 0
M  V30 28692 O 2806.44 -0.697204 2.17604 0
M  V30 28693 C 2806.65 2.86683 1.99032 0
M  V30 28694 C 2808 3.38822 2.55901 0
M  V30 28695 O 2809.02 2.88267 2.09238 0
M  V30 28696 O 2807.88 4.27044 3.41021 0
M  V30 28697 H 2804.97 0.623451 0.543358 0
M  V30 28698 H 2807.52 1.63871 0.440959 0
M  V30 28699 H 2806.29 3.67862 1.3339 0
M  V30 28700 H 2805.91 2.81015 2.81276 0
M  V30 28701 N 2806.91 -0.688069 1.41786 0
M  V30 28702 C 2808.16 -1.44527 1.41267 0
M  V30 28703 C 2808.48 -1.94984 0.0253289 0
M  V30 28704 O 2807.75 -1.72198 -0.934051 0
M  V30 28705 H 2806.33 -0.536285 0.520007 0
M  V30 28706 H 2808.99 -0.81391 1.77092 0
M  V30 28707 H 2808.09 -2.30478 2.10443 0
M  V30 28708 N 2808.39 -1.27739 -0.923072 0
M  V30 28709 C 2809.64 -1.14517 -1.67373 0
M  V30 28710 C 2809.97 0.307391 -1.91752 0
M  V30 28711 O 2809.24 1.22444 -1.51121 0
M  V30 28712 C 2809.53 -1.93425 -3.03741 0
M  V30 28713 C 2809.38 -3.46691 -2.86575 0
M  V30 28714 C 2810.7 -1.74235 -4.04141 0
M  V30 28715 H 2807.82 -0.417385 -0.60742 0
M  V30 28716 H 2810.46 -1.56948 -1.07086 0
M  V30 28717 H 2808.61 -1.57366 -3.55201 0
M  V30 28718 H 2810.28 -3.92605 -2.42196 0
M  V30 28719 H 2808.52 -3.72797 -2.21822 0
M  V30 28720 H 2809.2 -3.9715 -3.83374 0
M  V30 28721 H 2811.67 -2.05684 -3.61709 0
M  V30 28722 H 2810.55 -2.31833 -4.97539 0
M  V30 28723 H 2810.81 -0.691449 -4.36659 0
M  V30 28724 N 2809.87 1.13022 -1.09836 0
M  V30 28725 C 2811.28 1.65937 -0.85568 0
M  V30 28726 C 2811.63 1.86308 0.615126 0
M  V30 28727 O 2810.76 1.585 1.47332 0
M  V30 28728 C 2811.35 3.01431 -1.54676 0
M  V30 28729 C 2809.91 3.51321 -1.35095 0
M  V30 28730 C 2809.06 2.26475 -1.60014 0
M  V30 28731 H 2812.01 0.968867 -1.25693 0
M  V30 28732 H 2812.03 3.67603 -0.982244 0
M  V30 28733 H 2811.54 2.86573 -2.6172 0
M  V30 28734 H 2809.64 3.71375 -0.301856 0
M  V30 28735 H 2809.75 4.31174 -2.08867 0
M  V30 28736 H 2808.12 2.33275 -1.0225 0
M  V30 28737 H 2808.9 2.14177 -2.68297 0
M  V30 28738 N 2811.35 0.886177 1.30325 0
M  V30 28739 C 2812.59 0.511946 1.97885 0
M  V30 28740 C 2812.95 -0.921915 1.68418 0
M  V30 28741 O 2814.15 -1.40233 2.29321 0
M  V30 28742 C 2812.42 0.780506 3.48773 0
M  V30 28743 S 2813.98 0.508558 4.35843 0
M  V30 28744 H 2810.8 0.19044 0.685021 0
M  V30 28745 H 2813.4 1.1457 1.58411 0
M  V30 28746 H 2812.11 1.82255 3.67711 0
M  V30 28747 H 2811.64 0.134353 3.93171 0
M  V30 28748 H 2813.65 -0.652304 4.91894 0
M  V30 28749 N 2812.82 -1.43695 0.647253 0
M  V30 28750 C 2814.07 -2.0218 0.158458 0
M  V30 28751 C 2814.4 -1.50909 -1.2223 0
M  V30 28752 O 2813.68 -0.699734 -1.81477 0
M  V30 28753 C 2813.96 -3.59732 0.162763 0
M  V30 28754 C 2813.81 -4.21249 1.57701 0
M  V30 28755 C 2815.13 -4.37204 -0.504061 0
M  V30 28756 H 2812.25 -0.73463 0.059055 0
M  V30 28757 H 2814.89 -1.71067 0.826802 0
M  V30 28758 H 2813.04 -3.86369 -0.406346 0
M  V30 28759 H 2814.72 -4.05663 2.19625 0
M  V30 28760 H 2812.96 -3.78127 2.12609 0
M  V30 28761 H 2813.63 -5.30317 1.53193 0
M  V30 28762 H 2816.11 -4.16095 -0.019911 0
M  V30 28763 H 2814.98 -5.46882 -0.470297 0
M  V30 28764 H 2815.24 -4.1301 -1.57719 0
M  V30 28765 N 2814.3 -0.388796 -1.52729 0
M  V30 28766 C 2815.55 0.193555 -2.01573 0
M  V30 28767 C 2815.88 1.46857 -1.27528 0
M  V30 28768 O 2815.13 1.92286 -0.36396 0
M  V30 28769 C 2815.43 0.508383 -3.53766 0
M  V30 28770 C 2815.1 -0.675025 -4.45819 0
M  V30 28771 C 2813.76 -0.999679 -4.70701 0
M  V30 28772 C 2816.11 -1.46675 -5.00136 0
M  V30 28773 C 2813.44 -2.11761 -5.47151 0
M  V30 28774 C 2815.79 -2.57528 -5.77808 0
M  V30 28775 C 2814.46 -2.90502 -6.0097 0
M  V30 28776 H 2813.73 0.0708268 -0.737607 0
M  V30 28777 H 2816.37 -0.526039 -1.84133 0
M  V30 28778 H 2814.68 1.30929 -3.69276 0
M  V30 28779 H 2816.37 0.971596 -3.89051 0
M  V30 28780 H 2812.96 -0.411981 -4.26615 0
M  V30 28781 H 2817.15 -1.22917 -4.80838 0
M  V30 28782 H 2812.4 -2.3768 -5.6331 0
M  V30 28783 H 2816.58 -3.19277 -6.18898 0
M  V30 28784 H 2814.21 -3.77247 -6.59991 0
M  V30 28785 N 2815.78 1.57153 -0.118604 0
M  V30 28786 C 2817.19 1.82213 0.406838 0
M  V30 28787 C 2817.54 1.03574 1.66634 0
M  V30 28788 O 2816.67 0.272209 2.14681 0
M  V30 28789 C 2817.26 3.3051 0.744891 0
M  V30 28790 C 2815.82 3.56252 1.21497 0
M  V30 28791 C 2814.97 2.76398 0.223462 0
M  V30 28792 H 2817.92 1.54933 -0.34374 0
M  V30 28793 H 2817.94 3.45117 1.60234 0
M  V30 28794 H 2817.45 3.87719 -0.171979 0
M  V30 28795 H 2815.55 3.044 2.14875 0
M  V30 28796 H 2815.67 4.64831 1.16057 0
M  V30 28797 H 2814.03 2.44592 0.710417 0
M  V30 28798 H 2814.81 3.36366 -0.686498 0
M  V30 28799 N 2817.26 -0.155167 1.56834 0
M  V30 28800 C 2818.51 -0.869147 1.82899 0
M  V30 28801 C 2818.83 -1.81535 0.698226 0
M  V30 28802 O 2818.09 -1.93175 -0.31337 0
M  V30 28803 C 2818.39 -1.68396 3.15242 0
M  V30 28804 C 2818.05 -0.885263 4.42124 0
M  V30 28805 C 2816.72 -0.664887 4.76584 0
M  V30 28806 C 2819.07 -0.326142 5.20179 0
M  V30 28807 C 2816.4 0.125449 5.86566 0
M  V30 28808 C 2818.75 0.451191 6.30989 0
M  V30 28809 C 2817.41 0.682219 6.64005 0
M  V30 28810 H 2816.68 -0.318043 0.669275 0
M  V30 28811 H 2819.33 -0.133207 1.91036 0
M  V30 28812 H 2817.63 -2.48977 3.02519 0
M  V30 28813 H 2819.33 -2.23972 3.32622 0
M  V30 28814 H 2815.92 -1.06708 4.15104 0
M  V30 28815 H 2820.1 -0.4837 4.93937 0
M  V30 28816 H 2815.36 0.314022 6.10593 0
M  V30 28817 H 2819.53 0.891611 6.90669 0
M  V30 28818 H 2817.16 1.29649 7.49063 0
M  V30 28819 N 2818.74 -1.51782 -0.424256 0
M  V30 28820 C 2819.99 -1.64328 -1.16958 0
M  V30 28821 C 2820.3 -0.371783 -1.92034 0
M  V30 28822 O 2821.5 -0.376807 -2.68872 0
M  V30 28823 C 2819.96 -2.90265 -2.12777 0
M  V30 28824 C 2819.57 -4.24467 -1.43288 0
M  V30 28825 C 2821.31 -3.12171 -2.87662 0
M  V30 28826 C 2819.22 -5.41543 -2.37667 0
M  V30 28827 H 2818.15 -0.612101 -0.440282 0
M  V30 28828 H 2820.8 -1.7826 -0.4354 0
M  V30 28829 H 2819.18 -2.69997 -2.89685 0
M  V30 28830 H 2820.36 -4.55164 -0.718484 0
M  V30 28831 H 2818.67 -4.08544 -0.805046 0
M  V30 28832 H 2821.27 -3.96815 -3.58388 0
M  V30 28833 H 2821.61 -2.25782 -3.49754 0
M  V30 28834 H 2822.14 -3.32841 -2.17857 0
M  V30 28835 H 2818.88 -6.30232 -1.80244 0
M  V30 28836 H 2818.4 -5.15205 -3.07123 0
M  V30 28837 H 2820.08 -5.74017 -2.98519 0
M  V30 28838 N 2820.21 0.68054 -1.42149 0
M  V30 28839 C 2821.46 1.44061 -1.42312 0
M  V30 28840 C 2821.79 1.94464 -0.0375222 0
M  V30 28841 O 2821.04 1.70919 0.953154 0
M  V30 28842 C 2821.34 2.65778 -2.38949 0
M  V30 28843 C 2821.01 2.33949 -3.85459 0
M  V30 28844 C 2819.67 2.24979 -4.25368 0
M  V30 28845 C 2822.02 2.07996 -4.77899 0
M  V30 28846 C 2819.35 1.88174 -5.55704 0
M  V30 28847 C 2821.7 1.72696 -6.08571 0
M  V30 28848 C 2820.37 1.62232 -6.47485 0
M  V30 28849 H 2819.64 0.527155 -0.520757 0
M  V30 28850 H 2822.28 0.776494 -1.75051 0
M  V30 28851 H 2820.59 3.37194 -1.99517 0
M  V30 28852 H 2822.29 3.2395 -2.36342 0
M  V30 28853 H 2818.88 2.4183 -3.53859 0
M  V30 28854 H 2823.06 2.13862 -4.47858 0
M  V30 28855 H 2818.32 1.78638 -5.84721 0
M  V30 28856 H 2822.49 1.51638 -6.7969 0
M  V30 28857 H 2820.12 1.33482 -7.48389 0
M  V30 28858 N 2821.69 1.28226 0.916285 0
M  V30 28859 C 2822.64 1.1179 2.03975 0
M  V30 28860 C 2823.63 0.0378563 1.69358 0
M  V30 28861 O 2824.84 0.196436 1.78925 0
M  V30 28862 H 2821.22 0.34482 0.668284 0
M  V30 28863 H 2823.19 2.06943 2.14981 0
M  V30 28864 C 2821.94 0.79386 3.38516 0
M  V30 28865 H 2821.26 1.61689 3.65646 0
M  V30 28866 H 2822.7 0.718792 4.17863 0
M  V30 28867 C 2821.16 -0.502294 3.33135 0
M  V30 28868 O 2821.69 -1.53335 3.71283 0
M  V30 28869 N 2819.89 -0.502097 2.8623 0
M  V30 28870 H 2819.44 0.337383 2.55381 0
M  V30 28871 H 2819.4 -1.36937 2.83012 0
M  V30 28872 N 2823.17 -1.12438 1.10433 0
M  V30 28873 C 2824.42 -1.83583 0.845077 0
M  V30 28874 C 2824.74 -1.84504 -0.631136 0
M  V30 28875 O 2824.01 -1.30815 -1.45823 0
M  V30 28876 H 2822.59 -0.679803 0.30964 0
M  V30 28877 H 2825.25 -1.3615 1.3946 0
M  V30 28878 H 2824.35 -2.87778 1.20791 0
M  V30 28879 N 2824.65 -0.893076 -1.29853 0
M  V30 28880 C 2825.6 -0.364201 -2.27908 0
M  V30 28881 C 2826.57 0.550065 -1.56727 0
M  V30 28882 O 2827.75 0.476738 -1.84748 0
M  V30 28883 C 2824.89 0.408118 -3.42678 0
M  V30 28884 C 2824 -0.536288 -4.28658 0
M  V30 28885 C 2823.14 0.252428 -5.306 0
M  V30 28886 C 2822.18 -0.686928 -6.08233 0
M  V30 28887 N 2821.32 0.0669668 -7.02068 0
M  V30 28888 H 2826.16 -1.20549 -2.72529 0
M  V30 28889 H 2823.69 -0.605803 -1.34046 0
M  V30 28890 H 2825.65 0.871891 -4.07988 0
M  V30 28891 H 2824.28 1.21391 -2.99105 0
M  V30 28892 H 2823.33 -1.11857 -3.63582 0
M  V30 28893 H 2824.64 -1.2556 -4.82738 0
M  V30 28894 H 2823.8 0.777696 -6.01695 0
M  V30 28895 H 2822.54 1.00491 -4.77235 0
M  V30 28896 H 2821.54 -1.22375 -5.36008 0
M  V30 28897 H 2822.77 -1.43864 -6.63687 0
M  V30 28898 H 2820.71 0.80184 -6.51081 0
M  V30 28899 H 2820.63 -0.592563 -7.53674 0
M  V30 28900 H 2821.9 0.572714 -7.77393 0
M  V30 28901 N 2826.13 1.4335 -0.654865 0
M  V30 28902 C 2827.35 2.0666 -0.175082 0
M  V30 28903 C 2827.78 1.48772 1.15102 0
M  V30 28904 O 2827.14 0.598309 1.71143 0
M  V30 28905 C 2827.18 3.60463 -0.0992178 0
M  V30 28906 O 2826.29 4.01589 0.938099 0
M  V30 28907 H 2825.63 0.657078 -0.0956263 0
M  V30 28908 H 2828.16 1.83828 -0.898254 0
M  V30 28909 H 2828.17 4.07914 0.0835603 0
M  V30 28910 H 2826.84 4.01973 -1.06726 0
M  V30 28911 H 2825.42 3.65725 0.727976 0
M  V30 28912 N 2827.61 0.39689 1.52521 0
M  V30 28913 C 2828.84 -0.182449 2.05793 0
M  V30 28914 C 2829.24 -1.40434 1.26787 0
M  V30 28915 O 2828.59 -1.81071 0.309649 0
M  V30 28916 C 2828.65 -0.609718 3.54292 0
M  V30 28917 C 2828.31 0.499754 4.54259 0
M  V30 28918 C 2829.31 1.35953 5.01809 0
M  V30 28919 C 2826.99 0.668951 4.97826 0
M  V30 28920 C 2828.99 2.37356 5.91558 0
M  V30 28921 C 2826.68 1.68631 5.87373 0
M  V30 28922 C 2827.67 2.53703 6.34132 0
M  V30 28923 O 2827.36 3.53699 7.21909 0
M  V30 28924 H 2827.09 -0.0293465 0.675363 0
M  V30 28925 H 2829.65 0.562845 1.97538 0
M  V30 28926 H 2827.88 -1.40711 3.60191 0
M  V30 28927 H 2829.57 -1.11558 3.90269 0
M  V30 28928 H 2830.33 1.24016 4.68876 0
M  V30 28929 H 2826.21 0.0164781 4.60997 0
M  V30 28930 H 2829.76 3.03793 6.27977 0
M  V30 28931 H 2825.65 1.80604 6.1972 0
M  V30 28932 H 2826.42 3.49797 7.39989 0
M  V30 28933 N 2829.08 -1.57088 0.126936 0
M  V30 28934 C 2829.99 -2.19282 -0.833828 0
M  V30 28935 C 2831.01 -1.17124 -1.28678 0
M  V30 28936 O 2832.19 -1.49625 -1.34812 0
M  V30 28937 C 2829.25 -2.7863 -2.06315 0
M  V30 28938 C 2828.31 -3.9585 -1.66136 0
M  V30 28939 C 2827.54 -4.52359 -2.83209 0
M  V30 28940 O 2827.77 -4.07757 -3.98861 0
M  V30 28941 O 2826.7 -5.42926 -2.59836 0
M  V30 28942 H 2830.53 -3.01852 -0.334511 0
M  V30 28943 H 2828.11 -1.49071 -0.0990829 0
M  V30 28944 H 2829.99 -3.1643 -2.78298 0
M  V30 28945 H 2828.67 -1.99086 -2.55238 0
M  V30 28946 H 2827.58 -3.62804 -0.912372 0
M  V30 28947 H 2828.91 -4.76854 -1.21948 0
M  V30 28948 N 2830.56 0.146848 -1.56914 0
M  V30 28949 C 2831.47 1.20075 -2.01542 0
M  V30 28950 C 2832.49 1.47007 -0.930864 0
M  V30 28951 O 2833.66 1.58673 -1.24035 0
M  V30 28952 C 2830.73 2.51424 -2.38719 0
M  V30 28953 C 2829.79 2.32138 -3.61124 0
M  V30 28954 C 2829.02 3.57224 -3.96518 0
M  V30 28955 O 2829.25 4.63412 -3.32574 0
M  V30 28956 O 2828.18 3.49878 -4.89764 0
M  V30 28957 H 2832.01 0.851872 -2.91508 0
M  V30 28958 H 2829.59 0.355582 -1.45107 0
M  V30 28959 H 2831.47 3.28863 -2.63491 0
M  V30 28960 H 2830.15 2.85842 -1.51908 0
M  V30 28961 H 2829.05 1.5265 -3.41539 0
M  V30 28962 H 2830.39 2.02636 -4.48553 0
M  V30 28963 N 2832.04 1.52005 0.4162 0
M  V30 28964 C 2833.28 1.67389 1.17305 0
M  V30 28965 C 2833.64 0.391864 1.87959 0
M  V30 28966 O 2834.84 0.421717 2.65471 0
M  V30 28967 C 2833.12 2.85758 2.14656 0
M  V30 28968 S 2834.67 3.21586 2.98543 0
M  V30 28969 H 2831.49 0.589507 0.397495 0
M  V30 28970 H 2834.09 1.89977 0.461397 0
M  V30 28971 H 2832.8 3.7732 1.61425 0
M  V30 28972 H 2832.33 2.65422 2.9037 0
M  V30 28973 H 2834.34 2.69659 4.16531 0
M  V30 28974 N 2833.52 -0.672992 1.42508 0
M  V30 28975 C 2834.77 -1.4288 1.42366 0
M  V30 28976 C 2835.08 -1.9555 0.0441942 0
M  V30 28977 O 2836.29 -2.71383 -0.0798202 0
M  V30 28978 C 2834.74 -2.58477 2.50435 0
M  V30 28979 C 2834.35 -2.12499 3.94396 0
M  V30 28980 C 2836.09 -3.35976 2.59461 0
M  V30 28981 C 2834 -3.25189 4.9397 0
M  V30 28982 H 2832.93 -0.536773 0.52952 0
M  V30 28983 H 2835.58 -0.728418 1.68423 0
M  V30 28984 H 2833.96 -3.30892 2.17546 0
M  V30 28985 H 2835.14 -1.47225 4.36648 0
M  V30 28986 H 2833.45 -1.47933 3.89236 0
M  V30 28987 H 2836.05 -4.19906 3.31033 0
M  V30 28988 H 2836.39 -3.82689 1.63875 0
M  V30 28989 H 2836.93 -2.70632 2.91553 0
M  V30 28990 H 2833.66 -2.83466 5.91039 0
M  V30 28991 H 2833.18 -3.89239 4.56348 0
M  V30 28992 H 2834.86 -3.90628 5.1577 0
M  V30 28993 N 2835 -1.2871 -0.909472 0
M  V30 28994 C 2836.24 -1.1549 -1.65363 0
M  V30 28995 C 2836.56 0.294907 -1.93364 0
M  V30 28996 O 2837.76 0.548292 -2.65906 0
M  V30 28997 C 2836.22 -2.01922 -2.97919 0
M  V30 28998 C 2835.83 -3.51668 -2.77549 0
M  V30 28999 C 2837.57 -1.97399 -3.75811 0
M  V30 29000 C 2835.48 -4.30236 -4.05772 0
M  V30 29001 H 2834.41 -0.428631 -0.620316 0
M  V30 29002 H 2837.06 -1.53275 -1.00891 0
M  V30 29003 H 2835.44 -1.56996 -3.63549 0
M  V30 29004 H 2836.62 -4.04579 -2.20573 0
M  V30 29005 H 2834.93 -3.5776 -2.13065 0
M  V30 29006 H 2837.53 -2.53365 -4.70861 0
M  V30 29007 H 2837.87 -0.951715 -4.05275 0
M  V30 29008 H 2838.4 -2.40316 -3.17006 0
M  V30 29009 H 2835.14 -5.33061 -3.81479 0
M  V30 29010 H 2834.66 -3.82097 -4.62344 0
M  V30 29011 H 2836.34 -4.40382 -4.73997 0
M  V30 29012 N 2836.47 1.1185 -1.11028 0
M  V30 29013 C 2837.38 2.21349 -0.777291 0
M  V30 29014 C 2838.4 1.72502 0.227791 0
M  V30 29015 O 2839.58 2.01295 0.0650233 0
M  V30 29016 C 2836.64 3.45997 -0.220729 0
M  V30 29017 C 2835.7 4.09653 -1.28387 0
M  V30 29018 C 2834.93 5.2835 -0.753771 0
M  V30 29019 O 2835.16 5.68869 0.417679 0
M  V30 29020 O 2834.09 5.82481 -1.51657 0
M  V30 29021 H 2837.92 2.52237 -1.69146 0
M  V30 29022 H 2835.5 1.20304 -0.885857 0
M  V30 29023 H 2837.38 4.21313 0.0855016 0
M  V30 29024 H 2836.06 3.1677 0.666207 0
M  V30 29025 H 2834.97 3.36087 -1.64305 0
M  V30 29026 H 2836.3 4.43048 -2.14404 0
M  V30 29027 N 2837.95 0.89995 1.29378 0
M  V30 29028 C 2839.18 0.540728 2.00227 0
M  V30 29029 C 2839.6 -0.86733 1.6691 0
M  V30 29030 O 2838.96 -1.57734 0.893851 0
M  V30 29031 C 2839.01 0.740294 3.52919 0
M  V30 29032 O 2838.11 -0.207082 4.1188 0
M  V30 29033 H 2837.45 0.211244 0.629501 0
M  V30 29034 H 2839.98 1.21161 1.64867 0
M  V30 29035 H 2839.99 0.645044 4.02869 0
M  V30 29036 H 2838.67 1.76683 3.76505 0
M  V30 29037 H 2837.24 -0.0642659 3.72845 0
M  V30 29038 N 2839.43 -1.43001 0.662458 0
M  V30 29039 C 2840.85 -1.56133 0.330862 0
M  V30 29040 C 2841.05 -1.64443 -1.16451 0
M  V30 29041 O 2840.1 -1.60456 -1.94962 0
M  V30 29042 C 2841.42 -2.81759 1.05034 0
M  V30 29043 C 2842.96 -2.95516 1.03148 0
M  V30 29044 C 2843.44 -4.23987 1.73203 0
M  V30 29045 N 2844.93 -4.30872 1.70011 0
M  V30 29046 C 2845.66 -5.29065 2.21084 0
M  V30 29047 N 2845.16 -6.33483 2.80484 0
M  V30 29048 N 2846.95 -5.2078 2.1153 0
M  V30 29049 H 2839.1 -1.35851 1.63274 0
M  V30 29050 H 2841.37 -0.65308 0.687161 0
M  V30 29051 H 2841.07 -2.81714 2.10547 0
M  V30 29052 H 2840.95 -3.72272 0.60773 0
M  V30 29053 H 2843.33 -2.95096 -0.015282 0
M  V30 29054 H 2843.42 -2.06267 1.51286 0
M  V30 29055 H 2843.06 -4.25167 2.7784 0
M  V30 29056 H 2842.99 -5.12148 1.22524 0
M  V30 29057 H 2845.48 -3.56037 1.26673 0
M  V30 29058 H 2845.79 -7.04743 3.17107 0
M  V30 29059 H 2844.14 -6.3408 2.84549 0
M  V30 29060 H 2847.33 -4.38123 1.64821 0
M  V30 29061 H 2847.5 -5.97145 2.51639 0
M  V30 29062 N 2840.91 -0.404973 -1.52308 0
M  V30 29063 C 2841.87 0.410612 -2.25492 0
M  V30 29064 C 2842.87 0.977132 -1.27706 0
M  V30 29065 O 2844.06 0.856665 -1.5168 0
M  V30 29066 C 2841.19 1.5776 -3.022 0
M  V30 29067 H 2842.39 -0.230329 -2.99014 0
M  V30 29068 H 2839.94 -0.157405 -1.55505 0
M  V30 29069 H 2840.67 2.25552 -2.33016 0
M  V30 29070 H 2840.46 1.17791 -3.73989 0
M  V30 29071 H 2841.95 2.15463 -3.57723 0
M  V30 29072 N 2842.39 1.57018 -0.135265 0
M  V30 29073 C 2843.33 2.16162 0.80887 0
M  V30 29074 C 2844.3 1.09115 1.25232 0
M  V30 29075 O 2845.49 1.37101 1.32695 0
M  V30 29076 C 2842.63 2.77817 2.04724 0
M  V30 29077 C 2841.74 3.99221 1.65067 0
M  V30 29078 C 2840.88 4.48911 2.83994 0
M  V30 29079 C 2839.92 5.62808 2.40653 0
M  V30 29080 N 2839.05 6.07168 3.52549 0
M  V30 29081 H 2843.89 2.96509 0.297699 0
M  V30 29082 H 2841.43 1.46477 0.135238 0
M  V30 29083 H 2843.39 3.11702 2.77305 0
M  V30 29084 H 2842.02 2.00133 2.53272 0
M  V30 29085 H 2841.07 3.71391 0.822964 0
M  V30 29086 H 2842.38 4.81769 1.29227 0
M  V30 29087 H 2841.54 4.8479 3.64779 0
M  V30 29088 H 2840.27 3.65345 3.2307 0
M  V30 29089 H 2839.28 5.26517 1.58305 0
M  V30 29090 H 2840.5 6.48151 2.02676 0
M  V30 29091 H 2838.45 5.26541 3.91269 0
M  V30 29092 H 2838.37 6.84614 3.20687 0
M  V30 29093 H 2839.64 6.4769 4.33726 0
M  V30 29094 N 2843.86 -0.138524 1.5699 0
M  V30 29095 C 2844.79 -1.17237 2.01935 0
M  V30 29096 C 2845.78 -1.44318 0.900356 0
M  V30 29097 O 2846.96 -1.55093 1.16875 0
M  V30 29098 C 2844.09 -2.50347 2.40715 0
M  V30 29099 C 2843.04 -2.3777 3.55878 0
M  V30 29100 C 2842.37 -3.75667 3.80498 0
M  V30 29101 C 2843.67 -1.85463 4.88263 0
M  V30 29102 H 2845.36 -0.798622 2.88552 0
M  V30 29103 H 2842.91 -0.382719 1.38821 0
M  V30 29104 H 2844.86 -3.22905 2.70759 0
M  V30 29105 H 2843.59 -2.89574 1.51045 0
M  V30 29106 H 2842.25 -1.67663 3.26013 0
M  V30 29107 H 2841.89 -4.12344 2.88064 0
M  V30 29108 H 2841.59 -3.68111 4.58005 0
M  V30 29109 H 2843.12 -4.4976 4.12975 0
M  V30 29110 H 2844.53 -2.47821 5.1697 0
M  V30 29111 H 2842.93 -1.88777 5.69634 0
M  V30 29112 H 2844 -0.810851 4.78072 0
M  V30 29113 N 2845.34 -1.52224 -0.408133 0
M  V30 29114 C 2846.59 -1.67533 -1.15344 0
M  V30 29115 C 2846.94 -0.400781 -1.88179 0
M  V30 29116 O 2846.24 0.604813 -1.81804 0
M  V30 29117 C 2846.43 -2.83663 -2.17417 0
M  V30 29118 C 2846.26 -4.22289 -1.54604 0
M  V30 29119 C 2845.03 -4.87799 -1.31832 0
M  V30 29120 C 2847.23 -5.04357 -1.00639 0
M  V30 29121 N 2845.21 -6.10457 -0.649231 0
M  V30 29122 C 2846.58 -6.18259 -0.464276 0
M  V30 29123 C 2848.64 -4.89681 -0.900955 0
M  V30 29124 C 2847.34 -7.19092 0.172951 0
M  V30 29125 C 2849.36 -5.90748 -0.27758 0
M  V30 29126 C 2848.73 -7.03942 0.253858 0
M  V30 29127 H 2844.83 -0.666693 -0.40871 0
M  V30 29128 H 2847.41 -1.8953 -0.445679 0
M  V30 29129 H 2845.58 -2.63279 -2.85549 0
M  V30 29130 H 2847.31 -2.88004 -2.84316 0
M  V30 29131 H 2844.07 -4.46179 -1.58811 0
M  V30 29132 H 2844.49 -6.76189 -0.331282 0
M  V30 29133 H 2849.13 -4.02394 -1.29765 0
M  V30 29134 H 2846.85 -8.06004 0.581706 0
M  V30 29135 H 2850.44 -5.81465 -0.197502 0
M  V30 29136 H 2849.32 -7.80808 0.72862 0
M  V30 29137 N 2846.82 0.665425 -1.42863 0
M  V30 29138 C 2848.06 1.43735 -1.45326 0
M  V30 29139 C 2848.42 1.91869 -0.0708307 0
M  V30 29140 O 2849.63 2.68783 0.029838 0
M  V30 29141 C 2847.9 2.59573 -2.45676 0
M  V30 29142 S 2849.46 3.48283 -2.66916 0
M  V30 29143 H 2846.27 0.4908 -0.514428 0
M  V30 29144 H 2848.88 0.773714 -1.79538 0
M  V30 29145 H 2847.58 2.22465 -3.44873 0
M  V30 29146 H 2847.11 3.308 -2.1292 0
M  V30 29147 H 2849.13 4.55883 -1.95922 0
M  V30 29148 N 2848.3 1.29191 0.902633 0
M  V30 29149 C 2849.52 1.19992 1.69164 0
M  V30 29150 C 2849.95 -0.236462 1.86608 0
M  V30 29151 O 2849.31 -1.1708 1.38427 0
M  V30 29152 C 2849.35 1.91532 3.05529 0
M  V30 29153 O 2848.46 1.23036 3.93619 0
M  V30 29154 H 2847.8 0.415945 0.517577 0
M  V30 29155 H 2850.33 1.70708 1.12782 0
M  V30 29156 H 2850.34 1.99872 3.5569 0
M  V30 29157 H 2849.01 2.96008 2.92151 0
M  V30 29158 H 2847.59 1.22935 3.52053 0
M  V30 29159 N 2849.78 -1.1126 1.1162 0
M  V30 29160 C 2851 -1.86838 0.888772 0
M  V30 29161 C 2851.42 -1.80256 -0.561527 0
M  V30 29162 O 2850.78 -1.18517 -1.3878 0
M  V30 29163 C 2850.83 -3.35576 1.34427 0
M  V30 29164 O 2850.55 -3.42024 2.73772 0
M  V30 29165 C 2852.05 -4.28055 1.15254 0
M  V30 29166 H 2849.27 -0.590774 0.318163 0
M  V30 29167 H 2851.81 -1.40704 1.484 0
M  V30 29168 H 2849.97 -3.79208 0.792457 0
M  V30 29169 H 2850.38 -4.34654 2.93558 0
M  V30 29170 H 2851.86 -5.30653 1.52024 0
M  V30 29171 H 2852.33 -4.39103 0.0922779 0
M  V30 29172 H 2852.94 -3.90219 1.69143 0
M  V30 29173 N 2851.25 -0.906798 -1.28899 0
M  V30 29174 C 2852.48 -0.552004 -1.994 0
M  V30 29175 C 2852.9 0.865019 -1.67818 0
M  V30 29176 O 2852.25 1.57197 -0.927105 0
M  V30 29177 C 2852.31 -0.743214 -3.53778 0
M  V30 29178 O 2852.03 -2.10447 -3.84244 0
M  V30 29179 C 2853.53 -0.394318 -4.41543 0
M  V30 29180 H 2850.75 -0.211118 -0.636923 0
M  V30 29181 H 2853.29 -1.21809 -1.64264 0
M  V30 29182 H 2851.45 -0.124211 -3.87201 0
M  V30 29183 H 2851.86 -2.13903 -4.78901 0
M  V30 29184 H 2853.33 -0.578911 -5.48956 0
M  V30 29185 H 2853.81 0.669061 -4.34074 0
M  V30 29186 H 2854.42 -0.990564 -4.13604 0
M  V30 29187 N 2852.73 1.42648 -0.670032 0
M  V30 29188 C 2853.7 2.292 0.00200631 0
M  V30 29189 C 2854.7 1.43081 0.733792 0
M  V30 29190 O 2855.89 1.64523 0.572511 0
M  V30 29191 C 2853.02 3.25485 1.01353 0
M  V30 29192 H 2854.21 2.90117 -0.759747 0
M  V30 29193 H 2851.76 1.50208 -0.432131 0
M  V30 29194 H 2852.5 2.69497 1.80394 0
M  V30 29195 H 2852.28 3.88998 0.492255 0
M  V30 29196 H 2853.77 3.90406 1.48233 0
M  V30 29197 N 2854.21 0.413044 1.52091 0
M  V30 29198 C 2855.49 -0.220206 1.94357 0
M  V30 29199 C 2855.87 -1.62274 1.35019 0
M  V30 29200 O 2855.22 -2.22327 0.52755 0
M  V30 29201 C 2855.43 -0.222577 3.4829 0
M  V30 29202 C 2856.77 -0.440024 4.22314 0
M  V30 29203 O 2857.8 -0.301763 3.54919 0
M  V30 29204 O 2856.66 -0.712889 5.4183 0
M  V30 29205 H 2853.75 -0.143026 0.814538 0
M  V30 29206 H 2856.3 0.469271 1.63083 0
M  V30 29207 H 2855.07 0.758903 3.8387 0
M  V30 29208 H 2854.69 -0.955989 3.85936 0
M  V30 29209 N 2855.69 -1.56945 0.143591 0
M  V30 29210 C 2856.92 -2.00087 -0.514664 0
M  V30 29211 C 2857.33 -1.02263 -1.59182 0
M  V30 29212 O 2856.67 -0.0110837 -1.83697 0
M  V30 29213 C 2856.73 -3.39661 -1.17772 0
M  V30 29214 C 2856.4 -4.5634 -0.245577 0
M  V30 29215 C 2857.39 -5.17238 0.525434 0
M  V30 29216 C 2855.08 -5.02078 -0.149476 0
M  V30 29217 C 2857.07 -6.22281 1.38003 0
M  V30 29218 C 2854.76 -6.06976 0.708728 0
M  V30 29219 C 2855.76 -6.66947 1.47209 0
M  V30 29220 O 2855.45 -7.69816 2.316 0
M  V30 29221 H 2855.18 -0.661602 -0.138778 0
M  V30 29222 H 2857.73 -2.04061 0.234133 0
M  V30 29223 H 2855.96 -3.32515 -1.97409 0
M  V30 29224 H 2857.65 -3.66933 -1.73536 0
M  V30 29225 H 2858.42 -4.82802 0.461203 0
M  V30 29226 H 2854.3 -4.55129 -0.733377 0
M  V30 29227 H 2857.84 -6.69019 1.97633 0
M  V30 29228 H 2853.74 -6.4084 0.774263 0
M  V30 29229 H 2854.5 -7.87021 2.2481 0
M  V30 29230 N 2857.17 0.130197 -1.57061 0
M  V30 29231 C 2858.44 0.8696 -1.75206 0
M  V30 29232 C 2858.82 1.98583 -0.716098 0
M  V30 29233 O 2858.17 2.26993 0.261992 0
M  V30 29234 C 2858.38 1.39661 -3.19837 0
M  V30 29235 C 2859.73 1.85338 -3.82014 0
M  V30 29236 O 2860.75 1.49365 -3.23371 0
M  V30 29237 O 2859.61 2.51735 -4.85069 0
M  V30 29238 H 2856.71 0.412144 -0.716984 0
M  V30 29239 H 2859.25 0.11481 -1.69311 0
M  V30 29240 H 2858.03 0.59522 -3.86746 0
M  V30 29241 H 2857.65 2.21442 -3.30226 0
M  V30 29242 N 2858.65 1.52438 0.400055 0
M  V30 29243 C 2860.06 1.41443 0.739334 0
M  V30 29244 C 2860.26 0.526087 1.94511 0
M  V30 29245 O 2859.32 -0.00468063 2.525 0
M  V30 29246 C 2860.63 2.84117 0.984774 0
M  V30 29247 C 2862.18 2.93521 1.08693 0
M  V30 29248 C 2862.65 4.37184 1.36507 0
M  V30 29249 N 2864.14 4.40459 1.43353 0
M  V30 29250 C 2864.88 5.48689 1.66518 0
M  V30 29251 N 2864.38 6.67022 1.87227 0
M  V30 29252 N 2866.17 5.36216 1.68607 0
M  V30 29253 H 2858.32 2.08723 -0.39352 0
M  V30 29254 H 2860.58 0.941143 -0.113817 0
M  V30 29255 H 2860.29 3.51284 0.171035 0
M  V30 29256 H 2860.16 3.25708 1.90248 0
M  V30 29257 H 2862.55 2.2653 1.89125 0
M  V30 29258 H 2862.63 2.55375 0.147387 0
M  V30 29259 H 2862.27 5.04738 0.565893 0
M  V30 29260 H 2862.2 4.72874 2.31728 0
M  V30 29261 H 2864.7 3.55164 1.29102 0
M  V30 29262 H 2865.01 7.45284 2.04379 0
M  V30 29263 H 2863.35 6.7007 1.84474 0
M  V30 29264 H 2866.54 4.42744 1.51972 0
M  V30 29265 H 2866.72 6.20635 1.86321 0
M  V30 29266 N 2860.12 -0.657839 1.43214 0
M  V30 29267 C 2861.4 -1.41481 1.35065 0
M  V30 29268 C 2861.78 -2.111 -0.00379429 0
M  V30 29269 O 2861.13 -2.04463 -1.02015 0
M  V30 29270 C 2861.34 -2.40331 2.53065 0
M  V30 29271 C 2862.69 -3.04469 2.95945 0
M  V30 29272 O 2863.71 -2.50658 2.53079 0
M  V30 29273 O 2862.57 -4.02021 3.70191 0
M  V30 29274 H 2859.66 -0.631883 0.533528 0
M  V30 29275 H 2862.21 -0.685135 1.55255 0
M  V30 29276 H 2860.98 -1.87803 3.43287 0
M  V30 29277 H 2860.6 -3.20755 2.34951 0
M  V30 29278 N 2861.6 -1.29668 -0.895769 0
M  V30 29279 C 2862.55 -1.11754 -1.98734 0
M  V30 29280 C 2863.54 -0.0358117 -1.6086 0
M  V30 29281 O 2864.73 -0.257956 -1.7511 0
M  V30 29282 C 2861.86 -0.800214 -3.33843 0
M  V30 29283 C 2860.94 -1.92167 -3.78064 0
M  V30 29284 N 2861.33 -3.1657 -3.94483 0
M  V30 29285 C 2859.63 -1.81559 -4.07372 0
M  V30 29286 C 2860.33 -3.89761 -4.31812 0
M  V30 29287 N 2859.31 -3.17732 -4.41075 0
M  V30 29288 H 2863.11 -2.0612 -2.09503 0
M  V30 29289 H 2860.62 -1.2085 -1.08486 0
M  V30 29290 H 2862.62 -0.652914 -4.11756 0
M  V30 29291 H 2861.28 0.135494 -3.24417 0
M  V30 29292 H 2862.29 -3.51981 -3.79908 0
M  V30 29293 H 2858.97 -0.952859 -4.06481 0
M  V30 29294 H 2860.36 -4.96839 -4.52328 0
M  V30 29295 N 2863.08 1.10667 -1.12208 0
M  V30 29296 C 2863.99 2.20512 -0.800724 0
M  V30 29297 C 2865.01 1.72734 0.209482 0
M  V30 29298 O 2866.18 2.01353 0.0436696 0
M  V30 29299 C 2863.25 3.45743 -0.257414 0
M  V30 29300 C 2862.31 4.08268 -1.32725 0
M  V30 29301 C 2861.54 5.27521 -0.809767 0
M  V30 29302 O 2861.76 5.6928 0.35732 0
M  V30 29303 O 2860.7 5.80839 -1.57826 0
M  V30 29304 H 2864.52 2.50429 -1.71811 0
M  V30 29305 H 2862.11 1.19357 -0.898567 0
M  V30 29306 H 2863.99 4.2138 0.0408108 0
M  V30 29307 H 2862.67 3.17459 0.632572 0
M  V30 29308 H 2861.57 3.34326 -1.6786 0
M  V30 29309 H 2862.91 4.40749 -2.19091 0
M  V30 29310 N 2864.56 0.913621 1.28416 0
M  V30 29311 C 2865.8 0.556967 1.95626 0
M  V30 29312 C 2866.16 -0.889535 1.70602 0
M  V30 29313 O 2865.45 -1.62419 1.0164 0
M  V30 29314 C 2865.65 0.80216 3.48282 0
M  V30 29315 C 2865.47 2.27094 3.88147 0
M  V30 29316 C 2864.24 2.92103 4.12315 0
M  V30 29317 C 2866.44 3.24735 3.98813 0
M  V30 29318 N 2864.42 4.2928 4.38853 0
M  V30 29319 C 2865.8 4.47075 4.29563 0
M  V30 29320 C 2867.85 3.20135 3.81337 0
M  V30 29321 C 2866.55 5.65396 4.44657 0
M  V30 29322 C 2868.58 4.37756 3.97648 0
M  V30 29323 C 2867.94 5.5887 4.2877 0
M  V30 29324 H 2864.04 0.253677 0.739711 0
M  V30 29325 H 2866.62 1.17732 1.55072 0
M  V30 29326 H 2864.8 0.211075 3.87826 0
M  V30 29327 H 2866.53 0.409549 4.02622 0
M  V30 29328 H 2863.28 2.42833 4.06607 0
M  V30 29329 H 2863.71 5.00206 4.56205 0
M  V30 29330 H 2868.35 2.27576 3.56327 0
M  V30 29331 H 2866.07 6.58434 4.68498 0
M  V30 29332 H 2869.65 4.35699 3.85562 0
M  V30 29333 H 2868.53 6.48366 4.41124 0
M  V30 29334 N 2866.04 -1.4229 0.677588 0
M  V30 29335 C 2867.28 -2.01102 0.200613 0
M  V30 29336 C 2867.6 -1.5386 -1.198 0
M  V30 29337 O 2866.87 -0.761471 -1.80495 0
M  V30 29338 H 2865.45 -0.743601 0.0711765 0
M  V30 29339 H 2868.12 -1.74168 0.874721 0
M  V30 29340 H 2867.21 -3.11432 0.204055 0
M  V30 29341 N 2867.51 -0.421104 -1.5187 0
M  V30 29342 C 2868.76 0.150755 -2.01938 0
M  V30 29343 C 2869.09 1.44119 -1.30614 0
M  V30 29344 O 2868.34 1.91471 -0.404664 0
M  V30 29345 C 2868.64 0.433229 -3.54765 0
M  V30 29346 C 2868.31 -0.769438 -4.44286 0
M  V30 29347 C 2866.97 -1.0993 -4.68475 0
M  V30 29348 C 2869.32 -1.57251 -4.96912 0
M  V30 29349 C 2866.65 -2.23319 -5.42536 0
M  V30 29350 C 2869 -2.69726 -5.72215 0
M  V30 29351 C 2867.67 -3.03185 -5.94672 0
M  V30 29352 H 2866.94 0.0551651 -0.738944 0
M  V30 29353 H 2869.58 -0.564978 -1.82976 0
M  V30 29354 H 2867.89 1.23067 -3.7197 0
M  V30 29355 H 2869.59 0.888854 -3.91025 0
M  V30 29356 H 2866.18 -0.50238 -4.25646 0
M  V30 29357 H 2870.36 -1.33089 -4.78122 0
M  V30 29358 H 2865.62 -2.49575 -5.58142 0
M  V30 29359 H 2869.79 -3.32333 -6.11987 0
M  V30 29360 H 2867.42 -3.91162 -6.51841 0
M  V30 29361 N 2868.99 1.56866 -0.151912 0
M  V30 29362 C 2870.23 1.98174 0.500661 0
M  V30 29363 C 2870.6 1.03502 1.61714 0
M  V30 29364 O 2871.8 1.33873 2.33091 0
M  V30 29365 C 2870.07 3.43436 0.989273 0
M  V30 29366 S 2871.63 4.06768 1.64575 0
M  V30 29367 H 2868.45 0.692364 0.161718 0
M  V30 29368 H 2871.05 1.93961 -0.244788 0
M  V30 29369 H 2869.75 4.10064 0.166 0
M  V30 29370 H 2869.28 3.51372 1.76923 0
M  V30 29371 H 2871.3 4.00223 2.93319 0
M  V30 29372 N 2870.47 -0.121866 1.57128 0
M  V30 29373 C 2871.89 -0.475313 1.52358 0
M  V30 29374 C 2872.09 -1.82015 0.864449 0
M  V30 29375 O 2871.14 -2.48538 0.445572 0
M  V30 29376 C 2872.46 -0.462448 2.97123 0
M  V30 29377 C 2874 -0.546201 3.08197 0
M  V30 29378 C 2874.48 -0.563753 4.54517 0
M  V30 29379 N 2875.97 -0.625272 4.5896 0
M  V30 29380 C 2876.7 -0.660254 5.69586 0
M  V30 29381 N 2876.2 -0.653054 6.89715 0
M  V30 29382 N 2877.99 -0.703045 5.57686 0
M  V30 29383 H 2870.14 0.759344 1.98363 0
M  V30 29384 H 2872.41 0.279788 0.905772 0
M  V30 29385 H 2872.11 0.458005 3.48705 0
M  V30 29386 H 2871.99 -1.2913 3.54409 0
M  V30 29387 H 2874.37 -1.45707 2.56619 0
M  V30 29388 H 2874.46 0.310279 2.53911 0
M  V30 29389 H 2874.1 0.343063 5.0674 0
M  V30 29390 H 2874.03 -1.43708 5.06612 0
M  V30 29391 H 2876.52 -0.637117 3.72491 0
M  V30 29392 H 2876.83 -0.68229 7.69782 0
M  V30 29393 H 2875.18 -0.620524 6.92224 0
M  V30 29394 H 2878.37 -0.706013 4.62745 0
M  V30 29395 H 2878.54 -0.726839 6.43911 0
M  V30 29396 N 2871.95 -1.52648 -0.391965 0
M  V30 29397 C 2872.9 -1.73596 -1.47812 0
M  V30 29398 C 2873.88 -0.590006 -1.49692 0
M  V30 29399 O 2875.07 -0.847728 -1.55379 0
M  V30 29400 C 2872.2 -1.90556 -2.85558 0
M  V30 29401 C 2871.29 -3.11075 -2.88259 0
M  V30 29402 N 2871.68 -4.33478 -2.60634 0
M  V30 29403 C 2869.98 -3.1126 -3.19427 0
M  V30 29404 C 2870.68 -5.15063 -2.70342 0
M  V30 29405 N 2869.66 -4.50685 -3.03948 0
M  V30 29406 H 2873.46 -2.65863 -1.25276 0
M  V30 29407 H 2870.97 -1.50915 -0.599881 0
M  V30 29408 H 2872.97 -2.03685 -3.63756 0
M  V30 29409 H 2871.63 -0.995007 -3.09079 0
M  V30 29410 H 2872.64 -4.61662 -2.3471 0
M  V30 29411 H 2869.32 -2.30003 -3.48432 0
M  V30 29412 H 2870.71 -6.22628 -2.52554 0
M  V30 29413 N 2873.43 0.650235 -1.43561 0
M  V30 29414 C 2874.65 1.44273 -1.48997 0
M  V30 29415 C 2875.08 1.87778 -0.109987 0
M  V30 29416 O 2874.43 1.57561 0.896898 0
M  V30 29417 C 2874.48 2.65193 -2.44346 0
M  V30 29418 O 2873.59 3.64357 -1.93178 0
M  V30 29419 H 2872.93 0.43246 -0.503859 0
M  V30 29420 H 2875.46 0.795413 -1.88506 0
M  V30 29421 H 2875.47 3.12972 -2.61749 0
M  V30 29422 H 2874.14 2.32871 -3.44592 0
M  V30 29423 H 2872.72 3.23516 -1.8545 0
M  V30 29424 N 2874.9 1.30141 0.88888 0
M  V30 29425 C 2875.85 1.16091 2.01558 0
M  V30 29426 C 2876.85 0.073771 1.69239 0
M  V30 29427 O 2878.05 0.234345 1.78468 0
M  V30 29428 H 2874.43 0.358918 0.660819 0
M  V30 29429 H 2876.4 2.11457 2.10544 0
M  V30 29430 C 2875.15 0.865485 3.36756 0
M  V30 29431 H 2874.47 1.69408 3.62134 0
M  V30 29432 H 2875.91 0.807265 4.16244 0
M  V30 29433 C 2874.37 -0.431518 3.34125 0
M  V30 29434 O 2874.9 -1.45425 3.74452 0
M  V30 29435 N 2873.11 -0.441271 2.8723 0
M  V30 29436 H 2872.65 0.391477 2.54608 0
M  V30 29437 H 2872.61 -1.30903 2.85852 0
M  V30 29438 N 2876.38 -1.1007 1.12794 0
M  V30 29439 C 2877.61 -1.86425 0.90887 0
M  V30 29440 C 2878.03 -1.80279 -0.536761 0
M  V30 29441 O 2877.39 -1.17546 -1.38031 0
M  V30 29442 C 2877.44 -3.32608 1.393 0
M  V30 29443 O 2876.54 -4.08387 0.573918 0
M  V30 29444 H 2875.88 -0.578326 0.326245 0
M  V30 29445 H 2878.41 -1.3904 1.50097 0
M  V30 29446 H 2878.42 -3.83457 1.39373 0
M  V30 29447 H 2877.1 -3.36397 2.44561 0
M  V30 29448 H 2875.68 -3.67358 0.640503 0
M  V30 29449 N 2877.86 -0.920419 -1.2793 0
M  V30 29450 C 2879.09 -0.572291 -1.98515 0
M  V30 29451 C 2879.5 0.852346 -1.68913 0
M  V30 29452 O 2878.84 1.57705 -0.942058 0
M  V30 29453 C 2878.9 -0.709547 -3.52428 0
M  V30 29454 C 2878.57 -2.10496 -4.05636 0
M  V30 29455 C 2879.56 -3.07838 -4.18965 0
M  V30 29456 C 2877.25 -2.41994 -4.40164 0
M  V30 29457 C 2879.24 -4.34791 -4.66085 0
M  V30 29458 C 2876.93 -3.69184 -4.86976 0
M  V30 29459 C 2877.93 -4.65397 -4.99895 0
M  V30 29460 O 2877.62 -5.90326 -5.45684 0
M  V30 29461 H 2877.35 -0.216285 -0.640466 0
M  V30 29462 H 2879.9 -1.23761 -1.63928 0
M  V30 29463 H 2878.13 0.0128583 -3.86698 0
M  V30 29464 H 2879.82 -0.367545 -4.04233 0
M  V30 29465 H 2880.59 -2.84823 -3.92557 0
M  V30 29466 H 2876.47 -1.67854 -4.29355 0
M  V30 29467 H 2880.01 -5.09893 -4.76083 0
M  V30 29468 H 2875.91 -3.92021 -5.12825 0
M  V30 29469 H 2876.68 -5.9321 -5.63954 0
M  V30 29470 N 2879.34 1.41929 -0.685124 0
M  V30 29471 C 2880.75 1.55587 -0.35566 0
M  V30 29472 C 2880.95 1.66275 1.1382 0
M  V30 29473 O 2880.01 1.63538 1.92384 0
M  V30 29474 C 2881.32 2.80053 -1.09503 0
M  V30 29475 C 2882.87 2.93837 -1.07836 0
M  V30 29476 C 2883.35 4.21178 -1.79926 0
M  V30 29477 N 2884.84 4.28112 -1.76845 0
M  V30 29478 C 2885.57 5.25481 -2.29473 0
M  V30 29479 N 2885.07 6.2894 -2.90527 0
M  V30 29480 N 2886.86 5.17349 -2.19788 0
M  V30 29481 H 2879.01 1.33236 -1.65415 0
M  V30 29482 H 2881.28 0.642066 -0.697464 0
M  V30 29483 H 2880.98 2.78329 -2.15002 0
M  V30 29484 H 2880.86 3.71258 -0.666878 0
M  V30 29485 H 2883.24 2.95083 -0.0316671 0
M  V30 29486 H 2883.32 2.03834 -1.54548 0
M  V30 29487 H 2882.97 4.20693 -2.84569 0
M  V30 29488 H 2882.9 5.10134 -1.30656 0
M  V30 29489 H 2885.39 3.53977 -1.32322 0
M  V30 29490 H 2885.7 6.99609 -3.28279 0
M  V30 29491 H 2884.05 6.29472 -2.94601 0
M  V30 29492 H 2887.24 4.35445 -1.71771 0
M  V30 29493 H 2887.41 5.93066 -2.61108 0
M  V30 29494 N 2880.82 0.429152 1.51644 0
M  V30 29495 C 2882.04 -0.138958 2.06433 0
M  V30 29496 C 2882.46 -1.37163 1.29737 0
M  V30 29497 O 2881.82 -1.79021 0.354669 0
M  V30 29498 C 2881.87 -0.469389 3.5844 0
M  V30 29499 O 2881.59 0.714349 4.32237 0
M  V30 29500 C 2883.09 -1.08906 4.29714 0
M  V30 29501 H 2880.31 -0.011549 0.670901 0
M  V30 29502 H 2882.85 0.605877 1.95319 0
M  V30 29503 H 2881.01 -1.16412 3.69496 0
M  V30 29504 H 2881.42 0.433725 5.22704 0
M  V30 29505 H 2882.9 -1.27032 5.37184 0
M  V30 29506 H 2883.37 -2.06781 3.87477 0
M  V30 29507 H 2883.98 -0.433953 4.2308 0
M  V30 29508 N 2882.29 -1.56783 0.160229 0
M  V30 29509 C 2883.52 -2.01349 -0.497338 0
M  V30 29510 C 2883.94 -1.03969 -1.56755 0
M  V30 29511 O 2883.3 -0.0174773 -1.81292 0
M  V30 29512 C 2883.35 -3.44584 -1.06274 0
M  V30 29513 O 2882.45 -3.50247 -2.17717 0
M  V30 29514 H 2881.8 -0.653014 -0.120284 0
M  V30 29515 H 2884.33 -2.0293 0.260857 0
M  V30 29516 H 2884.34 -3.8366 -1.38812 0
M  V30 29517 H 2883.01 -4.14963 -0.279093 0
M  V30 29518 H 2881.59 -3.23023 -1.86307 0
M  V30 29519 N 2883.77 0.113531 -1.57191 0
M  V30 29520 C 2885 0.838303 -1.89703 0
M  V30 29521 C 2885.42 1.72383 -0.75271 0
M  V30 29522 O 2884.78 1.78858 0.296544 0
M  V30 29523 C 2884.83 1.64307 -3.20992 0
M  V30 29524 O 2883.93 2.75048 -3.07282 0
M  V30 29525 H 2883.27 0.231485 -0.622343 0
M  V30 29526 H 2885.8 0.0942869 -2.04383 0
M  V30 29527 H 2885.81 2.03116 -3.53847 0
M  V30 29528 H 2884.49 0.993048 -4.0387 0
M  V30 29529 H 2883.07 2.39401 -2.85905 0
M  V30 29530 N 2885.25 1.52854 0.383864 0
M  V30 29531 C 2886.5 1.67371 1.1256 0
M  V30 29532 C 2886.81 0.422567 1.90981 0
M  V30 29533 O 2888.02 0.447961 2.67779 0
M  V30 29534 C 2886.48 2.95805 2.05006 0
M  V30 29535 C 2886.08 4.28117 1.31984 0
M  V30 29536 C 2887.83 3.19689 2.79284 0
M  V30 29537 C 2885.73 5.47654 2.23225 0
M  V30 29538 H 2884.66 0.623559 0.423899 0
M  V30 29539 H 2887.32 1.79351 0.387984 0
M  V30 29540 H 2885.7 2.77583 2.82425 0
M  V30 29541 H 2886.87 4.56909 0.597553 0
M  V30 29542 H 2885.19 4.10535 0.696445 0
M  V30 29543 H 2887.78 4.06177 3.47742 0
M  V30 29544 H 2888.13 2.34976 3.43645 0
M  V30 29545 H 2888.66 3.385 2.08956 0
M  V30 29546 H 2885.4 6.34789 1.63471 0
M  V30 29547 H 2884.92 5.23166 2.93355 0
M  V30 29548 H 2886.6 5.8173 2.83195 0
M  V30 29549 N 2886.73 -0.642612 1.43904 0
M  V30 29550 C 2887.98 -1.39828 1.45365 0
M  V30 29551 C 2888.29 -1.95412 0.0856633 0
M  V30 29552 O 2889.5 -2.71491 -0.0222379 0
M  V30 29553 C 2887.95 -2.53107 2.55861 0
M  V30 29554 C 2887.56 -2.04085 3.98815 0
M  V30 29555 C 2889.31 -3.30397 2.66529 0
M  V30 29556 C 2887.21 -3.14638 5.00756 0
M  V30 29557 H 2886.14 -0.52542 0.540786 0
M  V30 29558 H 2888.79 -0.692529 1.6993 0
M  V30 29559 H 2887.18 -3.26203 2.24516 0
M  V30 29560 H 2888.35 -1.3793 4.39673 0
M  V30 29561 H 2886.66 -1.39644 3.92286 0
M  V30 29562 H 2889.26 -4.1279 3.39865 0
M  V30 29563 H 2889.6 -3.79126 1.71956 0
M  V30 29564 H 2890.14 -2.64386 2.97228 0
M  V30 29565 H 2886.88 -2.70866 5.96919 0
M  V30 29566 H 2886.4 -3.79471 4.64501 0
M  V30 29567 H 2888.08 -3.796 5.2394 0
M  V30 29568 N 2888.21 -1.30611 -0.881966 0
M  V30 29569 C 2889.45 -1.19607 -1.63403 0
M  V30 29570 C 2889.78 0.24854 -1.92905 0
M  V30 29571 O 2889.04 1.19388 -1.55064 0
M  V30 29572 C 2889.34 -1.97316 -2.97995 0
M  V30 29573 C 2889 -3.46912 -2.88033 0
M  V30 29574 C 2887.66 -3.87705 -2.85023 0
M  V30 29575 C 2890.02 -4.42161 -2.7594 0
M  V30 29576 C 2887.34 -5.22035 -2.67762 0
M  V30 29577 C 2889.7 -5.76602 -2.60218 0
M  V30 29578 C 2888.36 -6.1663 -2.55584 0
M  V30 29579 H 2887.63 -0.437672 -0.597933 0
M  V30 29580 H 2890.28 -1.61746 -1.02521 0
M  V30 29581 H 2888.58 -1.47821 -3.62845 0
M  V30 29582 H 2890.28 -1.86192 -3.55153 0
M  V30 29583 H 2886.87 -3.14497 -2.91187 0
M  V30 29584 H 2891.05 -4.11585 -2.77329 0
M  V30 29585 H 2886.31 -5.52137 -2.62592 0
M  V30 29586 H 2890.48 -6.50043 -2.49835 0
M  V30 29587 H 2888.11 -7.20663 -2.41968 0
M  V30 29588 N 2889.69 1.0947 -1.13376 0
M  V30 29589 C 2890.63 2.16093 -0.810719 0
M  V30 29590 C 2891.6 1.64542 0.226975 0
M  V30 29591 O 2892.79 1.90541 0.0993203 0
M  V30 29592 C 2889.93 3.43943 -0.282396 0
M  V30 29593 C 2889.04 4.09396 -1.37909 0
M  V30 29594 C 2888.18 5.25001 -0.809158 0
M  V30 29595 C 2887.21 5.82375 -1.88429 0
M  V30 29596 N 2886.35 6.89343 -1.33233 0
M  V30 29597 H 2891.19 2.43068 -1.72401 0
M  V30 29598 H 2888.73 1.19299 -0.860585 0
M  V30 29599 H 2890.69 4.17179 0.0420455 0
M  V30 29600 H 2889.32 3.17287 0.594028 0
M  V30 29601 H 2888.37 3.34029 -1.82013 0
M  V30 29602 H 2889.68 4.4807 -2.19169 0
M  V30 29603 H 2888.83 6.05132 -0.435973 0
M  V30 29604 H 2887.57 4.87688 0.0345201 0
M  V30 29605 H 2886.58 5.00907 -2.26655 0
M  V30 29606 H 2887.8 6.2175 -2.73136 0
M  V30 29607 H 2885.75 6.54009 -0.51065 0
M  V30 29608 H 2885.67 7.26783 -2.08141 0
M  V30 29609 H 2886.93 7.7323 -0.986701 0
M  V30 29610 N 2891.16 0.92719 1.2744 0
M  V30 29611 C 2892.4 0.574643 1.96156 0
M  V30 29612 C 2892.77 -0.867867 1.71266 0
M  V30 29613 O 2893.97 -1.32866 2.33667 0
M  V30 29614 C 2892.24 0.89107 3.46114 0
M  V30 29615 S 2893.8 0.646961 4.34004 0
M  V30 29616 H 2890.62 0.212137 0.678615 0
M  V30 29617 H 2893.22 1.19552 1.54686 0
M  V30 29618 H 2891.92 1.93861 3.61727 0
M  V30 29619 H 2891.45 0.25937 3.92544 0
M  V30 29620 H 2893.47 -0.495481 4.9372 0
M  V30 29621 N 2892.64 -1.41564 0.692641 0
M  V30 29622 C 2893.92 -1.9502 0.15053 0
M  V30 29623 C 2894.3 -1.63217 -1.33878 0
M  V30 29624 O 2893.65 -0.937635 -2.08376 0
M  V30 29625 C 2893.86 -3.46232 0.438697 0
M  V30 29626 C 2895.2 -4.2303 0.364852 0
M  V30 29627 O 2896.23 -3.54237 0.373445 0
M  V30 29628 O 2895.09 -5.45548 0.322436 0
M  V30 29629 H 2892.18 -0.826894 0.0132599 0
M  V30 29630 H 2894.73 -1.51296 0.7686 0
M  V30 29631 H 2893.5 -3.62651 1.46969 0
M  V30 29632 H 2893.12 -3.97042 -0.210493 0
M  V30 29633 N 2894.12 -0.437188 -1.51415 0
M  V30 29634 C 2895.03 0.380497 -2.31494 0
M  V30 29635 C 2896.05 1.02779 -1.40401 0
M  V30 29636 O 2897.22 1.0232 -1.73472 0
M  V30 29637 C 2894.29 1.46703 -3.14132 0
M  V30 29638 C 2893.35 0.839879 -4.21004 0
M  V30 29639 C 2892.58 1.87464 -4.99693 0
M  V30 29640 O 2892.8 3.09681 -4.79013 0
M  V30 29641 O 2891.74 1.46526 -5.83793 0
M  V30 29642 H 2895.56 -0.273236 -3.02468 0
M  V30 29643 H 2893.15 -0.199732 -1.48059 0
M  V30 29644 H 2895.03 2.09718 -3.65508 0
M  V30 29645 H 2893.71 2.10485 -2.45922 0
M  V30 29646 H 2892.61 0.171686 -3.73706 0
M  V30 29647 H 2893.95 0.245551 -4.91587 0
M  V30 29648 N 2895.6 1.56696 -0.168541 0
M  V30 29649 C 2896.87 1.88469 0.523334 0
M  V30 29650 C 2897.25 1.07799 1.81501 0
M  V30 29651 O 2896.6 0.171085 2.27859 0
M  V30 29652 C 2896.81 3.40447 0.767931 0
M  V30 29653 C 2898.16 4.10126 1.09917 0
M  V30 29654 O 2899.18 3.45748 0.856564 0
M  V30 29655 O 2898.04 5.23859 1.55672 0
M  V30 29656 H 2895.14 0.781879 0.269433 0
M  V30 29657 H 2897.68 1.68436 -0.206769 0
M  V30 29658 H 2896.46 3.9103 -0.145323 0
M  V30 29659 H 2896.08 3.66082 1.55145 0
M  V30 29660 N 2897.08 -0.105193 1.57249 0
M  V30 29661 C 2897.99 -1.14689 2.04655 0
M  V30 29662 C 2899 -1.44487 0.969513 0
M  V30 29663 O 2900.18 -1.55329 1.28199 0
M  V30 29664 C 2897.24 -2.45006 2.45301 0
M  V30 29665 C 2896.3 -2.22482 3.67151 0
M  V30 29666 C 2895.54 -3.46585 4.0585 0
M  V30 29667 O 2895.76 -4.54431 3.44744 0
M  V30 29668 O 2894.69 -3.3677 4.98868 0
M  V30 29669 H 2898.52 -0.774285 2.93664 0
M  V30 29670 H 2896.1 -0.316984 1.45999 0
M  V30 29671 H 2897.99 -3.21761 2.72117 0
M  V30 29672 H 2896.66 -2.81714 1.59433 0
M  V30 29673 H 2895.57 -1.43541 3.45466 0
M  V30 29674 H 2896.9 -1.90672 4.53767 0
M  V30 29675 N 2898.55 -1.53055 -0.375752 0
M  V30 29676 C 2899.83 -1.59338 -1.1345 0
M  V30 29677 C 2900.21 -0.394651 -2.07378 0
M  V30 29678 O 2899.56 0.615962 -2.20041 0
M  V30 29679 C 2899.77 -2.93872 -1.88255 0
M  V30 29680 C 2901.12 -3.48086 -2.43149 0
M  V30 29681 O 2902.14 -2.95834 -1.98395 0
M  V30 29682 O 2901 -4.39407 -3.24937 0
M  V30 29683 H 2898.09 -0.643188 -0.519845 0
M  V30 29684 H 2900.64 -1.65394 -0.379836 0
M  V30 29685 H 2899.41 -3.7256 -1.19645 0
M  V30 29686 H 2899.04 -2.91261 -2.70653 0
M  V30 29687 N 2900.03 0.634971 -1.44242 0
M  V30 29688 C 2901.28 1.39055 -1.46104 0
M  V30 29689 C 2901.59 1.95364 -0.0960253 0
M  V30 29690 O 2902.8 2.71499 0.00783979 0
M  V30 29691 C 2901.26 2.51747 -2.572 0
M  V30 29692 C 2900.86 2.01967 -3.99891 0
M  V30 29693 C 2902.61 3.28979 -2.68278 0
M  V30 29694 C 2900.52 3.11978 -5.02418 0
M  V30 29695 H 2899.45 0.522545 -0.543565 0
M  V30 29696 H 2902.1 0.683508 -1.70295 0
M  V30 29697 H 2900.48 3.25008 -2.26242 0
M  V30 29698 H 2901.65 1.35596 -4.40398 0
M  V30 29699 H 2899.97 1.37561 -3.93021 0
M  V30 29700 H 2902.56 4.10982 -3.42049 0
M  V30 29701 H 2902.91 3.78209 -1.73964 0
M  V30 29702 H 2903.44 2.62806 -2.98626 0
M  V30 29703 H 2900.18 2.67696 -5.98347 0
M  V30 29704 H 2899.7 3.77003 -4.66507 0
M  V30 29705 H 2901.38 3.76816 -5.25946 0
M  V30 29706 N 2901.51 1.31076 0.875027 0
M  V30 29707 C 2902.76 1.20234 1.62445 0
M  V30 29708 C 2903.08 -0.240854 1.93507 0
M  V30 29709 O 2902.35 -1.16019 1.57849 0
M  V30 29710 H 2900.93 0.442002 0.602199 0
M  V30 29711 H 2903.59 1.64336 1.04785 0
M  V30 29712 H 2902.69 1.7704 2.57028 0
M  V30 29713 N 2902.99 -1.08867 1.13955 0
M  V30 29714 C 2904.4 -1.33217 0.878947 0
M  V30 29715 C 2904.6 -1.95639 -0.482444 0
M  V30 29716 O 2903.66 -2.20642 -1.22774 0
M  V30 29717 C 2904.97 -2.23828 2.00802 0
M  V30 29718 C 2906.52 -2.37321 2.04077 0
M  V30 29719 C 2907 -3.31272 3.16264 0
M  V30 29720 N 2908.49 -3.38847 3.15811 0
M  V30 29721 C 2909.22 -4.1156 3.99257 0
M  V30 29722 N 2908.72 -4.87021 4.9273 0
M  V30 29723 N 2910.51 -4.07343 3.87334 0
M  V30 29724 H 2902.66 -0.667275 2.01646 0
M  V30 29725 H 2904.93 -0.356532 0.878401 0
M  V30 29726 H 2904.63 -1.85198 2.98989 0
M  V30 29727 H 2904.51 -3.24257 1.92709 0
M  V30 29728 H 2906.89 -2.75212 1.06499 0
M  V30 29729 H 2906.97 -1.36651 2.16241 0
M  V30 29730 H 2906.62 -2.94103 4.14084 0
M  V30 29731 H 2906.55 -4.3186 3.01337 0
M  V30 29732 H 2909.04 -2.85046 2.48107 0
M  V30 29733 H 2909.35 -5.39951 5.52877 0
M  V30 29734 H 2907.7 -4.8609 4.96731 0
M  V30 29735 H 2910.89 -3.47494 3.13633 0
M  V30 29736 H 2911.06 -4.63749 4.52594 0
M  V30 29737 N 2904.47 -0.933936 -1.26946 0
M  V30 29738 C 2905.88 -0.621355 -1.76057 0
M  V30 29739 C 2906.23 0.863491 -1.76177 0
M  V30 29740 O 2905.35 1.67574 -1.36923 0
M  V30 29741 C 2905.95 -1.12117 -3.19711 0
M  V30 29742 C 2904.51 -0.859139 -3.66464 0
M  V30 29743 C 2903.65 -1.27628 -2.46183 0
M  V30 29744 H 2906.61 -1.11303 -1.13125 0
M  V30 29745 H 2906.63 -0.471674 -3.77565 0
M  V30 29746 H 2906.14 -2.20188 -3.19592 0
M  V30 29747 H 2904.24 0.2075 -3.72022 0
M  V30 29748 H 2904.35 -1.48106 -4.55633 0
M  V30 29749 H 2902.72 -0.694771 -2.45041 0
M  V30 29750 H 2903.5 -2.36577 -2.4877 0
M  V30 29751 N 2905.94 1.41194 -0.700139 0
M  V30 29752 C 2906.88 2.292 0.00151795 0
M  V30 29753 C 2907.89 1.45025 0.739711 0
M  V30 29754 O 2909.08 1.68479 0.589654 0
M  V30 29755 C 2906.18 3.22987 1.0263 0
M  V30 29756 C 2905.35 4.35942 0.356794 0
M  V30 29757 C 2904.41 5.10273 1.28482 0
M  V30 29758 O 2903.44 5.63893 0.775463 0
M  V30 29759 N 2904.64 5.18169 2.6169 0
M  V30 29760 H 2907.4 2.90059 -0.754059 0
M  V30 29761 H 2904.96 1.52396 -0.546531 0
M  V30 29762 H 2906.96 3.69583 1.64896 0
M  V30 29763 H 2905.53 2.63404 1.68337 0
M  V30 29764 H 2904.75 3.91671 -0.445821 0
M  V30 29765 H 2906.03 5.08684 -0.108558 0
M  V30 29766 H 2905.43 4.76061 3.05585 0
M  V30 29767 H 2903.99 5.68325 3.19139 0
M  V30 29768 N 2907.42 0.445212 1.51181 0
M  V30 29769 C 2908.67 -0.118785 2.02452 0
M  V30 29770 C 2909 -1.41671 1.32827 0
M  V30 29771 O 2908.28 -1.89325 0.44567 0
M  V30 29772 C 2908.56 -0.329412 3.5859 0
M  V30 29773 C 2908.41 0.987715 4.38821 0
M  V30 29774 C 2909.73 -1.09567 4.26243 0
M  V30 29775 H 2906.85 -0.0416963 0.73582 0
M  V30 29776 H 2909.49 0.585749 1.80746 0
M  V30 29777 H 2907.64 -0.929534 3.77216 0
M  V30 29778 H 2909.31 1.62242 4.31828 0
M  V30 29779 H 2907.56 1.59048 4.03592 0
M  V30 29780 H 2908.23 0.794288 5.46255 0
M  V30 29781 H 2910.7 -0.587255 4.11935 0
M  V30 29782 H 2909.58 -1.21182 5.35356 0
M  V30 29783 H 2909.84 -2.12577 3.87638 0
M  V30 29784 N 2908.9 -1.56605 0.176849 0
M  V30 29785 C 2910.15 -1.97049 -0.46668 0
M  V30 29786 C 2910.48 -1.06305 -1.62879 0
M  V30 29787 O 2909.73 -0.0982914 -1.95453 0
M  V30 29788 C 2910.03 -3.43526 -0.986148 0
M  V30 29789 C 2909.7 -4.50859 0.0606459 0
M  V30 29790 C 2908.36 -4.79938 0.348326 0
M  V30 29791 C 2910.71 -5.15468 0.770885 0
M  V30 29792 C 2908.04 -5.70921 1.35154 0
M  V30 29793 C 2910.39 -6.07533 1.76312 0
M  V30 29794 C 2909.05 -6.34976 2.05819 0
M  V30 29795 H 2908.32 -0.721054 -0.17077 0
M  V30 29796 H 2910.97 -1.89587 0.269975 0
M  V30 29797 H 2909.28 -3.47967 -1.80073 0
M  V30 29798 H 2910.97 -3.72164 -1.49316 0
M  V30 29799 H 2907.56 -4.28248 -0.173748 0
M  V30 29800 H 2911.75 -4.93109 0.561847 0
M  V30 29801 H 2907 -5.90464 1.58626 0
M  V30 29802 H 2911.18 -6.56662 2.3188 0
M  V30 29803 H 2908.8 -7.05278 2.83703 0
M  V30 29804 N 2910.38 0.0968524 -1.57302 0
M  V30 29805 C 2911.6 0.818135 -1.90582 0
M  V30 29806 C 2912.03 1.71575 -0.770951 0
M  V30 29807 O 2911.39 1.79163 0.277557 0
M  V30 29808 C 2911.43 1.60893 -3.22716 0
M  V30 29809 O 2910.54 2.71773 -3.10182 0
M  V30 29810 H 2909.88 0.224871 -0.624763 0
M  V30 29811 H 2912.41 0.072604 -2.04471 0
M  V30 29812 H 2912.42 1.99352 -3.55981 0
M  V30 29813 H 2911.09 0.950156 -4.04901 0
M  V30 29814 H 2909.67 2.36355 -2.88428 0
M  V30 29815 N 2911.86 1.53252 0.36763 0
M  V30 29816 C 2912.77 1.82502 1.47412 0
M  V30 29817 C 2913.78 0.71325 1.5871 0
M  V30 29818 O 2914.96 1.00309 1.74643 0
M  V30 29819 C 2912.02 2.00699 2.82703 0
M  V30 29820 C 2911.08 3.24601 2.8095 0
M  V30 29821 C 2910.32 3.41921 4.09787 0
M  V30 29822 O 2910.54 2.63581 5.05847 0
M  V30 29823 O 2909.47 4.35267 4.15724 0
M  V30 29824 H 2913.3 2.76502 1.25619 0
M  V30 29825 H 2910.89 1.38607 0.557535 0
M  V30 29826 H 2912.77 2.14252 3.62869 0
M  V30 29827 H 2911.44 1.09888 3.04477 0
M  V30 29828 H 2910.35 3.16473 1.99489 0
M  V30 29829 H 2911.68 4.15327 2.64129 0
M  V30 29830 N 2913.34 -0.627313 1.44577 0
M  V30 29831 C 2914.58 -1.38885 1.4778 0
M  V30 29832 C 2914.91 -1.9388 0.11144 0
M  V30 29833 O 2914.19 -1.73885 -0.87146 0
M  V30 29834 C 2914.47 -2.55133 2.54124 0
M  V30 29835 C 2914.33 -2.05463 4.00131 0
M  V30 29836 C 2915.64 -3.57312 2.56936 0
M  V30 29837 H 2912.76 -0.50365 0.538057 0
M  V30 29838 H 2915.41 -0.708947 1.76278 0
M  V30 29839 H 2913.56 -3.13135 2.29954 0
M  V30 29840 H 2915.23 -1.52263 4.35447 0
M  V30 29841 H 2913.47 -1.36616 4.11726 0
M  V30 29842 H 2914.14 -2.89173 4.70195 0
M  V30 29843 H 2916.62 -3.09117 2.78542 0
M  V30 29844 H 2915.49 -4.36167 3.33241 0
M  V30 29845 H 2915.75 -4.11633 1.61277 0
M  V30 29846 N 2914.81 -1.31539 -0.868063 0
M  V30 29847 C 2916.23 -1.10237 -1.15412 0
M  V30 29848 C 2916.43 0.125912 -2.01106 0
M  V30 29849 O 2915.49 0.814691 -2.38996 0
M  V30 29850 C 2916.8 -2.37491 -1.84441 0
M  V30 29851 C 2918.35 -2.43119 -1.97134 0
M  V30 29852 C 2918.82 -3.70259 -2.69578 0
M  V30 29853 N 2920.31 -3.71164 -2.77113 0
M  V30 29854 C 2921.05 -4.66236 -3.33783 0
M  V30 29855 N 2920.54 -5.71666 -3.9137 0
M  V30 29856 N 2922.34 -4.53753 -3.31759 0
M  V30 29857 H 2914.49 -2.10312 -0.297072 0
M  V30 29858 H 2916.75 -0.927893 -0.194211 0
M  V30 29859 H 2916.46 -3.27218 -1.28924 0
M  V30 29860 H 2916.33 -2.47433 -2.84704 0
M  V30 29861 H 2918.72 -1.5386 -2.51815 0
M  V30 29862 H 2918.8 -2.3714 -0.959078 0
M  V30 29863 H 2918.44 -4.59885 -2.15564 0
M  V30 29864 H 2918.37 -3.73505 -3.71216 0
M  V30 29865 H 2920.86 -2.94953 -2.36244 0
M  V30 29866 H 2921.18 -6.40286 -4.32729 0
M  V30 29867 H 2919.52 -5.75437 -3.8974 0
M  V30 29868 H 2922.71 -3.70562 -2.8601 0
M  V30 29869 H 2922.89 -5.28023 -3.75627 0
M  V30 29870 N 2916.29 1.08262 -1.1453 0
M  V30 29871 C 2917.54 1.8032 -0.91263 0
M  V30 29872 C 2917.86 1.86719 0.562224 0
M  V30 29873 O 2917.13 1.36137 1.40867 0
M  V30 29874 H 2915.71 0.667843 -0.334657 0
M  V30 29875 H 2918.37 1.30881 -1.44417 0
M  V30 29876 H 2917.47 2.83096 -1.31389 0
M  V30 29877 N 2917.77 0.940655 1.26449 0
M  V30 29878 C 2919.01 0.595416 1.95536 0
M  V30 29879 C 2919.37 -0.849653 1.72177 0
M  V30 29880 O 2920.57 -1.3038 2.35063 0
M  V30 29881 C 2918.85 0.92773 3.45149 0
M  V30 29882 S 2920.4 0.692956 4.33294 0
M  V30 29883 H 2917.22 0.219322 0.676327 0
M  V30 29884 H 2919.82 1.21186 1.53409 0
M  V30 29885 H 2918.53 1.97686 3.5965 0
M  V30 29886 H 2918.06 0.30099 3.92247 0
M  V30 29887 H 2920.07 -0.443088 4.94218 0
M  V30 29888 N 2919.25 -1.40821 0.707617 0
M  V30 29889 C 2920.52 -1.94849 0.171206 0
M  V30 29890 C 2920.9 -1.64628 -1.3214 0
M  V30 29891 O 2920.25 -0.959683 -2.0737 0
M  V30 29892 C 2920.46 -3.45747 0.475394 0
M  V30 29893 C 2921.81 -4.22619 0.409699 0
M  V30 29894 O 2922.83 -3.53821 0.410996 0
M  V30 29895 O 2921.69 -5.45175 0.38028 0
M  V30 29896 H 2918.79 -0.826707 0.0220295 0
M  V30 29897 H 2921.33 -1.50473 0.784604 0
M  V30 29898 H 2920.11 -3.61072 1.50807 0
M  V30 29899 H 2919.73 -3.97243 -0.168369 0
M  V30 29900 N 2920.73 -0.453223 -1.50943 0
M  V30 29901 C 2921.97 0.108047 -2.02512 0
M  V30 29902 C 2922.3 1.40965 -1.33576 0
M  V30 29903 O 2921.58 1.89086 -0.455704 0
M  V30 29904 C 2921.86 0.31039 -3.5876 0
M  V30 29905 C 2921.72 -1.01097 -4.38291 0
M  V30 29906 C 2923.03 1.07305 -4.26818 0
M  V30 29907 H 2920.15 0.0377935 -0.73603 0
M  V30 29908 H 2922.8 -0.595327 -1.80432 0
M  V30 29909 H 2920.95 0.909516 -3.77704 0
M  V30 29910 H 2922.62 -1.6453 -4.30961 0
M  V30 29911 H 2920.86 -1.61186 -4.02742 0
M  V30 29912 H 2921.53 -0.823246 -5.45827 0
M  V30 29913 H 2924.01 0.565401 -4.12241 0
M  V30 29914 H 2922.88 1.18341 -5.35991 0
M  V30 29915 H 2923.14 2.10518 -3.8876 0
M  V30 29916 N 2922.2 1.56509 -0.185151 0
M  V30 29917 C 2923.43 2.01674 0.462104 0
M  V30 29918 C 2923.85 1.06534 1.55871 0
M  V30 29919 O 2923.2 0.0685126 1.82371 0
M  V30 29920 C 2923.25 3.46586 1.02764 0
M  V30 29921 O 2922.98 4.38093 -0.0252066 0
M  V30 29922 C 2924.48 4.0722 1.75176 0
M  V30 29923 H 2921.7 0.660723 0.116989 0
M  V30 29924 H 2924.24 2.0242 -0.290941 0
M  V30 29925 H 2922.4 3.46571 1.73111 0
M  V30 29926 H 2922.81 5.23016 0.394295 0
M  V30 29927 H 2924.28 5.10498 2.0999 0
M  V30 29928 H 2924.76 3.50106 2.65184 0
M  V30 29929 H 2925.37 4.10979 1.09438 0
M  V30 29930 N 2923.68 -0.0885089 1.57351 0
M  V30 29931 C 2924.93 -0.790791 1.86421 0
M  V30 29932 C 2925.26 -1.78411 0.774593 0
M  V30 29933 O 2924.51 -1.9433 -0.231156 0
M  V30 29934 C 2924.81 -1.54874 3.22101 0
M  V30 29935 C 2924.48 -0.696946 4.45481 0
M  V30 29936 C 2923.14 -0.462153 4.78976 0
M  V30 29937 C 2925.49 -0.105223 5.21094 0
M  V30 29938 C 2922.82 0.374119 5.85506 0
M  V30 29939 C 2925.17 0.718409 6.28507 0
M  V30 29940 C 2923.83 0.963232 6.60514 0
M  V30 29941 H 2923.1 -0.289371 0.682162 0
M  V30 29942 H 2925.75 -0.0520625 1.91429 0
M  V30 29943 H 2924.06 -2.35922 3.12807 0
M  V30 29944 H 2925.75 -2.09663 3.41822 0
M  V30 29945 H 2922.34 -0.890064 4.19256 0
M  V30 29946 H 2926.53 -0.273769 4.95544 0
M  V30 29947 H 2921.78 0.572713 6.08712 0
M  V30 29948 H 2925.96 1.18374 6.86266 0
M  V30 29949 H 2923.58 1.61303 7.4289 0
M  V30 29950 N 2925.16 -1.53445 -0.359498 0
M  V30 29951 C 2926.07 -1.83281 -1.46442 0
M  V30 29952 C 2927.09 -0.721656 -1.58329 0
M  V30 29953 O 2928.26 -1.01234 -1.74108 0
M  V30 29954 C 2925.33 -2.02195 -2.81634 0
M  V30 29955 C 2924.39 -3.26086 -2.79224 0
M  V30 29956 C 2923.62 -3.44089 -4.07968 0
M  V30 29957 O 2923.84 -2.6626 -5.04442 0
M  V30 29958 O 2922.78 -4.37466 -4.1341 0
M  V30 29959 H 2926.6 -2.77165 -1.24151 0
M  V30 29960 H 2924.19 -1.38901 -0.550176 0
M  V30 29961 H 2926.07 -2.16173 -3.61728 0
M  V30 29962 H 2924.75 -1.11501 -3.0389 0
M  V30 29963 H 2923.65 -3.17526 -1.97807 0
M  V30 29964 H 2924.99 -4.16722 -2.61922 0
M  V30 29965 N 2926.64 0.619637 -1.44908 0
M  V30 29966 C 2927.88 1.37911 -1.49506 0
M  V30 29967 C 2928.24 1.91959 -0.130192 0
M  V30 29968 O 2927.53 1.71404 0.856233 0
M  V30 29969 C 2927.73 2.55404 -2.50007 0
M  V30 29970 C 2927.55 2.12861 -3.96132 0
M  V30 29971 C 2926.32 1.99598 -4.64208 0
M  V30 29972 C 2928.52 1.71065 -4.85017 0
M  V30 29973 N 2926.5 1.50737 -5.95106 0
M  V30 29974 C 2927.88 1.33533 -6.05449 0
M  V30 29975 C 2929.93 1.58548 -4.71982 0
M  V30 29976 C 2928.63 0.847358 -7.14291 0
M  V30 29977 C 2930.66 1.11155 -5.8086 0
M  V30 29978 C 2930.02 0.745809 -7.00441 0
M  V30 29979 H 2926.12 0.499024 -0.602079 0
M  V30 29980 H 2928.7 0.709648 -1.81307 0
M  V30 29981 H 2926.88 3.19963 -2.20178 0
M  V30 29982 H 2928.61 3.22244 -2.44828 0
M  V30 29983 H 2925.36 2.2041 -4.19186 0
M  V30 29984 H 2925.79 1.28574 -6.64679 0
M  V30 29985 H 2930.43 1.85454 -3.79956 0
M  V30 29986 H 2928.15 0.565832 -8.06117 0
M  V30 29987 H 2931.73 1.01913 -5.72804 0
M  V30 29988 H 2930.61 0.38471 -7.83256 0
M  V30 29989 N 2928.12 1.31997 0.861075 0
M  V30 29990 C 2929.06 1.20395 1.9691 0
M  V30 29991 C 2930.03 0.087619 1.65869 0
M  V30 29992 O 2931.22 0.262044 1.88992 0
M  V30 29993 C 2928.36 0.926393 3.32433 0
M  V30 29994 C 2927.47 2.12691 3.76014 0
M  V30 29995 C 2926.61 1.78537 5.00298 0
M  V30 29996 C 2925.65 2.94946 5.36352 0
M  V30 29997 N 2924.78 2.60929 6.51813 0
M  V30 29998 H 2929.62 2.15174 2.06165 0
M  V30 29999 H 2927.16 1.07026 1.00915 0
M  V30 30000 H 2929.12 0.745989 4.10476 0
M  V30 30001 H 2927.75 0.0154145 3.22796 0
M  V30 30002 H 2926.8 2.41779 2.93678 0
M  V30 30003 H 2928.11 2.99788 3.98658 0
M  V30 30004 H 2927.27 1.57011 5.86031 0
M  V30 30005 H 2926 0.88644 4.79576 0
M  V30 30006 H 2925.01 3.17111 4.49133 0
M  V30 30007 H 2926.23 3.85562 5.59034 0
M  V30 30008 H 2924.18 1.73569 6.32621 0
M  V30 30009 H 2924.1 3.41556 6.74444 0
M  V30 30010 H 2925.37 2.42817 7.40716 0
M  V30 30011 N 2929.59 -1.07653 1.15103 0
M  V30 30012 C 2930.82 -1.83916 0.947763 0
M  V30 30013 C 2931.24 -1.81951 -0.503895 0
M  V30 30014 O 2930.59 -1.22873 -1.34939 0
M  V30 30015 C 2930.65 -3.3113 1.45035 0
M  V30 30016 O 2930.37 -3.33141 2.84514 0
M  V30 30017 C 2931.87 -4.24172 1.28814 0
M  V30 30018 H 2929.09 -0.580352 0.336797 0
M  V30 30019 H 2931.63 -1.35912 1.52801 0
M  V30 30020 H 2929.79 -3.76495 0.912698 0
M  V30 30021 H 2930.2 -4.25095 3.07237 0
M  V30 30022 H 2931.67 -5.25548 1.68829 0
M  V30 30023 H 2932.15 -4.38587 0.231928 0
M  V30 30024 H 2932.76 -3.8464 1.81472 0
M  V30 30025 N 2931.07 -0.947348 -1.25949 0
M  V30 30026 C 2932.02 -0.460537 -2.26159 0
M  V30 30027 C 2932.99 0.483097 -1.58919 0
M  V30 30028 O 2934.17 0.397951 -1.86604 0
M  V30 30029 C 2931.31 0.262409 -3.44101 0
M  V30 30030 C 2930.43 -0.717614 -4.25998 0
M  V30 30031 C 2929.56 0.0271552 -5.31193 0
M  V30 30032 C 2928.6 -0.944283 -6.04772 0
M  V30 30033 N 2927.74 -0.230865 -7.0172 0
M  V30 30034 H 2932.58 -1.32 -2.67171 0
M  V30 30035 H 2930.12 -0.662111 -1.31356 0
M  V30 30036 H 2932.07 0.698065 -4.11318 0
M  V30 30037 H 2930.7 1.08596 -3.03985 0
M  V30 30038 H 2929.76 -1.27177 -3.58511 0
M  V30 30039 H 2931.07 -1.45922 -4.76978 0
M  V30 30040 H 2930.22 0.521796 -6.04452 0
M  V30 30041 H 2928.96 0.801598 -4.81067 0
M  V30 30042 H 2927.97 -1.44999 -5.30335 0
M  V30 30043 H 2929.19 -1.71883 -6.56988 0
M  V30 30044 H 2927.14 0.524973 -6.53896 0
M  V30 30045 H 2927.05 -0.911688 -7.50483 0
M  V30 30046 H 2928.32 0.242479 -7.79123 0
M  V30 30047 N 2932.55 1.40444 -0.715075 0
M  V30 30048 C 2933.8 2.01194 -0.25474 0
M  V30 30049 C 2934.13 1.56569 1.14891 0
M  V30 30050 O 2933.4 0.785522 1.77932 0
M  V30 30051 C 2933.69 3.58546 -0.334211 0
M  V30 30052 C 2933.54 4.13245 -1.7762 0
M  V30 30053 C 2934.86 4.39111 0.294891 0
M  V30 30054 H 2931.98 0.730976 -0.0940379 0
M  V30 30055 H 2934.62 1.66928 -0.907479 0
M  V30 30056 H 2932.77 3.87868 0.221541 0
M  V30 30057 H 2934.44 3.94722 -2.3873 0
M  V30 30058 H 2932.69 3.67552 -2.30408 0
M  V30 30059 H 2933.36 5.22404 -1.7832 0
M  V30 30060 H 2935.83 4.15716 -0.178636 0
M  V30 30061 H 2934.71 5.48503 0.208838 0
M  V30 30062 H 2934.97 4.20065 1.37834 0
M  V30 30063 N 2934.03 0.461222 1.507 0
M  V30 30064 C 2935.27 -0.0973054 2.02566 0
M  V30 30065 C 2935.61 -1.40254 1.34322 0
M  V30 30066 O 2934.88 -1.88842 0.465726 0
M  V30 30067 C 2935.17 -0.29136 3.58919 0
M  V30 30068 C 2935.02 1.0342 4.37749 0
M  V30 30069 C 2936.34 -1.0504 4.27381 0
M  V30 30070 H 2933.46 -0.0338896 0.73622 0
M  V30 30071 H 2936.1 0.604887 1.80114 0
M  V30 30072 H 2934.25 -0.889473 3.78181 0
M  V30 30073 H 2935.92 1.66813 4.30083 0
M  V30 30074 H 2934.16 1.6332 4.01882 0
M  V30 30075 H 2934.83 0.852181 5.45382 0
M  V30 30076 H 2937.31 -0.543531 4.12535 0
M  V30 30077 H 2936.19 -1.15497 5.36611 0
M  V30 30078 H 2936.45 -2.08453 3.89871 0
M  V30 30079 N 2935.51 -1.56408 0.193449 0
M  V30 30080 C 2936.75 -1.99431 -0.447942 0
M  V30 30081 C 2937.11 -1.07753 -1.58913 0
M  V30 30082 O 2938.31 -1.40006 -2.2946 0
M  V30 30083 C 2936.58 -3.45938 -0.897869 0
M  V30 30084 S 2938.14 -4.10989 -1.53733 0
M  V30 30085 H 2934.96 -0.696409 -0.143304 0
M  V30 30086 H 2937.56 -1.93244 0.296127 0
M  V30 30087 H 2936.27 -4.1036 -0.0572206 0
M  V30 30088 H 2935.8 -3.55939 -1.67544 0
M  V30 30089 H 2937.81 -4.07859 -2.82605 0
M  V30 30090 N 2936.98 0.0801629 -1.57396 0
M  V30 30091 C 2938.4 0.632971 -1.75643 0
M  V30 30092 C 2938.75 1.78346 -0.817739 0
M  V30 30093 O 2937.87 2.164 0.000195706 0
M  V30 30094 C 2938.47 1.15501 -3.18504 0
M  V30 30095 C 2937.03 1.65375 -3.38124 0
M  V30 30096 C 2936.17 0.569613 -2.71387 0
M  V30 30097 H 2939.12 -0.145977 -1.58027 0
M  V30 30098 H 2939.14 2.02402 -3.22201 0
M  V30 30099 H 2938.66 0.317447 -3.868 0
M  V30 30100 H 2936.76 2.51484 -2.7493 0
M  V30 30101 H 2936.87 1.73646 -4.46524 0
M  V30 30102 H 2935.23 1.01266 -2.33704 0
M  V30 30103 H 2936.02 -0.257621 -3.42332 0
M  V30 30104 N 2938.46 1.53634 0.351355 0
M  V30 30105 C 2939.87 1.62038 0.9274 0
M  V30 30106 C 2940.22 0.496739 1.89808 0
M  V30 30107 O 2939.35 -0.374712 2.13131 0
M  V30 30108 C 2939.94 2.93709 1.68881 0
M  V30 30109 C 2938.5 3.04401 2.21398 0
M  V30 30110 C 2937.65 2.57433 1.0307 0
M  V30 30111 H 2940.6 1.58169 0.12972 0
M  V30 30112 H 2940.62 2.8231 2.55111 0
M  V30 30113 H 2940.13 3.75469 0.982083 0
M  V30 30114 H 2938.24 2.27258 2.9527 0
M  V30 30115 H 2938.35 4.09734 2.48305 0
M  V30 30116 H 2936.71 2.12651 1.40184 0
M  V30 30117 H 2937.5 3.41625 0.338733 0
M  V30 30118 N 2939.94 -0.611943 1.45234 0
M  V30 30119 C 2940.89 -1.7229 1.53573 0
M  V30 30120 C 2941.86 -1.61649 0.38194 0
M  V30 30121 O 2943.04 -1.81292 0.594797 0
M  V30 30122 C 2940.18 -3.10591 1.50424 0
M  V30 30123 C 2939.3 -3.3207 2.76322 0
M  V30 30124 C 2938.43 -4.60451 2.64874 0
M  V30 30125 C 2937.47 -4.75173 3.85846 0
M  V30 30126 N 2936.61 -5.9485 3.72959 0
M  V30 30127 H 2941.45 -1.64499 2.48483 0
M  V30 30128 H 2938.98 -0.80217 1.23303 0
M  V30 30129 H 2940.94 -3.906 1.46587 0
M  V30 30130 H 2939.57 -3.1735 0.590677 0
M  V30 30131 H 2938.62 -2.45867 2.90265 0
M  V30 30132 H 2939.94 -3.38822 3.66061 0
M  V30 30133 H 2939.09 -5.48648 2.58978 0
M  V30 30134 H 2937.83 -4.56089 1.72727 0
M  V30 30135 H 2936.83 -3.854 3.92106 0
M  V30 30136 H 2938.06 -4.81336 4.79054 0
M  V30 30137 H 2936 -5.9154 2.83577 0
M  V30 30138 H 2935.92 -6.02743 4.5633 0
M  V30 30139 H 2937.19 -6.85557 3.70988 0
M  V30 30140 N 2941.42 -1.32452 -0.854063 0
M  V30 30141 C 2942.37 -1.21438 -1.96269 0
M  V30 30142 C 2943.34 -0.0964142 -1.6582 0
M  V30 30143 O 2944.52 -0.272063 -1.8885 0
M  V30 30144 C 2941.66 -0.94401 -3.31937 0
M  V30 30145 C 2940.77 -2.14682 -3.74881 0
M  V30 30146 C 2939.91 -1.81188 -4.99344 0
M  V30 30147 C 2938.95 -2.97786 -5.3478 0
M  V30 30148 N 2938.08 -2.64382 -6.5042 0
M  V30 30149 H 2942.92 -2.16264 -2.05021 0
M  V30 30150 H 2940.46 -1.07559 -1.00346 0
M  V30 30151 H 2942.42 -0.767747 -4.10075 0
M  V30 30152 H 2941.05 -0.032533 -3.22784 0
M  V30 30153 H 2940.1 -2.43333 -2.92392 0
M  V30 30154 H 2941.41 -3.01898 -3.97063 0
M  V30 30155 H 2940.57 -1.60117 -5.8519 0
M  V30 30156 H 2939.31 -0.911861 -4.791 0
M  V30 30157 H 2938.31 -3.19488 -4.47445 0
M  V30 30158 H 2939.54 -3.88521 -5.56981 0
M  V30 30159 H 2937.48 -1.76921 -6.31692 0
M  V30 30160 H 2937.4 -3.45128 -6.72624 0
M  V30 30161 H 2938.67 -2.46742 -7.39418 0
M  V30 30162 N 2942.9 1.07041 -1.15672 0
M  V30 30163 C 2943.83 2.16308 -0.879386 0
M  V30 30164 C 2944.81 1.69235 0.171281 0
M  V30 30165 O 2945.99 1.94184 0.0249834 0
M  V30 30166 C 2943.12 3.45309 -0.371368 0
M  V30 30167 C 2942.08 4.05849 -1.35907 0
M  V30 30168 C 2941.4 5.29968 -0.709771 0
M  V30 30169 C 2942.7 4.4551 -2.72614 0
M  V30 30170 H 2944.4 2.39765 -1.79313 0
M  V30 30171 H 2941.94 1.15232 -0.863578 0
M  V30 30172 H 2943.9 4.21077 -0.164872 0
M  V30 30173 H 2942.62 3.21447 0.577849 0
M  V30 30174 H 2941.28 3.32128 -1.55198 0
M  V30 30175 H 2940.93 5.024 0.245694 0
M  V30 30176 H 2940.63 5.71431 -1.36896 0
M  V30 30177 H 2942.15 6.0844 -0.513122 0
M  V30 30178 H 2943.57 5.12393 -2.5715 0
M  V30 30179 H 2941.96 4.97934 -3.34936 0
M  V30 30180 H 2943.03 3.56728 -3.2844 0
M  V30 30181 N 2944.38 0.954014 1.25445 0
M  V30 30182 C 2945.29 0.480304 2.29631 0
M  V30 30183 C 2946.3 -0.452041 1.68026 0
M  V30 30184 O 2947.48 -0.328437 1.98704 0
M  V30 30185 C 2944.54 -0.234913 3.45903 0
M  V30 30186 C 2943.6 0.735569 4.22951 0
M  V30 30187 C 2942.84 0.0543895 5.33672 0
M  V30 30188 O 2943.06 -1.16008 5.58479 0
M  V30 30189 O 2941.99 0.739614 5.97339 0
M  V30 30190 H 2945.82 1.34607 2.7224 0
M  V30 30191 H 2943.4 0.720442 1.30882 0
M  V30 30192 H 2945.29 -0.637268 4.16554 0
M  V30 30193 H 2943.96 -1.07586 3.05298 0
M  V30 30194 H 2942.87 1.18812 3.54732 0
M  V30 30195 H 2944.2 1.54452 4.67339 0
M  V30 30196 N 2945.85 -1.40063 0.722513 0
M  V30 30197 C 2947.09 -2.02615 0.269527 0
M  V30 30198 C 2947.46 -1.56069 -1.11832 0
M  V30 30199 O 2948.66 -2.10733 -1.66869 0
M  V30 30200 C 2946.93 -3.55641 0.354129 0
M  V30 30201 S 2948.49 -4.38795 -0.0208538 0
M  V30 30202 H 2945.31 -0.70299 0.106425 0
M  V30 30203 H 2947.91 -1.71073 0.946267 0
M  V30 30204 H 2946.61 -3.87009 1.36572 0
M  V30 30205 H 2946.14 -3.91921 -0.340856 0
M  V30 30206 H 2948.16 -4.80435 -1.24085 0
M  V30 30207 N 2947.33 -0.469207 -1.50453 0
M  V30 30208 C 2948.28 0.325941 -2.28487 0
M  V30 30209 C 2949.25 0.98887 -1.33456 0
M  V30 30210 O 2950.43 1.00167 -1.62392 0
M  V30 30211 C 2947.57 1.40307 -3.1529 0
M  V30 30212 C 2946.69 0.755108 -4.25349 0
M  V30 30213 C 2945.82 1.80997 -4.99413 0
M  V30 30214 C 2944.86 1.14215 -6.0135 0
M  V30 30215 N 2944 2.13978 -6.68698 0
M  V30 30216 H 2948.84 -0.345805 -2.95987 0
M  V30 30217 H 2946.37 -0.18238 -1.45965 0
M  V30 30218 H 2948.33 2.03921 -3.63967 0
M  V30 30219 H 2946.96 2.04401 -2.4984 0
M  V30 30220 H 2946.01 0.00645215 -3.80399 0
M  V30 30221 H 2947.33 0.227853 -4.98279 0
M  V30 30222 H 2946.48 2.52196 -5.51799 0
M  V30 30223 H 2945.22 2.37103 -4.26185 0
M  V30 30224 H 2944.22 0.41578 -5.48226 0
M  V30 30225 H 2945.45 0.588016 -6.76549 0
M  V30 30226 H 2943.4 2.69105 -5.98263 0
M  V30 30227 H 2943.31 1.66233 -7.37498 0
M  V30 30228 H 2944.58 2.84563 -7.25702 0
M  V30 30229 N 2948.81 1.56303 -0.201741 0
M  V30 30230 C 2950.06 1.97767 0.435272 0
M  V30 30231 C 2950.38 1.08883 1.61167 0
M  V30 30232 O 2949.64 0.129374 1.95272 0
M  V30 30233 C 2949.94 3.45051 0.931371 0
M  V30 30234 C 2949.6 4.50706 -0.132366 0
M  V30 30235 C 2948.27 4.79323 -0.424636 0
M  V30 30236 C 2950.62 5.14176 -0.852794 0
M  V30 30237 C 2947.95 5.68698 -1.4422 0
M  V30 30238 C 2950.3 6.04652 -1.85955 0
M  V30 30239 C 2948.96 6.31622 -2.15895 0
M  V30 30240 H 2948.23 0.723679 0.159277 0
M  V30 30241 H 2950.88 1.89134 -0.300103 0
M  V30 30242 H 2949.18 3.50788 1.74514 0
M  V30 30243 H 2950.88 3.74492 1.43376 0
M  V30 30244 H 2947.47 4.2847 0.105596 0
M  V30 30245 H 2951.66 4.92153 -0.640225 0
M  V30 30246 H 2946.91 5.87866 -1.68 0
M  V30 30247 H 2951.09 6.5289 -2.42297 0
M  V30 30248 H 2948.71 7.00675 -2.94887 0
M  V30 30249 N 2950.29 -0.0718147 1.57436 0
M  V30 30250 C 2951.53 -0.772116 1.87527 0
M  V30 30251 C 2951.87 -1.77226 0.794021 0
M  V30 30252 O 2951.14 -1.93513 -0.195699 0
M  V30 30253 C 2951.42 -1.48012 3.28275 0
M  V30 30254 C 2951.28 -0.496391 4.47053 0
M  V30 30255 C 2952.6 -2.42503 3.67261 0
M  V30 30256 H 2949.72 -0.279233 0.682054 0
M  V30 30257 H 2952.36 -0.0353066 1.89967 0
M  V30 30258 H 2950.51 -2.10818 3.26325 0
M  V30 30259 H 2952.18 0.126456 4.61127 0
M  V30 30260 H 2950.42 0.188282 4.33391 0
M  V30 30261 H 2951.09 -1.0294 5.42317 0
M  V30 30262 H 2953.57 -1.89774 3.70304 0
M  V30 30263 H 2952.45 -2.89045 4.66631 0
M  V30 30264 H 2952.71 -3.27307 2.97192 0
M  V30 30265 N 2951.77 -1.53818 -0.343203 0
M  V30 30266 C 2952.7 -1.78144 -1.44213 0
M  V30 30267 C 2953.71 -0.662747 -1.48699 0
M  V30 30268 O 2954.9 -0.939485 -1.51776 0
M  V30 30269 C 2952 -1.86651 -2.82869 0
M  V30 30270 C 2951.17 -3.16583 -3.01818 0
M  V30 30271 C 2950.23 -3.16043 -4.20717 0
M  V30 30272 O 2949.26 -3.89763 -4.14817 0
M  V30 30273 N 2950.46 -2.38436 -5.29271 0
M  V30 30274 H 2953.22 -2.72973 -1.23716 0
M  V30 30275 H 2950.79 -1.52872 -0.533083 0
M  V30 30276 H 2952.78 -1.83741 -3.60585 0
M  V30 30277 H 2951.35 -0.990066 -2.96507 0
M  V30 30278 H 2950.57 -3.32614 -2.11569 0
M  V30 30279 H 2951.86 -4.02407 -3.11362 0
M  V30 30280 H 2951.25 -1.78095 -5.36935 0
M  V30 30281 H 2949.81 -2.41324 -6.0548 0
M  V30 30282 N 2953.24 0.604233 -1.45557 0
M  V30 30283 C 2954.19 1.71473 -1.54485 0
M  V30 30284 C 2955.16 1.61444 -0.390508 0
M  V30 30285 O 2956.35 1.80974 -0.604403 0
M  V30 30286 C 2953.49 3.09789 -1.52069 0
M  V30 30287 C 2952.6 3.30599 -2.78079 0
M  V30 30288 C 2951.73 4.5904 -2.67313 0
M  V30 30289 C 2950.77 4.7312 -3.8836 0
M  V30 30290 N 2949.91 5.92863 -3.76108 0
M  V30 30291 H 2954.75 1.63179 -2.49352 0
M  V30 30292 H 2952.29 0.795619 -1.23727 0
M  V30 30293 H 2954.24 3.89817 -1.48656 0
M  V30 30294 H 2952.87 3.17032 -0.607498 0
M  V30 30295 H 2951.93 2.44324 -2.91565 0
M  V30 30296 H 2953.24 3.36876 -3.67853 0
M  V30 30297 H 2952.39 5.47267 -2.61884 0
M  V30 30298 H 2951.13 4.55166 -1.75143 0
M  V30 30299 H 2950.14 3.83315 -3.94144 0
M  V30 30300 H 2951.36 4.78788 -4.816 0
M  V30 30301 H 2949.31 5.90028 -2.8671 0
M  V30 30302 H 2949.22 6.00315 -4.5952 0
M  V30 30303 H 2950.49 6.8358 -3.74619 0
M  V30 30304 N 2954.72 1.32903 0.847027 0
M  V30 30305 C 2955.67 1.19053 1.94449 0
M  V30 30306 C 2956.66 0.0954892 1.60616 0
M  V30 30307 O 2957.85 0.32277 1.74032 0
M  V30 30308 C 2954.98 0.923567 3.30644 0
M  V30 30309 C 2954.06 2.06066 3.70672 0
M  V30 30310 N 2954.45 3.30993 3.82462 0
M  V30 30311 C 2952.75 1.96554 4.00353 0
M  V30 30312 C 2953.45 4.05519 4.17049 0
M  V30 30313 N 2952.43 3.33883 4.28979 0
M  V30 30314 H 2956.23 2.13754 2.01709 0
M  V30 30315 H 2953.74 1.24793 1.03926 0
M  V30 30316 H 2955.74 0.805284 4.09049 0
M  V30 30317 H 2954.4 -0.0149952 3.24697 0
M  V30 30318 H 2955.41 3.65838 3.66583 0
M  V30 30319 H 2952.09 1.10307 4.02665 0
M  V30 30320 H 2953.48 5.13285 4.33576 0
M  V30 30321 N 2956.2 -1.06426 1.16238 0
M  V30 30322 C 2957.15 -2.13867 0.867728 0
M  V30 30323 C 2958.12 -1.65086 -0.183269 0
M  V30 30324 O 2959.3 -1.90738 -0.0487667 0
M  V30 30325 C 2956.44 -3.43073 0.373487 0
M  V30 30326 C 2955.55 -4.05596 1.48715 0
M  V30 30327 C 2954.69 -5.22671 0.948069 0
M  V30 30328 C 2953.73 -5.77175 2.03803 0
M  V30 30329 N 2952.87 -6.85568 1.51463 0
M  V30 30330 H 2957.71 -2.38411 1.78785 0
M  V30 30331 H 2955.24 -1.16976 0.891912 0
M  V30 30332 H 2957.2 -4.17144 0.0685768 0
M  V30 30333 H 2955.83 -3.18751 -0.509696 0
M  V30 30334 H 2954.88 -3.29086 1.90806 0
M  V30 30335 H 2956.19 -4.42101 2.30971 0
M  V30 30336 H 2955.35 -6.03763 0.59626 0
M  V30 30337 H 2954.09 -4.87608 0.0947938 0
M  V30 30338 H 2953.09 -4.94721 2.39856 0
M  V30 30339 H 2954.32 -6.1429 2.89525 0
M  V30 30340 H 2952.26 -6.52426 0.683869 0
M  V30 30341 H 2952.18 -7.21009 2.27338 0
M  V30 30342 H 2953.45 -7.70342 1.19136 0
M  V30 30343 N 2957.68 -0.960653 -1.24937 0
M  V30 30344 C 2958.91 -0.636079 -1.9688 0
M  V30 30345 C 2959.32 0.793063 -1.71336 0
M  V30 30346 O 2958.68 1.53124 -0.992944 0
M  V30 30347 C 2958.73 -0.892595 -3.50307 0
M  V30 30348 O 2958.45 -2.26555 -3.74973 0
M  V30 30349 C 2959.95 -0.581237 -4.39473 0
M  V30 30350 H 2957.17 -0.237942 -0.627395 0
M  V30 30351 H 2959.72 -1.28667 -1.5895 0
M  V30 30352 H 2957.87 -0.288325 -3.86326 0
M  V30 30353 H 2958.28 -2.34022 -4.69397 0
M  V30 30354 H 2959.76 -0.811221 -5.46007 0
M  V30 30355 H 2960.24 0.484353 -4.36521 0
M  V30 30356 H 2960.84 -1.1651 -4.0903 0
M  V30 30357 N 2959.16 1.39677 -0.729931 0
M  V30 30358 C 2960.39 2.0462 -0.285331 0
M  V30 30359 C 2960.79 1.55137 1.08301 0
M  V30 30360 O 2960.14 0.709176 1.69459 0
M  V30 30361 C 2960.2 3.58925 -0.203192 0
M  V30 30362 C 2959.86 4.31362 -1.50917 0
M  V30 30363 C 2960.86 4.58345 -2.45389 0
M  V30 30364 C 2958.55 4.70003 -1.77206 0
M  V30 30365 C 2960.54 5.22972 -3.64388 0
M  V30 30366 C 2958.23 5.3436 -2.96484 0
M  V30 30367 C 2959.22 5.60776 -3.89896 0
M  V30 30368 O 2958.91 6.23799 -5.0708 0
M  V30 30369 H 2958.64 0.664644 -0.123385 0
M  V30 30370 H 2961.2 1.79805 -0.992933 0
M  V30 30371 H 2959.43 3.82617 0.560471 0
M  V30 30372 H 2961.12 4.05363 0.20874 0
M  V30 30373 H 2961.88 4.28943 -2.26347 0
M  V30 30374 H 2957.76 4.48802 -1.05345 0
M  V30 30375 H 2961.31 5.43507 -4.37316 0
M  V30 30376 H 2957.2 5.63183 -3.15429 0
M  V30 30377 H 2957.97 6.42294 -5.07347 0
M  V30 30378 N 2960.63 0.47718 1.50202 0
M  V30 30379 C 2961.91 -0.137575 1.95116 0
M  V30 30380 C 2962.29 -1.56402 1.41781 0
M  V30 30381 O 2961.64 -2.19889 0.621372 0
M  V30 30382 C 2961.85 -0.0746555 3.4892 0
M  V30 30383 C 2963.2 -0.26051 4.238 0
M  V30 30384 O 2964.22 -0.150958 3.5588 0
M  V30 30385 O 2963.08 -0.482438 5.44366 0
M  V30 30386 H 2960.17 -0.10835 0.819872 0
M  V30 30387 H 2962.72 0.538017 1.60946 0
M  V30 30388 H 2961.49 0.921033 3.80306 0
M  V30 30389 H 2961.12 -0.79144 3.89643 0
M  V30 30390 N 2962.11 -1.56194 0.210027 0
M  V30 30391 C 2963.04 -2.2277 -0.699707 0
M  V30 30392 C 2964.02 -1.19562 -1.20991 0
M  V30 30393 O 2965.21 -1.48114 -1.25602 0
M  V30 30394 C 2962.34 -2.89867 -1.91297 0
M  V30 30395 C 2961.29 -3.99447 -1.53708 0
M  V30 30396 C 2960.62 -4.53782 -2.82818 0
M  V30 30397 C 2961.92 -5.17092 -0.735746 0
M  V30 30398 H 2963.61 -2.9905 -0.144663 0
M  V30 30399 H 2961.16 -1.43839 -0.0681392 0
M  V30 30400 H 2963.11 -3.35129 -2.55474 0
M  V30 30401 H 2961.84 -2.11015 -2.49279 0
M  V30 30402 H 2960.49 -3.54899 -0.918829 0
M  V30 30403 H 2960.14 -3.71675 -3.3892 0
M  V30 30404 H 2959.84 -5.27731 -2.58406 0
M  V30 30405 H 2961.37 -5.01755 -3.47957 0
M  V30 30406 H 2962.78 -5.58806 -1.28095 0
M  V30 30407 H 2961.18 -5.97201 -0.589167 0
M  V30 30408 H 2962.25 -4.84202 0.260089 0
M  V30 30409 N 2963.59 0.0634645 -1.57472 0
M  V30 30410 C 2965.01 0.418439 -1.54017 0
M  V30 30411 C 2965.21 1.78681 -0.931407 0
M  V30 30412 O 2964.26 2.46713 -0.537508 0
M  V30 30413 C 2965.58 0.351854 -2.98634 0
M  V30 30414 C 2967.12 0.431439 -3.10012 0
M  V30 30415 C 2967.6 0.394673 -4.56296 0
M  V30 30416 N 2969.09 0.454502 -4.60965 0
M  V30 30417 C 2969.82 0.448401 -5.71644 0
M  V30 30418 N 2969.32 0.39662 -6.91664 0
M  V30 30419 N 2971.11 0.495579 -5.59911 0
M  V30 30420 H 2963.26 -0.832442 -1.95408 0
M  V30 30421 H 2965.53 -0.313212 -0.894764 0
M  V30 30422 H 2965.23 -0.587109 -3.46765 0
M  V30 30423 H 2965.11 1.15887 -3.58957 0
M  V30 30424 H 2967.49 1.36083 -2.6185 0
M  V30 30425 H 2967.58 -0.404303 -2.52585 0
M  V30 30426 H 2967.22 -0.5309 -5.05118 0
M  V30 30427 H 2967.15 1.24806 -5.11597 0
M  V30 30428 H 2969.64 0.49843 -3.74599 0
M  V30 30429 H 2969.95 0.39612 -7.71784 0
M  V30 30430 H 2968.3 0.363182 -6.9405 0
M  V30 30431 H 2971.49 0.533782 -4.65047 0
M  V30 30432 H 2971.66 0.487355 -6.46165 0
M  V30 30433 N 2965.07 1.53998 0.33504 0
M  V30 30434 C 2966 1.85571 1.41724 0
M  V30 30435 C 2966.98 0.711528 1.54503 0
M  V30 30436 O 2968.16 0.964221 1.68572 0
M  V30 30437 C 2965.29 2.07287 2.78657 0
M  V30 30438 C 2964.25 3.23117 2.80677 0
M  V30 30439 C 2963.57 3.30182 4.20575 0
M  V30 30440 C 2964.87 4.61033 2.4545 0
M  V30 30441 H 2966.57 2.76204 1.1555 0
M  V30 30442 H 2964.11 1.32899 0.554421 0
M  V30 30443 H 2966.07 2.27959 3.54419 0
M  V30 30444 H 2964.79 1.13392 3.06284 0
M  V30 30445 H 2963.45 3.02314 2.07368 0
M  V30 30446 H 2963.1 2.33867 4.45326 0
M  V30 30447 H 2962.8 4.08024 4.22836 0
M  V30 30448 H 2964.32 3.53075 4.98167 0
M  V30 30449 H 2965.74 4.81662 3.10925 0
M  V30 30450 H 2964.13 5.4134 2.58981 0
M  V30 30451 H 2965.2 4.64063 1.4062 0
M  V30 30452 N 2966.55 -0.596505 1.45875 0
M  V30 30453 C 2967.48 -1.71702 1.58243 0
M  V30 30454 C 2968.46 -1.64486 0.433395 0
M  V30 30455 O 2969.64 -1.82716 0.657927 0
M  V30 30456 C 2966.77 -3.10326 1.55932 0
M  V30 30457 C 2965.73 -3.32362 2.69665 0
M  V30 30458 C 2965.05 -4.71373 2.52412 0
M  V30 30459 C 2966.35 -3.21536 4.11597 0
M  V30 30460 H 2968.05 -1.61608 2.52038 0
M  V30 30461 H 2965.59 -0.776061 1.21298 0
M  V30 30462 H 2967.55 -3.88523 1.6318 0
M  V30 30463 H 2966.27 -3.21287 0.586731 0
M  V30 30464 H 2964.93 -2.5656 2.61864 0
M  V30 30465 H 2964.58 -4.79081 1.53267 0
M  V30 30466 H 2964.28 -4.87071 3.28687 0
M  V30 30467 H 2965.8 -5.51756 2.6153 0
M  V30 30468 H 2967.21 -3.89594 4.20582 0
M  V30 30469 H 2965.61 -3.48761 4.8835 0
M  V30 30470 H 2966.68 -2.18812 4.32723 0
M  V30 30471 N 2968.02 -1.3335 -0.839967 0
M  V30 30472 C 2969.25 -1.27927 -1.63247 0
M  V30 30473 C 2969.67 0.14716 -1.87523 0
M  V30 30474 O 2969.03 1.10342 -1.43855 0
M  V30 30475 C 2969.08 -2.05891 -2.96042 0
M  V30 30476 O 2968.18 -1.41676 -3.873 0
M  V30 30477 H 2967.53 -0.440165 -0.497142 0
M  V30 30478 H 2970.06 -1.75895 -1.04509 0
M  V30 30479 H 2970.07 -2.16615 -3.45748 0
M  V30 30480 H 2968.74 -3.0961 -2.77695 0
M  V30 30481 H 2967.32 -1.39591 -3.45787 0
M  V30 30482 N 2969.5 1.05808 -1.16801 0
M  V30 30483 C 2970.73 1.82923 -0.977435 0
M  V30 30484 C 2971.15 1.82147 0.469482 0
M  V30 30485 O 2970.51 1.22588 1.33574 0
M  V30 30486 C 2970.56 3.27208 -1.51549 0
M  V30 30487 O 2969.66 4.05976 -0.725093 0
M  V30 30488 H 2969 0.565819 -0.347484 0
M  V30 30489 H 2971.53 1.33374 -1.55154 0
M  V30 30490 H 2971.54 3.7802 -1.53508 0
M  V30 30491 H 2970.22 3.27088 -2.56877 0
M  V30 30492 H 2968.8 3.64728 -0.776404 0
M  V30 30493 N 2970.98 0.967265 1.24426 0
M  V30 30494 C 2971.91 0.515939 2.27729 0
M  V30 30495 C 2972.89 -0.444198 1.64198 0
M  V30 30496 O 2974.08 -0.340417 1.91193 0
M  V30 30497 C 2971.21 -0.195088 3.46752 0
M  V30 30498 C 2970.16 0.681027 4.22547 0
M  V30 30499 C 2969.49 -0.161467 5.34456 0
M  V30 30500 C 2970.79 1.96541 4.8391 0
M  V30 30501 H 2972.48 1.37937 2.65732 0
M  V30 30502 H 2970.03 0.664704 1.27741 0
M  V30 30503 H 2971.98 -0.522044 4.18154 0
M  V30 30504 H 2970.7 -1.09287 3.07773 0
M  V30 30505 H 2969.36 0.991248 3.52945 0
M  V30 30506 H 2969.01 -1.05938 4.91717 0
M  V30 30507 H 2968.71 0.421521 5.86086 0
M  V30 30508 H 2970.23 -0.483104 6.08686 0
M  V30 30509 H 2971.65 1.70406 5.47389 0
M  V30 30510 H 2970.05 2.49508 5.45771 0
M  V30 30511 H 2971.12 2.6606 4.05389 0
M  V30 30512 N 2972.46 -1.39288 0.737328 0
M  V30 30513 C 2973.69 -2.04763 0.296609 0
M  V30 30514 C 2974.1 -1.55594 -1.06939 0
M  V30 30515 O 2973.46 -0.721852 -1.67617 0
M  V30 30516 C 2973.51 -3.60319 0.291969 0
M  V30 30517 O 2973.23 -4.07679 1.60404 0
M  V30 30518 C 2974.73 -4.42994 -0.16463 0
M  V30 30519 H 2971.95 -0.658432 0.129263 0
M  V30 30520 H 2974.5 -1.78291 1.00163 0
M  V30 30521 H 2972.65 -3.85684 -0.364183 0
M  V30 30522 H 2973.07 -5.02017 1.51918 0
M  V30 30523 H 2974.54 -5.51877 -0.116717 0
M  V30 30524 H 2975.02 -4.22199 -1.21015 0
M  V30 30525 H 2975.62 -4.22783 0.462043 0
M  V30 30526 N 2973.94 -0.485139 -1.49947 0
M  V30 30527 C 2975.19 0.064842 -2.01996 0
M  V30 30528 C 2975.51 1.38942 -1.36821 0
M  V30 30529 O 2974.78 1.88922 -0.518196 0
M  V30 30530 H 2973.36 0.0269531 -0.746514 0
M  V30 30531 H 2976.02 -0.638765 -1.84135 0
M  V30 30532 H 2975.11 0.206116 -3.11419 0
M  V30 30533 N 2975.42 1.56081 -0.218307 0
M  V30 30534 C 2976.64 2.03056 0.422266 0
M  V30 30535 C 2977.07 1.09715 1.52788 0
M  V30 30536 O 2976.42 0.0847505 1.81102 0
M  V30 30537 C 2976.47 3.48291 0.934116 0
M  V30 30538 O 2975.58 3.58087 2.04567 0
M  V30 30539 H 2974.92 0.657029 0.0959648 0
M  V30 30540 H 2977.45 2.01822 -0.335993 0
M  V30 30541 H 2977.46 3.88548 1.24477 0
M  V30 30542 H 2976.13 4.15712 0.12489 0
M  V30 30543 H 2974.71 3.29715 1.7419 0
M  V30 30544 N 2976.89 -0.0551124 1.57504 0
M  V30 30545 C 2978.14 -0.746847 1.89192 0
M  V30 30546 C 2978.49 -1.74334 0.813967 0
M  V30 30547 O 2977.79 -1.90751 -0.180183 0
M  V30 30548 C 2977.98 -1.48007 3.25313 0
M  V30 30549 C 2977.81 -0.556097 4.46248 0
M  V30 30550 C 2976.58 -0.186802 5.04955 0
M  V30 30551 C 2978.78 0.154385 5.14068 0
M  V30 30552 N 2976.76 0.741148 6.0941 0
M  V30 30553 C 2978.13 0.938917 6.12849 0
M  V30 30554 C 2980.19 0.224094 4.97395 0
M  V30 30555 C 2978.89 1.78671 6.96756 0
M  V30 30556 C 2980.92 1.05891 5.81843 0
M  V30 30557 C 2980.28 1.83145 6.80175 0
M  V30 30558 H 2976.38 -0.2482 0.741567 0
M  V30 30559 H 2978.96 -0.00774312 1.94698 0
M  V30 30560 H 2977.13 -2.18979 3.20785 0
M  V30 30561 H 2978.86 -2.12213 3.44598 0
M  V30 30562 H 2975.62 -0.543332 4.70473 0
M  V30 30563 H 2976.04 1.19886 6.663 0
M  V30 30564 H 2980.68 -0.35885 4.21274 0
M  V30 30565 H 2978.4 2.38056 7.7224 0
M  V30 30566 H 2981.99 1.11605 5.70995 0
M  V30 30567 H 2980.87 2.467 7.44385 0
M  V30 30568 N 2978.37 -1.54173 -0.326869 0
M  V30 30569 C 2979.6 -1.76496 -1.08921 0
M  V30 30570 C 2980.02 -0.510555 -1.81039 0
M  V30 30571 O 2979.38 0.537725 -1.73142 0
M  V30 30572 C 2979.43 -2.95581 -2.06553 0
M  V30 30573 O 2978.53 -2.66896 -3.14389 0
M  V30 30574 H 2977.87 -0.584954 -0.314205 0
M  V30 30575 H 2980.4 -2.01187 -0.372172 0
M  V30 30576 H 2980.41 -3.22836 -2.49481 0
M  V30 30577 H 2979.09 -3.86552 -1.53462 0
M  V30 30578 H 2977.66 -2.5058 -2.76159 0
M  V30 30579 N 2979.85 0.58876 -1.4619 0
M  V30 30580 C 2980.78 1.7086 -1.59151 0
M  V30 30581 C 2981.76 1.64254 -0.442112 0
M  V30 30582 O 2982.95 1.82364 -0.667608 0
M  V30 30583 C 2980.08 3.09495 -1.57576 0
M  V30 30584 C 2979.03 3.30928 -2.71424 0
M  V30 30585 C 2978.36 4.70028 -2.54908 0
M  V30 30586 C 2979.66 3.19349 -4.13296 0
M  V30 30587 H 2981.35 1.60269 -2.52892 0
M  V30 30588 H 2978.9 0.769617 -1.21708 0
M  V30 30589 H 2980.85 3.87652 -1.65238 0
M  V30 30590 H 2979.57 3.20971 -0.603761 0
M  V30 30591 H 2978.23 2.55167 -2.63221 0
M  V30 30592 H 2977.88 4.78261 -1.55805 0
M  V30 30593 H 2977.58 4.85321 -3.31266 0
M  V30 30594 H 2979.1 5.50361 -2.64452 0
M  V30 30595 H 2980.52 3.87358 -4.22643 0
M  V30 30596 H 2978.91 3.46166 -4.90193 0
M  V30 30597 H 2979.98 2.16514 -4.33877 0
M  V30 30598 N 2981.33 1.33794 0.832883 0
M  V30 30599 C 2982.57 1.25775 1.59086 0
M  V30 30600 C 2982.91 -0.174567 1.93414 0
M  V30 30601 O 2982.18 -1.11743 1.59197 0
M  V30 30602 C 2982.46 2.1389 2.89695 0
M  V30 30603 C 2982.32 3.65609 2.62011 0
M  V30 30604 C 2983.64 2.01661 3.91179 0
M  V30 30605 H 2980.76 0.458237 0.577224 0
M  V30 30606 H 2983.4 1.63952 0.960199 0
M  V30 30607 H 2981.55 1.81462 3.43517 0
M  V30 30608 H 2983.22 4.08357 2.14575 0
M  V30 30609 H 2981.46 3.87192 1.95614 0
M  V30 30610 H 2982.13 4.22616 3.55105 0
M  V30 30611 H 2984.61 2.30113 3.4668 0
M  V30 30612 H 2983.49 2.65556 4.80386 0
M  V30 30613 H 2983.75 0.990612 4.30859 0
M  V30 30614 N 2982.81 -1.05187 1.1736 0
M  V30 30615 C 2983.76 -2.1122 0.858482 0
M  V30 30616 C 2984.74 -1.60031 -0.166963 0
M  V30 30617 O 2985.93 -1.76964 0.0354767 0
M  V30 30618 C 2983.06 -3.41261 0.373609 0
M  V30 30619 C 2982.15 -3.99247 1.43048 0
M  V30 30620 N 2982.54 -4.31195 2.64394 0
M  V30 30621 C 2980.84 -4.26986 1.28835 0
M  V30 30622 C 2981.54 -4.7744 3.32304 0
M  V30 30623 N 2980.51 -4.77563 2.59682 0
M  V30 30624 H 2984.31 -2.33783 1.78109 0
M  V30 30625 H 2981.83 -1.22835 1.06232 0
M  V30 30626 H 2983.83 -4.16699 0.129404 0
M  V30 30627 H 2982.49 -3.20131 -0.542791 0
M  V30 30628 H 2983.5 -4.21193 3.01358 0
M  V30 30629 H 2980.17 -4.15242 0.433603 0
M  V30 30630 H 2981.56 -5.11272 4.35948 0
M  V30 30631 N 2984.28 -0.97385 -1.23911 0
M  V30 30632 C 2985.23 -0.501019 -2.2714 0
M  V30 30633 C 2986.23 0.438602 -1.63623 0
M  V30 30634 O 2987.43 0.313216 -1.77254 0
M  V30 30635 H 2983.81 -0.143573 -0.738167 0
M  V30 30636 H 2985.78 -1.38351 -2.64389 0
M  V30 30637 C 2984.53 0.187316 -3.47195 0
M  V30 30638 H 2983.85 -0.526605 -3.96317 0
M  V30 30639 H 2985.29 0.481888 -4.21253 0
M  V30 30640 C 2983.75 1.41637 -3.05681 0
M  V30 30641 O 2984.28 2.51303 -3.13384 0
M  V30 30642 N 2982.48 1.28464 -2.60663 0
M  V30 30643 H 2982.03 0.392335 -2.54595 0
M  V30 30644 H 2981.99 2.10809 -2.33253 0
M  V30 30645 N 2985.76 1.38895 -0.744705 0
M  V30 30646 C 2987.01 1.99916 -0.296333 0
M  V30 30647 C 2987.33 1.59401 1.12323 0
M  V30 30648 O 2986.6 0.84672 1.76656 0
M  V30 30649 H 2985.18 0.739359 -0.106574 0
M  V30 30650 H 2987.84 1.69797 -0.956823 0
M  V30 30651 H 2986.94 3.10104 -0.352411 0
M  V30 30652 N 2987.24 0.493084 1.49688 0
M  V30 30653 C 2988.49 -0.0543162 2.02727 0
M  V30 30654 C 2988.82 -1.37373 1.37267 0
M  V30 30655 O 2988.09 -1.87811 0.505677 0
M  V30 30656 C 2988.38 -0.215162 3.59457 0
M  V30 30657 C 2988.23 1.12682 4.35457 0
M  V30 30658 C 2989.55 -0.959511 4.29513 0
M  V30 30659 H 2986.67 -0.0182657 0.736774 0
M  V30 30660 H 2989.31 0.642956 1.78791 0
M  V30 30661 H 2987.46 -0.809055 3.79982 0
M  V30 30662 H 2989.13 1.75899 4.26447 0
M  V30 30663 H 2987.38 1.71808 3.98327 0
M  V30 30664 H 2988.05 0.967673 5.43452 0
M  V30 30665 H 2990.52 -0.455904 4.13595 0
M  V30 30666 H 2989.4 -1.04088 5.3894 0
M  V30 30667 H 2989.66 -2.00137 3.94205 0
M  V30 30668 N 2988.72 -1.55963 0.226582 0
M  V30 30669 C 2989.94 -2.03277 -0.411491 0
M  V30 30670 C 2990.37 -1.10524 -1.52204 0
M  V30 30671 O 2989.73 -0.0943536 -1.81054 0
M  V30 30672 C 2989.77 -3.48782 -0.915632 0
M  V30 30673 O 2988.88 -3.59166 -2.02665 0
M  V30 30674 H 2988.22 -0.657528 -0.0924791 0
M  V30 30675 H 2990.75 -2.01641 0.346691 0
M  V30 30676 H 2990.76 -3.89203 -1.22415 0
M  V30 30677 H 2989.43 -4.15773 -0.102842 0
M  V30 30678 H 2988.01 -3.30635 -1.72439 0
M  V30 30679 N 2990.2 0.0467589 -1.57531 0
M  V30 30680 C 2991.43 0.752245 -1.92418 0
M  V30 30681 C 2991.83 1.70354 -0.823164 0
M  V30 30682 O 2991.18 1.82489 0.210566 0
M  V30 30683 C 2991.24 1.57881 -3.22976 0
M  V30 30684 C 2990.9 0.794206 -4.50046 0
M  V30 30685 C 2991.9 0.102277 -5.19799 0
M  V30 30686 C 2989.59 0.753974 -4.96609 0
M  V30 30687 C 2991.58 -0.619379 -6.34384 0
M  V30 30688 C 2989.27 0.0285608 -6.11093 0
M  V30 30689 C 2990.26 -0.656892 -6.79834 0
M  V30 30690 O 2989.95 -1.37056 -7.92131 0
M  V30 30691 H 2989.68 0.217565 -0.640032 0
M  V30 30692 H 2992.24 0.0137077 -2.05395 0
M  V30 30693 H 2990.47 2.36075 -3.06277 0
M  V30 30694 H 2992.16 2.16527 -3.43323 0
M  V30 30695 H 2992.92 0.124504 -4.8484 0
M  V30 30696 H 2988.8 1.27698 -4.42961 0
M  V30 30697 H 2992.35 -1.15495 -6.87973 0
M  V30 30698 H 2988.24 0.00434868 -6.455 0
M  V30 30699 H 2989.01 -1.28241 -8.08391 0
M  V30 30700 N 2991.67 1.54344 0.318688 0
M  V30 30701 C 2992.9 1.76496 1.07391 0
M  V30 30702 C 2993.31 0.515913 1.8203 0
M  V30 30703 O 2992.66 -0.523219 1.76091 0
M  V30 30704 C 2992.72 2.90778 2.11396 0
M  V30 30705 C 2992.38 4.2951 1.56111 0
M  V30 30706 C 2993.38 5.10185 1.00034 0
M  V30 30707 C 2991.06 4.76066 1.60207 0
M  V30 30708 C 2993.06 6.3553 0.487881 0
M  V30 30709 C 2990.74 6.01378 1.08574 0
M  V30 30710 C 2991.74 6.80944 0.529594 0
M  V30 30711 O 2991.43 8.03897 0.021041 0
M  V30 30712 H 2991.16 0.592721 0.325051 0
M  V30 30713 H 2993.72 2.02059 0.368974 0
M  V30 30714 H 2991.95 2.60798 2.85519 0
M  V30 30715 H 2993.64 3.00668 2.72678 0
M  V30 30716 H 2994.4 4.75369 0.961727 0
M  V30 30717 H 2990.28 4.14176 2.02434 0
M  V30 30718 H 2993.82 6.9758 0.0531382 0
M  V30 30719 H 2989.72 6.35684 1.12144 0
M  V30 30720 H 2990.49 8.18387 0.136007 0
M  V30 30721 N 2993.15 -0.580999 1.465 0
M  V30 30722 C 2994.4 -1.33537 1.51165 0
M  V30 30723 C 2994.71 -1.94873 0.168467 0
M  V30 30724 O 2995.92 -2.71341 0.0929307 0
M  V30 30725 C 2994.38 -2.42027 2.66366 0
M  V30 30726 C 2993.98 -1.86987 4.07112 0
M  V30 30727 C 2995.73 -3.18796 2.80303 0
M  V30 30728 C 2993.64 -2.93116 5.13651 0
M  V30 30729 H 2992.57 -0.502011 0.562584 0
M  V30 30730 H 2995.22 -0.619833 1.72715 0
M  V30 30731 H 2993.6 -3.16387 2.38149 0
M  V30 30732 H 2994.77 -1.19158 4.45127 0
M  V30 30733 H 2993.09 -1.2288 3.97856 0
M  V30 30734 H 2995.68 -3.98004 3.57067 0
M  V30 30735 H 2996.03 -3.71492 1.87881 0
M  V30 30736 H 2996.56 -2.51542 3.08174 0
M  V30 30737 H 2993.3 -2.45305 6.0787 0
M  V30 30738 H 2992.82 -3.59429 4.80178 0
M  V30 30739 H 2994.5 -3.57036 5.39568 0
M  V30 30740 N 2994.63 -1.34234 -0.825776 0
M  V30 30741 C 2995.58 -1.25576 -1.9579 0
M  V30 30742 C 2996.57 -0.154433 -1.68695 0
M  V30 30743 O 2997.78 -0.319227 -1.77147 0
M  V30 30744 H 2994.15 -0.390038 -0.642942 0
M  V30 30745 H 2996.12 -2.21261 -2.00215 0
M  V30 30746 C 2994.87 -1.02517 -3.32243 0
M  V30 30747 H 2994.2 -1.86493 -3.53639 0
M  V30 30748 H 2995.64 -1.00494 -4.11919 0
M  V30 30749 C 2994.1 0.271611 -3.35803 0
M  V30 30750 O 2994.63 1.27394 -3.80964 0
M  V30 30751 N 2992.83 0.303727 -2.89008 0
M  V30 30752 H 2992.38 -0.512508 -2.5245 0
M  V30 30753 H 2992.34 1.17116 -2.91773 0
M  V30 30754 N 2996.11 1.04563 -1.17917 0
M  V30 30755 C 2997.04 2.14394 -0.92507 0
M  V30 30756 C 2998.02 1.69561 0.135345 0
M  V30 30757 O 2999.2 1.94193 -0.0162115 0
M  V30 30758 C 2996.33 3.44443 -0.44453 0
M  V30 30759 C 2995.29 4.02875 -1.44486 0
M  V30 30760 C 2994.61 5.28343 -0.822025 0
M  V30 30761 C 2995.91 4.39627 -2.82003 0
M  V30 30762 H 2997.61 2.35908 -1.84358 0
M  V30 30763 H 2995.15 1.13374 -0.887826 0
M  V30 30764 H 2997.11 4.20633 -0.254152 0
M  V30 30765 H 2995.83 3.22601 0.509536 0
M  V30 30766 H 2994.49 3.28761 -1.62208 0
M  V30 30767 H 2994.14 5.02808 0.139072 0
M  V30 30768 H 2993.84 5.68399 -1.48986 0
M  V30 30769 H 2995.36 6.07215 -0.642065 0
M  V30 30770 H 2996.78 5.06823 -2.67961 0
M  V30 30771 H 2995.17 4.90717 -3.45423 0
M  V30 30772 H 2996.24 3.49681 -3.35933 0
M  V30 30773 N 2997.59 0.980408 1.23393 0
M  V30 30774 C 2998.83 0.657322 1.93542 0
M  V30 30775 C 2999.19 -0.794446 1.74793 0
M  V30 30776 O 3000.39 -1.22836 2.39092 0
M  V30 30777 C 2998.66 1.03707 3.42023 0
M  V30 30778 S 3000.22 0.830455 4.3087 0
M  V30 30779 H 2997.04 0.240728 0.669007 0
M  V30 30780 H 2999.64 1.26005 1.49476 0
M  V30 30781 H 2998.35 2.09028 3.53179 0
M  V30 30782 H 2997.88 0.425628 3.91091 0
M  V30 30783 H 2999.89 -0.285632 4.95377 0
M  V30 30784 N 2999.06 -1.38498 0.75206 0
M  V30 30785 C 3000 -2.29048 0.0835492 0
M  V30 30786 C 3001.01 -1.4767 -0.685376 0
M  V30 30787 O 3002.2 -1.70552 -0.526718 0
M  V30 30788 C 2999.3 -3.26573 -0.905715 0
M  V30 30789 C 2998.47 -4.36966 -0.194751 0
M  V30 30790 C 2997.53 -5.1469 -1.09455 0
M  V30 30791 O 2996.56 -5.66382 -0.565643 0
M  V30 30792 N 2997.76 -5.27524 -2.42278 0
M  V30 30793 H 3000.52 -2.8706 0.861193 0
M  V30 30794 H 2998.08 -1.50263 0.602716 0
M  V30 30795 H 3000.08 -3.75448 -1.51065 0
M  V30 30796 H 2998.65 -2.6947 -1.58445 0
M  V30 30797 H 2997.87 -3.89746 0.59088 0
M  V30 30798 H 2999.15 -5.07931 0.297278 0
M  V30 30799 H 2998.55 -4.87075 -2.87706 0
M  V30 30800 H 2997.11 -5.79778 -2.97826 0
M  V30 30801 N 3000.54 -0.501015 -1.49424 0
M  V30 30802 C 3001.49 0.277403 -2.29127 0
M  V30 30803 C 3002.46 0.960339 -1.35524 0
M  V30 30804 O 3003.64 0.966998 -1.6448 0
M  V30 30805 C 3000.78 1.33588 -3.18195 0
M  V30 30806 C 2999.9 0.664716 -4.26855 0
M  V30 30807 C 2999.03 1.70363 -5.0314 0
M  V30 30808 C 2998.07 1.01434 -6.03637 0
M  V30 30809 N 2997.21 1.99746 -6.73087 0
M  V30 30810 H 3002.05 -0.40851 -2.95187 0
M  V30 30811 H 2999.59 -0.213301 -1.45545 0
M  V30 30812 H 3001.54 1.96155 -3.68211 0
M  V30 30813 H 3000.17 1.99055 -2.5412 0
M  V30 30814 H 2999.23 -0.0742377 -3.80328 0
M  V30 30815 H 3000.54 0.122109 -4.98651 0
M  V30 30816 H 2999.69 2.40435 -5.57024 0
M  V30 30817 H 2998.43 2.28009 -4.31118 0
M  V30 30818 H 2997.44 0.2994 -5.48984 0
M  V30 30819 H 2998.66 0.444378 -6.77645 0
M  V30 30820 H 2996.61 2.56354 -6.03836 0
M  V30 30821 H 2996.52 1.50552 -7.40858 0
M  V30 30822 H 2997.79 2.69106 -7.31575 0
M  V30 30823 N 3002.02 1.5584 -0.234849 0
M  V30 30824 C 3003.27 1.97821 0.39365 0
M  V30 30825 C 3003.58 1.12592 1.59945 0
M  V30 30826 O 3004.79 1.44532 2.29832 0
M  V30 30827 C 3003.25 3.51961 0.751749 0
M  V30 30828 C 3002.85 4.45913 -0.431976 0
M  V30 30829 C 3004.6 4.02625 1.34511 0
M  V30 30830 C 3002.5 5.91378 -0.0507016 0
M  V30 30831 H 3001.43 0.738756 0.150851 0
M  V30 30832 H 3004.09 1.8045 -0.333164 0
M  V30 30833 H 3002.47 3.64982 1.53636 0
M  V30 30834 H 3003.64 4.44645 -1.20943 0
M  V30 30835 H 3001.96 4.05664 -0.939457 0
M  V30 30836 H 3004.55 5.08815 1.6435 0
M  V30 30837 H 3004.9 3.49259 2.26547 0
M  V30 30838 H 3005.43 3.92881 0.62366 0
M  V30 30839 H 3002.17 6.48756 -0.937893 0
M  V30 30840 H 3001.69 5.95809 0.690793 0
M  V30 30841 H 3003.37 6.45933 0.371347 0
M  V30 30842 N 3003.5 -0.038404 1.57553 0
M  V30 30843 C 3004.73 -0.74203 1.92815 0
M  V30 30844 C 3005.14 -1.69916 0.832186 0
M  V30 30845 O 3004.48 -1.82598 -0.200885 0
M  V30 30846 C 3004.54 -1.56166 3.23809 0
M  V30 30847 C 3004.21 -0.770327 4.50461 0
M  V30 30848 C 3005.2 -0.0747093 5.19846 0
M  V30 30849 C 3002.89 -0.727627 4.97002 0
M  V30 30850 C 3004.88 0.653013 6.34046 0
M  V30 30851 C 3002.57 0.00384734 6.111 0
M  V30 30852 C 3003.57 0.692936 6.79476 0
M  V30 30853 O 3003.26 1.41255 7.91393 0
M  V30 30854 H 3002.99 -0.214167 0.641177 0
M  V30 30855 H 3005.54 -0.00281485 2.054 0
M  V30 30856 H 3003.77 -2.34447 3.07525 0
M  V30 30857 H 3005.46 -2.14703 3.44467 0
M  V30 30858 H 3006.23 -0.0987897 4.84899 0
M  V30 30859 H 3002.11 -1.25347 4.43632 0
M  V30 30860 H 3005.65 1.19142 6.87351 0
M  V30 30861 H 3001.55 0.0298838 6.45493 0
M  V30 30862 H 3002.31 1.32526 8.077 0
M  V30 30863 N 3004.98 -1.54511 -0.310498 0
M  V30 30864 C 3005.92 -1.84804 -1.38261 0
M  V30 30865 C 3006.89 -0.696168 -1.50807 0
M  V30 30866 O 3008.08 -0.943875 -1.65818 0
M  V30 30867 C 3005.22 -2.09257 -2.74419 0
M  V30 30868 C 3004.33 -3.3691 -2.70399 0
M  V30 30869 C 3003.47 -3.51255 -3.98489 0
M  V30 30870 C 3002.51 -4.72736 -3.88828 0
M  V30 30871 N 3001.64 -4.83937 -5.08674 0
M  V30 30872 H 3006.48 -2.76263 -1.11727 0
M  V30 30873 H 3004.02 -1.36807 -0.540585 0
M  V30 30874 H 3005.98 -2.21428 -3.5359 0
M  V30 30875 H 3004.61 -1.21076 -2.99233 0
M  V30 30876 H 3003.66 -3.33409 -1.83146 0
M  V30 30877 H 3004.97 -4.26197 -2.59147 0
M  V30 30878 H 3004.13 -3.63039 -4.86094 0
M  V30 30879 H 3002.87 -2.60084 -4.12562 0
M  V30 30880 H 3001.87 -4.60995 -2.99606 0
M  V30 30881 H 3003.1 -5.65305 -3.76308 0
M  V30 30882 H 3001.04 -3.95686 -5.23229 0
M  V30 30883 H 3000.96 -5.6721 -4.99809 0
M  V30 30884 H 3002.23 -5.00067 -5.97957 0
M  V30 30885 N 3006.46 0.573222 -1.46806 0
M  V30 30886 C 3007.7 1.32844 -1.52305 0
M  V30 30887 C 3008.02 1.94166 -0.180193 0
M  V30 30888 O 3007.29 1.79076 0.794259 0
M  V30 30889 H 3005.87 0.493266 -0.560979 0
M  V30 30890 H 3008.54 0.67061 -1.83 0
M  V30 30891 H 3007.63 2.13027 -2.28092 0
M  V30 30892 N 3007.93 1.3467 0.818645 0
M  V30 30893 C 3009.34 1.24448 1.39174 0
M  V30 30894 C 3009.7 -0.128233 1.9578 0
M  V30 30895 O 3008.82 -1.02874 1.90384 0
M  V30 30896 C 3009.42 2.25328 2.53008 0
M  V30 30897 C 3007.97 2.18884 3.06214 0
M  V30 30898 C 3007.12 2.11697 1.79108 0
M  V30 30899 H 3010.07 1.45974 0.622683 0
M  V30 30900 H 3010.09 1.87275 3.31222 0
M  V30 30901 H 3009.61 3.25225 2.11779 0
M  V30 30902 H 3007.71 1.22357 3.51937 0
M  V30 30903 H 3007.82 3.10325 3.65014 0
M  V30 30904 H 3006.18 1.57484 2.00177 0
M  V30 30905 H 3006.97 3.13435 1.40047 0
M  V30 30906 N 3009.41 -1.03936 1.1847 0
M  V30 30907 C 3010.34 -2.139 0.936427 0
M  V30 30908 C 3011.32 -1.6963 -0.126351 0
M  V30 30909 O 3012.51 -1.94182 0.0265098 0
M  V30 30910 C 3009.64 -3.44203 0.46279 0
M  V30 30911 C 3008.59 -4.02103 1.4662 0
M  V30 30912 C 3007.92 -5.279 0.850033 0
M  V30 30913 C 3009.22 -4.38125 2.8433 0
M  V30 30914 H 3010.91 -2.34927 1.85607 0
M  V30 30915 H 3008.46 -1.12902 0.893826 0
M  V30 30916 H 3010.41 -4.20492 0.276456 0
M  V30 30917 H 3009.13 -3.22867 -0.49242 0
M  V30 30918 H 3007.79 -3.27896 1.6395 0
M  V30 30919 H 3007.44 -5.02874 -0.112405 0
M  V30 30920 H 3007.14 -5.67601 1.51998 0
M  V30 30921 H 3008.67 -6.06866 0.674258 0
M  V30 30922 H 3010.08 -5.05395 2.70645 0
M  V30 30923 H 3008.48 -4.88878 3.4802 0
M  V30 30924 H 3009.55 -3.47895 3.37783 0
M  V30 30925 N 3010.89 -0.986938 -1.22871 0
M  V30 30926 C 3012.14 -0.658155 -1.91083 0
M  V30 30927 C 3012.46 0.811644 -1.77306 0
M  V30 30928 O 3011.73 1.58119 -1.15651 0
M  V30 30929 H 3010.31 -0.240439 -0.707247 0
M  V30 30930 H 3012.97 -1.25216 -1.49355 0
M  V30 30931 H 3012.07 -0.915481 -2.98371 0
M  V30 30932 N 3012.37 1.38098 -0.759394 0
M  V30 30933 C 3013.61 2.01829 -0.323152 0
M  V30 30934 C 3013.97 1.58979 1.07655 0
M  V30 30935 O 3015.17 2.15083 1.61223 0
M  V30 30936 C 3013.44 3.54577 -0.448296 0
M  V30 30937 S 3015 4.38696 -0.0954923 0
M  V30 30938 H 3011.82 0.699921 -0.125026 0
M  V30 30939 H 3014.42 1.68504 -0.991291 0
M  V30 30940 H 3013.13 3.83252 -1.46785 0
M  V30 30941 H 3012.66 3.92687 0.236826 0
M  V30 30942 H 3014.67 4.83556 1.11303 0
M  V30 30943 N 3013.85 0.508932 1.49156 0
M  V30 30944 C 3015.07 -0.0314817 2.07376 0
M  V30 30945 C 3015.5 -1.29338 1.36577 0
M  V30 30946 O 3014.85 -1.76248 0.424994 0
M  V30 30947 C 3014.9 -0.260054 3.59661 0
M  V30 30948 O 3014.01 -1.33315 3.90257 0
M  V30 30949 H 3013.35 0.0297506 0.663333 0
M  V30 30950 H 3015.88 0.710825 1.91855 0
M  V30 30951 H 3015.89 -0.489154 4.05057 0
M  V30 30952 H 3014.56 0.661866 4.106 0
M  V30 30953 H 3013.14 -1.08838 3.56663 0
M  V30 30954 N 3015.32 -1.55714 0.243111 0
M  V30 30955 C 3016.23 -2.24863 -0.668873 0
M  V30 30956 C 3017.25 -1.26346 -1.19635 0
M  V30 30957 O 3018.43 -1.59213 -1.23342 0
M  V30 30958 C 3015.49 -2.93167 -1.85079 0
M  V30 30959 C 3014.55 -4.07083 -1.36316 0
M  V30 30960 C 3013.78 -4.7212 -2.48874 0
M  V30 30961 O 3014.01 -4.36221 -3.67516 0
M  V30 30962 O 3012.94 -5.60704 -2.18847 0
M  V30 30963 H 3016.77 -3.03502 -0.109683 0
M  V30 30964 H 3014.35 -1.49395 0.0117674 0
M  V30 30965 H 3016.23 -3.36202 -2.5406 0
M  V30 30966 H 3014.91 -2.1747 -2.39767 0
M  V30 30967 H 3013.82 -3.68572 -0.640739 0
M  V30 30968 H 3015.15 -4.84586 -0.862405 0
M  V30 30969 N 3016.8 0.030048 -1.57571 0
M  V30 30970 C 3018.22 0.385675 -1.5487 0
M  V30 30971 C 3018.42 1.76666 -0.969099 0
M  V30 30972 O 3017.47 2.45517 -0.589719 0
M  V30 30973 C 3018.79 0.28843 -2.99314 0
M  V30 30974 C 3020.34 0.365584 -3.10858 0
M  V30 30975 C 3020.81 0.297797 -4.57031 0
M  V30 30976 N 3022.3 0.356622 -4.61825 0
M  V30 30977 C 3023.04 0.327045 -5.72467 0
M  V30 30978 N 3022.53 0.249819 -6.92349 0
M  V30 30979 N 3024.33 0.376702 -5.60836 0
M  V30 30980 H 3016.48 -0.873704 -1.93598 0
M  V30 30981 H 3018.74 -0.332121 -0.887919 0
M  V30 30982 H 3018.45 -0.660531 -3.45442 0
M  V30 30983 H 3018.32 1.08247 -3.61334 0
M  V30 30984 H 3020.71 1.30498 -2.64678 0
M  V30 30985 H 3020.79 -0.457789 -2.5167 0
M  V30 30986 H 3020.43 -0.637924 -5.03878 0
M  V30 30987 H 3020.36 1.13926 -5.14129 0
M  V30 30988 H 3022.85 0.41886 -3.75572 0
M  V30 30989 H 3023.17 0.232324 -7.72451 0
M  V30 30990 H 3021.51 0.215882 -6.94665 0
M  V30 30991 H 3024.7 0.435019 -4.66074 0
M  V30 30992 H 3024.87 0.350185 -6.47053 0
M  V30 30993 N 3018.28 1.54674 0.3023 0
M  V30 30994 C 3019.24 1.84793 1.35589 0
M  V30 30995 C 3020.24 0.720756 1.43742 0
M  V30 30996 O 3021.43 0.989043 1.434 0
M  V30 30997 C 3018.57 2.02704 2.74087 0
M  V30 30998 H 3019.76 2.78948 1.10127 0
M  V30 30999 H 3017.31 1.46716 0.538901 0
M  V30 31000 H 3018.05 1.10832 3.04773 0
M  V30 31001 H 3017.83 2.84745 2.6956 0
M  V30 31002 H 3019.32 2.27381 3.50268 0
M  V30 31003 N 3019.76 -0.565428 1.47108 0
M  V30 31004 C 3020.98 -1.3534 1.57155 0
M  V30 31005 C 3021.41 -1.86817 0.21928 0
M  V30 31006 O 3020.77 -1.62522 -0.80351 0
M  V30 31007 C 3020.81 -2.50496 2.59392 0
M  V30 31008 O 3019.92 -3.52474 2.14092 0
M  V30 31009 H 3019.26 -0.402348 0.528216 0
M  V30 31010 H 3021.79 -0.684155 1.92822 0
M  V30 31011 H 3021.8 -2.97179 2.79551 0
M  V30 31012 H 3020.47 -2.12384 3.57583 0
M  V30 31013 H 3019.05 -3.12153 2.03997 0
M  V30 31014 N 3021.24 -1.35102 -0.811492 0
M  V30 31015 C 3022.49 -1.27438 -1.56341 0
M  V30 31016 C 3022.8 0.150662 -1.95019 0
M  V30 31017 O 3024 0.349539 -2.69241 0
M  V30 31018 C 3022.46 -2.23464 -2.8212 0
M  V30 31019 C 3022.07 -3.71287 -2.50699 0
M  V30 31020 C 3023.81 -2.24732 -3.60133 0
M  V30 31021 C 3021.72 -4.5915 -3.7274 0
M  V30 31022 H 3020.65 -0.473464 -0.586812 0
M  V30 31023 H 3023.3 -1.60337 -0.892437 0
M  V30 31024 H 3021.68 -1.83531 -3.50902 0
M  V30 31025 H 3022.86 -4.19826 -1.89955 0
M  V30 31026 H 3021.17 -3.72579 -1.85941 0
M  V30 31027 H 3023.77 -2.87594 -4.5077 0
M  V30 31028 H 3024.11 -1.24972 -3.97099 0
M  V30 31029 H 3024.64 -2.63169 -2.98307 0
M  V30 31030 H 3021.38 -5.5989 -3.40886 0
M  V30 31031 H 3020.9 -4.1534 -4.32727 0
M  V30 31032 H 3022.58 -4.74329 -4.40024 0
M  V30 31033 N 3022.71 1.03306 -1.19019 0
M  V30 31034 C 3023.95 1.78194 -1.00132 0
M  V30 31035 C 3024.32 1.86403 0.460203 0
M  V30 31036 O 3025.52 2.57572 0.768757 0
M  V30 31037 C 3023.79 3.17184 -1.64708 0
M  V30 31038 S 3025.35 4.08314 -1.60702 0
M  V30 31039 H 3022.17 0.613472 -0.359406 0
M  V30 31040 H 3024.77 1.23815 -1.51295 0
M  V30 31041 H 3023.47 3.08824 -2.70289 0
M  V30 31042 H 3023 3.76639 -1.13607 0
M  V30 31043 H 3025.02 4.92207 -0.628257 0
M  V30 31044 N 3024.19 0.99344 1.22346 0
M  V30 31045 C 3025.61 0.704263 1.43221 0
M  V30 31046 C 3025.81 -0.724876 1.8801 0
M  V30 31047 O 3024.86 -1.49572 2.03432 0
M  V30 31048 C 3026.18 1.71029 2.47325 0
M  V30 31049 C 3027.73 1.7258 2.61123 0
M  V30 31050 C 3028.2 2.72048 3.68448 0
M  V30 31051 N 3029.69 2.70645 3.75906 0
M  V30 31052 C 3030.43 3.44274 4.58545 0
M  V30 31053 N 3029.92 4.27504 5.45171 0
M  V30 31054 N 3031.72 3.32977 4.5286 0
M  V30 31055 H 3023.87 1.91643 0.915798 0
M  V30 31056 H 3026.13 0.826534 0.464269 0
M  V30 31057 H 3025.84 2.73299 2.21361 0
M  V30 31058 H 3025.71 1.50359 3.45936 0
M  V30 31059 H 3028.1 0.710087 2.86429 0
M  V30 31060 H 3028.18 1.9732 1.62784 0
M  V30 31061 H 3027.82 3.73769 3.43888 0
M  V30 31062 H 3027.75 2.44578 4.66357 0
M  V30 31063 H 3030.24 2.10252 3.1401 0
M  V30 31064 H 3030.56 4.8051 6.05252 0
M  V30 31065 H 3028.9 4.31591 5.44751 0
M  V30 31066 H 3032.09 2.67396 3.8421 0
M  V30 31067 H 3032.26 3.90617 5.17032 0
M  V30 31068 N 3025.67 -1.37693 0.766707 0
M  V30 31069 C 3027.09 -1.53248 0.445766 0
M  V30 31070 C 3027.29 -1.72628 -1.03932 0
M  V30 31071 O 3026.34 -1.74476 -1.82522 0
M  V30 31072 C 3027.66 -2.73192 1.25645 0
M  V30 31073 C 3029.2 -2.8705 1.24784 0
M  V30 31074 C 3029.68 -4.09971 2.04176 0
M  V30 31075 N 3031.17 -4.17074 2.01504 0
M  V30 31076 C 3031.9 -5.11208 2.59719 0
M  V30 31077 N 3031.4 -6.10932 3.26702 0
M  V30 31078 N 3033.19 -5.03654 2.49577 0
M  V30 31079 H 3025.34 -1.23365 1.72901 0
M  V30 31080 H 3027.61 -0.600309 0.733712 0
M  V30 31081 H 3027.31 -2.6532 2.30864 0
M  V30 31082 H 3027.19 -3.66738 0.882198 0
M  V30 31083 H 3029.57 -2.94396 0.203655 0
M  V30 31084 H 3029.66 -1.94477 1.66169 0
M  V30 31085 H 3029.3 -4.03386 3.08613 0
M  V30 31086 H 3029.23 -5.01648 1.60176 0
M  V30 31087 H 3031.72 -3.4566 1.52734 0
M  V30 31088 H 3032.03 -6.7928 3.68509 0
M  V30 31089 H 3030.38 -6.11226 3.30799 0
M  V30 31090 H 3033.57 -4.2469 1.96866 0
M  V30 31091 H 3033.74 -5.76833 2.95241 0
M  V30 31092 N 3027.15 -0.516835 -1.48884 0
M  V30 31093 C 3028.38 0.0183653 -2.06892 0
M  V30 31094 C 3028.79 1.29366 -1.37514 0
M  V30 31095 O 3028.15 1.76648 -0.45844 0
M  V30 31096 C 3028.2 0.25961 -3.60567 0
M  V30 31097 O 3027.92 -0.96514 -4.27337 0
M  V30 31098 C 3029.42 0.836674 -4.35333 0
M  V30 31099 H 3026.64 -0.0275861 -0.670433 0
M  V30 31100 H 3029.19 -0.718723 -1.91454 0
M  V30 31101 H 3027.34 0.946714 -3.75654 0
M  V30 31102 H 3027.75 -0.737738 -5.19286 0
M  V30 31103 H 3029.23 0.95497 -5.43677 0
M  V30 31104 H 3029.71 1.83838 -3.98873 0
M  V30 31105 H 3030.31 0.186547 -4.24891 0
M  V30 31106 N 3028.63 1.55583 -0.251365 0
M  V30 31107 C 3029.85 2.03452 0.376151 0
M  V30 31108 C 3030.27 1.1305 1.51213 0
M  V30 31109 O 3029.63 0.145801 1.81917 0
M  V30 31110 C 3029.68 3.50633 0.879717 0
M  V30 31111 O 3029.4 4.37592 -0.210994 0
M  V30 31112 C 3030.9 4.14283 1.57747 0
M  V30 31113 H 3028.12 0.66509 0.0888606 0
M  V30 31114 H 3030.66 2.01004 -0.376532 0
M  V30 31115 H 3028.82 3.53601 1.58256 0
M  V30 31116 H 3029.23 5.24218 0.172111 0
M  V30 31117 H 3030.71 5.18945 1.88149 0
M  V30 31118 H 3031.18 3.61038 2.50097 0
M  V30 31119 H 3031.79 4.15251 0.919081 0
M  V30 31120 N 3030.1 -0.0216912 1.57585 0
M  V30 31121 C 3031.33 -0.722585 1.93872 0
M  V30 31122 C 3031.75 -1.68496 0.851736 0
M  V30 31123 O 3031.1 -1.81695 -0.171239 0
M  V30 31124 C 3031.16 -1.47327 3.30116 0
M  V30 31125 O 3030.88 -0.54952 4.3464 0
M  V30 31126 C 3032.38 -2.27066 3.80731 0
M  V30 31127 H 3029.6 -0.202625 0.639675 0
M  V30 31128 H 3032.14 0.0229774 2.04487 0
M  V30 31129 H 3030.3 -2.17065 3.20876 0
M  V30 31130 H 3030.71 -1.07677 5.13328 0
M  V30 31131 H 3032.18 -2.75122 4.78552 0
M  V30 31132 H 3032.66 -3.08807 3.12306 0
M  V30 31133 H 3033.27 -1.62388 3.93078 0
M  V30 31134 N 3031.58 -1.54832 -0.294093 0
M  V30 31135 C 3032.83 -1.74096 -1.0264 0
M  V30 31136 C 3033.15 -0.533435 -1.87562 0
M  V30 31137 O 3032.42 0.452159 -1.9061 0
M  V30 31138 H 3031 -0.641969 -0.381948 0
M  V30 31139 H 3033.66 -1.92198 -0.32341 0
M  V30 31140 H 3032.76 -2.6331 -1.67553 0
M  V30 31141 N 3033.06 0.557619 -1.47405 0
M  V30 31142 C 3034.34 1.3184 -1.4449 0
M  V30 31143 C 3034.72 2.10624 -0.141637 0
M  V30 31144 O 3034.07 2.11005 0.876871 0
M  V30 31145 C 3034.28 2.22327 -2.6902 0
M  V30 31146 C 3035.62 2.83359 -3.16217 0
M  V30 31147 O 3036.65 2.32629 -2.69745 0
M  V30 31148 O 3035.51 3.75564 -3.97006 0
M  V30 31149 H 3032.6 0.593629 -0.57579 0
M  V30 31150 H 3035.15 0.576556 -1.59606 0
M  V30 31151 H 3033.92 1.63709 -3.55408 0
M  V30 31152 H 3033.54 3.03808 -2.56489 0
M  V30 31153 N 3034.54 1.35531 0.804316 0
M  V30 31154 C 3035.79 1.29121 1.56383 0
M  V30 31155 C 3036.12 -0.133501 1.93741 0
M  V30 31156 O 3035.39 -1.08341 1.61531 0
M  V30 31157 C 3035.68 2.19986 2.85093 0
M  V30 31158 C 3035.53 3.71085 2.54197 0
M  V30 31159 C 3036.85 2.09913 3.86813 0
M  V30 31160 H 3033.97 0.470378 0.567374 0
M  V30 31161 H 3036.61 1.65952 0.925206 0
M  V30 31162 H 3034.76 1.88707 3.39591 0
M  V30 31163 H 3036.43 4.12816 2.05865 0
M  V30 31164 H 3034.67 3.91254 1.87357 0
M  V30 31165 H 3035.35 4.30054 3.4606 0
M  V30 31166 H 3037.82 2.37415 3.41721 0
M  V30 31167 H 3036.7 2.75686 4.74645 0
M  V30 31168 H 3036.96 1.08178 4.28661 0
M  V30 31169 N 3036.02 -1.02674 1.19565 0
M  V30 31170 C 3036.95 -2.11084 0.893091 0
M  V30 31171 C 3037.96 -1.62393 -0.115072 0
M  V30 31172 O 3039.15 -1.78132 0.114621 0
M  V30 31173 C 3036.25 -3.37427 0.315593 0
M  V30 31174 C 3035.42 -4.15298 1.37283 0
M  V30 31175 C 3034.48 -5.19952 0.808489 0
M  V30 31176 O 3033.51 -5.49441 1.48671 0
M  V30 31177 N 3034.71 -5.79208 -0.387151 0
M  V30 31178 H 3037.48 -2.37629 1.82626 0
M  V30 31179 H 3035.04 -1.18982 1.09794 0
M  V30 31180 H 3037.03 -4.04629 -0.0758455 0
M  V30 31181 H 3035.6 -3.08212 -0.521907 0
M  V30 31182 H 3034.82 -3.43213 1.93903 0
M  V30 31183 H 3036.11 -4.6411 2.08517 0
M  V30 31184 H 3035.51 -5.5757 -0.955627 0
M  V30 31185 H 3034.06 -6.47807 -0.720344 0
M  V30 31186 N 3037.5 -0.999914 -1.21817 0
M  V30 31187 C 3038.74 -0.680734 -1.91034 0
M  V30 31188 C 3039.07 0.78599 -1.77583 0
M  V30 31189 O 3038.35 1.56919 -1.1492 0
M  V30 31190 C 3038.63 -1.09616 -3.43011 0
M  V30 31191 C 3038.49 -2.62196 -3.65477 0
M  V30 31192 C 3039.8 -0.654692 -4.35203 0
M  V30 31193 H 3036.92 -0.248775 -0.693743 0
M  V30 31194 H 3039.57 -1.24469 -1.43553 0
M  V30 31195 H 3037.72 -0.61632 -3.8358 0
M  V30 31196 H 3039.39 -3.17904 -3.34267 0
M  V30 31197 H 3037.63 -3.03944 -3.09517 0
M  V30 31198 H 3038.3 -2.86315 -4.7194 0
M  V30 31199 H 3040.78 -1.06695 -4.02188 0
M  V30 31200 H 3039.65 -0.973587 -5.40197 0
M  V30 31201 H 3039.91 0.444381 -4.39861 0
M  V30 31202 N 3038.97 1.37284 -0.773999 0
M  V30 31203 C 3039.9 2.32837 -0.175823 0
M  V30 31204 C 3040.88 1.55892 0.680576 0
M  V30 31205 O 3042.07 1.84119 0.617575 0
M  V30 31206 C 3039.2 3.40124 0.702328 0
M  V30 31207 C 3038.15 4.27967 -0.052944 0
M  V30 31208 C 3037.48 5.26287 0.944799 0
M  V30 31209 C 3038.78 5.07531 -1.23325 0
M  V30 31210 H 3040.47 2.83112 -0.974066 0
M  V30 31211 H 3038.02 1.36119 -0.46985 0
M  V30 31212 H 3039.97 4.05949 1.13062 0
M  V30 31213 H 3038.7 2.8838 1.53311 0
M  V30 31214 H 3037.36 3.63677 -0.462042 0
M  V30 31215 H 3037 4.70822 1.7702 0
M  V30 31216 H 3036.7 5.8592 0.443976 0
M  V30 31217 H 3038.23 5.94986 1.37199 0
M  V30 31218 H 3039.64 5.66483 -0.881495 0
M  V30 31219 H 3038.04 5.76502 -1.66631 0
M  V30 31220 H 3039.11 4.40074 -2.03625 0
M  V30 31221 N 3040.45 0.524724 1.48608 0
M  V30 31222 C 3041.7 -0.0112635 2.02097 0
M  V30 31223 C 3042.02 -1.35266 1.40457 0
M  V30 31224 O 3041.29 -1.87482 0.568103 0
M  V30 31225 H 3039.87 -0.00715113 0.746966 0
M  V30 31226 H 3042.53 0.687361 1.82377 0
M  V30 31227 H 3041.63 -0.123476 3.11856 0
M  V30 31228 N 3041.93 -1.55447 0.259613 0
M  V30 31229 C 3042.86 -2.24883 -0.62848 0
M  V30 31230 C 3043.84 -1.23351 -1.17126 0
M  V30 31231 O 3045.03 -1.52035 -1.20826 0
M  V30 31232 C 3042.16 -2.95806 -1.81978 0
M  V30 31233 C 3041.11 -4.04135 -1.40922 0
M  V30 31234 C 3040.44 -4.6255 -2.68238 0
M  V30 31235 C 3041.74 -5.19171 -0.570864 0
M  V30 31236 H 3043.43 -2.99359 -0.0494495 0
M  V30 31237 H 3040.98 -1.43983 -0.0223435 0
M  V30 31238 H 3042.93 -3.43087 -2.44683 0
M  V30 31239 H 3041.65 -2.18839 -2.4244 0
M  V30 31240 H 3040.31 -3.57642 -0.805456 0
M  V30 31241 H 3039.96 -3.82269 -3.26924 0
M  V30 31242 H 3039.66 -5.35685 -2.41486 0
M  V30 31243 H 3041.18 -5.12571 -3.31818 0
M  V30 31244 H 3042.6 -5.62599 -1.10252 0
M  V30 31245 H 3040.99 -5.98773 -0.398874 0
M  V30 31246 H 3042.06 -4.83129 0.414003 0
M  V30 31247 N 3043.41 0.0133338 -1.57594 0
M  V30 31248 C 3044.65 0.701985 -1.90263 0
M  V30 31249 C 3044.99 1.74157 -0.85925 0
M  V30 31250 O 3044.26 1.94106 0.123743 0
M  V30 31251 C 3044.54 1.35726 -3.33542 0
M  V30 31252 C 3044.4 0.330129 -4.48587 0
M  V30 31253 C 3045.72 2.28705 -3.76008 0
M  V30 31254 H 3042.84 0.253727 -0.691948 0
M  V30 31255 H 3045.48 -0.0352228 -1.89967 0
M  V30 31256 H 3043.63 1.98561 -3.33925 0
M  V30 31257 H 3045.3 -0.297514 -4.6034 0
M  V30 31258 H 3043.54 -0.349002 -4.32394 0
M  V30 31259 H 3044.21 0.827412 -5.45764 0
M  V30 31260 H 3046.69 1.759 -3.77092 0
M  V30 31261 H 3045.57 2.71527 -4.77037 0
M  V30 31262 H 3045.83 3.16051 -3.09135 0
M  V30 31263 N 3044.89 1.54985 0.285878 0
M  V30 31264 C 3045.84 1.83366 1.35502 0
M  V30 31265 C 3046.82 0.691724 1.45272 0
M  V30 31266 O 3048.01 0.952751 1.4917 0
M  V30 31267 C 3045.14 2.09775 2.71752 0
M  V30 31268 C 3044.23 3.30194 2.66145 0
M  V30 31269 N 3044.62 4.50403 2.30153 0
M  V30 31270 C 3042.92 3.32525 2.97226 0
M  V30 31271 C 3043.62 5.32463 2.34218 0
M  V30 31272 N 3042.59 4.70552 2.72179 0
M  V30 31273 H 3046.39 2.73861 1.06663 0
M  V30 31274 H 3043.91 1.54688 0.494494 0
M  V30 31275 H 3045.91 2.28259 3.4886 0
M  V30 31276 H 3044.57 1.20556 3.0149 0
M  V30 31277 H 3045.58 4.76734 2.02349 0
M  V30 31278 H 3042.25 2.5346 3.3176 0
M  V30 31279 H 3043.64 6.38547 2.09063 0
M  V30 31280 N 3046.36 -0.549794 1.47699 0
M  V30 31281 C 3047.59 -1.33185 1.58333 0
M  V30 31282 C 3048.01 -1.87316 0.236226 0
M  V30 31283 O 3047.36 -1.65384 -0.771641 0
M  V30 31284 C 3047.42 -2.4966 2.61443 0
M  V30 31285 O 3047.14 -1.97764 3.90923 0
M  V30 31286 C 3048.64 -3.41767 2.8233 0
M  V30 31287 H 3045.86 -0.405732 0.534437 0
M  V30 31288 H 3048.4 -0.665275 1.93376 0
M  V30 31289 H 3046.56 -3.12241 2.29313 0
M  V30 31290 H 3046.97 -2.73858 4.47328 0
M  V30 31291 H 3048.44 -4.19891 3.58323 0
M  V30 31292 H 3048.92 -3.95772 1.90423 0
M  V30 31293 H 3049.53 -2.84995 3.15687 0
M  V30 31294 N 3047.84 -1.35955 -0.797117 0
M  V30 31295 C 3048.77 -1.25512 -1.91779 0
M  V30 31296 C 3049.79 -0.176299 -1.61843 0
M  V30 31297 O 3050.98 -0.430373 -1.73234 0
M  V30 31298 C 3048.08 -0.912131 -3.26395 0
M  V30 31299 C 3047.25 -2.09127 -3.84168 0
M  V30 31300 C 3046.31 -1.72255 -4.97207 0
M  V30 31301 O 3045.33 -2.44248 -5.14132 0
M  V30 31302 N 3046.54 -0.651713 -5.7683 0
M  V30 31303 H 3049.3 -2.22067 -2.01262 0
M  V30 31304 H 3046.86 -1.29248 -0.975011 0
M  V30 31305 H 3048.85 -0.646777 -3.99498 0
M  V30 31306 H 3047.42 -0.0359629 -3.12579 0
M  V30 31307 H 3046.64 -2.51987 -3.03144 0
M  V30 31308 H 3047.93 -2.87922 -4.19498 0
M  V30 31309 H 3047.33 -0.0537672 -5.65674 0
M  V30 31310 H 3045.89 -0.446164 -6.50271 0
M  V30 31311 N 3049.32 1.02038 -1.20108 0
M  V30 31312 C 3050.27 2.10499 -0.946505 0
M  V30 31313 C 3051.24 1.65652 0.121873 0
M  V30 31314 O 3052.42 1.90787 -0.0220579 0
M  V30 31315 C 3049.56 3.4145 -0.500559 0
M  V30 31316 C 3048.68 3.99797 -1.63666 0
M  V30 31317 C 3047.81 5.18792 -1.1414 0
M  V30 31318 C 3046.85 5.69213 -2.25084 0
M  V30 31319 N 3045.99 6.79474 -1.76803 0
M  V30 31320 H 3050.83 2.31612 -1.8751 0
M  V30 31321 H 3048.36 1.13585 -0.934713 0
M  V30 31322 H 3050.32 4.16602 -0.22335 0
M  V30 31323 H 3048.95 3.20423 0.391042 0
M  V30 31324 H 3048 3.21777 -2.02888 0
M  V30 31325 H 3049.32 4.33224 -2.47221 0
M  V30 31326 H 3048.47 6.01134 -0.819932 0
M  V30 31327 H 3047.21 4.8692 -0.275701 0
M  V30 31328 H 3046.21 4.85478 -2.58052 0
M  V30 31329 H 3047.44 6.03121 -3.12124 0
M  V30 31330 H 3045.38 6.49438 -0.925542 0
M  V30 31331 H 3045.3 7.12075 -2.53941 0
M  V30 31332 H 3046.57 7.6539 -1.47645 0
M  V30 31333 N 3050.8 1.00636 1.21285 0
M  V30 31334 C 3051.73 0.588128 2.25972 0
M  V30 31335 C 3052.71 -0.391735 1.65528 0
M  V30 31336 O 3053.89 -0.279418 1.92179 0
M  V30 31337 C 3051.02 -0.0846726 3.47197 0
M  V30 31338 C 3049.98 0.815113 4.20167 0
M  V30 31339 C 3049.3 0.00864792 5.34699 0
M  V30 31340 C 3050.6 2.11836 4.77412 0
M  V30 31341 H 3052.3 1.46322 2.61209 0
M  V30 31342 H 3049.84 0.705007 1.25561 0
M  V30 31343 H 3051.8 -0.388747 4.19603 0
M  V30 31344 H 3050.52 -0.994401 3.11094 0
M  V30 31345 H 3049.18 1.10303 3.49612 0
M  V30 31346 H 3048.83 -0.902412 4.94839 0
M  V30 31347 H 3048.53 0.607767 5.84448 0
M  V30 31348 H 3050.05 -0.28921 6.09915 0
M  V30 31349 H 3051.47 1.87735 5.41691 0
M  V30 31350 H 3049.86 2.66745 5.37557 0
M  V30 31351 H 3050.93 2.78823 3.96719 0
M  V30 31352 N 3052.28 -1.36872 0.781268 0
M  V30 31353 C 3053.52 -1.9906 0.349233 0
M  V30 31354 C 3053.85 -1.62323 -1.08057 0
M  V30 31355 O 3053.12 -0.89326 -1.74349 0
M  V30 31356 H 3051.7 -0.736273 0.126139 0
M  V30 31357 H 3054.36 -1.672 1.00151 0
M  V30 31358 H 3053.45 -3.09061 0.434506 0
M  V30 31359 N 3053.75 -0.532597 -1.48328 0
M  V30 31360 C 3055 0.000547572 -2.028 0
M  V30 31361 C 3055.33 1.33686 -1.40861 0
M  V30 31362 O 3054.61 1.86405 -0.555294 0
M  V30 31363 C 3054.89 0.119783 -3.59901 0
M  V30 31364 C 3054.74 -1.24188 -4.32316 0
M  V30 31365 C 3056.06 0.845296 -4.31906 0
M  V30 31366 H 3053.18 -0.00127501 -0.736999 0
M  V30 31367 H 3055.82 -0.690133 -1.77023 0
M  V30 31368 H 3053.97 0.708025 -3.81994 0
M  V30 31369 H 3055.65 -1.87143 -4.21634 0
M  V30 31370 H 3053.89 -1.82308 -3.93632 0
M  V30 31371 H 3054.56 -1.11142 -5.40695 0
M  V30 31372 H 3057.04 0.346086 -4.14658 0
M  V30 31373 H 3055.91 0.897628 -5.41511 0
M  V30 31374 H 3056.17 1.89615 -3.99373 0
M  V30 31375 N 3055.23 1.55307 -0.267853 0
M  V30 31376 C 3056.48 1.98612 0.351601 0
M  V30 31377 C 3056.79 1.1596 1.5752 0
M  V30 31378 O 3058 1.49375 2.26715 0
M  V30 31379 C 3056.46 3.53477 0.676924 0
M  V30 31380 C 3056.06 4.44896 -0.526463 0
M  V30 31381 C 3057.81 4.05388 1.2594 0
M  V30 31382 C 3055.72 5.91138 -0.17613 0
M  V30 31383 H 3054.65 0.741789 0.135147 0
M  V30 31384 H 3057.3 1.79703 -0.371365 0
M  V30 31385 H 3055.68 3.68159 1.45859 0
M  V30 31386 H 3056.85 4.4198 -1.30347 0
M  V30 31387 H 3055.17 4.0358 -1.02529 0
M  V30 31388 H 3057.76 5.12187 1.5352 0
M  V30 31389 H 3058.11 3.53986 2.19088 0
M  V30 31390 H 3058.64 3.94115 0.540184 0
M  V30 31391 H 3055.38 6.4662 -1.07529 0
M  V30 31392 H 3054.9 5.9714 0.564258 0
M  V30 31393 H 3056.58 6.46576 0.234251 0
M  V30 31394 N 3056.71 -0.00497598 1.57599 0
M  V30 31395 C 3057.96 -0.689497 1.89975 0
M  V30 31396 C 3058.28 -1.74588 0.868561 0
M  V30 31397 O 3057.55 -1.95671 -0.0947023 0
M  V30 31398 H 3056.13 -0.257658 0.701157 0
M  V30 31399 H 3058.79 0.0347735 1.94869 0
M  V30 31400 H 3057.89 -1.16389 2.89586 0
M  V30 31401 N 3058.19 -1.55135 -0.277654 0
M  V30 31402 C 3059.47 -1.6623 -1.03087 0
M  V30 31403 C 3059.85 -0.525737 -2.04449 0
M  V30 31404 O 3059.19 0.474777 -2.23513 0
M  V30 31405 C 3059.4 -3.0525 -1.69185 0
M  V30 31406 C 3060.75 -3.62844 -2.2052 0
M  V30 31407 O 3061.78 -3.07853 -1.79179 0
M  V30 31408 O 3060.63 -4.59182 -2.96334 0
M  V30 31409 H 3057.73 -0.674946 -0.477888 0
M  V30 31410 H 3060.27 -1.67475 -0.273882 0
M  V30 31411 H 3059.05 -3.79414 -0.957097 0
M  V30 31412 H 3058.67 -3.07884 -2.51582 0
M  V30 31413 N 3059.67 0.541953 -1.47989 0
M  V30 31414 C 3060.61 1.64767 -1.61618 0
M  V30 31415 C 3061.58 1.59643 -0.45863 0
M  V30 31416 O 3062.77 1.78248 -0.680617 0
M  V30 31417 C 3059.91 3.0306 -1.65072 0
M  V30 31418 C 3059.02 3.18508 -2.91851 0
M  V30 31419 C 3058.16 4.47289 -2.86541 0
M  V30 31420 C 3057.2 4.56223 -4.08078 0
M  V30 31421 N 3056.33 5.76378 -4.00915 0
M  V30 31422 H 3061.17 1.52456 -2.56049 0
M  V30 31423 H 3058.71 0.742427 -1.2699 0
M  V30 31424 H 3060.67 3.83161 -1.65056 0
M  V30 31425 H 3059.3 3.1417 -0.741416 0
M  V30 31426 H 3058.35 2.31738 -3.01665 0
M  V30 31427 H 3059.66 3.20971 -3.8181 0
M  V30 31428 H 3058.82 5.35667 -2.8486 0
M  V30 31429 H 3057.55 4.47328 -1.94291 0
M  V30 31430 H 3056.56 3.66253 -4.10047 0
M  V30 31431 H 3057.78 4.57931 -5.01474 0
M  V30 31432 H 3055.73 5.77337 -3.11477 0
M  V30 31433 H 3055.65 5.80285 -4.84568 0
M  V30 31434 H 3056.92 6.67076 -4.03274 0
M  V30 31435 N 3061.15 1.36376 0.789896 0
M  V30 31436 C 3062.39 1.30773 1.55004 0
M  V30 31437 C 3062.72 -0.112945 1.93871 0
M  V30 31438 O 3062 -1.06622 1.62672 0
M  V30 31439 C 3062.28 2.22998 2.82744 0
M  V30 31440 C 3062.14 3.7376 2.50247 0
M  V30 31441 C 3063.45 2.14004 3.84565 0
M  V30 31442 H 3060.57 0.476369 0.562353 0
M  V30 31443 H 3063.22 1.66924 0.907552 0
M  V30 31444 H 3061.37 1.92298 3.3757 0
M  V30 31445 H 3063.04 4.14976 2.01475 0
M  V30 31446 H 3061.28 3.93219 1.83197 0
M  V30 31447 H 3061.95 4.337 3.4148 0
M  V30 31448 H 3064.43 2.41026 3.39184 0
M  V30 31449 H 3063.3 2.80705 4.71695 0
M  V30 31450 H 3063.56 1.12719 4.27489 0
M  V30 31451 N 3062.62 -1.014 1.20647 0
M  V30 31452 C 3063.87 -1.75298 1.01973 0
M  V30 31453 C 3064.2 -1.88991 -0.44677 0
M  V30 31454 O 3063.48 -1.41764 -1.33166 0
M  V30 31455 C 3063.76 -3.17071 1.70699 0
M  V30 31456 C 3063.61 -3.11156 3.2481 0
M  V30 31457 C 3064.93 -4.15799 1.44219 0
M  V30 31458 H 3062.05 -0.636312 0.371856 0
M  V30 31459 H 3064.69 -1.18275 1.48698 0
M  V30 31460 H 3062.84 -3.65757 1.30974 0
M  V30 31461 H 3064.52 -2.70254 3.73846 0
M  V30 31462 H 3062.76 -2.48486 3.5558 0
M  V30 31463 H 3063.43 -4.11386 3.68056 0
M  V30 31464 H 3065.91 -3.75779 1.78687 0
M  V30 31465 H 3064.78 -5.13158 1.94834 0
M  V30 31466 H 3065.04 -4.40546 0.37033 0
M  V30 31467 N 3064.1 -1.01278 -1.2075 0
M  V30 31468 C 3065.35 -0.700958 -1.90301 0
M  V30 31469 C 3065.68 0.767111 -1.78407 0
M  V30 31470 O 3064.96 1.55691 -1.16578 0
M  V30 31471 C 3065.24 -1.13248 -3.41829 0
M  V30 31472 C 3065.09 -2.66058 -3.62675 0
M  V30 31473 C 3066.41 -0.700814 -4.34484 0
M  V30 31474 H 3063.53 -0.256119 -0.691066 0
M  V30 31475 H 3066.17 -1.25984 -1.42225 0
M  V30 31476 H 3064.32 -0.656969 -3.82905 0
M  V30 31477 H 3065.99 -3.21432 -3.30876 0
M  V30 31478 H 3064.24 -3.0721 -3.06276 0
M  V30 31479 H 3064.91 -2.91304 -4.68877 0
M  V30 31480 H 3067.38 -1.10955 -4.01034 0
M  V30 31481 H 3066.26 -1.03083 -5.39134 0
M  V30 31482 H 3066.52 0.397703 -4.40308 0
M  V30 31483 N 3065.58 1.36456 -0.788516 0
M  V30 31484 C 3066.81 2.03521 -0.372401 0
M  V30 31485 C 3067.22 1.59456 1.0109 0
M  V30 31486 O 3066.58 0.783564 1.64823 0
M  V30 31487 C 3066.63 3.58987 -0.425498 0
M  V30 31488 O 3066.35 4.01445 -1.75425 0
M  V30 31489 C 3067.85 4.433 0.000102246 0
M  V30 31490 H 3065.07 0.65318 -0.153611 0
M  V30 31491 H 3067.62 1.74451 -1.06711 0
M  V30 31492 H 3065.77 3.8677 0.220788 0
M  V30 31493 H 3066.19 4.96033 -1.70445 0
M  V30 31494 H 3067.66 5.5193 -0.0881889 0
M  V30 31495 H 3068.14 4.264 1.05262 0
M  V30 31496 H 3068.74 4.20777 -0.618637 0
M  V30 31497 N 3067.06 0.540456 1.48043 0
M  V30 31498 C 3068.29 0.0145306 2.06595 0
M  V30 31499 C 3068.7 -1.2771 1.39595 0
M  V30 31500 O 3068.04 -1.77296 0.480825 0
M  V30 31501 C 3068.1 -0.269253 3.5849 0
M  V30 31502 C 3067.76 0.930451 4.47428 0
M  V30 31503 C 3068.76 1.83164 4.86567 0
M  V30 31504 C 3066.45 1.1404 4.89183 0
M  V30 31505 C 3068.44 2.92659 5.66241 0
M  V30 31506 C 3066.13 2.23848 5.68626 0
M  V30 31507 C 3067.13 3.1299 6.07064 0
M  V30 31508 O 3066.81 4.20896 6.8491 0
M  V30 31509 H 3066.55 0.0351586 0.675085 0
M  V30 31510 H 3069.1 0.748563 1.91274 0
M  V30 31511 H 3067.33 -1.05739 3.71963 0
M  V30 31512 H 3069.02 -0.738525 3.99125 0
M  V30 31513 H 3069.78 1.68142 4.54921 0
M  V30 31514 H 3065.66 0.455797 4.58741 0
M  V30 31515 H 3069.21 3.62265 5.96163 0
M  V30 31516 H 3065.1 2.3885 5.99684 0
M  V30 31517 H 3065.87 4.18736 7.0328 0
M  V30 31518 N 3068.54 -1.55163 0.276085 0
M  V30 31519 C 3069.76 -2.04483 -0.346612 0
M  V30 31520 C 3070.19 -1.1531 -1.48611 0
M  V30 31521 O 3069.54 -0.151907 -1.80662 0
M  V30 31522 C 3069.59 -3.51518 -0.804207 0
M  V30 31523 O 3068.7 -3.65432 -1.91136 0
M  V30 31524 H 3068.04 -0.660138 -0.0715135 0
M  V30 31525 H 3070.57 -2.00436 0.410667 0
M  V30 31526 H 3070.58 -3.929 -1.0997 0
M  V30 31527 H 3069.25 -4.1589 0.0294854 0
M  V30 31528 H 3067.83 -3.35953 -1.61833 0
M  V30 31529 N 3070.01 -0.00338196 -1.576 0
M  V30 31530 C 3070.96 0.986938 -2.08634 0
M  V30 31531 C 3071.93 1.33925 -0.982514 0
M  V30 31532 O 3073.12 1.43703 -1.25515 0
M  V30 31533 C 3070.26 2.27256 -2.59709 0
M  V30 31534 C 3069.37 1.97898 -3.84006 0
M  V30 31535 C 3068.5 3.20567 -4.23569 0
M  V30 31536 C 3067.54 2.8691 -5.40693 0
M  V30 31537 N 3066.68 4.02126 -5.75534 0
M  V30 31538 H 3071.52 0.544804 -2.92978 0
M  V30 31539 H 3069.06 0.25735 -1.44831 0
M  V30 31540 H 3071.01 3.02418 -2.87401 0
M  V30 31541 H 3069.64 2.69133 -1.78234 0
M  V30 31542 H 3068.7 1.13089 -3.63201 0
M  V30 31543 H 3070.01 1.69093 -4.69264 0
M  V30 31544 H 3069.16 4.04071 -4.52561 0
M  V30 31545 H 3067.9 3.52512 -3.37026 0
M  V30 31546 H 3066.91 2.01814 -5.11421 0
M  V30 31547 H 3068.13 2.56209 -6.28915 0
M  V30 31548 H 3066.08 4.33962 -4.91948 0
M  V30 31549 H 3065.99 3.76857 -6.55374 0
M  V30 31550 H 3067.26 4.8641 -6.09119 0
M  V30 31551 N 3071.49 1.5528 0.269423 0
M  V30 31552 C 3072.74 1.75707 0.998573 0
M  V30 31553 C 3073.06 0.563207 1.8669 0
M  V30 31554 O 3072.33 -0.421777 1.91306 0
M  V30 31555 H 3070.91 0.647965 0.371686 0
M  V30 31556 H 3073.57 1.92688 0.292792 0
M  V30 31557 H 3072.67 2.65943 1.63343 0
M  V30 31558 N 3072.97 -0.534097 1.48274 0
M  V30 31559 C 3074.2 -1.31308 1.59505 0
M  V30 31560 C 3074.61 -1.87503 0.252873 0
M  V30 31561 O 3073.95 -1.66905 -0.767369 0
M  V30 31562 C 3074.01 -2.50452 2.57903 0
M  V30 31563 C 3073.68 -2.15375 4.03067 0
M  V30 31564 C 3074.67 -1.71291 4.90872 0
M  V30 31565 C 3072.36 -2.26024 4.48574 0
M  V30 31566 C 3074.35 -1.38317 6.22212 0
M  V30 31567 C 3072.04 -1.92662 5.79935 0
M  V30 31568 C 3073.04 -1.48878 6.66576 0
M  V30 31569 O 3072.73 -1.15952 7.95494 0
M  V30 31570 H 3072.46 -0.40573 0.540703 0
M  V30 31571 H 3075.01 -0.651462 1.94795 0
M  V30 31572 H 3073.24 -3.19581 2.17726 0
M  V30 31573 H 3074.93 -3.12517 2.59013 0
M  V30 31574 H 3075.7 -1.62537 4.56954 0
M  V30 31575 H 3071.58 -2.59059 3.81326 0
M  V30 31576 H 3075.12 -1.0407 6.89794 0
M  V30 31577 H 3071.02 -2.01055 6.1339 0
M  V30 31578 H 3071.78 -1.29385 8.08209 0
M  V30 31579 N 3074.45 -1.36793 -0.782652 0
M  V30 31580 C 3075.86 -1.28094 -1.35826 0
M  V30 31581 C 3076.21 0.0762806 -1.96052 0
M  V30 31582 O 3075.33 0.977901 -1.93044 0
M  V30 31583 C 3075.93 -2.31956 -2.46945 0
M  V30 31584 C 3074.49 -2.26926 -3.00303 0
M  V30 31585 C 3073.64 -2.16371 -1.73432 0
M  V30 31586 H 3076.59 -1.47573 -0.583762 0
M  V30 31587 H 3076.61 -1.95991 -3.26141 0
M  V30 31588 H 3076.12 -3.30726 -2.03082 0
M  V30 31589 H 3074.22 -1.31645 -3.48569 0
M  V30 31590 H 3074.33 -3.19894 -3.56658 0
M  V30 31591 H 3072.7 -1.62736 -1.95931 0
M  V30 31592 H 3073.48 -3.17038 -1.31688 0
M  V30 31593 N 3075.93 1.00759 -1.21184 0
M  V30 31594 C 3077.17 1.7603 -1.03889 0
M  V30 31595 C 3077.53 1.87337 0.420561 0
M  V30 31596 O 3078.73 2.59145 0.713949 0
M  V30 31597 C 3077 3.13619 -1.71399 0
M  V30 31598 S 3078.56 4.04813 -1.69327 0
M  V30 31599 H 3075.38 0.605711 -0.372338 0
M  V30 31600 H 3077.98 1.20578 -1.53887 0
M  V30 31601 H 3076.69 3.03021 -2.76779 0
M  V30 31602 H 3076.22 3.74145 -1.2157 0
M  V30 31603 H 3078.23 4.90763 -0.73252 0
M  V30 31604 N 3077.4 1.01917 1.20211 0
M  V30 31605 C 3078.65 0.708586 1.89271 0
M  V30 31606 C 3078.97 -0.764349 1.79395 0
M  V30 31607 O 3078.24 -1.54997 1.19803 0
M  V30 31608 H 3076.82 0.259106 0.700623 0
M  V30 31609 H 3079.49 1.29132 1.45983 0
M  V30 31610 H 3078.58 0.994267 2.95839 0
M  V30 31611 N 3078.88 -1.36036 0.795742 0
M  V30 31612 C 3080.13 -1.98678 0.370326 0
M  V30 31613 C 3080.45 -1.6346 -1.06329 0
M  V30 31614 O 3079.72 -0.911701 -1.73392 0
M  V30 31615 H 3078.3 -0.734894 0.133941 0
M  V30 31616 H 3080.96 -1.66128 1.01918 0
M  V30 31617 H 3080.06 -3.08582 0.467261 0
M  V30 31618 N 3080.36 -0.5483 -1.47755 0
M  V30 31619 C 3081.31 0.217543 -2.3158 0
M  V30 31620 C 3082.3 0.917932 -1.42374 0
M  V30 31621 O 3083.51 0.840231 -1.59186 0
M  V30 31622 H 3079.88 0.0890257 -0.746712 0
M  V30 31623 H 3081.85 -0.50877 -2.94031 0
M  V30 31624 C 3080.6 1.24002 -3.24837 0
M  V30 31625 H 3079.93 0.710502 -3.93436 0
M  V30 31626 H 3081.37 1.74694 -3.86339 0
M  V30 31627 C 3079.83 2.28325 -2.47728 0
M  V30 31628 O 3080.36 3.35094 -2.21528 0
M  V30 31629 N 3078.56 2.02018 -2.08895 0
M  V30 31630 H 3078.11 1.15206 -2.30403 0
M  V30 31631 H 3078.07 2.72037 -1.57618 0
M  V30 31632 N 3081.84 1.55014 -0.28431 0
M  V30 31633 C 3082.79 2.22887 0.599155 0
M  V30 31634 C 3083.76 1.20555 1.14262 0
M  V30 31635 O 3084.94 1.49125 1.19023 0
M  V30 31636 C 3082.08 2.96065 1.77312 0
M  V30 31637 C 3081.19 4.13136 1.26264 0
M  V30 31638 C 3080.33 4.73936 2.39913 0
M  V30 31639 C 3079.37 5.83183 1.85914 0
M  V30 31640 N 3078.5 6.38007 2.93072 0
M  V30 31641 H 3083.34 2.97997 0.0137292 0
M  V30 31642 H 3080.88 1.47099 -0.00499088 0
M  V30 31643 H 3082.84 3.36714 2.46333 0
M  V30 31644 H 3081.47 2.23362 2.33043 0
M  V30 31645 H 3080.52 3.77544 0.46523 0
M  V30 31646 H 3081.83 4.91893 0.827197 0
M  V30 31647 H 3080.99 5.17351 3.16911 0
M  V30 31648 H 3079.73 3.94475 2.86777 0
M  V30 31649 H 3078.73 5.39208 1.074 0
M  V30 31650 H 3079.96 6.64518 1.39975 0
M  V30 31651 H 3077.9 5.61437 3.39301 0
M  V30 31652 H 3077.82 7.12063 2.53974 0
M  V30 31653 H 3079.09 6.86081 3.70018 0
M  V30 31654 N 3083.32 0.0117398 1.57596 0
M  V30 31655 C 3084.54 -0.6813 1.95361 0
M  V30 31656 C 3084.96 -1.66651 0.887285 0
M  V30 31657 O 3084.32 -1.82017 -0.13266 0
M  V30 31658 C 3084.37 -1.40292 3.33167 0
M  V30 31659 O 3084.09 -0.457203 4.35708 0
M  V30 31660 C 3085.59 -2.18939 3.85462 0
M  V30 31661 H 3082.81 -0.189011 0.643829 0
M  V30 31662 H 3085.35 0.0663469 2.04392 0
M  V30 31663 H 3083.51 -2.1021 3.25408 0
M  V30 31664 H 3083.92 -0.967639 5.15497 0
M  V30 31665 H 3085.4 -2.6491 4.8428 0
M  V30 31666 H 3085.87 -3.02113 3.18786 0
M  V30 31667 H 3086.48 -1.54013 3.96434 0
M  V30 31668 N 3084.79 -1.55421 -0.261185 0
M  V30 31669 C 3085.76 -1.88322 -1.30642 0
M  V30 31670 C 3086.76 -0.758613 -1.4178 0
M  V30 31671 O 3087.95 -1.02671 -1.40727 0
M  V30 31672 C 3085.08 -2.099 -2.68617 0
M  V30 31673 H 3086.27 -2.8177 -1.02693 0
M  V30 31674 H 3083.83 -1.48093 -0.499812 0
M  V30 31675 H 3084.56 -1.18873 -3.01728 0
M  V30 31676 H 3084.35 -2.91792 -2.61916 0
M  V30 31677 H 3085.84 -2.36587 -3.44116 0
M  V30 31678 N 3086.27 0.526227 -1.48555 0
M  V30 31679 C 3087.5 1.31126 -1.60688 0
M  V30 31680 C 3087.92 1.8617 -0.268734 0
M  V30 31681 O 3087.28 1.64595 0.760138 0
M  V30 31682 C 3087.33 2.43531 -2.65942 0
M  V30 31683 O 3086.43 3.46674 -2.23362 0
M  V30 31684 H 3085.77 0.388202 -0.538698 0
M  V30 31685 H 3088.3 0.632791 -1.94569 0
M  V30 31686 H 3088.31 2.89663 -2.87332 0
M  V30 31687 H 3086.99 2.02829 -3.63088 0
M  V30 31688 H 3085.57 3.06635 -2.12201 0
M  V30 31689 N 3087.75 1.37206 0.775387 0
M  V30 31690 C 3088.98 1.3557 1.56957 0
M  V30 31691 C 3089.4 -0.0575224 1.88012 0
M  V30 31692 O 3088.76 -1.03353 1.48956 0
M  V30 31693 C 3088.81 2.19781 2.85882 0
M  V30 31694 O 3087.91 1.59994 3.801 0
M  V30 31695 H 3087.25 0.463383 0.475575 0
M  V30 31696 H 3089.78 1.80681 0.959978 0
M  V30 31697 H 3089.79 2.32865 3.3502 0
M  V30 31698 H 3088.47 3.22506 2.62607 0
M  V30 31699 H 3087.04 1.5593 3.38733 0
M  V30 31700 N 3089.23 -1.00115 1.21716 0
M  V30 31701 C 3090.47 -1.74206 1.03827 0
M  V30 31702 C 3090.81 -1.89454 -0.4267 0
M  V30 31703 O 3090.08 -1.43168 -1.31655 0
M  V30 31704 C 3090.37 -3.15242 1.74052 0
M  V30 31705 C 3090.22 -3.07694 3.28092 0
M  V30 31706 C 3091.54 -4.14246 1.48621 0
M  V30 31707 H 3088.66 -0.632332 0.378584 0
M  V30 31708 H 3091.3 -1.16691 1.49944 0
M  V30 31709 H 3089.45 -3.64347 1.34846 0
M  V30 31710 H 3091.12 -2.66274 3.76691 0
M  V30 31711 H 3089.36 -2.447 3.58196 0
M  V30 31712 H 3090.03 -4.07459 3.72399 0
M  V30 31713 H 3092.51 -3.73863 1.82662 0
M  V30 31714 H 3091.39 -5.11062 2.00266 0
M  V30 31715 H 3091.65 -4.40129 0.417035 0
M  V30 31716 N 3090.71 -1.02553 -1.19669 0
M  V30 31717 C 3091.96 -0.715305 -1.8859 0
M  V30 31718 C 3092.27 0.75895 -1.80276 0
M  V30 31719 O 3093.48 1.18209 -2.44416 0
M  V30 31720 C 3091.93 -1.22911 -3.38262 0
M  V30 31721 C 3091.54 -2.73091 -3.55142 0
M  V30 31722 C 3093.28 -0.994722 -4.12681 0
M  V30 31723 C 3091.19 -3.17906 -4.98688 0
M  V30 31724 H 3090.12 -0.263869 -0.706321 0
M  V30 31725 H 3092.77 -1.23939 -1.3532 0
M  V30 31726 H 3091.15 -0.632961 -3.90909 0
M  V30 31727 H 3092.33 -3.38332 -3.12839 0
M  V30 31728 H 3090.64 -2.94771 -2.94107 0
M  V30 31729 H 3093.24 -1.30487 -5.18534 0
M  V30 31730 H 3093.58 0.0685734 -4.16244 0
M  V30 31731 H 3094.12 -1.5547 -3.66161 0
M  V30 31732 H 3090.85 -4.2355 -5.00285 0
M  V30 31733 H 3090.37 -2.57391 -5.41766 0
M  V30 31734 H 3092.05 -3.11055 -5.67322 0
M  V30 31735 N 3092.19 1.35612 -0.802945 0
M  V30 31736 C 3093.1 2.33638 -0.212218 0
M  V30 31737 C 3094.11 1.6169 0.642842 0
M  V30 31738 O 3095.29 1.93589 0.555451 0
M  V30 31739 C 3092.35 3.40885 0.632346 0
M  V30 31740 C 3091.41 4.28613 -0.242783 0
M  V30 31741 C 3090.65 5.30737 0.561567 0
M  V30 31742 O 3090.87 5.41369 1.79654 0
M  V30 31743 O 3089.8 6.01883 -0.0456445 0
M  V30 31744 H 3093.63 2.8595 -1.02305 0
M  V30 31745 H 3091.21 1.38318 -0.564661 0
M  V30 31746 H 3093.1 4.06422 1.11351 0
M  V30 31747 H 3091.77 2.9085 1.42084 0
M  V30 31748 H 3090.68 3.66069 -0.771005 0
M  V30 31749 H 3092.01 4.82035 -0.99513 0
M  V30 31750 N 3093.66 0.556128 1.47462 0
M  V30 31751 C 3094.59 -0.180456 2.32802 0
M  V30 31752 C 3095.57 -0.909823 1.43723 0
M  V30 31753 O 3096.76 -0.8905 1.7258 0
M  V30 31754 C 3093.89 -1.21161 3.2548 0
M  V30 31755 C 3092.84 -0.598771 4.23791 0
M  V30 31756 C 3092.17 -1.73448 5.05786 0
M  V30 31757 C 3093.47 0.44675 5.20386 0
M  V30 31758 H 3095.16 0.532007 2.94635 0
M  V30 31759 H 3092.71 0.257292 1.41683 0
M  V30 31760 H 3094.66 -1.73506 3.84023 0
M  V30 31761 H 3093.39 -1.954 2.61699 0
M  V30 31762 H 3092.05 -0.0966253 3.66473 0
M  V30 31763 H 3091.69 -2.46589 4.3841 0
M  V30 31764 H 3091.39 -1.33021 5.72345 0
M  V30 31765 H 3092.92 -2.26121 5.67187 0
M  V30 31766 H 3094.33 0.00940096 5.73299 0
M  V30 31767 H 3092.73 0.76984 5.95142 0
M  V30 31768 H 3093.8 1.34303 4.6593 0
M  V30 31769 N 3095.14 -1.54861 0.292527 0
M  V30 31770 C 3096.37 -2.04378 -0.322078 0
M  V30 31771 C 3096.78 -1.17019 -1.48162 0
M  V30 31772 O 3096.14 -0.193982 -1.81466 0
M  V30 31773 C 3096.19 -3.52842 -0.786444 0
M  V30 31774 O 3095.91 -4.36878 0.326939 0
M  V30 31775 C 3097.41 -4.1832 -1.46708 0
M  V30 31776 H 3094.63 -0.667212 -0.0711956 0
M  V30 31777 H 3097.18 -1.99935 0.429692 0
M  V30 31778 H 3095.33 -3.57673 -1.48826 0
M  V30 31779 H 3095.75 -5.2449 -0.0330636 0
M  V30 31780 H 3097.22 -5.23751 -1.74324 0
M  V30 31781 H 3097.7 -3.67542 -2.40436 0
M  V30 31782 H 3098.3 -4.17541 -0.808662 0
M  V30 31783 N 3096.62 -0.0200973 -1.57587 0
M  V30 31784 C 3097.86 0.664756 -1.93288 0
M  V30 31785 C 3098.22 1.69808 -0.896052 0
M  V30 31786 O 3099.42 2.43477 -1.13896 0
M  V30 31787 C 3097.7 1.27322 -3.33952 0
M  V30 31788 S 3099.25 1.98041 -3.91568 0
M  V30 31789 H 3096.07 0.219094 -0.676401 0
M  V30 31790 H 3098.67 -0.0816023 -1.9533 0
M  V30 31791 H 3097.38 0.508601 -4.07236 0
M  V30 31792 H 3096.91 2.05708 -3.35332 0
M  V30 31793 H 3098.92 3.25785 -3.74271 0
M  V30 31794 N 3098.1 1.55557 0.252939 0
M  V30 31795 C 3099.33 1.81154 0.999533 0
M  V30 31796 C 3099.74 0.594986 1.7918 0
M  V30 31797 O 3099.1 -0.43628 1.77208 0
M  V30 31798 C 3099.15 3.04894 1.94221 0
M  V30 31799 O 3098.87 4.21853 1.18202 0
M  V30 31800 C 3100.37 3.43246 2.8053 0
M  V30 31801 H 3097.59 0.602971 0.294392 0
M  V30 31802 H 3100.13 2.02606 0.277651 0
M  V30 31803 H 3098.29 2.8551 2.61845 0
M  V30 31804 H 3098.7 4.91943 1.81913 0
M  V30 31805 H 3100.18 4.32947 3.42434 0
M  V30 31806 H 3100.65 2.63557 3.51333 0
M  V30 31807 H 3101.26 3.6496 2.18367 0
M  V30 31808 N 3099.58 -0.518341 1.48832 0
M  V30 31809 C 3100.52 -1.62175 1.64219 0
M  V30 31810 C 3101.49 -1.58893 0.48397 0
M  V30 31811 O 3102.68 -1.77142 0.708888 0
M  V30 31812 C 3099.82 -3.00396 1.69872 0
M  V30 31813 C 3098.93 -3.13824 2.96881 0
M  V30 31814 C 3098.07 -4.42674 2.93621 0
M  V30 31815 C 3097.1 -4.49673 4.15284 0
M  V30 31816 N 3096.24 -5.69927 4.10034 0
M  V30 31817 H 3101.08 -1.48364 2.58442 0
M  V30 31818 H 3098.62 -0.72213 1.28155 0
M  V30 31819 H 3100.58 -3.80487 1.71131 0
M  V30 31820 H 3099.21 -3.12951 0.791304 0
M  V30 31821 H 3098.26 -2.26909 3.05314 0
M  V30 31822 H 3099.57 -3.14856 3.86868 0
M  V30 31823 H 3098.72 -5.31068 2.93346 0
M  V30 31824 H 3097.46 -4.4418 2.01383 0
M  V30 31825 H 3096.47 -3.59684 4.15822 0
M  V30 31826 H 3097.69 -4.49895 5.08695 0
M  V30 31827 H 3095.64 -5.72308 3.20623 0
M  V30 31828 H 3095.56 -5.72502 4.93738 0
M  V30 31829 H 3096.82 -6.60576 4.13836 0
M  V30 31830 N 3101.05 -1.37615 -0.7681 0
M  V30 31831 C 3102.28 -1.36227 -1.55723 0
M  V30 31832 C 3102.7 0.0515025 -1.8873 0
M  V30 31833 O 3102.05 1.01427 -1.5172 0
M  V30 31834 C 3102.1 -2.20417 -2.86529 0
M  V30 31835 O 3101.83 -3.56285 -2.54936 0
M  V30 31836 C 3103.33 -2.27048 -3.80741 0
M  V30 31837 H 3100.55 -0.466489 -0.482317 0
M  V30 31838 H 3103.09 -1.81004 -0.951729 0
M  V30 31839 H 3101.25 -1.7914 -3.43493 0
M  V30 31840 H 3101.66 -4.00457 -3.38725 0
M  V30 31841 H 3103.13 -2.90271 -4.69518 0
M  V30 31842 H 3103.61 -1.27995 -4.20136 0
M  V30 31843 H 3104.22 -2.68653 -3.29705 0
M  V30 31844 N 3102.53 0.994677 -1.22245 0
M  V30 31845 C 3103.78 1.73653 -1.04749 0
M  V30 31846 C 3104.11 1.89678 0.416646 0
M  V30 31847 O 3103.39 1.43865 1.30894 0
M  V30 31848 C 3103.67 3.14315 -1.75722 0
M  V30 31849 C 3103.52 3.0595 -3.29719 0
M  V30 31850 C 3104.84 4.13452 -1.50816 0
M  V30 31851 H 3101.96 0.630315 -0.381932 0
M  V30 31852 H 3104.6 1.15894 -1.50561 0
M  V30 31853 H 3102.75 3.63627 -1.36776 0
M  V30 31854 H 3104.42 2.64272 -3.78098 0
M  V30 31855 H 3102.67 2.42797 -3.59488 0
M  V30 31856 H 3103.34 4.05479 -3.74554 0
M  V30 31857 H 3105.81 3.72889 -1.84643 0
M  V30 31858 H 3104.69 5.09993 -2.02973 0
M  V30 31859 H 3104.95 4.39901 -0.44037 0
M  V30 31860 N 3104.01 1.03186 1.19123 0
M  V30 31861 C 3105.26 0.728621 1.88509 0
M  V30 31862 C 3105.58 -0.745279 1.80196 0
M  V30 31863 O 3104.85 -1.53718 1.2144 0
M  V30 31864 H 3103.43 0.266523 0.697836 0
M  V30 31865 H 3106.09 1.30673 1.44605 0
M  V30 31866 H 3105.19 1.02559 2.94768 0
M  V30 31867 N 3105.49 -1.35184 0.810125 0
M  V30 31868 C 3106.9 -1.51753 0.494295 0
M  V30 31869 C 3107.1 -1.75847 -0.983876 0
M  V30 31870 O 3106.16 -1.80195 -1.76879 0
M  V30 31871 C 3107.47 -2.69056 1.34272 0
M  V30 31872 C 3109.02 -2.82935 1.33853 0
M  V30 31873 C 3109.5 -4.03268 2.17116 0
M  V30 31874 N 3110.99 -4.10452 2.14671 0
M  V30 31875 C 3111.72 -5.02686 2.75852 0
M  V30 31876 N 3111.22 -6.00229 3.45973 0
M  V30 31877 N 3113.01 -4.95459 2.65474 0
M  V30 31878 H 3105.16 -1.17802 1.76738 0
M  V30 31879 H 3107.43 -0.576663 0.752439 0
M  V30 31880 H 3107.13 -2.57841 2.39188 0
M  V30 31881 H 3107.01 -3.63746 0.998426 0
M  V30 31882 H 3109.39 -2.93599 0.297212 0
M  V30 31883 H 3109.47 -1.89092 1.72272 0
M  V30 31884 H 3109.12 -3.93364 3.2129 0
M  V30 31885 H 3109.05 -4.96299 1.76054 0
M  V30 31886 H 3111.54 -3.40626 1.63654 0
M  V30 31887 H 3111.85 -6.67212 3.89934 0
M  V30 31888 H 3110.2 -6.00392 3.50078 0
M  V30 31889 H 3113.39 -4.18212 2.10278 0
M  V30 31890 H 3113.56 -5.67149 3.13443 0
M  V30 31891 N 3106.97 -0.56394 -1.47165 0
M  V30 31892 C 3108.38 -0.13234 -1.8623 0
M  V30 31893 C 3108.73 1.29969 -1.46978 0
M  V30 31894 O 3107.85 1.97879 -0.875946 0
M  V30 31895 C 3108.45 -0.233394 -3.37995 0
M  V30 31896 C 3107.01 0.143212 -3.76127 0
M  V30 31897 C 3106.15 -0.577905 -2.71211 0
M  V30 31898 H 3109.11 -0.773273 -1.38586 0
M  V30 31899 H 3109.13 0.546243 -3.76559 0
M  V30 31900 H 3108.64 -1.27574 -3.66533 0
M  V30 31901 H 3106.74 1.18641 -3.53207 0
M  V30 31902 H 3106.85 -0.220036 -4.78594 0
M  V30 31903 H 3105.22 -0.0202308 -2.54692 0
M  V30 31904 H 3106 -1.62154 -3.0259 0
M  V30 31905 N 3108.44 1.54704 -0.300735 0
M  V30 31906 C 3109.41 2.22188 0.562609 0
M  V30 31907 C 3110.41 1.20784 1.0615 0
M  V30 31908 O 3111.6 1.45521 0.957571 0
M  V30 31909 C 3108.73 2.90804 1.77894 0
M  V30 31910 H 3109.92 2.99888 -0.0269888 0
M  V30 31911 H 3107.48 1.56215 -0.0515687 0
M  V30 31912 H 3108.21 2.17182 2.40837 0
M  V30 31913 H 3108 3.65138 1.42886 0
M  V30 31914 H 3109.49 3.42285 2.3923 0
M  V30 31915 N 3109.92 0.0284543 1.57574 0
M  V30 31916 C 3111.17 -0.65033 1.91773 0
M  V30 31917 C 3111.5 -1.72173 0.904799 0
M  V30 31918 O 3110.75 -1.95509 -0.0863695 0
M  V30 31919 C 3111.05 -1.30555 3.32701 0
M  V30 31920 C 3110.72 -0.364579 4.49424 0
M  V30 31921 C 3109.38 -0.105587 4.81084 0
M  V30 31922 C 3111.73 0.281601 5.20439 0
M  V30 31923 C 3109.06 0.807402 5.81118 0
M  V30 31924 C 3111.41 1.18264 6.21447 0
M  V30 31925 C 3110.08 1.45053 6.51549 0
M  V30 31926 H 3109.35 -0.237973 0.701748 0
M  V30 31927 H 3111.99 0.0900785 1.91288 0
M  V30 31928 H 3110.3 -2.12069 3.29445 0
M  V30 31929 H 3111.99 -1.83729 3.56433 0
M  V30 31930 H 3108.58 -0.576617 4.24704 0
M  V30 31931 H 3112.77 0.0945678 4.9621 0
M  V30 31932 H 3108.02 1.02266 6.02787 0
M  V30 31933 H 3112.2 1.68954 6.75594 0
M  V30 31934 H 3109.83 2.15964 7.28878 0
M  V30 31935 N 3111.4 -1.55689 -0.244686 0
M  V30 31936 C 3112.35 -1.90502 -1.30298 0
M  V30 31937 C 3113.32 -0.759504 -1.47718 0
M  V30 31938 O 3114.5 -1.01336 -1.61666 0
M  V30 31939 C 3111.64 -2.20708 -2.65296 0
M  V30 31940 C 3110.76 -3.48076 -2.55866 0
M  V30 31941 C 3109.89 -3.67841 -3.83232 0
M  V30 31942 C 3108.93 -4.88802 -3.68428 0
M  V30 31943 N 3108.07 -5.05076 -4.87691 0
M  V30 31944 H 3112.91 -2.80753 -0.999094 0
M  V30 31945 H 3110.44 -1.38976 -0.482074 0
M  V30 31946 H 3112.4 -2.36226 -3.4388 0
M  V30 31947 H 3111.03 -1.33658 -2.93829 0
M  V30 31948 H 3110.08 -3.40877 -1.6884 0
M  V30 31949 H 3111.4 -4.36805 -2.40838 0
M  V30 31950 H 3110.55 -3.8333 -4.70259 0
M  V30 31951 H 3109.29 -2.77349 -4.0116 0
M  V30 31952 H 3108.29 -4.73287 -2.79784 0
M  V30 31953 H 3109.52 -5.80756 -3.51993 0
M  V30 31954 H 3107.46 -4.17522 -5.05976 0
M  V30 31955 H 3107.38 -5.87898 -4.75302 0
M  V30 31956 H 3108.65 -5.24979 -5.7621 0
M  V30 31957 N 3112.88 0.510441 -1.49105 0
M  V30 31958 C 3114.29 0.840773 -1.35658 0
M  V30 31959 C 3114.49 1.97837 -0.382459 0
M  V30 31960 O 3113.55 2.5179 0.189286 0
M  V30 31961 C 3114.86 1.18987 -2.76157 0
M  V30 31962 C 3116.41 1.29863 -2.84789 0
M  V30 31963 C 3116.89 1.68107 -4.26033 0
M  V30 31964 N 3118.38 1.75174 -4.28799 0
M  V30 31965 C 3119.11 2.06191 -5.35045 0
M  V30 31966 N 3118.61 2.35496 -6.51547 0
M  V30 31967 N 3120.4 2.07362 -5.22453 0
M  V30 31968 H 3112.55 -0.239857 -2.11041 0
M  V30 31969 H 3114.82 -0.044699 -0.946946 0
M  V30 31970 H 3114.52 0.427423 -3.49093 0
M  V30 31971 H 3114.4 2.13553 -3.10926 0
M  V30 31972 H 3116.78 2.05182 -2.12095 0
M  V30 31973 H 3116.86 0.333713 -2.53614 0
M  V30 31974 H 3116.51 0.933424 -4.99249 0
M  V30 31975 H 3116.44 2.65683 -4.54665 0
M  V30 31976 H 3118.93 1.54724 -3.44773 0
M  V30 31977 H 3119.24 2.58325 -7.28346 0
M  V30 31978 H 3117.59 2.32973 -6.54789 0
M  V30 31979 H 3120.78 1.83937 -4.30447 0
M  V30 31980 H 3120.95 2.31201 -6.05351 0
M  V30 31981 N 3114.36 1.38021 0.760791 0
M  V30 31982 C 3115.6 1.33833 1.5197 0
M  V30 31983 C 3115.93 -0.0738513 1.9436 0
M  V30 31984 O 3115.19 -1.04943 1.65183 0
M  V30 31985 C 3115.49 2.23344 2.7902 0
M  V30 31986 C 3115.15 3.71436 2.55629 0
M  V30 31987 C 3113.81 4.11792 2.48959 0
M  V30 31988 C 3116.17 4.65209 2.3501 0
M  V30 31989 C 3113.49 5.44022 2.19674 0
M  V30 31990 C 3115.85 5.97688 2.07248 0
M  V30 31991 C 3114.51 6.37137 1.99029 0
M  V30 31992 H 3113.78 0.489729 0.556099 0
M  V30 31993 H 3116.43 1.70319 0.87542 0
M  V30 31994 H 3114.73 1.79889 3.48062 0
M  V30 31995 H 3116.43 2.17411 3.36947 0
M  V30 31996 H 3113.02 3.39436 2.61689 0
M  V30 31997 H 3117.2 4.34882 2.39147 0
M  V30 31998 H 3112.46 5.73537 2.11814 0
M  V30 31999 H 3116.63 6.69896 1.90295 0
M  V30 32000 H 3114.26 7.39522 1.76102 0
M  V30 32001 N 3115.83 -0.98818 1.22771 0
M  V30 32002 C 3117.11 -1.70222 0.96353 0
M  V30 32003 C 3117.49 -2.04594 -0.520066 0
M  V30 32004 O 3116.84 -1.73297 -1.48931 0
M  V30 32005 C 3117.05 -2.94934 1.86588 0
M  V30 32006 C 3118.4 -3.67613 2.12476 0
M  V30 32007 O 3119.42 -3.04951 1.84075 0
M  V30 32008 O 3118.28 -4.80363 2.60603 0
M  V30 32009 H 3115.37 -0.743197 0.36275 0
M  V30 32010 H 3117.92 -1.0441 1.33778 0
M  V30 32011 H 3116.69 -2.66071 2.86918 0
M  V30 32012 H 3116.32 -3.68484 1.49351 0
M  V30 32013 N 3117.31 -1.03816 -1.18575 0
M  V30 32014 C 3118.56 -0.735268 -1.87821 0
M  V30 32015 C 3118.87 0.739787 -1.8107 0
M  V30 32016 O 3120.08 1.1561 -2.45656 0
M  V30 32017 C 3118.54 -1.26492 -3.36939 0
M  V30 32018 C 3118.14 -2.76842 -3.52225 0
M  V30 32019 C 3119.89 -1.03844 -4.11603 0
M  V30 32020 C 3117.8 -3.23178 -4.95288 0
M  V30 32021 H 3116.73 -0.271346 -0.703482 0
M  V30 32022 H 3119.38 -1.25367 -1.33998 0
M  V30 32023 H 3117.76 -0.674386 -3.90215 0
M  V30 32024 H 3118.93 -3.41631 -3.09233 0
M  V30 32025 H 3117.25 -2.97874 -2.90964 0
M  V30 32026 H 3119.84 -1.35979 -5.17121 0
M  V30 32027 H 3120.19 0.0244213 -4.16293 0
M  V30 32028 H 3120.72 -1.59345 -3.64492 0
M  V30 32029 H 3117.46 -4.28833 -4.95765 0
M  V30 32030 H 3116.98 -2.63123 -5.39005 0
M  V30 32031 H 3118.66 -3.17055 -5.6399 0
M  V30 32032 N 3118.79 1.34753 -0.817283 0
M  V30 32033 C 3120.07 1.92873 -0.325502 0
M  V30 32034 C 3120.45 1.74608 1.1864 0
M  V30 32035 O 3119.8 1.12144 1.99088 0
M  V30 32036 C 3120.01 3.40876 -0.74864 0
M  V30 32037 C 3121.35 4.18027 -0.744238 0
M  V30 32038 O 3122.38 3.49436 -0.69086 0
M  V30 32039 O 3121.24 5.40429 -0.812302 0
M  V30 32040 H 3118.33 0.822342 -0.0876542 0
M  V30 32041 H 3120.88 1.43762 -0.901696 0
M  V30 32042 H 3119.65 3.47946 -1.79023 0
M  V30 32043 H 3119.27 3.97325 -0.147833 0
M  V30 32044 N 3120.27 0.571737 1.46864 0
M  V30 32045 C 3121.49 0.0565019 2.07323 0
M  V30 32046 C 3121.92 -1.23429 1.4194 0
M  V30 32047 O 3121.28 -1.74287 0.499364 0
M  V30 32048 C 3121.33 -0.107276 3.6044 0
M  V30 32049 O 3120.43 -1.16643 3.95561 0
M  V30 32050 H 3119.77 0.0578581 0.661474 0
M  V30 32051 H 3122.3 0.791558 1.88668 0
M  V30 32052 H 3122.31 -0.316915 4.06767 0
M  V30 32053 H 3120.99 0.83542 4.07423 0
M  V30 32054 H 3119.56 -0.936125 3.60959 0
M  V30 32055 N 3121.75 -1.54542 0.308935 0
M  V30 32056 C 3122.99 -2.02205 -0.298775 0
M  V30 32057 C 3123.35 -1.19244 -1.50482 0
M  V30 32058 O 3124.55 -1.56641 -2.18442 0
M  V30 32059 C 3122.82 -3.51645 -0.638787 0
M  V30 32060 S 3124.38 -4.2126 -1.22823 0
M  V30 32061 H 3121.2 -0.70512 -0.0912514 0
M  V30 32062 H 3123.8 -1.90515 0.438655 0
M  V30 32063 H 3122.51 -4.09654 0.247332 0
M  V30 32064 H 3122.04 -3.67386 -1.4068 0
M  V30 32065 H 3124.05 -4.27698 -2.51572 0
M  V30 32066 N 3123.23 -0.0368104 -1.57557 0
M  V30 32067 C 3124.45 0.650133 -1.9642 0
M  V30 32068 C 3124.87 1.65219 -0.913685 0
M  V30 32069 O 3124.23 1.82205 0.103686 0
M  V30 32070 C 3124.28 1.34974 -3.35357 0
M  V30 32071 O 3124 0.387828 -4.3638 0
M  V30 32072 C 3125.5 2.12779 -3.88896 0
M  V30 32073 H 3122.72 0.178745 -0.646754 0
M  V30 32074 H 3125.26 -0.0988556 -2.04261 0
M  V30 32075 H 3123.42 2.05007 -3.28711 0
M  V30 32076 H 3123.83 0.885506 -5.16971 0
M  V30 32077 H 3125.31 2.57172 -4.88433 0
M  V30 32078 H 3125.78 2.97003 -3.23552 0
M  V30 32079 H 3126.39 1.47687 -3.98834 0
M  V30 32080 N 3124.7 1.55817 0.236426 0
M  V30 32081 C 3125.93 1.8194 0.978841 0
M  V30 32082 C 3126.34 0.611678 1.79039 0
M  V30 32083 O 3125.68 -0.429141 1.78617 0
M  V30 32084 C 3125.75 3.01575 1.95685 0
M  V30 32085 C 3125.41 4.37181 1.33124 0
M  V30 32086 C 3126.41 5.14771 0.728495 0
M  V30 32087 C 3124.09 4.83889 1.34746 0
M  V30 32088 C 3126.09 6.37223 0.150315 0
M  V30 32089 C 3123.77 6.06287 0.765432 0
M  V30 32090 C 3124.77 6.82794 0.167896 0
M  V30 32091 O 3124.46 8.02879 -0.405117 0
M  V30 32092 H 3124.19 0.609118 0.293175 0
M  V30 32093 H 3126.75 2.03731 0.261349 0
M  V30 32094 H 3124.98 2.75566 2.71293 0
M  V30 32095 H 3126.66 3.147 2.56357 0
M  V30 32096 H 3127.43 4.79799 0.708392 0
M  V30 32097 H 3123.31 4.24324 1.80195 0
M  V30 32098 H 3126.85 6.96881 -0.316708 0
M  V30 32099 H 3122.75 6.40735 0.782897 0
M  V30 32100 H 3123.52 8.17957 -0.297993 0
M  V30 32101 N 3126.18 -0.502526 1.49373 0
M  V30 32102 C 3127.41 -1.27895 1.62254 0
M  V30 32103 C 3127.82 -1.86924 0.292588 0
M  V30 32104 O 3127.16 -1.68495 -0.731794 0
M  V30 32105 C 3127.22 -2.44925 2.63158 0
M  V30 32106 C 3126.89 -2.06777 4.07544 0
M  V30 32107 C 3127.89 -1.6084 4.94395 0
M  V30 32108 C 3125.57 -2.16459 4.53267 0
M  V30 32109 C 3127.56 -1.25087 6.25006 0
M  V30 32110 C 3125.25 -1.80317 5.83891 0
M  V30 32111 C 3126.25 -1.34706 6.69584 0
M  V30 32112 O 3125.94 -0.990521 7.97774 0
M  V30 32113 H 3125.67 -0.39417 0.549187 0
M  V30 32114 H 3128.22 -0.609997 1.96133 0
M  V30 32115 H 3126.45 -3.14891 2.24456 0
M  V30 32116 H 3128.14 -3.06953 2.65584 0
M  V30 32117 H 3128.91 -1.52808 4.60299 0
M  V30 32118 H 3124.79 -2.50912 3.86735 0
M  V30 32119 H 3128.33 -0.894147 6.91846 0
M  V30 32120 H 3124.23 -1.87999 6.17517 0
M  V30 32121 H 3125 -1.12212 8.10772 0
M  V30 32122 N 3127.66 -1.38422 -0.75346 0
M  V30 32123 C 3128.91 -1.34637 -1.51259 0
M  V30 32124 C 3129.23 0.0635429 -1.94396 0
M  V30 32125 O 3128.49 1.04065 -1.65738 0
M  V30 32126 C 3128.79 -2.24821 -2.77832 0
M  V30 32127 C 3128.45 -3.72786 -2.53656 0
M  V30 32128 C 3127.12 -4.13107 -2.46771 0
M  V30 32129 C 3129.47 -4.66449 -2.3254 0
M  V30 32130 C 3126.8 -5.45179 -2.16786 0
M  V30 32131 C 3129.15 -5.98779 -2.04075 0
M  V30 32132 C 3127.81 -6.38184 -1.95647 0
M  V30 32133 H 3127.08 -0.492671 -0.553494 0
M  V30 32134 H 3129.73 -1.70781 -0.866376 0
M  V30 32135 H 3128.03 -1.81732 -3.47103 0
M  V30 32136 H 3129.73 -2.19195 -3.35789 0
M  V30 32137 H 3126.32 -3.40819 -2.59885 0
M  V30 32138 H 3130.51 -4.36144 -2.36837 0
M  V30 32139 H 3125.76 -5.74652 -2.0877 0
M  V30 32140 H 3129.94 -6.70896 -1.8674 0
M  V30 32141 H 3127.56 -7.40445 -1.72177 0
M  V30 32142 N 3129.14 0.981655 -1.23294 0
M  V30 32143 C 3130.36 1.76337 -1.09179 0
M  V30 32144 C 3130.79 1.84764 0.352693 0
M  V30 32145 O 3130.15 1.30834 1.25507 0
M  V30 32146 C 3130.19 3.16908 -1.72051 0
M  V30 32147 O 3129.3 4.00542 -0.98181 0
M  V30 32148 H 3128.64 0.542575 -0.382764 0
M  V30 32149 H 3131.17 1.23237 -1.63322 0
M  V30 32150 H 3131.18 3.67492 -1.77238 0
M  V30 32151 H 3129.85 3.1009 -2.77159 0
M  V30 32152 H 3128.43 3.59052 -1.00679 0
M  V30 32153 N 3130.62 1.04444 1.18022 0
M  V30 32154 C 3131.86 0.76094 1.8863 0
M  V30 32155 C 3132.22 -0.703926 1.7906 0
M  V30 32156 O 3131.51 -1.50746 1.18264 0
M  V30 32157 C 3131.7 1.16637 3.37832 0
M  V30 32158 C 3131.53 2.6691 3.61924 0
M  V30 32159 C 3130.3 3.34112 3.79074 0
M  V30 32160 C 3132.5 3.65131 3.62193 0
M  V30 32161 N 3130.48 4.73327 3.9094 0
M  V30 32162 C 3131.85 4.90039 3.79819 0
M  V30 32163 C 3133.91 3.58707 3.45302 0
M  V30 32164 C 3132.61 6.09293 3.82301 0
M  V30 32165 C 3134.64 4.77393 3.49069 0
M  V30 32166 C 3134 6.01122 3.67195 0
M  V30 32167 H 3130.1 0.330562 0.708698 0
M  V30 32168 H 3132.68 1.33488 1.41736 0
M  V30 32169 H 3130.85 0.620467 3.83412 0
M  V30 32170 H 3132.59 0.83349 3.96024 0
M  V30 32171 H 3129.34 2.84514 3.78614 0
M  V30 32172 H 3129.76 5.45692 4.00686 0
M  V30 32173 H 3134.41 2.64021 3.30232 0
M  V30 32174 H 3132.12 7.04332 3.96159 0
M  V30 32175 H 3135.71 4.74068 3.37269 0
M  V30 32176 H 3134.59 6.91423 3.70005 0
M  V30 32177 N 3132.09 -1.34317 0.824418 0
M  V30 32178 C 3133.37 -1.92697 0.335726 0
M  V30 32179 C 3133.75 -1.75234 -1.17712 0
M  V30 32180 O 3133.1 -1.13198 -1.98491 0
M  V30 32181 C 3133.31 -3.40474 0.766706 0
M  V30 32182 C 3134.66 -4.17626 0.766397 0
M  V30 32183 O 3135.68 -3.49065 0.709382 0
M  V30 32184 O 3134.54 -5.39991 0.840951 0
M  V30 32185 H 3131.63 -0.821865 0.092014 0
M  V30 32186 H 3134.18 -1.43282 0.909308 0
M  V30 32187 H 3132.95 -3.46992 1.80865 0
M  V30 32188 H 3132.57 -3.97241 0.168902 0
M  V30 32189 N 3133.57 -0.579517 -1.46558 0
M  V30 32190 C 3134.8 -0.067496 -2.0729 0
M  V30 32191 C 3135.22 1.22674 -1.42593 0
M  V30 32192 O 3134.58 1.7402 -0.5086 0
M  V30 32193 C 3134.63 0.0881594 -3.60492 0
M  V30 32194 O 3133.73 1.14544 -3.96174 0
M  V30 32195 H 3133.07 -0.0613652 -0.661158 0
M  V30 32196 H 3135.6 -0.801552 -1.88245 0
M  V30 32197 H 3135.61 0.295339 -4.0693 0
M  V30 32198 H 3134.29 -0.857015 -4.06974 0
M  V30 32199 H 3132.86 0.916969 -3.6145 0
M  V30 32200 N 3135.05 1.54376 -0.317127 0
M  V30 32201 C 3136.47 1.5956 0.035738 0
M  V30 32202 C 3136.67 1.33381 1.51036 0
M  V30 32203 O 3135.72 1.11509 2.26544 0
M  V30 32204 C 3137.04 2.98331 -0.376705 0
M  V30 32205 C 3138.58 3.11289 -0.32682 0
M  V30 32206 C 3139.06 4.52395 -0.714327 0
M  V30 32207 N 3140.55 4.58365 -0.667483 0
M  V30 32208 C 3141.28 5.65649 -0.939594 0
M  V30 32209 N 3140.78 6.80901 -1.27851 0
M  V30 32210 N 3142.57 5.55395 -0.865582 0
M  V30 32211 H 3134.72 1.69651 -1.27797 0
M  V30 32212 H 3136.99 0.793171 -0.519214 0
M  V30 32213 H 3136.69 3.22466 -1.40386 0
M  V30 32214 H 3136.57 3.76292 0.261544 0
M  V30 32215 H 3138.95 2.86893 0.69112 0
M  V30 32216 H 3139.04 2.35447 -0.999915 0
M  V30 32217 H 3138.68 4.77523 -1.73015 0
M  V30 32218 H 3138.61 5.26597 -0.0189888 0
M  V30 32219 H 3141.1 3.75591 -0.417128 0
M  V30 32220 H 3141.41 7.58658 -1.47169 0
M  V30 32221 H 3139.76 6.82413 -1.3167 0
M  V30 32222 H 3142.95 4.64234 -0.600346 0
M  V30 32223 H 3143.12 6.3892 -1.08101 0
M  V30 32224 N 3136.53 0.0451655 1.57535 0
M  V30 32225 C 3137.49 -0.916424 2.10082 0
M  V30 32226 C 3138.49 -1.24378 1.01915 0
M  V30 32227 O 3139.68 -1.18146 1.28012 0
M  V30 32228 C 3136.81 -2.22814 2.58005 0
M  V30 32229 H 3138.01 -0.461024 2.96335 0
M  V30 32230 H 3135.56 -0.203142 1.54974 0
M  V30 32231 H 3136.29 -2.72948 1.75128 0
M  V30 32232 H 3136.08 -2.0036 3.37044 0
M  V30 32233 H 3137.57 -2.91705 2.98828 0
M  V30 32234 N 3138.01 -1.5594 -0.228159 0
M  V30 32235 C 3138.97 -1.91051 -1.26618 0
M  V30 32236 C 3139.97 -0.788516 -1.40139 0
M  V30 32237 O 3141.16 -1.05633 -1.38518 0
M  V30 32238 C 3138.29 -2.1555 -2.64104 0
M  V30 32239 H 3139.48 -2.83885 -0.966928 0
M  V30 32240 H 3137.04 -1.4912 -0.468287 0
M  V30 32241 H 3137.77 -1.25247 -2.99138 0
M  V30 32242 H 3137.56 -2.97282 -2.55668 0
M  V30 32243 H 3139.05 -2.43833 -3.39021 0
M  V30 32244 N 3139.48 0.494597 -1.49638 0
M  V30 32245 C 3140.72 1.25841 -1.61069 0
M  V30 32246 C 3141.09 1.8974 -0.293699 0
M  V30 32247 O 3142.29 2.67303 -0.283249 0
M  V30 32248 C 3140.56 2.2921 -2.74222 0
M  V30 32249 S 3142.12 3.14845 -3.05644 0
M  V30 32250 H 3138.94 0.42758 -0.568064 0
M  V30 32251 H 3141.54 0.559458 -1.87324 0
M  V30 32252 H 3140.24 1.80807 -3.68425 0
M  V30 32253 H 3139.77 3.03766 -2.4998 0
M  V30 32254 H 3141.79 4.29977 -2.47658 0
M  V30 32255 N 3140.96 1.3882 0.746109 0
M  V30 32256 C 3141.93 1.36441 1.84165 0
M  V30 32257 C 3142.93 0.263527 1.58626 0
M  V30 32258 O 3144.12 0.52083 1.66232 0
M  V30 32259 C 3141.25 1.12601 3.21767 0
M  V30 32260 H 3142.44 2.33915 1.8768 0
M  V30 32261 H 3139.99 1.24222 0.948603 0
M  V30 32262 H 3140.73 0.157637 3.23917 0
M  V30 32263 H 3140.51 1.92313 3.41699 0
M  V30 32264 H 3142 1.1365 4.01838 0
M  V30 32265 N 3142.44 -0.975103 1.23812 0
M  V30 32266 C 3143.69 -1.71965 1.07498 0
M  V30 32267 C 3144.02 -1.90317 -0.386417 0
M  V30 32268 O 3143.29 -1.45929 -1.28589 0
M  V30 32269 C 3143.58 -3.1148 1.807 0
M  V30 32270 C 3143.43 -3.00665 3.34545 0
M  V30 32271 C 3144.75 -4.11 1.57375 0
M  V30 32272 H 3141.87 -0.624159 0.391911 0
M  V30 32273 H 3144.51 -1.13484 1.52385 0
M  V30 32274 H 3142.66 -3.61405 1.42544 0
M  V30 32275 H 3144.33 -2.58224 3.82254 0
M  V30 32276 H 3142.58 -2.37047 3.63306 0
M  V30 32277 H 3143.25 -3.99469 3.80958 0
M  V30 32278 H 3145.72 -3.69904 1.90552 0
M  V30 32279 H 3144.6 -5.067 2.11061 0
M  V30 32280 H 3144.86 -4.39145 0.510298 0
M  V30 32281 N 3143.92 -1.05068 -1.17467 0
M  V30 32282 C 3144.87 -0.650551 -2.21442 0
M  V30 32283 C 3145.84 0.346674 -1.62442 0
M  V30 32284 O 3147.02 0.238371 -1.89305 0
M  V30 32285 C 3144.16 -0.0301621 -3.45087 0
M  V30 32286 C 3143.27 -1.07607 -4.18384 0
M  V30 32287 C 3142.41 -0.423131 -5.29512 0
M  V30 32288 C 3141.45 -1.45343 -5.94594 0
M  V30 32289 N 3140.58 -0.824745 -6.97239 0
M  V30 32290 H 3145.42 -1.54167 -2.55022 0
M  V30 32291 H 3142.96 -0.771054 -1.25272 0
M  V30 32292 H 3144.92 0.346959 -4.15755 0
M  V30 32293 H 3143.55 0.824426 -3.12095 0
M  V30 32294 H 3142.6 -1.57103 -3.46443 0
M  V30 32295 H 3143.91 -1.85821 -4.62895 0
M  V30 32296 H 3143.07 0.00764311 -6.067 0
M  V30 32297 H 3141.81 0.391007 -4.8613 0
M  V30 32298 H 3140.81 -1.89424 -5.16138 0
M  V30 32299 H 3142.04 -2.26945 -6.40057 0
M  V30 32300 H 3139.98 -0.0310957 -6.55993 0
M  V30 32301 H 3139.9 -1.54445 -7.40056 0
M  V30 32302 H 3141.17 -0.418703 -7.78375 0
M  V30 32303 N 3145.4 1.33878 -0.831529 0
M  V30 32304 C 3146.81 1.80387 -0.481406 0
M  V30 32305 C 3147.16 1.68864 0.998963 0
M  V30 32306 O 3146.28 1.23363 1.77793 0
M  V30 32307 C 3146.88 3.27518 -0.867048 0
M  V30 32308 C 3145.44 3.72072 -0.56917 0
M  V30 32309 C 3144.58 2.55432 -1.07934 0
M  V30 32310 H 3147.54 1.21503 -1.02091 0
M  V30 32311 H 3147.56 3.80101 -0.174195 0
M  V30 32312 H 3147.07 3.35872 -1.94452 0
M  V30 32313 H 3145.17 3.6925 0.498542 0
M  V30 32314 H 3145.28 4.65843 -1.11926 0
M  V30 32315 H 3143.65 2.49734 -0.500509 0
M  V30 32316 H 3144.43 2.66552 -2.16344 0
M  V30 32317 N 3146.87 0.587281 1.46249 0
M  V30 32318 C 3147.81 -0.181216 2.28482 0
M  V30 32319 C 3148.82 -0.851139 1.38778 0
M  V30 32320 O 3150.01 -0.719934 1.63338 0
M  V30 32321 C 3147.11 -1.27637 3.13946 0
M  V30 32322 C 3146.28 -0.697493 4.31803 0
M  V30 32323 C 3145.34 -1.68094 4.98629 0
M  V30 32324 O 3144.37 -1.21519 5.56077 0
M  V30 32325 N 3145.57 -3.01511 4.96056 0
M  V30 32326 H 3148.33 0.524319 2.95078 0
M  V30 32327 H 3145.89 0.425364 1.56212 0
M  V30 32328 H 3147.89 -1.93365 3.55517 0
M  V30 32329 H 3146.46 -1.88471 2.49394 0
M  V30 32330 H 3145.68 0.137362 3.93961 0
M  V30 32331 H 3146.96 -0.290606 5.07969 0
M  V30 32332 H 3146.36 -3.4197 4.50636 0
M  V30 32333 H 3144.92 -3.62716 5.41554 0
M  V30 32334 N 3148.35 -1.54206 0.325309 0
M  V30 32335 C 3149.26 -2.28092 -0.548738 0
M  V30 32336 C 3150.28 -1.3251 -1.1277 0
M  V30 32337 O 3151.45 -1.65527 -1.14729 0
M  V30 32338 C 3148.52 -3.02565 -1.69279 0
M  V30 32339 C 3147.58 -4.13736 -1.14545 0
M  V30 32340 C 3146.81 -4.84649 -2.23498 0
M  V30 32341 O 3147.04 -4.55089 -3.43876 0
M  V30 32342 O 3145.97 -5.71517 -1.88818 0
M  V30 32343 H 3149.8 -3.03657 0.0513508 0
M  V30 32344 H 3147.38 -1.49123 0.0909421 0
M  V30 32345 H 3149.26 -3.49196 -2.35881 0
M  V30 32346 H 3147.94 -2.29874 -2.27902 0
M  V30 32347 H 3146.85 -3.7145 -0.444466 0
M  V30 32348 H 3148.18 -4.88476 -0.604324 0
M  V30 32349 N 3149.83 -0.0535194 -1.57509 0
M  V30 32350 C 3151.08 0.620657 -1.93069 0
M  V30 32351 C 3151.41 1.70356 -0.932343 0
M  V30 32352 O 3150.69 1.94456 0.0413051 0
M  V30 32353 C 3150.97 1.21457 -3.38999 0
M  V30 32354 C 3150.82 0.139571 -4.49583 0
M  V30 32355 C 3152.14 2.12552 -3.8537 0
M  V30 32356 H 3149.26 0.22415 -0.702087 0
M  V30 32357 H 3151.9 -0.115763 -1.89647 0
M  V30 32358 H 3150.05 1.8422 -3.42046 0
M  V30 32359 H 3151.72 -0.492492 -4.58664 0
M  V30 32360 H 3149.97 -0.532081 -4.30524 0
M  V30 32361 H 3150.64 0.595191 -5.48782 0
M  V30 32362 H 3153.11 1.59748 -3.84213 0
M  V30 32363 H 3151.99 2.5105 -4.88124 0
M  V30 32364 H 3152.25 3.02655 -3.22261 0
M  V30 32365 N 3151.31 1.56059 0.219886 0
M  V30 32366 C 3152.24 1.8904 1.29601 0
M  V30 32367 C 3153.25 0.778816 1.42963 0
M  V30 32368 O 3154.44 1.05712 1.4383 0
M  V30 32369 C 3151.54 2.08539 2.67142 0
M  V30 32370 C 3150.72 3.39566 2.75706 0
M  V30 32371 C 3149.78 3.48476 3.94273 0
M  V30 32372 O 3148.8 4.21494 3.82533 0
M  V30 32373 N 3150 2.79741 5.0865 0
M  V30 32374 H 3152.77 2.81941 1.01633 0
M  V30 32375 H 3150.33 1.56625 0.409918 0
M  V30 32376 H 3152.32 2.11814 3.44843 0
M  V30 32377 H 3150.89 1.22255 2.87702 0
M  V30 32378 H 3150.11 3.48375 1.84469 0
M  V30 32379 H 3151.4 4.25877 2.784 0
M  V30 32380 H 3150.8 2.20199 5.21084 0
M  V30 32381 H 3149.35 2.88675 5.84389 0
M  V30 32382 N 3152.79 -0.486655 1.49898 0
M  V30 32383 C 3153.72 -1.60476 1.62243 0
M  V30 32384 C 3154.7 -1.55629 0.470992 0
M  V30 32385 O 3155.88 -1.75478 0.688449 0
M  V30 32386 C 3153.01 -2.99025 1.59065 0
M  V30 32387 C 3152.06 -3.22082 2.7958 0
M  V30 32388 S 3152.89 -3.03656 4.41082 0
M  V30 32389 C 3154.04 -4.44576 4.40572 0
M  V30 32390 H 3154.28 -1.49762 2.56824 0
M  V30 32391 H 3151.81 -0.672868 1.38967 0
M  V30 32392 H 3153.77 -3.7891 1.57916 0
M  V30 32393 H 3152.43 -3.07142 0.657459 0
M  V30 32394 H 3151.62 -4.23261 2.73617 0
M  V30 32395 H 3151.22 -2.49944 2.78215 0
M  V30 32396 H 3153.52 -5.36929 4.13175 0
M  V30 32397 H 3154.46 -4.55586 5.42076 0
M  V30 32398 H 3154.87 -4.25926 3.70469 0
M  V30 32399 N 3154.27 -1.39214 -0.738737 0
M  V30 32400 C 3155.51 -1.36435 -1.50044 0
M  V30 32401 C 3155.84 0.0409133 -1.94157 0
M  V30 32402 O 3155.12 1.00511 -1.66517 0
M  V30 32403 C 3155.4 -2.33338 -2.74272 0
M  V30 32404 C 3155.26 -3.8279 -2.36203 0
M  V30 32405 C 3156.57 -2.2813 -3.76357 0
M  V30 32406 H 3153.69 -0.496913 -0.544286 0
M  V30 32407 H 3156.34 -1.70177 -0.844975 0
M  V30 32408 H 3154.49 -2.04695 -3.302 0
M  V30 32409 H 3156.16 -4.22168 -1.85935 0
M  V30 32410 H 3154.4 -3.99748 -1.68476 0
M  V30 32411 H 3155.07 -4.46075 -3.25148 0
M  V30 32412 H 3157.55 -2.53448 -3.30005 0
M  V30 32413 H 3156.42 -2.98018 -4.60952 0
M  V30 32414 H 3156.68 -1.28507 -4.23011 0
M  V30 32415 N 3155.74 0.968523 -1.24328 0
M  V30 32416 C 3156.69 2.08423 -1.0326 0
M  V30 32417 C 3157.69 1.69369 0.0322058 0
M  V30 32418 O 3158.89 1.79584 -0.122283 0
M  V30 32419 H 3155.27 0.68197 -0.316892 0
M  V30 32420 H 3157.24 2.23355 -1.97877 0
M  V30 32421 C 3155.99 3.41509 -0.653204 0
M  V30 32422 H 3155.31 3.72019 -1.46431 0
M  V30 32423 H 3156.75 4.20478 -0.54539 0
M  V30 32424 C 3155.21 3.30773 0.639616 0
M  V30 32425 O 3155.74 3.64625 1.68556 0
M  V30 32426 N 3153.94 2.83909 0.620024 0
M  V30 32427 H 3153.49 2.56558 -0.231494 0
M  V30 32428 H 3153.45 2.77107 1.48523 0
M  V30 32429 N 3157.22 1.0569 1.16908 0
M  V30 32430 C 3158.47 0.768442 1.86921 0
M  V30 32431 C 3158.79 -0.706889 1.81736 0
M  V30 32432 O 3158.06 -1.51107 1.24673 0
M  V30 32433 H 3156.64 0.281265 0.692025 0
M  V30 32434 H 3159.3 1.33711 1.41801 0
M  V30 32435 H 3158.4 1.08788 2.92526 0
M  V30 32436 N 3158.7 -1.33435 0.838617 0
M  V30 32437 C 3159.93 -2.01999 0.44768 0
M  V30 32438 C 3160.34 -1.63098 -0.951024 0
M  V30 32439 O 3159.7 -0.844197 -1.61801 0
M  V30 32440 C 3159.75 -3.57161 0.558441 0
M  V30 32441 O 3159.47 -3.94657 1.90203 0
M  V30 32442 C 3160.97 -4.42995 0.164426 0
M  V30 32443 H 3158.19 -0.647029 0.177748 0
M  V30 32444 H 3160.74 -1.7037 1.13112 0
M  V30 32445 H 3158.89 -3.87323 -0.0770882 0
M  V30 32446 H 3159.31 -4.89365 1.88738 0
M  V30 32447 H 3160.78 -5.51222 0.292973 0
M  V30 32448 H 3161.26 -4.30013 -0.893638 0
M  V30 32449 H 3161.86 -4.18191 0.77438 0
M  V30 32450 N 3160.18 -0.595029 -1.45935 0
M  V30 32451 C 3161.43 -0.0829885 -2.01529 0
M  V30 32452 C 3161.74 1.28953 -1.47073 0
M  V30 32453 O 3162.95 1.8936 -1.94564 0
M  V30 32454 C 3161.4 -0.0977229 -3.59767 0
M  V30 32455 C 3161.01 -1.46932 -4.2322 0
M  V30 32456 C 3162.75 0.35973 -4.22973 0
M  V30 32457 C 3160.66 -1.44111 -5.73573 0
M  V30 32458 H 3159.59 -0.0272558 -0.753507 0
M  V30 32459 H 3162.24 -0.748502 -1.6754 0
M  V30 32460 H 3160.62 0.634199 -3.90889 0
M  V30 32461 H 3161.8 -2.22194 -4.03691 0
M  V30 32462 H 3160.11 -1.86781 -3.72158 0
M  V30 32463 H 3162.71 0.399817 -5.33203 0
M  V30 32464 H 3163.05 1.37984 -3.92767 0
M  V30 32465 H 3163.59 -0.31852 -3.96523 0
M  V30 32466 H 3160.32 -2.43842 -6.08458 0
M  V30 32467 H 3159.84 -0.730872 -5.9533 0
M  V30 32468 H 3161.52 -1.15932 -6.36529 0
M  V30 32469 N 3161.66 1.54031 -0.333483 0
M  V30 32470 C 3162.88 2.0516 0.267777 0
M  V30 32471 C 3163.3 1.20906 1.45007 0
M  V30 32472 O 3162.66 0.242026 1.80888 0
M  V30 32473 C 3162.71 3.54803 0.692618 0
M  V30 32474 O 3162.43 4.35858 -0.442655 0
M  V30 32475 C 3163.93 4.22063 1.35565 0
M  V30 32476 H 3161.15 0.668865 0.0534807 0
M  V30 32477 H 3163.69 1.98725 -0.48255 0
M  V30 32478 H 3161.85 3.61493 1.3929 0
M  V30 32479 H 3162.26 5.24393 -0.106007 0
M  V30 32480 H 3163.74 5.28189 1.60376 0
M  V30 32481 H 3164.21 3.73787 2.30607 0
M  V30 32482 H 3164.82 4.19539 0.697674 0
M  V30 32483 N 3163.13 0.0618717 1.57479 0
M  V30 32484 C 3164.08 -0.926592 2.13347 0
M  V30 32485 C 3165.08 -1.31501 1.06789 0
M  V30 32486 O 3166.28 -1.29341 1.25183 0
M  V30 32487 H 3162.66 -0.316717 0.682051 0
M  V30 32488 H 3164.63 -0.430372 2.9528 0
M  V30 32489 C 3163.38 -2.18829 2.70202 0
M  V30 32490 H 3162.7 -1.89823 3.51863 0
M  V30 32491 H 3164.14 -2.86127 3.12902 0
M  V30 32492 C 3162.6 -2.94017 1.64486 0
M  V30 32493 O 3163.13 -3.87353 1.06397 0
M  V30 32494 N 3161.33 -2.56942 1.35754 0
M  V30 32495 H 3160.88 -1.81116 1.8318 0
M  V30 32496 H 3160.84 -3.07554 0.652523 0
M  V30 32497 N 3164.61 -1.56173 -0.211607 0
M  V30 32498 C 3166.02 -1.69729 -0.777746 0
M  V30 32499 C 3166.37 -0.665612 -1.84564 0
M  V30 32500 O 3165.5 0.1813 -2.15639 0
M  V30 32501 C 3166.09 -3.07721 -1.41751 0
M  V30 32502 C 3164.65 -3.23098 -1.93093 0
M  V30 32503 C 3163.8 -2.65667 -0.794739 0
M  V30 32504 H 3166.75 -1.58695 0.0132118 0
M  V30 32505 H 3166.77 -3.04132 -2.28657 0
M  V30 32506 H 3166.28 -3.82786 -0.640047 0
M  V30 32507 H 3164.39 -2.52919 -2.7361 0
M  V30 32508 H 3164.5 -4.30425 -2.10406 0
M  V30 32509 H 3162.86 -2.24409 -1.20469 0
M  V30 32510 H 3163.65 -3.43287 -0.0297805 0
M  V30 32511 N 3166.09 0.478699 -1.50154 0
M  V30 32512 C 3167.34 1.22806 -1.60005 0
M  V30 32513 C 3167.65 1.9325 -0.302311 0
M  V30 32514 O 3168.86 2.70056 -0.279631 0
M  V30 32515 C 3167.31 2.23103 -2.82406 0
M  V30 32516 C 3166.92 1.58497 -4.19026 0
M  V30 32517 C 3168.67 2.98729 -3.01598 0
M  V30 32518 C 3166.57 2.57035 -5.32622 0
M  V30 32519 H 3165.5 0.462063 -0.59583 0
M  V30 32520 H 3168.15 0.499381 -1.76574 0
M  V30 32521 H 3166.54 2.9923 -2.59379 0
M  V30 32522 H 3167.71 0.882108 -4.52278 0
M  V30 32523 H 3166.03 0.951806 -4.05376 0
M  V30 32524 H 3168.62 3.72461 -3.83637 0
M  V30 32525 H 3168.97 3.57667 -2.13026 0
M  V30 32526 H 3169.5 2.29715 -3.2477 0
M  V30 32527 H 3166.24 2.02847 -6.23324 0
M  V30 32528 H 3165.76 3.25496 -5.03798 0
M  V30 32529 H 3167.44 3.19018 -5.62882 0
M  V30 32530 N 3167.57 1.39603 0.731343 0
M  V30 32531 C 3168.52 1.38765 1.86674 0
M  V30 32532 C 3169.51 0.270277 1.6723 0
M  V30 32533 O 3170.72 0.440502 1.74527 0
M  V30 32534 H 3167.09 0.433402 0.614546 0
M  V30 32535 H 3169.06 2.34528 1.84497 0
M  V30 32536 C 3167.81 1.25161 3.24392 0
M  V30 32537 H 3167.13 2.10412 3.39951 0
M  V30 32538 H 3168.57 1.28632 4.04017 0
M  V30 32539 C 3167.03 -0.0396384 3.36877 0
M  V30 32540 O 3167.56 -1.00847 3.88835 0
M  V30 32541 N 3165.77 -0.103914 2.90414 0
M  V30 32542 H 3165.32 0.685198 2.4832 0
M  V30 32543 H 3165.27 -0.967382 2.99147 0
M  V30 32544 N 3169.05 -0.961916 1.2484 0
M  V30 32545 C 3170.29 -1.70226 1.08939 0
M  V30 32546 C 3170.62 -1.91428 -0.371548 0
M  V30 32547 O 3169.89 -1.49617 -1.26458 0
M  V30 32548 H 3168.47 -0.630792 0.400139 0
M  V30 32549 H 3171.13 -1.1569 1.5685 0
M  V30 32550 H 3170.22 -2.68444 1.59199 0
M  V30 32551 N 3170.52 -1.06308 -1.16346 0
M  V30 32552 C 3171.47 -0.674001 -2.20739 0
M  V30 32553 C 3172.44 0.329425 -1.628 0
M  V30 32554 O 3173.63 0.218279 -1.89547 0
M  V30 32555 C 3170.77 -0.0667615 -3.45035 0
M  V30 32556 C 3169.88 -1.12038 -4.17219 0
M  V30 32557 C 3169.01 -0.479269 -5.29034 0
M  V30 32558 C 3168.05 -1.51642 -5.93019 0
M  V30 32559 N 3167.19 -0.898651 -6.96325 0
M  V30 32560 H 3172.03 -1.56864 -2.53373 0
M  V30 32561 H 3169.57 -0.784298 -1.24448 0
M  V30 32562 H 3171.53 0.302843 -4.16099 0
M  V30 32563 H 3170.16 0.791278 -3.12951 0
M  V30 32564 H 3169.21 -1.60769 -3.44757 0
M  V30 32565 H 3170.52 -1.9072 -4.60898 0
M  V30 32566 H 3169.67 -0.0567059 -6.06673 0
M  V30 32567 H 3168.41 0.339424 -4.86517 0
M  V30 32568 H 3167.42 -1.94887 -5.141 0
M  V30 32569 H 3168.64 -2.33721 -6.37614 0
M  V30 32570 H 3166.59 -0.100671 -6.55923 0
M  V30 32571 H 3166.51 -1.62285 -7.38376 0
M  V30 32572 H 3167.77 -0.501237 -7.77887 0
M  V30 32573 N 3172 1.32989 -0.845682 0
M  V30 32574 C 3173.23 2.02292 -0.457471 0
M  V30 32575 C 3173.65 1.63181 0.935606 0
M  V30 32576 O 3173.01 0.827864 1.61295 0
M  V30 32577 C 3173.06 3.55679 -0.593728 0
M  V30 32578 O 3172.16 4.10671 0.377218 0
M  V30 32579 H 3171.5 0.637698 -0.185033 0
M  V30 32580 H 3174.03 1.69736 -1.1424 0
M  V30 32581 H 3174.04 4.05191 -0.477905 0
M  V30 32582 H 3172.72 3.83489 -1.60964 0
M  V30 32583 H 3171.3 3.7226 0.218383 0
M  V30 32584 N 3173.48 0.60276 1.45618 0
M  V30 32585 C 3174.73 0.0960692 2.02272 0
M  V30 32586 C 3175.06 -1.27156 1.47179 0
M  V30 32587 O 3174.31 -1.85124 0.634626 0
M  V30 32588 C 3174.61 0.00164192 3.574 0
M  V30 32589 C 3174.28 1.3043 4.31624 0
M  V30 32590 C 3172.94 1.66114 4.51619 0
M  V30 32591 C 3175.29 2.16543 4.74087 0
M  V30 32592 C 3172.62 2.87672 5.11333 0
M  V30 32593 C 3174.97 3.37346 5.35146 0
M  V30 32594 C 3173.63 3.73288 5.53365 0
M  V30 32595 H 3172.9 0.0351542 0.740166 0
M  V30 32596 H 3175.55 0.783412 1.74742 0
M  V30 32597 H 3173.86 -0.76894 3.8418 0
M  V30 32598 H 3175.55 -0.406478 3.98935 0
M  V30 32599 H 3172.14 1.01654 4.1637 0
M  V30 32600 H 3176.33 1.90274 4.58377 0
M  V30 32601 H 3171.58 3.15632 5.23628 0
M  V30 32602 H 3175.76 4.04326 5.67004 0
M  V30 32603 H 3173.38 4.67567 5.99404 0
M  V30 32604 N 3174.96 -1.53852 0.341647 0
M  V30 32605 C 3176.18 -2.05769 -0.259572 0
M  V30 32606 C 3176.61 -1.2151 -1.43586 0
M  V30 32607 O 3175.97 -0.228395 -1.79856 0
M  V30 32608 C 3176.01 -3.54613 -0.654392 0
M  V30 32609 O 3175.12 -3.7321 -1.75465 0
M  V30 32610 H 3174.46 -0.662577 -0.0434505 0
M  V30 32611 H 3176.99 -1.98514 0.495309 0
M  V30 32612 H 3177 -3.97211 -0.932072 0
M  V30 32613 H 3175.67 -4.1539 0.205852 0
M  V30 32614 H 3174.25 -3.42515 -1.47438 0
M  V30 32615 N 3176.44 -0.0702223 -1.57443 0
M  V30 32616 C 3177.37 0.895138 -2.15661 0
M  V30 32617 C 3178.35 1.31149 -1.08323 0
M  V30 32618 O 3179.53 1.38282 -1.36351 0
M  V30 32619 C 3176.66 2.16329 -2.71697 0
M  V30 32620 C 3175.62 1.88639 -3.84187 0
M  V30 32621 C 3174.94 3.22071 -4.26819 0
M  V30 32622 C 3176.24 1.1929 -5.08495 0
M  V30 32623 H 3177.94 0.410165 -2.96577 0
M  V30 32624 H 3175.48 0.195847 -1.42662 0
M  V30 32625 H 3177.44 2.84278 -3.11069 0
M  V30 32626 H 3176.16 2.67065 -1.87999 0
M  V30 32627 H 3174.82 1.23095 -3.45316 0
M  V30 32628 H 3174.47 3.70645 -3.40046 0
M  V30 32629 H 3174.17 3.04335 -5.02647 0
M  V30 32630 H 3175.69 3.9122 -4.68806 0
M  V30 32631 H 3177.1 1.77306 -5.45193 0
M  V30 32632 H 3175.5 1.11818 -5.8959 0
M  V30 32633 H 3176.57 0.171754 -4.84596 0
M  V30 32634 N 3177.91 1.56283 0.203321 0
M  V30 32635 C 3179.16 1.79784 0.923151 0
M  V30 32636 C 3179.48 0.641882 1.84133 0
M  V30 32637 O 3178.75 -0.340259 1.92922 0
M  V30 32638 H 3177.33 0.663146 0.34387 0
M  V30 32639 H 3180 1.93757 0.210803 0
M  V30 32640 H 3179.09 2.72631 1.51916 0
M  V30 32641 N 3179.39 -0.470729 1.50406 0
M  V30 32642 C 3180.67 -1.23192 1.51931 0
M  V30 32643 C 3181.05 -2.0944 0.264196 0
M  V30 32644 O 3180.4 -2.15759 -0.752357 0
M  V30 32645 C 3180.61 -2.06264 2.81525 0
M  V30 32646 C 3181.96 -2.6444 3.32199 0
M  V30 32647 O 3182.98 -2.16506 2.82849 0
M  V30 32648 O 3181.84 -3.51779 4.18227 0
M  V30 32649 H 3178.93 -0.559049 0.609421 0
M  V30 32650 H 3181.48 -0.482521 1.62696 0
M  V30 32651 H 3180.25 -1.42709 3.64349 0
M  V30 32652 H 3179.87 -2.88337 2.73766 0
M  V30 32653 N 3180.87 -1.39989 -0.72393 0
M  V30 32654 C 3182.12 -1.37123 -1.4792 0
M  V30 32655 C 3182.43 0.0263321 -1.95582 0
M  V30 32656 O 3183.64 0.177604 -2.70918 0
M  V30 32657 C 3182.1 -2.40954 -2.67338 0
M  V30 32658 C 3181.7 -3.86479 -2.26579 0
M  V30 32659 C 3183.45 -2.4718 -3.45112 0
M  V30 32660 C 3181.35 -4.81925 -3.42786 0
M  V30 32661 H 3180.28 -0.509824 -0.555513 0
M  V30 32662 H 3182.94 -1.65688 -0.788663 0
M  V30 32663 H 3181.32 -2.05476 -3.3852 0
M  V30 32664 H 3182.49 -4.31057 -1.62871 0
M  V30 32665 H 3180.81 -3.8365 -1.6187 0
M  V30 32666 H 3183.4 -3.1568 -4.31568 0
M  V30 32667 H 3183.75 -1.49973 -3.88348 0
M  V30 32668 H 3184.28 -2.81607 -2.80966 0
M  V30 32669 H 3181.02 -5.80436 -3.04589 0
M  V30 32670 H 3180.54 -4.42019 -4.05437 0
M  V30 32671 H 3182.22 -5.01352 -4.08968 0
M  V30 32672 N 3182.35 0.955282 -1.25348 0
M  V30 32673 C 3183.58 1.73198 -1.12632 0
M  V30 32674 C 3183.99 1.86427 0.322715 0
M  V30 32675 O 3183.33 1.36101 1.23378 0
M  V30 32676 C 3183.39 3.16418 -1.70645 0
M  V30 32677 C 3183.06 3.2662 -3.19638 0
M  V30 32678 C 3184.05 3.10983 -4.16636 0
M  V30 32679 C 3181.74 3.50462 -3.59835 0
M  V30 32680 C 3183.73 3.19033 -5.51812 0
M  V30 32681 C 3181.42 3.58149 -4.95149 0
M  V30 32682 C 3182.42 3.42448 -5.90947 0
M  V30 32683 O 3182.11 3.49815 -7.23799 0
M  V30 32684 H 3181.84 0.549555 -0.393656 0
M  V30 32685 H 3184.39 1.20712 -1.66186 0
M  V30 32686 H 3182.62 3.70265 -1.11538 0
M  V30 32687 H 3184.31 3.75944 -1.53039 0
M  V30 32688 H 3185.08 2.92434 -3.8692 0
M  V30 32689 H 3180.96 3.61744 -2.85766 0
M  V30 32690 H 3184.5 3.06696 -6.26565 0
M  V30 32691 H 3180.4 3.76214 -5.24531 0
M  V30 32692 H 3181.16 3.66451 -7.31885 0
M  V30 32693 N 3183.83 1.06924 1.1578 0
M  V30 32694 C 3185.07 0.789784 1.86464 0
M  V30 32695 C 3185.4 -0.68399 1.82076 0
M  V30 32696 O 3184.66 -1.51746 1.23578 0
M  V30 32697 C 3184.96 1.23776 3.35282 0
M  V30 32698 C 3184.62 2.71675 3.59866 0
M  V30 32699 C 3183.28 3.12072 3.66285 0
M  V30 32700 C 3185.64 3.6716 3.69923 0
M  V30 32701 C 3182.96 4.46782 3.80267 0
M  V30 32702 C 3185.32 5.01626 3.85428 0
M  V30 32703 C 3183.98 5.41651 3.9009 0
M  V30 32704 H 3183.25 0.289003 0.682318 0
M  V30 32705 H 3185.9 1.33948 1.36859 0
M  V30 32706 H 3184.2 0.607377 3.87064 0
M  V30 32707 H 3185.9 0.998499 3.8837 0
M  V30 32708 H 3182.49 2.39399 3.55508 0
M  V30 32709 H 3186.67 3.37079 3.64268 0
M  V30 32710 H 3181.93 4.77268 3.82132 0
M  V30 32711 H 3186.1 5.75492 3.92151 0
M  V30 32712 H 3183.73 6.46036 4.00677 0
M  V30 32713 N 3185.31 -1.32538 0.852723 0
M  V30 32714 C 3186.25 -2.28921 0.293946 0
M  V30 32715 C 3187.22 -1.54962 -0.598 0
M  V30 32716 O 3188.41 -1.83195 -0.533323 0
M  V30 32717 C 3185.55 -3.41261 -0.513301 0
M  V30 32718 C 3184.66 -4.30105 0.404219 0
M  V30 32719 C 3183.8 -5.29573 -0.415471 0
M  V30 32720 C 3182.83 -6.10058 0.499568 0
M  V30 32721 N 3181.97 -7.0153 -0.282825 0
M  V30 32722 H 3186.81 -2.76107 1.12112 0
M  V30 32723 H 3184.35 -1.35846 0.564296 0
M  V30 32724 H 3186.31 -4.05114 -0.996937 0
M  V30 32725 H 3184.94 -2.95231 -1.30532 0
M  V30 32726 H 3183.99 -3.6685 1.00623 0
M  V30 32727 H 3185.3 -4.86371 1.10656 0
M  V30 32728 H 3184.45 -5.99019 -0.962353 0
M  V30 32729 H 3183.19 -4.73919 -1.15119 0
M  V30 32730 H 3182.2 -5.39517 1.05835 0
M  V30 32731 H 3183.42 -6.67797 1.23387 0
M  V30 32732 H 3181.37 -6.48307 -1.00167 0
M  V30 32733 H 3181.29 -7.5514 0.360523 0
M  V30 32734 H 3182.55 -7.75264 -0.811496 0
M  V30 32735 N 3186.78 -0.610474 -1.45296 0
M  V30 32736 C 3187.71 0.0939288 -2.33311 0
M  V30 32737 C 3188.69 0.855854 -1.47 0
M  V30 32738 O 3189.88 0.825834 -1.75766 0
M  V30 32739 C 3187.01 1.08998 -3.29753 0
M  V30 32740 C 3185.96 0.441071 -4.25721 0
M  V30 32741 C 3185.29 1.54557 -5.11875 0
M  V30 32742 C 3186.59 -0.63958 -5.18369 0
M  V30 32743 H 3188.28 -0.640993 -2.92458 0
M  V30 32744 H 3185.83 -0.3097 -1.4063 0
M  V30 32745 H 3187.78 1.59134 -3.90198 0
M  V30 32746 H 3186.51 1.85553 -2.68771 0
M  V30 32747 H 3185.17 -0.0394552 -3.66579 0
M  V30 32748 H 3184.81 2.30147 -4.4726 0
M  V30 32749 H 3184.51 1.11687 -5.76888 0
M  V30 32750 H 3186.04 2.04915 -5.75189 0
M  V30 32751 H 3187.45 -0.222171 -5.72869 0
M  V30 32752 H 3185.85 -0.990193 -5.91874 0
M  V30 32753 H 3186.92 -1.51503 -4.60624 0
M  V30 32754 N 3188.26 1.53669 -0.349801 0
M  V30 32755 C 3189.51 2.01015 0.244791 0
M  V30 32756 C 3189.84 1.23749 1.50055 0
M  V30 32757 O 3189.09 0.314906 1.9315 0
M  V30 32758 C 3189.39 3.52357 0.598249 0
M  V30 32759 C 3189.06 4.47392 -0.561349 0
M  V30 32760 C 3187.72 4.73093 -0.879564 0
M  V30 32761 C 3190.07 5.03707 -1.33899 0
M  V30 32762 C 3187.4 5.52363 -1.97768 0
M  V30 32763 C 3189.75 5.84175 -2.4274 0
M  V30 32764 C 3188.41 6.08168 -2.75114 0
M  V30 32765 H 3187.68 0.735566 0.0895755 0
M  V30 32766 H 3190.33 1.85412 -0.479007 0
M  V30 32767 H 3188.64 3.65824 1.40285 0
M  V30 32768 H 3190.33 3.86453 1.07029 0
M  V30 32769 H 3186.92 4.27526 -0.303277 0
M  V30 32770 H 3191.11 4.8381 -1.1064 0
M  V30 32771 H 3186.36 5.69176 -2.23267 0
M  V30 32772 H 3190.54 6.26823 -3.03423 0
M  V30 32773 H 3188.16 6.69378 -3.60329 0
M  V30 32774 N 3189.74 0.0785709 1.57404 0
M  V30 32775 C 3191.16 -0.278073 1.57159 0
M  V30 32776 C 3191.36 -1.6957 1.0885 0
M  V30 32777 O 3190.41 -2.40871 0.757449 0
M  V30 32778 C 3191.72 -0.0815539 3.00589 0
M  V30 32779 C 3193.27 -0.150572 3.12638 0
M  V30 32780 C 3193.75 0.017749 4.57997 0
M  V30 32781 N 3195.24 -0.0376331 4.63185 0
M  V30 32782 C 3195.97 0.0680915 5.7336 0
M  V30 32783 N 3195.47 0.227719 6.92426 0
M  V30 32784 N 3197.26 0.0105412 5.62099 0
M  V30 32785 H 3189.41 1.00499 1.87119 0
M  V30 32786 H 3191.68 0.392499 0.86293 0
M  V30 32787 H 3191.38 0.896929 3.40071 0
M  V30 32788 H 3191.26 -0.830981 3.67933 0
M  V30 32789 H 3193.64 -1.11955 2.73039 0
M  V30 32790 H 3193.72 0.630071 2.47919 0
M  V30 32791 H 3193.37 0.983519 4.98286 0
M  V30 32792 H 3193.3 -0.782383 5.20756 0
M  V30 32793 H 3195.79 -0.159142 3.77565 0
M  V30 32794 H 3196.1 0.300353 7.72216 0
M  V30 32795 H 3194.45 0.263171 6.94502 0
M  V30 32796 H 3197.64 -0.112917 4.67964 0
M  V30 32797 H 3197.81 0.0963886 6.47928 0
M  V30 32798 N 3191.22 -1.56389 -0.19503 0
M  V30 32799 C 3192.18 -1.93694 -1.22537 0
M  V30 32800 C 3193.18 -0.818064 -1.38435 0
M  V30 32801 O 3194.37 -1.08548 -1.36246 0
M  V30 32802 C 3191.5 -2.21104 -2.59472 0
M  V30 32803 H 3192.7 -2.85872 -0.906494 0
M  V30 32804 H 3190.25 -1.5008 -0.436551 0
M  V30 32805 H 3190.98 -1.31564 -2.96414 0
M  V30 32806 H 3190.77 -3.02638 -2.49304 0
M  V30 32807 H 3192.26 -2.5097 -3.33772 0
M  V30 32808 N 3192.7 0.462746 -1.50653 0
M  V30 32809 C 3193.92 1.24193 -1.66105 0
M  V30 32810 C 3194.35 1.84863 -0.347453 0
M  V30 32811 O 3193.7 1.67671 0.689643 0
M  V30 32812 C 3193.75 2.32032 -2.76031 0
M  V30 32813 O 3192.86 3.36889 -2.37865 0
M  V30 32814 H 3192.2 0.365005 -0.554678 0
M  V30 32815 H 3194.73 0.549699 -1.97077 0
M  V30 32816 H 3194.74 2.77215 -2.99359 0
M  V30 32817 H 3193.41 1.87247 -3.71364 0
M  V30 32818 H 3191.99 2.97359 -2.25016 0
M  V30 32819 N 3194.17 1.40371 0.716495 0
M  V30 32820 C 3195.42 1.38326 1.47344 0
M  V30 32821 C 3195.74 -0.0139606 1.94995 0
M  V30 32822 O 3195.01 -0.968555 1.70282 0
M  V30 32823 H 3193.59 0.509097 0.546653 0
M  V30 32824 H 3196.26 1.75416 0.849425 0
M  V30 32825 H 3195.35 2.05757 2.34671 0
M  V30 32826 N 3195.65 -0.948621 1.25853 0
M  V30 32827 C 3196.93 -1.6707 1.0172 0
M  V30 32828 C 3197.31 -2.06145 -0.454713 0
M  V30 32829 O 3196.66 -1.77948 -1.43342 0
M  V30 32830 C 3196.87 -2.88848 1.95877 0
M  V30 32831 C 3198.22 -3.60667 2.24064 0
M  V30 32832 O 3199.24 -2.9894 1.93683 0
M  V30 32833 O 3198.1 -4.71829 2.75754 0
M  V30 32834 H 3195.19 -0.73128 0.38621 0
M  V30 32835 H 3197.74 -1.00101 1.37032 0
M  V30 32836 H 3196.51 -2.56809 2.95237 0
M  V30 32837 H 3196.13 -3.63545 1.60998 0
M  V30 32838 N 3197.13 -1.07536 -1.15212 0
M  V30 32839 C 3198.06 -0.641499 -2.18998 0
M  V30 32840 C 3199.04 0.34221 -1.58958 0
M  V30 32841 O 3200.23 0.248185 -1.86859 0
M  V30 32842 C 3197.35 0.0577344 -3.38651 0
M  V30 32843 C 3196.4 -0.884715 -4.17223 0
M  V30 32844 S 3197.23 -2.38671 -4.79371 0
M  V30 32845 C 3198.39 -1.69933 -6.0239 0
M  V30 32846 H 3198.62 -1.52075 -2.55461 0
M  V30 32847 H 3196.15 -0.889503 -1.26203 0
M  V30 32848 H 3198.11 0.45491 -4.07972 0
M  V30 32849 H 3196.77 0.913354 -3.00527 0
M  V30 32850 H 3195.97 -0.342221 -5.02837 0
M  V30 32851 H 3195.57 -1.22236 -3.5346 0
M  V30 32852 H 3197.86 -1.01213 -6.69897 0
M  V30 32853 H 3198.8 -2.53386 -6.61212 0
M  V30 32854 H 3199.21 -1.1765 -5.52104 0
M  V30 32855 N 3198.61 1.32084 -0.85974 0
M  V30 32856 C 3200.02 1.49814 -0.550277 0
M  V30 32857 C 3200.22 1.79377 0.917934 0
M  V30 32858 O 3199.28 1.86635 1.70069 0
M  V30 32859 C 3200.59 2.63888 -1.44166 0
M  V30 32860 C 3202.14 2.77772 -1.44262 0
M  V30 32861 C 3202.62 3.94932 -2.31933 0
M  V30 32862 N 3204.11 4.02202 -2.29757 0
M  V30 32863 C 3204.84 4.92102 -2.94318 0
M  V30 32864 N 3204.34 5.86975 -3.68011 0
M  V30 32865 N 3206.13 4.85265 -2.8368 0
M  V30 32866 H 3198.28 1.11161 -1.80989 0
M  V30 32867 H 3200.55 0.548339 -0.773323 0
M  V30 32868 H 3200.25 2.48786 -2.48593 0
M  V30 32869 H 3200.13 3.5979 -1.13274 0
M  V30 32870 H 3202.51 2.92294 -0.405975 0
M  V30 32871 H 3202.59 1.82568 -1.79172 0
M  V30 32872 H 3202.24 3.81168 -3.35668 0
M  V30 32873 H 3202.17 4.89423 -1.94353 0
M  V30 32874 H 3204.66 3.34317 -1.76183 0
M  V30 32875 H 3204.97 6.5228 -4.14428 0
M  V30 32876 H 3203.32 5.86985 -3.7212 0
M  V30 32877 H 3206.51 4.10119 -2.25654 0
M  V30 32878 H 3206.68 5.55125 -3.34276 0
M  V30 32879 N 3200.09 0.618171 1.4497 0
M  V30 32880 C 3201.31 0.124202 2.06527 0
M  V30 32881 C 3201.73 -1.19585 1.46099 0
M  V30 32882 O 3201.09 -1.7307 0.57904 0
M  V30 32883 C 3201.14 -0.0106066 3.61498 0
M  V30 32884 O 3200.86 1.25723 4.19673 0
M  V30 32885 C 3202.36 -0.534795 4.40062 0
M  V30 32886 H 3199.58 0.0737052 0.66694 0
M  V30 32887 H 3202.12 0.848904 1.86048 0
M  V30 32888 H 3200.28 -0.685685 3.81284 0
M  V30 32889 H 3200.69 1.09371 5.1297 0
M  V30 32890 H 3202.17 -0.578174 5.48964 0
M  V30 32891 H 3202.64 -1.55924 4.1059 0
M  V30 32892 H 3203.25 0.106594 4.25166 0
M  V30 32893 N 3201.56 -1.53481 0.357946 0
M  V30 32894 C 3202.51 -2.27 -0.507325 0
M  V30 32895 C 3203.51 -1.29687 -1.08985 0
M  V30 32896 O 3204.71 -1.47343 -1.03393 0
M  V30 32897 H 3201.09 -0.729566 -0.182313 0
M  V30 32898 H 3203.06 -2.98096 0.134599 0
M  V30 32899 C 3201.81 -3.06643 -1.63906 0
M  V30 32900 H 3201.13 -3.81363 -1.20011 0
M  V30 32901 H 3202.57 -3.61276 -2.21937 0
M  V30 32902 C 3201.03 -2.17016 -2.57693 0
M  V30 32903 O 3201.56 -1.77584 -3.60315 0
M  V30 32904 N 3199.77 -1.81803 -2.26707 0
M  V30 32905 H 3199.31 -2.14068 -1.43292 0
M  V30 32906 H 3199.27 -1.2212 -2.89714 0
M  V30 32907 N 3203.04 -0.0869173 -1.5736 0
M  V30 32908 C 3204.29 0.577564 -1.93671 0
M  V30 32909 C 3204.61 1.69227 -0.968874 0
M  V30 32910 O 3203.88 1.9589 -0.0195405 0
M  V30 32911 H 3202.46 0.21634 -0.714987 0
M  V30 32912 H 3205.12 -0.148329 -1.94335 0
M  V30 32913 H 3204.22 0.993076 -2.95879 0
M  V30 32914 N 3204.52 1.5649 0.186734 0
M  V30 32915 C 3205.8 1.71958 0.932199 0
M  V30 32916 C 3206.18 0.644042 2.01036 0
M  V30 32917 O 3205.53 -0.343655 2.25901 0
M  V30 32918 C 3205.74 3.14595 1.511 0
M  V30 32919 C 3207.08 3.75084 1.9899 0
M  V30 32920 O 3208.11 3.17776 1.60926 0
M  V30 32921 O 3206.97 4.75678 2.69059 0
M  V30 32922 H 3204.06 0.70166 0.437724 0
M  V30 32923 H 3206.61 1.68787 0.175774 0
M  V30 32924 H 3205.38 3.84349 0.734259 0
M  V30 32925 H 3205 3.22028 2.33203 0
M  V30 32926 N 3206 -0.45475 1.50897 0
M  V30 32927 C 3206.95 -1.57133 1.715 0
M  V30 32928 C 3207.94 -1.59125 0.581008 0
M  V30 32929 O 3209.15 -1.63078 0.761945 0
M  V30 32930 H 3205.52 -0.521714 0.541589 0
M  V30 32931 H 3207.49 -1.36923 2.65131 0
M  V30 32932 C 3206.24 -2.94943 1.8413 0
M  V30 32933 H 3205.56 -2.94135 2.70785 0
M  V30 32934 H 3207 -3.72483 2.02564 0
M  V30 32935 C 3205.46 -3.31572 0.596811 0
M  V30 32936 O 3205.99 -4.0088 -0.256561 0
M  V30 32937 N 3204.2 -2.87157 0.446009 0
M  V30 32938 H 3203.75 -2.30927 1.1415 0
M  V30 32939 H 3203.7 -3.12028 -0.385464 0
M  V30 32940 N 3207.48 -1.40749 -0.709041 0
M  V30 32941 C 3208.71 -1.42502 -1.49588 0
M  V30 32942 C 3209.11 -0.0248675 -1.89184 0
M  V30 32943 O 3208.46 0.963082 -1.5643 0
M  V30 32944 C 3208.52 -2.25812 -2.79731 0
M  V30 32945 C 3208.18 -3.74146 -2.62419 0
M  V30 32946 C 3209.18 -4.66628 -2.29248 0
M  V30 32947 C 3206.87 -4.18036 -2.7848 0
M  V30 32948 C 3208.86 -6.00986 -2.12356 0
M  V30 32949 C 3206.55 -5.52463 -2.61205 0
M  V30 32950 C 3207.54 -6.43753 -2.28192 0
M  V30 32951 O 3207.23 -7.757 -2.11055 0
M  V30 32952 H 3206.96 -0.487817 -0.467985 0
M  V30 32953 H 3209.52 -1.85515 -0.881661 0
M  V30 32954 H 3207.75 -1.7759 -3.4351 0
M  V30 32955 H 3209.44 -2.19427 -3.41477 0
M  V30 32956 H 3210.2 -4.34013 -2.16467 0
M  V30 32957 H 3206.08 -3.47295 -3.03162 0
M  V30 32958 H 3209.63 -6.72205 -1.8651 0
M  V30 32959 H 3205.52 -5.84661 -2.73572 0
M  V30 32960 H 3206.29 -7.86702 -2.25924 0
M  V30 32961 N 3208.96 0.941933 -1.26354 0
M  V30 32962 C 3209.89 2.05782 -1.10344 0
M  V30 32963 C 3210.87 1.70098 -0.00884555 0
M  V30 32964 O 3212.05 1.93357 -0.180733 0
M  V30 32965 C 3209.18 3.39437 -0.734848 0
M  V30 32966 C 3208.14 3.8918 -1.7811 0
M  V30 32967 C 3207.46 5.19476 -1.26684 0
M  V30 32968 C 3208.76 4.14145 -3.18247 0
M  V30 32969 H 3210.46 2.19435 -2.03688 0
M  V30 32970 H 3208 1.05442 -0.980717 0
M  V30 32971 H 3209.95 4.16966 -0.609726 0
M  V30 32972 H 3208.68 3.25759 0.234297 0
M  V30 32973 H 3207.34 3.13831 -1.89488 0
M  V30 32974 H 3206.99 5.02177 -0.28756 0
M  V30 32975 H 3206.69 5.53727 -1.96622 0
M  V30 32976 H 3208.21 5.99589 -1.15437 0
M  V30 32977 H 3209.62 4.8229 -3.0995 0
M  V30 32978 H 3208.02 4.59677 -3.85768 0
M  V30 32979 H 3209.09 3.19953 -3.6436 0
M  V30 32980 N 3210.43 1.08146 1.1464 0
M  V30 32981 C 3211.66 0.829693 1.89208 0
M  V30 32982 C 3212.07 -0.621573 1.78698 0
M  V30 32983 O 3211.41 -1.43868 1.14227 0
M  V30 32984 C 3211.48 1.16921 3.39956 0
M  V30 32985 C 3211.14 2.62271 3.7425 0
M  V30 32986 C 3212.14 3.60521 3.74594 0
M  V30 32987 C 3209.82 2.98057 4.04311 0
M  V30 32988 C 3211.82 4.92589 4.04518 0
M  V30 32989 C 3209.5 4.3032 4.33899 0
M  V30 32990 C 3210.5 5.27395 4.33985 0
M  V30 32991 O 3210.19 6.57281 4.62858 0
M  V30 32992 H 3209.92 0.299052 0.606254 0
M  V30 32993 H 3212.48 1.44345 1.46129 0
M  V30 32994 H 3210.71 0.498444 3.83474 0
M  V30 32995 H 3212.39 0.898689 3.95826 0
M  V30 32996 H 3213.16 3.34217 3.5146 0
M  V30 32997 H 3209.04 2.23139 4.03398 0
M  V30 32998 H 3212.58 5.68353 4.04501 0
M  V30 32999 H 3208.48 4.56373 4.56502 0
M  V30 33000 H 3209.25 6.62555 4.80586 0
M  V30 33001 N 3211.91 -1.31626 0.866732 0
M  V30 33002 C 3212.82 -2.3236 0.323448 0
M  V30 33003 C 3213.84 -1.64573 -0.564966 0
M  V30 33004 O 3215.01 -1.96019 -0.462454 0
M  V30 33005 C 3212.08 -3.43513 -0.468985 0
M  V30 33006 C 3211.14 -4.26966 0.447004 0
M  V30 33007 C 3210.37 -5.32812 -0.307705 0
M  V30 33008 O 3210.6 -5.49324 -1.5362 0
M  V30 33009 O 3209.53 -6.00979 0.332759 0
M  V30 33010 H 3213.36 -2.80743 1.15832 0
M  V30 33011 H 3210.94 -1.35467 0.630011 0
M  V30 33012 H 3212.82 -4.11272 -0.918333 0
M  V30 33013 H 3211.5 -2.97298 -1.28046 0
M  V30 33014 H 3210.4 -3.61973 0.944783 0
M  V30 33015 H 3211.74 -4.76738 1.22398 0
M  V30 33016 N 3213.39 -0.62585 -1.4464 0
M  V30 33017 C 3214.64 -0.125717 -2.01308 0
M  V30 33018 C 3214.95 1.25804 -1.49776 0
M  V30 33019 O 3216.16 1.8519 -1.98537 0
M  V30 33020 C 3214.61 -0.174013 -3.59479 0
M  V30 33021 C 3214.22 -1.55876 -4.20008 0
M  V30 33022 C 3215.97 0.26993 -4.23641 0
M  V30 33023 C 3213.87 -1.56245 -5.70387 0
M  V30 33024 H 3212.8 -0.0432327 -0.75276 0
M  V30 33025 H 3215.45 -0.783871 -1.65915 0
M  V30 33026 H 3213.84 0.551143 -3.92146 0
M  V30 33027 H 3215.01 -2.30707 -3.98887 0
M  V30 33028 H 3213.32 -1.94633 -3.68113 0
M  V30 33029 H 3215.92 0.286626 -5.33931 0
M  V30 33030 H 3216.26 1.29622 -3.95606 0
M  V30 33031 H 3216.8 -0.402556 -3.95758 0
M  V30 33032 H 3213.54 -2.56693 -6.03149 0
M  V30 33033 H 3213.06 -0.856986 -5.93646 0
M  V30 33034 H 3214.74 -1.29407 -6.33926 0
M  V30 33035 N 3214.87 1.53289 -0.36608 0
M  V30 33036 C 3215.8 2.23342 0.514877 0
M  V30 33037 C 3216.81 1.2477 1.04576 0
M  V30 33038 O 3218 1.5099 0.952058 0
M  V30 33039 C 3215.1 2.91791 1.72369 0
M  V30 33040 C 3214.27 4.16873 1.32422 0
M  V30 33041 C 3213.33 4.68528 2.39516 0
M  V30 33042 O 3212.36 5.32194 2.01885 0
M  V30 33043 N 3213.56 4.46385 3.71108 0
M  V30 33044 H 3216.33 2.99579 -0.0851799 0
M  V30 33045 H 3213.89 1.60766 -0.191283 0
M  V30 33046 H 3215.88 3.23256 2.43491 0
M  V30 33047 H 3214.45 2.19004 2.23061 0
M  V30 33048 H 3213.67 3.91705 0.442832 0
M  V30 33049 H 3214.96 4.9819 1.03363 0
M  V30 33050 H 3214.36 3.95515 4.04456 0
M  V30 33051 H 3212.91 4.82398 4.38332 0
M  V30 33052 N 3216.35 0.0952613 1.57312 0
M  V30 33053 C 3217.28 -0.860715 2.17057 0
M  V30 33054 C 3218.26 -1.29409 1.10396 0
M  V30 33055 O 3219.44 -1.36095 1.38534 0
M  V30 33056 C 3216.57 -2.11979 2.75104 0
M  V30 33057 C 3215.53 -1.82503 3.87139 0
M  V30 33058 C 3214.85 -3.1524 4.31889 0
M  V30 33059 C 3216.15 -1.11185 5.10328 0
M  V30 33060 H 3217.85 -0.362931 2.97192 0
M  V30 33061 H 3215.39 -0.173126 1.42955 0
M  V30 33062 H 3217.34 -2.79293 3.15552 0
M  V30 33063 H 3216.07 -2.64041 1.92224 0
M  V30 33064 H 3214.73 -1.17586 3.47231 0
M  V30 33065 H 3214.38 -3.65189 3.45899 0
M  V30 33066 H 3214.08 -2.963 5.07425 0
M  V30 33067 H 3215.6 -3.83712 4.74971 0
M  V30 33068 H 3217.01 -1.6861 5.47945 0
M  V30 33069 H 3215.41 -1.02424 5.91295 0
M  V30 33070 H 3216.48 -0.0946374 4.84808 0
M  V30 33071 N 3217.82 -1.56587 -0.178432 0
M  V30 33072 C 3219.05 -1.86074 -0.916028 0
M  V30 33073 C 3219.47 -0.680785 -1.75348 0
M  V30 33074 O 3218.83 0.370248 -1.77479 0
M  V30 33075 C 3218.88 -3.13923 -1.77439 0
M  V30 33076 O 3217.98 -2.95646 -2.87519 0
M  V30 33077 H 3217.32 -0.612239 -0.257021 0
M  V30 33078 H 3219.85 -2.03818 -0.178719 0
M  V30 33079 H 3219.86 -3.45146 -2.17574 0
M  V30 33080 H 3218.54 -3.99419 -1.1592 0
M  V30 33081 H 3217.12 -2.75761 -2.51018 0
M  V30 33082 N 3219.3 0.446741 -1.51136 0
M  V30 33083 C 3220.53 1.22424 -1.67413 0
M  V30 33084 C 3220.95 1.84484 -0.367041 0
M  V30 33085 O 3220.31 1.68393 0.671821 0
M  V30 33086 C 3220.36 2.29092 -2.78477 0
M  V30 33087 O 3219.46 3.34347 -2.41425 0
M  V30 33088 H 3218.8 0.359101 -0.558518 0
M  V30 33089 H 3221.33 0.528765 -1.97649 0
M  V30 33090 H 3221.34 2.74025 -3.02282 0
M  V30 33091 H 3220.02 1.83297 -3.7333 0
M  V30 33092 H 3218.59 2.94956 -2.28157 0
M  V30 33093 N 3220.78 1.41123 0.701567 0
M  V30 33094 C 3222.03 1.39459 1.4572 0
M  V30 33095 C 3222.34 0.00478666 1.95599 0
M  V30 33096 O 3223.55 -0.134481 2.71167 0
M  V30 33097 C 3222 2.45176 2.6347 0
M  V30 33098 C 3221.61 3.90035 2.20402 0
M  V30 33099 C 3223.36 2.52639 3.41136 0
M  V30 33100 C 3221.26 4.87318 3.35075 0
M  V30 33101 H 3220.19 0.518597 0.547332 0
M  V30 33102 H 3222.84 1.66921 0.762203 0
M  V30 33103 H 3221.23 2.10835 3.35208 0
M  V30 33104 H 3222.4 4.33593 1.55992 0
M  V30 33105 H 3220.71 3.86177 1.55746 0
M  V30 33106 H 3223.31 3.22505 4.26491 0
M  V30 33107 H 3223.65 1.56132 3.85913 0
M  V30 33108 H 3224.19 2.86042 2.76451 0
M  V30 33109 H 3220.93 5.85208 2.95317 0
M  V30 33110 H 3220.45 4.48413 3.98354 0
M  V30 33111 H 3222.13 5.07795 4.0094 0
M  V30 33112 N 3222.26 -0.935219 1.26852 0
M  V30 33113 C 3223.49 -1.71633 1.15541 0
M  V30 33114 C 3223.9 -1.8658 -0.288665 0
M  V30 33115 O 3223.26 -1.37745 -1.19719 0
M  V30 33116 C 3223.31 -3.11995 1.82595 0
M  V30 33117 O 3223.03 -2.97757 3.2136 0
M  V30 33118 C 3224.53 -4.06294 1.77315 0
M  V30 33119 H 3221.75 -0.537201 0.402064 0
M  V30 33120 H 3224.29 -1.172 1.67584 0
M  V30 33121 H 3222.45 -3.63311 1.34476 0
M  V30 33122 H 3222.86 -3.8644 3.54633 0
M  V30 33123 H 3224.34 -5.02322 2.28859 0
M  V30 33124 H 3224.81 -4.32906 0.7409 0
M  V30 33125 H 3225.42 -3.609 2.25013 0
M  V30 33126 N 3223.74 -1.08752 -1.14065 0
M  V30 33127 C 3224.96 -0.841072 -1.8958 0
M  V30 33128 C 3225.39 0.601404 -1.78227 0
M  V30 33129 O 3224.74 1.42179 -1.12493 0
M  V30 33130 C 3224.79 -1.27219 -3.37413 0
M  V30 33131 O 3223.9 -0.426318 -4.10191 0
M  V30 33132 H 3223.24 -0.305183 -0.589711 0
M  V30 33133 H 3225.77 -1.44986 -1.44361 0
M  V30 33134 H 3225.78 -1.25458 -3.88232 0
M  V30 33135 H 3224.45 -2.32274 -3.44995 0
M  V30 33136 H 3223.03 -0.50765 -3.69428 0
M  V30 33137 N 3225.21 1.31165 -0.873701 0
M  V30 33138 C 3226.44 2.01276 -0.500277 0
M  V30 33139 C 3226.86 1.65129 0.900782 0
M  V30 33140 O 3226.22 0.86189 1.59503 0
M  V30 33141 C 3226.27 3.54339 -0.669039 0
M  V30 33142 O 3225.37 4.11379 0.290023 0
M  V30 33143 H 3224.72 0.63363 -0.198518 0
M  V30 33144 H 3227.25 1.67275 -1.17814 0
M  V30 33145 H 3227.26 4.04087 -0.563745 0
M  V30 33146 H 3225.93 3.79988 -1.69062 0
M  V30 33147 H 3224.51 3.72639 0.139372 0
M  V30 33148 N 3226.69 0.633512 1.44307 0
M  V30 33149 C 3228.11 0.299338 1.56768 0
M  V30 33150 C 3228.31 -1.19741 1.62063 0
M  V30 33151 O 3227.36 -1.98155 1.56496 0
M  V30 33152 C 3228.68 0.993357 2.83818 0
M  V30 33153 C 3230.23 0.971727 2.97534 0
M  V30 33154 C 3230.7 1.64626 4.2739 0
M  V30 33155 N 3232.19 1.61296 4.34209 0
M  V30 33156 C 3232.93 2.10379 5.33412 0
M  V30 33157 N 3232.42 2.67664 6.39005 0
M  V30 33158 N 3234.22 2.00994 5.24936 0
M  V30 33159 H 3226.37 1.60504 1.39113 0
M  V30 33160 H 3228.63 0.673863 0.666792 0
M  V30 33161 H 3228.34 2.04829 2.85899 0
M  V30 33162 H 3228.21 0.532603 3.73421 0
M  V30 33163 H 3230.6 -0.0747335 2.95005 0
M  V30 33164 H 3230.68 1.47099 2.09274 0
M  V30 33165 H 3230.32 2.69218 4.30679 0
M  V30 33166 H 3230.25 1.1218 5.14513 0
M  V30 33167 H 3232.74 1.19474 3.58517 0
M  V30 33168 H 3233.06 3.02844 7.10989 0
M  V30 33169 H 3231.4 2.71716 6.39684 0
M  V30 33170 H 3234.59 1.55961 4.41355 0
M  V30 33171 H 3234.76 2.39557 6.02093 0
M  V30 33172 N 3228.17 -1.53093 0.374204 0
M  V30 33173 C 3229.12 -2.27525 -0.48322 0
M  V30 33174 C 3230.11 -1.30835 -1.07603 0
M  V30 33175 O 3231.32 -1.48431 -1.01824 0
M  V30 33176 H 3227.69 -0.731458 -0.174565 0
M  V30 33177 H 3229.66 -2.97937 0.166209 0
M  V30 33178 C 3228.41 -3.08365 -1.60644 0
M  V30 33179 H 3227.74 -3.82614 -1.15959 0
M  V30 33180 H 3229.18 -3.63609 -2.18092 0
M  V30 33181 C 3227.64 -2.19737 -2.55377 0
M  V30 33182 O 3228.17 -1.81396 -3.58411 0
M  V30 33183 N 3226.37 -1.84198 -2.24766 0
M  V30 33184 H 3225.92 -2.15576 -1.41014 0
M  V30 33185 H 3225.88 -1.25186 -2.88402 0
M  V30 33186 N 3229.65 -0.103603 -1.57259 0
M  V30 33187 C 3231.06 0.424207 -1.81817 0
M  V30 33188 C 3231.41 1.67615 -1.01979 0
M  V30 33189 O 3230.54 2.14931 -0.251711 0
M  V30 33190 C 3231.13 0.776395 -3.29784 0
M  V30 33191 C 3229.69 1.24891 -3.55076 0
M  V30 33192 C 3228.84 0.249827 -2.76172 0
M  V30 33193 H 3231.79 -0.32894 -1.55254 0
M  V30 33194 H 3231.81 1.6352 -3.43572 0
M  V30 33195 H 3231.32 -0.134974 -3.87865 0
M  V30 33196 H 3229.42 2.1777 -3.02336 0
M  V30 33197 H 3229.53 1.20487 -4.63702 0
M  V30 33198 H 3227.9 0.733724 -2.43903 0
M  V30 33199 H 3228.68 -0.65437 -3.37006 0
M  V30 33200 N 3231.13 1.56679 0.170126 0
M  V30 33201 C 3232.09 1.95619 1.1944 0
M  V30 33202 C 3233.09 0.839984 1.37116 0
M  V30 33203 O 3234.28 1.10702 1.34502 0
M  V30 33204 C 3231.41 2.25204 2.55922 0
M  V30 33205 H 3232.6 2.87278 0.8609 0
M  V30 33206 H 3230.16 1.50755 0.412619 0
M  V30 33207 H 3230.89 1.36263 2.94284 0
M  V30 33208 H 3230.68 3.06566 2.44458 0
M  V30 33209 H 3232.17 2.56248 3.29737 0
M  V30 33210 N 3232.6 -0.43872 1.5137 0
M  V30 33211 C 3233.84 -1.19777 1.65629 0
M  V30 33212 C 3234.21 -1.8852 0.363918 0
M  V30 33213 O 3235.41 -2.66068 0.382261 0
M  V30 33214 C 3233.68 -2.18874 2.8254 0
M  V30 33215 S 3235.24 -3.03284 3.17119 0
M  V30 33216 H 3232.06 -0.406202 0.583542 0
M  V30 33217 H 3234.66 -0.489549 1.89271 0
M  V30 33218 H 3233.36 -1.67008 3.74882 0
M  V30 33219 H 3232.89 -2.94279 2.61082 0
M  V30 33220 H 3234.91 -4.20489 2.63446 0
M  V30 33221 N 3234.08 -1.41493 -0.694073 0
M  V30 33222 C 3235.31 -1.4449 -1.48786 0
M  V30 33223 C 3235.73 -0.0521919 -1.88028 0
M  V30 33224 O 3235.09 0.944925 -1.54728 0
M  V30 33225 C 3235.14 -2.36075 -2.72582 0
M  V30 33226 O 3234.24 -1.81882 -3.70125 0
M  V30 33227 H 3233.58 -0.490323 -0.44775 0
M  V30 33228 H 3236.11 -1.8597 -0.853003 0
M  V30 33229 H 3236.12 -2.52001 -3.20873 0
M  V30 33230 H 3234.8 -3.37268 -2.43357 0
M  V30 33231 H 3233.38 -1.75414 -3.29066 0
M  V30 33232 N 3235.56 0.928479 -1.27346 0
M  V30 33233 C 3236.81 1.67277 -1.13414 0
M  V30 33234 C 3237.13 1.92345 0.320664 0
M  V30 33235 O 3236.4 1.52917 1.22447 0
M  V30 33236 H 3234.98 0.619961 -0.416722 0
M  V30 33237 H 3237.64 1.1149 -1.59862 0
M  V30 33238 H 3236.74 2.64128 -1.66261 0
M  V30 33239 N 3237.04 1.09355 1.13486 0
M  V30 33240 C 3238 0.735901 2.17065 0
M  V30 33241 C 3239 -0.234153 1.59086 0
M  V30 33242 O 3240.19 -0.0124324 1.74196 0
M  V30 33243 C 3237.32 0.0881575 3.40786 0
M  V30 33244 H 3238.52 1.6532 2.50218 0
M  V30 33245 H 3236.07 0.892652 1.28302 0
M  V30 33246 H 3236.8 -0.840407 3.13221 0
M  V30 33247 H 3236.59 0.786141 3.84138 0
M  V30 33248 H 3238.08 -0.146702 4.17342 0
M  V30 33249 N 3238.52 -1.307 0.880644 0
M  V30 33250 C 3239.47 -2.30195 0.333602 0
M  V30 33251 C 3240.46 -1.59979 -0.557064 0
M  V30 33252 O 3241.67 -1.74489 -0.441979 0
M  V30 33253 H 3238.04 -0.746689 0.0892168 0
M  V30 33254 H 3240.01 -2.73797 1.18649 0
M  V30 33255 C 3238.76 -3.44896 -0.440671 0
M  V30 33256 H 3238.08 -3.99106 0.235424 0
M  V30 33257 H 3239.52 -4.16602 -0.788603 0
M  V30 33258 C 3237.98 -2.94507 -1.63608 0
M  V30 33259 O 3238.51 -2.94171 -2.73544 0
M  V30 33260 N 3236.72 -2.50573 -1.47179 0
M  V30 33261 H 3236.27 -2.51045 -0.577435 0
M  V30 33262 H 3236.22 -2.17215 -2.27299 0
M  V30 33263 N 3240 -0.641156 -1.43969 0
M  V30 33264 C 3241.24 -0.147061 -2.01163 0
M  V30 33265 C 3241.56 1.24208 -1.51101 0
M  V30 33266 O 3242.76 1.83074 -2.0049 0
M  V30 33267 C 3241.22 -0.212131 -3.59274 0
M  V30 33268 C 3240.83 -1.60322 -4.18331 0
M  V30 33269 C 3242.57 0.224983 -4.23903 0
M  V30 33270 C 3240.48 -1.62286 -5.68698 0
M  V30 33271 H 3239.41 -0.0512142 -0.752259 0
M  V30 33272 H 3242.06 -0.801425 -1.65074 0
M  V30 33273 H 3240.44 0.50952 -3.92708 0
M  V30 33274 H 3241.62 -2.34925 -3.96417 0
M  V30 33275 H 3239.93 -1.98527 -3.66027 0
M  V30 33276 H 3242.53 0.22998 -5.34205 0
M  V30 33277 H 3242.87 1.25419 -3.96958 0
M  V30 33278 H 3243.4 -0.444509 -3.95309 0
M  V30 33279 H 3240.14 -2.63076 -6.00393 0
M  V30 33280 H 3239.66 -0.919902 -5.92704 0
M  V30 33281 H 3241.34 -1.36124 -6.32518 0
M  V30 33282 N 3241.47 1.52892 -0.382318 0
M  V30 33283 C 3242.71 2.034 0.20196 0
M  V30 33284 C 3243.08 1.26288 1.44621 0
M  V30 33285 O 3244.28 1.66885 2.1072 0
M  V30 33286 C 3242.55 3.54292 0.470286 0
M  V30 33287 S 3244.11 4.2664 1.02585 0
M  V30 33288 H 3240.93 0.708671 0.0575053 0
M  V30 33289 H 3243.53 1.88205 -0.529053 0
M  V30 33290 H 3242.23 4.08007 -0.442502 0
M  V30 33291 H 3241.76 3.7368 1.22991 0
M  V30 33292 H 3243.78 4.39214 2.30879 0
M  V30 33293 N 3242.95 0.111941 1.57202 0
M  V30 33294 C 3243.88 -0.871204 2.11997 0
M  V30 33295 C 3244.9 -1.23474 1.06104 0
M  V30 33296 O 3246.09 -1.18491 1.33499 0
M  V30 33297 C 3243.19 -2.17524 2.59878 0
M  V30 33298 C 3242.36 -1.98448 3.89791 0
M  V30 33299 C 3241.42 -3.12516 4.23344 0
M  V30 33300 O 3240.44 -2.85739 4.92282 0
M  V30 33301 N 3241.65 -4.38756 3.80097 0
M  V30 33302 H 3244.41 -0.403105 2.96977 0
M  V30 33303 H 3241.97 -0.0726874 1.61737 0
M  V30 33304 H 3243.96 -2.92815 2.79359 0
M  V30 33305 H 3242.53 -2.55704 1.79817 0
M  V30 33306 H 3241.75 -1.0739 3.7929 0
M  V30 33307 H 3243.04 -1.82999 4.74751 0
M  V30 33308 H 3242.44 -4.63388 3.24481 0
M  V30 33309 H 3241 -5.10942 4.047 0
M  V30 33310 N 3244.43 -1.56767 -0.161814 0
M  V30 33311 C 3245.68 -1.82799 -0.878192 0
M  V30 33312 C 3246.01 -0.691274 -1.8148 0
M  V30 33313 O 3245.28 0.306146 -1.92075 0
M  V30 33314 C 3245.57 -3.19265 -1.6656 0
M  V30 33315 C 3245.42 -4.43478 -0.751473 0
M  V30 33316 C 3246.74 -3.52777 -2.63128 0
M  V30 33317 H 3243.86 -0.664952 -0.317816 0
M  V30 33318 H 3246.5 -1.89454 -0.143987 0
M  V30 33319 H 3244.65 -3.13723 -2.29151 0
M  V30 33320 H 3246.32 -4.61094 -0.137702 0
M  V30 33321 H 3244.56 -4.33758 -0.0601023 0
M  V30 33322 H 3245.24 -5.35535 -1.33814 0
M  V30 33323 H 3247.71 -3.58834 -2.10659 0
M  V30 33324 H 3246.59 -4.49321 -3.15281 0
M  V30 33325 H 3246.85 -2.77969 -3.43781 0
M  V30 33326 N 3245.91 0.430686 -1.51601 0
M  V30 33327 C 3246.85 1.52325 -1.73395 0
M  V30 33328 C 3247.82 1.55801 -0.575786 0
M  V30 33329 O 3249.01 1.72708 -0.810961 0
M  V30 33330 C 3246.15 2.89981 -1.87097 0
M  V30 33331 C 3245.26 2.95981 -3.14673 0
M  V30 33332 C 3244.4 4.24802 -3.18931 0
M  V30 33333 C 3243.44 4.24696 -4.40795 0
M  V30 33334 N 3242.57 5.45051 -4.42565 0
M  V30 33335 H 3247.41 1.33043 -2.66652 0
M  V30 33336 H 3244.95 0.646183 -1.32147 0
M  V30 33337 H 3246.91 3.69862 -1.93023 0
M  V30 33338 H 3245.54 3.07805 -0.972417 0
M  V30 33339 H 3244.59 2.08722 -3.18024 0
M  V30 33340 H 3245.9 2.91765 -4.04567 0
M  V30 33341 H 3245.06 5.13061 -3.2381 0
M  V30 33342 H 3243.8 4.31684 -2.26937 0
M  V30 33343 H 3242.8 3.34828 -4.36085 0
M  V30 33344 H 3244.03 4.19472 -5.3406 0
M  V30 33345 H 3241.97 5.52642 -3.53445 0
M  V30 33346 H 3241.89 5.42742 -5.26277 0
M  V30 33347 H 3243.16 6.35324 -4.51646 0
M  V30 33348 N 3247.39 1.4186 0.686559 0
M  V30 33349 C 3248.8 1.37147 1.26679 0
M  V30 33350 C 3249.15 0.0589565 1.96111 0
M  V30 33351 O 3248.27 -0.842594 1.99322 0
M  V30 33352 C 3248.87 2.48417 2.30379 0
M  V30 33353 C 3247.43 2.47074 2.83957 0
M  V30 33354 C 3246.57 2.27805 1.58115 0
M  V30 33355 H 3249.52 1.51244 0.480715 0
M  V30 33356 H 3249.55 2.17993 3.11864 0
M  V30 33357 H 3249.06 3.4393 1.79816 0
M  V30 33358 H 3247.16 1.55344 3.38672 0
M  V30 33359 H 3247.27 3.43703 3.33774 0
M  V30 33360 H 3245.64 1.75847 1.84255 0
M  V30 33361 H 3246.42 3.25357 1.09535 0
M  V30 33362 N 3248.86 -0.921712 1.27837 0
M  V30 33363 C 3249.81 -2.04447 1.10924 0
M  V30 33364 C 3250.81 -1.69372 0.0306767 0
M  V30 33365 O 3252.01 -1.79007 0.18885 0
M  V30 33366 H 3248.39 -0.669739 0.341984 0
M  V30 33367 H 3250.36 -2.15857 2.0603 0
M  V30 33368 C 3249.11 -3.3885 0.779503 0
M  V30 33369 H 3248.43 -3.66328 1.60137 0
M  V30 33370 H 3249.87 -4.18164 0.701072 0
M  V30 33371 C 3248.33 -3.32919 -0.516411 0
M  V30 33372 O 3248.86 -3.7063 -1.54907 0
M  V30 33373 N 3247.06 -2.86014 -0.514226 0
M  V30 33374 H 3246.61 -2.55522 0.326554 0
M  V30 33375 H 3246.57 -2.82428 -1.38136 0
M  V30 33376 N 3250.34 -1.09956 -1.12905 0
M  V30 33377 C 3251.62 -0.75118 -1.80601 0
M  V30 33378 C 3252 0.763043 -1.96827 0
M  V30 33379 O 3251.35 1.68746 -1.54068 0
M  V30 33380 C 3251.56 -1.49652 -3.15286 0
M  V30 33381 C 3252.9 -1.66585 -3.90557 0
M  V30 33382 O 3253.93 -1.45949 -3.24927 0
M  V30 33383 O 3252.79 -2.00761 -5.08289 0
M  V30 33384 H 3249.88 -0.27046 -0.781525 0
M  V30 33385 H 3252.43 -1.20208 -1.19784 0
M  V30 33386 H 3251.2 -2.5273 -2.98736 0
M  V30 33387 H 3250.82 -1.03815 -3.83807 0
M  V30 33388 N 3251.82 1.30231 -0.887563 0
M  V30 33389 C 3252.75 2.27045 -0.313528 0
M  V30 33390 C 3253.76 1.53815 0.533356 0
M  V30 33391 O 3254.95 1.74985 0.352485 0
M  V30 33392 C 3252.05 3.34027 0.572615 0
M  V30 33393 C 3251.23 4.36709 -0.245788 0
M  V30 33394 C 3250.29 5.2309 0.571258 0
M  V30 33395 O 3249.31 5.692 -0.00695953 0
M  V30 33396 N 3250.51 5.49219 1.87985 0
M  V30 33397 H 3253.28 2.76941 -1.14558 0
M  V30 33398 H 3250.84 1.43438 -0.750811 0
M  V30 33399 H 3252.83 3.8874 1.12532 0
M  V30 33400 H 3251.4 2.84041 1.30535 0
M  V30 33401 H 3250.62 3.81826 -0.979936 0
M  V30 33402 H 3251.91 5.02364 -0.806706 0
M  V30 33403 H 3251.31 5.13545 2.37251 0
M  V30 33404 H 3249.86 6.06796 2.37995 0
M  V30 33405 N 3253.3 0.648782 1.43627 0
M  V30 33406 C 3254.25 -0.0677539 2.27899 0
M  V30 33407 C 3255.23 -0.799091 1.39654 0
M  V30 33408 O 3256.42 -0.682288 1.63321 0
M  V30 33409 C 3253.55 -1.03654 3.27278 0
M  V30 33410 C 3252.64 -0.303908 4.2301 0
M  V30 33411 N 3253.03 0.677144 5.01247 0
M  V30 33412 C 3251.33 -0.545963 4.42646 0
M  V30 33413 C 3252.03 1.11161 5.7098 0
M  V30 33414 N 3251.01 0.446764 5.41761 0
M  V30 33415 H 3254.81 0.685123 2.85803 0
M  V30 33416 H 3252.32 0.475702 1.55277 0
M  V30 33417 H 3254.32 -1.56463 3.86426 0
M  V30 33418 H 3252.98 -1.78953 2.70935 0
M  V30 33419 H 3253.99 1.05569 5.07026 0
M  V30 33420 H 3250.67 -1.28046 3.97379 0
M  V30 33421 H 3252.06 1.92311 6.4379 0
M  V30 33422 N 3254.78 -1.52688 0.390421 0
M  V30 33423 C 3256.02 -2.01593 -0.19141 0
M  V30 33424 C 3256.35 -1.27684 -1.46721 0
M  V30 33425 O 3255.61 -0.366006 -1.92247 0
M  V30 33426 C 3255.91 -3.5382 -0.504618 0
M  V30 33427 C 3255.57 -4.45747 0.679769 0
M  V30 33428 C 3254.23 -4.70595 1.00469 0
M  V30 33429 C 3256.59 -4.9998 1.47207 0
M  V30 33430 C 3253.91 -5.46925 2.12343 0
M  V30 33431 C 3256.27 -5.77534 2.58143 0
M  V30 33432 C 3254.93 -6.0066 2.91142 0
M  V30 33433 H 3254.2 -0.737682 -0.0700418 0
M  V30 33434 H 3256.85 -1.84077 0.527998 0
M  V30 33435 H 3255.15 -3.69415 -1.30536 0
M  V30 33436 H 3256.85 -3.89155 -0.967455 0
M  V30 33437 H 3253.44 -4.26571 0.416521 0
M  V30 33438 H 3257.62 -4.80707 1.23429 0
M  V30 33439 H 3252.88 -5.63057 2.38279 0
M  V30 33440 H 3257.05 -6.18558 3.19936 0
M  V30 33441 H 3254.68 -6.59589 3.77949 0
M  V30 33442 N 3256.25 -0.120276 -1.5714 0
M  V30 33443 C 3257.48 0.548419 -2.00018 0
M  V30 33444 C 3257.9 1.5935 -0.999461 0
M  V30 33445 O 3257.26 1.81277 0.028666 0
M  V30 33446 C 3257.31 1.15009 -3.41768 0
M  V30 33447 O 3256.41 2.2656 -3.44593 0
M  V30 33448 H 3255.76 0.136864 -0.649742 0
M  V30 33449 H 3258.29 -0.209127 -2.03528 0
M  V30 33450 H 3258.3 1.48531 -3.80003 0
M  V30 33451 H 3256.97 0.384608 -4.14118 0
M  V30 33452 H 3255.55 1.94467 -3.18177 0
M  V30 33453 N 3257.73 1.56851 0.153498 0
M  V30 33454 C 3259.15 1.51369 0.505913 0
M  V30 33455 C 3259.35 0.827602 1.8372 0
M  V30 33456 O 3258.4 0.395408 2.49385 0
M  V30 33457 C 3259.72 2.96131 0.522217 0
M  V30 33458 C 3261.27 3.07034 0.608184 0
M  V30 33459 C 3261.74 4.53289 0.655212 0
M  V30 33460 N 3263.23 4.57607 0.717615 0
M  V30 33461 C 3263.97 5.6814 0.774877 0
M  V30 33462 N 3263.46 6.88259 0.791882 0
M  V30 33463 N 3265.26 5.56156 0.815262 0
M  V30 33464 H 3257.41 1.99852 -0.719225 0
M  V30 33465 H 3259.67 0.911225 -0.261482 0
M  V30 33466 H 3259.38 3.49557 -0.387656 0
M  V30 33467 H 3259.25 3.51735 1.36244 0
M  V30 33468 H 3261.64 2.53631 1.50848 0
M  V30 33469 H 3261.72 2.54485 -0.259059 0
M  V30 33470 H 3261.36 5.07328 -0.240898 0
M  V30 33471 H 3261.29 5.03614 1.53885 0
M  V30 33472 H 3263.78 3.71131 0.712035 0
M  V30 33473 H 3264.1 7.68251 0.837243 0
M  V30 33474 H 3262.44 6.90834 0.759864 0
M  V30 33475 H 3265.63 4.61229 0.799102 0
M  V30 33476 H 3265.8 6.42316 0.856424 0
M  V30 33477 N 3259.21 -0.42264 1.51827 0
M  V30 33478 C 3260.16 -1.51403 1.742 0
M  V30 33479 C 3261.13 -1.55493 0.58404 0
M  V30 33480 O 3262.31 -1.72276 0.820109 0
M  V30 33481 C 3259.45 -2.88984 1.88632 0
M  V30 33482 C 3258.57 -2.94308 3.16238 0
M  V30 33483 C 3257.7 -4.23104 3.21179 0
M  V30 33484 C 3256.74 -4.22352 4.43041 0
M  V30 33485 N 3255.88 -5.42696 4.45449 0
M  V30 33486 H 3260.72 -1.31627 2.67354 0
M  V30 33487 H 3258.25 -0.639166 1.32488 0
M  V30 33488 H 3260.21 -3.68833 1.94982 0
M  V30 33489 H 3258.84 -3.07285 0.988727 0
M  V30 33490 H 3257.89 -2.07033 3.19126 0
M  V30 33491 H 3259.21 -2.89616 4.06109 0
M  V30 33492 H 3258.36 -5.11337 3.26526 0
M  V30 33493 H 3257.1 -4.30474 2.29223 0
M  V30 33494 H 3256.1 -3.32511 4.37855 0
M  V30 33495 H 3257.33 -4.16634 5.36277 0
M  V30 33496 H 3255.27 -5.5076 3.56371 0
M  V30 33497 H 3255.19 -5.39943 5.29148 0
M  V30 33498 H 3256.46 -6.3292 4.55008 0
M  V30 33499 N 3260.69 -1.42222 -0.679027 0
M  V30 33500 C 3261.93 -1.42677 -1.44122 0
M  V30 33501 C 3262.27 -0.0414721 -1.94156 0
M  V30 33502 O 3261.54 0.93358 -1.7063 0
M  V30 33503 C 3261.83 -2.44761 -2.64129 0
M  V30 33504 C 3261.68 -3.92464 -2.19755 0
M  V30 33505 C 3263 -2.43887 -3.66343 0
M  V30 33506 H 3260.12 -0.51955 -0.52272 0
M  V30 33507 H 3262.76 -1.73608 -0.772036 0
M  V30 33508 H 3260.91 -2.18515 -3.21222 0
M  V30 33509 H 3262.58 -4.29674 -1.67862 0
M  V30 33510 H 3260.82 -4.06534 -1.5137 0
M  V30 33511 H 3261.49 -4.59464 -3.05936 0
M  V30 33512 H 3263.97 -2.67217 -3.18958 0
M  V30 33513 H 3262.85 -3.17301 -4.47897 0
M  V30 33514 H 3263.11 -1.46333 -4.1718 0
M  V30 33515 N 3262.17 0.91492 -1.28324 0
M  V30 33516 C 3263.41 1.66065 -1.15182 0
M  V30 33517 C 3263.74 1.92675 0.300245 0
M  V30 33518 O 3263.01 1.54207 1.20818 0
M  V30 33519 H 3261.59 0.615506 -0.423275 0
M  V30 33520 H 3264.25 1.09789 -1.61036 0
M  V30 33521 H 3263.34 2.6235 -1.69053 0
M  V30 33522 N 3263.64 1.10553 1.1232 0
M  V30 33523 C 3264.87 0.870903 1.87678 0
M  V30 33524 C 3265.29 -0.578702 1.79712 0
M  V30 33525 O 3264.64 -1.39905 1.17188 0
M  V30 33526 C 3264.7 1.31219 3.36844 0
M  V30 33527 O 3264.42 2.70495 3.44621 0
M  V30 33528 C 3265.92 1.11164 4.29136 0
M  V30 33529 H 3263.14 0.312511 0.593783 0
M  V30 33530 H 3265.68 1.47051 1.42114 0
M  V30 33531 H 3263.84 0.756236 3.79947 0
M  V30 33532 H 3264.25 2.89397 4.37436 0
M  V30 33533 H 3265.72 1.46954 5.3208 0
M  V30 33534 H 3266.2 0.0503735 4.39171 0
M  V30 33535 H 3266.81 1.65412 3.91815 0
M  V30 33536 N 3265.12 -1.29758 0.894457 0
M  V30 33537 C 3266.35 -2.00455 0.532235 0
M  V30 33538 C 3266.77 -1.66541 -0.874398 0
M  V30 33539 O 3266.13 -0.887157 -1.58111 0
M  V30 33540 C 3266.18 -3.5323 0.725326 0
M  V30 33541 O 3265.28 -4.11788 -0.22454 0
M  V30 33542 H 3264.62 -0.630391 0.208573 0
M  V30 33543 H 3267.15 -1.6538 1.20461 0
M  V30 33544 H 3267.16 -4.03139 0.62796 0
M  V30 33545 H 3265.84 -3.7725 1.75086 0
M  V30 33546 H 3264.42 -3.72814 -0.0800706 0
M  V30 33547 N 3266.6 -0.65639 -1.4328 0
M  V30 33548 C 3267.88 -0.10085 -1.9534 0
M  V30 33549 C 3268.26 1.37989 -1.59757 0
M  V30 33550 O 3267.61 2.10695 -0.884301 0
M  V30 33551 C 3267.82 -0.350441 -3.47236 0
M  V30 33552 C 3269.16 -0.257075 -4.23821 0
M  V30 33553 O 3270.19 -0.283173 -3.55073 0
M  V30 33554 O 3269.05 -0.183493 -5.46192 0
M  V30 33555 H 3266.14 0.00778834 -0.826963 0
M  V30 33556 H 3268.69 -0.729847 -1.53204 0
M  V30 33557 H 3267.46 -1.37692 -3.66274 0
M  V30 33558 H 3267.08 0.311469 -3.96378 0
M  V30 33559 N 3268.08 1.52478 -0.398513 0
M  V30 33560 C 3269.03 2.26718 0.432172 0
M  V30 33561 C 3270 1.28698 1.05005 0
M  V30 33562 O 3271.18 1.57543 1.07633 0
M  V30 33563 C 3268.32 3.08402 1.54862 0
M  V30 33564 C 3267.43 4.21364 0.952705 0
M  V30 33565 C 3266.57 4.90426 2.04097 0
M  V30 33566 C 3265.61 5.95367 1.42143 0
M  V30 33567 N 3264.75 6.57989 2.44939 0
M  V30 33568 H 3269.59 2.97278 -0.207355 0
M  V30 33569 H 3267.12 1.46657 -0.114092 0
M  V30 33570 H 3269.08 3.54058 2.20677 0
M  V30 33571 H 3267.71 2.40033 2.15833 0
M  V30 33572 H 3266.76 3.79955 0.183895 0
M  V30 33573 H 3268.07 4.96674 0.460044 0
M  V30 33574 H 3267.23 5.39434 2.77662 0
M  V30 33575 H 3265.97 4.1466 2.56725 0
M  V30 33576 H 3264.97 5.45689 0.671065 0
M  V30 33577 H 3266.2 6.7307 0.902975 0
M  V30 33578 H 3264.14 5.85058 2.9672 0
M  V30 33579 H 3264.06 7.2894 2.00455 0
M  V30 33580 H 3265.33 7.11638 3.18106 0
M  V30 33581 N 3269.56 0.128608 1.57074 0
M  V30 33582 C 3270.79 -0.534509 1.99876 0
M  V30 33583 C 3271.2 -1.59611 1.00846 0
M  V30 33584 O 3270.56 -1.825 0.00272155 0
M  V30 33585 C 3270.61 -1.15192 3.42656 0
M  V30 33586 O 3270.33 -0.132746 4.37899 0
M  V30 33587 C 3271.83 -1.89743 4.0064 0
M  V30 33588 H 3269.05 -0.140733 0.656076 0
M  V30 33589 H 3271.59 0.217777 2.03337 0
M  V30 33590 H 3269.75 -1.85493 3.40104 0
M  V30 33591 H 3270.16 -0.58259 5.21254 0
M  V30 33592 H 3271.64 -2.28257 5.02596 0
M  V30 33593 H 3272.11 -2.77634 3.40318 0
M  V30 33594 H 3272.72 -1.24183 4.06766 0
M  V30 33595 N 3271.04 -1.5693 -0.145178 0
M  V30 33596 C 3271.98 -1.98403 -1.17919 0
M  V30 33597 C 3272.95 -0.85191 -1.42589 0
M  V30 33598 O 3274.14 -1.11412 -1.54894 0
M  V30 33599 C 3271.28 -2.37133 -2.50723 0
M  V30 33600 C 3270.39 -3.63643 -2.33212 0
M  V30 33601 C 3269.53 -3.91468 -3.59063 0
M  V30 33602 C 3268.56 -5.11243 -3.36596 0
M  V30 33603 N 3267.7 -5.35069 -4.54583 0
M  V30 33604 H 3272.54 -2.86538 -0.818523 0
M  V30 33605 H 3270.08 -1.41761 -0.392715 0
M  V30 33606 H 3272.04 -2.57617 -3.28161 0
M  V30 33607 H 3270.67 -1.52074 -2.84734 0
M  V30 33608 H 3269.72 -3.50925 -1.46819 0
M  V30 33609 H 3271.03 -4.51237 -2.12571 0
M  V30 33610 H 3270.18 -4.1246 -4.44928 0
M  V30 33611 H 3268.92 -3.02299 -3.82709 0
M  V30 33612 H 3267.93 -4.90122 -2.49119 0
M  V30 33613 H 3269.15 -6.01966 -3.14346 0
M  V30 33614 H 3267.1 -4.48855 -4.78399 0
M  V30 33615 H 3267.02 -6.16936 -4.36951 0
M  V30 33616 H 3268.28 -5.60561 -5.41657 0
M  V30 33617 N 3272.51 0.414582 -1.52049 0
M  V30 33618 C 3273.74 1.18218 -1.69435 0
M  V30 33619 C 3274.15 1.849 -0.401072 0
M  V30 33620 O 3273.49 1.72475 0.632312 0
M  V30 33621 C 3273.56 2.29166 -2.7699 0
M  V30 33622 C 3273.22 1.82664 -4.18907 0
M  V30 33623 C 3274.22 1.31742 -5.02931 0
M  V30 33624 C 3271.9 1.89664 -4.65116 0
M  V30 33625 C 3273.9 0.88435 -6.31235 0
M  V30 33626 C 3271.58 1.45968 -5.93411 0
M  V30 33627 C 3272.58 0.954381 -6.76299 0
M  V30 33628 O 3272.27 0.523711 -8.02192 0
M  V30 33629 H 3272 0.36148 -0.571234 0
M  V30 33630 H 3274.56 0.494608 -1.99356 0
M  V30 33631 H 3272.79 3.01269 -2.42433 0
M  V30 33632 H 3274.47 2.90946 -2.83028 0
M  V30 33633 H 3275.24 1.25711 -4.68425 0
M  V30 33634 H 3271.12 2.27938 -4.00706 0
M  V30 33635 H 3274.66 0.48926 -6.95882 0
M  V30 33636 H 3270.56 1.51676 -6.27427 0
M  V30 33637 H 3271.33 0.647513 -8.15935 0
M  V30 33638 N 3273.99 1.4258 0.671475 0
M  V30 33639 C 3275.22 1.46418 1.45757 0
M  V30 33640 C 3275.63 0.0750175 1.89051 0
M  V30 33641 O 3274.97 -0.921268 1.58929 0
M  V30 33642 C 3275.03 2.33149 2.73645 0
M  V30 33643 C 3274.7 3.80972 2.52407 0
M  V30 33644 C 3275.7 4.72542 2.16795 0
M  V30 33645 C 3273.38 4.25273 2.67298 0
M  V30 33646 C 3275.37 6.06405 1.96347 0
M  V30 33647 C 3273.06 5.59194 2.46465 0
M  V30 33648 C 3274.06 6.49576 2.11044 0
M  V30 33649 O 3273.75 7.81023 1.90414 0
M  V30 33650 H 3273.48 0.500053 0.454887 0
M  V30 33651 H 3276.03 1.87788 0.832165 0
M  V30 33652 H 3274.26 1.86635 3.3868 0
M  V30 33653 H 3275.95 2.28404 3.35539 0
M  V30 33654 H 3276.72 4.39599 2.04884 0
M  V30 33655 H 3272.6 3.55211 2.93847 0
M  V30 33656 H 3276.14 6.76914 1.68623 0
M  V30 33657 H 3272.04 5.91709 2.57975 0
M  V30 33658 H 3272.81 7.92416 2.04986 0
M  V30 33659 N 3275.47 -0.908102 1.28807 0
M  V30 33660 C 3276.4 -2.02785 1.15761 0
M  V30 33661 C 3277.38 -1.70014 0.0539408 0
M  V30 33662 O 3278.57 -1.9281 0.231935 0
M  V30 33663 C 3275.7 -3.37369 0.824585 0
M  V30 33664 C 3274.65 -3.84321 1.88365 0
M  V30 33665 C 3273.98 -5.15934 1.40413 0
M  V30 33666 C 3275.28 -4.05562 3.29115 0
M  V30 33667 H 3276.97 -2.13957 2.09434 0
M  V30 33668 H 3274.52 -1.02804 1.00833 0
M  V30 33669 H 3276.47 -4.15202 0.720063 0
M  V30 33670 H 3275.19 -3.26265 -0.147845 0
M  V30 33671 H 3273.85 -3.08697 1.97742 0
M  V30 33672 H 3273.5 -5.01238 0.420603 0
M  V30 33673 H 3273.2 -5.48319 2.11234 0
M  V30 33674 H 3274.72 -5.96317 1.31294 0
M  V30 33675 H 3276.14 -4.73903 3.22628 0
M  V30 33676 H 3274.53 -4.49287 3.9782 0
M  V30 33677 H 3275.6 -3.1018 3.72715 0
M  V30 33678 N 3276.95 -1.11147 -1.11732 0
M  V30 33679 C 3277.88 -0.724843 -2.17437 0
M  V30 33680 C 3278.89 0.242041 -1.60991 0
M  V30 33681 O 3280.08 0.0253945 -1.78482 0
M  V30 33682 C 3277.18 -0.0500635 -3.38863 0
M  V30 33683 C 3276.35 -1.04299 -4.24783 0
M  V30 33684 C 3275.41 -0.398336 -5.2469 0
M  V30 33685 O 3274.44 -1.05135 -5.59406 0
M  V30 33686 N 3275.64 0.840083 -5.74389 0
M  V30 33687 H 3278.41 -1.63433 -2.51217 0
M  V30 33688 H 3275.97 -1.00128 -1.27225 0
M  V30 33689 H 3277.96 0.392858 -4.02789 0
M  V30 33690 H 3276.53 0.761952 -3.03172 0
M  V30 33691 H 3275.75 -1.66396 -3.5736 0
M  V30 33692 H 3277.04 -1.71487 -4.7903 0
M  V30 33693 H 3276.44 1.38984 -5.48361 0
M  V30 33694 H 3274.99 1.22603 -6.40165 0
M  V30 33695 N 3278.43 1.29282 -0.901326 0
M  V30 33696 C 3279.7 1.90412 -0.447503 0
M  V30 33697 C 3280.08 1.81799 1.07295 0
M  V30 33698 O 3279.43 1.24578 1.91553 0
M  V30 33699 C 3279.64 3.35425 -0.963908 0
M  V30 33700 C 3280.99 4.12447 -1.00858 0
M  V30 33701 O 3282.01 3.44335 -0.91169 0
M  V30 33702 O 3280.87 5.34169 -1.15435 0
M  V30 33703 H 3277.97 0.815102 -0.139775 0
M  V30 33704 H 3280.51 1.37737 -0.991298 0
M  V30 33705 H 3279.28 3.35857 -2.00788 0
M  V30 33706 H 3278.91 3.95581 -0.400218 0
M  V30 33707 N 3279.9 0.663979 1.4293 0
M  V30 33708 C 3281.15 0.181414 2.01284 0
M  V30 33709 C 3281.47 -1.21263 1.5271 0
M  V30 33710 O 3280.74 -1.81213 0.744213 0
M  V30 33711 H 3279.32 0.0640777 0.744247 0
M  V30 33712 H 3281.98 0.858062 1.74995 0
M  V30 33713 H 3281.08 0.174328 3.11613 0
M  V30 33714 N 3281.38 -1.52265 0.406593 0
M  V30 33715 C 3282.66 -1.94261 -0.228443 0
M  V30 33716 C 3283.04 -1.3433 -1.62845 0
M  V30 33717 O 3282.39 -0.518121 -2.22548 0
M  V30 33718 C 3282.6 -3.48192 -0.23734 0
M  V30 33719 C 3283.94 -4.22123 -0.457922 0
M  V30 33720 O 3284.97 -3.54788 -0.316806 0
M  V30 33721 O 3283.83 -5.41523 -0.735851 0
M  V30 33722 H 3280.92 -0.813925 -0.146477 0
M  V30 33723 H 3283.47 -1.6328 0.462353 0
M  V30 33724 H 3282.24 -3.84188 0.742624 0
M  V30 33725 H 3281.86 -3.85527 -0.972341 0
M  V30 33726 N 3282.86 -0.136936 -1.57004 0
M  V30 33727 C 3283.79 0.802863 -2.19263 0
M  V30 33728 C 3284.77 1.26437 -1.13788 0
M  V30 33729 O 3285.96 1.32375 -1.42094 0
M  V30 33730 C 3283.09 2.0461 -2.80628 0
M  V30 33731 C 3282.04 1.72174 -3.91842 0
M  V30 33732 C 3281.37 3.03678 -4.40095 0
M  V30 33733 C 3282.67 0.976159 -5.13097 0
M  V30 33734 H 3284.36 0.284008 -2.9805 0
M  V30 33735 H 3281.91 0.135163 -1.43364 0
M  V30 33736 H 3283.86 2.70829 -3.22846 0
M  V30 33737 H 3282.58 2.58851 -1.99157 0
M  V30 33738 H 3281.24 1.08338 -3.50226 0
M  V30 33739 H 3280.89 3.55889 -3.5546 0
M  V30 33740 H 3280.59 2.82742 -5.15103 0
M  V30 33741 H 3282.11 3.70984 -4.84977 0
M  V30 33742 H 3283.53 1.54023 -5.52223 0
M  V30 33743 H 3281.93 0.86711 -5.93802 0
M  V30 33744 H 3283 -0.033934 -4.84888 0
M  V30 33745 N 3284.34 1.57005 0.136853 0
M  V30 33746 C 3285.62 1.74836 0.87702 0
M  V30 33747 C 3286 0.707674 1.98885 0
M  V30 33748 O 3285.34 -0.271612 2.2688 0
M  V30 33749 C 3285.55 3.19242 1.41015 0
M  V30 33750 C 3286.9 3.81225 1.86956 0
M  V30 33751 O 3287.93 3.22734 1.50735 0
M  V30 33752 O 3286.78 4.83997 2.53789 0
M  V30 33753 H 3283.88 0.715231 0.41518 0
M  V30 33754 H 3286.42 1.69261 0.121986 0
M  V30 33755 H 3285.2 3.86491 0.61161 0
M  V30 33756 H 3284.82 3.29284 2.2284 0
M  V30 33757 N 3285.82 -0.406513 1.52267 0
M  V30 33758 C 3287.06 -1.15493 1.66701 0
M  V30 33759 C 3287.4 -1.90098 0.397052 0
M  V30 33760 O 3286.67 -1.84864 -0.604614 0
M  V30 33761 C 3286.95 -2.14729 2.89073 0
M  V30 33762 C 3286.81 -1.44004 4.26125 0
M  V30 33763 C 3288.13 -3.15368 3.06971 0
M  V30 33764 H 3285.24 -0.418504 0.606649 0
M  V30 33765 H 3287.89 -0.440349 1.84827 0
M  V30 33766 H 3286.04 -2.75668 2.7375 0
M  V30 33767 H 3287.71 -0.861642 4.53181 0
M  V30 33768 H 3285.95 -0.741989 4.27407 0
M  V30 33769 H 3286.62 -2.16427 5.07803 0
M  V30 33770 H 3289.1 -2.64506 3.21209 0
M  V30 33771 H 3287.97 -3.82065 3.94104 0
M  V30 33772 H 3288.24 -3.83243 2.20402 0
M  V30 33773 N 3287.29 -1.42934 -0.663904 0
M  V30 33774 C 3288.54 -1.44197 -1.42601 0
M  V30 33775 C 3288.87 -0.0620626 -1.94101 0
M  V30 33776 O 3288.15 0.91543 -1.7161 0
M  V30 33777 C 3288.43 -2.47549 -2.61518 0
M  V30 33778 C 3288.28 -3.94773 -2.1558 0
M  V30 33779 C 3289.6 -2.47759 -3.63736 0
M  V30 33780 H 3286.72 -0.525065 -0.51718 0
M  V30 33781 H 3289.36 -1.74417 -0.75358 0
M  V30 33782 H 3287.51 -2.2191 -3.18886 0
M  V30 33783 H 3289.19 -4.31431 -1.63295 0
M  V30 33784 H 3287.43 -4.08116 -1.4705 0
M  V30 33785 H 3288.1 -4.62683 -3.01045 0
M  V30 33786 H 3290.58 -2.70585 -3.16106 0
M  V30 33787 H 3289.45 -3.22033 -4.44506 0
M  V30 33788 H 3289.71 -1.50749 -4.15605 0
M  V30 33789 N 3288.77 0.901258 -1.29287 0
M  V30 33790 C 3290.02 1.6516 -1.17168 0
M  V30 33791 C 3290.35 1.92515 0.27715 0
M  V30 33792 O 3289.6 1.53275 1.21677 0
M  V30 33793 C 3289.9 3.00892 -1.9287 0
M  V30 33794 C 3289.57 2.93151 -3.42598 0
M  V30 33795 C 3288.23 2.90747 -3.83432 0
M  V30 33796 C 3290.58 2.82473 -4.38016 0
M  V30 33797 C 3287.91 2.75483 -5.18002 0
M  V30 33798 C 3290.26 2.68749 -5.72675 0
M  V30 33799 C 3288.93 2.6471 -6.12768 0
M  V30 33800 H 3288.2 0.604364 -0.428748 0
M  V30 33801 H 3290.84 1.04911 -1.60206 0
M  V30 33802 H 3289.15 3.64999 -1.42418 0
M  V30 33803 H 3290.84 3.57878 -1.80899 0
M  V30 33804 H 3287.43 2.95823 -3.1014 0
M  V30 33805 H 3291.62 2.83409 -4.07422 0
M  V30 33806 H 3286.87 2.70759 -5.48178 0
M  V30 33807 H 3291.05 2.59458 -6.46262 0
M  V30 33808 H 3288.68 2.5264 -7.16992 0
M  V30 33809 N 3290.25 1.11738 1.11141 0
M  V30 33810 C 3291.21 0.781778 2.15455 0
M  V30 33811 C 3292.21 -0.200355 1.59547 0
M  V30 33812 O 3293.4 0.0245199 1.74183 0
M  V30 33813 C 3290.54 0.160423 3.40522 0
M  V30 33814 H 3291.73 1.70591 2.46655 0
M  V30 33815 H 3289.28 0.919666 1.2638 0
M  V30 33816 H 3290.02 -0.773779 3.14934 0
M  V30 33817 H 3289.8 0.867445 3.82384 0
M  V30 33818 H 3291.29 -0.0581441 4.1756 0
M  V30 33819 N 3291.73 -1.28802 0.90817 0
M  V30 33820 C 3292.95 -1.99879 0.553466 0
M  V30 33821 C 3293.38 -1.67459 -0.856685 0
M  V30 33822 O 3292.74 -0.903877 -1.57162 0
M  V30 33823 C 3292.78 -3.52441 0.76275 0
M  V30 33824 O 3291.89 -4.12003 -0.180852 0
M  V30 33825 H 3291.23 -0.628144 0.215248 0
M  V30 33826 H 3293.76 -1.64093 1.22208 0
M  V30 33827 H 3293.77 -4.0245 0.670683 0
M  V30 33828 H 3292.44 -3.75372 1.79077 0
M  V30 33829 H 3291.02 -3.72878 -0.0405241 0
M  V30 33830 N 3293.21 -0.67155 -1.42576 0
M  V30 33831 C 3294.43 -0.199188 -2.06441 0
M  V30 33832 C 3294.86 1.13357 -1.50106 0
M  V30 33833 O 3294.21 1.70433 -0.618241 0
M  V30 33834 C 3294.26 -0.141279 -3.60323 0
M  V30 33835 O 3293.37 0.891168 -4.02656 0
M  V30 33836 H 3292.71 -0.103288 -0.655917 0
M  V30 33837 H 3295.24 -0.919646 -1.82767 0
M  V30 33838 H 3295.25 0.0359492 -4.07984 0
M  V30 33839 H 3293.92 -1.1141 -4.007 0
M  V30 33840 H 3292.5 0.685245 -3.6655 0
M  V30 33841 N 3294.68 1.52047 -0.414663 0
M  V30 33842 C 3295.91 2.06773 0.161101 0
M  V30 33843 C 3296.33 1.28222 1.37625 0
M  V30 33844 O 3295.69 0.313947 1.78561 0
M  V30 33845 C 3295.74 3.57331 0.484457 0
M  V30 33846 O 3294.84 3.81157 1.57459 0
M  V30 33847 H 3294.19 0.663895 0.0117886 0
M  V30 33848 H 3296.72 1.95925 -0.589459 0
M  V30 33849 H 3296.73 4.01205 0.741496 0
M  V30 33850 H 3295.4 4.13935 -0.403805 0
M  V30 33851 H 3293.98 3.49159 1.30928 0
M  V30 33852 N 3296.16 0.145261 1.56929 0
M  V30 33853 C 3297.11 -0.79509 2.16672 0
M  V30 33854 C 3298.08 -1.24535 1.0991 0
M  V30 33855 O 3299.26 -1.31819 1.37943 0
M  V30 33856 C 3296.4 -2.02951 2.79115 0
M  V30 33857 C 3295.52 -1.62521 4.00263 0
M  V30 33858 C 3294.65 -2.8113 4.5071 0
M  V30 33859 C 3293.69 -2.37065 5.64329 0
M  V30 33860 N 3292.83 -3.48676 6.09401 0
M  V30 33861 H 3297.67 -0.278813 2.96693 0
M  V30 33862 H 3295.21 -0.125908 1.4656 0
M  V30 33863 H 3297.16 -2.75314 3.13461 0
M  V30 33864 H 3295.79 -2.51992 2.01741 0
M  V30 33865 H 3294.85 -0.7993 3.71908 0
M  V30 33866 H 3296.16 -1.26157 4.82582 0
M  V30 33867 H 3295.31 -3.61685 4.87103 0
M  V30 33868 H 3294.05 -3.20737 3.67395 0
M  V30 33869 H 3293.06 -1.54949 5.27514 0
M  V30 33870 H 3294.28 -1.98545 6.49428 0
M  V30 33871 H 3292.23 -3.87908 5.29021 0
M  V30 33872 H 3292.14 -3.16321 6.86642 0
M  V30 33873 H 3293.41 -4.29593 6.50438 0
M  V30 33874 N 3297.64 -1.57075 -0.128525 0
M  V30 33875 C 3298.88 -1.86162 -0.843979 0
M  V30 33876 C 3299.25 -0.732011 -1.77498 0
M  V30 33877 O 3300.45 -0.904402 -2.53128 0
M  V30 33878 C 3298.72 -3.20464 -1.58232 0
M  V30 33879 S 3300.28 -3.71158 -2.34066 0
M  V30 33880 H 3297.09 -0.652739 -0.281873 0
M  V30 33881 H 3299.7 -1.95229 -0.102868 0
M  V30 33882 H 3298.4 -4.0063 -0.890175 0
M  V30 33883 H 3297.93 -3.1445 -2.36399 0
M  V30 33884 H 3299.95 -3.41898 -3.59611 0
M  V30 33885 N 3299.12 0.398432 -1.5248 0
M  V30 33886 C 3300.37 1.14212 -1.66733 0
M  V30 33887 C 3300.69 1.90748 -0.404991 0
M  V30 33888 O 3299.96 1.87105 0.580402 0
M  V30 33889 H 3298.54 0.424611 -0.614585 0
M  V30 33890 H 3301.2 0.453026 -1.89562 0
M  V30 33891 H 3300.3 1.85027 -2.5134 0
M  V30 33892 N 3300.6 1.43284 0.656314 0
M  V30 33893 C 3301.54 1.48202 1.76931 0
M  V30 33894 C 3302.51 0.332052 1.62747 0
M  V30 33895 O 3303.7 0.538768 1.83035 0
M  V30 33896 C 3300.84 1.40802 3.15069 0
M  V30 33897 C 3299.95 2.6598 3.4041 0
M  V30 33898 C 3299.09 2.5059 4.68378 0
M  V30 33899 C 3298.13 3.71052 4.86813 0
M  V30 33900 N 3297.26 3.54491 6.06037 0
M  V30 33901 H 3302.1 2.43307 1.72063 0
M  V30 33902 H 3299.64 1.20778 0.839707 0
M  V30 33903 H 3301.6 1.34506 3.94923 0
M  V30 33904 H 3300.23 0.49281 3.19016 0
M  V30 33905 H 3299.28 2.82567 2.54676 0
M  V30 33906 H 3300.59 3.55469 3.49919 0
M  V30 33907 H 3299.75 2.41985 5.56353 0
M  V30 33908 H 3298.49 1.5862 4.61184 0
M  V30 33909 H 3297.49 3.80069 3.97275 0
M  V30 33910 H 3298.72 4.64026 4.95839 0
M  V30 33911 H 3296.66 2.65253 5.99981 0
M  V30 33912 H 3296.58 4.37579 6.1649 0
M  V30 33913 H 3297.85 3.49731 6.96641 0
M  V30 33914 N 3302.08 -0.894389 1.29763 0
M  V30 33915 C 3303.35 -1.62606 1.08714 0
M  V30 33916 C 3303.73 -2.07888 -0.366871 0
M  V30 33917 O 3303.08 -1.83867 -1.35666 0
M  V30 33918 C 3303.29 -2.80281 2.07952 0
M  V30 33919 C 3304.64 -3.50839 2.39159 0
M  V30 33920 O 3305.66 -2.90456 2.06188 0
M  V30 33921 O 3304.52 -4.59708 2.95517 0
M  V30 33922 H 3301.62 -0.714242 0.416879 0
M  V30 33923 H 3304.16 -0.941991 1.41155 0
M  V30 33924 H 3302.93 -2.44056 3.05864 0
M  V30 33925 H 3302.56 -3.5639 1.76273 0
M  V30 33926 N 3303.55 -1.12326 -1.10547 0
M  V30 33927 C 3304.5 -0.790063 -2.16856 0
M  V30 33928 C 3305.47 0.242665 -1.64318 0
M  V30 33929 O 3306.66 0.117498 -1.90438 0
M  V30 33930 C 3303.8 -0.249563 -3.44196 0
M  V30 33931 C 3302.91 -1.33997 -4.10693 0
M  V30 33932 C 3302.04 -0.759025 -5.25749 0
M  V30 33933 C 3301.08 -1.82863 -5.84147 0
M  V30 33934 N 3300.22 -1.26649 -6.90583 0
M  V30 33935 H 3305.06 -1.70074 -2.44702 0
M  V30 33936 H 3302.6 -0.849162 -1.20115 0
M  V30 33937 H 3304.55 0.0818518 -4.1712 0
M  V30 33938 H 3303.18 0.624277 -3.16706 0
M  V30 33939 H 3302.24 -1.78818 -3.3575 0
M  V30 33940 H 3303.55 -2.14883 -4.50141 0
M  V30 33941 H 3302.7 -0.378211 -6.0552 0
M  V30 33942 H 3301.44 0.0810548 -4.87633 0
M  V30 33943 H 3300.45 -2.21865 -5.03047 0
M  V30 33944 H 3301.67 -2.67191 -6.24328 0
M  V30 33945 H 3299.62 -0.44822 -6.54467 0
M  V30 33946 H 3299.53 -2.01197 -7.28736 0
M  V30 33947 H 3300.8 -0.912873 -7.74136 0
M  V30 33948 N 3305.03 1.28319 -0.914988 0
M  V30 33949 C 3306.26 1.99045 -0.564689 0
M  V30 33950 C 3306.67 1.68365 0.854316 0
M  V30 33951 O 3306.03 0.937096 1.56604 0
M  V30 33952 C 3306.08 3.53297 -0.765725 0
M  V30 33953 O 3305.8 3.82897 -2.12889 0
M  V30 33954 C 3307.3 4.41283 -0.422425 0
M  V30 33955 H 3304.52 0.635565 -0.215169 0
M  V30 33956 H 3307.07 1.63485 -1.22853 0
M  V30 33957 H 3305.22 3.87114 -0.148863 0
M  V30 33958 H 3305.64 4.77529 -2.16948 0
M  V30 33959 H 3307.11 5.48576 -0.613853 0
M  V30 33960 H 3307.59 4.34491 0.641408 0
M  V30 33961 H 3308.19 4.12964 -1.01688 0
M  V30 33962 N 3306.51 0.679102 1.42218 0
M  V30 33963 C 3307.46 0.00344373 2.308 0
M  V30 33964 C 3308.43 -0.788308 1.46202 0
M  V30 33965 O 3309.61 -0.759685 1.75024 0
M  V30 33966 C 3306.75 -0.938795 3.32085 0
M  V30 33967 C 3305.86 -0.140409 4.31772 0
M  V30 33968 C 3305 -1.07879 5.2013 0
M  V30 33969 C 3304.04 -0.272343 6.11494 0
M  V30 33970 N 3303.18 -1.16366 6.9239 0
M  V30 33971 H 3308.02 0.764637 2.88023 0
M  V30 33972 H 3305.55 0.388805 1.41869 0
M  V30 33973 H 3307.51 -1.49896 3.89342 0
M  V30 33974 H 3306.14 -1.66657 2.76451 0
M  V30 33975 H 3305.19 0.536442 3.76599 0
M  V30 33976 H 3306.5 0.485521 4.96431 0
M  V30 33977 H 3305.66 -1.70874 5.8214 0
M  V30 33978 H 3304.4 -1.7386 4.55658 0
M  V30 33979 H 3303.4 0.37079 5.48548 0
M  V30 33980 H 3304.63 0.383434 6.78017 0
M  V30 33981 H 3302.57 -1.80979 6.30542 0
M  V30 33982 H 3302.49 -0.59291 7.53671 0
M  V30 33983 H 3303.76 -1.78094 7.58883 0
M  V30 33984 N 3307.99 -1.51825 0.42272 0
M  V30 33985 C 3309.21 -2.06856 -0.150133 0
M  V30 33986 C 3309.64 -1.2895 -1.36943 0
M  V30 33987 O 3309 -0.323412 -1.78392 0
M  V30 33988 C 3309.04 -3.57583 -0.4655 0
M  V30 33989 O 3308.15 -3.81986 -1.55435 0
M  V30 33990 H 3307.49 -0.663949 -0.00826764 0
M  V30 33991 H 3310.02 -1.95609 0.599841 0
M  V30 33992 H 3310.03 -4.01593 -0.720209 0
M  V30 33993 H 3308.7 -4.13715 0.425752 0
M  V30 33994 H 3307.28 -3.49849 -1.29075 0
M  V30 33995 N 3309.47 -0.153581 -1.5685 0
M  V30 33996 C 3310.71 0.496615 -1.96625 0
M  V30 33997 C 3311.04 1.64081 -1.03879 0
M  V30 33998 O 3310.32 1.94325 -0.0824454 0
M  V30 33999 C 3310.6 0.996525 -3.46037 0
M  V30 34000 C 3310.46 -0.14663 -4.49561 0
M  V30 34001 C 3311.77 1.87613 -3.98107 0
M  V30 34002 H 3308.89 0.179047 -0.71492 0
M  V30 34003 H 3311.54 -0.236137 -1.88527 0
M  V30 34004 H 3309.69 1.62094 -3.53069 0
M  V30 34005 H 3311.36 -0.783187 -4.54603 0
M  V30 34006 H 3309.6 -0.804802 -4.26269 0
M  V30 34007 H 3310.27 0.244981 -5.51456 0
M  V30 34008 H 3312.75 1.3499 -3.93595 0
M  V30 34009 H 3311.62 2.19499 -5.03102 0
M  V30 34010 H 3311.88 2.81548 -3.40857 0
M  V30 34011 N 3310.94 1.57141 0.120193 0
M  V30 34012 C 3312.17 1.89346 0.846337 0
M  V30 34013 C 3312.59 0.745395 1.72701 0
M  V30 34014 O 3311.95 -0.304123 1.78731 0
M  V30 34015 C 3312 3.20292 1.65666 0
M  V30 34016 O 3311.1 3.06114 2.76348 0
M  V30 34017 H 3310.44 0.621356 0.234121 0
M  V30 34018 H 3312.97 2.04341 0.10295 0
M  V30 34019 H 3312.98 3.52983 2.04615 0
M  V30 34020 H 3311.66 4.03446 1.01016 0
M  V30 34021 H 3310.24 2.84888 2.4061 0
M  V30 34022 N 3312.42 -0.39034 1.5269 0
M  V30 34023 C 3313.65 -1.16126 1.71841 0
M  V30 34024 C 3314.07 -1.82995 0.435258 0
M  V30 34025 O 3313.43 -1.70771 -0.60886 0
M  V30 34026 C 3313.48 -2.18598 2.86788 0
M  V30 34027 O 3312.58 -3.25156 2.53668 0
M  V30 34028 H 3311.92 -0.338125 0.571461 0
M  V30 34029 H 3314.45 -0.455045 1.99476 0
M  V30 34030 H 3314.46 -2.62617 3.12244 0
M  V30 34031 H 3313.14 -1.69315 3.79875 0
M  V30 34032 H 3311.72 -2.86285 2.38947 0
M  V30 34033 N 3313.9 -1.4363 -0.648706 0
M  V30 34034 C 3315.13 -1.48935 -1.43618 0
M  V30 34035 C 3315.54 -0.108632 -1.88487 0
M  V30 34036 O 3314.9 0.882038 -1.5977 0
M  V30 34037 C 3314.95 -2.43907 -2.66817 0
M  V30 34038 O 3314.67 -3.76609 -2.23823 0
M  V30 34039 C 3316.17 -2.58499 -3.60129 0
M  V30 34040 H 3313.39 -0.505687 -0.441046 0
M  V30 34041 H 3315.94 -1.88419 -0.794903 0
M  V30 34042 H 3314.09 -2.07607 -3.27075 0
M  V30 34043 H 3314.51 -4.27723 -3.03568 0
M  V30 34044 H 3315.98 -3.29018 -4.43228 0
M  V30 34045 H 3316.46 -1.63141 -4.07777 0
M  V30 34046 H 3317.06 -2.95629 -3.0575 0
M  V30 34047 N 3315.38 0.887495 -1.30236 0
M  V30 34048 C 3316.63 1.63379 -1.1828 0
M  V30 34049 C 3316.94 1.93837 0.262045 0
M  V30 34050 O 3318.15 2.66798 0.50308 0
M  V30 34051 C 3316.6 2.94449 -2.06949 0
M  V30 34052 C 3316.21 2.71541 -3.56328 0
M  V30 34053 C 3317.95 3.72406 -2.03749 0
M  V30 34054 C 3315.86 3.98411 -4.37061 0
M  V30 34055 H 3314.79 0.612951 -0.439098 0
M  V30 34056 H 3317.44 0.982751 -1.54965 0
M  V30 34057 H 3315.82 3.60832 -1.63144 0
M  V30 34058 H 3317 2.13674 -4.08265 0
M  V30 34059 H 3315.31 2.06962 -3.61325 0
M  V30 34060 H 3317.91 4.66493 -2.61321 0
M  V30 34061 H 3318.25 4.03602 -1.02037 0
M  V30 34062 H 3318.79 3.12882 -2.45662 0
M  V30 34063 H 3315.53 3.72376 -5.39459 0
M  V30 34064 H 3315.05 4.55792 -3.89889 0
M  V30 34065 H 3316.72 4.66454 -4.48364 0
M  V30 34066 N 3316.86 1.12911 1.0995 0
M  V30 34067 C 3318.1 0.887514 1.82015 0
M  V30 34068 C 3318.43 -0.586514 1.85446 0
M  V30 34069 O 3317.69 -1.44982 1.31448 0
M  V30 34070 C 3317.99 1.41375 3.2825 0
M  V30 34071 C 3317.65 2.90368 3.44959 0
M  V30 34072 C 3316.31 3.31049 3.49227 0
M  V30 34073 C 3318.67 3.86253 3.4994 0
M  V30 34074 C 3315.99 4.66311 3.56049 0
M  V30 34075 C 3318.35 5.21351 3.58296 0
M  V30 34076 C 3317.01 5.61567 3.6083 0
M  V30 34077 H 3316.28 0.324764 0.66604 0
M  V30 34078 H 3318.93 1.41014 1.29566 0
M  V30 34079 H 3317.23 0.811697 3.833 0
M  V30 34080 H 3318.93 1.20296 3.82531 0
M  V30 34081 H 3315.52 2.57907 3.42318 0
M  V30 34082 H 3319.7 3.55914 3.45888 0
M  V30 34083 H 3314.96 4.96853 3.56296 0
M  V30 34084 H 3319.13 5.9547 3.61094 0
M  V30 34085 H 3316.76 6.66366 3.65869 0
M  V30 34086 N 3318.33 -1.27832 0.92178 0
M  V30 34087 C 3319.58 -1.94628 0.559112 0
M  V30 34088 C 3319.91 -1.72497 -0.898611 0
M  V30 34089 O 3319.16 -1.04373 -1.65544 0
M  V30 34090 C 3319.46 -3.47764 0.82432 0
M  V30 34091 C 3319.13 -3.90007 2.26285 0
M  V30 34092 C 3317.79 -4.01252 2.65614 0
M  V30 34093 C 3320.14 -4.11508 3.19861 0
M  V30 34094 C 3317.47 -4.3138 3.97653 0
M  V30 34095 C 3319.82 -4.43118 4.51474 0
M  V30 34096 C 3318.49 -4.52574 4.90645 0
M  V30 34097 H 3317.76 -0.712195 0.204594 0
M  V30 34098 H 3320.4 -1.52016 1.16462 0
M  V30 34099 H 3318.71 -3.91564 0.13608 0
M  V30 34100 H 3320.41 -3.97578 0.522771 0
M  V30 34101 H 3317 -3.81788 1.94771 0
M  V30 34102 H 3321.18 -4.02266 2.90681 0
M  V30 34103 H 3316.44 -4.36909 4.27692 0
M  V30 34104 H 3320.61 -4.58702 5.2399 0
M  V30 34105 H 3318.24 -4.75674 5.92991 0
M  V30 34106 N 3319.81 -0.686634 -1.41856 0
M  V30 34107 C 3320.76 0.00730658 -2.27999 0
M  V30 34108 C 3321.75 0.761783 -1.41724 0
M  V30 34109 O 3322.94 0.638747 -1.65073 0
M  V30 34110 C 3320.07 0.949404 -3.29911 0
M  V30 34111 C 3319.15 0.191648 -4.23667 0
M  V30 34112 N 3319.54 -0.809803 -4.99275 0
M  V30 34113 C 3317.84 0.428411 -4.43938 0
M  V30 34114 C 3318.54 -1.2626 -5.67832 0
M  V30 34115 N 3317.52 -0.590246 -5.40386 0
M  V30 34116 H 3321.32 -0.760658 -2.83886 0
M  V30 34117 H 3318.84 -0.516703 -1.53961 0
M  V30 34118 H 3320.83 1.46162 -3.90438 0
M  V30 34119 H 3319.49 1.71706 -2.75585 0
M  V30 34120 H 3320.5 -1.18975 -5.04049 0
M  V30 34121 H 3317.18 1.17465 -4.00635 0
M  V30 34122 H 3318.57 -2.09312 -6.38465 0
M  V30 34123 N 3321.29 1.51599 -0.430766 0
M  V30 34124 C 3322.53 2.03939 0.137148 0
M  V30 34125 C 3322.89 1.30825 1.4053 0
M  V30 34126 O 3324.1 1.73504 2.05304 0
M  V30 34127 C 3322.37 3.55609 0.357332 0
M  V30 34128 S 3323.93 4.29688 0.889593 0
M  V30 34129 H 3320.74 0.710141 0.0349304 0
M  V30 34130 H 3323.35 1.86427 -0.588661 0
M  V30 34131 H 3322.05 4.06393 -0.572082 0
M  V30 34132 H 3321.58 3.77404 1.11041 0
M  V30 34133 H 3323.6 4.46337 2.16789 0
M  V30 34134 N 3322.77 0.161897 1.56766 0
M  V30 34135 C 3324.05 -0.531319 1.88245 0
M  V30 34136 C 3324.43 -1.81956 1.07028 0
M  V30 34137 O 3323.77 -2.27929 0.161425 0
M  V30 34138 C 3323.98 -0.782356 3.40118 0
M  V30 34139 C 3325.33 -1.11654 4.09657 0
M  V30 34140 O 3326.36 -0.871213 3.45381 0
M  V30 34141 O 3325.21 -1.57891 5.23195 0
M  V30 34142 H 3322.31 -0.272745 0.78073 0
M  V30 34143 H 3324.85 0.199627 1.68522 0
M  V30 34144 H 3323.63 0.128746 3.91088 0
M  V30 34145 H 3323.25 -1.56695 3.65421 0
M  V30 34146 N 3324.25 -1.57203 -0.111858 0
M  V30 34147 C 3325.66 -1.74332 -0.66823 0
M  V30 34148 C 3326.01 -0.781641 -1.79958 0
M  V30 34149 O 3325.13 0.0437949 -2.16356 0
M  V30 34150 C 3325.73 -3.16113 -1.21895 0
M  V30 34151 C 3324.29 -3.34724 -1.72154 0
M  V30 34152 C 3323.43 -2.70184 -0.624175 0
M  V30 34153 H 3326.39 -1.58289 0.114109 0
M  V30 34154 H 3326.41 -3.18058 -2.08853 0
M  V30 34155 H 3325.92 -3.86081 -0.395314 0
M  V30 34156 H 3324.02 -2.69808 -2.56972 0
M  V30 34157 H 3324.13 -4.42935 -1.82607 0
M  V30 34158 H 3322.5 -2.31616 -1.05954 0
M  V30 34159 H 3323.28 -3.42782 0.188598 0
M  V30 34160 N 3325.72 0.382237 -1.52894 0
M  V30 34161 C 3326.65 1.47363 -1.81125 0
M  V30 34162 C 3327.64 1.56618 -0.66368 0
M  V30 34163 O 3328.82 1.71457 -0.911928 0
M  V30 34164 C 3325.95 2.84899 -1.9862 0
M  V30 34165 C 3324.9 2.9048 -3.14333 0
M  V30 34166 C 3324.23 4.3053 -3.17093 0
M  V30 34167 C 3325.53 2.59511 -4.53267 0
M  V30 34168 H 3327.22 1.23988 -2.7252 0
M  V30 34169 H 3324.77 0.595026 -1.31131 0
M  V30 34170 H 3326.72 3.61261 -2.16952 0
M  V30 34171 H 3325.45 3.09626 -1.0392 0
M  V30 34172 H 3324.11 2.16566 -2.95795 0
M  V30 34173 H 3323.75 4.52307 -2.20063 0
M  V30 34174 H 3323.45 4.35183 -3.94828 0
M  V30 34175 H 3324.98 5.08789 -3.37589 0
M  V30 34176 H 3326.39 3.2559 -4.71873 0
M  V30 34177 H 3324.79 2.75505 -5.3312 0
M  V30 34178 H 3325.86 1.54823 -4.59519 0
M  V30 34179 N 3327.2 1.43972 0.64108 0
M  V30 34180 C 3328.45 1.46448 1.40289 0
M  V30 34181 C 3328.78 0.0929345 1.93978 0
M  V30 34182 O 3328.06 -0.888012 1.73045 0
M  V30 34183 C 3328.34 2.51678 2.57547 0
M  V30 34184 C 3328.19 3.98152 2.09272 0
M  V30 34185 C 3329.51 2.53514 3.59748 0
M  V30 34186 H 3326.63 0.533227 0.508761 0
M  V30 34187 H 3329.27 1.75593 0.725736 0
M  V30 34188 H 3327.42 2.26955 3.15315 0
M  V30 34189 H 3329.1 4.33974 1.56411 0
M  V30 34190 H 3327.34 4.10404 1.40538 0
M  V30 34191 H 3328.01 4.67414 2.93646 0
M  V30 34192 H 3330.49 2.7558 3.11761 0
M  V30 34193 H 3329.36 3.29064 4.39327 0
M  V30 34194 H 3329.62 1.57342 4.13154 0
M  V30 34195 N 3328.68 -0.880575 1.30704 0
M  V30 34196 C 3329.59 -2.01947 1.19393 0
M  V30 34197 C 3330.61 -1.73633 0.112898 0
M  V30 34198 O 3331.78 -1.987 0.328678 0
M  V30 34199 C 3328.85 -3.35054 0.891063 0
M  V30 34200 C 3327.91 -3.76761 2.05791 0
M  V30 34201 C 3327.14 -5.03516 1.7694 0
M  V30 34202 O 3327.37 -5.66096 0.699426 0
M  V30 34203 O 3326.3 -5.41735 2.62309 0
M  V30 34204 H 3330.13 -2.14419 2.15077 0
M  V30 34205 H 3327.71 -1.00724 1.10341 0
M  V30 34206 H 3329.59 -4.14895 0.737549 0
M  V30 34207 H 3328.27 -3.2368 -0.035834 0
M  V30 34208 H 3327.17 -2.97604 2.26677 0
M  V30 34209 H 3328.51 -3.92745 2.96668 0
M  V30 34210 N 3330.16 -1.13492 -1.09349 0
M  V30 34211 C 3331.44 -0.808256 -1.7812 0
M  V30 34212 C 3331.82 0.700037 -1.99155 0
M  V30 34213 O 3331.16 1.63759 -1.59359 0
M  V30 34214 C 3331.37 -1.59607 -3.10365 0
M  V30 34215 C 3332.72 -1.78925 -3.8506 0
M  V30 34216 O 3333.75 -1.56212 -3.20119 0
M  V30 34217 O 3332.61 -2.1683 -5.01644 0
M  V30 34218 H 3329.7 -0.295186 -0.772524 0
M  V30 34219 H 3332.25 -1.23958 -1.15899 0
M  V30 34220 H 3331.02 -2.62106 -2.90544 0
M  V30 34221 H 3330.64 -1.15973 -3.8031 0
M  V30 34222 N 3331.64 1.27341 -0.928546 0
M  V30 34223 C 3332.89 1.93945 -0.568301 0
M  V30 34224 C 3333.21 1.73327 0.89347 0
M  V30 34225 O 3332.48 1.0815 1.63342 0
M  V30 34226 H 3331.06 0.717693 -0.207186 0
M  V30 34227 H 3333.72 1.55034 -1.18112 0
M  V30 34228 H 3332.81 3.02317 -0.775299 0
M  V30 34229 N 3333.12 0.694147 1.4149 0
M  V30 34230 C 3334.36 0.221621 2.00479 0
M  V30 34231 C 3334.68 -1.18515 1.55607 0
M  V30 34232 O 3335.88 -1.75507 2.07146 0
M  V30 34233 C 3334.34 0.345327 3.58239 0
M  V30 34234 C 3333.95 1.75737 4.12093 0
M  V30 34235 C 3335.69 -0.0674985 4.24446 0
M  V30 34236 C 3333.6 1.83281 5.62283 0
M  V30 34237 H 3332.53 0.0790986 0.74984 0
M  V30 34238 H 3335.18 0.862139 1.61986 0
M  V30 34239 H 3333.56 -0.363417 3.94329 0
M  V30 34240 H 3334.74 2.49476 3.87425 0
M  V30 34241 H 3333.05 2.11975 3.58407 0
M  V30 34242 H 3335.65 -0.0315545 5.34691 0
M  V30 34243 H 3335.99 -1.10599 4.0134 0
M  V30 34244 H 3336.52 0.590919 3.93387 0
M  V30 34245 H 3333.26 2.85178 5.90215 0
M  V30 34246 H 3332.78 1.13925 5.88881 0
M  V30 34247 H 3334.46 1.59505 6.2703 0
M  V30 34248 N 3334.59 -1.51368 0.438799 0
M  V30 34249 C 3336 -1.86685 -0.0239811 0
M  V30 34250 C 3336.36 -1.35586 -1.41813 0
M  V30 34251 O 3335.48 -0.707268 -2.04516 0
M  V30 34252 C 3336.08 -3.38763 -0.0502932 0
M  V30 34253 C 3334.63 -3.73609 -0.457491 0
M  V30 34254 C 3333.78 -2.75096 0.3489 0
M  V30 34255 H 3336.73 -1.44572 0.654577 0
M  V30 34256 H 3336.75 -3.70666 -0.859469 0
M  V30 34257 H 3336.27 -3.75924 0.964517 0
M  V30 34258 H 3334.37 -3.42038 -1.47785 0
M  V30 34259 H 3334.48 -4.78757 -0.181272 0
M  V30 34260 H 3332.84 -2.53968 -0.192992 0
M  V30 34261 H 3333.63 -3.151 1.36261 0
M  V30 34262 N 3336.07 -0.170208 -1.56678 0
M  V30 34263 C 3336.98 0.77304 -2.21498 0
M  V30 34264 C 3338 1.25399 -1.20628 0
M  V30 34265 O 3339.17 1.30635 -1.53286 0
M  V30 34266 C 3336.24 1.98553 -2.84214 0
M  V30 34267 C 3335.3 1.55157 -4.00281 0
M  V30 34268 C 3334.53 2.70626 -4.59997 0
M  V30 34269 O 3334.76 3.87465 -4.18602 0
M  V30 34270 O 3333.69 2.44765 -5.49885 0
M  V30 34271 H 3337.52 0.251142 -3.0266 0
M  V30 34272 H 3335.1 0.0579358 -1.49288 0
M  V30 34273 H 3336.98 2.69466 -3.23984 0
M  V30 34274 H 3335.66 2.49651 -2.06049 0
M  V30 34275 H 3334.56 0.811974 -3.65182 0
M  V30 34276 H 3335.9 1.08752 -4.80035 0
M  V30 34277 N 3337.55 1.5726 0.10352 0
M  V30 34278 C 3338.8 1.85658 0.808544 0
M  V30 34279 C 3339.12 0.757533 1.79142 0
M  V30 34280 O 3338.38 -0.249688 1.94101 0
M  V30 34281 C 3338.68 3.20608 1.5794 0
M  V30 34282 C 3338.34 4.44796 0.739424 0
M  V30 34283 C 3337.01 4.78513 0.507837 0
M  V30 34284 C 3339.36 5.2097 0.154942 0
M  V30 34285 C 3336.69 5.85836 -0.318232 0
M  V30 34286 C 3339.04 6.29164 -0.658402 0
M  V30 34287 C 3337.7 6.61403 -0.90016 0
M  V30 34288 H 3336.97 0.67937 0.295867 0
M  V30 34289 H 3339.62 1.91371 0.0703267 0
M  V30 34290 H 3337.92 3.10541 2.38896 0
M  V30 34291 H 3339.62 3.39806 2.12915 0
M  V30 34292 H 3336.21 4.18388 0.930029 0
M  V30 34293 H 3340.4 4.95261 0.321043 0
M  V30 34294 H 3335.65 6.0923 -0.514603 0
M  V30 34295 H 3339.83 6.87364 -1.11821 0
M  V30 34296 H 3337.45 7.44395 -1.54207 0
M  V30 34297 N 3339.03 -0.374123 1.53095 0
M  V30 34298 C 3340.25 -1.14297 1.73063 0
M  V30 34299 C 3340.68 -1.82523 0.454643 0
M  V30 34300 O 3340.04 -1.71407 -0.590713 0
M  V30 34301 C 3340.08 -2.15544 2.8909 0
M  V30 34302 O 3339.19 -3.22447 2.57102 0
M  V30 34303 H 3338.53 -0.332044 0.575015 0
M  V30 34304 H 3341.06 -0.433862 1.99947 0
M  V30 34305 H 3341.07 -2.5929 3.15012 0
M  V30 34306 H 3339.74 -1.65276 3.8165 0
M  V30 34307 H 3338.32 -2.83734 2.4197 0
M  V30 34308 N 3340.51 -1.4431 -0.633436 0
M  V30 34309 C 3341.46 -1.47435 -1.73917 0
M  V30 34310 C 3342.44 -0.340409 -1.57258 0
M  V30 34311 O 3343.63 -0.585558 -1.67034 0
M  V30 34312 C 3340.76 -1.41918 -3.12593 0
M  V30 34313 C 3339.85 -2.60417 -3.3473 0
M  V30 34314 N 3340.24 -3.85675 -3.27243 0
M  V30 34315 C 3338.54 -2.55563 -3.65518 0
M  V30 34316 C 3339.24 -4.6462 -3.50005 0
M  V30 34317 N 3338.21 -3.95657 -3.72768 0
M  V30 34318 H 3342.01 -2.42131 -1.66583 0
M  V30 34319 H 3339.53 -1.3924 -0.83582 0
M  V30 34320 H 3341.53 -1.4224 -3.91884 0
M  V30 34321 H 3340.19 -0.482582 -3.21094 0
M  V30 34322 H 3341.2 -4.17677 -3.06213 0
M  V30 34323 H 3337.87 -1.70688 -3.81014 0
M  V30 34324 H 3339.26 -5.73646 -3.49829 0
M  V30 34325 N 3341.98 0.873632 -1.3117 0
M  V30 34326 C 3342.89 2.01311 -1.20462 0
M  V30 34327 C 3343.91 1.73571 -0.122105 0
M  V30 34328 O 3345.09 1.98523 -0.33921 0
M  V30 34329 C 3342.15 3.34576 -0.908819 0
M  V30 34330 C 3341.21 3.75664 -2.07786 0
M  V30 34331 C 3340.45 5.0257 -1.79608 0
M  V30 34332 O 3340.67 5.65717 -0.729438 0
M  V30 34333 O 3339.6 5.40337 -2.65179 0
M  V30 34334 H 3343.43 2.13276 -2.16211 0
M  V30 34335 H 3341.01 1.00137 -1.10873 0
M  V30 34336 H 3342.9 4.14498 -0.759542 0
M  V30 34337 H 3341.57 3.23695 0.018668 0
M  V30 34338 H 3340.48 2.96398 -2.28252 0
M  V30 34339 H 3341.81 3.91166 -2.98747 0
M  V30 34340 N 3343.46 1.1407 1.08746 0
M  V30 34341 C 3344.69 0.93017 1.84812 0
M  V30 34342 C 3345.11 -0.521235 1.81462 0
M  V30 34343 O 3344.46 -1.36106 1.21579 0
M  V30 34344 C 3344.51 1.41869 3.32499 0
M  V30 34345 O 3344.23 2.81322 3.35841 0
M  V30 34346 C 3345.74 1.2476 4.25382 0
M  V30 34347 H 3342.96 0.331243 0.58354 0
M  V30 34348 H 3345.5 1.51498 1.37364 0
M  V30 34349 H 3343.65 0.876731 3.77349 0
M  V30 34350 H 3344.07 3.03167 4.28007 0
M  V30 34351 H 3345.54 1.63807 5.27135 0
M  V30 34352 H 3346.02 0.190067 4.38789 0
M  V30 34353 H 3346.63 1.77793 3.86354 0
M  V30 34354 N 3344.94 -1.26847 0.935286 0
M  V30 34355 C 3345.9 -2.24841 0.44489 0
M  V30 34356 C 3346.9 -1.54642 -0.440754 0
M  V30 34357 O 3348.09 -1.72528 -0.240763 0
M  V30 34358 C 3345.23 -3.38999 -0.359506 0
M  V30 34359 H 3346.42 -2.69737 1.31079 0
M  V30 34360 H 3343.97 -1.389 0.71669 0
M  V30 34361 H 3344.71 -2.99495 -1.2439 0
M  V30 34362 H 3344.49 -3.9113 0.275598 0
M  V30 34363 H 3345.98 -4.11814 -0.692732 0
M  V30 34364 N 3346.42 -0.701641 -1.4112 0
M  V30 34365 C 3347.7 -0.162945 -1.9492 0
M  V30 34366 C 3348.08 1.32836 -1.64066 0
M  V30 34367 O 3347.42 2.07775 -0.950884 0
M  V30 34368 C 3347.63 -0.460734 -3.45945 0
M  V30 34369 C 3348.98 -0.39178 -4.22789 0
M  V30 34370 O 3350.01 -0.395993 -3.53992 0
M  V30 34371 O 3348.86 -0.357167 -5.45332 0
M  V30 34372 H 3345.96 -0.0185248 -0.826792 0
M  V30 34373 H 3348.5 -0.778218 -1.50804 0
M  V30 34374 H 3347.28 -1.49275 -3.61708 0
M  V30 34375 H 3346.9 0.185207 -3.97168 0
M  V30 34376 N 3347.9 1.51133 -0.446821 0
M  V30 34377 C 3349.14 2.04073 0.11551 0
M  V30 34378 C 3349.5 1.32308 1.39135 0
M  V30 34379 O 3350.7 1.75672 2.03452 0
M  V30 34380 C 3348.97 3.55968 0.319595 0
M  V30 34381 S 3350.53 4.30607 0.843969 0
M  V30 34382 H 3347.35 0.710472 0.0273964 0
M  V30 34383 H 3349.95 1.85792 -0.608401 0
M  V30 34384 H 3348.66 4.05764 -0.615153 0
M  V30 34385 H 3348.19 3.7856 1.07032 0
M  V30 34386 H 3350.2 4.48611 2.12043 0
M  V30 34387 N 3349.37 0.178515 1.56586 0
M  V30 34388 C 3350.31 -0.780505 2.15501 0
M  V30 34389 C 3351.32 -1.18862 1.11246 0
M  V30 34390 O 3352.51 -1.12723 1.38405 0
M  V30 34391 C 3349.61 -2.06306 2.6887 0
M  V30 34392 C 3348.78 -1.81737 3.97857 0
M  V30 34393 C 3347.84 -2.94279 4.36218 0
M  V30 34394 O 3346.87 -2.64603 5.03958 0
M  V30 34395 N 3348.07 -4.2224 3.98364 0
M  V30 34396 H 3350.83 -0.276784 2.98419 0
M  V30 34397 H 3348.39 -0.00402395 1.61899 0
M  V30 34398 H 3350.39 -2.80703 2.91527 0
M  V30 34399 H 3348.96 -2.47848 1.905 0
M  V30 34400 H 3348.18 -0.91206 3.83504 0
M  V30 34401 H 3349.46 -1.62698 4.82086 0
M  V30 34402 H 3348.86 -4.49209 3.43843 0
M  V30 34403 H 3347.42 -4.93317 4.26006 0
M  V30 34404 N 3350.85 -1.57312 -0.0951784 0
M  V30 34405 C 3352.08 -1.90014 -0.811059 0
M  V30 34406 C 3352.49 -0.770389 -1.72805 0
M  V30 34407 O 3351.83 0.266583 -1.81755 0
M  V30 34408 C 3351.9 -3.17969 -1.67738 0
M  V30 34409 C 3351.56 -4.47391 -0.932222 0
M  V30 34410 C 3352.56 -5.19239 -0.26207 0
M  V30 34411 C 3350.24 -4.94056 -0.906327 0
M  V30 34412 C 3352.24 -6.35988 0.424009 0
M  V30 34413 C 3349.92 -6.10717 -0.216462 0
M  V30 34414 C 3350.92 -6.81532 0.447528 0
M  V30 34415 O 3350.61 -7.9597 1.12633 0
M  V30 34416 H 3350.34 -0.63304 -0.237143 0
M  V30 34417 H 3352.89 -2.05256 -0.0768615 0
M  V30 34418 H 3351.12 -2.98873 -2.45381 0
M  V30 34419 H 3352.81 -3.36502 -2.26982 0
M  V30 34420 H 3353.58 -4.84228 -0.273536 0
M  V30 34421 H 3349.46 -4.38824 -1.41259 0
M  V30 34422 H 3353 -6.91199 0.942848 0
M  V30 34423 H 3348.9 -6.45181 -0.202842 0
M  V30 34424 H 3349.67 -8.11952 1.03322 0
M  V30 34425 N 3352.33 0.365999 -1.53291 0
M  V30 34426 C 3353.26 1.45434 -1.82678 0
M  V30 34427 C 3354.24 1.55906 -0.680255 0
M  V30 34428 O 3355.43 1.7048 -0.930062 0
M  V30 34429 C 3352.56 2.82776 -2.01631 0
M  V30 34430 C 3351.51 2.8713 -3.17397 0
M  V30 34431 C 3350.84 4.27142 -3.21642 0
M  V30 34432 C 3352.14 2.54689 -4.55994 0
M  V30 34433 H 3353.83 1.21091 -2.7382 0
M  V30 34434 H 3351.38 0.581085 -1.31755 0
M  V30 34435 H 3353.33 3.5894 -2.20772 0
M  V30 34436 H 3352.05 3.08506 -1.07198 0
M  V30 34437 H 3350.71 2.13417 -2.98075 0
M  V30 34438 H 3350.36 4.49947 -2.24848 0
M  V30 34439 H 3350.06 4.30971 -3.99422 0
M  V30 34440 H 3351.58 5.0518 -3.42966 0
M  V30 34441 H 3353 3.20567 -4.753 0
M  V30 34442 H 3351.4 2.69835 -5.36012 0
M  V30 34443 H 3352.47 1.49941 -4.61135 0
M  V30 34444 N 3353.81 1.44644 0.625774 0
M  V30 34445 C 3355.06 1.47708 1.38522 0
M  V30 34446 C 3355.38 0.111737 1.94179 0
M  V30 34447 O 3354.64 -0.887206 1.74434 0
M  V30 34448 C 3354.94 2.48922 2.56462 0
M  V30 34449 C 3354.6 3.9411 2.19062 0
M  V30 34450 C 3353.27 4.33647 2.08576 0
M  V30 34451 C 3355.62 4.85491 1.89599 0
M  V30 34452 C 3352.95 5.62483 1.66821 0
M  V30 34453 C 3355.3 6.14721 1.49336 0
M  V30 34454 C 3353.96 6.53207 1.37395 0
M  V30 34455 H 3353.23 0.540503 0.50689 0
M  V30 34456 H 3355.88 1.77888 0.709097 0
M  V30 34457 H 3354.18 2.12245 3.29331 0
M  V30 34458 H 3355.88 2.48537 3.14691 0
M  V30 34459 H 3352.47 3.62834 2.28144 0
M  V30 34460 H 3356.65 4.55696 1.96608 0
M  V30 34461 H 3351.91 5.91115 1.56184 0
M  V30 34462 H 3356.08 6.84984 1.25578 0
M  V30 34463 H 3353.71 7.5294 1.04813 0
M  V30 34464 N 3355.29 -0.866663 1.31631 0
M  V30 34465 C 3356.51 -1.65791 1.24612 0
M  V30 34466 C 3356.94 -1.87189 -0.184911 0
M  V30 34467 O 3356.29 -1.41603 -1.13218 0
M  V30 34468 C 3356.34 -3.00131 1.99885 0
M  V30 34469 O 3355.45 -3.90076 1.33845 0
M  V30 34470 H 3354.79 -0.50591 0.43006 0
M  V30 34471 H 3357.32 -1.08032 1.73754 0
M  V30 34472 H 3357.33 -3.50042 2.09605 0
M  V30 34473 H 3356 -2.83877 3.03952 0
M  V30 34474 H 3354.58 -3.48529 1.32596 0
M  V30 34475 N 3356.77 -1.14645 -1.0814 0
M  V30 34476 C 3358.01 -0.92768 -1.81013 0
M  V30 34477 C 3358.37 0.539853 -1.84671 0
M  V30 34478 O 3357.66 1.39486 -1.31356 0
M  V30 34479 C 3357.85 -1.46579 -3.25959 0
M  V30 34480 C 3357.68 -2.98411 -3.36423 0
M  V30 34481 C 3356.45 -3.66884 -3.47454 0
M  V30 34482 C 3358.65 -3.96257 -3.27848 0
M  V30 34483 N 3356.63 -5.06603 -3.46737 0
M  V30 34484 C 3358 -5.22245 -3.34156 0
M  V30 34485 C 3360.06 -3.88339 -3.11604 0
M  V30 34486 C 3358.76 -6.41239 -3.25892 0
M  V30 34487 C 3360.79 -5.06883 -3.0467 0
M  V30 34488 C 3360.15 -6.3174 -3.11583 0
M  V30 34489 H 3356.25 -0.393026 -0.676058 0
M  V30 34490 H 3358.83 -1.45707 -1.29142 0
M  V30 34491 H 3357 -0.963147 -3.76269 0
M  V30 34492 H 3358.74 -1.18666 -3.86911 0
M  V30 34493 H 3355.49 -3.17447 -3.5146 0
M  V30 34494 H 3355.91 -5.79551 -3.49929 0
M  V30 34495 H 3360.56 -2.9268 -3.0512 0
M  V30 34496 H 3358.27 -7.37139 -3.31137 0
M  V30 34497 H 3361.86 -5.02509 -2.93217 0
M  V30 34498 H 3360.74 -7.21928 -3.06251 0
M  V30 34499 N 3358.24 1.26349 -0.942 0
M  V30 34500 C 3359.47 1.97516 -0.605903 0
M  V30 34501 C 3359.88 1.70336 0.823553 0
M  V30 34502 O 3359.22 0.96869 1.56084 0
M  V30 34503 C 3359.29 3.51173 -0.769263 0
M  V30 34504 C 3358.95 4.02005 -2.1735 0
M  V30 34505 C 3359.95 4.1368 -3.14905 0
M  V30 34506 C 3357.63 4.35993 -2.4943 0
M  V30 34507 C 3359.63 4.58638 -4.42639 0
M  V30 34508 C 3357.31 4.8064 -3.77397 0
M  V30 34509 C 3358.31 4.91924 -4.73815 0
M  V30 34510 O 3358 5.35586 -5.99503 0
M  V30 34511 H 3357.73 0.636703 -0.227125 0
M  V30 34512 H 3360.29 1.61804 -1.26525 0
M  V30 34513 H 3358.52 3.86664 -0.0527784 0
M  V30 34514 H 3360.2 4.0355 -0.436103 0
M  V30 34515 H 3360.97 3.87666 -2.91445 0
M  V30 34516 H 3356.85 4.26445 -1.75117 0
M  V30 34517 H 3360.39 4.6736 -5.179 0
M  V30 34518 H 3356.29 5.06098 -4.00669 0
M  V30 34519 H 3357.06 5.53804 -6.02696 0
M  V30 34520 N 3359.72 0.709115 1.40746 0
M  V30 34521 C 3360.95 0.255294 2.05319 0
M  V30 34522 C 3361.36 -1.10052 1.53408 0
M  V30 34523 O 3360.72 -1.69038 0.687934 0
M  V30 34524 C 3360.77 0.219314 3.60834 0
M  V30 34525 O 3360.49 1.52158 4.10828 0
M  V30 34526 C 3361.99 -0.253849 4.42573 0
M  V30 34527 H 3359.21 0.115971 0.660902 0
M  V30 34528 H 3361.76 0.965505 1.80273 0
M  V30 34529 H 3359.91 -0.441815 3.84872 0
M  V30 34530 H 3360.33 1.41773 5.04976 0
M  V30 34531 H 3361.8 -0.227883 5.51529 0
M  V30 34532 H 3362.28 -1.29497 4.19675 0
M  V30 34533 H 3362.88 0.376768 4.23628 0
M  V30 34534 N 3361.2 -1.50894 0.454829 0
M  V30 34535 C 3362.42 -2.07128 -0.106222 0
M  V30 34536 C 3362.85 -1.31826 -1.34177 0
M  V30 34537 O 3362.21 -0.361179 -1.77666 0
M  V30 34538 C 3362.26 -3.5849 -0.389546 0
M  V30 34539 O 3361.36 -3.85198 -1.47298 0
M  V30 34540 H 3360.7 -0.663975 0.00581755 0
M  V30 34541 H 3363.23 -1.94293 0.641197 0
M  V30 34542 H 3363.24 -4.0303 -0.634863 0
M  V30 34543 H 3361.92 -4.12719 0.513411 0
M  V30 34544 H 3360.49 -3.52508 -1.21625 0
M  V30 34545 N 3362.68 -0.186817 -1.56489 0
M  V30 34546 C 3363.64 0.723558 -2.17479 0
M  V30 34547 C 3364.64 1.14697 -1.127 0
M  V30 34548 O 3365.83 1.06141 -1.3813 0
M  V30 34549 C 3362.96 1.9868 -2.77018 0
M  V30 34550 H 3364.16 0.19235 -2.99283 0
M  V30 34551 H 3361.71 0.0627879 -1.56174 0
M  V30 34552 H 3362.44 2.56072 -1.98991 0
M  V30 34553 H 3362.23 1.69201 -3.53714 0
M  V30 34554 H 3363.72 2.63616 -3.23877 0
M  V30 34555 N 3364.16 1.57361 0.0868344 0
M  V30 34556 C 3365.4 1.86781 0.789975 0
M  V30 34557 C 3365.73 0.777073 1.77975 0
M  V30 34558 O 3365.01 -0.214156 1.93317 0
M  V30 34559 C 3365.29 3.26848 1.51138 0
M  V30 34560 C 3365.15 4.46559 0.539028 0
M  V30 34561 C 3366.46 3.6493 2.45996 0
M  V30 34562 H 3363.58 0.679359 0.285729 0
M  V30 34563 H 3366.23 1.89925 0.0534321 0
M  V30 34564 H 3364.38 3.24299 2.13922 0
M  V30 34565 H 3366.05 4.61226 -0.082449 0
M  V30 34566 H 3364.29 4.33551 -0.146918 0
M  V30 34567 H 3364.96 5.4131 1.0811 0
M  V30 34568 H 3367.44 3.68476 1.93299 0
M  V30 34569 H 3366.31 4.63851 2.93484 0
M  V30 34570 H 3366.57 2.94055 3.30128 0
M  V30 34571 N 3365.63 -0.357865 1.53483 0
M  V30 34572 C 3366.87 -1.10828 1.71745 0
M  V30 34573 C 3367.24 -1.86326 0.463336 0
M  V30 34574 O 3368.44 -2.63668 0.522761 0
M  V30 34575 C 3366.71 -2.0359 2.93745 0
M  V30 34576 S 3368.27 -2.86048 3.32749 0
M  V30 34577 H 3365.09 -0.374699 0.604253 0
M  V30 34578 H 3367.69 -0.388532 1.916 0
M  V30 34579 H 3366.39 -1.46902 3.83207 0
M  V30 34580 H 3365.92 -2.80025 2.76314 0
M  V30 34581 H 3367.94 -4.05933 2.85365 0
M  V30 34582 N 3367.11 -1.44974 -0.618094 0
M  V30 34583 C 3368.52 -1.43035 -1.19991 0
M  V30 34584 C 3368.87 -0.152457 -1.95607 0
M  V30 34585 O 3368 0.746536 -2.03115 0
M  V30 34586 C 3368.59 -2.59126 -2.18264 0
M  V30 34587 C 3367.15 -2.6034 -2.71845 0
M  V30 34588 C 3366.3 -2.35089 -1.47066 0
M  V30 34589 H 3369.25 -1.53366 -0.408007 0
M  V30 34590 H 3369.27 -2.32624 -3.01108 0
M  V30 34591 H 3368.78 -3.52117 -1.63202 0
M  V30 34592 H 3366.88 -1.71326 -3.30875 0
M  V30 34593 H 3367 -3.59237 -3.16995 0
M  V30 34594 H 3365.36 -1.84438 -1.75655 0
M  V30 34595 H 3366.14 -3.30212 -0.93887 0
M  V30 34596 N 3368.59 0.85967 -1.32089 0
M  V30 34597 C 3369.52 1.98348 -1.23208 0
M  V30 34598 C 3370.5 1.69697 -0.117003 0
M  V30 34599 O 3371.69 1.91816 -0.303335 0
M  V30 34600 C 3368.82 3.34076 -0.949229 0
M  V30 34601 C 3367.77 3.77065 -2.02499 0
M  V30 34602 C 3367.1 5.10368 -1.59464 0
M  V30 34603 C 3368.4 3.93068 -3.43941 0
M  V30 34604 H 3370.09 2.06037 -2.17231 0
M  V30 34605 H 3367.64 0.989912 -1.04579 0
M  V30 34606 H 3369.59 4.12244 -0.873666 0
M  V30 34607 H 3368.31 3.26589 0.0266521 0
M  V30 34608 H 3366.97 3.01145 -2.09062 0
M  V30 34609 H 3366.62 4.99332 -0.606344 0
M  V30 34610 H 3366.32 5.40102 -2.31439 0
M  V30 34611 H 3367.84 5.91034 -1.53335 0
M  V30 34612 H 3369.26 4.61602 -3.39995 0
M  V30 34613 H 3367.65 4.34213 -4.14221 0
M  V30 34614 H 3368.72 2.96133 -3.8397 0
M  V30 34615 N 3370.07 1.15217 1.0753 0
M  V30 34616 C 3371.32 0.924094 1.79736 0
M  V30 34617 C 3371.64 -0.550323 1.87073 0
M  V30 34618 O 3370.91 -1.39997 1.37031 0
M  V30 34619 H 3369.49 0.338903 0.665698 0
M  V30 34620 H 3372.15 1.45247 1.29958 0
M  V30 34621 H 3371.24 1.33189 2.82254 0
M  V30 34622 N 3371.55 -1.25848 0.948687 0
M  V30 34623 C 3372.79 -1.93685 0.601159 0
M  V30 34624 C 3373.13 -1.74181 -0.858749 0
M  V30 34625 O 3372.4 -1.08333 -1.61537 0
M  V30 34626 C 3372.68 -3.4725 0.953391 0
M  V30 34627 C 3372.54 -3.76006 2.46859 0
M  V30 34628 C 3373.86 -4.37538 0.474175 0
M  V30 34629 H 3370.97 -0.703437 0.219876 0
M  V30 34630 H 3373.62 -1.48577 1.18426 0
M  V30 34631 H 3371.77 -3.85801 0.457182 0
M  V30 34632 H 3373.44 -3.47127 3.03811 0
M  V30 34633 H 3371.68 -3.2182 2.90885 0
M  V30 34634 H 3372.35 -4.83376 2.66555 0
M  V30 34635 H 3374.83 -4.06256 0.899736 0
M  V30 34636 H 3373.7 -5.4376 0.749382 0
M  V30 34637 H 3373.97 -4.37647 -0.625884 0
M  V30 34638 N 3373.02 -0.716569 -1.40368 0
M  V30 34639 C 3374.27 -0.255994 -2.00472 0
M  V30 34640 C 3374.59 1.15511 -1.57106 0
M  V30 34641 O 3373.86 1.78326 -0.810956 0
M  V30 34642 H 3372.44 -0.0916557 -0.741356 0
M  V30 34643 H 3375.11 -0.922419 -1.7169 0
M  V30 34644 H 3374.2 -0.289861 -3.10751 0
M  V30 34645 N 3374.5 1.50651 -0.462825 0
M  V30 34646 C 3375.75 2.02277 0.095009 0
M  V30 34647 C 3376.08 1.34539 1.40462 0
M  V30 34648 O 3375.33 0.457312 1.90282 0
M  V30 34649 C 3375.63 3.55824 0.335231 0
M  V30 34650 C 3375.3 4.41996 -0.891667 0
M  V30 34651 C 3373.96 4.65265 -1.22807 0
M  V30 34652 C 3376.31 4.92387 -1.70894 0
M  V30 34653 C 3373.64 5.36171 -2.38196 0
M  V30 34654 C 3375.99 5.64559 -2.85404 0
M  V30 34655 C 3374.66 5.86085 -3.19469 0
M  V30 34656 H 3373.93 0.740184 0.0347663 0
M  V30 34657 H 3376.57 1.81348 -0.615222 0
M  V30 34658 H 3374.88 3.75222 1.12762 0
M  V30 34659 H 3376.57 3.93327 0.780683 0
M  V30 34660 H 3373.16 4.24098 -0.619569 0
M  V30 34661 H 3377.35 4.7427 -1.46223 0
M  V30 34662 H 3372.6 5.51047 -2.64872 0
M  V30 34663 H 3376.78 6.02589 -3.49084 0
M  V30 34664 H 3374.41 6.40806 -4.08989 0
M  V30 34665 N 3375.98 0.195113 1.56388 0
M  V30 34666 C 3377.26 -0.49127 1.8933 0
M  V30 34667 C 3377.64 -1.79645 1.10864 0
M  V30 34668 O 3376.99 -2.27535 0.209736 0
M  V30 34669 C 3377.2 -0.710036 3.41701 0
M  V30 34670 C 3378.54 -1.0294 4.11933 0
M  V30 34671 O 3379.57 -0.797756 3.47152 0
M  V30 34672 O 3378.43 -1.46758 5.26426 0
M  V30 34673 H 3375.52 -0.256123 0.78634 0
M  V30 34674 H 3378.07 0.235328 1.6806 0
M  V30 34675 H 3376.84 0.211672 3.90727 0
M  V30 34676 H 3376.46 -1.48909 3.68662 0
M  V30 34677 N 3377.46 -1.57404 -0.0784879 0
M  V30 34678 C 3378.68 -1.91523 -0.795838 0
M  V30 34679 C 3379.11 -0.790922 -1.70664 0
M  V30 34680 O 3378.47 0.256629 -1.79475 0
M  V30 34681 C 3378.51 -3.24572 -1.57116 0
M  V30 34682 O 3377.62 -3.13333 -2.68135 0
M  V30 34683 H 3376.96 -0.627345 -0.217564 0
M  V30 34684 H 3379.49 -2.04542 -0.0487364 0
M  V30 34685 H 3379.5 -3.58284 -1.95184 0
M  V30 34686 H 3378.17 -4.05982 -0.902838 0
M  V30 34687 H 3376.75 -2.91167 -2.32973 0
M  V30 34688 N 3378.94 0.34972 -1.53671 0
M  V30 34689 C 3379.85 1.45272 -1.8421 0
M  V30 34690 C 3380.86 1.57866 -0.731723 0
M  V30 34691 O 3382.04 1.7346 -1.0234 0
M  V30 34692 C 3379.1 2.80341 -2.03985 0
M  V30 34693 C 3378.16 2.77142 -3.27858 0
M  V30 34694 C 3377.4 4.05769 -3.4668 0
M  V30 34695 O 3377.62 5.02737 -2.69466 0
M  V30 34696 O 3376.55 4.10616 -4.40089 0
M  V30 34697 H 3380.38 1.22384 -2.77949 0
M  V30 34698 H 3377.97 0.541321 -1.39248 0
M  V30 34699 H 3379.85 3.60344 -2.18472 0
M  V30 34700 H 3378.52 3.03174 -1.13434 0
M  V30 34701 H 3377.43 1.95782 -3.18779 0
M  V30 34702 H 3378.76 2.59264 -4.18382 0
M  V30 34703 N 3380.41 1.45299 0.610397 0
M  V30 34704 C 3381.36 1.54086 1.74242 0
M  V30 34705 C 3382.36 0.411032 1.64338 0
M  V30 34706 O 3383.56 0.586829 1.70166 0
M  V30 34707 H 3379.94 0.483926 0.575604 0
M  V30 34708 H 3381.91 2.4932 1.63957 0
M  V30 34709 C 3380.66 1.52203 3.12617 0
M  V30 34710 H 3379.98 2.38466 3.20896 0
M  V30 34711 H 3381.42 1.62409 3.91662 0
M  V30 34712 C 3379.88 0.246009 3.36001 0
M  V30 34713 O 3380.41 -0.675304 3.95983 0
M  V30 34714 N 3378.62 0.142588 2.9025 0
M  V30 34715 H 3378.16 0.893186 2.41619 0
M  V30 34716 H 3378.12 -0.710373 3.0627 0
M  V30 34717 N 3381.89 -0.852653 1.32543 0
M  V30 34718 C 3383.3 -1.42297 1.20866 0
M  V30 34719 C 3383.65 -1.95391 -0.178017 0
M  V30 34720 O 3382.78 -1.87704 -1.07686 0
M  V30 34721 C 3383.37 -2.5866 2.18816 0
M  V30 34722 C 3381.93 -3.11685 2.1102 0
M  V30 34723 C 3381.08 -1.84438 2.0707 0
M  V30 34724 H 3384.03 -0.659631 1.44342 0
M  V30 34725 H 3384.05 -3.35881 1.78785 0
M  V30 34726 H 3383.56 -2.19987 3.1973 0
M  V30 34727 H 3381.67 -3.54937 1.13361 0
M  V30 34728 H 3381.78 -3.72793 3.00935 0
M  V30 34729 H 3380.14 -2.0412 1.52339 0
M  V30 34730 H 3380.93 -1.47979 3.0977 0
M  V30 34731 N 3383.37 -1.15786 -1.06918 0
M  V30 34732 C 3384.62 -0.933612 -1.79243 0
M  V30 34733 C 3384.94 0.540394 -1.87363 0
M  V30 34734 O 3384.21 1.39269 -1.37772 0
M  V30 34735 H 3382.79 -0.342428 -0.663892 0
M  V30 34736 H 3385.45 -1.45935 -1.29186 0
M  V30 34737 H 3384.55 -1.34684 -2.81544 0
M  V30 34738 N 3384.85 1.25343 -0.955348 0
M  V30 34739 C 3386.13 1.88343 -0.527861 0
M  V30 34740 C 3386.51 1.86186 0.994878 0
M  V30 34741 O 3385.85 1.3259 1.86097 0
M  V30 34742 C 3386.06 3.31035 -1.10531 0
M  V30 34743 C 3387.41 4.07798 -1.18261 0
M  V30 34744 O 3388.44 3.40158 -1.05691 0
M  V30 34745 O 3387.29 5.28793 -1.37987 0
M  V30 34746 H 3384.39 0.808441 -0.17422 0
M  V30 34747 H 3386.93 1.33408 -1.04882 0
M  V30 34748 H 3385.71 3.27038 -2.14852 0
M  V30 34749 H 3385.33 3.93527 -0.567637 0
M  V30 34750 N 3386.33 0.724003 1.39986 0
M  V30 34751 C 3387.6 0.193935 1.94636 0
M  V30 34752 C 3387.98 -1.30209 1.66159 0
M  V30 34753 O 3387.33 -2.06236 0.983819 0
M  V30 34754 C 3387.54 0.515712 3.45169 0
M  V30 34755 C 3388.89 0.458993 4.22112 0
M  V30 34756 O 3389.91 0.45226 3.53317 0
M  V30 34757 O 3388.77 0.443879 5.44694 0
M  V30 34758 H 3385.87 0.031676 0.826393 0
M  V30 34759 H 3388.41 0.802111 1.49547 0
M  V30 34760 H 3387.19 1.55011 3.59287 0
M  V30 34761 H 3386.81 -0.121998 3.97413 0
M  V30 34762 N 3387.81 -1.50403 0.470808 0
M  V30 34763 C 3389.05 -2.01925 -0.0841139 0
M  V30 34764 C 3389.37 -1.35489 -1.40242 0
M  V30 34765 O 3388.64 -0.500145 -1.89408 0
M  V30 34766 H 3387.22 -0.746222 -0.0340753 0
M  V30 34767 H 3389.89 -1.84736 0.621165 0
M  V30 34768 H 3388.98 -3.11208 -0.235822 0
M  V30 34769 N 3389.28 -0.203404 -1.56282 0
M  V30 34770 C 3390.22 0.746122 -2.16716 0
M  V30 34771 C 3391.23 1.17077 -1.13123 0
M  V30 34772 O 3392.42 1.10506 -1.4018 0
M  V30 34773 C 3389.52 2.02002 -2.72118 0
M  V30 34774 C 3388.69 1.75384 -4.00698 0
M  V30 34775 C 3387.75 2.87302 -4.40844 0
M  V30 34776 O 3386.78 2.56552 -5.08104 0
M  V30 34777 N 3387.98 4.15849 -4.05031 0
M  V30 34778 H 3390.74 0.229273 -2.98822 0
M  V30 34779 H 3388.3 -0.0217334 -1.61885 0
M  V30 34780 H 3390.3 2.7603 -2.95956 0
M  V30 34781 H 3388.87 2.44786 -1.94419 0
M  V30 34782 H 3388.09 0.850932 -3.84906 0
M  V30 34783 H 3389.37 1.55008 -4.84613 0
M  V30 34784 H 3388.77 4.43682 -3.50946 0
M  V30 34785 H 3387.33 4.86477 -4.33801 0
M  V30 34786 N 3390.76 1.57444 0.0701393 0
M  V30 34787 C 3391.69 1.99102 1.11505 0
M  V30 34788 C 3392.67 0.868219 1.3748 0
M  V30 34789 O 3393.86 1.13066 1.50825 0
M  V30 34790 C 3390.98 2.32914 2.45904 0
M  V30 34791 C 3390.03 3.5522 2.36053 0
M  V30 34792 S 3390.86 5.05992 1.75307 0
M  V30 34793 C 3392.02 5.43006 3.11279 0
M  V30 34794 H 3392.25 2.87421 0.760046 0
M  V30 34795 H 3389.78 1.51863 0.278729 0
M  V30 34796 H 3391.74 2.53069 3.23212 0
M  V30 34797 H 3390.4 1.45122 2.78565 0
M  V30 34798 H 3389.6 3.76401 3.3517 0
M  V30 34799 H 3389.2 3.34704 1.6688 0
M  V30 34800 H 3391.49 5.41178 4.07593 0
M  V30 34801 H 3392.43 6.4378 2.94877 0
M  V30 34802 H 3392.84 4.70469 3.11961 0
M  V30 34803 N 3392.24 -0.341566 1.53854 0
M  V30 34804 C 3393.19 -1.42025 1.78362 0
M  V30 34805 C 3394.17 -1.47671 0.638902 0
M  V30 34806 O 3395.37 -1.52508 0.898355 0
M  V30 34807 C 3392.49 -2.79138 1.99842 0
M  V30 34808 C 3391.58 -2.77875 3.20384 0
M  V30 34809 N 3391.97 -2.46241 4.41813 0
M  V30 34810 C 3390.27 -3.0902 3.21593 0
M  V30 34811 C 3390.97 -2.53262 5.23673 0
M  V30 34812 N 3389.95 -2.88966 4.60434 0
M  V30 34813 H 3393.75 -1.16467 2.69838 0
M  V30 34814 H 3391.26 -0.549939 1.52805 0
M  V30 34815 H 3393.26 -3.56862 2.15534 0
M  V30 34816 H 3391.92 -3.0564 1.09609 0
M  V30 34817 H 3392.93 -2.19405 4.69129 0
M  V30 34818 H 3389.61 -3.40681 2.41335 0
M  V30 34819 H 3391 -2.31947 6.30595 0
M  V30 34820 N 3393.72 -1.45621 -0.602683 0
M  V30 34821 C 3394.66 -1.54667 -1.71309 0
M  V30 34822 C 3395.63 -0.392225 -1.61403 0
M  V30 34823 O 3396.82 -0.606329 -1.8091 0
M  V30 34824 C 3393.96 -1.52399 -3.09627 0
M  V30 34825 C 3393.07 -2.78431 -3.30303 0
M  V30 34826 C 3392.21 -2.67801 -4.58755 0
M  V30 34827 C 3391.25 -3.88864 -4.72707 0
M  V30 34828 N 3390.38 -3.76739 -5.92463 0
M  V30 34829 H 3395.22 -2.49526 -1.62914 0
M  V30 34830 H 3392.76 -1.23811 -0.794302 0
M  V30 34831 H 3394.72 -1.49071 -3.89658 0
M  V30 34832 H 3393.35 -0.610872 -3.16967 0
M  V30 34833 H 3392.4 -2.91825 -2.44013 0
M  V30 34834 H 3393.71 -3.68211 -3.36485 0
M  V30 34835 H 3392.87 -2.62467 -5.46988 0
M  V30 34836 H 3391.61 -1.75627 -4.54979 0
M  V30 34837 H 3390.61 -3.94552 -3.82896 0
M  V30 34838 H 3391.84 -4.82109 -4.78276 0
M  V30 34839 H 3389.78 -2.87338 -5.89723 0
M  V30 34840 H 3389.7 -4.60158 -5.99825 0
M  V30 34841 H 3390.97 -3.75346 -6.83181 0
M  V30 34842 N 3395.2 0.845612 -1.32993 0
M  V30 34843 C 3396.44 1.59726 -1.23822 0
M  V30 34844 C 3396.76 1.93995 0.19769 0
M  V30 34845 O 3396.03 1.60394 1.12474 0
M  V30 34846 H 3394.61 0.592204 -0.455306 0
M  V30 34847 H 3397.28 1.01098 -1.66629 0
M  V30 34848 H 3396.37 2.5302 -1.82722 0
M  V30 34849 N 3396.67 1.16351 1.06302 0
M  V30 34850 C 3397.6 0.893141 2.15743 0
M  V30 34851 C 3398.58 -0.160501 1.69341 0
M  V30 34852 O 3399.77 -0.0126184 1.94196 0
M  V30 34853 C 3396.9 0.393348 3.45065 0
M  V30 34854 C 3395.85 1.38489 4.04975 0
M  V30 34855 C 3395.18 0.743502 5.29506 0
M  V30 34856 C 3396.48 2.75445 4.43765 0
M  V30 34857 H 3398.17 1.80836 2.38619 0
M  V30 34858 H 3395.72 0.870898 1.14679 0
M  V30 34859 H 3397.67 0.191681 4.20964 0
M  V30 34860 H 3396.4 -0.55737 3.21809 0
M  V30 34861 H 3395.06 1.5731 3.31133 0
M  V30 34862 H 3394.7 -0.213699 5.02546 0
M  V30 34863 H 3394.4 1.40531 5.70548 0
M  V30 34864 H 3395.93 0.551853 6.08101 0
M  V30 34865 H 3397.34 2.60407 5.10745 0
M  V30 34866 H 3395.74 3.381 4.95791 0
M  V30 34867 H 3396.81 3.30705 3.5463 0
M  V30 34868 N 3398.15 -1.24835 0.961982 0
M  V30 34869 C 3399.38 -1.97351 0.637743 0
M  V30 34870 C 3399.8 -1.70942 -0.784889 0
M  V30 34871 O 3399.16 -0.969721 -1.53186 0
M  V30 34872 C 3399.21 -3.48889 0.911546 0
M  V30 34873 O 3398.31 -4.124 -0.00594419 0
M  V30 34874 H 3397.65 -0.618449 0.241696 0
M  V30 34875 H 3400.18 -1.58762 1.29058 0
M  V30 34876 H 3400.19 -3.99243 0.840772 0
M  V30 34877 H 3398.87 -3.67439 1.94837 0
M  V30 34878 H 3397.44 -3.72714 0.117663 0
M  V30 34879 N 3399.63 -0.731417 -1.396 0
M  V30 34880 C 3400.54 -0.0905682 -2.34425 0
M  V30 34881 C 3401.56 0.725964 -1.58132 0
M  V30 34882 O 3402.73 0.655261 -1.90442 0
M  V30 34883 C 3399.8 0.808565 -3.3714 0
M  V30 34884 C 3398.86 -0.019812 -4.29295 0
M  V30 34885 C 3398.09 0.836501 -5.27104 0
M  V30 34886 O 3398.31 2.07533 -5.31306 0
M  V30 34887 O 3397.25 0.267066 -6.01307 0
M  V30 34888 H 3401.07 -0.873136 -2.90878 0
M  V30 34889 H 3398.66 -0.492049 -1.41065 0
M  V30 34890 H 3400.54 1.32312 -4.00089 0
M  V30 34891 H 3399.22 1.57001 -2.83077 0
M  V30 34892 H 3398.12 -0.579809 -3.6958 0
M  V30 34893 H 3399.46 -0.743393 -4.86554 0
M  V30 34894 N 3401.11 1.50152 -0.478778 0
M  V30 34895 C 3402.52 1.59042 -0.133384 0
M  V30 34896 C 3402.72 1.48621 1.36067 0
M  V30 34897 O 3401.78 1.34866 2.13466 0
M  V30 34898 C 3403.09 2.92667 -0.690421 0
M  V30 34899 C 3404.64 3.0608 -0.654534 0
M  V30 34900 C 3405.12 4.42291 -1.18925 0
M  V30 34901 N 3406.61 4.48723 -1.14899 0
M  V30 34902 C 3407.34 5.52523 -1.53315 0
M  V30 34903 N 3406.84 6.63539 -1.99217 0
M  V30 34904 N 3408.63 5.43111 -1.4487 0
M  V30 34905 H 3400.78 1.55169 -1.4504 0
M  V30 34906 H 3403.05 0.733746 -0.600267 0
M  V30 34907 H 3402.75 3.05792 -1.73736 0
M  V30 34908 H 3402.63 3.76946 -0.138293 0
M  V30 34909 H 3405.01 2.92597 0.383512 0
M  V30 34910 H 3405.09 2.23538 -1.24356 0
M  V30 34911 H 3404.74 4.56523 -2.22597 0
M  V30 34912 H 3404.67 5.23436 -0.576372 0
M  V30 34913 H 3407.16 3.69064 -0.812409 0
M  V30 34914 H 3407.47 7.38814 -2.26658 0
M  V30 34915 H 3405.82 6.64639 -2.03175 0
M  V30 34916 H 3409.01 4.5527 -1.08844 0
M  V30 34917 H 3409.18 6.23885 -1.75134 0
M  V30 34918 N 3402.59 0.211689 1.56172 0
M  V30 34919 C 3403.81 -0.43087 2.02875 0
M  V30 34920 C 3404.24 -1.53252 1.09067 0
M  V30 34921 O 3403.59 -1.81136 0.0770727 0
M  V30 34922 C 3403.64 -0.948872 3.47892 0
M  V30 34923 O 3402.75 -2.06083 3.57216 0
M  V30 34924 H 3402.09 -0.0987492 0.656616 0
M  V30 34925 H 3404.62 0.327435 2.01963 0
M  V30 34926 H 3404.63 -1.26123 3.88017 0
M  V30 34927 H 3403.3 -0.142511 4.15656 0
M  V30 34928 H 3401.88 -1.75586 3.28974 0
M  V30 34929 N 3404.06 -1.57479 -0.0617887 0
M  V30 34930 C 3405 -2.01118 -1.09928 0
M  V30 34931 C 3406.01 -0.918674 -1.34403 0
M  V30 34932 O 3407.2 -1.19644 -1.32467 0
M  V30 34933 C 3404.3 -2.34353 -2.44809 0
M  V30 34934 C 3403.47 -3.65577 -2.4015 0
M  V30 34935 C 3402.53 -3.86369 -3.57219 0
M  V30 34936 O 3401.56 -4.57836 -3.38194 0
M  V30 34937 N 3402.76 -3.29488 -4.77931 0
M  V30 34938 H 3405.52 -2.90734 -0.727569 0
M  V30 34939 H 3403.08 -1.59954 -0.250287 0
M  V30 34940 H 3405.08 -2.45428 -3.21788 0
M  V30 34941 H 3403.65 -1.50576 -2.73945 0
M  V30 34942 H 3402.87 -3.65164 -1.4849 0
M  V30 34943 H 3404.15 -4.51721 -2.34148 0
M  V30 34944 H 3403.55 -2.71499 -4.96291 0
M  V30 34945 H 3402.11 -3.45995 -5.52386 0
M  V30 34946 N 3405.54 0.333401 -1.54033 0
M  V30 34947 C 3406.51 1.39285 -1.82023 0
M  V30 34948 C 3407.51 1.45165 -0.691649 0
M  V30 34949 O 3408.7 1.45364 -0.95995 0
M  V30 34950 C 3405.83 2.78116 -1.97141 0
M  V30 34951 H 3407.02 1.15725 -2.76673 0
M  V30 34952 H 3404.57 0.568351 -1.456 0
M  V30 34953 H 3405.31 3.06945 -1.04669 0
M  V30 34954 H 3405.09 2.75242 -2.79256 0
M  V30 34955 H 3406.58 3.54778 -2.20277 0
M  V30 34956 N 3407.02 1.45939 0.594952 0
M  V30 34957 C 3408.27 1.50837 1.35559 0
M  V30 34958 C 3408.6 0.1546 1.93584 0
M  V30 34959 O 3407.87 -0.83251 1.75783 0
M  V30 34960 C 3408.16 2.59744 2.49409 0
M  V30 34961 C 3408.01 4.04609 1.96499 0
M  V30 34962 C 3409.33 2.64831 3.515 0
M  V30 34963 H 3406.45 0.549143 0.49154 0
M  V30 34964 H 3409.09 1.77813 0.669505 0
M  V30 34965 H 3407.24 2.36872 3.07935 0
M  V30 34966 H 3408.91 4.3873 1.42525 0
M  V30 34967 H 3407.16 4.14667 1.2741 0
M  V30 34968 H 3407.83 4.7652 2.78627 0
M  V30 34969 H 3410.3 2.85359 3.02836 0
M  V30 34970 H 3409.18 3.42875 4.28635 0
M  V30 34971 H 3409.44 1.70406 4.07939 0
M  V30 34972 N 3408.5 -0.838547 1.3344 0
M  V30 34973 C 3409.75 -1.59067 1.24668 0
M  V30 34974 C 3410.07 -1.94097 -0.187399 0
M  V30 34975 O 3409.34 -1.60989 -1.11622 0
M  V30 34976 H 3407.92 -0.589781 0.45844 0
M  V30 34977 H 3410.58 -1.00213 1.67163 0
M  V30 34978 H 3409.68 -2.52048 1.84061 0
M  V30 34979 N 3409.98 -1.16914 -1.05683 0
M  V30 34980 C 3410.94 -0.883684 -2.1148 0
M  V30 34981 C 3411.94 0.124005 -1.60321 0
M  V30 34982 O 3413.13 -0.107597 -1.73867 0
M  V30 34983 C 3410.26 -0.322708 -3.39369 0
M  V30 34984 H 3411.45 -1.82165 -2.38235 0
M  V30 34985 H 3409.01 -0.978916 -1.21848 0
M  V30 34986 H 3409.74 0.622639 -3.18267 0
M  V30 34987 H 3409.53 -1.0489 -3.7781 0
M  V30 34988 H 3411.02 -0.141145 -4.17361 0
M  V30 34989 N 3411.45 1.24323 -0.968589 0
M  V30 34990 C 3412.7 1.92704 -0.631897 0
M  V30 34991 C 3413.03 1.75526 0.830929 0
M  V30 34992 O 3412.31 1.10889 1.59793 0
M  V30 34993 C 3412.59 3.45689 -1.00851 0
M  V30 34994 C 3412.44 3.72031 -2.5281 0
M  V30 34995 C 3413.76 4.36728 -0.543723 0
M  V30 34996 H 3410.88 0.69985 -0.231039 0
M  V30 34997 H 3413.52 1.46674 -1.20775 0
M  V30 34998 H 3411.67 3.85024 -0.518502 0
M  V30 34999 H 3413.35 3.42249 -3.09295 0
M  V30 35000 H 3411.59 3.17152 -2.95968 0
M  V30 35001 H 3412.26 4.79074 -2.74212 0
M  V30 35002 H 3414.74 4.04773 -0.964254 0
M  V30 35003 H 3413.61 5.42499 -0.835795 0
M  V30 35004 H 3413.87 4.38588 0.556179 0
M  V30 35005 N 3412.93 0.73881 1.3921 0
M  V30 35006 C 3413.86 0.116511 2.33209 0
M  V30 35007 C 3414.84 -0.720029 1.54109 0
M  V30 35008 O 3416.03 -0.664232 1.82487 0
M  V30 35009 C 3413.16 -0.788661 3.38227 0
M  V30 35010 C 3412.11 -0.0559884 4.27963 0
M  V30 35011 C 3411.44 -1.07843 5.23712 0
M  V30 35012 C 3412.74 1.10369 5.10506 0
M  V30 35013 H 3414.43 0.9017 2.85499 0
M  V30 35014 H 3411.98 0.435056 1.37271 0
M  V30 35015 H 3413.93 -1.23357 4.0294 0
M  V30 35016 H 3412.66 -1.60601 2.84385 0
M  V30 35017 H 3411.31 0.369339 3.64735 0
M  V30 35018 H 3410.96 -1.88944 4.66164 0
M  V30 35019 H 3410.66 -0.592946 5.84601 0
M  V30 35020 H 3412.19 -1.52296 5.91302 0
M  V30 35021 H 3413.6 0.737043 5.68542 0
M  V30 35022 H 3412 1.51906 5.80556 0
M  V30 35023 H 3413.07 1.92359 4.45113 0
M  V30 35024 N 3414.41 -1.49895 0.486734 0
M  V30 35025 C 3415.64 -2.07307 -0.0622634 0
M  V30 35026 C 3416.06 -1.34642 -1.31351 0
M  V30 35027 O 3415.42 -0.398783 -1.7686 0
M  V30 35028 C 3415.47 -3.59235 -0.313418 0
M  V30 35029 O 3414.57 -3.88235 -1.39094 0
M  V30 35030 H 3413.91 -0.663702 0.0199001 0
M  V30 35031 H 3416.44 -1.92889 0.682266 0
M  V30 35032 H 3416.45 -4.04286 -0.549231 0
M  V30 35033 H 3415.13 -4.11537 0.600839 0
M  V30 35034 H 3413.7 -3.55008 -1.1412 0
M  V30 35035 N 3415.89 -0.219968 -1.56057 0
M  V30 35036 C 3416.82 0.685508 -2.23211 0
M  V30 35037 C 3417.8 1.20227 -1.2033 0
M  V30 35038 O 3418.99 1.24656 -1.48911 0
M  V30 35039 C 3416.12 1.89447 -2.91079 0
M  V30 35040 C 3415.07 1.51161 -4.00418 0
M  V30 35041 C 3414.4 2.79922 -4.55574 0
M  V30 35042 C 3415.7 0.702805 -5.1755 0
M  V30 35043 H 3417.39 0.125619 -2.99136 0
M  V30 35044 H 3414.94 0.058979 -1.43879 0
M  V30 35045 H 3416.89 2.53335 -3.36748 0
M  V30 35046 H 3415.61 2.4793 -2.12598 0
M  V30 35047 H 3414.27 0.896213 -3.55477 0
M  V30 35048 H 3413.92 3.36547 -3.73825 0
M  V30 35049 H 3413.62 2.5504 -5.29366 0
M  V30 35050 H 3415.14 3.44755 -5.03961 0
M  V30 35051 H 3416.56 1.24534 -5.59611 0
M  V30 35052 H 3414.95 0.551129 -5.97564 0
M  V30 35053 H 3416.02 -0.290915 -4.84027 0
M  V30 35054 N 3417.37 1.57509 0.0534363 0
M  V30 35055 C 3418.3 2.07979 1.06147 0
M  V30 35056 C 3419.28 0.977072 1.39238 0
M  V30 35057 O 3420.46 1.2509 1.48547 0
M  V30 35058 C 3417.59 2.53899 2.36965 0
M  V30 35059 C 3416.55 3.68214 2.1818 0
M  V30 35060 C 3415.87 4.00254 3.54544 0
M  V30 35061 C 3417.17 4.97577 1.58791 0
M  V30 35062 H 3418.87 2.92448 0.641432 0
M  V30 35063 H 3416.41 1.40687 0.307098 0
M  V30 35064 H 3418.37 2.87823 3.07792 0
M  V30 35065 H 3417.09 1.66481 2.80983 0
M  V30 35066 H 3415.75 3.34602 1.4979 0
M  V30 35067 H 3415.4 3.09939 3.96165 0
M  V30 35068 H 3415.1 4.77238 3.42808 0
M  V30 35069 H 3416.62 4.3669 4.26772 0
M  V30 35070 H 3418.04 5.29613 2.19506 0
M  V30 35071 H 3416.43 5.79008 1.577 0
M  V30 35072 H 3417.5 4.81757 0.551169 0
M  V30 35073 N 3418.85 -0.325228 1.54208 0
M  V30 35074 C 3419.78 -1.4054 1.86469 0
M  V30 35075 C 3420.76 -1.54047 0.721351 0
M  V30 35076 O 3421.94 -1.67954 0.974935 0
M  V30 35077 C 3419.07 -2.77331 2.09057 0
M  V30 35078 C 3418.03 -2.78614 3.24898 0
M  V30 35079 C 3417.35 -4.18465 3.32854 0
M  V30 35080 C 3418.65 -2.4251 4.62587 0
M  V30 35081 H 3420.35 -1.13789 2.76934 0
M  V30 35082 H 3417.89 -0.545948 1.33249 0
M  V30 35083 H 3419.84 -3.5296 2.30211 0
M  V30 35084 H 3418.57 -3.05556 1.1534 0
M  V30 35085 H 3417.23 -2.05439 3.03629 0
M  V30 35086 H 3416.88 -4.43828 2.36698 0
M  V30 35087 H 3416.58 -4.20229 4.10708 0
M  V30 35088 H 3418.1 -4.95909 3.5624 0
M  V30 35089 H 3419.51 -3.07852 4.83632 0
M  V30 35090 H 3417.91 -2.55528 5.42978 0
M  V30 35091 H 3418.98 -1.37662 4.64949 0
M  V30 35092 N 3420.32 -1.46252 -0.587204 0
M  V30 35093 C 3421.57 -1.51553 -1.34757 0
M  V30 35094 C 3421.9 -0.164864 -1.93499 0
M  V30 35095 O 3421.18 0.823176 -1.76222 0
M  V30 35096 C 3421.46 -2.61063 -2.48028 0
M  V30 35097 C 3421.31 -4.05645 -1.9435 0
M  V30 35098 C 3422.63 -2.66691 -3.50091 0
M  V30 35099 H 3419.75 -0.551742 -0.488621 0
M  V30 35100 H 3422.39 -1.78166 -0.660066 0
M  V30 35101 H 3420.54 -2.38502 -3.06675 0
M  V30 35102 H 3422.22 -4.3948 -1.40196 0
M  V30 35103 H 3420.46 -4.15337 -1.2521 0
M  V30 35104 H 3421.13 -4.7799 -2.76096 0
M  V30 35105 H 3423.61 -2.86961 -3.01319 0
M  V30 35106 H 3422.48 -3.45143 -4.26811 0
M  V30 35107 H 3422.74 -1.72567 -4.07029 0
M  V30 35108 N 3421.8 0.831459 -1.33883 0
M  V30 35109 C 3422.76 1.92336 -1.24657 0
M  V30 35110 C 3423.76 1.59963 -0.163816 0
M  V30 35111 O 3424.95 1.69163 -0.415859 0
M  V30 35112 C 3422.09 3.28178 -0.922594 0
M  V30 35113 H 3423.28 2.01941 -2.21721 0
M  V30 35114 H 3420.83 1.02443 -1.18047 0
M  V30 35115 H 3421.57 3.24268 0.0452302 0
M  V30 35116 H 3421.35 3.53056 -1.70569 0
M  V30 35117 H 3422.84 4.08158 -0.882992 0
M  V30 35118 N 3423.28 1.17472 1.05062 0
M  V30 35119 C 3424.21 0.915974 2.14784 0
M  V30 35120 C 3425.19 -0.142532 1.69502 0
M  V30 35121 O 3426.38 0.00797935 1.94198 0
M  V30 35122 C 3423.51 0.429924 3.44629 0
M  V30 35123 C 3422.46 1.42776 4.03483 0
M  V30 35124 C 3421.79 0.799621 5.28687 0
M  V30 35125 C 3423.09 2.80137 4.40818 0
M  V30 35126 H 3424.78 1.83356 2.36687 0
M  V30 35127 H 3422.33 0.883012 1.13749 0
M  V30 35128 H 3424.28 0.236319 4.20737 0
M  V30 35129 H 3423 -0.523206 3.22382 0
M  V30 35130 H 3421.66 1.60813 3.29446 0
M  V30 35131 H 3421.31 -0.160385 5.02744 0
M  V30 35132 H 3421.01 1.46575 5.69025 0
M  V30 35133 H 3422.53 0.616319 6.07482 0
M  V30 35134 H 3423.95 2.6581 5.07955 0
M  V30 35135 H 3422.34 3.43339 4.92177 0
M  V30 35136 H 3423.41 3.34448 3.51102 0
M  V30 35137 N 3424.76 -1.23807 0.975168 0
M  V30 35138 C 3425.99 -1.96124 0.659013 0
M  V30 35139 C 3426.4 -1.7225 -0.773014 0
M  V30 35140 O 3425.76 -1.01075 -1.51954 0
M  V30 35141 C 3425.81 -3.49241 0.933416 0
M  V30 35142 O 3425.53 -3.72303 2.30915 0
M  V30 35143 C 3427.03 -4.38765 0.632485 0
M  V30 35144 H 3424.25 -0.624576 0.245248 0
M  V30 35145 H 3426.79 -1.57438 1.30513 0
M  V30 35146 H 3424.95 -3.85963 0.333391 0
M  V30 35147 H 3425.36 -4.66634 2.39485 0
M  V30 35148 H 3426.84 -5.45023 0.874887 0
M  V30 35149 H 3427.31 -4.37057 -0.433376 0
M  V30 35150 H 3427.92 -4.07643 1.21275 0
M  V30 35151 N 3426.24 -0.746182 -1.38816 0
M  V30 35152 C 3427.48 -0.303878 -2.02129 0
M  V30 35153 C 3427.84 1.09167 -1.57945 0
M  V30 35154 O 3429.04 1.63268 -2.13535 0
M  V30 35155 C 3427.31 -0.414441 -3.54989 0
M  V30 35156 S 3428.87 -0.0536266 -4.38767 0
M  V30 35157 H 3425.69 -0.118341 -0.701082 0
M  V30 35158 H 3428.29 -0.975167 -1.69442 0
M  V30 35159 H 3426.99 -1.43121 -3.84636 0
M  V30 35160 H 3426.53 0.274286 -3.92443 0
M  V30 35161 H 3428.54 1.15912 -4.82472 0
M  V30 35162 N 3427.71 1.49635 -0.494676 0
M  V30 35163 C 3428.95 2.04338 0.050527 0
M  V30 35164 C 3429.32 1.36668 1.34855 0
M  V30 35165 O 3430.52 1.82056 1.9776 0
M  V30 35166 C 3428.79 3.56805 0.206185 0
M  V30 35167 S 3430.35 4.33074 0.706548 0
M  V30 35168 H 3427.17 0.710984 0.00477943 0
M  V30 35169 H 3429.77 1.83763 -0.667201 0
M  V30 35170 H 3428.47 4.03601 -0.743933 0
M  V30 35171 H 3428 3.81774 0.949339 0
M  V30 35172 H 3430.02 4.5513 1.97664 0
M  V30 35173 N 3429.19 0.228241 1.55939 0
M  V30 35174 C 3430.12 -0.673661 2.23571 0
M  V30 35175 C 3431.1 -1.19587 1.20966 0
M  V30 35176 O 3432.29 -1.23865 1.4957 0
M  V30 35177 C 3429.42 -1.87901 2.9208 0
M  V30 35178 C 3428.37 -1.49036 4.01214 0
M  V30 35179 C 3427.7 -2.77503 4.57052 0
M  V30 35180 C 3429 -0.675349 5.17915 0
M  V30 35181 H 3430.69 -0.109753 2.99199 0
M  V30 35182 H 3428.24 -0.0513479 1.43908 0
M  V30 35183 H 3430.19 -2.51545 3.38087 0
M  V30 35184 H 3428.91 -2.468 2.1391 0
M  V30 35185 H 3427.57 -0.877349 3.55947 0
M  V30 35186 H 3427.22 -3.3456 3.75605 0
M  V30 35187 H 3426.92 -2.52229 5.30711 0
M  V30 35188 H 3428.45 -3.42078 5.05782 0
M  V30 35189 H 3429.86 -1.21565 5.60263 0
M  V30 35190 H 3428.26 -0.519431 5.97848 0
M  V30 35191 H 3429.33 0.31658 4.83865 0
M  V30 35192 N 3430.67 -1.57536 -0.0450825 0
M  V30 35193 C 3431.6 -2.08539 -1.05043 0
M  V30 35194 C 3432.58 -0.984442 -1.38718 0
M  V30 35195 O 3433.77 -1.25876 -1.47881 0
M  V30 35196 C 3430.9 -2.55152 -2.35615 0
M  V30 35197 C 3429.85 -3.69366 -2.16224 0
M  V30 35198 C 3429.18 -4.02128 -3.52416 0
M  V30 35199 C 3430.48 -4.98412 -1.5615 0
M  V30 35200 H 3432.17 -2.92784 -0.625914 0
M  V30 35201 H 3429.72 -1.40848 -0.299632 0
M  V30 35202 H 3431.67 -2.89451 -3.06261 0
M  V30 35203 H 3430.39 -1.67969 -2.80096 0
M  V30 35204 H 3429.05 -3.35391 -1.48014 0
M  V30 35205 H 3428.7 -3.12035 -3.94516 0
M  V30 35206 H 3428.4 -4.7905 -3.40272 0
M  V30 35207 H 3429.92 -4.38947 -4.2445 0
M  V30 35208 H 3431.34 -5.3077 -2.16694 0
M  V30 35209 H 3429.74 -5.79836 -1.54627 0
M  V30 35210 H 3430.81 -4.82043 -0.525613 0
M  V30 35211 N 3432.15 0.317045 -1.54378 0
M  V30 35212 C 3433.11 1.37346 -1.8349 0
M  V30 35213 C 3434.11 1.44423 -0.707007 0
M  V30 35214 O 3435.3 1.44337 -0.975314 0
M  V30 35215 C 3432.43 2.76009 -2.00079 0
M  V30 35216 H 3433.63 1.12784 -2.77885 0
M  V30 35217 H 3431.18 0.552876 -1.46195 0
M  V30 35218 H 3431.91 3.05817 -1.07918 0
M  V30 35219 H 3431.7 2.72265 -2.8216 0
M  V30 35220 H 3433.19 3.52422 -2.24028 0
M  V30 35221 N 3433.63 1.46561 0.57944 0
M  V30 35222 C 3434.56 1.60236 1.69843 0
M  V30 35223 C 3435.54 0.452562 1.63969 0
M  V30 35224 O 3436.72 0.679206 1.81935 0
M  V30 35225 C 3433.85 1.59543 3.08485 0
M  V30 35226 C 3432.81 2.73526 3.29193 0
M  V30 35227 C 3432.13 2.57896 4.68395 0
M  V30 35228 C 3433.43 4.15321 3.16711 0
M  V30 35229 H 3435.13 2.53907 1.58656 0
M  V30 35230 H 3432.67 1.22196 0.761852 0
M  V30 35231 H 3434.63 1.67703 3.86592 0
M  V30 35232 H 3433.35 0.624186 3.2058 0
M  V30 35233 H 3432.01 2.6484 2.53486 0
M  V30 35234 H 3431.66 1.58847 4.77259 0
M  V30 35235 H 3431.36 3.34349 4.83202 0
M  V30 35236 H 3432.88 2.67951 5.48666 0
M  V30 35237 H 3434.29 4.251 3.84659 0
M  V30 35238 H 3432.69 4.92387 3.43038 0
M  V30 35239 H 3433.76 4.35247 2.13747 0
M  V30 35240 N 3435.1 -0.824347 1.34322 0
M  V30 35241 C 3436.03 -1.95012 1.28423 0
M  V30 35242 C 3437.02 -1.69327 0.161954 0
M  V30 35243 O 3438.2 -1.90945 0.354085 0
M  V30 35244 C 3435.33 -3.31442 1.03747 0
M  V30 35245 C 3434.28 -3.71564 2.12425 0
M  V30 35246 C 3433.61 -5.0596 1.7294 0
M  V30 35247 C 3434.91 -3.8381 3.54241 0
M  V30 35248 H 3436.6 -2.00205 2.22617 0
M  V30 35249 H 3434.15 -0.961837 1.07167 0
M  V30 35250 H 3436.1 -4.09783 0.982658 0
M  V30 35251 H 3434.83 -3.26545 0.0599466 0
M  V30 35252 H 3433.49 -2.95496 2.16973 0
M  V30 35253 H 3433.13 -4.97549 0.73852 0
M  V30 35254 H 3432.83 -5.33776 2.45677 0
M  V30 35255 H 3434.36 -5.8676 1.68952 0
M  V30 35256 H 3435.77 -4.52426 3.52114 0
M  V30 35257 H 3434.17 -4.23078 4.25588 0
M  V30 35258 H 3435.24 -2.85849 3.91687 0
M  V30 35259 N 3436.58 -1.18028 -1.04437 0
M  V30 35260 C 3437.51 -0.927351 -2.14295 0
M  V30 35261 C 3438.49 0.13354 -1.69575 0
M  V30 35262 O 3439.68 -0.018278 -1.94191 0
M  V30 35263 C 3436.81 -0.448195 -3.44396 0
M  V30 35264 C 3435.76 -1.44914 -4.02721 0
M  V30 35265 C 3435.09 -0.827647 -5.28256 0
M  V30 35266 C 3436.39 -2.8247 -4.39326 0
M  V30 35267 H 3438.08 -1.84609 -2.35711 0
M  V30 35268 H 3435.63 -0.889032 -1.13279 0
M  V30 35269 H 3437.58 -0.258628 -4.20606 0
M  V30 35270 H 3436.31 0.506102 -3.22655 0
M  V30 35271 H 3434.96 -1.62558 -3.28588 0
M  V30 35272 H 3434.61 0.133721 -5.02822 0
M  V30 35273 H 3434.31 -1.4959 -5.6824 0
M  V30 35274 H 3435.84 -0.648527 -6.07146 0
M  V30 35275 H 3437.25 -2.685 -5.06538 0
M  V30 35276 H 3435.65 -3.45945 -4.90349 0
M  V30 35277 H 3436.72 -3.36305 -3.49324 0
M  V30 35278 N 3438.06 1.23288 -0.98172 0
M  V30 35279 C 3439.29 1.95488 -0.668434 0
M  V30 35280 C 3439.7 1.7287 0.768945 0
M  V30 35281 O 3439.04 1.01786 1.52923 0
M  V30 35282 C 3439.1 3.48548 -0.880596 0
M  V30 35283 C 3438.77 3.94886 -2.3003 0
M  V30 35284 C 3439.76 4.03452 -3.27906 0
M  V30 35285 C 3437.45 4.27837 -2.63174 0
M  V30 35286 C 3439.44 4.44324 -4.57007 0
M  V30 35287 C 3437.13 4.6839 -3.92497 0
M  V30 35288 C 3438.13 4.76601 -4.89225 0
M  V30 35289 O 3437.82 5.16242 -6.16238 0
M  V30 35290 H 3437.55 0.629155 -0.247266 0
M  V30 35291 H 3440.1 1.57697 -1.31609 0
M  V30 35292 H 3438.33 3.863 -0.175766 0
M  V30 35293 H 3440.02 4.01959 -0.564269 0
M  V30 35294 H 3440.79 3.78197 -3.03631 0
M  V30 35295 H 3436.67 4.20658 -1.88595 0
M  V30 35296 H 3440.21 4.50647 -5.32506 0
M  V30 35297 H 3436.11 4.93094 -4.16567 0
M  V30 35298 H 3436.88 5.3435 -6.2001 0
M  V30 35299 N 3439.54 0.753533 1.38418 0
M  V30 35300 C 3440.49 0.125781 2.30457 0
M  V30 35301 C 3441.46 -0.709702 1.50175 0
M  V30 35302 O 3442.64 -0.665841 1.78805 0
M  V30 35303 C 3439.78 -0.761444 3.36595 0
M  V30 35304 C 3438.89 0.0886608 4.31909 0
M  V30 35305 C 3438.03 -0.801563 5.25118 0
M  V30 35306 C 3437.07 0.0521795 6.12078 0
M  V30 35307 N 3436.2 -0.795001 6.97585 0
M  V30 35308 H 3441.04 0.916237 2.83565 0
M  V30 35309 H 3438.58 0.46346 1.39608 0
M  V30 35310 H 3440.54 -1.29047 3.9674 0
M  V30 35311 H 3439.17 -1.51769 2.84897 0
M  V30 35312 H 3438.22 0.735314 3.73226 0
M  V30 35313 H 3439.53 0.747985 4.9316 0
M  V30 35314 H 3438.69 -1.39776 5.90379 0
M  V30 35315 H 3437.43 -1.49462 4.64233 0
M  V30 35316 H 3436.43 0.661042 5.45812 0
M  V30 35317 H 3437.66 0.742297 6.75031 0
M  V30 35318 H 3435.6 -1.47301 6.39248 0
M  V30 35319 H 3435.52 -0.192572 7.55755 0
M  V30 35320 H 3436.79 -1.37617 7.67256 0
M  V30 35321 N 3441.02 -1.49371 0.502605 0
M  V30 35322 C 3441.96 -2.29156 -0.274964 0
M  V30 35323 C 3442.93 -1.35626 -0.958896 0
M  V30 35324 O 3444.12 -1.64583 -0.965247 0
M  V30 35325 C 3441.26 -3.18337 -1.33249 0
M  V30 35326 C 3440.37 -4.26926 -0.660173 0
M  V30 35327 C 3439.51 -5.03321 -1.69828 0
M  V30 35328 C 3438.55 -6.03745 -1.00792 0
M  V30 35329 N 3437.68 -6.73299 -1.9903 0
M  V30 35330 H 3442.52 -2.95143 0.411651 0
M  V30 35331 H 3440.06 -1.45523 0.214849 0
M  V30 35332 H 3442.02 -3.68419 -1.95763 0
M  V30 35333 H 3440.65 -2.54331 -1.98785 0
M  V30 35334 H 3439.7 -3.80319 0.0782849 0
M  V30 35335 H 3441.01 -4.98663 -0.116803 0
M  V30 35336 H 3440.17 -5.5728 -2.39842 0
M  V30 35337 H 3438.9 -4.31361 -2.27551 0
M  V30 35338 H 3437.91 -5.49016 -0.293557 0
M  V30 35339 H 3439.13 -6.77691 -0.437166 0
M  V30 35340 H 3437.08 -6.04109 -2.55712 0
M  V30 35341 H 3437 -7.41017 -1.49763 0
M  V30 35342 H 3438.27 -7.31861 -2.68328 0
M  V30 35343 N 3442.49 -0.236508 -1.55815 0
M  V30 35344 C 3443.4 0.678399 -2.24577 0
M  V30 35345 C 3444.42 1.2017 -1.25838 0
M  V30 35346 O 3445.6 1.24016 -1.58688 0
M  V30 35347 C 3442.66 1.8632 -2.92379 0
M  V30 35348 C 3441.72 1.3804 -4.06501 0
M  V30 35349 C 3440.96 2.50873 -4.71061 0
M  V30 35350 O 3441.18 3.69362 -4.34659 0
M  V30 35351 O 3440.11 2.21222 -5.59772 0
M  V30 35352 H 3443.94 0.122548 -3.03453 0
M  V30 35353 H 3441.52 -0.00543429 -1.49399 0
M  V30 35354 H 3443.41 2.55482 -3.35122 0
M  V30 35355 H 3442.08 2.40687 -2.16452 0
M  V30 35356 H 3440.99 0.656357 -3.68297 0
M  V30 35357 H 3442.32 0.882939 -4.84216 0
M  V30 35358 N 3443.97 1.57557 0.0367273 0
M  V30 35359 C 3445.39 1.54705 0.392237 0
M  V30 35360 C 3445.59 0.961601 1.77075 0
M  V30 35361 O 3444.64 0.579306 2.45765 0
M  V30 35362 C 3445.96 2.99189 0.301115 0
M  V30 35363 C 3447.51 3.107 0.378758 0
M  V30 35364 C 3447.98 4.569 0.317169 0
M  V30 35365 N 3449.47 4.6167 0.376196 0
M  V30 35366 C 3450.21 5.72323 0.35131 0
M  V30 35367 N 3449.7 6.92237 0.279166 0
M  V30 35368 N 3451.5 5.60672 0.400473 0
M  V30 35369 H 3443.65 1.93967 -0.865489 0
M  V30 35370 H 3445.91 0.889319 -0.328354 0
M  V30 35371 H 3445.62 3.45718 -0.645881 0
M  V30 35372 H 3445.49 3.60872 1.09778 0
M  V30 35373 H 3447.88 2.64122 1.31619 0
M  V30 35374 H 3447.96 2.51862 -0.447116 0
M  V30 35375 H 3447.6 5.04144 -0.616558 0
M  V30 35376 H 3447.53 5.13641 1.16105 0
M  V30 35377 H 3450.02 3.75391 0.434777 0
M  V30 35378 H 3450.34 7.72345 0.265067 0
M  V30 35379 H 3448.68 6.94567 0.245327 0
M  V30 35380 H 3451.87 4.65886 0.454772 0
M  V30 35381 H 3452.04 6.46899 0.37761 0
M  V30 35382 N 3445.45 -0.308854 1.54544 0
M  V30 35383 C 3446.87 -0.654063 1.45582 0
M  V30 35384 C 3447.07 -1.91045 0.640631 0
M  V30 35385 O 3446.12 -2.52082 0.145224 0
M  V30 35386 C 3447.44 -0.814371 2.89462 0
M  V30 35387 C 3448.98 -0.910764 2.99456 0
M  V30 35388 C 3449.46 -1.10313 4.44517 0
M  V30 35389 N 3450.95 -1.16952 4.48192 0
M  V30 35390 C 3451.69 -1.33652 5.57606 0
M  V30 35391 N 3451.18 -1.47299 6.7696 0
M  V30 35392 N 3452.97 -1.36477 5.4528 0
M  V30 35393 H 3445.13 0.516735 2.06018 0
M  V30 35394 H 3447.39 0.169487 0.932726 0
M  V30 35395 H 3447.09 0.0378073 3.5168 0
M  V30 35396 H 3446.97 -1.70576 3.36428 0
M  V30 35397 H 3449.36 -1.75344 2.37358 0
M  V30 35398 H 3449.44 0.00447668 2.558 0
M  V30 35399 H 3449.08 -0.265257 5.07207 0
M  V30 35400 H 3449.01 -2.03247 4.85796 0
M  V30 35401 H 3451.5 -1.0779 3.62201 0
M  V30 35402 H 3451.81 -1.59775 7.56103 0
M  V30 35403 H 3450.16 -1.4437 6.7984 0
M  V30 35404 H 3453.35 -1.25421 4.50985 0
M  V30 35405 H 3453.52 -1.49149 6.30602 0
M  V30 35406 N 3446.93 -1.46867 -0.571659 0
M  V30 35407 C 3447.84 -1.60872 -1.70756 0
M  V30 35408 C 3448.86 -0.49189 -1.66903 0
M  V30 35409 O 3450.03 -0.757501 -1.86612 0
M  V30 35410 C 3447.1 -1.60592 -3.07264 0
M  V30 35411 C 3446.16 -2.83591 -3.22296 0
M  V30 35412 C 3445.39 -2.83314 -4.52293 0
M  V30 35413 O 3445.61 -1.92694 -5.36866 0
M  V30 35414 O 3444.55 -3.74998 -4.70808 0
M  V30 35415 H 3448.37 -2.56957 -1.61885 0
M  V30 35416 H 3445.96 -1.29786 -0.739996 0
M  V30 35417 H 3447.84 -1.6317 -3.88527 0
M  V30 35418 H 3446.52 -0.676693 -3.16548 0
M  V30 35419 H 3445.42 -2.86562 -2.40485 0
M  V30 35420 H 3446.76 -3.75759 -3.17909 0
M  V30 35421 N 3448.41 0.817212 -1.34757 0
M  V30 35422 C 3449.64 1.60533 -1.30525 0
M  V30 35423 C 3450.05 1.88421 0.119508 0
M  V30 35424 O 3449.41 1.47964 1.06831 0
M  V30 35425 C 3449.46 2.94289 -2.09944 0
M  V30 35426 O 3449.18 2.67615 -3.46863 0
M  V30 35427 C 3450.68 3.88679 -2.13174 0
M  V30 35428 H 3447.9 0.49882 -0.448797 0
M  V30 35429 H 3450.44 1.01636 -1.77455 0
M  V30 35430 H 3448.6 3.49728 -1.6664 0
M  V30 35431 H 3449.01 3.52942 -3.87985 0
M  V30 35432 H 3450.49 4.79677 -2.73156 0
M  V30 35433 H 3450.96 4.24477 -1.12765 0
M  V30 35434 H 3451.57 3.39176 -2.56592 0
M  V30 35435 N 3449.89 1.1858 1.0381 0
M  V30 35436 C 3451.13 0.984205 1.77317 0
M  V30 35437 C 3451.46 -0.484756 1.88053 0
M  V30 35438 O 3450.74 -1.35995 1.39052 0
M  V30 35439 C 3451.02 1.64276 3.20446 0
M  V30 35440 C 3450.88 3.18475 3.17637 0
M  V30 35441 C 3452.19 1.35813 4.1862 0
M  V30 35442 H 3449.31 0.35896 0.643674 0
M  V30 35443 H 3451.96 1.46285 1.21247 0
M  V30 35444 H 3450.11 1.23578 3.68321 0
M  V30 35445 H 3451.78 3.68325 2.77731 0
M  V30 35446 H 3450.02 3.50502 2.55599 0
M  V30 35447 H 3450.69 3.59693 4.18718 0
M  V30 35448 H 3453.17 1.7108 3.79303 0
M  V30 35449 H 3452.04 1.84456 5.16979 0
M  V30 35450 H 3452.3 0.281495 4.41203 0
M  V30 35451 N 3451.36 -1.22766 0.988245 0
M  V30 35452 C 3452.61 -1.90701 0.656974 0
M  V30 35453 C 3452.93 -1.77857 -0.814027 0
M  V30 35454 O 3454.13 -2.40665 -1.25669 0
M  V30 35455 C 3452.59 -3.41881 1.12451 0
M  V30 35456 C 3452.2 -3.63371 2.62041 0
M  V30 35457 C 3453.94 -4.15545 0.86735 0
M  V30 35458 C 3451.85 -5.08228 3.02421 0
M  V30 35459 H 3450.78 -0.714101 0.242024 0
M  V30 35460 H 3453.43 -1.39067 1.19719 0
M  V30 35461 H 3451.81 -3.9267 0.512455 0
M  V30 35462 H 3452.98 -3.23095 3.28552 0
M  V30 35463 H 3451.3 -3.03032 2.85588 0
M  V30 35464 H 3453.9 -5.22301 1.1448 0
M  V30 35465 H 3454.24 -4.15836 -0.196538 0
M  V30 35466 H 3454.77 -3.70769 1.44137 0
M  V30 35467 H 3451.51 -5.13073 4.07966 0
M  V30 35468 H 3451.03 -5.49424 2.4061 0
M  V30 35469 H 3452.71 -5.76618 2.93462 0
M  V30 35470 N 3452.84 -0.760864 -1.38017 0
M  V30 35471 C 3454.07 -0.330074 -2.04757 0
M  V30 35472 C 3454.49 1.03582 -1.57011 0
M  V30 35473 O 3453.85 1.66156 -0.725379 0
M  V30 35474 C 3453.9 -0.370145 -3.58695 0
M  V30 35475 O 3453 0.633289 -4.07509 0
M  V30 35476 H 3452.34 -0.144793 -0.648021 0
M  V30 35477 H 3454.87 -1.03402 -1.76548 0
M  V30 35478 H 3454.88 -0.223586 -4.07387 0
M  V30 35479 H 3453.56 -1.36668 -3.92804 0
M  V30 35480 H 3452.13 0.450745 -3.70166 0
M  V30 35481 N 3454.32 1.49102 -0.510519 0
M  V30 35482 C 3455.27 2.29299 0.262808 0
M  V30 35483 C 3456.24 1.36133 0.95169 0
M  V30 35484 O 3457.42 1.65093 0.956505 0
M  V30 35485 C 3454.56 3.1904 1.31559 0
M  V30 35486 C 3453.67 4.2727 0.637523 0
M  V30 35487 C 3452.81 5.04215 1.67156 0
M  V30 35488 C 3451.85 6.04271 0.975886 0
M  V30 35489 N 3450.99 6.74345 1.95456 0
M  V30 35490 H 3455.83 2.94921 -0.427297 0
M  V30 35491 H 3453.36 1.45407 -0.222564 0
M  V30 35492 H 3455.32 3.69452 1.93806 0
M  V30 35493 H 3453.95 2.55382 1.97433 0
M  V30 35494 H 3453 3.80273 -0.0984531 0
M  V30 35495 H 3454.31 4.98718 0.0903559 0
M  V30 35496 H 3453.47 5.58544 2.36883 0
M  V30 35497 H 3452.21 4.32561 2.2526 0
M  V30 35498 H 3451.21 5.49164 0.264438 0
M  V30 35499 H 3452.44 6.77914 0.401221 0
M  V30 35500 H 3450.38 6.05457 2.52504 0
M  V30 35501 H 3450.3 7.41801 1.45832 0
M  V30 35502 H 3451.57 7.33274 2.64443 0
M  V30 35503 N 3455.8 0.244768 1.55688 0
M  V30 35504 C 3456.73 -0.64991 2.24273 0
M  V30 35505 C 3457.71 -1.18298 1.22228 0
M  V30 35506 O 3458.89 -1.22271 1.50875 0
M  V30 35507 C 3456.02 -1.84793 2.94056 0
M  V30 35508 C 3454.98 -1.44772 4.02772 0
M  V30 35509 C 3454.3 -2.72639 4.59969 0
M  V30 35510 C 3455.6 -0.620379 5.18603 0
M  V30 35511 H 3457.3 -0.0780128 2.99298 0
M  V30 35512 H 3454.84 -0.0360816 1.43955 0
M  V30 35513 H 3456.8 -2.47945 3.40736 0
M  V30 35514 H 3455.52 -2.44517 2.16516 0
M  V30 35515 H 3454.18 -0.839546 3.56857 0
M  V30 35516 H 3453.83 -3.30557 3.79132 0
M  V30 35517 H 3453.53 -2.46586 5.33356 0
M  V30 35518 H 3455.05 -3.36694 5.09382 0
M  V30 35519 H 3456.47 -1.15616 5.61521 0
M  V30 35520 H 3454.86 -0.455992 5.98365 0
M  V30 35521 H 3455.93 0.367883 4.83502 0
M  V30 35522 N 3457.28 -1.57574 -0.0283712 0
M  V30 35523 C 3458.5 -1.93564 -0.730797 0
M  V30 35524 C 3458.92 -0.844585 -1.68856 0
M  V30 35525 O 3458.28 0.178939 -1.81621 0
M  V30 35526 C 3458.33 -3.29489 -1.48726 0
M  V30 35527 O 3458.05 -4.34403 -0.56794 0
M  V30 35528 C 3459.55 -3.79765 -2.28678 0
M  V30 35529 H 3456.77 -0.63881 -0.205335 0
M  V30 35530 H 3459.31 -2.04495 0.0143088 0
M  V30 35531 H 3457.47 -3.19953 -2.18424 0
M  V30 35532 H 3457.88 -5.12867 -1.09852 0
M  V30 35533 H 3459.36 -4.77381 -2.77149 0
M  V30 35534 H 3459.83 -3.10994 -3.10128 0
M  V30 35535 H 3460.44 -3.92386 -1.64053 0
M  V30 35536 N 3458.75 0.300654 -1.54706 0
M  V30 35537 C 3459.98 1.05477 -1.77995 0
M  V30 35538 C 3460.4 1.80925 -0.539606 0
M  V30 35539 O 3459.75 1.75783 0.490566 0
M  V30 35540 C 3459.8 2.03505 -2.98777 0
M  V30 35541 O 3459.53 1.31118 -4.18019 0
M  V30 35542 C 3461.03 2.90952 -3.34458 0
M  V30 35543 H 3458.25 0.312794 -0.593634 0
M  V30 35544 H 3460.79 0.339822 -2.01657 0
M  V30 35545 H 3458.95 2.70501 -2.77323 0
M  V30 35546 H 3459.36 1.96955 -4.86116 0
M  V30 35547 H 3460.83 3.55586 -4.22212 0
M  V30 35548 H 3461.31 3.59271 -2.52628 0
M  V30 35549 H 3461.92 2.29486 -3.58073 0
M  V30 35550 N 3460.23 1.47168 0.563863 0
M  V30 35551 C 3461.47 1.55024 1.33218 0
M  V30 35552 C 3461.84 0.204869 1.90904 0
M  V30 35553 O 3463.04 0.158248 2.68334 0
M  V30 35554 C 3461.31 2.63231 2.41752 0
M  V30 35555 S 3462.87 2.90624 3.2876 0
M  V30 35556 H 3459.69 0.547499 0.453614 0
M  V30 35557 H 3462.29 1.8451 0.646233 0
M  V30 35558 H 3460.99 3.5959 1.97796 0
M  V30 35559 H 3460.52 2.35538 3.15096 0
M  V30 35560 H 3462.54 2.27331 4.41061 0
M  V30 35561 N 3461.71 -0.810054 1.35188 0
M  V30 35562 C 3462.95 -1.58037 1.29629 0
M  V30 35563 C 3463.31 -1.91569 -0.128616 0
M  V30 35564 O 3464.52 -2.67023 -0.30854 0
M  V30 35565 C 3462.79 -2.83661 2.17419 0
M  V30 35566 S 3464.35 -3.74096 2.29341 0
M  V30 35567 H 3461.16 -0.541523 0.460732 0
M  V30 35568 H 3463.77 -0.955809 1.70542 0
M  V30 35569 H 3462.47 -2.57045 3.19931 0
M  V30 35570 H 3462 -3.51105 1.7745 0
M  V30 35571 H 3464.02 -4.73749 1.47567 0
M  V30 35572 N 3463.19 -1.19129 -1.0318 0
M  V30 35573 C 3464.6 -0.942876 -1.28771 0
M  V30 35574 C 3464.8 0.386448 -1.9776 0
M  V30 35575 O 3463.86 1.11866 -2.26367 0
M  V30 35576 C 3465.17 -2.1148 -2.13768 0
M  V30 35577 C 3466.72 -2.1541 -2.27085 0
M  V30 35578 C 3467.2 -3.32045 -3.15452 0
M  V30 35579 N 3468.69 -3.31962 -3.2304 0
M  V30 35580 C 3469.42 -4.18855 -3.91597 0
M  V30 35581 N 3468.92 -5.15897 -4.62409 0
M  V30 35582 N 3470.71 -4.06741 -3.87966 0
M  V30 35583 H 3462.86 -2.04661 -0.568129 0
M  V30 35584 H 3465.13 -0.894746 -0.313264 0
M  V30 35585 H 3464.83 -3.07666 -1.70394 0
M  V30 35586 H 3464.71 -2.08295 -3.14472 0
M  V30 35587 H 3467.09 -1.19796 -2.6969 0
M  V30 35588 H 3467.17 -2.22649 -1.25941 0
M  V30 35589 H 3466.82 -4.27936 -2.73556 0
M  V30 35590 H 3466.75 -3.22042 -4.16649 0
M  V30 35591 H 3469.24 -2.61715 -2.72606 0
M  V30 35592 H 3469.55 -5.78554 -5.12342 0
M  V30 35593 H 3467.9 -5.19849 -4.61284 0
M  V30 35594 H 3471.09 -3.30208 -3.31783 0
M  V30 35595 H 3471.26 -4.74674 -4.41122 0
M  V30 35596 N 3464.67 1.2224 -0.994741 0
M  V30 35597 C 3466.08 1.43146 -0.705787 0
M  V30 35598 C 3466.28 1.88087 0.722875 0
M  V30 35599 O 3465.34 2.03591 1.49355 0
M  V30 35600 C 3466.65 2.47142 -1.71293 0
M  V30 35601 C 3468.2 2.60939 -1.72858 0
M  V30 35602 C 3468.67 3.68158 -2.7244 0
M  V30 35603 N 3470.17 3.75618 -2.71045 0
M  V30 35604 C 3470.9 4.58178 -3.44762 0
M  V30 35605 N 3470.4 5.44716 -4.28084 0
M  V30 35606 N 3472.19 4.52506 -3.33459 0
M  V30 35607 H 3464.34 0.913758 -1.9174 0
M  V30 35608 H 3466.6 0.463389 -0.827028 0
M  V30 35609 H 3466.31 2.2107 -2.73534 0
M  V30 35610 H 3466.18 3.45776 -1.50727 0
M  V30 35611 H 3468.57 2.86354 -0.713135 0
M  V30 35612 H 3468.65 1.62574 -1.97493 0
M  V30 35613 H 3468.3 3.4349 -3.74135 0
M  V30 35614 H 3468.23 4.66097 -2.45074 0
M  V30 35615 H 3470.72 3.13786 -2.10586 0
M  V30 35616 H 3471.03 6.0474 -4.81154 0
M  V30 35617 H 3469.37 5.44292 -4.32171 0
M  V30 35618 H 3472.57 3.83925 -2.67804 0
M  V30 35619 H 3472.74 5.16616 -3.91167 0
M  V30 35620 N 3466.14 0.768172 1.37611 0
M  V30 35621 C 3467.37 0.340928 2.04579 0
M  V30 35622 C 3467.79 -1.02748 1.57558 0
M  V30 35623 O 3467.15 -1.65769 0.73418 0
M  V30 35624 C 3467.2 0.389162 3.58494 0
M  V30 35625 O 3466.3 -0.611669 4.07839 0
M  V30 35626 H 3465.65 0.148228 0.647244 0
M  V30 35627 H 3468.18 1.04337 1.75997 0
M  V30 35628 H 3468.19 0.245188 4.07263 0
M  V30 35629 H 3466.86 1.38749 3.92073 0
M  V30 35630 H 3465.44 -0.431108 3.704 0
M  V30 35631 N 3467.62 -1.48829 0.518419 0
M  V30 35632 C 3468.85 -2.07392 -0.0182766 0
M  V30 35633 C 3469.27 -1.37398 -1.28465 0
M  V30 35634 O 3468.63 -0.436208 -1.75974 0
M  V30 35635 C 3468.68 -3.59819 -0.237148 0
M  V30 35636 O 3467.78 -3.91098 -1.30828 0
M  V30 35637 H 3467.12 -0.66313 0.0339737 0
M  V30 35638 H 3469.65 -1.91399 0.723027 0
M  V30 35639 H 3469.66 -4.0536 -0.463353 0
M  V30 35640 H 3468.34 -4.1017 0.687997 0
M  V30 35641 H 3466.92 -3.57349 -1.06565 0
M  V30 35642 N 3469.1 -0.253021 -1.55556 0
M  V30 35643 C 3470.05 0.660122 -2.23036 0
M  V30 35644 C 3471.04 1.1753 -1.21996 0
M  V30 35645 O 3472.25 1.13149 -1.39991 0
M  V30 35646 H 3468.62 0.231377 -0.71552 0
M  V30 35647 H 3470.59 0.0678982 -2.98323 0
M  V30 35648 C 3469.34 1.84327 -2.9482 0
M  V30 35649 H 3468.67 1.45601 -3.72345 0
M  V30 35650 H 3470.11 2.45929 -3.45391 0
M  V30 35651 C 3468.57 2.71819 -1.99038 0
M  V30 35652 O 3469.1 3.7153 -1.52737 0
M  V30 35653 N 3467.3 2.38516 -1.66008 0
M  V30 35654 H 3466.85 1.57482 -2.03856 0
M  V30 35655 H 3466.81 2.9733 -1.02188 0
M  V30 35656 N 3470.58 1.57587 0.0200142 0
M  V30 35657 C 3471.82 1.89964 0.710044 0
M  V30 35658 C 3472.16 0.85186 1.74519 0
M  V30 35659 O 3471.43 -0.131971 1.94052 0
M  V30 35660 C 3471.72 3.32964 1.37139 0
M  V30 35661 C 3471.57 4.48443 0.349142 0
M  V30 35662 C 3472.89 3.75035 2.30297 0
M  V30 35663 H 3470.01 0.690866 0.256658 0
M  V30 35664 H 3472.65 1.89981 -0.0271696 0
M  V30 35665 H 3470.8 3.3308 1.99975 0
M  V30 35666 H 3472.47 4.60462 -0.277997 0
M  V30 35667 H 3470.71 4.32538 -0.33067 0
M  V30 35668 H 3471.38 5.45408 0.85054 0
M  V30 35669 H 3473.86 3.76343 1.77497 0
M  V30 35670 H 3472.74 4.75882 2.73547 0
M  V30 35671 H 3473 3.07792 3.17359 0
M  V30 35672 N 3472.06 -0.292445 1.54863 0
M  V30 35673 C 3473.28 -1.04963 1.78879 0
M  V30 35674 C 3473.71 -1.79856 0.550755 0
M  V30 35675 O 3473.06 -1.74297 -0.499024 0
M  V30 35676 C 3473.11 -1.99917 3.00109 0
M  V30 35677 O 3472.22 -3.08366 2.73833 0
M  V30 35678 H 3471.56 -0.301097 0.591808 0
M  V30 35679 H 3474.09 -0.327265 2.01966 0
M  V30 35680 H 3474.1 -2.42228 3.28313 0
M  V30 35681 H 3472.77 -1.44814 3.89874 0
M  V30 35682 H 3471.35 -2.70509 2.5667 0
M  V30 35683 N 3473.53 -1.47465 -0.55605 0
M  V30 35684 C 3474.76 -1.57538 -1.33661 0
M  V30 35685 C 3475.17 -0.22501 -1.87857 0
M  V30 35686 O 3474.52 0.792062 -1.65747 0
M  V30 35687 C 3474.58 -2.54157 -2.54253 0
M  V30 35688 C 3474.24 -3.99825 -2.21335 0
M  V30 35689 C 3475.24 -4.88275 -1.78559 0
M  V30 35690 C 3472.92 -4.45169 -2.32658 0
M  V30 35691 C 3474.92 -6.2009 -1.47538 0
M  V30 35692 C 3472.6 -5.77011 -2.0125 0
M  V30 35693 C 3473.6 -6.64293 -1.58757 0
M  V30 35694 O 3473.29 -7.93685 -1.27748 0
M  V30 35695 H 3473.02 -0.53462 -0.413712 0
M  V30 35696 H 3475.58 -1.93807 -0.680308 0
M  V30 35697 H 3473.81 -2.12958 -3.22778 0
M  V30 35698 H 3475.5 -2.54345 -3.16328 0
M  V30 35699 H 3476.26 -4.5449 -1.69303 0
M  V30 35700 H 3472.14 -3.77438 -2.64691 0
M  V30 35701 H 3475.68 -6.88173 -1.14298 0
M  V30 35702 H 3471.58 -6.10338 -2.10139 0
M  V30 35703 H 3472.35 -8.06199 -1.41369 0
M  V30 35704 N 3475.01 0.802873 -1.35616 0
M  V30 35705 C 3475.96 1.9149 -1.28842 0
M  V30 35706 C 3476.93 1.65331 -0.15965 0
M  V30 35707 O 3478.12 1.87674 -0.343964 0
M  V30 35708 C 3475.26 3.28091 -1.07005 0
M  V30 35709 C 3474.37 3.66412 -2.28837 0
M  V30 35710 C 3473.5 4.92062 -2.0012 0
M  V30 35711 C 3472.54 5.23021 -3.17986 0
M  V30 35712 N 3471.68 6.39853 -2.89021 0
M  V30 35713 H 3476.52 1.96616 -2.23934 0
M  V30 35714 H 3474.06 0.961668 -1.11312 0
M  V30 35715 H 3476.01 4.06845 -0.923745 0
M  V30 35716 H 3474.64 3.22424 -0.155741 0
M  V30 35717 H 3473.7 2.82889 -2.54319 0
M  V30 35718 H 3475.01 3.85248 -3.16837 0
M  V30 35719 H 3474.16 5.78651 -1.82342 0
M  V30 35720 H 3472.9 4.75269 -1.09411 0
M  V30 35721 H 3471.91 4.34922 -3.36338 0
M  V30 35722 H 3473.13 5.41742 -4.09502 0
M  V30 35723 H 3471.08 6.24477 -2.00909 0
M  V30 35724 H 3470.99 6.58957 -3.70556 0
M  V30 35725 H 3472.26 7.29459 -2.74792 0
M  V30 35726 N 3476.49 1.19674 1.02547 0
M  V30 35727 C 3477.72 1.02534 1.79361 0
M  V30 35728 C 3478.13 -0.428898 1.84275 0
M  V30 35729 O 3477.47 -1.30967 1.28816 0
M  V30 35730 C 3477.53 1.52254 3.25667 0
M  V30 35731 C 3477.2 3.00418 3.44381 0
M  V30 35732 C 3478.2 3.98152 3.34322 0
M  V30 35733 C 3475.88 3.39185 3.70485 0
M  V30 35734 C 3477.87 5.32646 3.50096 0
M  V30 35735 C 3475.56 4.73837 3.85904 0
M  V30 35736 C 3476.56 5.70376 3.75713 0
M  V30 35737 O 3476.25 7.02588 3.90672 0
M  V30 35738 H 3475.98 0.361554 0.571187 0
M  V30 35739 H 3478.53 1.59004 1.30026 0
M  V30 35740 H 3476.76 0.901614 3.76042 0
M  V30 35741 H 3478.45 1.31269 3.84088 0
M  V30 35742 H 3479.22 3.69547 3.14102 0
M  V30 35743 H 3475.1 2.64591 3.77508 0
M  V30 35744 H 3478.64 6.07982 3.42058 0
M  V30 35745 H 3474.54 5.02136 4.05622 0
M  V30 35746 H 3475.31 7.0971 4.07743 0
M  V30 35747 N 3477.97 -1.21711 1.00121 0
M  V30 35748 C 3479.19 -1.95223 0.700206 0
M  V30 35749 C 3479.62 -1.73352 -0.730107 0
M  V30 35750 O 3478.98 -1.01797 -1.50024 0
M  V30 35751 C 3479.03 -3.45812 1.02208 0
M  V30 35752 O 3478.13 -4.1221 0.125261 0
M  V30 35753 H 3477.47 -0.610447 0.261249 0
M  V30 35754 H 3480 -1.54575 1.34043 0
M  V30 35755 H 3480.01 -3.96366 0.967362 0
M  V30 35756 H 3478.69 -3.61054 2.06428 0
M  V30 35757 H 3477.26 -3.72151 0.236179 0
M  V30 35758 N 3479.45 -0.775459 -1.37202 0
M  V30 35759 C 3480.39 -0.162429 -2.30228 0
M  V30 35760 C 3481.36 0.68572 -1.51285 0
M  V30 35761 O 3482.55 0.63731 -1.79842 0
M  V30 35762 C 3479.69 0.707799 -3.37764 0
M  V30 35763 C 3478.8 -0.157363 -4.31713 0
M  V30 35764 C 3477.94 0.71792 -5.26326 0
M  V30 35765 C 3476.98 -0.149549 -6.11917 0
M  V30 35766 N 3476.11 0.683921 -6.98761 0
M  V30 35767 H 3480.95 -0.961234 -2.82071 0
M  V30 35768 H 3478.49 -0.485612 -1.38853 0
M  V30 35769 H 3480.45 1.22719 -3.98743 0
M  V30 35770 H 3479.08 1.47217 -2.87275 0
M  V30 35771 H 3478.13 -0.794598 -3.72008 0
M  V30 35772 H 3479.44 -0.826348 -4.91907 0
M  V30 35773 H 3478.6 1.30366 -5.92528 0
M  V30 35774 H 3477.34 1.42058 -4.66552 0
M  V30 35775 H 3476.34 -0.747792 -5.44691 0
M  V30 35776 H 3477.57 -0.849594 -6.73765 0
M  V30 35777 H 3475.51 1.37112 -6.41511 0
M  V30 35778 H 3475.43 0.0723136 -7.55965 0
M  V30 35779 H 3476.7 1.25393 -7.69348 0
M  V30 35780 N 3480.93 1.48552 -0.526305 0
M  V30 35781 C 3482.17 2.02798 0.00914443 0
M  V30 35782 C 3482.5 1.40293 1.34282 0
M  V30 35783 O 3481.78 0.547387 1.86638 0
M  V30 35784 C 3482.06 3.59847 0.135039 0
M  V30 35785 C 3481.92 4.32839 -1.22354 0
M  V30 35786 C 3483.23 4.31544 0.863597 0
M  V30 35787 H 3480.35 0.736998 0.00184921 0
M  V30 35788 H 3483 1.77314 -0.682622 0
M  V30 35789 H 3481.15 3.8169 0.724212 0
M  V30 35790 H 3482.82 4.22423 -1.85354 0
M  V30 35791 H 3481.06 3.94401 -1.80638 0
M  V30 35792 H 3481.73 5.41162 -1.08849 0
M  V30 35793 H 3484.21 4.14508 0.363661 0
M  V30 35794 H 3483.08 5.41125 0.920575 0
M  V30 35795 H 3483.34 3.98565 1.91306 0
M  V30 35796 N 3482.4 0.261267 1.55419 0
M  V30 35797 C 3483.35 -0.648284 2.23383 0
M  V30 35798 C 3484.35 -1.16882 1.22618 0
M  V30 35799 O 3485.55 -1.12405 1.40589 0
M  V30 35800 H 3481.93 -0.227579 0.716737 0
M  V30 35801 H 3483.9 -0.0520764 2.98355 0
M  V30 35802 C 3482.65 -1.82761 2.95794 0
M  V30 35803 H 3481.97 -1.43624 3.73112 0
M  V30 35804 H 3483.41 -2.44094 3.4669 0
M  V30 35805 C 3481.87 -2.7076 2.00477 0
M  V30 35806 O 3482.4 -3.70715 1.54705 0
M  V30 35807 N 3480.6 -2.37632 1.67271 0
M  V30 35808 H 3480.15 -1.56399 2.04688 0
M  V30 35809 H 3480.11 -2.96783 1.03764 0
M  V30 35810 N 3483.88 -1.57596 -0.0116567 0
M  V30 35811 C 3484.83 -2.07683 -1.0068 0
M  V30 35812 C 3485.8 -0.96969 -1.34856 0
M  V30 35813 O 3486.98 -1.24138 -1.44894 0
M  V30 35814 C 3484.12 -2.57528 -2.29724 0
M  V30 35815 C 3483.24 -3.821 -2.01554 0
M  V30 35816 C 3482.37 -4.2049 -3.24594 0
M  V30 35817 C 3481.41 -5.3793 -2.92057 0
M  V30 35818 N 3480.55 -5.7167 -4.076 0
M  V30 35819 H 3485.39 -2.92444 -0.572736 0
M  V30 35820 H 3482.92 -1.44579 -0.271159 0
M  V30 35821 H 3484.88 -2.84502 -3.05147 0
M  V30 35822 H 3483.51 -1.75658 -2.70821 0
M  V30 35823 H 3482.56 -3.62105 -1.1655 0
M  V30 35824 H 3483.88 -4.67629 -1.73563 0
M  V30 35825 H 3483.03 -4.48684 -4.08372 0
M  V30 35826 H 3481.77 -3.33647 -3.55712 0
M  V30 35827 H 3480.77 -5.09472 -2.06684 0
M  V30 35828 H 3482 -6.26441 -2.62198 0
M  V30 35829 H 3479.95 -4.87785 -4.38637 0
M  V30 35830 H 3479.86 -6.51748 -3.83094 0
M  V30 35831 H 3481.13 -6.0445 -4.922 0
M  V30 35832 N 3485.36 0.284228 -1.55016 0
M  V30 35833 C 3486.27 1.37329 -1.90205 0
M  V30 35834 C 3487.29 1.54621 -0.798021 0
M  V30 35835 O 3488.46 1.68963 -1.09605 0
M  V30 35836 C 3485.53 2.71437 -2.15691 0
M  V30 35837 C 3484.59 2.62987 -3.39317 0
M  V30 35838 C 3483.82 3.907 -3.63578 0
M  V30 35839 O 3484.04 4.90855 -2.90546 0
M  V30 35840 O 3482.98 3.91581 -4.57109 0
M  V30 35841 H 3486.8 1.10485 -2.8289 0
M  V30 35842 H 3484.39 0.481774 -1.41419 0
M  V30 35843 H 3486.27 3.50754 -2.33559 0
M  V30 35844 H 3484.95 2.9809 -1.26191 0
M  V30 35845 H 3483.85 1.82085 -3.26796 0
M  V30 35846 H 3485.19 2.41285 -4.29001 0
M  V30 35847 N 3486.84 1.47758 0.548222 0
M  V30 35848 C 3487.75 1.63568 1.68175 0
M  V30 35849 C 3488.76 0.51838 1.66099 0
M  V30 35850 O 3489.94 0.787093 1.85383 0
M  V30 35851 C 3487 1.65459 3.0467 0
M  V30 35852 C 3486.07 2.88682 3.17744 0
M  V30 35853 C 3485.3 2.90474 4.47728 0
M  V30 35854 O 3485.52 2.01211 5.33732 0
M  V30 35855 O 3484.46 3.82441 4.64782 0
M  V30 35856 H 3488.28 2.595 1.57777 0
M  V30 35857 H 3485.87 1.30947 0.719254 0
M  V30 35858 H 3487.75 1.6933 3.85882 0
M  V30 35859 H 3486.42 0.726967 3.15431 0
M  V30 35860 H 3485.33 2.90352 2.35895 0
M  V30 35861 H 3486.66 3.80769 3.11891 0
M  V30 35862 N 3488.32 -0.79567 1.3604 0
M  V30 35863 C 3489.23 -1.93945 1.31994 0
M  V30 35864 C 3490.24 -1.72564 0.223094 0
M  V30 35865 O 3491.42 -1.96207 0.454378 0
M  V30 35866 C 3488.48 -3.28709 1.10234 0
M  V30 35867 C 3487.54 -3.6291 2.29335 0
M  V30 35868 C 3486.78 -4.91244 2.08604 0
M  V30 35869 O 3487 -5.60502 1.05803 0
M  V30 35870 O 3485.93 -5.23957 2.96231 0
M  V30 35871 H 3489.76 -2.00307 2.28278 0
M  V30 35872 H 3487.34 -0.935028 1.16523 0
M  V30 35873 H 3489.23 -4.09365 0.999914 0
M  V30 35874 H 3487.9 -3.23253 0.170087 0
M  V30 35875 H 3486.81 -2.82586 2.45145 0
M  V30 35876 H 3488.14 -3.73083 3.21045 0
M  V30 35877 N 3489.79 -1.20217 -1.0191 0
M  V30 35878 C 3491.02 -1.03634 -1.79074 0
M  V30 35879 C 3491.44 0.41455 -1.84193 0
M  V30 35880 O 3490.79 1.28786 -1.29308 0
M  V30 35881 C 3490.85 -1.61013 -3.23662 0
M  V30 35882 O 3490.57 -3.00424 -3.18868 0
M  V30 35883 C 3492.07 -1.49349 -4.17384 0
M  V30 35884 H 3489.29 -0.364702 -0.563235 0
M  V30 35885 H 3491.83 -1.59249 -1.28297 0
M  V30 35886 H 3489.99 -1.09524 -3.71595 0
M  V30 35887 H 3490.4 -3.27605 -4.09604 0
M  V30 35888 H 3491.87 -1.94262 -5.16688 0
M  V30 35889 H 3492.35 -0.44557 -4.36934 0
M  V30 35890 H 3492.96 -2.00017 -3.75331 0
M  V30 35891 N 3491.27 1.21178 -1.00765 0
M  V30 35892 C 3492.55 1.85934 -0.607268 0
M  V30 35893 C 3492.93 1.90239 0.915015 0
M  V30 35894 O 3492.28 1.40364 1.80306 0
M  V30 35895 C 3492.49 3.26049 -1.24471 0
M  V30 35896 C 3493.84 4.02416 -1.3545 0
M  V30 35897 O 3494.86 3.3537 -1.20024 0
M  V30 35898 O 3493.72 5.22464 -1.60291 0
M  V30 35899 H 3490.81 0.800324 -0.208352 0
M  V30 35900 H 3493.36 1.2884 -1.10446 0
M  V30 35901 H 3492.13 3.17631 -2.2853 0
M  V30 35902 H 3491.75 3.90766 -0.734035 0
M  V30 35903 N 3492.75 0.782725 1.36789 0
M  V30 35904 C 3493.66 0.177511 2.33927 0
M  V30 35905 C 3494.68 -0.666774 1.60718 0
M  V30 35906 O 3495.85 -0.584128 1.92743 0
M  V30 35907 C 3492.92 -0.682881 3.39908 0
M  V30 35908 C 3491.98 0.179129 4.28926 0
M  V30 35909 C 3491.21 -0.640293 5.29845 0
M  V30 35910 O 3491.43 -1.87671 5.38642 0
M  V30 35911 O 3490.37 -0.0437106 6.01884 0
M  V30 35912 H 3494.19 0.980492 2.87437 0
M  V30 35913 H 3491.78 0.544065 1.39141 0
M  V30 35914 H 3493.66 -1.17372 4.04724 0
M  V30 35915 H 3492.34 -1.46386 2.88709 0
M  V30 35916 H 3491.24 0.716576 3.67173 0
M  V30 35917 H 3492.58 0.923462 4.83459 0
M  V30 35918 N 3494.23 -1.48271 0.534176 0
M  V30 35919 C 3495.18 -2.31362 -0.239631 0
M  V30 35920 C 3496.17 -1.41492 -0.931476 0
M  V30 35921 O 3497.38 -1.58377 -0.855383 0
M  V30 35922 H 3493.75 -0.745828 -0.0961469 0
M  V30 35923 H 3495.72 -2.94503 0.48069 0
M  V30 35924 C 3494.47 -3.23639 -1.27096 0
M  V30 35925 H 3493.79 -3.9274 -0.748013 0
M  V30 35926 H 3495.23 -3.84655 -1.78373 0
M  V30 35927 C 3493.69 -2.45538 -2.30679 0
M  V30 35928 O 3494.22 -2.1832 -3.37193 0
M  V30 35929 N 3492.43 -2.06958 -2.04002 0
M  V30 35930 H 3491.98 -2.29293 -1.17399 0
M  V30 35931 H 3491.93 -1.55014 -2.73529 0
M  V30 35932 N 3495.71 -0.269505 -1.55279 0
M  V30 35933 C 3496.62 0.630611 -2.25966 0
M  V30 35934 C 3497.63 1.17474 -1.28359 0
M  V30 35935 O 3498.81 1.20622 -1.61283 0
M  V30 35936 C 3495.87 1.80076 -2.96266 0
M  V30 35937 C 3494.93 1.29386 -4.09338 0
M  V30 35938 C 3494.17 2.40824 -4.76276 0
M  V30 35939 O 3494.39 3.60059 -4.42396 0
M  V30 35940 O 3493.32 2.09299 -5.64338 0
M  V30 35941 H 3497.15 0.0581535 -3.03644 0
M  V30 35942 H 3494.74 -0.0371228 -1.49354 0
M  V30 35943 H 3496.62 2.48317 -3.40466 0
M  V30 35944 H 3495.29 2.36041 -2.21509 0
M  V30 35945 H 3494.2 0.578089 -3.69606 0
M  V30 35946 H 3495.53 0.780031 -4.8598 0
M  V30 35947 N 3497.18 1.576 0.00329885 0
M  V30 35948 C 3498.41 1.94702 0.69991 0
M  V30 35949 C 3498.83 0.871342 1.67491 0
M  V30 35950 O 3498.18 -0.150022 1.81882 0
M  V30 35951 C 3498.24 3.31813 1.43465 0
M  V30 35952 O 3497.96 4.35252 0.498759 0
M  V30 35953 C 3499.46 3.83355 2.22607 0
M  V30 35954 H 3496.68 0.641996 0.195146 0
M  V30 35955 H 3499.22 2.04446 -0.0468403 0
M  V30 35956 H 3497.38 3.23387 2.13306 0
M  V30 35957 H 3497.79 5.1455 1.01678 0
M  V30 35958 H 3499.26 4.8173 2.69519 0
M  V30 35959 H 3499.74 3.15889 3.05141 0
M  V30 35960 H 3500.35 3.94946 1.57789 0
M  V30 35961 N 3498.66 -0.276003 1.55164 0
M  V30 35962 C 3499.57 -1.36318 1.90931 0
M  V30 35963 C 3500.59 -1.54196 0.80621 0
M  V30 35964 O 3501.76 -1.6838 1.105 0
M  V30 35965 C 3498.83 -2.70289 2.17128 0
M  V30 35966 C 3497.89 -2.61184 3.40707 0
M  V30 35967 C 3497.12 -3.88766 3.65645 0
M  V30 35968 O 3497.35 -4.89308 2.93145 0
M  V30 35969 O 3496.28 -3.89151 4.59179 0
M  V30 35970 H 3500.11 -1.08983 2.83472 0
M  V30 35971 H 3497.69 -0.474267 1.41672 0
M  V30 35972 H 3499.57 -3.4951 2.35416 0
M  V30 35973 H 3498.25 -2.97416 1.2777 0
M  V30 35974 H 3497.16 -1.80349 3.27757 0
M  V30 35975 H 3498.49 -2.39007 4.30275 0
M  V30 35976 N 3500.14 -1.48046 -0.540378 0
M  V30 35977 C 3501.39 -1.56744 -1.29625 0
M  V30 35978 C 3501.74 -0.233794 -1.90974 0
M  V30 35979 O 3501.03 0.762302 -1.75783 0
M  V30 35980 C 3501.23 -2.63451 -2.41513 0
M  V30 35981 C 3501.06 -4.07062 -1.9113 0
M  V30 35982 C 3499.83 -4.74321 -1.74206 0
M  V30 35983 C 3502.03 -4.93557 -1.4459 0
M  V30 35984 N 3500.01 -6.02386 -1.18339 0
M  V30 35985 C 3501.38 -6.11784 -1.00601 0
M  V30 35986 C 3503.43 -4.79864 -1.32796 0
M  V30 35987 C 3502.14 -7.17828 -0.459898 0
M  V30 35988 C 3504.16 -5.86021 -0.795853 0
M  V30 35989 C 3503.52 -7.03449 -0.365986 0
M  V30 35990 H 3499.62 -0.628181 -0.465739 0
M  V30 35991 H 3502.21 -1.84878 -0.610577 0
M  V30 35992 H 3500.38 -2.37156 -3.0759 0
M  V30 35993 H 3502.11 -2.61894 -3.08535 0
M  V30 35994 H 3498.87 -4.3049 -1.97422 0
M  V30 35995 H 3499.29 -6.70658 -0.924461 0
M  V30 35996 H 3503.93 -3.89428 -1.64638 0
M  V30 35997 H 3501.65 -8.07997 -0.129133 0
M  V30 35998 H 3505.24 -5.77477 -0.707924 0
M  V30 35999 H 3504.12 -7.8419 0.0393625 0
M  V30 36000 N 3501.62 0.788444 -1.3646 0
M  V30 36001 C 3502.55 1.91539 -1.33549 0
M  V30 36002 C 3503.53 1.68838 -0.206792 0
M  V30 36003 O 3504.71 1.89939 -0.404586 0
M  V30 36004 C 3501.84 3.28575 -1.12498 0
M  V30 36005 C 3500.8 3.65801 -2.22202 0
M  V30 36006 C 3500.12 5.01197 -1.86294 0
M  V30 36007 C 3501.42 3.74283 -3.64293 0
M  V30 36008 H 3503.12 1.94232 -2.27847 0
M  V30 36009 H 3500.66 0.933086 -1.09679 0
M  V30 36010 H 3502.62 4.07033 -1.09096 0
M  V30 36011 H 3501.34 3.26271 -0.146503 0
M  V30 36012 H 3500 2.8964 -2.24732 0
M  V30 36013 H 3499.65 4.95416 -0.870177 0
M  V30 36014 H 3499.35 5.27074 -2.59743 0
M  V30 36015 H 3500.87 5.82075 -1.84449 0
M  V30 36016 H 3502.29 4.42931 -3.63985 0
M  V30 36017 H 3500.68 4.11645 -4.36655 0
M  V30 36018 H 3501.75 2.75364 -3.99128 0
M  V30 36019 N 3503.1 1.20755 1.01271 0
M  V30 36020 C 3504.03 0.903194 2.09565 0
M  V30 36021 C 3505.01 -0.146258 1.61941 0
M  V30 36022 O 3506.19 -0.0189845 1.8849 0
M  V30 36023 C 3503.32 0.354741 3.36837 0
M  V30 36024 C 3502.36 1.38579 4.03359 0
M  V30 36025 S 3503.2 2.95224 4.46769 0
M  V30 36026 C 3504.35 2.41965 5.77238 0
M  V30 36027 H 3504.59 1.82028 2.3506 0
M  V30 36028 H 3502.12 1.03645 1.14442 0
M  V30 36029 H 3504.08 0.0448604 4.10475 0
M  V30 36030 H 3502.74 -0.540908 3.09407 0
M  V30 36031 H 3501.93 0.951495 4.94937 0
M  V30 36032 H 3501.53 1.64335 3.35961 0
M  V30 36033 H 3503.83 1.81969 6.52605 0
M  V30 36034 H 3504.77 3.31955 6.25469 0
M  V30 36035 H 3505.18 1.83952 5.33687 0
M  V30 36036 N 3504.58 -1.20642 1.01406 0
M  V30 36037 C 3505.49 -2.27015 0.591733 0
M  V30 36038 C 3506.5 -1.7003 -0.36955 0
M  V30 36039 O 3507.68 -2.00069 -0.23113 0
M  V30 36040 C 3504.74 -3.46637 -0.0659218 0
M  V30 36041 C 3503.8 -4.1886 0.940985 0
M  V30 36042 C 3503.04 -5.32772 0.314619 0
M  V30 36043 O 3503.26 -5.63472 -0.886305 0
M  V30 36044 O 3502.19 -5.9302 1.03008 0
M  V30 36045 H 3506.02 -2.65351 1.47725 0
M  V30 36046 H 3503.6 -1.27212 0.783421 0
M  V30 36047 H 3505.49 -4.19166 -0.433339 0
M  V30 36048 H 3504.16 -3.10182 -0.925675 0
M  V30 36049 H 3503.07 -3.48514 1.35972 0
M  V30 36050 H 3504.4 -4.59249 1.77062 0
M  V30 36051 N 3506.05 -0.789968 -1.36372 0
M  V30 36052 C 3506.96 -0.189914 -2.3383 0
M  V30 36053 C 3507.98 0.658242 -1.61069 0
M  V30 36054 O 3509.16 0.573898 -1.9305 0
M  V30 36055 C 3506.22 0.664845 -3.40266 0
M  V30 36056 C 3505.28 -0.201873 -4.28825 0
M  V30 36057 C 3504.51 0.612185 -5.30177 0
M  V30 36058 O 3504.74 1.84812 -5.3963 0
M  V30 36059 O 3503.67 0.0117906 -6.01899 0
M  V30 36060 H 3507.5 -0.995721 -2.86913 0
M  V30 36061 H 3505.08 -0.551436 -1.38851 0
M  V30 36062 H 3506.96 1.15224 -4.05341 0
M  V30 36063 H 3505.64 1.44853 -2.89481 0
M  V30 36064 H 3504.55 -0.736038 -3.66788 0
M  V30 36065 H 3505.88 -0.949088 -4.82963 0
M  V30 36066 N 3507.53 1.47986 -0.542031 0
M  V30 36067 C 3508.78 2.01697 -0.0102815 0
M  V30 36068 C 3509.09 1.42329 1.34171 0
M  V30 36069 O 3510.3 1.87611 1.96251 0
M  V30 36070 C 3508.76 3.59886 0.0320399 0
M  V30 36071 C 3508.36 4.28242 -1.31579 0
M  V30 36072 C 3510.11 4.21401 0.511982 0
M  V30 36073 C 3508.01 5.78395 -1.2334 0
M  V30 36074 H 3506.94 0.754 -7.34631e-05 0
M  V30 36075 H 3509.6 1.7013 -0.687616 0
M  V30 36076 H 3507.98 3.88348 0.774705 0
M  V30 36077 H 3509.15 4.11439 -2.07497 0
M  V30 36078 H 3507.47 3.7865 -1.73243 0
M  V30 36079 H 3510.06 5.31415 0.591781 0
M  V30 36080 H 3510.41 3.87537 1.52054 0
M  V30 36081 H 3510.94 3.97413 -0.175363 0
M  V30 36082 H 3507.68 6.16853 -2.21748 0
M  V30 36083 H 3507.2 5.97578 -0.515775 0
M  V30 36084 H 3508.88 6.40294 -0.929087 0
M  V30 36085 N 3509.01 0.277736 1.55133 0
M  V30 36086 C 3509.94 -0.641875 2.20029 0
M  V30 36087 C 3510.95 -1.11547 1.1858 0
M  V30 36088 O 3512.14 -1.03692 1.45293 0
M  V30 36089 C 3509.24 -1.88789 2.81446 0
M  V30 36090 C 3508.42 -1.56067 4.0861 0
M  V30 36091 C 3507.48 -2.65942 4.5405 0
M  V30 36092 O 3506.5 -2.32017 5.19766 0
M  V30 36093 N 3507.7 -3.96051 4.2441 0
M  V30 36094 H 3510.47 -0.0864402 2.99575 0
M  V30 36095 H 3508.03 0.0989462 1.61597 0
M  V30 36096 H 3510.02 -2.61595 3.08788 0
M  V30 36097 H 3508.59 -2.35231 2.05877 0
M  V30 36098 H 3507.81 -0.666319 3.88528 0
M  V30 36099 H 3509.1 -1.3171 4.91457 0
M  V30 36100 H 3508.5 -4.26432 3.71715 0
M  V30 36101 H 3507.05 -4.65226 4.56517 0
M  V30 36102 N 3510.49 -1.57599 0.00505908 0
M  V30 36103 C 3511.42 -2.11775 -0.983548 0
M  V30 36104 C 3512.4 -1.02808 -1.35516 0
M  V30 36105 O 3513.58 -1.30517 -1.43802 0
M  V30 36106 C 3510.71 -2.62519 -2.27378 0
M  V30 36107 C 3509.67 -3.76058 -2.04364 0
M  V30 36108 C 3508.99 -4.13136 -3.39444 0
M  V30 36109 C 3510.29 -5.03127 -1.40215 0
M  V30 36110 H 3511.99 -2.94627 -0.53245 0
M  V30 36111 H 3509.53 -1.4173 -0.254671 0
M  V30 36112 H 3511.49 -2.99048 -2.96898 0
M  V30 36113 H 3510.21 -1.76795 -2.74611 0
M  V30 36114 H 3508.87 -3.39931 -1.37269 0
M  V30 36115 H 3508.52 -3.24429 -3.84389 0
M  V30 36116 H 3508.22 -4.89633 -3.24859 0
M  V30 36117 H 3509.74 -4.52228 -4.10271 0
M  V30 36118 H 3511.16 -5.37395 -1.99698 0
M  V30 36119 H 3509.55 -5.84462 -1.36102 0
M  V30 36120 H 3510.62 -4.83471 -0.371988 0
M  V30 36121 N 3511.97 0.267771 -1.55309 0
M  V30 36122 C 3513.38 0.838429 -1.66815 0
M  V30 36123 C 3513.73 1.86844 -0.598642 0
M  V30 36124 O 3512.85 2.14845 0.258922 0
M  V30 36125 C 3513.45 1.52753 -3.0241 0
M  V30 36126 C 3512.01 2.04615 -3.15927 0
M  V30 36127 C 3511.15 0.889998 -2.6263 0
M  V30 36128 H 3514.1 0.0440076 -1.58639 0
M  V30 36129 H 3514.13 2.39473 -2.95691 0
M  V30 36130 H 3513.64 0.777628 -3.8023 0
M  V30 36131 H 3511.74 2.8255 -2.42891 0
M  V30 36132 H 3511.85 2.25787 -4.2256 0
M  V30 36133 H 3510.22 1.28481 -2.1992 0
M  V30 36134 H 3511 0.153519 -3.42957 0
M  V30 36135 N 3513.44 1.48331 0.532519 0
M  V30 36136 C 3514.85 1.49787 1.11448 0
M  V30 36137 C 3515.21 0.266242 1.94385 0
M  V30 36138 O 3514.33 -0.626844 2.07122 0
M  V30 36139 C 3514.93 2.7141 2.02785 0
M  V30 36140 C 3513.48 2.75747 2.56204 0
M  V30 36141 C 3512.63 2.43264 1.33109 0
M  V30 36142 H 3515.58 1.55483 0.317897 0
M  V30 36143 H 3515.6 2.49784 2.87034 0
M  V30 36144 H 3515.12 3.61034 1.42395 0
M  V30 36145 H 3513.22 1.90325 3.20323 0
M  V30 36146 H 3513.33 3.77107 2.95511 0
M  V30 36147 H 3511.69 1.94365 1.64603 0
M  V30 36148 H 3512.48 3.35124 0.74475 0
M  V30 36149 N 3514.92 -0.781196 1.36876 0
M  V30 36150 C 3516.33 -1.3569 1.28239 0
M  V30 36151 C 3516.68 -1.9606 -0.0741942 0
M  V30 36152 O 3515.81 -1.93148 -0.975847 0
M  V30 36153 C 3516.4 -2.46698 2.32219 0
M  V30 36154 C 3514.96 -3.00061 2.27245 0
M  V30 36155 C 3514.11 -1.73202 2.16556 0
M  V30 36156 H 3517.06 -0.582191 1.47635 0
M  V30 36157 H 3517.08 -3.25932 1.96338 0
M  V30 36158 H 3516.59 -2.02729 3.30942 0
M  V30 36159 H 3514.69 -3.48429 1.32016 0
M  V30 36160 H 3514.81 -3.56317 3.20273 0
M  V30 36161 H 3513.17 -1.95758 1.62945 0
M  V30 36162 H 3513.95 -1.3135 3.17178 0
M  V30 36163 N 3516.4 -1.21291 -1.0063 0
M  V30 36164 C 3517.82 -0.969979 -1.26742 0
M  V30 36165 C 3518.02 0.344414 -1.98535 0
M  V30 36166 O 3517.07 1.0704 -2.28689 0
M  V30 36167 C 3518.38 -2.15967 -2.09234 0
M  V30 36168 C 3519.93 -2.20178 -2.22465 0
M  V30 36169 C 3520.41 -3.38662 -3.08338 0
M  V30 36170 N 3521.9 -3.3874 -3.15926 0
M  V30 36171 C 3522.63 -4.27067 -3.82624 0
M  V30 36172 N 3522.13 -5.2559 -4.51362 0
M  V30 36173 N 3523.92 -4.14879 -3.79252 0
M  V30 36174 H 3516.07 -2.0582 -0.52459 0
M  V30 36175 H 3518.34 -0.901189 -0.294215 0
M  V30 36176 H 3518.04 -3.11212 -1.6383 0
M  V30 36177 H 3517.92 -2.14919 -3.09983 0
M  V30 36178 H 3520.3 -1.2549 -2.67089 0
M  V30 36179 H 3520.38 -2.2527 -1.2119 0
M  V30 36180 H 3520.03 -4.33642 -2.64418 0
M  V30 36181 H 3519.96 -3.30808 -4.09724 0
M  V30 36182 H 3522.45 -2.67438 -2.66993 0
M  V30 36183 H 3522.76 -5.89292 -4.99955 0
M  V30 36184 H 3521.11 -5.29516 -4.50153 0
M  V30 36185 H 3524.3 -3.37171 -3.24705 0
M  V30 36186 H 3524.47 -4.83924 -4.30954 0
M  V30 36187 N 3517.88 1.20103 -1.02045 0
M  V30 36188 C 3518.81 2.2245 -0.552132 0
M  V30 36189 C 3519.82 1.58597 0.36752 0
M  V30 36190 O 3521.01 1.77733 0.165254 0
M  V30 36191 C 3518.11 3.38212 0.215774 0
M  V30 36192 C 3517.28 4.31653 -0.706736 0
M  V30 36193 C 3516.34 5.26198 0.0142703 0
M  V30 36194 O 3515.37 5.65927 -0.609513 0
M  V30 36195 N 3516.57 5.66034 1.28784 0
M  V30 36196 H 3519.34 2.63257 -1.43233 0
M  V30 36197 H 3516.9 1.34683 -0.898444 0
M  V30 36198 H 3518.89 3.98469 0.707453 0
M  V30 36199 H 3517.46 2.96264 0.997306 0
M  V30 36200 H 3516.68 3.69306 -1.37865 0
M  V30 36201 H 3517.97 4.91001 -1.33401 0
M  V30 36202 H 3517.37 5.35776 1.8155 0
M  V30 36203 H 3515.92 6.28582 1.72418 0
M  V30 36204 N 3519.36 0.797189 1.35951 0
M  V30 36205 C 3520.6 0.37244 1.98639 0
M  V30 36206 C 3520.93 -1.06155 1.63573 0
M  V30 36207 O 3520.2 -1.73295 0.913546 0
M  V30 36208 H 3518.78 0.134723 0.734751 0
M  V30 36209 H 3521.44 1.02095 1.6602 0
M  V30 36210 H 3520.53 0.470545 3.08532 0
M  V30 36211 N 3520.83 -1.47696 0.549872 0
M  V30 36212 C 3521.78 -2.29915 -0.201921 0
M  V30 36213 C 3522.75 -1.38608 -0.915263 0
M  V30 36214 O 3523.94 -1.67571 -0.912398 0
M  V30 36215 C 3521.08 -3.22415 -1.23054 0
M  V30 36216 C 3520.19 -4.2881 -0.524015 0
M  V30 36217 C 3519.32 -5.08469 -1.53729 0
M  V30 36218 C 3518.36 -6.06646 -0.815331 0
M  V30 36219 N 3517.5 -6.7929 -1.77509 0
M  V30 36220 H 3522.34 -2.93684 0.50534 0
M  V30 36221 H 3519.88 -1.44765 0.261038 0
M  V30 36222 H 3521.84 -3.74461 -1.83943 0
M  V30 36223 H 3520.47 -2.60527 -1.90593 0
M  V30 36224 H 3519.52 -3.79878 0.199241 0
M  V30 36225 H 3520.83 -4.98782 0.0419022 0
M  V30 36226 H 3519.98 -5.64628 -2.21991 0
M  V30 36227 H 3518.72 -4.38382 -2.13712 0
M  V30 36228 H 3517.73 -5.49672 -0.118744 0
M  V30 36229 H 3518.95 -6.78739 -0.221343 0
M  V30 36230 H 3516.9 -6.11938 -2.36363 0
M  V30 36231 H 3516.82 -7.45407 -1.26113 0
M  V30 36232 H 3518.08 -7.40027 -2.44908 0
M  V30 36233 N 3522.31 -0.285959 -1.54984 0
M  V30 36234 C 3523.22 0.606608 -2.26622 0
M  V30 36235 C 3524.24 1.16106 -1.29597 0
M  V30 36236 O 3525.41 1.18905 -1.62553 0
M  V30 36237 C 3522.48 1.76924 -2.98159 0
M  V30 36238 C 3521.54 1.25038 -4.10687 0
M  V30 36239 C 3520.77 2.35759 -4.78804 0
M  V30 36240 O 3521 3.55346 -4.4619 0
M  V30 36241 O 3519.93 2.03302 -5.66526 0
M  V30 36242 H 3523.76 0.0259447 -3.03689 0
M  V30 36243 H 3521.34 -0.0529617 -1.49306 0
M  V30 36244 H 3523.22 2.44691 -3.4308 0
M  V30 36245 H 3521.9 2.33679 -2.24 0
M  V30 36246 H 3520.81 0.538854 -3.70199 0
M  V30 36247 H 3522.14 0.728443 -4.8678 0
M  V30 36248 N 3523.79 1.57594 -0.0134169 0
M  V30 36249 C 3525.04 1.90766 0.667279 0
M  V30 36250 C 3525.36 0.888877 1.73563 0
M  V30 36251 O 3524.63 -0.0718602 1.95768 0
M  V30 36252 H 3523.21 0.704116 0.249458 0
M  V30 36253 H 3525.87 1.94815 -0.0575132 0
M  V30 36254 H 3524.97 2.90924 1.13002 0
M  V30 36255 N 3525.27 -0.259531 1.55448 0
M  V30 36256 C 3526.2 -1.3437 1.85681 0
M  V30 36257 C 3527.21 -1.44898 0.74218 0
M  V30 36258 O 3528.4 -1.46474 1.02018 0
M  V30 36259 C 3525.5 -2.72362 2.01673 0
M  V30 36260 C 3524.68 -2.84259 3.32439 0
M  V30 36261 C 3523.73 -4.03013 3.38329 0
M  V30 36262 O 3522.76 -3.93136 4.11622 0
M  V30 36263 N 3523.96 -5.15605 2.66706 0
M  V30 36264 H 3526.73 -1.08776 2.79263 0
M  V30 36265 H 3524.29 -0.449645 1.55531 0
M  V30 36266 H 3526.28 -3.50122 2.02969 0
M  V30 36267 H 3524.85 -2.9072 1.14894 0
M  V30 36268 H 3524.07 -1.93275 3.43567 0
M  V30 36269 H 3525.36 -2.89148 4.18654 0
M  V30 36270 H 3524.76 -5.26519 2.06867 0
M  V30 36271 H 3523.31 -5.91546 2.73709 0
M  V30 36272 N 3526.75 -1.48611 -0.524645 0
M  V30 36273 C 3527.66 -1.66223 -1.65551 0
M  V30 36274 C 3528.67 -0.544739 -1.65253 0
M  V30 36275 O 3529.85 -0.816487 -1.84107 0
M  V30 36276 C 3526.91 -1.70286 -3.02 0
M  V30 36277 C 3525.97 -2.93701 -3.13111 0
M  V30 36278 C 3525.21 -2.9756 -4.4305 0
M  V30 36279 O 3525.43 -2.09677 -5.30464 0
M  V30 36280 O 3524.36 -3.89787 -4.58639 0
M  V30 36281 H 3528.19 -2.61977 -1.53628 0
M  V30 36282 H 3525.78 -1.32075 -0.698331 0
M  V30 36283 H 3527.66 -1.75448 -3.8314 0
M  V30 36284 H 3526.33 -0.777057 -3.14235 0
M  V30 36285 H 3525.24 -2.94068 -2.31246 0
M  V30 36286 H 3526.57 -3.85683 -3.05794 0
M  V30 36287 N 3528.22 0.773926 -1.37289 0
M  V30 36288 C 3529.17 1.90853 -1.32959 0
M  V30 36289 C 3530.17 1.67982 -0.218725 0
M  V30 36290 O 3531.37 1.75799 -0.386625 0
M  V30 36291 H 3527.75 0.627583 -0.4143 0
M  V30 36292 H 3529.72 1.91622 -2.28744 0
M  V30 36293 C 3528.47 3.28087 -1.15127 0
M  V30 36294 H 3527.79 3.46261 -1.99858 0
M  V30 36295 H 3529.23 4.07782 -1.16147 0
M  V30 36296 C 3527.69 3.36595 0.143211 0
M  V30 36297 O 3528.22 3.8555 1.12756 0
M  V30 36298 N 3526.43 2.89957 0.193168 0
M  V30 36299 H 3525.97 2.5031 -0.608515 0
M  V30 36300 H 3525.93 2.96031 1.05891 0
M  V30 36301 N 3529.7 1.21823 0.99985 0
M  V30 36302 C 3530.95 1.03653 1.73495 0
M  V30 36303 C 3531.27 -0.430237 1.90195 0
M  V30 36304 O 3530.54 -1.30999 1.45657 0
M  V30 36305 H 3529.12 0.380552 0.642798 0
M  V30 36306 H 3531.78 1.53218 1.20458 0
M  V30 36307 H 3530.88 1.50869 2.73212 0
M  V30 36308 N 3531.18 -1.1956 1.0268 0
M  V30 36309 C 3532.13 -2.20593 0.576424 0
M  V30 36310 C 3533.11 -1.565 -0.373719 0
M  V30 36311 O 3534.31 -1.75922 -0.195027 0
M  V30 36312 C 3531.44 -3.43221 -0.0734904 0
M  V30 36313 C 3530.52 -4.14463 0.898969 0
M  V30 36314 N 3530.91 -4.61925 2.06056 0
M  V30 36315 C 3529.21 -4.40118 0.721966 0
M  V30 36316 C 3529.91 -5.1661 2.67373 0
M  V30 36317 N 3528.89 -5.07285 1.95353 0
M  V30 36318 H 3532.69 -2.54966 1.46184 0
M  V30 36319 H 3530.2 -1.3561 0.893508 0
M  V30 36320 H 3532.2 -4.14842 -0.413753 0
M  V30 36321 H 3530.86 -3.1035 -0.954617 0
M  V30 36322 H 3531.87 -4.56816 2.44007 0
M  V30 36323 H 3528.55 -4.17354 -0.110243 0
M  V30 36324 H 3529.94 -5.63637 3.65736 0
M  V30 36325 N 3532.66 -0.804387 -1.35526 0
M  V30 36326 C 3533.91 -0.38023 -1.98084 0
M  V30 36327 C 3534.22 1.05775 -1.64533 0
M  V30 36328 O 3535.43 1.58491 -2.20438 0
M  V30 36329 C 3533.88 -0.62891 -3.54362 0
M  V30 36330 C 3533.49 -2.07928 -3.96825 0
M  V30 36331 C 3535.23 -0.270002 -4.2364 0
M  V30 36332 C 3533.14 -2.27383 -5.4594 0
M  V30 36333 H 3532.07 -0.138435 -0.741183 0
M  V30 36334 H 3534.72 -0.988135 -1.54623 0
M  V30 36335 H 3533.1 0.0489141 -3.9597 0
M  V30 36336 H 3534.28 -2.79474 -3.66375 0
M  V30 36337 H 3532.59 -2.39785 -3.40429 0
M  V30 36338 H 3535.19 -0.393438 -5.33251 0
M  V30 36339 H 3535.53 0.783572 -4.08859 0
M  V30 36340 H 3536.07 -0.901656 -3.87447 0
M  V30 36341 H 3532.81 -3.31178 -5.65687 0
M  V30 36342 H 3532.33 -1.6036 -5.77966 0
M  V30 36343 H 3534 -2.08828 -6.12372 0
M  V30 36344 N 3534.14 1.47403 -0.557697 0
M  V30 36345 C 3535.37 2.06864 -0.0386963 0
M  V30 36346 C 3535.78 1.41029 1.25524 0
M  V30 36347 O 3535.14 0.50698 1.75317 0
M  V30 36348 C 3535.19 3.61145 0.160078 0
M  V30 36349 O 3534.91 4.24513 -1.08262 0
M  V30 36350 C 3536.41 4.37475 0.716304 0
M  V30 36351 H 3533.63 0.669417 -0.0460641 0
M  V30 36352 H 3536.17 1.89399 -0.771247 0
M  V30 36353 H 3534.33 3.78122 0.84276 0
M  V30 36354 H 3534.74 5.17054 -0.880661 0
M  V30 36355 H 3536.22 5.46103 0.804677 0
M  V30 36356 H 3536.69 4.03791 1.72769 0
M  V30 36357 H 3537.3 4.25244 0.069304 0
M  V30 36358 N 3535.62 0.294175 1.5483 0
M  V30 36359 C 3536.84 -0.319902 2.04412 0
M  V30 36360 C 3537.26 -1.48037 1.17177 0
M  V30 36361 O 3536.62 -1.81445 0.195913 0
M  V30 36362 C 3536.67 -0.782689 3.52925 0
M  V30 36363 O 3536.39 0.331588 4.36843 0
M  V30 36364 C 3537.89 -1.46262 4.18476 0
M  V30 36365 H 3535.11 -0.0704856 0.667288 0
M  V30 36366 H 3537.65 0.43182 1.99889 0
M  V30 36367 H 3535.81 -1.48445 3.57831 0
M  V30 36368 H 3536.22 -0.0274821 5.24493 0
M  V30 36369 H 3537.7 -1.73766 5.23936 0
M  V30 36370 H 3538.17 -2.40045 3.67798 0
M  V30 36371 H 3538.78 -0.804218 4.17627 0
M  V30 36372 N 3537.09 -1.57585 0.0217743 0
M  V30 36373 C 3538.04 -2.09772 -0.962523 0
M  V30 36374 C 3539.01 -0.998077 -1.32769 0
M  V30 36375 O 3540.2 -1.27184 -1.42229 0
M  V30 36376 C 3537.34 -2.62343 -2.2421 0
M  V30 36377 C 3536.45 -3.86289 -1.93403 0
M  V30 36378 C 3535.58 -4.27281 -3.15602 0
M  V30 36379 C 3534.62 -5.44004 -2.80581 0
M  V30 36380 N 3533.76 -5.80187 -3.95382 0
M  V30 36381 H 3538.6 -2.93593 -0.510575 0
M  V30 36382 H 3536.14 -1.45122 -0.24043 0
M  V30 36383 H 3538.09 -2.9091 -2.99043 0
M  V30 36384 H 3536.72 -1.81363 -2.67034 0
M  V30 36385 H 3535.78 -3.64496 -1.08843 0
M  V30 36386 H 3537.09 -4.71206 -1.63605 0
M  V30 36387 H 3536.24 -4.57246 -3.98762 0
M  V30 36388 H 3534.98 -3.41117 -3.48555 0
M  V30 36389 H 3533.99 -5.13741 -1.95831 0
M  V30 36390 H 3535.21 -6.31862 -2.48852 0
M  V30 36391 H 3533.16 -4.96979 -4.28191 0
M  V30 36392 H 3533.07 -6.59727 -3.69183 0
M  V30 36393 H 3534.34 -6.14754 -4.79268 0
M  V30 36394 N 3538.57 0.251283 -1.55584 0
M  V30 36395 C 3539.8 1.00183 -1.81599 0
M  V30 36396 C 3540.22 1.78333 -0.598247 0
M  V30 36397 O 3539.58 1.75559 0.452636 0
M  V30 36398 C 3539.63 1.9189 -3.05304 0
M  V30 36399 O 3538.73 3.00997 -2.81912 0
M  V30 36400 H 3538.07 0.285301 -0.599583 0
M  V30 36401 H 3540.6 0.273602 -2.02762 0
M  V30 36402 H 3540.61 2.33438 -3.3462 0
M  V30 36403 H 3539.29 1.34426 -3.93577 0
M  V30 36404 H 3537.86 2.63609 -2.63752 0
M  V30 36405 N 3540.05 1.48887 0.516757 0
M  V30 36406 C 3541.3 1.5781 1.27373 0
M  V30 36407 C 3541.63 0.256997 1.92492 0
M  V30 36408 O 3540.9 -0.738161 1.79948 0
M  V30 36409 C 3541.19 2.72599 2.3529 0
M  V30 36410 C 3541.04 4.14456 1.74775 0
M  V30 36411 C 3542.36 2.83091 3.36968 0
M  V30 36412 H 3539.48 0.574426 0.46174 0
M  V30 36413 H 3542.12 1.81112 0.574309 0
M  V30 36414 H 3540.27 2.52862 2.94946 0
M  V30 36415 H 3541.94 4.45668 1.19069 0
M  V30 36416 H 3540.18 4.20838 1.05251 0
M  V30 36417 H 3540.86 4.90619 2.52976 0
M  V30 36418 H 3543.33 3.0101 2.87284 0
M  V30 36419 H 3542.21 3.65114 4.09858 0
M  V30 36420 H 3542.47 1.91791 3.98332 0
M  V30 36421 N 3541.53 -0.766635 1.37697 0
M  V30 36422 C 3542.47 -1.88006 1.33874 0
M  V30 36423 C 3543.44 -1.6485 0.203429 0
M  V30 36424 O 3544.63 -1.86696 0.393601 0
M  V30 36425 C 3541.77 -3.25139 1.15666 0
M  V30 36426 C 3540.88 -3.60216 2.38472 0
M  V30 36427 C 3540.02 -4.86584 2.13096 0
M  V30 36428 C 3539.06 -5.14407 3.31741 0
M  V30 36429 N 3538.19 -6.31965 3.05884 0
M  V30 36430 H 3543.03 -1.90609 2.29068 0
M  V30 36431 H 3540.57 -0.931817 1.13823 0
M  V30 36432 H 3542.53 -4.04253 1.03129 0
M  V30 36433 H 3541.16 -3.21898 0.241171 0
M  V30 36434 H 3540.21 -2.76047 2.6173 0
M  V30 36435 H 3541.52 -3.76712 3.2694 0
M  V30 36436 H 3540.68 -5.73613 1.97619 0
M  V30 36437 H 3539.42 -4.72201 1.21973 0
M  V30 36438 H 3538.42 -4.25851 3.47751 0
M  V30 36439 H 3539.65 -5.30695 4.23722 0
M  V30 36440 H 3537.59 -6.18931 2.17395 0
M  V30 36441 H 3537.51 -6.48901 3.87897 0
M  V30 36442 H 3538.78 -7.21917 2.94035 0
M  V30 36443 N 3543.01 -1.22351 -0.993375 0
M  V30 36444 C 3543.97 -0.994543 -2.06498 0
M  V30 36445 C 3544.97 0.0388483 -1.60753 0
M  V30 36446 O 3546.16 -0.199609 -1.73053 0
M  V30 36447 C 3543.29 -0.502147 -3.37181 0
M  V30 36448 H 3544.48 -1.94537 -2.28244 0
M  V30 36449 H 3542.04 -1.04213 -1.16488 0
M  V30 36450 H 3542.77 0.453058 -3.2112 0
M  V30 36451 H 3542.56 -1.24769 -3.71719 0
M  V30 36452 H 3544.05 -0.362181 -4.16026 0
M  V30 36453 N 3544.48 1.19014 -1.03313 0
M  V30 36454 C 3545.41 2.24606 -0.638319 0
M  V30 36455 C 3546.39 1.66359 0.354766 0
M  V30 36456 O 3547.58 1.92754 0.23654 0
M  V30 36457 C 3544.71 3.47299 0.00731211 0
M  V30 36458 C 3543.66 4.18247 -0.908504 0
M  V30 36459 C 3542.99 5.34547 -0.127752 0
M  V30 36460 C 3544.29 4.72575 -2.22418 0
M  V30 36461 H 3545.98 2.57885 -1.52104 0
M  V30 36462 H 3543.53 1.2396 -0.732801 0
M  V30 36463 H 3545.48 4.20365 0.295182 0
M  V30 36464 H 3544.21 3.13231 0.924857 0
M  V30 36465 H 3542.87 3.47068 -1.18064 0
M  V30 36466 H 3542.51 4.96726 0.791961 0
M  V30 36467 H 3542.21 5.8295 -0.737804 0
M  V30 36468 H 3543.74 6.10408 0.153278 0
M  V30 36469 H 3545.15 5.37374 -1.99754 0
M  V30 36470 H 3543.55 5.31481 -2.78653 0
M  V30 36471 H 3544.62 3.9041 -2.87591 0
M  V30 36472 N 3545.96 0.811563 1.35098 0
M  V30 36473 C 3547.19 0.405841 2.0339 0
M  V30 36474 C 3547.61 -0.976831 1.60747 0
M  V30 36475 O 3546.97 -1.6335 0.786547 0
M  V30 36476 C 3547.02 0.503017 3.57074 0
M  V30 36477 O 3546.12 -0.481609 4.09578 0
M  V30 36478 H 3545.46 0.168744 0.6422 0
M  V30 36479 H 3547.99 1.09883 1.72589 0
M  V30 36480 H 3548 0.374631 4.06276 0
M  V30 36481 H 3546.68 1.51152 3.87461 0
M  V30 36482 H 3545.25 -0.31305 3.71584 0
M  V30 36483 N 3547.44 -1.47105 0.565506 0
M  V30 36484 C 3548.66 -2.07345 0.0477128 0
M  V30 36485 C 3549.09 -1.41416 -1.24029 0
M  V30 36486 O 3548.45 -0.491972 -1.74497 0
M  V30 36487 C 3548.5 -3.60392 -0.122554 0
M  V30 36488 O 3547.6 -3.95063 -1.18319 0
M  V30 36489 H 3546.94 -0.661714 0.0550535 0
M  V30 36490 H 3549.47 -1.89002 0.783553 0
M  V30 36491 H 3549.48 -4.06629 -0.334156 0
M  V30 36492 H 3548.16 -4.07774 0.818141 0
M  V30 36493 H 3546.73 -3.60559 -0.951418 0
M  V30 36494 N 3548.92 -0.302382 -1.54672 0
M  V30 36495 C 3549.85 0.566225 -2.26531 0
M  V30 36496 C 3550.83 1.1368 -1.26534 0
M  V30 36497 O 3552.01 1.16588 -1.55309 0
M  V30 36498 C 3549.14 1.73752 -3.00712 0
M  V30 36499 C 3548.1 1.29724 -4.07867 0
M  V30 36500 C 3547.42 2.5538 -4.69771 0
M  V30 36501 C 3548.72 0.427475 -5.20548 0
M  V30 36502 H 3550.42 -0.0331236 -2.99382 0
M  V30 36503 H 3547.96 -0.0173711 -1.4399 0
M  V30 36504 H 3549.92 2.35128 -3.49704 0
M  V30 36505 H 3548.64 2.36313 -2.25442 0
M  V30 36506 H 3547.3 0.706523 -3.59727 0
M  V30 36507 H 3546.95 3.16258 -3.91139 0
M  V30 36508 H 3546.65 2.26621 -5.42141 0
M  V30 36509 H 3548.17 3.17557 -5.21527 0
M  V30 36510 H 3549.59 0.946954 -5.65425 0
M  V30 36511 H 3547.98 0.233599 -5.99645 0
M  V30 36512 H 3549.05 -0.547078 -4.81804 0
M  V30 36513 N 3550.4 1.57571 -0.0301311 0
M  V30 36514 C 3551.35 2.06778 0.960568 0
M  V30 36515 C 3552.33 0.968506 1.28486 0
M  V30 36516 O 3553.52 1.23205 1.27081 0
M  V30 36517 C 3550.65 2.59924 2.24264 0
M  V30 36518 C 3549.74 3.76784 1.94666 0
M  V30 36519 N 3550.13 4.87356 1.35342 0
M  V30 36520 C 3548.43 3.85289 2.24652 0
M  V30 36521 C 3549.13 5.68569 1.22899 0
M  V30 36522 N 3548.1 5.1551 1.72484 0
M  V30 36523 H 3551.91 2.89669 0.49688 0
M  V30 36524 H 3549.42 1.61456 0.174858 0
M  V30 36525 H 3551.42 2.93469 2.96111 0
M  V30 36526 H 3550.08 1.78463 2.71258 0
M  V30 36527 H 3551.09 5.07589 1.0283 0
M  V30 36528 H 3547.76 3.14736 2.74312 0
M  V30 36529 H 3549.15 6.67471 0.770183 0
M  V30 36530 N 3551.87 -0.243029 1.55715 0
M  V30 36531 C 3553.12 -0.968606 1.77377 0
M  V30 36532 C 3553.44 -1.85707 0.594813 0
M  V30 36533 O 3552.71 -1.91994 -0.389246 0
M  V30 36534 H 3551.29 -0.360635 0.65418 0
M  V30 36535 H 3553.96 -0.260045 1.93157 0
M  V30 36536 H 3553.05 -1.58805 2.68677 0
M  V30 36537 N 3553.35 -1.49159 -0.508854 0
M  V30 36538 C 3554.63 -1.48747 -1.27019 0
M  V30 36539 C 3555.01 -0.210809 -2.10045 0
M  V30 36540 O 3554.36 0.807023 -2.13774 0
M  V30 36541 C 3554.57 -2.76184 -2.13362 0
M  V30 36542 C 3555.92 -3.25362 -2.72809 0
M  V30 36543 O 3556.94 -2.77247 -2.23635 0
M  V30 36544 O 3555.8 -4.09139 -3.62308 0
M  V30 36545 H 3552.89 -0.594996 -0.574377 0
M  V30 36546 H 3555.44 -1.61415 -0.523769 0
M  V30 36547 H 3554.21 -3.60599 -1.51935 0
M  V30 36548 H 3553.83 -2.66339 -2.95211 0
M  V30 36549 N 3554.83 0.759322 -1.38102 0
M  V30 36550 C 3556.11 1.50845 -1.2452 0
M  V30 36551 C 3556.49 2.10524 0.155892 0
M  V30 36552 O 3555.84 1.96581 1.16482 0
M  V30 36553 C 3556.05 2.57941 -2.35091 0
M  V30 36554 C 3557.39 3.25002 -2.73238 0
M  V30 36555 O 3558.42 2.68242 -2.3436 0
M  V30 36556 O 3557.28 4.2765 -3.40261 0
M  V30 36557 H 3554.37 0.668684 -0.486611 0
M  V30 36558 H 3556.92 0.795223 -1.49914 0
M  V30 36559 H 3555.69 2.1205 -3.28862 0
M  V30 36560 H 3555.31 3.36851 -2.11228 0
M  V30 36561 N 3556.31 1.22876 0.986873 0
M  V30 36562 C 3557.24 0.962008 2.08034 0
M  V30 36563 C 3558.25 -0.0616189 1.62683 0
M  V30 36564 O 3559.44 0.173125 1.77658 0
M  V30 36565 C 3556.54 0.426361 3.36207 0
M  V30 36566 C 3555.72 1.50863 4.10559 0
M  V30 36567 C 3554.77 0.979001 5.17013 0
M  V30 36568 O 3553.8 1.66655 5.44256 0
M  V30 36569 N 3555 -0.196511 5.80167 0
M  V30 36570 H 3557.77 1.9034 2.31497 0
M  V30 36571 H 3555.33 1.13647 1.15308 0
M  V30 36572 H 3557.32 0.0572288 4.0466 0
M  V30 36573 H 3555.89 -0.420291 3.09762 0
M  V30 36574 H 3555.11 2.05082 3.36653 0
M  V30 36575 H 3556.4 2.23663 4.57004 0
M  V30 36576 H 3555.8 -0.771794 5.6041 0
M  V30 36577 H 3554.35 -0.506969 6.49825 0
M  V30 36578 N 3557.79 -1.18464 1.03942 0
M  V30 36579 C 3559.06 -1.84259 0.656352 0
M  V30 36580 C 3559.44 -1.92598 -0.864255 0
M  V30 36581 O 3558.79 -1.45095 -1.76521 0
M  V30 36582 C 3559 -3.22634 1.33072 0
M  V30 36583 C 3560.35 -3.98683 1.46072 0
M  V30 36584 O 3561.37 -3.3207 1.28873 0
M  V30 36585 O 3560.23 -5.18031 1.74087 0
M  V30 36586 H 3557.33 -0.794519 0.229498 0
M  V30 36587 H 3559.87 -1.25866 1.13824 0
M  V30 36588 H 3558.64 -3.11461 2.36871 0
M  V30 36589 H 3558.27 -3.88682 0.837381 0
M  V30 36590 N 3559.26 -0.818716 -1.34665 0
M  V30 36591 C 3560.49 -0.416621 -2.03172 0
M  V30 36592 C 3560.91 0.968293 -1.61263 0
M  V30 36593 O 3560.27 1.6293 -0.795199 0
M  V30 36594 C 3560.32 -0.521947 -3.56803 0
M  V30 36595 O 3559.42 0.459881 -4.09828 0
M  V30 36596 H 3558.77 -0.172148 -0.641297 0
M  V30 36597 H 3561.3 -1.10797 -1.72004 0
M  V30 36598 H 3561.31 -0.396172 -4.06072 0
M  V30 36599 H 3559.98 -1.53205 -3.86654 0
M  V30 36600 H 3558.56 0.29334 -3.71744 0
M  V30 36601 N 3560.74 1.46803 -0.573299 0
M  V30 36602 C 3561.65 2.33997 0.16804 0
M  V30 36603 C 3562.67 1.4918 0.895625 0
M  V30 36604 O 3563.84 1.82072 0.860919 0
M  V30 36605 C 3560.91 3.2619 1.17478 0
M  V30 36606 C 3559.97 4.26905 0.452881 0
M  V30 36607 C 3559.2 5.14692 1.41166 0
M  V30 36608 O 3559.43 5.05232 2.64759 0
M  V30 36609 O 3558.36 5.94713 0.927367 0
M  V30 36610 H 3562.19 2.98722 -0.547628 0
M  V30 36611 H 3559.77 1.45624 -0.333773 0
M  V30 36612 H 3561.65 3.83093 1.7555 0
M  V30 36613 H 3560.33 2.64074 1.87208 0
M  V30 36614 H 3559.24 3.73716 -0.169449 0
M  V30 36615 H 3560.57 4.9178 -0.203272 0
M  V30 36616 N 3562.22 0.31058 1.54509 0
M  V30 36617 C 3563.5 -0.349476 1.92453 0
M  V30 36618 C 3563.88 -1.70927 1.23884 0
M  V30 36619 O 3563.23 -2.25353 0.377938 0
M  V30 36620 C 3563.44 -0.454614 3.46026 0
M  V30 36621 C 3564.78 -0.720998 4.18434 0
M  V30 36622 O 3565.81 -0.53805 3.52113 0
M  V30 36623 O 3564.67 -1.07305 5.35862 0
M  V30 36624 H 3561.76 -0.197089 0.803172 0
M  V30 36625 H 3564.31 0.359342 1.65852 0
M  V30 36626 H 3563.08 0.500921 3.8808 0
M  V30 36627 H 3562.7 -1.21152 3.78692 0
M  V30 36628 N 3563.7 -1.57553 0.0384871 0
M  V30 36629 C 3564.61 -2.14251 -0.955699 0
M  V30 36630 C 3565.63 -1.0971 -1.35054 0
M  V30 36631 O 3566.8 -1.41815 -1.43005 0
M  V30 36632 C 3563.87 -2.666 -2.21642 0
M  V30 36633 C 3562.93 -3.85892 -1.88112 0
M  V30 36634 C 3562.16 -4.35734 -3.08174 0
M  V30 36635 O 3562.38 -3.84706 -4.21138 0
M  V30 36636 O 3561.32 -5.27472 -2.89926 0
M  V30 36637 H 3565.14 -2.99496 -0.503558 0
M  V30 36638 H 3562.73 -1.48279 -0.182672 0
M  V30 36639 H 3564.61 -3.00296 -2.95635 0
M  V30 36640 H 3563.29 -1.84433 -2.66019 0
M  V30 36641 H 3562.19 -3.57105 -1.11475 0
M  V30 36642 H 3563.53 -4.6925 -1.48544 0
M  V30 36643 N 3565.18 0.234767 -1.55842 0
M  V30 36644 C 3566.42 0.962508 -1.78504 0
M  V30 36645 C 3566.76 1.84507 -0.605864 0
M  V30 36646 O 3566.03 1.90438 0.395413 0
M  V30 36647 C 3566.31 1.81272 -3.11147 0
M  V30 36648 C 3566.17 0.95753 -4.3949 0
M  V30 36649 C 3567.49 2.79298 -3.40119 0
M  V30 36650 H 3564.61 0.348489 -0.649403 0
M  V30 36651 H 3567.25 0.232207 -1.88576 0
M  V30 36652 H 3565.4 2.43536 -3.02692 0
M  V30 36653 H 3567.07 0.352645 -4.5995 0
M  V30 36654 H 3565.31 0.262378 -4.33006 0
M  V30 36655 H 3565.98 1.5865 -5.2871 0
M  V30 36656 H 3568.46 2.27169 -3.48616 0
M  V30 36657 H 3567.34 3.35898 -4.34124 0
M  V30 36658 H 3567.6 3.56374 -2.6163 0
M  V30 36659 N 3566.66 1.49427 0.500936 0
M  V30 36660 C 3567.59 1.69013 1.61111 0
M  V30 36661 C 3568.57 0.538842 1.6134 0
M  V30 36662 O 3569.75 0.774691 1.78079 0
M  V30 36663 C 3566.88 1.75671 2.99595 0
M  V30 36664 C 3565.84 2.90591 3.14231 0
M  V30 36665 C 3565.16 2.82362 4.54066 0
M  V30 36666 C 3566.46 4.31525 2.9425 0
M  V30 36667 H 3568.16 2.6196 1.44974 0
M  V30 36668 H 3565.7 1.26062 0.696007 0
M  V30 36669 H 3567.65 1.8796 3.77159 0
M  V30 36670 H 3566.38 0.793241 3.16821 0
M  V30 36671 H 3565.04 2.77905 2.39091 0
M  V30 36672 H 3564.69 1.83922 4.68168 0
M  V30 36673 H 3564.39 3.59493 4.648 0
M  V30 36674 H 3565.91 2.96658 5.33691 0
M  V30 36675 H 3567.32 4.44893 3.61584 0
M  V30 36676 H 3565.72 5.09878 3.16455 0
M  V30 36677 H 3566.79 4.45966 1.90375 0
M  V30 36678 N 3568.13 -0.751987 1.38502 0
M  V30 36679 C 3569.36 -1.54123 1.38035 0
M  V30 36680 C 3569.78 -1.88777 -0.0294734 0
M  V30 36681 O 3569.13 -1.52893 -0.996495 0
M  V30 36682 C 3569.18 -2.83937 2.23746 0
M  V30 36683 O 3568.91 -2.50761 3.59236 0
M  V30 36684 C 3570.41 -3.78066 2.31476 0
M  V30 36685 H 3567.63 -0.47684 0.472086 0
M  V30 36686 H 3570.17 -0.93054 1.82102 0
M  V30 36687 H 3568.33 -3.41379 1.83136 0
M  V30 36688 H 3568.74 -3.34029 4.04382 0
M  V30 36689 H 3570.21 -4.66098 2.95731 0
M  V30 36690 H 3570.69 -4.18613 1.32889 0
M  V30 36691 H 3571.3 -3.26547 2.72483 0
M  V30 36692 N 3569.61 -1.23398 -0.980343 0
M  V30 36693 C 3570.86 -1.06018 -1.7159 0
M  V30 36694 C 3571.17 0.403069 -1.91402 0
M  V30 36695 O 3572.38 0.696807 -2.62406 0
M  V30 36696 C 3570.84 -1.84866 -3.08792 0
M  V30 36697 C 3570.44 -3.3552 -2.96867 0
M  V30 36698 C 3572.19 -1.75975 -3.86307 0
M  V30 36699 C 3570.09 -4.06761 -4.29301 0
M  V30 36700 H 3569.02 -0.393106 -0.643416 0
M  V30 36701 H 3571.68 -1.47365 -1.09343 0
M  V30 36702 H 3570.06 -1.36325 -3.71795 0
M  V30 36703 H 3571.23 -3.91549 -2.42953 0
M  V30 36704 H 3569.55 -3.45225 -2.32827 0
M  V30 36705 H 3572.14 -2.26513 -4.84351 0
M  V30 36706 H 3572.49 -0.722536 -4.09982 0
M  V30 36707 H 3573.02 -2.22128 -3.30006 0
M  V30 36708 H 3569.76 -5.10789 -4.10822 0
M  V30 36709 H 3569.28 -3.5552 -4.83079 0
M  V30 36710 H 3570.96 -4.13058 -4.97988 0
M  V30 36711 N 3571.09 1.17911 -1.04569 0
M  V30 36712 C 3572.5 1.69665 -0.779148 0
M  V30 36713 C 3572.85 1.8331 0.699416 0
M  V30 36714 O 3571.98 1.51619 1.54404 0
M  V30 36715 C 3572.57 3.08169 -1.40774 0
M  V30 36716 C 3571.13 3.57114 -1.18939 0
M  V30 36717 C 3570.28 2.33534 -1.49523 0
M  V30 36718 H 3573.23 1.02516 -1.21145 0
M  V30 36719 H 3573.25 3.71699 -0.81365 0
M  V30 36720 H 3572.76 2.98206 -2.48385 0
M  V30 36721 H 3570.86 3.72365 -0.132249 0
M  V30 36722 H 3570.98 4.40247 -1.88995 0
M  V30 36723 H 3569.34 2.37693 -0.915098 0
M  V30 36724 H 3570.12 2.26185 -2.58254 0
M  V30 36725 N 3572.57 0.825847 1.34229 0
M  V30 36726 C 3573.48 0.251844 2.33244 0
M  V30 36727 C 3574.49 -0.615306 1.62757 0
M  V30 36728 O 3575.67 -0.522513 1.94504 0
M  V30 36729 C 3572.73 -0.574396 3.41909 0
M  V30 36730 C 3571.8 0.315497 4.28139 0
M  V30 36731 C 3571.03 -0.471403 5.31614 0
M  V30 36732 O 3571.25 -1.7044 5.4434 0
M  V30 36733 O 3570.19 0.147796 6.01719 0
M  V30 36734 H 3574.01 1.07144 2.84172 0
M  V30 36735 H 3571.6 0.588056 1.3734 0
M  V30 36736 H 3573.48 -1.04437 4.08254 0
M  V30 36737 H 3572.15 -1.37127 2.9322 0
M  V30 36738 H 3571.06 0.833027 3.64707 0
M  V30 36739 H 3572.39 1.0768 4.80277 0
M  V30 36740 N 3574.05 -1.46497 0.581077 0
M  V30 36741 C 3575.29 -2.02692 0.066129 0
M  V30 36742 C 3575.62 -1.4518 -1.28982 0
M  V30 36743 O 3574.9 -0.61628 -1.84478 0
M  V30 36744 C 3575.18 -3.601 -0.00139081 0
M  V30 36745 C 3575.04 -4.28 1.38335 0
M  V30 36746 C 3576.35 -4.34452 -0.702837 0
M  V30 36747 H 3573.47 -0.736559 0.0255053 0
M  V30 36748 H 3576.12 -1.74658 0.747961 0
M  V30 36749 H 3574.27 -3.84115 -0.582051 0
M  V30 36750 H 3575.94 -4.15253 2.00905 0
M  V30 36751 H 3574.18 -3.87425 1.95151 0
M  V30 36752 H 3574.85 -5.36749 1.28859 0
M  V30 36753 H 3577.33 -4.15572 -0.209568 0
M  V30 36754 H 3576.2 -5.44169 -0.719106 0
M  V30 36755 H 3576.46 -4.05391 -1.76382 0
M  V30 36756 N 3575.52 -0.31877 -1.54343 0
M  V30 36757 C 3576.47 0.549357 -2.24167 0
M  V30 36758 C 3577.44 1.11548 -1.2307 0
M  V30 36759 O 3578.63 1.15671 -1.51739 0
M  V30 36760 C 3575.77 1.70673 -2.99941 0
M  V30 36761 C 3574.88 1.1703 -4.15846 0
M  V30 36762 C 3574.01 2.29297 -4.79162 0
M  V30 36763 C 3573.05 1.72878 -5.8718 0
M  V30 36764 N 3572.19 2.78788 -6.44377 0
M  V30 36765 H 3577.03 -0.0526542 -2.97953 0
M  V30 36766 H 3574.57 -0.0377566 -1.47052 0
M  V30 36767 H 3576.52 2.38771 -3.42117 0
M  V30 36768 H 3575.15 2.2801 -2.28498 0
M  V30 36769 H 3574.21 0.381015 -3.78487 0
M  V30 36770 H 3575.52 0.717421 -4.93614 0
M  V30 36771 H 3574.67 3.05308 -5.24282 0
M  V30 36772 H 3573.41 2.77918 -4.00765 0
M  V30 36773 H 3572.42 0.953618 -5.41467 0
M  V30 36774 H 3573.64 1.25138 -6.67471 0
M  V30 36775 H 3571.59 3.2671 -5.68855 0
M  V30 36776 H 3571.5 2.38049 -7.17543 0
M  V30 36777 H 3572.77 3.54643 -6.94153 0
M  V30 36778 N 3577 1.5753 -0.0468419 0
M  V30 36779 C 3578.25 1.92804 0.628835 0
M  V30 36780 C 3578.58 0.925113 1.70749 0
M  V30 36781 O 3577.86 -0.0495479 1.94437 0
M  V30 36782 C 3578.14 3.38481 1.22893 0
M  V30 36783 C 3577.99 4.4952 0.158628 0
M  V30 36784 C 3579.31 3.84465 2.14183 0
M  V30 36785 H 3576.43 0.70113 0.227125 0
M  V30 36786 H 3579.07 1.89694 -0.107722 0
M  V30 36787 H 3577.22 3.41262 1.85668 0
M  V30 36788 H 3578.89 4.58868 -0.473044 0
M  V30 36789 H 3577.14 4.30746 -0.513826 0
M  V30 36790 H 3577.81 5.48525 0.618449 0
M  V30 36791 H 3580.28 3.83533 1.61375 0
M  V30 36792 H 3579.16 4.87056 2.53117 0
M  V30 36793 H 3579.42 3.20975 3.04018 0
M  V30 36794 N 3578.48 -0.226499 1.55964 0
M  V30 36795 C 3579.43 -1.28403 1.88406 0
M  V30 36796 C 3580.41 -1.42525 0.746681 0
M  V30 36797 O 3581.61 -1.45424 1.00901 0
M  V30 36798 C 3578.74 -2.63545 2.19997 0
M  V30 36799 C 3577.82 -2.53344 3.40114 0
M  V30 36800 N 3578.21 -2.1279 4.58862 0
M  V30 36801 C 3576.51 -2.84314 3.4363 0
M  V30 36802 C 3577.21 -2.13719 5.41017 0
M  V30 36803 N 3576.19 -2.54016 4.806 0
M  V30 36804 H 3579.99 -0.961303 2.77734 0
M  V30 36805 H 3577.5 -0.435077 1.56464 0
M  V30 36806 H 3579.5 -3.39891 2.41411 0
M  V30 36807 H 3578.16 -2.96668 1.31978 0
M  V30 36808 H 3579.17 -1.84001 4.84111 0
M  V30 36809 H 3575.85 -3.21841 2.65941 0
M  V30 36810 H 3577.24 -1.84532 6.46063 0
M  V30 36811 N 3579.96 -1.4969 -0.493005 0
M  V30 36812 C 3581.18 -1.63569 -1.27514 0
M  V30 36813 C 3581.61 -0.310138 -1.85526 0
M  V30 36814 O 3580.97 0.723285 -1.66248 0
M  V30 36815 C 3581.01 -2.71301 -2.37547 0
M  V30 36816 O 3580.12 -2.31029 -3.41613 0
M  V30 36817 H 3579.46 -0.547211 -0.376106 0
M  V30 36818 H 3581.99 -1.9593 -0.589294 0
M  V30 36819 H 3582 -2.93713 -2.8319 0
M  V30 36820 H 3580.67 -3.67516 -1.94691 0
M  V30 36821 H 3579.25 -2.18979 -3.01832 0
M  V30 36822 N 3581.44 0.744631 -1.38899 0
M  V30 36823 C 3582.68 1.50101 -1.35329 0
M  V30 36824 C 3583.01 1.94927 0.0532445 0
M  V30 36825 O 3582.28 1.68296 1.00267 0
M  V30 36826 H 3580.86 0.556799 -0.49798 0
M  V30 36827 H 3583.52 0.884594 -1.73669 0
M  V30 36828 H 3582.61 2.38769 -2.00987 0
M  V30 36829 N 3582.91 1.23916 0.973785 0
M  V30 36830 C 3584.33 1.00324 1.24126 0
M  V30 36831 C 3584.53 -0.291655 1.99378 0
M  V30 36832 O 3583.59 -1.00939 2.31447 0
M  V30 36833 C 3584.9 2.21438 2.03434 0
M  V30 36834 C 3586.45 2.25999 2.16549 0
M  V30 36835 C 3586.92 3.46718 2.99251 0
M  V30 36836 N 3588.41 3.46997 3.06834 0
M  V30 36837 C 3589.15 4.37062 3.71167 0
M  V30 36838 N 3588.64 5.37372 4.37268 0
M  V30 36839 N 3590.44 4.24788 3.68118 0
M  V30 36840 H 3582.59 2.07138 0.469836 0
M  V30 36841 H 3584.85 0.908673 0.270218 0
M  V30 36842 H 3584.56 3.15446 1.55521 0
M  V30 36843 H 3584.43 2.23062 3.04176 0
M  V30 36844 H 3586.82 1.32527 2.63668 0
M  V30 36845 H 3586.9 2.28404 1.15175 0
M  V30 36846 H 3586.54 4.40501 2.52827 0
M  V30 36847 H 3586.47 3.41555 4.00809 0
M  V30 36848 H 3588.96 2.74423 2.59808 0
M  V30 36849 H 3589.28 6.0234 4.84155 0
M  V30 36850 H 3587.62 5.41265 4.35956 0
M  V30 36851 H 3590.81 3.45662 3.15651 0
M  V30 36852 H 3590.99 4.9518 4.17972 0
M  V30 36853 N 3584.39 -1.17355 1.05193 0
M  V30 36854 C 3585.64 -1.87245 0.760511 0
M  V30 36855 C 3585.96 -1.81435 -0.714586 0
M  V30 36856 O 3585.23 -1.24032 -1.51634 0
M  V30 36857 H 3583.81 -0.693211 0.278329 0
M  V30 36858 H 3586.47 -1.42366 1.33108 0
M  V30 36859 H 3585.57 -2.92985 1.07547 0
M  V30 36860 N 3585.87 -0.832954 -1.3379 0
M  V30 36861 C 3586.83 -0.267236 -2.27637 0
M  V30 36862 C 3587.83 0.560643 -1.5071 0
M  V30 36863 O 3589.02 0.375291 -1.70109 0
M  V30 36864 C 3586.16 0.624189 -3.35137 0
M  V30 36865 H 3587.35 -1.09527 -2.79184 0
M  V30 36866 H 3584.9 -0.60558 -1.44092 0
M  V30 36867 H 3585.64 1.47489 -2.88821 0
M  V30 36868 H 3585.42 0.0319138 -3.92087 0
M  V30 36869 H 3586.91 1.01348 -4.05115 0
M  V30 36870 N 3587.35 1.46186 -0.588837 0
M  V30 36871 C 3588.6 2.01955 -0.076612 0
M  V30 36872 C 3588.92 1.46205 1.29031 0
M  V30 36873 O 3588.19 0.649076 1.84835 0
M  V30 36874 H 3586.77 0.74657 -0.0253312 0
M  V30 36875 H 3589.43 1.79216 -0.766002 0
M  V30 36876 H 3588.53 3.12098 -0.012225 0
M  V30 36877 N 3588.83 0.32695 1.54171 0
M  V30 36878 C 3589.79 -0.524815 2.23111 0
M  V30 36879 C 3590.79 -1.04085 1.22569 0
M  V30 36880 O 3591.98 -0.932734 1.47125 0
M  V30 36881 C 3589.11 -1.72932 2.93781 0
M  V30 36882 H 3590.3 0.0778854 2.99799 0
M  V30 36883 H 3587.86 0.0780759 1.56105 0
M  V30 36884 H 3588.59 -2.37116 2.21238 0
M  V30 36885 H 3588.38 -1.36668 3.67511 0
M  V30 36886 H 3589.87 -2.33386 3.46296 0
M  V30 36887 N 3590.3 -1.57503 0.0551955 0
M  V30 36888 C 3591.21 -2.15253 -0.932922 0
M  V30 36889 C 3592.23 -1.11136 -1.33883 0
M  V30 36890 O 3593.41 -1.43324 -1.41493 0
M  V30 36891 C 3590.47 -2.68936 -2.18802 0
M  V30 36892 C 3589.53 -3.87865 -1.84009 0
M  V30 36893 C 3588.77 -4.38978 -3.03535 0
M  V30 36894 O 3588.99 -3.89151 -4.17034 0
M  V30 36895 O 3587.92 -5.30517 -2.84316 0
M  V30 36896 H 3591.75 -3.00013 -0.471764 0
M  V30 36897 H 3589.33 -1.48464 -0.166934 0
M  V30 36898 H 3591.22 -3.03415 -2.92433 0
M  V30 36899 H 3589.89 -1.87244 -2.64048 0
M  V30 36900 H 3588.8 -3.58268 -1.07681 0
M  V30 36901 H 3590.13 -4.70799 -1.43559 0
M  V30 36902 N 3591.78 0.218225 -1.56082 0
M  V30 36903 C 3593.01 0.963087 -1.83683 0
M  V30 36904 C 3593.43 1.77024 -0.63594 0
M  V30 36905 O 3592.79 1.76479 0.415296 0
M  V30 36906 C 3592.84 1.85371 -3.09306 0
M  V30 36907 O 3591.94 2.9495 -2.88233 0
M  V30 36908 H 3591.28 0.272519 -0.6055 0
M  V30 36909 H 3593.81 0.230531 -2.03297 0
M  V30 36910 H 3593.82 2.26288 -3.39497 0
M  V30 36911 H 3592.5 1.26047 -3.96339 0
M  V30 36912 H 3591.08 2.57955 -2.69284 0
M  V30 36913 N 3593.26 1.4995 0.485059 0
M  V30 36914 C 3594.49 1.64243 1.26645 0
M  V30 36915 C 3594.91 0.319972 1.85359 0
M  V30 36916 O 3594.27 -0.714458 1.66629 0
M  V30 36917 C 3594.32 2.72557 2.36104 0
M  V30 36918 O 3593.42 2.32838 3.40383 0
M  V30 36919 H 3592.76 0.549198 0.373199 0
M  V30 36920 H 3595.29 1.9624 0.578895 0
M  V30 36921 H 3595.3 2.9521 2.81629 0
M  V30 36922 H 3593.98 3.68544 1.92739 0
M  V30 36923 H 3592.55 2.20577 3.00667 0
M  V30 36924 N 3594.74 -0.737255 1.39292 0
M  V30 36925 C 3595.69 -1.84231 1.34324 0
M  V30 36926 C 3596.67 -1.59326 0.224517 0
M  V30 36927 O 3597.87 -1.70868 0.461862 0
M  V30 36928 C 3594.99 -3.22133 1.18682 0
M  V30 36929 C 3594.08 -3.52874 2.35246 0
M  V30 36930 N 3594.47 -3.54567 3.60716 0
M  V30 36931 C 3592.77 -3.83225 2.28154 0
M  V30 36932 C 3593.47 -3.8304 4.37785 0
M  V30 36933 N 3592.45 -4.00699 3.67343 0
M  V30 36934 H 3596.25 -1.83841 2.29303 0
M  V30 36935 H 3593.76 -0.93539 1.32756 0
M  V30 36936 H 3595.76 -4.01236 1.13206 0
M  V30 36937 H 3594.42 -3.23763 0.246518 0
M  V30 36938 H 3595.43 -3.35933 3.9417 0
M  V30 36939 H 3592.11 -3.92474 1.42373 0
M  V30 36940 H 3593.5 -3.90836 5.46532 0
M  V30 36941 N 3596.22 -1.24431 -0.967199 0
M  V30 36942 C 3597.63 -1.07726 -1.52486 0
M  V30 36943 C 3597.98 0.351157 -1.93032 0
M  V30 36944 O 3597.1 1.23959 -1.77378 0
M  V30 36945 C 3597.7 -1.94934 -2.77103 0
M  V30 36946 C 3596.26 -1.82451 -3.29224 0
M  V30 36947 C 3595.41 -1.89839 -2.0213 0
M  V30 36948 H 3598.36 -1.379 -0.785441 0
M  V30 36949 H 3598.38 -1.48192 -3.50456 0
M  V30 36950 H 3597.89 -2.98889 -2.47562 0
M  V30 36951 H 3595.99 -0.81331 -3.63615 0
M  V30 36952 H 3596.1 -2.66573 -3.9809 0
M  V30 36953 H 3594.47 -1.33574 -2.16864 0
M  V30 36954 H 3595.25 -2.95375 -1.74953 0
M  V30 36955 N 3597.7 1.16795 -1.05814 0
M  V30 36956 C 3598.94 1.87486 -0.773099 0
M  V30 36957 C 3599.27 1.81206 0.69844 0
M  V30 36958 O 3598.55 1.22437 1.51127 0
M  V30 36959 C 3598.83 3.37256 -1.26216 0
M  V30 36960 C 3598.69 3.52253 -2.7971 0
M  V30 36961 C 3600 4.31492 -0.86618 0
M  V30 36962 H 3597.12 0.680784 -0.282316 0
M  V30 36963 H 3599.77 1.37311 -1.31322 0
M  V30 36964 H 3597.92 3.80118 -0.802675 0
M  V30 36965 H 3599.59 3.18364 -3.3383 0
M  V30 36966 H 3597.83 2.94324 -3.18679 0
M  V30 36967 H 3598.5 4.57414 -3.08993 0
M  V30 36968 H 3600.98 3.96505 -1.26185 0
M  V30 36969 H 3599.85 5.34805 -1.23591 0
M  V30 36970 H 3600.11 4.41505 0.229313 0
M  V30 36971 N 3599.17 0.840037 1.33346 0
M  V30 36972 C 3600.59 0.527976 1.50614 0
M  V30 36973 C 3600.79 -0.944462 1.77995 0
M  V30 36974 O 3599.85 -1.72821 1.8409 0
M  V30 36975 C 3601.16 1.40232 2.65999 0
M  V30 36976 C 3602.71 1.40122 2.79883 0
M  V30 36977 C 3603.18 2.26045 3.98331 0
M  V30 36978 N 3604.67 2.23761 4.05568 0
M  V30 36979 C 3605.41 2.86981 4.96417 0
M  V30 36980 N 3604.9 3.59257 5.92373 0
M  V30 36981 N 3606.7 2.76445 4.89423 0
M  V30 36982 H 3598.85 1.79319 1.13836 0
M  V30 36983 H 3601.11 0.765097 0.559759 0
M  V30 36984 H 3600.82 2.44872 2.52449 0
M  V30 36985 H 3600.69 1.0792 3.61432 0
M  V30 36986 H 3603.08 0.362539 2.92865 0
M  V30 36987 H 3603.16 1.76442 1.85208 0
M  V30 36988 H 3602.8 3.29973 3.86109 0
M  V30 36989 H 3602.73 1.87066 4.92254 0
M  V30 36990 H 3605.22 1.71201 3.36896 0
M  V30 36991 H 3605.54 4.04699 6.5836 0
M  V30 36992 H 3603.88 3.63365 5.92445 0
M  V30 36993 H 3607.07 2.19541 4.13424 0
M  V30 36994 H 3607.25 3.25999 5.60026 0
M  V30 36995 N 3600.65 -1.45872 0.596582 0
M  V30 36996 C 3601.6 -2.32171 -0.141287 0
M  V30 36997 C 3602.59 -1.45315 -0.870626 0
M  V30 36998 O 3603.8 -1.61862 -0.78744 0
M  V30 36999 H 3600.17 -0.749235 -0.0644273 0
M  V30 37000 H 3602.15 -2.92199 0.605166 0
M  V30 37001 C 3600.89 -3.28738 -1.13255 0
M  V30 37002 H 3600.22 -3.95559 -0.580765 0
M  V30 37003 H 3601.66 -3.91874 -1.61898 0
M  V30 37004 C 3600.12 -2.55101 -2.20057 0
M  V30 37005 O 3600.65 -2.32425 -3.2763 0
M  V30 37006 N 3598.85 -2.15424 -1.95041 0
M  V30 37007 H 3598.4 -2.34066 -1.07568 0
M  V30 37008 H 3598.36 -1.66476 -2.66708 0
M  V30 37009 N 3602.13 -0.335122 -1.53996 0
M  V30 37010 C 3603.09 0.512976 -2.23386 0
M  V30 37011 C 3604.09 1.03433 -1.23119 0
M  V30 37012 O 3605.28 0.924918 -1.47617 0
M  V30 37013 C 3602.41 1.71372 -2.94694 0
M  V30 37014 H 3603.61 -0.0937833 -2.99753 0
M  V30 37015 H 3601.16 -0.0863534 -1.56061 0
M  V30 37016 H 3601.9 2.3594 -2.22492 0
M  V30 37017 H 3601.68 1.34717 -3.68231 0
M  V30 37018 H 3603.17 2.31546 -3.47529 0
M  V30 37019 N 3603.61 1.57472 -0.0635475 0
M  V30 37020 C 3604.54 2.09218 0.935983 0
M  V30 37021 C 3605.55 1.02257 1.26678 0
M  V30 37022 O 3606.74 1.29792 1.22541 0
M  V30 37023 C 3603.84 2.53066 2.25412 0
M  V30 37024 C 3603.01 3.83504 2.1034 0
M  V30 37025 C 3602.07 4.13534 3.25386 0
M  V30 37026 O 3601.1 4.83263 3.00742 0
M  V30 37027 N 3602.3 3.66425 4.50237 0
M  V30 37028 H 3605.07 2.95597 0.494236 0
M  V30 37029 H 3602.63 1.61437 0.122388 0
M  V30 37030 H 3604.62 2.70223 3.01267 0
M  V30 37031 H 3603.19 1.71869 2.61113 0
M  V30 37032 H 3602.41 3.75809 1.19002 0
M  V30 37033 H 3603.7 4.689 1.97511 0
M  V30 37034 H 3603.1 3.10078 4.73147 0
M  V30 37035 H 3601.65 3.88797 5.23145 0
M  V30 37036 N 3605.09 -0.209945 1.56195 0
M  V30 37037 C 3606.31 -0.953332 1.84191 0
M  V30 37038 C 3606.74 -1.76684 0.645319 0
M  V30 37039 O 3606.09 -1.76697 -0.405931 0
M  V30 37040 C 3606.14 -1.83728 3.10284 0
M  V30 37041 O 3605.25 -2.93417 2.89794 0
M  V30 37042 H 3604.59 -0.269304 0.606936 0
M  V30 37043 H 3607.12 -0.219747 2.03417 0
M  V30 37044 H 3607.13 -2.24484 3.40692 0
M  V30 37045 H 3605.8 -1.23944 3.97002 0
M  V30 37046 H 3604.38 -2.56523 2.70648 0
M  V30 37047 N 3606.56 -1.50205 -0.4771 0
M  V30 37048 C 3607.51 -1.69148 -1.59661 0
M  V30 37049 C 3608.51 -0.557322 -1.5997 0
M  V30 37050 O 3609.71 -0.737652 -1.64191 0
M  V30 37051 H 3606.09 -0.533784 -0.529696 0
M  V30 37052 H 3608.06 -2.6307 -1.40844 0
M  V30 37053 C 3606.81 -1.79731 -2.97644 0
M  V30 37054 H 3606.13 -2.66389 -2.98123 0
M  V30 37055 H 3607.57 -1.97013 -3.75449 0
M  V30 37056 C 3606.03 -0.547523 -3.32421 0
M  V30 37057 O 3606.56 0.316044 -4.00455 0
M  V30 37058 N 3604.76 -0.403331 -2.87787 0
M  V30 37059 H 3604.31 -1.1071 -2.32596 0
M  V30 37060 H 3604.27 0.431743 -3.11421 0
M  V30 37061 N 3608.04 0.729857 -1.39681 0
M  V30 37062 C 3609.01 1.8256 -1.38581 0
M  V30 37063 C 3610.01 1.58308 -0.282021 0
M  V30 37064 O 3611.2 1.65613 -0.540194 0
M  V30 37065 C 3608.33 3.20431 -1.16349 0
M  V30 37066 H 3609.52 1.84938 -2.36089 0
M  V30 37067 H 3607.07 0.934041 -1.25321 0
M  V30 37068 H 3607.81 3.23711 -0.195429 0
M  V30 37069 H 3607.59 3.39431 -1.96287 0
M  V30 37070 H 3609.08 4.00484 -1.18332 0
M  V30 37071 N 3609.52 1.24942 0.960587 0
M  V30 37072 C 3610.45 1.07277 2.07398 0
M  V30 37073 C 3611.43 -0.0164066 1.70092 0
M  V30 37074 O 3612.62 0.152009 1.93604 0
M  V30 37075 C 3609.75 0.684377 3.4049 0
M  V30 37076 C 3608.7 1.72312 3.91781 0
M  V30 37077 C 3608.03 1.18959 5.21299 0
M  V30 37078 C 3609.33 3.12064 4.18824 0
M  V30 37079 H 3611.02 2.00408 2.22434 0
M  V30 37080 H 3608.57 0.964956 1.06886 0
M  V30 37081 H 3610.52 0.54776 4.17825 0
M  V30 37082 H 3609.24 -0.28263 3.25375 0
M  V30 37083 H 3607.9 1.84808 3.1661 0
M  V30 37084 H 3607.55 0.21298 5.02549 0
M  V30 37085 H 3607.25 1.8838 5.56585 0
M  V30 37086 H 3608.77 1.06524 6.01236 0
M  V30 37087 H 3610.19 3.02756 4.86838 0
M  V30 37088 H 3608.59 3.78902 4.65353 0
M  V30 37089 H 3609.66 3.5957 3.25327 0
M  V30 37090 N 3611 -1.16233 1.06432 0
M  V30 37091 C 3611.93 -2.20248 0.634312 0
M  V30 37092 C 3612.94 -1.59852 -0.308404 0
M  V30 37093 O 3614.13 -1.78224 -0.0991754 0
M  V30 37094 C 3611.23 -3.3878 -0.0900998 0
M  V30 37095 C 3610.41 -4.28732 0.866454 0
M  V30 37096 C 3609.46 -5.25888 0.181035 0
M  V30 37097 O 3608.49 -5.63275 0.819133 0
M  V30 37098 N 3609.69 -5.70424 -1.07688 0
M  V30 37099 H 3612.46 -2.5776 1.52905 0
M  V30 37100 H 3610.02 -1.31256 0.947812 0
M  V30 37101 H 3612.01 -4.0082 -0.559076 0
M  V30 37102 H 3610.58 -2.99762 -0.886662 0
M  V30 37103 H 3609.8 -3.63935 1.51477 0
M  V30 37104 H 3611.09 -4.85711 1.51532 0
M  V30 37105 H 3610.49 -5.42145 -1.6154 0
M  V30 37106 H 3609.04 -6.34548 -1.4897 0
M  V30 37107 N 3612.48 -0.847097 -1.32899 0
M  V30 37108 C 3613.39 -0.288919 -2.32814 0
M  V30 37109 C 3614.4 0.589335 -1.63716 0
M  V30 37110 O 3615.58 0.491503 -1.95311 0
M  V30 37111 C 3612.64 0.519928 -3.42779 0
M  V30 37112 C 3611.7 -0.383571 -4.27583 0
M  V30 37113 C 3610.94 0.386768 -5.32297 0
M  V30 37114 O 3611.16 1.61758 -5.46983 0
M  V30 37115 O 3610.09 -0.243506 -6.01407 0
M  V30 37116 H 3613.92 -1.11651 -2.82432 0
M  V30 37117 H 3611.51 -0.609831 -1.36387 0
M  V30 37118 H 3613.39 0.979285 -4.09863 0
M  V30 37119 H 3612.06 1.32445 -2.95364 0
M  V30 37120 H 3610.97 -0.890943 -3.63336 0
M  V30 37121 H 3612.3 -1.15308 -4.78503 0
M  V30 37122 N 3613.95 1.45554 -0.604309 0
M  V30 37123 C 3615.37 1.57339 -0.267692 0
M  V30 37124 C 3615.57 1.59618 1.22981 0
M  V30 37125 O 3614.63 1.52472 2.01268 0
M  V30 37126 C 3615.94 2.85762 -0.935973 0
M  V30 37127 C 3617.49 2.99431 -0.911584 0
M  V30 37128 C 3617.96 4.3062 -1.55981 0
M  V30 37129 N 3619.45 4.37371 -1.52515 0
M  V30 37130 C 3620.19 5.37542 -1.9959 0
M  V30 37131 N 3619.68 6.44268 -2.54735 0
M  V30 37132 N 3621.48 5.28879 -1.90377 0
M  V30 37133 H 3613.63 1.42318 -1.57668 0
M  V30 37134 H 3615.89 0.680234 -0.660292 0
M  V30 37135 H 3615.6 2.89968 -1.99027 0
M  V30 37136 H 3615.47 3.74418 -0.45726 0
M  V30 37137 H 3617.86 2.94795 0.134155 0
M  V30 37138 H 3617.94 2.12195 -1.42853 0
M  V30 37139 H 3617.58 4.36015 -2.60486 0
M  V30 37140 H 3617.51 5.16668 -1.01791 0
M  V30 37141 H 3620 3.60851 -1.12227 0
M  V30 37142 H 3620.32 7.16946 -2.88458 0
M  V30 37143 H 3618.66 6.45028 -2.58773 0
M  V30 37144 H 3621.85 4.44407 -1.47037 0
M  V30 37145 H 3622.03 6.06798 -2.27378 0
M  V30 37146 N 3615.43 0.343284 1.53816 0
M  V30 37147 C 3616.34 -0.522081 2.28717 0
M  V30 37148 C 3617.36 -1.11216 1.33817 0
M  V30 37149 O 3618.53 -1.1279 1.66855 0
M  V30 37150 C 3615.6 -1.65736 3.0452 0
M  V30 37151 C 3614.66 -1.09709 4.15045 0
M  V30 37152 C 3613.89 -2.17826 4.87224 0
M  V30 37153 O 3614.12 -3.38541 4.59071 0
M  V30 37154 O 3613.05 -1.82135 5.73681 0
M  V30 37155 H 3616.88 0.0867853 3.03576 0
M  V30 37156 H 3614.46 0.108339 1.49007 0
M  V30 37157 H 3616.34 -2.3179 3.51925 0
M  V30 37158 H 3615.02 -2.25204 2.32518 0
M  V30 37159 H 3613.93 -0.401086 3.71944 0
M  V30 37160 H 3615.26 -0.547276 4.89148 0
M  V30 37161 N 3616.91 -1.57436 0.0718977 0
M  V30 37162 C 3618.19 -1.84896 -0.6382 0
M  V30 37163 C 3618.57 -0.964376 -1.87784 0
M  V30 37164 O 3617.92 -0.0306925 -2.28479 0
M  V30 37165 C 3618.13 -3.35082 -0.975758 0
M  V30 37166 C 3619.47 -4.02594 -1.3492 0
M  V30 37167 O 3620.5 -3.39828 -1.06748 0
M  V30 37168 O 3619.36 -5.13299 -1.8758 0
M  V30 37169 H 3616.45 -0.763838 -0.316987 0
M  V30 37170 H 3619 -1.69388 0.102837 0
M  V30 37171 H 3617.77 -3.91184 -0.095326 0
M  V30 37172 H 3617.39 -3.55852 -1.77355 0
M  V30 37173 N 3618.39 0.201658 -1.56305 0
M  V30 37174 C 3619.67 0.948565 -1.7106 0
M  V30 37175 C 3620.05 2.01641 -0.624829 0
M  V30 37176 O 3619.39 2.25563 0.365195 0
M  V30 37177 C 3619.6 1.54095 -3.13138 0
M  V30 37178 C 3620.95 2.0256 -3.73168 0
M  V30 37179 O 3621.98 1.63951 -3.16226 0
M  V30 37180 O 3620.83 2.73585 -4.73089 0
M  V30 37181 H 3617.93 0.444399 -0.697451 0
M  V30 37182 H 3620.47 0.191872 -1.68612 0
M  V30 37183 H 3619.25 0.770901 -3.83631 0
M  V30 37184 H 3618.87 2.36266 -3.19788 0
M  V30 37185 N 3619.87 1.50456 0.469128 0
M  V30 37186 C 3621.28 1.37925 0.803043 0
M  V30 37187 C 3621.48 0.436871 1.96707 0
M  V30 37188 O 3620.54 -0.119778 2.52216 0
M  V30 37189 C 3621.85 2.79333 1.11327 0
M  V30 37190 C 3623.4 2.88261 1.2196 0
M  V30 37191 C 3623.87 4.30507 1.56295 0
M  V30 37192 N 3625.37 4.33466 1.63282 0
M  V30 37193 C 3626.1 5.40527 1.91357 0
M  V30 37194 N 3625.6 6.57793 2.17439 0
M  V30 37195 N 3627.39 5.27973 1.92875 0
M  V30 37196 H 3619.54 2.103 -0.297965 0
M  V30 37197 H 3621.8 0.945353 -0.070796 0
M  V30 37198 H 3621.51 3.50139 0.330991 0
M  V30 37199 H 3621.38 3.16697 2.04897 0
M  V30 37200 H 3623.77 2.17673 1.99255 0
M  V30 37201 H 3623.85 2.54438 0.263647 0
M  V30 37202 H 3623.5 5.01633 0.795391 0
M  V30 37203 H 3623.43 4.61819 2.53043 0
M  V30 37204 H 3625.92 3.48909 1.45158 0
M  V30 37205 H 3626.23 7.35193 2.38141 0
M  V30 37206 H 3624.57 6.60965 2.14828 0
M  V30 37207 H 3627.77 4.35356 1.71997 0
M  V30 37208 H 3627.94 6.11497 2.1442 0
M  V30 37209 N 3621.34 -0.722439 1.40066 0
M  V30 37210 C 3622.59 -1.48442 1.38177 0
M  V30 37211 C 3622.92 -1.94191 -0.0182515 0
M  V30 37212 O 3622.2 -1.67678 -0.985608 0
M  V30 37213 C 3622.48 -2.71531 2.36523 0
M  V30 37214 C 3622.33 -2.31719 3.85521 0
M  V30 37215 C 3623.65 -3.73669 2.32506 0
M  V30 37216 H 3620.77 -0.538449 0.503231 0
M  V30 37217 H 3623.41 -0.825057 1.71151 0
M  V30 37218 H 3621.56 -3.27789 2.08534 0
M  V30 37219 H 3623.24 -1.80995 4.24309 0
M  V30 37220 H 3621.48 -1.638 4.01687 0
M  V30 37221 H 3622.15 -3.1992 4.49839 0
M  V30 37222 H 3624.63 -3.27024 2.57282 0
M  V30 37223 H 3623.5 -4.57442 3.03377 0
M  V30 37224 H 3623.76 -4.21483 1.33435 0
M  V30 37225 N 3622.82 -1.2545 -0.953947 0
M  V30 37226 C 3624.07 -1.10021 -1.69528 0
M  V30 37227 C 3624.39 0.359352 -1.9166 0
M  V30 37228 O 3623.66 1.25503 -1.50419 0
M  V30 37229 H 3622.24 -0.404147 -0.628231 0
M  V30 37230 H 3624.9 -1.57583 -1.14689 0
M  V30 37231 H 3624 -1.60905 -2.67424 0
M  V30 37232 N 3624.3 1.15667 -1.07047 0
M  V30 37233 C 3625.23 2.22461 -0.709452 0
M  V30 37234 C 3626.21 1.67404 0.30166 0
M  V30 37235 O 3627.4 1.93409 0.175097 0
M  V30 37236 C 3624.53 3.47147 -0.103182 0
M  V30 37237 C 3623.48 4.15145 -1.04111 0
M  V30 37238 C 3622.81 5.3387 -0.29775 0
M  V30 37239 C 3624.11 4.6526 -2.3734 0
M  V30 37240 H 3625.8 2.52916 -1.60231 0
M  V30 37241 H 3623.35 1.21566 -0.771867 0
M  V30 37242 H 3625.3 4.21091 0.161297 0
M  V30 37243 H 3624.02 3.16015 0.824737 0
M  V30 37244 H 3622.68 3.43137 -1.29046 0
M  V30 37245 H 3622.33 4.98994 0.633531 0
M  V30 37246 H 3622.03 5.80307 -0.922891 0
M  V30 37247 H 3623.56 6.10586 -0.0409965 0
M  V30 37248 H 3624.97 5.30747 -2.16749 0
M  V30 37249 H 3623.37 5.22347 -2.95421 0
M  V30 37250 H 3624.44 3.81062 -2.99866 0
M  V30 37251 N 3625.78 0.854133 1.32447 0
M  V30 37252 C 3627.03 0.457935 1.97562 0
M  V30 37253 C 3627.36 -0.983805 1.67436 0
M  V30 37254 O 3626.63 -1.69025 0.962322 0
M  V30 37255 C 3626.92 0.696943 3.53291 0
M  V30 37256 C 3626.77 2.18706 3.93049 0
M  V30 37257 C 3628.09 0.152994 4.39834 0
M  V30 37258 H 3625.21 0.167855 0.717631 0
M  V30 37259 H 3627.85 1.07246 1.56838 0
M  V30 37260 H 3626 0.173875 3.88111 0
M  V30 37261 H 3627.67 2.77617 3.68411 0
M  V30 37262 H 3625.91 2.66576 3.42227 0
M  V30 37263 H 3626.59 2.30499 5.01572 0
M  V30 37264 H 3629.06 0.600288 4.11747 0
M  V30 37265 H 3627.94 0.349799 5.47784 0
M  V30 37266 H 3628.2 -0.9442 4.319 0
M  V30 37267 N 3627.26 -1.45231 0.61202 0
M  V30 37268 C 3628.67 -1.57195 0.276033 0
M  V30 37269 C 3628.87 -1.60268 -1.22133 0
M  V30 37270 O 3627.93 -1.53537 -2.00456 0
M  V30 37271 C 3629.24 -2.85262 0.951115 0
M  V30 37272 C 3630.79 -2.98944 0.92745 0
M  V30 37273 C 3631.27 -4.29787 1.58263 0
M  V30 37274 N 3632.76 -4.36556 1.54832 0
M  V30 37275 C 3633.49 -5.36476 2.02438 0
M  V30 37276 N 3632.99 -6.42908 2.58149 0
M  V30 37277 N 3634.78 -5.27862 1.93179 0
M  V30 37278 H 3626.93 -1.4148 1.58421 0
M  V30 37279 H 3629.19 -0.676722 0.663891 0
M  V30 37280 H 3628.9 -2.88908 2.00562 0
M  V30 37281 H 3628.77 -3.7417 0.477109 0
M  V30 37282 H 3631.16 -2.94862 -0.118519 0
M  V30 37283 H 3631.24 -2.11434 1.43976 0
M  V30 37284 H 3630.89 -4.34628 2.62795 0
M  V30 37285 H 3630.82 -5.16121 1.0453 0
M  V30 37286 H 3633.31 -3.60251 1.14139 0
M  V30 37287 H 3633.62 -7.15407 2.92256 0
M  V30 37288 H 3631.97 -6.43647 2.6219 0
M  V30 37289 H 3635.16 -4.43621 1.49392 0
M  V30 37290 H 3635.33 -6.05583 2.30593 0
M  V30 37291 N 3628.74 -0.351436 -1.53632 0
M  V30 37292 C 3629.98 0.242173 -2.00644 0
M  V30 37293 C 3630.3 1.50433 -1.24077 0
M  V30 37294 O 3629.57 1.92746 -0.350101 0
M  V30 37295 H 3628.15 0.0924774 -0.741254 0
M  V30 37296 H 3630.82 -0.474412 -1.89038 0
M  V30 37297 H 3629.91 0.479097 -3.08401 0
M  V30 37298 N 3630.21 1.57396 -0.0802459 0
M  V30 37299 C 3631.12 2.1671 0.898559 0
M  V30 37300 C 3632.14 1.13252 1.32098 0
M  V30 37301 O 3633.32 1.45557 1.39195 0
M  V30 37302 C 3630.38 2.72383 2.14496 0
M  V30 37303 C 3629.44 3.90743 1.77815 0
M  V30 37304 C 3628.67 4.43752 2.96513 0
M  V30 37305 O 3628.9 3.95737 4.1079 0
M  V30 37306 O 3627.83 5.34973 2.7584 0
M  V30 37307 H 3631.66 3.00726 0.423974 0
M  V30 37308 H 3629.24 1.48711 0.143294 0
M  V30 37309 H 3631.12 3.08029 2.87569 0
M  V30 37310 H 3629.8 1.91421 2.61036 0
M  V30 37311 H 3628.71 3.59935 1.01967 0
M  V30 37312 H 3630.04 4.73023 1.36051 0
M  V30 37313 N 3631.69 -0.193366 1.56409 0
M  V30 37314 C 3632.64 -1.23964 1.94683 0
M  V30 37315 C 3633.61 -1.45142 0.80766 0
M  V30 37316 O 3634.79 -1.58246 1.06596 0
M  V30 37317 C 3631.93 -2.57897 2.29311 0
M  V30 37318 C 3631.05 -2.44283 3.563 0
M  V30 37319 C 3630.18 -3.70931 3.80242 0
M  V30 37320 C 3629.22 -3.52158 5.00651 0
M  V30 37321 N 3628.36 -4.70821 5.20837 0
M  V30 37322 H 3633.2 -0.906248 2.83886 0
M  V30 37323 H 3630.73 -0.436121 1.40486 0
M  V30 37324 H 3632.69 -3.35927 2.47404 0
M  V30 37325 H 3631.32 -2.89276 1.43246 0
M  V30 37326 H 3630.37 -1.57541 3.46244 0
M  V30 37327 H 3631.69 -2.26346 4.44487 0
M  V30 37328 H 3630.84 -4.57401 3.98583 0
M  V30 37329 H 3629.58 -3.91824 2.90388 0
M  V30 37330 H 3628.58 -2.64073 4.8223 0
M  V30 37331 H 3629.81 -3.32708 5.92015 0
M  V30 37332 H 3627.76 -4.91975 4.33932 0
M  V30 37333 H 3627.67 -4.55716 6.03207 0
M  V30 37334 H 3628.94 -5.58638 5.43639 0
M  V30 37335 N 3633.17 -1.50702 -0.461142 0
M  V30 37336 C 3634.13 -1.69728 -1.54029 0
M  V30 37337 C 3635.13 -0.567734 -1.50444 0
M  V30 37338 O 3636.32 -0.834928 -1.52888 0
M  V30 37339 C 3633.45 -1.73173 -2.93639 0
M  V30 37340 H 3634.65 -2.66017 -1.38474 0
M  V30 37341 H 3632.2 -1.40333 -0.68821 0
M  V30 37342 H 3632.94 -0.786133 -3.14627 0
M  V30 37343 H 3632.72 -2.55241 -2.97648 0
M  V30 37344 H 3634.21 -1.89813 -3.71969 0
M  V30 37345 N 3634.65 0.715001 -1.40447 0
M  V30 37346 C 3636.06 1.02315 -1.2249 0
M  V30 37347 C 3636.26 2.01249 -0.100516 0
M  V30 37348 O 3635.32 2.46627 0.541404 0
M  V30 37349 C 3636.63 1.56631 -2.56685 0
M  V30 37350 C 3638.18 1.68613 -2.63702 0
M  V30 37351 C 3638.66 2.26335 -3.98167 0
M  V30 37352 N 3640.15 2.3372 -3.99912 0
M  V30 37353 C 3640.88 2.79366 -5.00742 0
M  V30 37354 N 3640.38 3.2476 -6.11966 0
M  V30 37355 N 3642.17 2.78755 -4.8811 0
M  V30 37356 H 3634.32 0.0592339 -2.12317 0
M  V30 37357 H 3636.58 0.0888784 -0.943824 0
M  V30 37358 H 3636.29 0.913976 -3.39616 0
M  V30 37359 H 3636.16 2.55146 -2.77814 0
M  V30 37360 H 3638.55 2.32963 -1.81142 0
M  V30 37361 H 3638.63 0.686961 -2.46403 0
M  V30 37362 H 3638.28 1.62606 -4.81167 0
M  V30 37363 H 3638.21 3.26966 -4.12796 0
M  V30 37364 H 3640.7 2.0166 -3.19596 0
M  V30 37365 H 3641.01 3.58159 -6.84793 0
M  V30 37366 H 3639.36 3.22718 -6.15531 0
M  V30 37367 H 3642.55 2.42628 -4.00311 0
M  V30 37368 H 3642.72 3.14013 -5.66833 0
M  V30 37369 N 3636.13 1.25954 0.947281 0
M  V30 37370 C 3637.07 1.0698 2.04509 0
M  V30 37371 C 3638.04 -0.0233178 1.66084 0
M  V30 37372 O 3639.23 0.13528 1.9032 0
M  V30 37373 C 3636.37 0.702379 3.37877 0
M  V30 37374 C 3635.48 1.87112 3.89375 0
M  V30 37375 C 3634.62 1.44737 5.11101 0
M  V30 37376 C 3633.65 2.58479 5.54847 0
M  V30 37377 N 3632.79 2.16829 6.6778 0
M  V30 37378 H 3637.63 2.00929 2.20071 0
M  V30 37379 H 3635.17 1.00049 1.07836 0
M  V30 37380 H 3637.13 0.470272 4.14541 0
M  V30 37381 H 3635.76 -0.200133 3.22179 0
M  V30 37382 H 3634.81 2.21633 3.09165 0
M  V30 37383 H 3636.12 2.72503 4.17784 0
M  V30 37384 H 3635.27 1.17535 5.95206 0
M  V30 37385 H 3634.01 0.564276 4.84425 0
M  V30 37386 H 3633.02 2.86417 4.69303 0
M  V30 37387 H 3634.24 3.47378 5.83528 0
M  V30 37388 H 3632.19 1.30945 6.42798 0
M  V30 37389 H 3632.11 2.95765 6.95743 0
M  V30 37390 H 3633.37 1.92822 7.55275 0
M  V30 37391 N 3637.6 -1.15097 1.07659 0
M  V30 37392 C 3638.85 -1.8559 0.800058 0
M  V30 37393 C 3639.17 -1.8291 -0.675941 0
M  V30 37394 O 3638.44 -1.2722 -1.48969 0
M  V30 37395 H 3637.02 -0.687152 0.29297 0
M  V30 37396 H 3639.69 -1.39511 1.36098 0
M  V30 37397 H 3638.78 -2.90637 1.13738 0
M  V30 37398 N 3639.08 -0.861145 -1.31993 0
M  V30 37399 C 3640.03 -0.308516 -2.28729 0
M  V30 37400 C 3641 0.588121 -1.55339 0
M  V30 37401 O 3642.18 0.521648 -1.83531 0
M  V30 37402 C 3639.32 0.491561 -3.41581 0
M  V30 37403 C 3638.44 -0.431598 -4.29839 0
M  V30 37404 C 3637.57 0.381743 -5.29827 0
M  V30 37405 C 3636.61 -0.538403 -6.09728 0
M  V30 37406 N 3635.75 0.23815 -7.01696 0
M  V30 37407 H 3640.59 -1.13867 -2.75387 0
M  V30 37408 H 3638.13 -0.572934 -1.35484 0
M  V30 37409 H 3640.08 0.971122 -4.0574 0
M  V30 37410 H 3638.71 1.28649 -2.96056 0
M  V30 37411 H 3637.77 -1.02957 -3.66202 0
M  V30 37412 H 3639.08 -1.13751 -4.85656 0
M  V30 37413 H 3638.23 0.924191 -5.9962 0
M  V30 37414 H 3636.97 1.12099 -4.74642 0
M  V30 37415 H 3635.98 -1.09268 -5.38833 0
M  V30 37416 H 3637.2 -1.27636 -6.66998 0
M  V30 37417 H 3635.15 0.960372 -6.48932 0
M  V30 37418 H 3635.06 -0.408599 -7.54895 0
M  V30 37419 H 3636.33 0.762115 -7.75765 0
M  V30 37420 N 3640.56 1.44905 -0.619713 0
M  V30 37421 C 3641.79 2.07025 -0.124635 0
M  V30 37422 C 3642.21 1.45921 1.18695 0
M  V30 37423 O 3641.57 0.556396 1.72551 0
M  V30 37424 C 3641.62 3.60598 -0.0112872 0
M  V30 37425 O 3640.72 3.99182 1.03575 0
M  V30 37426 H 3640.06 0.659215 -0.0795747 0
M  V30 37427 H 3642.59 1.85963 -0.85316 0
M  V30 37428 H 3642.6 4.07589 0.183008 0
M  V30 37429 H 3641.28 4.04456 -0.96892 0
M  V30 37430 H 3639.85 3.63841 0.816944 0
M  V30 37431 N 3642.04 0.359579 1.53443 0
M  V30 37432 C 3643.26 -0.23554 2.06058 0
M  V30 37433 C 3643.69 -1.42158 1.23177 0
M  V30 37434 O 3643.05 -1.79577 0.24937 0
M  V30 37435 C 3643.09 -0.612963 3.55352 0
M  V30 37436 O 3642.2 -1.71098 3.75232 0
M  V30 37437 H 3641.54 -0.035715 0.663039 0
M  V30 37438 H 3644.07 0.518443 1.97923 0
M  V30 37439 H 3644.08 -0.885652 3.98272 0
M  V30 37440 H 3642.75 0.254316 4.15122 0
M  V30 37441 H 3641.33 -1.43431 3.44212 0
M  V30 37442 N 3643.52 -1.57351 0.0885919 0
M  V30 37443 C 3644.74 -1.98872 -0.588606 0
M  V30 37444 C 3645.17 -0.967153 -1.61331 0
M  V30 37445 O 3644.52 0.0651831 -1.81183 0
M  V30 37446 C 3644.57 -3.39381 -1.21871 0
M  V30 37447 O 3643.68 -3.39959 -2.33456 0
M  V30 37448 H 3643.02 -0.646852 -0.149927 0
M  V30 37449 H 3645.55 -2.03908 0.168079 0
M  V30 37450 H 3645.56 -3.76934 -1.56157 0
M  V30 37451 H 3644.23 -4.13259 -0.467964 0
M  V30 37452 H 3642.81 -3.14195 -2.00838 0
M  V30 37453 N 3644.99 0.185069 -1.5651 0
M  V30 37454 C 3645.96 1.21301 -1.9447 0
M  V30 37455 C 3646.96 1.37912 -0.826862 0
M  V30 37456 O 3648.15 1.35552 -1.09413 0
M  V30 37457 C 3645.28 2.58059 -2.22751 0
M  V30 37458 H 3646.47 0.888273 -2.86443 0
M  V30 37459 H 3644.03 0.426986 -1.50355 0
M  V30 37460 H 3644.76 2.95571 -1.33448 0
M  V30 37461 H 3644.55 2.47372 -3.04219 0
M  V30 37462 H 3646.04 3.32168 -2.5309 0
M  V30 37463 N 3646.47 1.50945 0.453144 0
M  V30 37464 C 3647.4 1.67289 1.56675 0
M  V30 37465 C 3648.42 0.55388 1.53088 0
M  V30 37466 O 3649.61 0.827681 1.58151 0
M  V30 37467 C 3646.71 1.65784 2.95582 0
M  V30 37468 C 3645.88 2.94012 3.23845 0
M  V30 37469 C 3644.94 2.84907 4.42396 0
M  V30 37470 O 3643.96 3.58861 4.41823 0
M  V30 37471 N 3645.17 1.9968 5.45076 0
M  V30 37472 H 3647.93 2.63349 1.43064 0
M  V30 37473 H 3645.49 1.48633 0.641849 0
M  V30 37474 H 3647.48 1.57281 3.72887 0
M  V30 37475 H 3646.05 0.773844 3.0287 0
M  V30 37476 H 3645.27 3.16505 2.34986 0
M  V30 37477 H 3646.56 3.78926 3.39548 0
M  V30 37478 H 3645.96 1.38943 5.48371 0
M  V30 37479 H 3644.52 1.97068 6.21295 0
M  V30 37480 N 3647.95 -0.707543 1.40825 0
M  V30 37481 C 3648.88 -1.83263 1.3765 0
M  V30 37482 C 3649.9 -1.60364 0.280575 0
M  V30 37483 O 3651.08 -1.70089 0.541483 0
M  V30 37484 C 3648.18 -3.19814 1.12126 0
M  V30 37485 C 3647.36 -3.69842 2.33529 0
M  V30 37486 C 3646.42 -4.85029 2.04043 0
M  V30 37487 O 3645.44 -4.97263 2.7698 0
M  V30 37488 N 3646.64 -5.71409 1.02332 0
M  V30 37489 H 3649.41 -1.86482 2.34615 0
M  V30 37490 H 3646.97 -0.889401 1.35282 0
M  V30 37491 H 3648.96 -3.9448 0.903732 0
M  V30 37492 H 3647.53 -3.11693 0.237996 0
M  V30 37493 H 3646.75 -2.86217 2.7106 0
M  V30 37494 H 3648.04 -4.00004 3.14443 0
M  V30 37495 H 3647.44 -5.64143 0.41941 0
M  V30 37496 H 3646 -6.46026 0.865685 0
M  V30 37497 N 3649.43 -1.26454 -0.940588 0
M  V30 37498 C 3650.38 -1.08063 -2.03939 0
M  V30 37499 C 3651.35 0.0145096 -1.66094 0
M  V30 37500 O 3652.53 -0.145371 -1.90245 0
M  V30 37501 C 3649.67 -0.720287 -3.37499 0
M  V30 37502 C 3648.78 -1.89174 -3.88378 0
M  V30 37503 C 3647.92 -1.47445 -5.10327 0
M  V30 37504 C 3646.96 -2.61418 -5.53468 0
M  V30 37505 N 3646.09 -2.20367 -6.6662 0
M  V30 37506 H 3650.93 -2.02094 -2.19003 0
M  V30 37507 H 3648.47 -1.0062 -1.07304 0
M  V30 37508 H 3650.43 -0.49225 -4.14286 0
M  V30 37509 H 3649.06 0.183044 -3.22281 0
M  V30 37510 H 3648.11 -2.23269 -3.07986 0
M  V30 37511 H 3649.42 -2.74715 -4.16333 0
M  V30 37512 H 3648.58 -1.2069 -5.94575 0
M  V30 37513 H 3647.32 -0.589958 -4.84119 0
M  V30 37514 H 3646.32 -2.88902 -4.67777 0
M  V30 37515 H 3647.55 -3.50468 -5.81678 0
M  V30 37516 H 3645.49 -1.34352 -6.42095 0
M  V30 37517 H 3645.41 -2.99451 -6.94165 0
M  V30 37518 H 3646.68 -1.96825 -7.54242 0
M  V30 37519 N 3650.91 1.14525 -1.08268 0
M  V30 37520 C 3652.13 1.89394 -0.832914 0
M  V30 37521 C 3652.55 1.7851 0.614792 0
M  V30 37522 O 3651.91 1.14345 1.42237 0
M  V30 37523 C 3651.96 3.39419 -1.24406 0
M  V30 37524 O 3651.68 3.50001 -2.63497 0
M  V30 37525 C 3653.18 4.31288 -1.02495 0
M  V30 37526 H 3650.4 0.599959 -0.300484 0
M  V30 37527 H 3652.94 1.45048 -1.44158 0
M  V30 37528 H 3651.1 3.81394 -0.679533 0
M  V30 37529 H 3651.51 4.43177 -2.80525 0
M  V30 37530 H 3652.99 5.34932 -1.36204 0
M  V30 37531 H 3653.46 4.39183 0.0381189 0
M  V30 37532 H 3654.07 3.95068 -1.57484 0
M  V30 37533 N 3652.39 0.868133 1.31534 0
M  V30 37534 C 3653.63 0.478863 1.97065 0
M  V30 37535 C 3653.96 -0.965991 1.6847 0
M  V30 37536 O 3653.24 -1.67995 0.980195 0
M  V30 37537 C 3653.52 0.734375 3.52532 0
M  V30 37538 C 3653.38 2.22863 3.90707 0
M  V30 37539 C 3654.69 0.199636 4.39647 0
M  V30 37540 H 3651.81 0.175457 0.71581 0
M  V30 37541 H 3654.46 1.08904 1.55692 0
M  V30 37542 H 3652.61 0.21503 3.87904 0
M  V30 37543 H 3654.28 2.81509 3.65446 0
M  V30 37544 H 3652.52 2.70191 3.39381 0
M  V30 37545 H 3653.19 2.35806 4.99099 0
M  V30 37546 H 3655.67 0.643926 4.11087 0
M  V30 37547 H 3654.54 0.407879 5.47382 0
M  V30 37548 H 3654.8 -0.898338 4.32877 0
M  V30 37549 N 3653.86 -1.44574 0.627389 0
M  V30 37550 C 3655.09 -2.06956 0.135612 0
M  V30 37551 C 3655.51 -1.46549 -1.1792 0
M  V30 37552 O 3654.87 -0.565539 -1.72254 0
M  V30 37553 C 3654.92 -3.60587 0.0304104 0
M  V30 37554 O 3654.02 -3.99725 -1.01457 0
M  V30 37555 H 3653.36 -0.658783 0.0830695 0
M  V30 37556 H 3655.89 -1.85508 0.86301 0
M  V30 37557 H 3655.9 -4.07681 -0.16139 0
M  V30 37558 H 3654.58 -4.03937 0.990356 0
M  V30 37559 H 3653.16 -3.64269 -0.797637 0
M  V30 37560 N 3655.34 -0.367711 -1.5325 0
M  V30 37561 C 3656.57 0.224609 -2.0618 0
M  V30 37562 C 3656.99 1.41503 -1.23929 0
M  V30 37563 O 3656.35 1.79442 -0.25889 0
M  V30 37564 C 3656.4 0.594109 -3.55672 0
M  V30 37565 O 3655.5 1.69105 -3.76135 0
M  V30 37566 H 3654.84 0.0321982 -0.663219 0
M  V30 37567 H 3657.37 -0.528932 -1.97645 0
M  V30 37568 H 3657.38 0.864518 -3.98736 0
M  V30 37569 H 3656.06 -0.276327 -4.14981 0
M  V30 37570 H 3654.63 1.41603 -3.44968 0
M  V30 37571 N 3656.82 1.57302 -0.0969353 0
M  V30 37572 C 3658.05 1.98759 0.57467 0
M  V30 37573 C 3658.46 0.976096 1.6161 0
M  V30 37574 O 3657.82 -0.0340482 1.82468 0
M  V30 37575 C 3657.87 3.40265 1.22072 0
M  V30 37576 O 3657.59 4.37543 0.220945 0
M  V30 37577 C 3659.09 3.96736 1.97776 0
M  V30 37578 H 3656.31 0.653107 0.153923 0
M  V30 37579 H 3658.86 2.03735 -0.176766 0
M  V30 37580 H 3657.01 3.36298 1.92308 0
M  V30 37581 H 3657.43 5.19975 0.687492 0
M  V30 37582 H 3658.9 4.97895 2.38337 0
M  V30 37583 H 3659.38 3.34655 2.84434 0
M  V30 37584 H 3659.98 4.04182 1.32353 0
M  V30 37585 N 3658.3 -0.176766 1.56606 0
M  V30 37586 C 3659.24 -1.21893 1.95987 0
M  V30 37587 C 3660.21 -1.44277 0.823009 0
M  V30 37588 O 3661.4 -1.57107 1.08268 0
M  V30 37589 C 3658.54 -2.5545 2.32033 0
M  V30 37590 C 3657.65 -2.40491 3.58871 0
M  V30 37591 C 3656.79 -3.66877 3.84154 0
M  V30 37592 C 3655.83 -3.46828 5.04358 0
M  V30 37593 N 3654.96 -4.65271 5.25802 0
M  V30 37594 H 3659.8 -0.876087 2.84831 0
M  V30 37595 H 3657.34 -0.421196 1.40941 0
M  V30 37596 H 3659.3 -3.33284 2.50953 0
M  V30 37597 H 3657.93 -2.8774 1.46306 0
M  V30 37598 H 3656.98 -1.5386 3.47896 0
M  V30 37599 H 3658.29 -2.21619 4.46863 0
M  V30 37600 H 3657.45 -4.53148 4.03412 0
M  V30 37601 H 3656.19 -3.88722 2.94527 0
M  V30 37602 H 3655.19 -2.58943 4.85004 0
M  V30 37603 H 3656.42 -3.26411 5.95511 0
M  V30 37604 H 3654.36 -4.87345 4.39125 0
M  V30 37605 H 3654.28 -4.49292 6.08007 0
M  V30 37606 H 3655.55 -5.52841 5.49534 0
M  V30 37607 N 3659.78 -1.51183 -0.445132 0
M  V30 37608 C 3660.71 -1.74877 -1.54727 0
M  V30 37609 C 3661.69 -0.598351 -1.59229 0
M  V30 37610 O 3662.87 -0.84025 -1.75081 0
M  V30 37611 C 3660 -1.86669 -2.92868 0
M  V30 37612 C 3658.96 -3.02053 -3.03229 0
M  V30 37613 C 3658.28 -2.9902 -4.43274 0
M  V30 37614 C 3659.58 -4.42149 -2.78032 0
M  V30 37615 H 3661.28 -2.6716 -1.35151 0
M  V30 37616 H 3658.82 -1.28559 -0.648741 0
M  V30 37617 H 3660.77 -2.01828 -3.69923 0
M  V30 37618 H 3659.5 -0.910281 -3.13658 0
M  V30 37619 H 3658.16 -2.86587 -2.28612 0
M  V30 37620 H 3657.81 -2.01171 -4.6102 0
M  V30 37621 H 3657.51 -3.76496 -4.51137 0
M  V30 37622 H 3659.03 -3.16261 -5.22313 0
M  V30 37623 H 3660.44 -4.58006 -3.44823 0
M  V30 37624 H 3658.84 -5.21272 -2.97314 0
M  V30 37625 H 3659.91 -4.52724 -1.73692 0
M  V30 37626 N 3661.25 0.700065 -1.41198 0
M  V30 37627 C 3662.5 1.46225 -1.40521 0
M  V30 37628 C 3662.83 1.94196 -0.0126449 0
M  V30 37629 O 3662.11 1.69225 0.958807 0
M  V30 37630 C 3662.39 2.67733 -2.40813 0
M  V30 37631 C 3662.24 2.25557 -3.89158 0
M  V30 37632 C 3663.56 3.69923 -2.38422 0
M  V30 37633 H 3660.68 0.530375 -0.511733 0
M  V30 37634 H 3663.32 0.797724 -1.72442 0
M  V30 37635 H 3661.47 3.2443 -2.13723 0
M  V30 37636 H 3663.15 1.74222 -4.27135 0
M  V30 37637 H 3661.39 1.57388 -4.04242 0
M  V30 37638 H 3662.06 3.12723 -4.54872 0
M  V30 37639 H 3664.54 3.2289 -2.62452 0
M  V30 37640 H 3663.41 4.52558 -3.10617 0
M  V30 37641 H 3663.67 4.19306 -1.40123 0
M  V30 37642 N 3662.73 1.26951 0.933869 0
M  V30 37643 C 3663.96 1.15831 1.7204 0
M  V30 37644 C 3664.38 -0.281897 1.85976 0
M  V30 37645 O 3663.74 -1.20421 1.35531 0
M  V30 37646 C 3663.79 1.84025 3.10108 0
M  V30 37647 O 3662.89 1.13401 3.96502 0
M  V30 37648 H 3662.23 0.4032 0.527566 0
M  V30 37649 H 3664.76 1.67907 1.16911 0
M  V30 37650 H 3664.77 1.91139 3.60458 0
M  V30 37651 H 3663.45 2.88796 2.99282 0
M  V30 37652 H 3662.02 1.14313 3.54946 0
M  V30 37653 N 3664.21 -1.13949 1.08873 0
M  V30 37654 C 3665.46 -1.85096 0.821319 0
M  V30 37655 C 3665.78 -1.83211 -0.652987 0
M  V30 37656 O 3665.04 -1.26136 -1.49627 0
M  V30 37657 C 3665.34 -3.33133 1.29449 0
M  V30 37658 C 3665 -3.55203 2.77743 0
M  V30 37659 C 3663.67 -3.60935 3.18244 0
M  V30 37660 C 3666.02 -3.63638 3.73386 0
M  V30 37661 C 3663.35 -3.72629 4.53172 0
M  V30 37662 C 3665.7 -3.76858 5.08095 0
M  V30 37663 C 3664.36 -3.8084 5.48194 0
M  V30 37664 H 3663.63 -0.677315 0.300542 0
M  V30 37665 H 3666.28 -1.34565 1.36251 0
M  V30 37666 H 3664.58 -3.85977 0.672987 0
M  V30 37667 H 3666.28 -3.86619 1.06427 0
M  V30 37668 H 3662.87 -3.51393 2.45399 0
M  V30 37669 H 3667.06 -3.58495 3.43213 0
M  V30 37670 H 3662.31 -3.73976 4.83686 0
M  V30 37671 H 3666.49 -3.82327 5.82065 0
M  V30 37672 H 3664.11 -3.89654 6.52743 0
M  V30 37673 N 3665.69 -0.875096 -1.31072 0
M  V30 37674 C 3666.64 -0.306144 -2.25935 0
M  V30 37675 C 3667.62 0.559755 -1.50849 0
M  V30 37676 O 3668.81 0.405794 -1.72286 0
M  V30 37677 C 3665.94 0.486936 -3.39829 0
M  V30 37678 C 3665.03 -0.392495 -4.2228 0
M  V30 37679 N 3665.42 -1.48836 -4.83406 0
M  V30 37680 C 3663.72 -0.18584 -4.45613 0
M  V30 37681 C 3664.42 -2.0311 -5.45088 0
M  V30 37682 N 3663.39 -1.3274 -5.27144 0
M  V30 37683 H 3667.2 -1.14364 -2.70736 0
M  V30 37684 H 3664.71 -0.723416 -1.45398 0
M  V30 37685 H 3666.71 0.9111 -4.06823 0
M  V30 37686 H 3665.37 1.32198 -2.9657 0
M  V30 37687 H 3666.38 -1.87126 -4.82912 0
M  V30 37688 H 3663.06 0.612837 -4.12978 0
M  V30 37689 H 3664.45 -2.95082 -6.03636 0
M  V30 37690 N 3667.17 1.44239 -0.635047 0
M  V30 37691 C 3668.44 1.95468 -0.0718407 0
M  V30 37692 C 3668.82 1.57691 1.40345 0
M  V30 37693 O 3668.17 0.852926 2.11985 0
M  V30 37694 C 3668.38 3.47718 -0.298854 0
M  V30 37695 C 3669.73 4.24156 -0.19413 0
M  V30 37696 O 3670.75 3.55454 -0.230431 0
M  V30 37697 O 3669.61 5.46404 -0.10239 0
M  V30 37698 H 3666.71 0.826757 0.0200638 0
M  V30 37699 H 3669.25 1.5427 -0.707024 0
M  V30 37700 H 3668.02 3.68278 -1.32239 0
M  V30 37701 H 3667.65 3.95872 0.370278 0
M  V30 37702 N 3668.64 0.375833 1.53053 0
M  V30 37703 C 3669.92 -0.267536 1.93762 0
M  V30 37704 C 3670.3 -1.65519 1.31022 0
M  V30 37705 O 3669.65 -2.23547 0.473178 0
M  V30 37706 C 3669.86 -0.307443 3.47643 0
M  V30 37707 C 3671.21 -0.542877 4.21115 0
M  V30 37708 O 3672.23 -0.388223 3.54078 0
M  V30 37709 O 3671.09 -0.844805 5.39931 0
M  V30 37710 H 3668.18 -0.162846 0.810808 0
M  V30 37711 H 3670.73 0.429362 1.64178 0
M  V30 37712 H 3669.5 0.665068 3.85607 0
M  V30 37713 H 3669.13 -1.04982 3.8349 0
M  V30 37714 N 3670.12 -1.57248 0.105276 0
M  V30 37715 C 3671.35 -1.99485 -0.56748 0
M  V30 37716 C 3671.77 -0.98421 -1.60296 0
M  V30 37717 O 3671.13 0.0459626 -1.81242 0
M  V30 37718 C 3671.18 -3.40655 -1.18265 0
M  V30 37719 O 3670.28 -3.42416 -2.29837 0
M  V30 37720 H 3669.62 -0.648406 -0.143058 0
M  V30 37721 H 3672.15 -2.03719 0.189697 0
M  V30 37722 H 3672.16 -3.78569 -1.5215 0
M  V30 37723 H 3670.84 -4.13732 -0.424106 0
M  V30 37724 H 3669.42 -3.16307 -1.97495 0
M  V30 37725 N 3671.6 0.168458 -1.56697 0
M  V30 37726 C 3672.88 0.912067 -1.73034 0
M  V30 37727 C 3673.26 2.0027 -0.667459 0
M  V30 37728 O 3672.61 2.26287 0.317268 0
M  V30 37729 C 3672.82 1.47419 -3.16337 0
M  V30 37730 C 3674.16 1.94599 -3.77381 0
M  V30 37731 O 3675.19 1.57206 -3.19632 0
M  V30 37732 O 3674.05 2.63489 -4.78786 0
M  V30 37733 H 3671.14 0.429505 -0.706721 0
M  V30 37734 H 3673.69 0.156063 -1.68981 0
M  V30 37735 H 3672.46 0.689354 -3.8518 0
M  V30 37736 H 3672.08 2.29429 -3.24727 0
M  V30 37737 N 3673.08 1.51417 0.437109 0
M  V30 37738 C 3673.99 1.75592 1.55578 0
M  V30 37739 C 3675 0.64016 1.61796 0
M  V30 37740 O 3676.18 0.922437 1.79034 0
M  V30 37741 C 3673.25 1.87603 2.91558 0
M  V30 37742 C 3672.31 3.11456 2.95455 0
M  V30 37743 C 3671.54 3.22885 4.24948 0
M  V30 37744 O 3671.76 2.40247 5.17337 0
M  V30 37745 O 3670.7 4.15864 4.35133 0
M  V30 37746 H 3674.52 2.70488 1.38093 0
M  V30 37747 H 3672.11 1.35921 0.620139 0
M  V30 37748 H 3673.99 1.97488 3.72259 0
M  V30 37749 H 3672.66 0.958944 3.0917 0
M  V30 37750 H 3671.57 3.0705 2.13708 0
M  V30 37751 H 3672.9 4.02855 2.82787 0
M  V30 37752 N 3674.56 -0.692567 1.41567 0
M  V30 37753 C 3675.83 -1.44732 1.31575 0
M  V30 37754 C 3676.21 -2.11028 -0.055271 0
M  V30 37755 O 3675.56 -2.01915 -1.0697 0
M  V30 37756 C 3675.77 -2.4643 2.4713 0
M  V30 37757 C 3677.12 -3.11595 2.88433 0
M  V30 37758 O 3678.14 -2.56755 2.46891 0
M  V30 37759 O 3677 -4.10929 3.60278 0
M  V30 37760 H 3674.1 -0.644706 0.517961 0
M  V30 37761 H 3676.64 -0.722791 1.53538 0
M  V30 37762 H 3675.41 -1.96118 3.38605 0
M  V30 37763 H 3675.04 -3.26389 2.27059 0
M  V30 37764 N 3676.03 -1.27445 -0.927123 0
M  V30 37765 C 3676.96 -1.12738 -2.04481 0
M  V30 37766 C 3677.95 -0.0286961 -1.70076 0
M  V30 37767 O 3679.13 -0.203286 -1.93133 0
M  V30 37768 C 3676.26 -0.774411 -3.38556 0
M  V30 37769 C 3675.21 -1.82639 -3.87075 0
M  V30 37770 C 3674.54 -1.32738 -5.17962 0
M  V30 37771 C 3675.84 -3.23058 -4.10403 0
M  V30 37772 H 3677.53 -2.06235 -2.17043 0
M  V30 37773 H 3675.08 -0.992956 -1.0429 0
M  V30 37774 H 3677.03 -0.658346 -4.16226 0
M  V30 37775 H 3675.76 0.196263 -3.2601 0
M  V30 37776 H 3674.42 -1.93137 -3.11598 0
M  V30 37777 H 3674.06 -0.346147 -5.01808 0
M  V30 37778 H 3673.76 -2.03071 -5.51395 0
M  V30 37779 H 3675.29 -1.22427 -5.98201 0
M  V30 37780 H 3676.7 -3.15558 -4.7864 0
M  V30 37781 H 3675.1 -3.91107 -4.55143 0
M  V30 37782 H 3676.17 -3.68069 -3.15679 0
M  V30 37783 N 3677.51 1.1337 -1.09476 0
M  V30 37784 C 3678.44 2.20906 -0.75648 0
M  V30 37785 C 3679.42 1.68006 0.266083 0
M  V30 37786 O 3680.61 1.93737 0.134033 0
M  V30 37787 C 3677.74 3.4685 -0.176794 0
M  V30 37788 C 3676.69 4.12843 -1.12893 0
M  V30 37789 C 3676.02 5.33119 -0.410924 0
M  V30 37790 C 3677.32 4.60121 -2.47156 0
M  V30 37791 H 3679.01 2.4946 -1.6556 0
M  V30 37792 H 3676.56 1.19901 -0.797479 0
M  V30 37793 H 3678.51 4.21339 0.071941 0
M  V30 37794 H 3677.24 3.17694 0.75752 0
M  V30 37795 H 3675.89 3.40322 -1.36295 0
M  V30 37796 H 3675.54 5.00226 0.527544 0
M  V30 37797 H 3675.24 5.78219 -1.04578 0
M  V30 37798 H 3676.77 6.10362 -0.170502 0
M  V30 37799 H 3678.18 5.2603 -2.27959 0
M  V30 37800 H 3676.58 5.15963 -3.06434 0
M  V30 37801 H 3677.65 3.74616 -3.07881 0
M  V30 37802 N 3678.99 0.882035 1.30606 0
M  V30 37803 C 3679.94 0.318121 2.2577 0
M  V30 37804 C 3680.92 -0.551747 1.51144 0
M  V30 37805 O 3682.12 -0.396652 1.72498 0
M  V30 37806 C 3679.25 -0.468907 3.40083 0
M  V30 37807 C 3678.33 0.414884 4.22066 0
M  V30 37808 N 3678.72 1.51398 4.8261 0
M  V30 37809 C 3677.02 0.20947 4.45508 0
M  V30 37810 C 3677.72 2.05997 5.44004 0
M  V30 37811 N 3676.7 1.35533 5.26433 0
M  V30 37812 H 3680.5 1.15798 2.70126 0
M  V30 37813 H 3678.01 0.731117 1.45012 0
M  V30 37814 H 3680.01 -0.889512 4.073 0
M  V30 37815 H 3678.67 -1.30623 2.97267 0
M  V30 37816 H 3679.68 1.89685 4.81913 0
M  V30 37817 H 3676.36 -0.590927 4.13297 0
M  V30 37818 H 3677.75 2.98279 6.02063 0
M  V30 37819 N 3680.47 -1.439 0.642688 0
M  V30 37820 C 3681.72 -2.01147 0.149202 0
M  V30 37821 C 3682.03 -1.51234 -1.24048 0
M  V30 37822 O 3683.24 -2.00684 -1.82861 0
M  V30 37823 C 3681.69 -3.59252 0.215954 0
M  V30 37824 C 3681.3 -4.1816 1.60767 0
M  V30 37825 C 3683.04 -4.23927 -0.220471 0
M  V30 37826 C 3680.95 -5.68525 1.62891 0
M  V30 37827 H 3679.88 -0.752204 0.0520148 0
M  V30 37828 H 3682.53 -1.64989 0.803181 0
M  V30 37829 H 3680.91 -3.92762 -0.50534 0
M  V30 37830 H 3682.09 -3.96167 2.35347 0
M  V30 37831 H 3680.4 -3.65816 1.98916 0
M  V30 37832 H 3683 -5.34229 -0.224295 0
M  V30 37833 H 3683.34 -3.97091 -1.24996 0
M  V30 37834 H 3683.88 -3.95261 0.448716 0
M  V30 37835 H 3680.62 -6.00112 2.63715 0
M  V30 37836 H 3680.14 -5.92606 0.926208 0
M  V30 37837 H 3681.81 -6.32373 1.36797 0
M  V30 37838 O 3681.99 -0.526134 -1.52689 0
M  V30 37839 H 3682.68 -0.0151786 -1.93694 0
M  V30 END ATOM
M  V30 BEGIN BOND
M  V30 END BOND
M  V30 END CTAB
M  END
$$$$
