drugbank_target|P13073 Cytochrome c oxidase subunit 4 isoform 1, mitochondrial (DB02659; DB04464)
 OpenBabel12092120443D

  0  0  0     0  0            999 V3000
M  V30 BEGIN CTAB
M  V30 COUNTS 2768 2803 0 0 0
M  V30 BEGIN ATOM
M  V30 1 H -0.908 1.98254 -0.117106 0
M  V30 2 N 0 1.576 0 0
M  V30 3 C 0.933 2.03868 1.02534 0
M  V30 4 C 1.911 0.928543 1.3348 0
M  V30 5 O 3.095 1.19667 1.45644 0
M  V30 6 C 0.222 2.43627 2.35294 0
M  V30 7 C -0.732 3.65373 2.2001 0
M  V30 8 S 0.101 5.13292 1.52614 0
M  V30 9 C 1.257 5.56322 2.86805 0
M  V30 10 H 1.49 2.90518 0.631377 0
M  V30 11 H -0.977 1.52953 0.210867 0
M  V30 12 H 0.981 2.67203 3.11629 0
M  V30 13 H -0.358 1.57376 2.7183 0
M  V30 14 H -1.165 3.90944 3.18086 0
M  V30 15 H -1.563 3.418 1.51819 0
M  V30 16 H 0.729 5.58782 3.83104 0
M  V30 17 H 1.672 6.56266 2.65933 0
M  V30 18 H 2.08 4.83886 2.90714 0
M  V30 19 N 1.4781 -0.272755 1.55222 0
M  V30 20 C 2.4081 -1.34136 1.91127 0
M  V30 21 C 3.3891 -1.51513 0.773168 0
M  V30 22 O 4.5741 -1.64552 1.03132 0
M  V30 23 C 1.7041 -2.70083 2.1834 0
M  V30 24 C 0.6581 -2.67437 3.34158 0
M  V30 25 C -0.0159 -4.06938 3.46851 0
M  V30 26 C 1.2841 -2.26686 4.70543 0
M  V30 27 H 2.9781 -1.04333 2.80633 0
M  V30 28 H 0.5241 -0.500454 1.35024 0
M  V30 29 H 2.4771 -3.44952 2.42046 0
M  V30 30 H 1.2011 -3.01469 1.25634 0
M  V30 31 H -0.1399 -1.95026 3.1042 0
M  V30 32 H -0.4919 -4.35547 2.51611 0
M  V30 33 H -0.7919 -4.06062 4.2472 0
M  V30 34 H 0.7321 -4.83545 3.72849 0
M  V30 35 H 2.1461 -2.91277 4.93792 0
M  V30 36 H 0.5431 -2.36971 5.5133 0
M  V30 37 H 1.6131 -1.21818 4.69349 0
M  V30 38 N 2.9562 -1.48159 -0.537278 0
M  V30 39 C 3.9192 -1.61665 -1.62472 0
M  V30 40 C 4.9192 -0.490395 -1.5314 0
M  V30 41 O 6.1092 -0.755998 -1.5694 0
M  V30 42 C 3.2412 -1.57997 -3.02076 0
M  V30 43 H 4.4342 -2.58621 -1.51839 0
M  V30 44 H 1.9872 -1.36647 -0.758771 0
M  V30 45 H 2.7222 -0.624913 -3.18222 0
M  V30 46 H 2.5072 -2.39755 -3.10258 0
M  V30 47 H 3.9972 -1.70627 -3.81151 0
M  V30 48 N 4.4343 0.785586 -1.36625 0
M  V30 49 C 5.6623 1.57448 -1.3423 0
M  V30 50 C 6.0773 1.88649 0.0755653 0
M  V30 51 O 5.4343 1.50414 1.03354 0
M  V30 52 C 5.4853 2.89316 -2.16745 0
M  V30 53 O 5.2063 2.59459 -3.53005 0
M  V30 54 C 6.7073 3.83606 -2.22174 0
M  V30 55 H 3.9273 0.488226 -0.4603 0
M  V30 56 H 6.4713 0.974733 -1.79775 0
M  V30 57 H 4.6263 3.4575 -1.74745 0
M  V30 58 H 5.0403 3.43804 -3.96105 0
M  V30 59 H 6.5143 4.73181 -2.8426 0
M  V30 60 H 6.9913 4.21734 -1.22627 0
M  V30 61 H 7.5973 3.33104 -2.64427 0
M  V30 62 N 5.9124 1.20967 1.01018 0
M  V30 63 C 7.3284 0.965905 1.27053 0
M  V30 64 C 7.5284 -0.350785 1.98423 0
M  V30 65 O 6.5844 -1.07773 2.28344 0
M  V30 66 C 7.8974 2.15294 2.09926 0
M  V30 67 C 9.4454 2.19463 2.23171 0
M  V30 68 C 9.9204 3.3767 3.09424 0
M  V30 69 N 11.4114 3.37724 3.17012 0
M  V30 70 C 12.1464 4.25837 3.83993 0
M  V30 71 N 11.6424 5.24138 4.53047 0
M  V30 72 N 13.4354 4.1366 3.80581 0
M  V30 73 H 5.5864 2.0565 0.531194 0
M  V30 74 H 7.8494 0.90024 0.297106 0
M  V30 75 H 7.5554 3.10684 1.64828 0
M  V30 76 H 7.4294 2.13923 3.10672 0
M  V30 77 H 9.8164 1.24632 2.6749 0
M  V30 78 H 9.8974 2.2488 1.21912 0
M  V30 79 H 9.5414 4.32791 2.65808 0
M  V30 80 H 9.4714 3.29491 4.10784 0
M  V30 81 H 11.9624 2.6658 2.6785 0
M  V30 82 H 12.2754 5.87684 5.01844 0
M  V30 83 H 10.6204 5.28068 4.5185 0
M  V30 84 H 13.8114 3.36127 3.25785 0
M  V30 85 H 13.9844 4.82538 4.32505 0
M  V30 86 N 7.3905 -1.2043 1.01659 0
M  V30 87 C 8.6365 -1.90079 0.706963 0
M  V30 88 C 8.9695 -1.78648 -0.761474 0
M  V30 89 O 8.2445 -1.17069 -1.55323 0
M  V30 90 C 8.5275 -3.41469 1.14327 0
M  V30 91 C 8.3805 -3.61833 2.67201 0
M  V30 92 C 9.6995 -4.34261 0.714529 0
M  V30 93 H 6.8185 -0.690254 0.2583 0
M  V30 94 H 9.4605 -1.41826 1.26433 0
M  V30 95 H 7.6105 -3.82696 0.669056 0
M  V30 96 H 9.2825 -3.2986 3.22475 0
M  V30 97 H 7.5255 -3.05304 3.08175 0
M  V30 98 H 8.1965 -4.67955 2.92783 0
M  V30 99 H 10.6725 -4.00682 1.12221 0
M  V30 100 H 9.5485 -5.38806 1.04784 0
M  V30 101 H 9.8095 -4.40431 -0.383799 0
M  V30 102 N 8.8686 -0.792821 -1.36206 0
M  V30 103 C 10.1156 -0.366786 -1.99151 0
M  V30 104 C 10.4436 1.06243 -1.62919 0
M  V30 105 O 9.6986 1.74927 -0.877442 0
M  V30 106 C 9.9976 -0.481501 -3.54142 0
M  V30 107 C 9.6636 -1.87202 -4.10203 0
M  V30 108 C 8.3256 -2.25248 -4.25226 0
M  V30 109 C 10.6776 -2.78237 -4.40719 0
M  V30 110 C 8.0056 -3.53723 -4.68078 0
M  V30 111 C 10.3576 -4.06144 -4.85005 0
M  V30 112 C 9.0216 -4.44207 -4.98234 0
M  V30 113 H 8.2916 -0.134217 -0.728743 0
M  V30 114 H 10.9386 -1.01094 -1.62641 0
M  V30 115 H 9.2436 0.246146 -3.91026 0
M  V30 116 H 10.9406 -0.132844 -4.0078 0
M  V30 117 H 7.5306 -1.56639 -3.98951 0
M  V30 118 H 11.7146 -2.50097 -4.28679 0
M  V30 119 H 6.9706 -3.8308 -4.76508 0
M  V30 120 H 11.1446 -4.76796 -5.07581 0
M  V30 121 H 8.7716 -5.43814 -5.31197 0
M  V30 122 N 10.3467 1.47872 -0.545128 0
M  V30 123 C 11.5717 2.07391 -0.0190611 0
M  V30 124 C 11.9967 1.39688 1.25971 0
M  V30 125 O 11.3547 0.467816 1.7516 0
M  V30 126 C 11.4027 3.60188 0.172335 0
M  V30 127 O 10.5067 3.9339 1.23766 0
M  V30 128 H 9.8477 0.662411 -0.0459059 0
M  V30 129 H 12.3777 1.90066 -0.757365 0
M  V30 130 H 12.3877 4.06129 0.390305 0
M  V30 131 H 11.0627 4.08865 -0.761725 0
M  V30 132 H 9.6397 3.5921 1.00114 0
M  V30 133 N 11.8248 0.280983 1.55075 0
M  V30 134 C 12.7548 -0.597469 2.25727 0
M  V30 135 C 13.7358 -1.15417 1.24952 0
M  V30 136 O 14.9208 -1.18722 1.53684 0
M  V30 137 C 12.0508 -1.7789 2.98283 0
M  V30 138 C 11.0048 -1.35347 4.06036 0
M  V30 139 C 10.3308 -2.61846 4.66198 0
M  V30 140 C 11.6308 -0.499354 5.19907 0
M  V30 141 H 13.3248 -0.00824265 2.99399 0
M  V30 142 H 10.8708 -0.0025244 1.44 0
M  V30 143 H 12.8238 -2.39937 3.46422 0
M  V30 144 H 11.5478 -2.39405 2.22155 0
M  V30 145 H 10.2068 -0.756156 3.58717 0
M  V30 146 H 9.8548 -3.21632 3.86732 0
M  V30 147 H 9.5548 -2.3409 5.38958 0
M  V30 148 H 11.0788 -3.24732 5.1709 0
M  V30 149 H 12.4928 -1.02498 5.64063 0
M  V30 150 H 10.8898 -0.316424 5.99265 0
M  V30 151 H 11.9598 0.480459 4.82514 0
M  V30 152 N 13.3029 -1.57598 0.00835791 0
M  V30 153 C 14.5489 -1.91211 -0.675732 0
M  V30 154 C 14.8819 -0.883139 -1.72958 0
M  V30 155 O 14.1569 0.097016 -1.94258 0
M  V30 156 C 14.4399 -3.35379 -1.31123 0
M  V30 157 C 14.2929 -4.48999 -0.268356 0
M  V30 158 C 15.6119 -3.7912 -2.23508 0
M  V30 159 H 12.7309 -0.695374 -0.244179 0
M  V30 160 H 15.3729 -1.89901 0.0613655 0
M  V30 161 H 13.5229 -3.36626 -1.93946 0
M  V30 162 H 15.1949 -4.59887 0.360844 0
M  V30 163 H 13.4379 -4.31873 0.408482 0
M  V30 164 H 14.1089 -5.46851 -0.752218 0
M  V30 165 H 16.5849 -3.79477 -1.70693 0
M  V30 166 H 15.4609 -4.80729 -2.64936 0
M  V30 167 H 15.7219 -3.13455 -3.11766 0
M  V30 168 N 14.781 0.264519 -1.55364 0
M  V30 169 C 16.029 0.993021 -1.76021 0
M  V30 170 C 16.35 1.86511 -0.569099 0
M  V30 171 O 15.62 1.91438 0.415735 0
M  V30 172 H 14.2 0.369639 -0.649135 0
M  V30 173 H 16.862 0.286707 -1.9278 0
M  V30 174 H 15.958 1.62502 -2.66457 0
M  V30 175 N 16.2591 1.48442 0.529413 0
M  V30 176 C 17.2061 1.63007 1.63394 0
M  V30 177 C 18.1761 0.47212 1.59249 0
M  V30 178 O 19.3611 0.695673 1.77666 0
M  V30 179 C 16.5011 1.6763 3.01653 0
M  V30 180 C 15.6141 2.94535 3.16027 0
M  V30 181 C 14.7491 2.90316 4.44849 0
M  V30 182 C 13.7881 4.11923 4.52754 0
M  V30 183 N 12.9251 4.05777 5.72965 0
M  V30 184 H 17.7651 2.5733 1.50285 0
M  V30 185 H 15.3021 1.27613 0.731656 0
M  V30 186 H 17.2601 1.68292 3.81751 0
M  V30 187 H 15.8901 0.76797 3.13532 0
M  V30 188 H 14.9421 3.03615 2.29177 0
M  V30 189 H 16.2541 3.84512 3.17729 0
M  V30 190 H 15.4081 2.89382 5.33238 0
M  V30 191 H 14.1471 1.98068 4.45668 0
M  V30 192 H 13.1521 4.13131 3.62771 0
M  V30 193 H 14.3771 5.0533 4.53672 0
M  V30 194 H 12.3231 3.16351 5.74681 0
M  V30 195 H 12.2401 4.8946 5.76164 0
M  V30 196 H 13.5081 4.08904 6.6364 0
M  V30 197 N 17.7372 -0.778329 1.37039 0
M  V30 198 C 19.1532 -1.07796 1.17695 0
M  V30 199 C 19.3532 -2.01498 0.00860115 0
M  V30 200 O 18.4092 -2.43901 -0.653352 0
M  V30 201 C 19.7222 -1.68178 2.49272 0
M  V30 202 C 21.2702 -1.80467 2.55735 0
M  V30 203 C 21.7452 -2.44263 3.87427 0
M  V30 204 N 23.2362 -2.51721 3.88833 0
M  V30 205 C 23.9712 -3.01919 4.87476 0
M  V30 206 N 23.4672 -3.5234 5.96513 0
M  V30 207 N 25.2602 -3.00733 4.74885 0
M  V30 208 H 17.4112 -0.156032 2.11826 0
M  V30 209 H 19.6742 -0.131844 0.938787 0
M  V30 210 H 19.3802 -1.06796 3.35093 0
M  V30 211 H 19.2542 -2.67554 2.65885 0
M  V30 212 H 21.6412 -2.40984 1.70325 0
M  V30 213 H 21.7222 -0.798656 2.43013 0
M  V30 214 H 21.3662 -1.84388 4.73248 0
M  V30 215 H 21.2962 -3.45458 3.9745 0
M  V30 216 H 23.7872 -2.1603 3.10063 0
M  V30 217 H 24.1002 -3.89027 6.67741 0
M  V30 218 H 22.4452 -3.50462 6.00168 0
M  V30 219 H 25.6362 -2.60638 3.88826 0
M  V30 220 H 25.8092 -3.39545 5.51918 0
M  V30 221 N 19.2153 -1.21501 -1.00376 0
M  V30 222 C 20.1783 -0.976927 -2.07337 0
M  V30 223 C 21.1783 0.0525322 -1.60714 0
M  V30 224 O 22.3683 -0.184869 -1.73216 0
M  V30 225 C 19.5003 -0.473423 -3.37597 0
M  V30 226 H 20.6933 -1.92587 -2.29892 0
M  V30 227 H 18.2463 -1.03217 -1.17371 0
M  V30 228 H 18.9813 0.480379 -3.20722 0
M  V30 229 H 18.7663 -1.216 -3.72768 0
M  V30 230 H 20.2563 -0.32675 -4.1632 0
M  V30 231 N 20.6934 1.19889 -1.02296 0
M  V30 232 C 21.9424 1.88743 -0.711257 0
M  V30 233 C 22.2554 1.80112 0.762817 0
M  V30 234 O 23.4614 2.44161 1.18733 0
M  V30 235 C 21.9174 3.38525 -1.22185 0
M  V30 236 C 21.5254 3.55727 -2.72328 0
M  V30 237 C 23.2694 4.12893 -0.985864 0
M  V30 238 C 21.1764 4.99369 -3.16835 0
M  V30 239 H 20.1064 0.706885 -0.262353 0
M  V30 240 H 22.7574 1.35586 -1.23648 0
M  V30 241 H 21.1394 3.91044 -0.624571 0
M  V30 242 H 22.3134 3.13564 -3.3766 0
M  V30 243 H 20.6284 2.94739 -2.9414 0
M  V30 244 H 23.2254 5.18813 -1.29374 0
M  V30 245 H 23.5684 4.16228 0.0775055 0
M  V30 246 H 24.1014 3.66494 -1.54684 0
M  V30 247 H 20.8404 5.01193 -4.22476 0
M  V30 248 H 20.3604 5.42317 -2.56228 0
M  V30 249 H 22.0394 5.67988 -3.09837 0
M  V30 250 N 22.1715 0.800033 1.35784 0
M  V30 251 C 23.3965 0.388511 2.03729 0
M  V30 252 C 23.8215 -0.990481 1.5991 0
M  V30 253 O 23.1795 -1.64013 0.772612 0
M  V30 254 C 23.2275 0.4726 3.5749 0
M  V30 255 O 22.3315 -0.51646 4.09153 0
M  V30 256 H 21.6725 0.163271 0.643614 0
M  V30 257 H 24.2025 1.0841 1.73518 0
M  V30 258 H 24.2125 0.34003 4.06581 0
M  V30 259 H 22.8875 1.47848 3.88734 0
M  V30 260 H 21.4645 -0.344673 3.71304 0
M  V30 261 N 23.6496 -1.47581 0.552962 0
M  V30 262 C 24.8776 -2.06875 0.0320556 0
M  V30 263 C 25.2926 -1.40625 -1.25976 0
M  V30 264 O 24.6496 -0.501349 -1.75479 0
M  V30 265 C 24.7006 -3.61092 -0.17167 0
M  V30 266 O 24.4216 -4.24858 1.06899 0
M  V30 267 C 25.9226 -4.37242 -0.730344 0
M  V30 268 H 23.1426 -0.669561 0.043915 0
M  V30 269 H 25.6866 -1.89646 0.765163 0
M  V30 270 H 23.8416 -3.7785 -0.854894 0
M  V30 271 H 24.2556 -5.17334 0.864059 0
M  V30 272 H 25.7296 -5.45842 -0.822203 0
M  V30 273 H 26.2066 -4.03235 -1.74064 0
M  V30 274 H 26.8126 -4.25219 -0.0829543 0
M  V30 275 N 25.1277 -0.289203 -1.54924 0
M  V30 276 C 26.3527 0.329299 -2.04769 0
M  V30 277 C 26.7777 1.4763 -1.16564 0
M  V30 278 O 26.1357 1.80527 -0.167186 0
M  V30 279 C 26.1837 0.774438 -3.52186 0
M  V30 280 O 25.2877 1.88038 -3.67036 0
M  V30 281 H 24.6287 0.0659259 -0.660719 0
M  V30 282 H 27.1587 -0.42761 -2.00082 0
M  V30 283 H 27.1687 1.06642 -3.93816 0
M  V30 284 H 25.8437 -0.0646707 -4.1585 0
M  V30 285 H 24.4207 1.58985 -3.3731 0
M  V30 286 N 26.6058 1.57591 -0.0167156 0
M  V30 287 C 27.8518 1.91567 0.665582 0
M  V30 288 C 28.1848 0.892298 1.72487 0
M  V30 289 O 27.4598 -0.0867127 1.94307 0
M  V30 290 C 27.7428 3.36069 1.29342 0
M  V30 291 C 27.5958 4.49135 0.244541 0
M  V30 292 C 28.9148 3.803 2.21495 0
M  V30 293 H 26.0338 0.69666 0.240488 0
M  V30 294 H 28.6758 1.89866 -0.0714356 0
M  V30 295 H 26.8258 3.3765 1.92158 0
M  V30 296 H 28.4978 4.59689 -0.385228 0
M  V30 297 H 26.7408 4.3165 -0.431379 0
M  V30 298 H 27.4118 5.47242 0.723207 0
M  V30 299 H 29.8878 3.80377 1.68678 0
M  V30 300 H 28.7638 4.82127 2.62382 0
M  V30 301 H 29.0248 3.15104 3.101 0
M  V30 302 N 28.0839 -0.256276 1.55502 0
M  V30 303 C 29.3239 -0.993081 1.78654 0
M  V30 304 C 29.6879 -1.8288 0.584724 0
M  V30 305 O 30.8889 -2.59665 0.694822 0
M  V30 306 C 29.1599 -1.83856 3.06483 0
M  V30 307 S 30.7189 -2.63573 3.5082 0
M  V30 308 H 27.5369 -0.334199 0.62756 0
M  V30 309 H 30.1389 -0.26184 1.93739 0
M  V30 310 H 28.8429 -1.21414 3.92029 0
M  V30 311 H 28.3739 -2.61271 2.94111 0
M  V30 312 H 30.3889 -3.86312 3.11412 0
M  V30 313 N 29.562 -1.4872 -0.521534 0
M  V30 314 C 30.808 -1.574 -1.27879 0
M  V30 315 C 31.141 -0.250817 -1.92573 0
M  V30 316 O 30.416 0.743934 -1.79711 0
M  V30 317 C 30.699 -2.71843 -2.36164 0
M  V30 318 C 30.552 -4.13893 -1.76105 0
M  V30 319 C 31.871 -2.82008 -3.37875 0
M  V30 320 H 28.99 -0.572941 -0.463581 0
M  V30 321 H 31.632 -1.80927 -0.580119 0
M  V30 322 H 29.782 -2.51914 -2.95756 0
M  V30 323 H 31.454 -4.45284 -1.20499 0
M  V30 324 H 29.697 -4.20498 -1.06601 0
M  V30 325 H 30.368 -4.89804 -2.5455 0
M  V30 326 H 32.844 -3.00086 -2.88249 0
M  V30 327 H 31.72 -3.63796 -4.11028 0
M  V30 328 H 31.981 -1.90511 -3.98946 0
M  V30 329 N 31.0401 0.771051 -1.3745 0
M  V30 330 C 32.4561 1.07171 -1.18265 0
M  V30 331 C 32.6561 2.01491 -0.019287 0
M  V30 332 O 31.7121 2.44244 0.640408 0
M  V30 333 C 33.0251 1.66854 -2.50161 0
M  V30 334 C 34.5731 1.79109 -2.56689 0
M  V30 335 C 35.0481 2.42205 -3.88717 0
M  V30 336 N 36.5391 2.49655 -3.90162 0
M  V30 337 C 37.2741 2.9933 -4.8907 0
M  V30 338 N 36.7701 3.49172 -5.98374 0
M  V30 339 N 38.5631 2.9821 -4.76474 0
M  V30 340 H 30.7141 0.144796 -2.11906 0
M  V30 341 H 32.9771 0.126863 -0.939473 0
M  V30 342 H 32.6831 1.05017 -3.35655 0
M  V30 343 H 32.5571 2.6614 -2.673 0
M  V30 344 H 34.9441 2.40077 -1.71601 0
M  V30 345 H 35.0251 0.785757 -2.43433 0
M  V30 346 H 34.6691 1.81875 -4.74219 0
M  V30 347 H 34.5991 3.43345 -3.99276 0
M  V30 348 H 37.0901 2.14383 -3.11205 0
M  V30 349 H 37.4031 3.8548 -6.69795 0
M  V30 350 H 35.7481 3.47275 -6.02018 0
M  V30 351 H 38.9391 2.58572 -3.90203 0
M  V30 352 H 39.1121 3.36613 -5.53711 0
M  V30 353 N 32.5182 1.22032 0.997298 0
M  V30 354 C 33.4812 0.987909 2.06816 0
M  V30 355 C 34.4812 -0.0440084 1.6074 0
M  V30 356 O 35.6712 0.194053 1.73116 0
M  V30 357 C 32.8032 0.49132 3.37341 0
M  V30 358 H 33.9962 1.93803 2.28868 0
M  V30 359 H 31.5492 1.03838 1.16822 0
M  V30 360 H 32.2842 -0.463364 3.20973 0
M  V30 361 H 32.0692 1.23575 3.72118 0
M  V30 362 H 33.5592 0.348824 4.16141 0
M  V30 363 N 33.9963 -1.19345 1.0293 0
M  V30 364 C 34.9463 -2.20472 0.58104 0
M  V30 365 C 35.9303 -1.56578 -0.370442 0
M  V30 366 O 37.1223 -1.75963 -0.191344 0
M  V30 367 C 34.2513 -3.43236 -0.066306 0
M  V30 368 C 33.3373 -4.14274 0.907642 0
M  V30 369 N 33.7283 -4.61492 2.07023 0
M  V30 370 C 32.0263 -4.39966 0.731177 0
M  V30 371 C 32.7273 -5.1605 2.68454 0
M  V30 372 N 31.7033 -5.06875 1.96414 0
M  V30 373 H 35.5053 -2.54659 1.46717 0
M  V30 374 H 33.0193 -1.35423 0.896345 0
M  V30 375 H 35.0163 -4.14927 -0.405068 0
M  V30 376 H 33.6763 -3.10549 -0.948118 0
M  V30 377 H 34.6873 -4.56304 2.44963 0
M  V30 378 H 31.3643 -4.17377 -0.101507 0
M  V30 379 H 32.7543 -5.6287 3.66915 0
M  V30 380 N 35.4744 -0.807222 -1.35358 0
M  V30 381 C 36.3844 -0.219594 -2.3357 0
M  V30 382 C 37.4004 0.637734 -1.61892 0
M  V30 383 O 38.5764 0.549336 -1.93763 0
M  V30 384 C 35.6414 0.62158 -3.41083 0
M  V30 385 C 34.7024 -0.256315 -4.28534 0
M  V30 386 C 33.9354 0.544807 -5.30912 0
M  V30 387 O 34.1584 1.77944 -5.41934 0
M  V30 388 O 33.0924 -0.0646478 -6.01865 0
M  V30 389 H 36.9184 -1.03208 -2.85625 0
M  V30 390 H 34.5034 -0.569025 -1.38139 0
M  V30 391 H 36.3854 1.10067 -4.06772 0
M  V30 392 H 35.0604 1.41165 -2.91297 0
M  V30 393 H 33.9674 -0.782559 -3.65823 0
M  V30 394 H 35.3004 -1.01034 -4.81719 0
M  V30 395 N 36.9525 1.47285 -0.560781 0
M  V30 396 C 38.1775 2.07359 -0.0410566 0
M  V30 397 C 38.6025 1.41017 1.24483 0
M  V30 398 O 37.9605 0.486368 1.74654 0
M  V30 399 C 38.0085 3.6035 0.134123 0
M  V30 400 O 37.1125 3.94681 1.19587 0
M  V30 401 H 36.4535 0.661887 -0.0529291 0
M  V30 402 H 38.9835 1.89252 -0.777482 0
M  V30 403 H 38.9935 4.0652 0.347207 0
M  V30 404 H 37.6685 4.08034 -0.805047 0
M  V30 405 H 36.2455 3.60251 0.962987 0
M  V30 406 N 38.4306 0.297415 1.54768 0
M  V30 407 C 39.6766 -0.313376 2.00364 0
M  V30 408 C 40.0096 -1.53815 1.18553 0
M  V30 409 O 39.2846 -1.92739 0.261103 0
M  V30 410 C 39.5676 -0.673525 3.53745 0
M  V30 411 C 39.4206 0.560133 4.46299 0
M  V30 412 C 40.7396 -1.50143 4.13697 0
M  V30 413 H 37.8586 -0.112428 0.728374 0
M  V30 414 H 40.5006 0.4088 1.8555 0
M  V30 415 H 38.6506 -1.28881 3.665 0
M  V30 416 H 40.3226 1.19863 4.45455 0
M  V30 417 H 38.5656 1.19405 4.17043 0
M  V30 418 H 39.2366 0.26405 5.51368 0
M  V30 419 H 41.7126 -0.981588 4.04356 0
M  V30 420 H 40.5886 -1.72221 5.21182 0
M  V30 421 H 40.8496 -2.48952 3.65343 0
M  V30 422 N 39.9087 -1.5758 0.0250728 0
M  V30 423 C 41.1547 -1.91917 -0.655413 0
M  V30 424 C 41.4877 -0.901433 -1.72011 0
M  V30 425 O 40.7627 0.0764069 -1.9435 0
M  V30 426 C 41.0457 -3.36751 -1.27558 0
M  V30 427 C 40.8987 -4.49258 -0.220719 0
M  V30 428 C 42.2177 -3.81469 -2.19475 0
M  V30 429 H 39.3367 -0.697925 -0.23679 0
M  V30 430 H 41.9787 -1.89825 0.0815036 0
M  V30 431 H 40.1287 -3.38664 -1.90365 0
M  V30 432 H 41.8007 -4.59478 0.409601 0
M  V30 433 H 40.0437 -4.31415 0.454264 0
M  V30 434 H 40.7147 -5.47618 -0.694175 0
M  V30 435 H 43.1907 -3.81266 -1.66659 0
M  V30 436 H 42.0667 -4.83512 -2.59822 0
M  V30 437 H 42.3277 -3.16744 -3.08424 0
M  V30 438 N 41.3868 0.248026 -1.55636 0
M  V30 439 C 42.3338 1.30707 -1.90222 0
M  V30 440 C 43.3038 1.47881 -0.756332 0
M  V30 441 O 44.4888 1.61883 -1.00988 0
M  V30 442 C 41.6288 2.65769 -2.20138 0
M  V30 443 C 40.7418 2.56612 -3.47526 0
M  V30 444 C 39.8768 3.8402 -3.67017 0
M  V30 445 C 38.9158 3.69476 -4.8801 0
M  V30 446 N 38.0528 4.88774 -5.04029 0
M  V30 447 H 42.8928 1.00512 -2.80538 0
M  V30 448 H 40.4298 0.485055 -1.38873 0
M  V30 449 H 42.3878 3.44386 -2.35487 0
M  V30 450 H 41.0178 2.94115 -1.33027 0
M  V30 451 H 40.0698 1.69571 -3.40514 0
M  V30 452 H 41.3818 2.41774 -4.36287 0
M  V30 453 H 40.5358 4.7108 -3.8232 0
M  V30 454 H 39.2748 4.01754 -2.76487 0
M  V30 455 H 38.2798 2.80799 -4.72686 0
M  V30 456 H 39.5048 3.53238 -5.8 0
M  V30 457 H 37.4508 5.0687 -4.16435 0
M  V30 458 H 37.3678 4.76562 -5.86877 0
M  V30 459 H 38.6358 5.77335 -5.23741 0
M  V30 460 N 42.8649 1.48995 0.513639 0
M  V30 461 C 44.0899 1.61792 1.29762 0
M  V30 462 C 44.5149 0.284475 1.85936 0
M  V30 463 O 43.8729 -0.746185 1.65232 0
M  V30 464 C 43.9209 2.67993 2.41272 0
M  V30 465 O 43.0249 2.26287 3.44772 0
M  V30 466 H 42.3659 0.541963 0.38363 0
M  V30 467 H 44.8959 1.95097 0.616307 0
M  V30 468 H 44.9059 2.89772 2.87221 0
M  V30 469 H 43.5809 3.64791 1.9975 0
M  V30 470 H 42.1579 2.14788 3.04829 0
M  V30 471 N 44.343 -0.763751 1.37857 0
M  V30 472 C 45.253 -1.90817 1.36478 0
M  V30 473 C 46.269 -1.71997 0.263248 0
M  V30 474 O 47.445 -1.95095 0.499979 0
M  V30 475 C 44.51 -3.2605 1.17864 0
M  V30 476 C 43.571 -3.57467 2.3773 0
M  V30 477 C 42.804 -4.86249 2.19995 0
M  V30 478 O 43.027 -5.57884 1.18836 0
M  V30 479 O 41.961 -5.16911 3.08361 0
M  V30 480 H 45.787 -1.94933 2.32884 0
M  V30 481 H 43.372 -0.907619 1.1867 0
M  V30 482 H 45.254 -4.06924 1.09504 0
M  V30 483 H 43.929 -3.22769 0.245372 0
M  V30 484 H 42.836 -2.76796 2.51664 0
M  V30 485 H 44.169 -3.655 3.29652 0
M  V30 486 N 45.8211 -1.22559 -0.990812 0
M  V30 487 C 47.0981 -0.959875 -1.70428 0
M  V30 488 C 47.4781 0.524455 -2.04481 0
M  V30 489 O 46.8261 1.49302 -1.72977 0
M  V30 490 C 47.0361 -1.85955 -2.95333 0
M  V30 491 C 48.3841 -2.11687 -3.68068 0
M  V30 492 O 49.4081 -1.8342 -3.05345 0
M  V30 493 O 48.2671 -2.59572 -4.80921 0
M  V30 494 H 45.3611 -0.361154 -0.743974 0
M  V30 495 H 47.9071 -1.33554 -1.04697 0
M  V30 496 H 46.6791 -2.86346 -2.66687 0
M  V30 497 H 46.3021 -1.4856 -3.68803 0
M  V30 498 N 47.2992 1.18797 -1.03562 0
M  V30 499 C 48.5462 1.8865 -0.736023 0
M  V30 500 C 48.8742 1.80041 0.735889 0
M  V30 501 O 48.1292 1.19179 1.55225 0
M  V30 502 C 48.4282 3.38692 -1.14117 0
M  V30 503 C 48.0942 3.67504 -2.6125 0
M  V30 504 C 46.7562 3.75078 -3.01447 0
M  V30 505 C 49.1082 3.80293 -3.56408 0
M  V30 506 C 46.4362 3.92915 -4.35701 0
M  V30 507 C 48.7882 3.99645 -4.90374 0
M  V30 508 C 47.4522 4.05453 -5.30249 0
M  V30 509 H 46.7222 0.690321 -0.26933 0
M  V30 510 H 49.3692 1.40641 -1.29971 0
M  V30 511 H 47.6742 3.88645 -0.496202 0
M  V30 512 H 49.3712 3.91072 -0.886789 0
M  V30 513 H 45.9612 3.62223 -2.29113 0
M  V30 514 H 50.1452 3.73779 -3.26501 0
M  V30 515 H 45.4012 3.95653 -4.66121 0
M  V30 516 H 49.5752 4.08482 -5.64017 0
M  V30 517 H 47.2022 4.19027 -6.34288 0
M  V30 518 N 48.7773 0.814389 1.34928 0
M  V30 519 C 50.0023 0.410097 2.03305 0
M  V30 520 C 50.4273 -0.973464 1.60951 0
M  V30 521 O 49.7853 -1.63185 0.789964 0
M  V30 522 C 49.8333 0.51049 3.56968 0
M  V30 523 O 48.9373 -0.473035 4.09678 0
M  V30 524 H 48.2783 0.170088 0.641846 0
M  V30 525 H 50.8083 1.10244 1.72358 0
M  V30 526 H 50.8183 0.383135 4.06197 0
M  V30 527 H 49.4933 1.51963 3.87144 0
M  V30 528 H 48.0703 -0.305272 3.71648 0
M  V30 529 N 50.2554 -1.46986 0.568584 0
M  V30 530 C 51.1854 -2.32946 -0.160753 0
M  V30 531 C 52.1664 -1.44487 -0.897631 0
M  V30 532 O 53.3514 -1.73327 -0.875867 0
M  V30 533 C 50.4814 -3.26494 -1.18403 0
M  V30 534 C 49.4354 -4.24282 -0.562895 0
M  V30 535 C 48.7614 -5.07236 -1.69163 0
M  V30 536 C 50.0614 -5.19989 0.490761 0
M  V30 537 H 51.7554 -2.94175 0.556916 0
M  V30 538 H 49.3014 -1.4146 0.26927 0
M  V30 539 H 51.2544 -3.85477 -1.70251 0
M  V30 540 H 49.9784 -2.63343 -1.93179 0
M  V30 541 H 48.6374 -3.66541 -0.0656164 0
M  V30 542 H 48.2854 -4.4048 -2.42871 0
M  V30 543 H 47.9854 -5.7345 -1.28174 0
M  V30 544 H 49.5094 -5.6908 -2.21314 0
M  V30 545 H 50.9234 -5.73271 0.0579047 0
M  V30 546 H 49.3204 -5.94469 0.820165 0
M  V30 547 H 50.3904 -4.64777 1.3824 0
M  V30 548 N 51.7335 -0.305618 -1.54608 0
M  V30 549 C 53.1445 0.186098 -1.8577 0
M  V30 550 C 53.4955 1.53058 -1.22751 0
M  V30 551 O 52.6205 2.09888 -0.526893 0
M  V30 552 C 53.2155 0.344449 -3.37044 0
M  V30 553 C 51.7745 0.780384 -3.68221 0
M  V30 554 C 50.9215 -0.108554 -2.77087 0
M  V30 555 H 53.8725 -0.526485 -1.49712 0
M  V30 556 H 53.8935 1.17828 -3.61796 0
M  V30 557 H 53.4055 -0.634235 -3.82883 0
M  V30 558 H 51.5065 1.76945 -3.27904 0
M  V30 559 H 51.6195 0.596572 -4.75371 0
M  V30 560 H 49.9835 0.412931 -2.5133 0
M  V30 561 H 50.7665 -1.08368 -3.25747 0
M  V30 562 N 53.2116 1.57565 -0.0334293 0
M  V30 563 C 54.1746 2.09393 0.932048 0
M  V30 564 C 55.1746 1.00986 1.25134 0
M  V30 565 O 56.3646 1.27129 1.19096 0
M  V30 566 C 53.4966 2.56338 2.2473 0
M  V30 567 H 54.6896 2.95984 0.483085 0
M  V30 568 H 52.2426 1.54819 0.21468 0
M  V30 569 H 52.9776 1.7309 2.74245 0
M  V30 570 H 52.7626 3.35542 2.02865 0
M  V30 571 H 54.2526 2.96646 2.93923 0
M  V30 572 N 54.6897 -0.239769 1.55765 0
M  V30 573 C 55.9197 -0.982743 1.8173 0
M  V30 574 C 56.3277 -1.7917 0.607835 0
M  V30 575 O 55.6707 -1.78525 -0.432973 0
M  V30 576 C 55.7327 -1.96332 3.01155 0
M  V30 577 C 55.3967 -1.34062 4.36894 0
M  V30 578 C 56.3937 -0.739539 5.14613 0
M  V30 579 C 54.0787 -1.35784 4.83599 0
M  V30 580 C 56.0727 -0.163989 6.37189 0
M  V30 581 C 53.7597 -0.778441 6.06122 0
M  V30 582 C 54.7577 -0.182548 6.82756 0
M  V30 583 O 54.4457 0.387887 8.02964 0
M  V30 584 H 54.1777 -0.294481 0.608487 0
M  V30 585 H 56.7317 -0.26572 2.03674 0
M  V30 586 H 54.9617 -2.71884 2.74984 0
M  V30 587 H 56.6507 -2.57032 3.14149 0
M  V30 588 H 57.4167 -0.718687 4.79646 0
M  V30 589 H 53.2957 -1.81105 4.23936 0
M  V30 590 H 56.8397 0.301753 6.96947 0
M  V30 591 H 52.7367 -0.796645 6.40565 0
M  V30 592 H 53.5047 0.28044 8.18019 0
M  V30 593 N 56.1678 -1.49265 -0.50573 0
M  V30 594 C 57.1008 -1.60183 -1.62532 0
M  V30 595 C 58.0788 -0.451107 -1.56217 0
M  V30 596 O 59.2628 -0.666016 -1.76342 0
M  V30 597 C 56.3898 -1.55238 -3.01029 0
M  V30 598 C 55.4358 -2.7545 -3.25621 0
M  V30 599 S 56.2688 -4.37174 -3.09256 0
M  V30 600 C 57.4248 -4.34866 -4.50158 0
M  V30 601 H 57.6578 -2.54894 -1.53025 0
M  V30 602 H 55.1908 -1.38098 -0.690535 0
M  V30 603 H 57.1488 -1.53071 -3.80893 0
M  V30 604 H 55.8098 -0.618238 -3.07956 0
M  V30 605 H 55.0028 -2.68197 -4.26716 0
M  V30 606 H 54.6048 -2.75005 -2.53472 0
M  V30 607 H 56.8968 -4.06295 -5.42154 0
M  V30 608 H 57.8398 -5.36223 -4.62462 0
M  V30 609 H 58.2478 -3.65007 -4.30616 0
M  V30 610 N 57.6459 0.756429 -1.3826 0
M  V30 611 C 58.9229 1.50584 -1.24835 0
M  V30 612 C 59.3029 2.10556 0.151485 0
M  V30 613 O 58.6509 1.96825 1.1607 0
M  V30 614 C 58.8609 2.57448 -2.3563 0
M  V30 615 C 60.2089 3.24429 -2.73917 0
M  V30 616 O 61.2329 2.67751 -2.34921 0
M  V30 617 O 60.0919 4.26937 -3.41156 0
M  V30 618 H 57.1859 0.667664 -0.48801 0
M  V30 619 H 59.7319 0.792083 -1.5008 0
M  V30 620 H 58.5039 2.11362 -3.29305 0
M  V30 621 H 58.1269 3.36408 -2.11933 0
M  V30 622 N 59.124 1.23083 0.984299 0
M  V30 623 C 60.54 0.992637 1.24975 0
M  V30 624 C 60.74 -0.308618 1.99123 0
M  V30 625 O 59.796 -1.02905 2.30579 0
M  V30 626 C 61.109 2.19698 2.05312 0
M  V30 627 C 62.657 2.24147 2.18465 0
M  V30 628 C 63.132 3.44157 3.02192 0
M  V30 629 N 64.623 3.44372 3.09777 0
M  V30 630 C 65.358 4.33886 3.74874 0
M  V30 631 N 64.854 5.3363 4.41827 0
M  V30 632 N 66.647 4.21639 3.71721 0
M  V30 633 H 58.798 2.06731 0.487453 0
M  V30 634 H 61.061 0.906339 0.277944 0
M  V30 635 H 60.767 3.1411 1.58201 0
M  V30 636 H 60.641 2.20465 3.06064 0
M  V30 637 H 63.028 1.30277 2.64786 0
M  V30 638 H 63.109 2.27415 1.17115 0
M  V30 639 H 62.753 4.38332 2.56568 0
M  V30 640 H 62.683 3.3813 4.03702 0
M  V30 641 H 65.174 2.72201 2.62135 0
M  V30 642 H 65.487 5.98196 4.89266 0
M  V30 643 H 63.832 5.37534 4.40548 0
M  V30 644 H 67.023 3.42962 3.18582 0
M  V30 645 H 67.196 4.91604 4.22173 0
M  V30 646 N 60.6021 -1.18246 1.0419 0
M  V30 647 C 62.0181 -1.40269 0.761366 0
M  V30 648 C 62.2181 -1.90777 -0.648578 0
M  V30 649 O 61.2741 -2.0929 -1.41258 0
M  V30 650 C 62.5871 -2.40237 1.8085 0
M  V30 651 C 64.1351 -2.53961 1.82955 0
M  V30 652 C 64.6101 -3.57194 2.86664 0
M  V30 653 N 66.1011 -3.64702 2.85563 0
M  V30 654 C 66.8361 -4.44309 3.6246 0
M  V30 655 N 66.3321 -5.27514 4.49111 0
M  V30 656 N 68.1251 -4.39084 3.50944 0
M  V30 657 H 60.2761 -0.837882 1.95175 0
M  V30 658 H 62.5391 -0.430608 0.84456 0
M  V30 659 H 62.2451 -2.10176 2.81991 0
M  V30 660 H 62.1191 -3.39601 1.64168 0
M  V30 661 H 64.5061 -2.83338 0.824855 0
M  V30 662 H 64.5871 -1.54706 2.03715 0
M  V30 663 H 64.2311 -3.28558 3.87314 0
M  V30 664 H 64.1611 -4.5613 2.6316 0
M  V30 665 H 66.6521 -3.05289 2.22727 0
M  V30 666 H 66.9651 -5.85411 5.04493 0
M  V30 667 H 65.3101 -5.2693 4.53178 0
M  V30 668 H 68.5011 -3.7313 2.82651 0
M  V30 669 H 68.6741 -5.00883 4.11121 0
M  V30 670 N 62.0802 -0.821533 -1.34494 0
M  V30 671 C 63.3572 -0.33159 -1.92769 0
M  V30 672 C 63.7372 1.18088 -1.74981 0
M  V30 673 O 63.0852 1.98733 -1.12772 0
M  V30 674 C 63.2952 -0.759398 -3.40638 0
M  V30 675 C 64.6432 -0.757433 -4.1779 0
M  V30 676 O 65.6672 -0.70189 -3.49216 0
M  V30 677 O 64.5262 -0.829361 -5.4017 0
M  V30 678 H 61.6202 -0.0902502 -0.822061 0
M  V30 679 H 64.1662 -0.906231 -1.43477 0
M  V30 680 H 62.9382 -1.8012 -3.47379 0
M  V30 681 H 62.5612 -0.160378 -3.97276 0
M  V30 682 N 63.5583 1.46682 -0.576371 0
M  V30 683 C 64.5083 2.27278 0.181288 0
M  V30 684 C 65.4923 1.35497 0.867721 0
M  V30 685 O 66.6843 1.59717 0.762863 0
M  V30 686 C 63.8133 3.21703 1.19841 0
M  V30 687 C 62.8993 4.20969 0.51442 0
M  V30 688 N 63.2903 5.03999 -0.426407 0
M  V30 689 C 61.5883 4.39373 0.765963 0
M  V30 690 C 62.2893 5.75812 -0.825565 0
M  V30 691 N 61.2653 5.43315 -0.176116 0
M  V30 692 H 65.0673 2.88863 -0.541785 0
M  V30 693 H 62.5813 1.57455 -0.397697 0
M  V30 694 H 64.5783 3.78145 1.75533 0
M  V30 695 H 63.2383 2.61677 1.92238 0
M  V30 696 H 64.2493 5.11659 -0.8016 0
M  V30 697 H 60.9263 3.90502 1.47698 0
M  V30 698 H 62.3163 6.52577 -1.59976 0
M  V30 699 N 65.0364 0.313813 1.54444 0
M  V30 700 C 66.4474 -0.176243 1.85866 0
M  V30 701 C 66.7984 -1.52405 1.23561 0
M  V30 702 O 65.9234 -2.09605 0.538016 0
M  V30 703 C 66.5184 -0.32657 3.37222 0
M  V30 704 C 65.0774 -0.760846 3.6863 0
M  V30 705 C 64.2244 0.123247 2.77026 0
M  V30 706 H 67.1754 0.534418 1.49431 0
M  V30 707 H 67.1964 -1.15908 3.62416 0
M  V30 708 H 66.7084 0.654531 3.82541 0
M  V30 709 H 64.8094 -1.75204 3.28838 0
M  V30 710 H 64.9224 -0.571353 4.75681 0
M  V30 711 H 63.2864 -0.399597 2.51546 0
M  V30 712 H 64.0694 1.10094 3.25168 0
M  V30 713 N 66.5145 -1.57545 0.0417849 0
M  V30 714 C 67.4445 -2.14009 -0.933929 0
M  V30 715 C 68.4255 -1.05938 -1.33083 0
M  V30 716 O 69.6105 -1.33833 -1.40721 0
M  V30 717 C 66.7405 -2.67747 -2.21199 0
M  V30 718 C 65.6945 -3.80718 -1.95544 0
M  V30 719 C 65.0205 -4.20935 -3.29724 0
M  V30 720 C 66.3205 -5.06258 -1.28452 0
M  V30 721 H 68.0145 -2.95788 -0.463645 0
M  V30 722 H 65.5605 -1.42285 -0.221573 0
M  V30 723 H 67.5135 -3.05886 -2.89848 0
M  V30 724 H 66.2375 -1.83147 -2.70416 0
M  V30 725 H 64.8965 -3.43037 -1.2931 0
M  V30 726 H 64.5445 -3.33298 -3.76724 0
M  V30 727 H 64.2445 -4.9707 -3.13361 0
M  V30 728 H 65.7685 -4.61666 -3.9962 0
M  V30 729 H 67.1825 -5.41903 -1.8712 0
M  V30 730 H 65.5795 -5.87475 -1.22445 0
M  V30 731 H 66.6495 -4.84207 -0.259219 0
M  V30 732 N 67.9926 0.231505 -1.5589 0
M  V30 733 C 69.4036 0.799327 -1.68724 0
M  V30 734 C 69.7546 1.85398 -0.642022 0
M  V30 735 O 68.8796 2.1539 0.208784 0
M  V30 736 C 69.4746 1.45664 -3.05888 0
M  V30 737 C 68.0336 1.97197 -3.20609 0
M  V30 738 C 67.1806 0.828552 -2.64632 0
M  V30 739 H 70.1316 0.00702616 -1.58698 0
M  V30 740 H 70.1526 2.32517 -3.01191 0
M  V30 741 H 69.6646 0.688808 -3.81939 0
M  V30 742 H 67.7656 2.76813 -2.4941 0
M  V30 743 H 67.8786 2.15878 -4.27707 0
M  V30 744 H 66.2426 1.23321 -2.22854 0
M  V30 745 H 67.0256 0.0735544 -3.43221 0
M  V30 746 N 69.4707 1.49531 0.497807 0
M  V30 747 C 70.3807 1.69176 1.62532 0
M  V30 748 C 71.3967 0.5744 1.64246 0
M  V30 749 O 72.5727 0.849497 1.82608 0
M  V30 750 C 69.6377 1.75695 2.98885 0
M  V30 751 C 68.6987 2.9929 3.07773 0
M  V30 752 C 67.9317 3.05488 4.37622 0
M  V30 753 O 68.1547 2.19192 5.26603 0
M  V30 754 O 67.0887 3.9798 4.51548 0
M  V30 755 H 70.9147 2.647 1.48887 0
M  V30 756 H 68.4997 1.3331 0.674441 0
M  V30 757 H 70.3817 1.82317 3.79919 0
M  V30 758 H 69.0567 0.8335 3.12785 0
M  V30 759 H 67.9637 2.98183 2.25915 0
M  V30 760 H 69.2967 3.91125 2.98801 0
M  V30 761 N 70.9488 -0.749086 1.3866 0
M  V30 762 C 72.1948 -1.51056 1.35314 0
M  V30 763 C 72.5278 -1.94121 -0.0553751 0
M  V30 764 O 71.8028 -1.65763 -1.01749 0
M  V30 765 C 72.0858 -2.76003 2.31288 0
M  V30 766 C 71.9388 -2.39047 3.8102 0
M  V30 767 C 73.2578 -3.78046 2.2532 0
M  V30 768 H 70.3768 -0.547972 0.492844 0
M  V30 769 H 73.0188 -0.857628 1.69543 0
M  V30 770 H 71.1688 -3.31716 2.02229 0
M  V30 771 H 72.8408 -1.89074 4.20771 0
M  V30 772 H 71.0838 -1.71449 3.98482 0
M  V30 773 H 71.7548 -3.28462 4.4364 0
M  V30 774 H 74.2308 -3.31884 2.50983 0
M  V30 775 H 73.1068 -4.63159 2.94576 0
M  V30 776 H 73.3678 -4.23957 1.25352 0
M  V30 777 N 72.4269 -1.23603 -0.977757 0
M  V30 778 C 73.3899 -1.02069 -2.05218 0
M  V30 779 C 74.3899 0.0184305 -1.60789 0
M  V30 780 O 75.5799 -0.221569 -1.72785 0
M  V30 781 C 72.7119 -0.544926 -3.36517 0
M  V30 782 H 73.9049 -1.9742 -2.25755 0
M  V30 783 H 71.4579 -1.05684 -1.15155 0
M  V30 784 H 72.1929 0.412241 -3.21669 0
M  V30 785 H 71.9779 -1.2948 -3.70105 0
M  V30 786 H 73.4679 -0.414985 -4.15533 0
M  V30 787 N 73.905 1.17692 -1.04816 0
M  V30 788 C 74.855 2.1952 -0.616042 0
M  V30 789 C 75.839 1.57147 0.345485 0
M  V30 790 O 77.031 1.76245 0.163325 0
M  V30 791 C 74.16 3.43298 0.0116917 0
M  V30 792 C 73.246 4.12777 -0.973435 0
M  V30 793 N 73.637 4.5814 -2.14339 0
M  V30 794 C 71.935 4.38747 -0.80108 0
M  V30 795 C 72.636 5.11713 -2.7663 0
M  V30 796 N 71.612 5.03686 -2.04453 0
M  V30 797 H 75.414 2.52293 -1.5075 0
M  V30 798 H 72.928 1.3398 -0.917776 0
M  V30 799 H 74.925 4.15519 0.339006 0
M  V30 800 H 73.585 3.12018 0.898593 0
M  V30 801 H 74.596 4.52349 -2.52191 0
M  V30 802 H 71.273 4.17485 0.0350934 0
M  V30 803 H 72.663 5.56962 -3.75823 0
M  V30 804 N 75.3831 0.828654 1.34056 0
M  V30 805 C 76.6291 0.42008 1.98402 0
M  V30 806 C 76.9621 -1.01564 1.65525 0
M  V30 807 O 76.2371 -1.70834 0.929831 0
M  V30 808 C 76.5201 0.62927 3.54559 0
M  V30 809 C 76.3731 2.11152 3.97159 0
M  V30 810 C 77.6921 0.0688756 4.40046 0
M  V30 811 H 74.8111 0.154104 0.720709 0
M  V30 812 H 77.4531 1.04228 1.5886 0
M  V30 813 H 75.6031 0.0996418 3.88372 0
M  V30 814 H 77.2751 2.70522 3.73651 0
M  V30 815 H 75.5181 2.59985 3.47261 0
M  V30 816 H 76.1891 2.20868 5.05887 0
M  V30 817 H 78.6651 0.521458 4.1282 0
M  V30 818 H 77.5411 0.245006 5.48353 0
M  V30 819 H 77.8021 -1.0266 4.30015 0
M  V30 820 N 76.8612 -1.46375 0.584142 0
M  V30 821 C 77.8082 -2.30323 -0.148286 0
M  V30 822 C 78.7782 -1.40703 -0.882713 0
M  V30 823 O 79.9632 -1.69651 -0.873099 0
M  V30 824 C 77.1032 -3.25196 -1.15507 0
M  V30 825 C 76.2162 -4.29915 -0.423943 0
M  V30 826 C 75.3512 -5.11914 -1.41838 0
M  V30 827 C 74.3902 -6.08381 -0.673736 0
M  V30 828 N 73.5272 -6.83242 -1.6163 0
M  V30 829 H 78.3672 -2.92427 0.573644 0
M  V30 830 H 75.9042 -1.44118 0.294703 0
M  V30 831 H 77.8622 -3.78646 -1.75166 0
M  V30 832 H 76.4922 -2.64898 -1.8447 0
M  V30 833 H 75.5442 -3.7931 0.287714 0
M  V30 834 H 76.8562 -4.98549 0.158128 0
M  V30 835 H 76.0102 -5.69648 -2.08773 0
M  V30 836 H 74.7492 -4.43243 -2.03438 0
M  V30 837 H 73.7542 -5.49799 0.00938483 0
M  V30 838 H 74.9792 -6.79071 -0.0631082 0
M  V30 839 H 72.9252 -6.1728 -2.22038 0
M  V30 840 H 72.8422 -7.48144 -1.08707 0
M  V30 841 H 74.1102 -7.45534 -2.27596 0
M  V30 842 N 78.3393 -0.321999 -1.54275 0
M  V30 843 C 79.2893 0.560185 -2.21011 0
M  V30 844 C 80.2733 1.08283 -1.19011 0
M  V30 845 O 81.4653 1.02011 -1.44647 0
M  V30 846 C 78.5943 1.72137 -2.97025 0
M  V30 847 C 77.6803 1.21369 -4.06363 0
M  V30 848 N 78.0713 0.425566 -5.04007 0
M  V30 849 C 76.3693 1.49255 -4.20284 0
M  V30 850 C 77.0703 0.152601 -5.815 0
M  V30 851 N 76.0463 0.738294 -5.38563 0
M  V30 852 H 79.8483 -0.049265 -2.93859 0
M  V30 853 H 77.3623 -0.127779 -1.61897 0
M  V30 854 H 79.3593 2.36512 -3.43319 0
M  V30 855 H 78.0193 2.33431 -2.25699 0
M  V30 856 H 79.0303 0.068551 -5.17855 0
M  V30 857 H 75.7073 2.11145 -3.60172 0
M  V30 858 H 77.0973 -0.481764 -6.70171 0
M  V30 859 N 79.8174 1.5752 -0.0501392 0
M  V30 860 C 80.7474 2.14502 0.922566 0
M  V30 861 C 81.7284 1.06642 1.3252 0
M  V30 862 O 82.9134 1.34577 1.4001 0
M  V30 863 C 80.0434 2.68916 2.19776 0
M  V30 864 C 78.9974 3.8175 1.93523 0
M  V30 865 C 78.3234 4.22677 3.27487 0
M  V30 866 C 79.6234 5.06932 1.25765 0
M  V30 867 H 81.3174 2.9603 0.447952 0
M  V30 868 H 78.8634 1.42401 0.214024 0
M  V30 869 H 80.8164 3.07419 2.88222 0
M  V30 870 H 79.5404 1.84578 2.69441 0
M  V30 871 H 78.1994 3.43718 1.27489 0
M  V30 872 H 77.8474 3.35291 3.74952 0
M  V30 873 H 77.5474 4.98725 3.1072 0
M  V30 874 H 79.0714 4.63779 3.97166 0
M  V30 875 H 80.4854 5.42888 1.84244 0
M  V30 876 H 78.8824 5.88116 1.19328 0
M  V30 877 H 79.9524 4.84337 0.233536 0
M  V30 878 N 81.2955 -0.223234 1.56011 0
M  V30 879 C 82.5205 -0.968978 1.83373 0
M  V30 880 C 82.9455 -1.77227 0.630254 0
M  V30 881 O 82.3035 -1.76345 -0.420959 0
M  V30 882 C 82.3515 -1.86363 3.08709 0
M  V30 883 O 81.4555 -2.95873 2.87285 0
M  V30 884 H 80.7965 -0.274461 0.604622 0
M  V30 885 H 83.3265 -0.237056 2.03222 0
M  V30 886 H 83.3365 -2.27376 3.38768 0
M  V30 887 H 82.0115 -1.27319 3.95933 0
M  V30 888 H 80.5885 -2.58818 2.68454 0
M  V30 889 N 82.7736 -1.49793 -0.48987 0
M  V30 890 C 83.7366 -1.66752 -1.57246 0
M  V30 891 C 84.7366 -0.538867 -1.51502 0
M  V30 892 O 85.9266 -0.805545 -1.54456 0
M  V30 893 C 83.0586 -1.67528 -2.96896 0
M  V30 894 H 84.2516 -2.63321 -1.43534 0
M  V30 895 H 81.8046 -1.38992 -0.714914 0
M  V30 896 H 82.5396 -0.725837 -3.16073 0
M  V30 897 H 82.3246 -2.49504 -3.02473 0
M  V30 898 H 83.8146 -1.82667 -3.7553 0
M  V30 899 N 84.2517 0.741722 -1.39055 0
M  V30 900 C 85.4767 1.53607 -1.39354 0
M  V30 901 C 85.9017 1.88096 0.0116905 0
M  V30 902 O 85.2597 1.5143 0.996924 0
M  V30 903 C 85.3077 2.80441 -2.26682 0
M  V30 904 O 84.4117 3.76088 -1.69208 0
M  V30 905 H 83.7527 0.464142 -0.474835 0
M  V30 906 H 86.2827 0.915665 -1.82967 0
M  V30 907 H 86.2927 3.29246 -2.40959 0
M  V30 908 H 84.9677 2.5467 -3.2881 0
M  V30 909 H 83.5447 3.34833 -1.64138 0
M  V30 910 N 85.7298 1.2412 0.971189 0
M  V30 911 C 86.6618 0.988349 2.06795 0
M  V30 912 C 87.6748 -0.0409541 1.62748 0
M  V30 913 O 88.8638 0.195673 1.77424 0
M  V30 914 C 85.9638 0.469023 3.35639 0
M  V30 915 C 85.1368 1.56065 4.08611 0
M  V30 916 C 84.1958 1.04458 5.15728 0
M  V30 917 O 83.2218 1.73553 5.42096 0
M  V30 918 N 84.4238 -0.122817 5.8037 0
M  V30 919 H 87.1888 1.93265 2.29061 0
M  V30 920 H 84.7498 1.15102 1.13856 0
M  V30 921 H 86.7418 0.108613 4.04554 0
M  V30 922 H 85.3118 -0.380919 3.1027 0
M  V30 923 H 84.5318 2.09341 3.34021 0
M  V30 924 H 85.8198 2.29449 4.54126 0
M  V30 925 H 85.2178 -0.700563 5.61345 0
M  V30 926 H 83.7748 -0.424404 6.50417 0
M  V30 927 N 87.2079 -1.17134 1.05439 0
M  V30 928 C 88.1549 -2.21235 0.657539 0
M  V30 929 C 89.1249 -1.62551 -0.341543 0
M  V30 930 O 90.3099 -1.89379 -0.232393 0
M  V30 931 C 87.4499 -3.45076 0.0410575 0
M  V30 932 C 86.5629 -4.18042 1.08927 0
M  V30 933 C 85.6979 -5.29376 0.439848 0
M  V30 934 C 84.7369 -5.94132 1.4722 0
M  V30 935 N 83.8739 -6.96975 0.846756 0
M  V30 936 H 88.7139 -2.54534 1.54972 0
M  V30 937 H 86.2509 -1.25028 0.775006 0
M  V30 938 H 88.2089 -4.15862 -0.33383 0
M  V30 939 H 86.8389 -3.12353 -0.814568 0
M  V30 940 H 85.8909 -3.45945 1.58196 0
M  V30 941 H 87.2029 -4.62306 1.87282 0
M  V30 942 H 86.3569 -6.06699 0.0115125 0
M  V30 943 H 85.0959 -4.86251 -0.375656 0
M  V30 944 H 84.1009 -5.15538 1.91052 0
M  V30 945 H 85.3259 -6.39337 2.28965 0
M  V30 946 H 83.2719 -6.5598 0.0518075 0
M  V30 947 H 83.1889 -7.39565 1.5678 0
M  V30 948 H 84.4569 -7.78239 0.443277 0
M  V30 949 N 88.686 -0.835752 -1.33615 0
M  V30 950 C 89.649 -0.272 -2.2758 0
M  V30 951 C 90.649 0.557487 -1.50827 0
M  V30 952 O 91.839 0.37173 -1.70188 0
M  V30 953 C 88.971 0.617173 -3.35267 0
M  V30 954 H 90.164 -1.10111 -2.78954 0
M  V30 955 H 87.717 -0.608594 -1.43965 0
M  V30 956 H 88.452 1.46884 -2.89129 0
M  V30 957 H 88.237 0.0237066 -3.92093 0
M  V30 958 H 89.727 1.005 -4.05326 0
M  V30 959 N 90.1641 1.46063 -0.591896 0
M  V30 960 C 91.0941 2.33172 0.123673 0
M  V30 961 C 92.0751 1.45897 0.87453 0
M  V30 962 O 93.2601 1.74698 0.848181 0
M  V30 963 C 90.3901 3.28336 1.13194 0
M  V30 964 C 89.3441 4.25124 0.495324 0
M  V30 965 C 88.6701 5.09863 1.61071 0
M  V30 966 C 89.9701 5.19143 -0.573425 0
M  V30 967 H 91.6641 2.93252 -0.603646 0
M  V30 968 H 89.2101 1.41014 -0.291741 0
M  V30 969 H 91.1631 3.88137 1.64097 0
M  V30 970 H 89.8871 2.66383 1.88965 0
M  V30 971 H 88.5461 3.66599 0.00729452 0
M  V30 972 H 88.1941 4.44288 2.35832 0
M  V30 973 H 87.8941 5.75417 1.19035 0
M  V30 974 H 89.4181 5.72529 2.12233 0
M  V30 975 H 90.8321 5.73106 -0.1491 0
M  V30 976 H 89.2291 5.93089 -0.914636 0
M  V30 977 H 90.2991 4.62519 -1.45617 0
M  V30 978 N 91.6422 0.330177 1.54103 0
M  V30 979 C 92.5892 -0.532762 2.24567 0
M  V30 980 C 93.5592 -1.10635 1.23892 0
M  V30 981 O 94.7442 -1.14546 1.5259 0
M  V30 982 C 91.8842 -1.6845 3.01195 0
M  V30 983 C 90.9972 -1.13951 4.167 0
M  V30 984 C 90.1322 -2.25746 4.80845 0
M  V30 985 C 89.1712 -1.6853 5.88442 0
M  V30 986 N 88.3082 -2.74014 6.46421 0
M  V30 987 H 93.1482 0.0746905 2.97906 0
M  V30 988 H 90.6852 0.048632 1.4702 0
M  V30 989 H 92.6432 -2.36234 3.43874 0
M  V30 990 H 91.2732 -2.26314 2.30178 0
M  V30 991 H 90.3252 -0.35301 3.78758 0
M  V30 992 H 91.6372 -0.680892 4.94131 0
M  V30 993 H 90.7912 -3.01422 5.26526 0
M  V30 994 H 89.5302 -2.74947 4.0281 0
M  V30 995 H 88.5352 -0.913543 5.42157 0
M  V30 996 H 89.7602 -1.20198 6.68378 0
M  V30 997 H 87.7062 -3.22494 5.71256 0
M  V30 998 H 87.6232 -2.32735 7.19285 0
M  V30 999 H 88.8912 -3.49499 6.96757 0
M  V30 1000 N 93.1203 -1.57491 0.0584922 0
M  V30 1001 C 94.0303 -2.15448 -0.928414 0
M  V30 1002 C 95.0463 -1.11416 -1.3365 0
M  V30 1003 O 96.2223 -1.4362 -1.41193 0
M  V30 1004 C 93.2873 -2.69393 -2.18239 0
M  V30 1005 C 92.3483 -3.88249 -1.83196 0
M  V30 1006 C 91.5813 -4.39613 -3.02616 0
M  V30 1007 O 91.8043 -3.90023 -4.16219 0
M  V30 1008 O 90.7383 -5.31111 -2.83204 0
M  V30 1009 H 94.5643 -3.00112 -0.465483 0
M  V30 1010 H 92.1493 -1.48499 -0.163826 0
M  V30 1011 H 94.0313 -3.04026 -2.91798 0
M  V30 1012 H 92.7063 -1.87796 -2.63656 0
M  V30 1013 H 91.6133 -3.58492 -1.06931 0
M  V30 1014 H 92.9463 -4.71098 -1.42573 0
M  V30 1015 N 94.5984 0.214957 -1.56127 0
M  V30 1016 C 95.5454 1.26642 -1.92952 0
M  V30 1017 C 96.5154 1.46244 -0.78753 0
M  V30 1018 O 97.7004 1.59704 -1.04399 0
M  V30 1019 C 94.8404 2.6104 -2.25726 0
M  V30 1020 C 93.9534 2.49183 -3.52891 0
M  V30 1021 C 93.0884 3.76149 -3.7508 0
M  V30 1022 C 92.1274 3.59041 -4.95738 0
M  V30 1023 N 91.2644 4.77972 -5.14283 0
M  V30 1024 H 96.1044 0.945384 -2.82607 0
M  V30 1025 H 93.6414 0.455489 -1.3987 0
M  V30 1026 H 95.5994 3.39313 -2.42739 0
M  V30 1027 H 94.2294 2.91227 -1.39236 0
M  V30 1028 H 93.2814 1.6231 -3.44034 0
M  V30 1029 H 94.5934 2.32466 -4.41318 0
M  V30 1030 H 93.7474 4.62865 -3.92226 0
M  V30 1031 H 92.4864 3.95799 -2.84947 0
M  V30 1032 H 91.4914 2.7071 -4.78535 0
M  V30 1033 H 92.7164 3.40856 -5.87362 0
M  V30 1034 H 90.6624 4.97923 -4.27093 0
M  V30 1035 H 90.5794 4.64006 -5.96853 0
M  V30 1036 H 91.8474 5.66096 -5.35869 0
M  V30 1037 N 96.0765 1.50051 0.48192 0
M  V30 1038 C 96.9865 1.7089 1.60728 0
M  V30 1039 C 98.0025 0.591788 1.63627 0
M  V30 1040 O 99.1785 0.868817 1.81696 0
M  V30 1041 C 96.2435 1.78855 2.97005 0
M  V30 1042 C 95.3045 3.02537 3.04581 0
M  V30 1043 C 94.5375 3.10112 4.34357 0
M  V30 1044 O 94.7605 2.24765 5.24249 0
M  V30 1045 O 93.6945 4.02747 4.47301 0
M  V30 1046 H 97.5205 2.66264 1.46072 0
M  V30 1047 H 95.1055 1.34018 0.660264 0
M  V30 1048 H 96.9875 1.86336 3.77964 0
M  V30 1049 H 95.6625 0.866628 3.11883 0
M  V30 1050 H 94.5695 3.00563 2.22739 0
M  V30 1051 H 95.9025 3.94272 2.94636 0
M  V30 1052 N 97.5546 -0.734337 1.39446 0
M  V30 1053 C 98.5016 -1.84835 1.38219 0
M  V30 1054 C 99.4716 -1.64331 0.24179 0
M  V30 1055 O 100.657 -1.85728 0.437002 0
M  V30 1056 C 97.7966 -3.22355 1.23212 0
M  V30 1057 C 96.9096 -3.5456 2.46801 0
M  V30 1058 C 96.0446 -4.81485 2.24377 0
M  V30 1059 C 95.0836 -5.06536 3.43639 0
M  V30 1060 N 94.2206 -6.24665 3.20528 0
M  V30 1061 H 99.0606 -1.85219 2.33448 0
M  V30 1062 H 96.5976 -0.905039 1.15963 0
M  V30 1063 H 98.5556 -4.0174 1.12522 0
M  V30 1064 H 97.1856 -3.21248 0.316121 0
M  V30 1065 H 96.2376 -2.69872 2.68092 0
M  V30 1066 H 97.5496 -3.6899 3.3563 0
M  V30 1067 H 96.7036 -5.68852 2.10933 0
M  V30 1068 H 95.4426 -4.6923 1.32944 0
M  V30 1069 H 94.4476 -4.17632 3.5758 0
M  V30 1070 H 95.6726 -5.20676 4.35974 0
M  V30 1071 H 93.6186 -6.13696 2.3176 0
M  V30 1072 H 93.5356 -6.39685 4.02913 0
M  V30 1073 H 94.8036 -7.14868 3.10779 0
M  V30 1074 N 99.0327 -1.24633 -0.964593 0
M  V30 1075 C 99.9957 -1.0424 -2.04124 0
M  V30 1076 C 100.996 0.00137563 -1.608 0
M  V30 1077 O 102.186 -0.239883 -1.7254 0
M  V30 1078 C 99.3177 -0.580588 -3.3592 0
M  V30 1079 H 100.511 -1.99803 -2.23649 0
M  V30 1080 H 98.0637 -1.06899 -1.14027 0
M  V30 1081 H 98.7987 0.3781 -3.22088 0
M  V30 1082 H 98.5837 -1.33398 -3.6871 0
M  V30 1083 H 100.074 -0.459034 -4.15069 0
M  V30 1084 N 100.511 1.16574 -1.06058 0
M  V30 1085 C 101.736 1.91493 -0.796562 0
M  V30 1086 C 102.161 1.76773 0.642868 0
M  V30 1087 O 101.519 1.09142 1.44768 0
M  V30 1088 C 101.567 3.40293 -1.19303 0
M  V30 1089 O 100.671 4.11074 -0.330394 0
M  V30 1090 H 100.012 0.596678 -0.291326 0
M  V30 1091 H 102.542 1.47708 -1.41575 0
M  V30 1092 H 102.552 3.91057 -1.16356 0
M  V30 1093 H 101.227 3.50326 -2.24153 0
M  V30 1094 H 99.8038 3.70513 -0.421225 0
M  V30 1095 N 101.989 0.842826 1.3317 0
M  V30 1096 C 103.235 0.450342 1.98352 0
M  V30 1097 C 103.59 -0.980508 1.65541 0
M  V30 1098 O 102.883 -1.67678 0.927065 0
M  V30 1099 C 103.077 0.612607 3.52111 0
M  V30 1100 C 102.906 2.05768 3.99862 0
M  V30 1101 C 101.676 2.69374 4.27511 0
M  V30 1102 C 103.874 3.02688 4.15794 0
M  V30 1103 N 101.856 4.04915 4.61429 0
M  V30 1104 C 103.227 4.23186 4.53115 0
M  V30 1105 C 105.282 2.99041 3.98094 0
M  V30 1106 C 103.985 5.40518 4.74587 0
M  V30 1107 C 106.011 4.15607 4.20743 0
M  V30 1108 C 105.373 5.3486 4.58371 0
M  V30 1109 H 101.472 0.213296 0.752349 0
M  V30 1110 H 104.056 1.09173 1.61212 0
M  V30 1111 H 102.227 0.000998822 3.884 0
M  V30 1112 H 103.959 0.191179 4.04248 0
M  V30 1113 H 100.714 2.20485 4.19146 0
M  V30 1114 H 101.138 4.74798 4.82593 0
M  V30 1115 H 105.78 2.0797 3.68114 0
M  V30 1116 H 103.498 6.3213 5.03425 0
M  V30 1117 H 107.084 4.14207 4.08563 0
M  V30 1118 H 105.964 6.23558 4.75547 0
M  V30 1119 N 103.467 -1.45747 0.599634 0
M  V30 1120 C 104.692 -2.07178 0.0960198 0
M  V30 1121 C 105.117 -1.44268 -1.207 0
M  V30 1122 O 104.475 -0.532503 -1.73303 0
M  V30 1123 C 104.523 -3.60579 -0.0385348 0
M  V30 1124 O 103.627 -3.97713 -1.0908 0
M  V30 1125 H 102.968 -0.660251 0.0704593 0
M  V30 1126 H 105.498 -1.87124 0.827385 0
M  V30 1127 H 105.508 -4.07298 -0.239304 0
M  V30 1128 H 104.183 -4.05756 0.912947 0
M  V30 1129 H 102.76 -3.62678 -0.867135 0
M  V30 1130 N 104.945 -0.338344 -1.53925 0
M  V30 1131 C 106.17 0.263987 -2.05713 0
M  V30 1132 C 106.595 1.43847 -1.21201 0
M  V30 1133 O 105.953 1.79904 -0.224535 0
M  V30 1134 C 106.001 0.662 -3.54471 0
M  V30 1135 O 105.105 1.76265 -3.72833 0
M  V30 1136 H 104.446 0.0448722 -0.662482 0
M  V30 1137 H 106.976 -0.491048 -1.9862 0
M  V30 1138 H 106.986 0.940594 -3.9701 0
M  V30 1139 H 105.661 -0.196937 -4.15433 0
M  V30 1140 H 104.238 1.48173 -3.42198 0
M  V30 1141 N 106.423 1.57458 -0.0668435 0
M  V30 1142 C 107.353 2.15468 0.899764 0
M  V30 1143 C 108.334 1.08042 1.31381 0
M  V30 1144 O 109.519 1.36054 1.38574 0
M  V30 1145 C 106.649 2.71232 2.16911 0
M  V30 1146 C 105.603 3.83781 1.89463 0
M  V30 1147 C 104.929 4.26127 3.22986 0
M  V30 1148 C 106.229 5.08238 1.20381 0
M  V30 1149 H 107.923 2.96488 0.416529 0
M  V30 1150 H 105.469 1.4262 0.198908 0
M  V30 1151 H 107.422 3.10458 2.84945 0
M  V30 1152 H 106.146 1.87426 2.67468 0
M  V30 1153 H 104.805 3.45051 1.23836 0
M  V30 1154 H 104.453 3.39249 3.71374 0
M  V30 1155 H 104.153 5.01993 3.05413 0
M  V30 1156 H 105.677 4.67966 3.92225 0
M  V30 1157 H 107.091 5.44811 1.78475 0
M  V30 1158 H 105.488 5.89349 1.13083 0
M  V30 1159 H 106.558 4.84558 0.182153 0
M  V30 1160 N 107.901 -0.206675 1.56239 0
M  V30 1161 C 109.126 -0.949474 1.8439 0
M  V30 1162 C 109.551 -1.76549 0.649016 0
M  V30 1163 O 108.909 -1.76782 -0.402231 0
M  V30 1164 C 108.957 -1.83078 3.10668 0
M  V30 1165 O 108.061 -2.9281 2.90407 0
M  V30 1166 H 107.402 -0.268033 0.607499 0
M  V30 1167 H 109.932 -0.215488 2.03462 0
M  V30 1168 H 109.942 -2.2377 3.41161 0
M  V30 1169 H 108.617 -1.23112 3.97261 0
M  V30 1170 H 107.194 -2.55956 2.71184 0
M  V30 1171 N 109.379 -1.50304 -0.473955 0
M  V30 1172 C 110.312 -1.63595 -1.59097 0
M  V30 1173 C 111.29 -0.484142 -1.55225 0
M  V30 1174 O 112.474 -0.703271 -1.7489 0
M  V30 1175 C 109.601 -1.61589 -2.97669 0
M  V30 1176 C 108.647 -2.82295 -3.19705 0
M  V30 1177 S 109.48 -4.43635 -2.99913 0
M  V30 1178 C 110.636 -4.44317 -4.40832 0
M  V30 1179 H 110.869 -2.58082 -1.47583 0
M  V30 1180 H 108.402 -1.39531 -0.661087 0
M  V30 1181 H 110.36 -1.61116 -3.7756 0
M  V30 1182 H 109.021 -0.683421 -3.06575 0
M  V30 1183 H 108.214 -2.77188 -4.20931 0
M  V30 1184 H 107.816 -2.8032 -2.47582 0
M  V30 1185 H 110.108 -4.17703 -5.33414 0
M  V30 1186 H 111.051 -5.45911 -4.50984 0
M  V30 1187 H 111.459 -3.74059 -4.22777 0
M  V30 1188 N 110.857 0.726932 -1.39834 0
M  V30 1189 C 112.134 1.47902 -1.28001 0
M  V30 1190 C 112.514 2.1083 0.106789 0
M  V30 1191 O 111.862 1.99242 1.11869 0
M  V30 1192 C 112.072 2.52392 -2.41038 0
M  V30 1193 C 113.42 3.18546 -2.80737 0
M  V30 1194 O 114.444 2.62708 -2.40547 0
M  V30 1195 O 113.303 4.19604 -3.50135 0
M  V30 1196 H 110.397 0.657163 -0.502062 0
M  V30 1197 H 112.943 0.760071 -1.51727 0
M  V30 1198 H 111.715 2.04329 -3.33715 0
M  V30 1199 H 111.338 3.31837 -2.19021 0
M  V30 1200 N 112.336 1.25143 0.95797 0
M  V30 1201 C 113.246 1.06968 2.08794 0
M  V30 1202 C 114.262 0.00773911 1.73998 0
M  V30 1203 O 115.438 0.207972 2.00323 0
M  V30 1204 C 112.503 0.68691 3.39827 0
M  V30 1205 C 111.564 1.82641 3.88511 0
M  V30 1206 C 110.797 1.46181 5.1329 0
M  V30 1207 O 111.02 0.355971 5.69288 0
M  V30 1208 O 109.954 2.29085 5.566 0
M  V30 1209 H 113.78 2.01723 2.27027 0
M  V30 1210 H 111.365 1.04051 1.07209 0
M  V30 1211 H 113.247 0.485417 4.18595 0
M  V30 1212 H 111.922 -0.231417 3.22872 0
M  V30 1213 H 110.829 2.08274 3.10762 0
M  V30 1214 H 112.162 2.72386 4.09959 0
M  V30 1215 N 113.814 -1.1601 1.06675 0
M  V30 1216 C 114.761 -2.20525 0.680967 0
M  V30 1217 C 115.731 -1.62904 -0.324283 0
M  V30 1218 O 116.916 -1.89615 -0.212294 0
M  V30 1219 C 114.056 -3.45013 0.0776551 0
M  V30 1220 C 113.169 -4.16863 1.13355 0
M  V30 1221 C 112.304 -5.2888 0.49597 0
M  V30 1222 C 111.343 -5.92537 1.53513 0
M  V30 1223 N 110.48 -6.96038 0.920631 0
M  V30 1224 H 115.32 -2.52876 1.57663 0
M  V30 1225 H 112.857 -1.24199 0.788223 0
M  V30 1226 H 114.815 -4.16193 -0.289704 0
M  V30 1227 H 113.445 -3.132 -0.781393 0
M  V30 1228 H 112.497 -3.44248 1.61857 0
M  V30 1229 H 113.809 -4.60294 1.92174 0
M  V30 1230 H 112.963 -6.06653 0.0758604 0
M  V30 1231 H 111.702 -4.86622 -0.324062 0
M  V30 1232 H 110.707 -5.13482 1.9651 0
M  V30 1233 H 111.932 -6.36873 2.35733 0
M  V30 1234 H 109.878 -6.55888 0.12138 0
M  V30 1235 H 109.795 -7.3786 1.64616 0
M  V30 1236 H 111.063 -7.77725 0.525795 0
M  V30 1237 N 115.292 -0.849877 -1.32721 0
M  V30 1238 C 116.538 -0.451591 -1.97708 0
M  V30 1239 C 116.871 0.989175 -1.6712 0
M  V30 1240 O 116.146 1.69334 -0.956891 0
M  V30 1241 C 116.429 -0.685598 -3.53513 0
M  V30 1242 C 116.282 -2.17444 -3.93749 0
M  V30 1243 C 117.601 -0.138874 -4.39881 0
M  V30 1244 H 114.72 -0.16555 -0.718166 0
M  V30 1245 H 117.362 -1.06742 -1.57182 0
M  V30 1246 H 115.512 -0.161416 -3.88165 0
M  V30 1247 H 117.184 -2.76433 -3.693 0
M  V30 1248 H 115.427 -2.65476 -3.43081 0
M  V30 1249 H 116.098 -2.28888 -5.02309 0
M  V30 1250 H 118.574 -0.587068 -4.11938 0
M  V30 1251 H 117.45 -0.332213 -5.47894 0
M  V30 1252 H 117.711 0.95806 -4.31594 0
M  V30 1253 N 116.77 1.45427 -0.607355 0
M  V30 1254 C 117.68 2.34325 0.113463 0
M  V30 1255 C 118.696 1.51226 0.860617 0
M  V30 1256 O 119.872 1.84029 0.818255 0
M  V30 1257 C 116.937 3.28839 1.09844 0
M  V30 1258 C 115.998 4.27844 0.353271 0
M  V30 1259 C 115.231 5.17842 1.29133 0
M  V30 1260 O 115.454 5.11264 2.52913 0
M  V30 1261 O 114.388 5.96713 0.788523 0
M  V30 1262 H 118.214 2.97364 -0.617094 0
M  V30 1263 H 115.799 1.44807 -0.367619 0
M  V30 1264 H 117.681 3.8708 1.66575 0
M  V30 1265 H 116.356 2.68365 1.81003 0
M  V30 1266 H 115.263 3.7322 -0.256494 0
M  V30 1267 H 116.596 4.91173 -0.317822 0
M  V30 1268 N 118.248 0.346503 1.53744 0
M  V30 1269 C 119.178 -0.501193 2.28058 0
M  V30 1270 C 120.159 -1.10014 1.29734 0
M  V30 1271 O 121.344 -1.12097 1.58581 0
M  V30 1272 C 118.474 -1.65078 3.05559 0
M  V30 1273 C 117.428 -1.18003 4.11411 0
M  V30 1274 C 116.754 -2.41837 4.76884 0
M  V30 1275 C 118.054 -0.278394 5.21558 0
M  V30 1276 H 119.748 0.11875 2.99164 0
M  V30 1277 H 117.294 0.0585531 1.43881 0
M  V30 1278 H 119.247 -2.25028 3.56287 0
M  V30 1279 H 117.971 -2.29767 2.32109 0
M  V30 1280 H 116.63 -0.603331 3.61601 0
M  V30 1281 H 116.278 -3.0494 4.00026 0
M  V30 1282 H 115.978 -2.1102 5.48402 0
M  V30 1283 H 117.502 -3.02508 5.30397 0
M  V30 1284 H 118.916 -0.784823 5.67903 0
M  V30 1285 H 117.313 -0.0619707 6.00068 0
M  V30 1286 H 118.383 0.684677 4.80042 0
M  V30 1287 N 119.726 -1.57421 0.075193 0
M  V30 1288 C 120.956 -1.97659 -0.601203 0
M  V30 1289 C 121.364 -0.952427 -1.63479 0
M  V30 1290 O 120.707 0.0688241 -1.83571 0
M  V30 1291 C 120.769 -3.34218 -1.32434 0
M  V30 1292 C 120.433 -4.5484 -0.443826 0
M  V30 1293 C 121.43 -5.19034 0.299969 0
M  V30 1294 C 119.115 -5.00952 -0.367709 0
M  V30 1295 C 121.109 -6.27695 1.10807 0
M  V30 1296 C 118.796 -6.09484 0.444058 0
M  V30 1297 C 119.794 -6.72719 1.18061 0
M  V30 1298 O 119.482 -7.79161 1.97898 0
M  V30 1299 H 119.214 -0.65494 -0.167422 0
M  V30 1300 H 121.768 -2.04886 0.145157 0
M  V30 1301 H 119.998 -3.23615 -2.11685 0
M  V30 1302 H 121.687 -3.59038 -1.89331 0
M  V30 1303 H 122.453 -4.84351 0.250776 0
M  V30 1304 H 118.332 -4.51509 -0.930638 0
M  V30 1305 H 121.876 -6.76982 1.68347 0
M  V30 1306 H 117.773 -6.43601 0.494803 0
M  V30 1307 H 118.541 -7.96055 1.90367 0
M  V30 1308 N 121.204 0.198386 -1.56346 0
M  V30 1309 C 122.62 0.549085 -1.49857 0
M  V30 1310 C 122.82 1.86016 -0.774611 0
M  V30 1311 O 121.876 2.50416 -0.323776 0
M  V30 1312 C 123.189 0.606868 -2.94512 0
M  V30 1313 C 124.737 0.695925 -3.05165 0
M  V30 1314 C 125.212 0.784848 -4.51225 0
M  V30 1315 N 126.703 0.848463 -4.55363 0
M  V30 1316 C 127.438 0.937378 -5.65686 0
M  V30 1317 N 126.934 0.9888 -6.85707 0
M  V30 1318 N 128.727 0.974312 -5.53592 0
M  V30 1319 H 120.878 -0.661655 -2.01831 0
M  V30 1320 H 123.141 -0.235261 -0.918344 0
M  V30 1321 H 122.847 -0.28732 -3.50524 0
M  V30 1322 H 122.721 1.46268 -3.47686 0
M  V30 1323 H 125.108 1.58055 -2.49204 0
M  V30 1324 H 125.189 -0.186022 -2.55123 0
M  V30 1325 H 124.833 -0.0954072 -5.0781 0
M  V30 1326 H 124.763 1.68255 -4.98997 0
M  V30 1327 H 127.254 0.818103 -3.68938 0
M  V30 1328 H 127.567 1.05707 -7.65536 0
M  V30 1329 H 125.912 0.957534 -6.88372 0
M  V30 1330 H 129.103 0.930954 -4.58749 0
M  V30 1331 H 129.276 1.04015 -6.39597 0
M  V30 1332 N 122.682 1.50554 0.465978 0
M  V30 1333 C 123.931 1.61038 1.21448 0
M  V30 1334 C 124.244 0.31865 1.92987 0
M  V30 1335 O 125.45 0.302469 2.6981 0
M  V30 1336 C 123.906 2.84283 2.20706 0
M  V30 1337 C 123.514 4.20352 1.54946 0
M  V30 1338 C 125.258 3.04115 2.96166 0
M  V30 1339 C 123.165 5.34778 2.5252 0
M  V30 1340 H 122.095 0.599718 0.457005 0
M  V30 1341 H 124.746 1.7699 0.484424 0
M  V30 1342 H 123.128 2.61901 2.97025 0
M  V30 1343 H 124.302 4.53008 0.843811 0
M  V30 1344 H 122.617 4.06167 0.917475 0
M  V30 1345 H 125.214 3.86774 3.69202 0
M  V30 1346 H 125.557 2.16045 3.55852 0
M  V30 1347 H 126.09 3.26702 2.26959 0
M  V30 1348 H 122.829 6.25018 1.97566 0
M  V30 1349 H 122.349 5.06534 3.21222 0
M  V30 1350 H 124.028 5.65561 3.14245 0
M  V30 1351 N 124.16 -0.719506 1.40217 0
M  V30 1352 C 125.107 -1.83359 1.40172 0
M  V30 1353 C 126.077 -1.64065 0.259206 0
M  V30 1354 O 127.262 -1.85254 0.456677 0
M  V30 1355 C 124.402 -3.2103 1.26624 0
M  V30 1356 C 123.515 -3.51923 2.50548 0
M  V30 1357 C 122.65 -4.79079 2.29471 0
M  V30 1358 C 121.689 -5.02863 3.48992 0
M  V30 1359 N 120.826 -6.2123 3.27135 0
M  V30 1360 H 125.666 -1.82733 2.35399 0
M  V30 1361 H 123.203 -0.892688 1.16917 0
M  V30 1362 H 125.161 -4.00524 1.16776 0
M  V30 1363 H 123.791 -3.20895 0.350176 0
M  V30 1364 H 122.843 -2.67014 2.70939 0
M  V30 1365 H 124.155 -3.6541 3.39525 0
M  V30 1366 H 123.309 -5.66582 2.16955 0
M  V30 1367 H 122.048 -4.67794 1.37913 0
M  V30 1368 H 121.053 -4.13816 3.6199 0
M  V30 1369 H 122.278 -5.16023 4.41472 0
M  V30 1370 H 120.224 -6.11204 2.38256 0
M  V30 1371 H 120.141 -6.35375 4.09675 0
M  V30 1372 H 121.409 -7.11532 3.18344 0
M  V30 1373 N 125.638 -1.25649 -0.95132 0
M  V30 1374 C 126.885 -1.10594 -1.69633 0
M  V30 1375 C 127.213 0.352515 -1.91279 0
M  V30 1376 O 126.468 1.27601 -1.4838 0
M  V30 1377 C 126.767 -1.80909 -3.08231 0
M  V30 1378 C 126.433 -3.30825 -3.06375 0
M  V30 1379 C 125.095 -3.71722 -3.05576 0
M  V30 1380 C 127.447 -4.26589 -2.99452 0
M  V30 1381 C 124.775 -5.06788 -2.95606 0
M  V30 1382 C 127.127 -5.61683 -2.91024 0
M  V30 1383 C 125.791 -6.01904 -2.88562 0
M  V30 1384 H 125.061 -0.404691 -0.620731 0
M  V30 1385 H 127.708 -1.55964 -1.11119 0
M  V30 1386 H 126.013 -1.27979 -3.70309 0
M  V30 1387 H 127.71 -1.6671 -3.64704 0
M  V30 1388 H 124.3 -2.98287 -3.07771 0
M  V30 1389 H 128.484 -3.95982 -2.99185 0
M  V30 1390 H 123.74 -5.37126 -2.92071 0
M  V30 1391 H 127.914 -6.35578 -2.84629 0
M  V30 1392 H 125.541 -7.06521 -2.80593 0
M  V30 1393 N 127.117 1.15442 -1.07289 0
M  V30 1394 C 128.064 2.20161 -0.692653 0
M  V30 1395 C 129.034 1.63073 0.31564 0
M  V30 1396 O 130.219 1.89725 0.202235 0
M  V30 1397 C 127.359 3.44967 -0.0959509 0
M  V30 1398 C 126.472 4.16256 -1.15564 0
M  V30 1399 C 125.607 5.28609 -0.524011 0
M  V30 1400 C 124.646 5.91715 -1.56653 0
M  V30 1401 N 123.783 6.9554 -0.957531 0
M  V30 1402 H 128.623 2.52037 -1.59002 0
M  V30 1403 H 126.16 1.2378 -0.794798 0
M  V30 1404 H 128.118 4.16341 0.267628 0
M  V30 1405 H 126.748 3.1361 0.764772 0
M  V30 1406 H 125.8 3.43385 -1.6368 0
M  V30 1407 H 127.112 4.59268 -1.94613 0
M  V30 1408 H 126.266 6.06604 -0.108032 0
M  V30 1409 H 125.005 4.86787 0.29825 0
M  V30 1410 H 124.01 5.12433 -1.9923 0
M  V30 1411 H 125.235 6.35614 -2.39107 0
M  V30 1412 H 123.181 6.55814 -0.156162 0
M  V30 1413 H 123.098 7.36977 -1.68526 0
M  V30 1414 H 124.366 7.77435 -0.567032 0
M  V30 1415 N 128.595 0.856903 1.32268 0
M  V30 1416 C 129.505 0.306131 2.32594 0
M  V30 1417 C 130.521 -0.577209 1.64147 0
M  V30 1418 O 131.697 -0.477043 1.95669 0
M  V30 1419 C 128.762 -0.494561 3.43154 0
M  V30 1420 C 127.823 0.415186 4.27288 0
M  V30 1421 C 127.056 -0.347387 5.32568 0
M  V30 1422 O 127.279 -1.57708 5.48165 0
M  V30 1423 O 126.213 0.287982 6.01211 0
M  V30 1424 H 130.039 1.13737 2.81598 0
M  V30 1425 H 127.624 0.619902 1.35932 0
M  V30 1426 H 129.506 -0.948944 4.10576 0
M  V30 1427 H 128.181 -1.30257 2.96336 0
M  V30 1428 H 127.088 0.917793 3.62667 0
M  V30 1429 H 128.421 1.18844 4.77637 0
M  V30 1430 N 130.073 -1.45103 0.615059 0
M  V30 1431 C 131.298 -2.07064 0.117988 0
M  V30 1432 C 131.723 -1.4554 -1.19163 0
M  V30 1433 O 131.081 -0.550855 -1.72729 0
M  V30 1434 C 131.129 -3.606 -0.000288387 0
M  V30 1435 O 130.233 -3.98847 -1.04856 0
M  V30 1436 H 129.574 -0.659467 0.0774581 0
M  V30 1437 H 132.104 -1.86236 0.847186 0
M  V30 1438 H 132.114 -4.07529 -0.196091 0
M  V30 1439 H 130.789 -4.04765 0.955932 0
M  V30 1440 H 129.366 -3.63577 -0.828619 0
M  V30 1441 N 131.551 -0.354651 -1.53558 0
M  V30 1442 C 132.798 0.238443 -2.01091 0
M  V30 1443 C 133.126 1.49663 -1.24222 0
M  V30 1444 O 132.381 1.93049 -0.321003 0
M  V30 1445 C 132.68 0.587121 -3.52545 0
M  V30 1446 C 132.346 -0.575472 -4.47213 0
M  V30 1447 C 131.008 -0.894497 -4.72813 0
M  V30 1448 C 133.36 -1.35489 -5.03281 0
M  V30 1449 C 130.688 -1.99511 -5.51736 0
M  V30 1450 C 133.04 -2.44583 -5.83405 0
M  V30 1451 C 131.704 -2.77033 -6.07296 0
M  V30 1452 H 130.974 0.0872526 -0.735845 0
M  V30 1453 H 133.621 -0.484859 -1.8526 0
M  V30 1454 H 131.926 1.39129 -3.66265 0
M  V30 1455 H 133.623 1.05809 -3.86789 0
M  V30 1456 H 130.213 -0.316774 -4.27428 0
M  V30 1457 H 134.397 -1.12167 -4.83459 0
M  V30 1458 H 129.653 -2.25063 -5.68469 0
M  V30 1459 H 133.827 -3.05401 -6.25862 0
M  V30 1460 H 131.454 -3.6244 -6.68237 0
M  V30 1461 N 133.029 1.57378 -0.0835403 0
M  V30 1462 C 133.992 2.12252 0.864959 0
M  V30 1463 C 134.992 1.04916 1.21858 0
M  V30 1464 O 136.182 1.30853 1.14991 0
M  V30 1465 C 133.314 2.63358 2.16461 0
M  V30 1466 H 134.507 2.97371 0.388676 0
M  V30 1467 H 132.06 1.55423 0.165317 0
M  V30 1468 H 132.795 1.81727 2.686 0
M  V30 1469 H 132.58 3.41826 1.92087 0
M  V30 1470 H 134.07 3.05847 2.84337 0
M  V30 1471 N 134.507 -0.190092 1.56449 0
M  V30 1472 C 135.417 -1.25591 1.98152 0
M  V30 1473 C 136.433 -1.49519 0.889944 0
M  V30 1474 O 137.609 -1.62036 1.19609 0
M  V30 1475 C 134.674 -2.57916 2.3169 0
M  V30 1476 C 133.735 -2.42015 3.5458 0
M  V30 1477 C 132.968 -3.6803 3.8651 0
M  V30 1478 O 133.191 -4.72413 3.1966 0
M  V30 1479 O 132.125 -3.6326 4.79923 0
M  V30 1480 H 135.951 -0.931988 2.89046 0
M  V30 1481 H 133.536 -0.395488 1.4407 0
M  V30 1482 H 135.418 -3.36008 2.54316 0
M  V30 1483 H 134.093 -2.89925 1.43963 0
M  V30 1484 H 133 -1.62017 3.37196 0
M  V30 1485 H 134.333 -2.14937 4.4279 0
M  V30 1486 N 135.985 -1.50799 -0.457987 0
M  V30 1487 C 136.918 -1.65273 -1.57353 0
M  V30 1488 C 137.896 -0.500578 -1.54703 0
M  V30 1489 O 139.08 -0.721781 -1.74134 0
M  V30 1490 C 136.207 -1.64737 -2.95938 0
M  V30 1491 C 135.253 -2.8567 -3.16693 0
M  V30 1492 S 136.086 -4.46791 -2.95191 0
M  V30 1493 C 137.242 -4.48968 -4.36095 0
M  V30 1494 H 137.475 -2.59633 -1.44838 0
M  V30 1495 H 135.008 -1.40225 -0.64625 0
M  V30 1496 H 136.966 -1.65112 -3.7583 0
M  V30 1497 H 135.627 -0.715899 -3.05833 0
M  V30 1498 H 134.82 -2.81637 -4.17967 0
M  V30 1499 H 134.422 -2.8293 -2.44594 0
M  V30 1500 H 136.714 -4.23337 -5.28954 0
M  V30 1501 H 137.657 -5.50664 -4.45168 0
M  V30 1502 H 138.065 -3.78522 -4.18786 0
M  V30 1503 N 137.463 0.71206 -1.40597 0
M  V30 1504 C 138.411 1.84746 -1.41321 0
M  V30 1505 C 139.405 1.66842 -0.293268 0
M  V30 1506 O 140.611 1.73904 -0.464481 0
M  V30 1507 H 136.986 0.608522 -0.441819 0
M  V30 1508 H 138.957 1.81252 -2.37045 0
M  V30 1509 C 137.706 3.22638 -1.29614 0
M  V30 1510 H 137.029 3.37023 -2.15071 0
M  V30 1511 H 138.469 4.02209 -1.3418 0
M  V30 1512 C 136.928 3.36899 -0.00673121 0
M  V30 1513 O 137.458 3.90186 0.954859 0
M  V30 1514 N 135.664 2.9053 0.0639327 0
M  V30 1515 H 135.211 2.47353 -0.719311 0
M  V30 1516 H 135.169 3.0045 0.926118 0
M  V30 1517 N 138.941 1.26152 0.944643 0
M  V30 1518 C 140.357 1.03189 1.21754 0
M  V30 1519 C 140.557 -0.245112 2.00004 0
M  V30 1520 O 139.613 -0.955176 2.33736 0
M  V30 1521 C 140.926 2.26119 1.98219 0
M  V30 1522 C 142.474 2.30984 2.11224 0
M  V30 1523 C 142.949 3.53597 2.91089 0
M  V30 1524 N 144.44 3.54053 2.98664 0
M  V30 1525 C 145.175 4.45593 3.60881 0
M  V30 1526 N 144.671 5.47416 4.24626 0
M  V30 1527 N 146.464 4.33252 3.58119 0
M  V30 1528 H 138.615 2.08177 0.421437 0
M  V30 1529 H 140.878 0.914723 0.248969 0
M  V30 1530 H 140.584 3.18984 1.48128 0
M  V30 1531 H 140.458 2.3009 2.98895 0
M  V30 1532 H 142.845 1.38635 2.60508 0
M  V30 1533 H 142.926 2.31026 1.09821 0
M  V30 1534 H 142.57 4.46273 2.42493 0
M  V30 1535 H 142.5 3.50802 3.92741 0
M  V30 1536 H 144.991 2.80403 2.53343 0
M  V30 1537 H 145.304 6.13459 4.69987 0
M  V30 1538 H 143.649 5.51278 4.23223 0
M  V30 1539 H 146.84 3.52924 3.0751 0
M  V30 1540 H 147.013 5.04786 4.06319 0
M  V30 1541 N 140.419 -1.14872 1.07899 0
M  V30 1542 C 141.667 -1.85422 0.803941 0
M  V30 1543 C 141.988 -1.83051 -0.67211 0
M  V30 1544 O 141.258 -1.27532 -1.48703 0
M  V30 1545 H 139.838 -0.686537 0.294408 0
M  V30 1546 H 142.5 -1.39226 1.3639 0
M  V30 1547 H 141.596 -2.90399 1.14346 0
M  V30 1548 N 141.898 -0.863906 -1.31812 0
M  V30 1549 C 143.123 -0.48527 -2.01643 0
M  V30 1550 C 143.548 0.913058 -1.64453 0
M  V30 1551 O 142.906 1.6014 -0.849985 0
M  V30 1552 C 142.954 -0.642625 -3.54828 0
M  V30 1553 O 142.058 0.320659 -4.11151 0
M  V30 1554 H 141.399 -0.193793 -0.635091 0
M  V30 1555 H 143.929 -1.16565 -1.68148 0
M  V30 1556 H 143.939 -0.533628 -4.04495 0
M  V30 1557 H 142.614 -1.66227 -3.81237 0
M  V30 1558 H 141.191 0.167126 -3.72525 0
M  V30 1559 N 143.376 1.44774 -0.622745 0
M  V30 1560 C 144.324 2.32387 0.0994683 0
M  V30 1561 C 145.318 1.46859 0.844326 0
M  V30 1562 O 146.524 1.63254 0.758174 0
M  V30 1563 H 142.899 0.750273 0.0509291 0
M  V30 1564 H 144.87 2.91062 -0.65767 0
M  V30 1565 C 143.619 3.30723 1.07319 0
M  V30 1566 H 142.942 3.96541 0.509462 0
M  V30 1567 H 144.382 3.94725 1.54817 0
M  V30 1568 C 142.841 2.59021 2.15429 0
M  V30 1569 O 143.371 2.38286 3.23393 0
M  V30 1570 N 141.577 2.189 1.91131 0
M  V30 1571 H 141.124 2.35964 1.03337 0
M  V30 1572 H 141.082 1.71251 2.63668 0
M  V30 1573 N 144.854 0.36279 1.53368 0
M  V30 1574 C 145.764 -0.492994 2.29362 0
M  V30 1575 C 146.78 -1.09507 1.35219 0
M  V30 1576 O 147.956 -1.10662 1.68273 0
M  V30 1577 C 145.021 -1.61855 3.066 0
M  V30 1578 C 144.082 -1.04429 4.16405 0
M  V30 1579 C 143.315 -2.11621 4.89951 0
M  V30 1580 O 143.538 -3.32684 4.63333 0
M  V30 1581 O 142.472 -1.74835 5.75948 0
M  V30 1582 H 146.298 0.125331 3.03441 0
M  V30 1583 H 143.883 0.127253 1.48857 0
M  V30 1584 H 145.765 -2.27302 3.54841 0
M  V30 1585 H 144.44 -2.22233 2.3536 0
M  V30 1586 H 143.347 -0.353819 3.72423 0
M  V30 1587 H 144.68 -0.485113 4.89804 0
M  V30 1588 N 146.332 -1.57332 0.0918853 0
M  V30 1589 C 147.578 -1.95328 -0.567313 0
M  V30 1590 C 147.933 -0.972866 -1.65991 0
M  V30 1591 O 147.226 0.00166256 -1.916 0
M  V30 1592 C 147.42 -3.37689 -1.17051 0
M  V30 1593 C 147.249 -4.49489 -0.137875 0
M  V30 1594 C 146.019 -5.04498 0.284515 0
M  V30 1595 C 148.217 -5.10393 0.63271 0
M  V30 1596 N 146.199 -5.99853 1.30576 0
M  V30 1597 C 147.57 -6.01435 1.50587 0
M  V30 1598 C 149.625 -4.93143 0.68658 0
M  V30 1599 C 148.328 -6.77077 2.42815 0
M  V30 1600 C 150.354 -5.69445 1.59645 0
M  V30 1601 C 149.716 -6.60151 2.45725 0
M  V30 1602 H 145.815 -0.761467 -0.178023 0
M  V30 1603 H 148.399 -1.93924 0.173706 0
M  V30 1604 H 146.57 -3.39793 -1.88136 0
M  V30 1605 H 148.302 -3.62872 -1.79181 0
M  V30 1606 H 145.057 -4.73489 -0.102593 0
M  V30 1607 H 145.481 -6.52231 1.81449 0
M  V30 1608 H 150.123 -4.22785 0.035244 0
M  V30 1609 H 147.841 -7.46699 3.08975 0
M  V30 1610 H 151.427 -5.58112 1.64323 0
M  V30 1611 H 150.307 -7.18159 3.14987 0
M  V30 1612 N 147.81 0.181792 -1.56548 0
M  V30 1613 C 148.757 1.22521 -1.95595 0
M  V30 1614 C 149.727 1.4454 -0.818373 0
M  V30 1615 O 150.912 1.57454 -1.07763 0
M  V30 1616 C 148.052 2.56193 -2.31212 0
M  V30 1617 C 147.165 2.41641 -3.58097 0
M  V30 1618 C 146.3 3.68108 -3.82975 0
M  V30 1619 C 145.339 3.48445 -5.03242 0
M  V30 1620 N 144.476 4.66956 -5.24306 0
M  V30 1621 H 149.316 0.885226 -2.84548 0
M  V30 1622 H 146.853 0.425718 -1.40805 0
M  V30 1623 H 148.811 3.34088 -2.49882 0
M  V30 1624 H 147.441 2.88208 -1.45382 0
M  V30 1625 H 146.493 1.54976 -3.474 0
M  V30 1626 H 147.805 2.23052 -4.46149 0
M  V30 1627 H 146.959 4.54441 -4.01956 0
M  V30 1628 H 145.698 3.89666 -2.93278 0
M  V30 1629 H 144.703 2.60499 -4.8417 0
M  V30 1630 H 145.928 3.2832 -5.9446 0
M  V30 1631 H 143.874 4.88752 -4.37559 0
M  V30 1632 H 143.791 4.51242 -6.06561 0
M  V30 1633 H 145.059 5.54602 -5.47756 0
M  V30 1634 N 149.288 1.51039 0.449983 0
M  V30 1635 C 150.516 1.66869 1.2232 0
M  V30 1636 C 150.931 0.360727 1.85322 0
M  V30 1637 O 150.288 -0.659531 1.70166 0
M  V30 1638 C 150.339 2.77524 2.31652 0
M  V30 1639 O 150.06 4.03252 1.7123 0
M  V30 1640 C 151.561 3.04512 3.2216 0
M  V30 1641 H 148.781 0.560326 0.369155 0
M  V30 1642 H 151.325 1.97385 0.534719 0
M  V30 1643 H 149.48 2.49642 2.96239 0
M  V30 1644 H 149.894 4.64609 2.43389 0
M  V30 1645 H 151.368 3.85551 3.95038 0
M  V30 1646 H 151.845 2.16415 3.8218 0
M  V30 1647 H 152.451 3.34005 2.63288 0
M  V30 1648 N 150.766 -0.704594 1.40972 0
M  V30 1649 C 152.012 -1.46675 1.40051 0
M  V30 1650 C 152.345 -1.94199 0.00641102 0
M  V30 1651 O 151.62 -1.68916 -0.964235 0
M  V30 1652 C 151.903 -2.68505 2.39952 0
M  V30 1653 C 151.756 -2.26805 3.88432 0
M  V30 1654 C 153.075 -3.70686 2.37233 0
M  V30 1655 H 150.194 -0.532015 0.510028 0
M  V30 1656 H 152.836 -0.803255 1.72185 0
M  V30 1657 H 150.986 -3.25114 2.1268 0
M  V30 1658 H 152.658 -1.75592 4.26574 0
M  V30 1659 H 150.901 -1.58685 4.03734 0
M  V30 1660 H 151.572 -3.14181 4.53866 0
M  V30 1661 H 154.048 -3.23731 2.61415 0
M  V30 1662 H 152.924 -4.53553 3.09162 0
M  V30 1663 H 153.185 -4.19754 1.38777 0
M  V30 1664 N 152.244 -1.26651 -0.937939 0
M  V30 1665 C 153.49 -1.12553 -1.687 0
M  V30 1666 C 153.823 0.329782 -1.91379 0
M  V30 1667 O 153.098 1.24202 -1.4968 0
M  V30 1668 C 153.381 -1.89862 -3.05981 0
M  V30 1669 C 153.234 -3.43318 -2.90607 0
M  V30 1670 C 154.553 -1.69499 -4.0615 0
M  V30 1671 H 151.672 -0.410257 -0.612257 0
M  V30 1672 H 154.314 -1.55685 -1.08913 0
M  V30 1673 H 152.464 -1.53204 -3.57017 0
M  V30 1674 H 154.136 -3.89747 -2.46769 0
M  V30 1675 H 152.379 -3.70179 -2.26164 0
M  V30 1676 H 153.05 -3.92642 -3.8799 0
M  V30 1677 H 155.526 -2.01442 -3.64088 0
M  V30 1678 H 154.402 -2.26002 -5.00214 0
M  V30 1679 H 154.663 -0.640365 -4.37438 0
M  V30 1680 N 153.722 1.14298 -1.08507 0
M  V30 1681 C 154.97 1.84993 -0.813763 0
M  V30 1682 C 155.291 1.83405 0.662393 0
M  V30 1683 O 154.561 1.28319 1.48024 0
M  V30 1684 H 153.141 0.684966 -0.298045 0
M  V30 1685 H 155.803 1.385 -1.37126 0
M  V30 1686 H 154.899 2.89788 -1.15884 0
M  V30 1687 N 155.201 0.870884 1.31352 0
M  V30 1688 C 156.449 0.48132 1.96285 0
M  V30 1689 C 156.77 -0.969813 1.69173 0
M  V30 1690 O 156.04 -1.67998 1.00764 0
M  V30 1691 H 154.62 0.175002 0.726212 0
M  V30 1692 H 157.282 1.11087 1.60143 0
M  V30 1693 H 156.378 0.639825 3.05471 0
M  V30 1694 N 156.679 -1.44442 0.630414 0
M  V30 1695 C 157.642 -2.29107 -0.0652523 0
M  V30 1696 C 158.642 -1.41002 -0.772995 0
M  V30 1697 O 159.832 -1.62881 -0.617692 0
M  V30 1698 C 156.964 -3.22564 -1.10296 0
M  V30 1699 H 158.157 -2.92103 0.679401 0
M  V30 1700 H 155.71 -1.51343 0.390517 0
M  V30 1701 H 156.445 -2.64416 -1.87762 0
M  V30 1702 H 156.23 -3.87491 -0.59941 0
M  V30 1703 H 157.72 -3.86167 -1.5895 0
M  V30 1704 N 158.157 -0.370918 -1.53173 0
M  V30 1705 C 159.09 0.516727 -2.22273 0
M  V30 1706 C 160.068 1.07877 -1.21661 0
M  V30 1707 O 161.252 1.13389 -1.50583 0
M  V30 1708 C 158.379 1.71346 -2.92161 0
M  V30 1709 C 157.425 1.27838 -4.0689 0
M  V30 1710 S 158.258 0.275217 -5.34792 0
M  V30 1711 C 159.414 1.47816 -6.08195 0
M  V30 1712 H 159.647 -0.0701054 -2.97217 0
M  V30 1713 H 157.18 -0.155038 -1.5362 0
M  V30 1714 H 159.138 2.39988 -3.3304 0
M  V30 1715 H 157.799 2.27156 -2.16931 0
M  V30 1716 H 156.992 2.17141 -4.54825 0
M  V30 1717 H 156.594 0.671105 -3.6793 0
M  V30 1718 H 158.886 2.40831 -6.33251 0
M  V30 1719 H 159.829 1.04008 -7.0042 0
M  V30 1720 H 160.237 1.68663 -5.38714 0
M  V30 1721 N 159.635 1.57281 -0.100228 0
M  V30 1722 C 160.882 1.94537 0.562268 0
M  V30 1723 C 161.21 0.982315 1.67871 0
M  V30 1724 O 160.465 0.00280936 1.957 0
M  V30 1725 C 160.764 3.38305 1.15259 0
M  V30 1726 C 160.43 4.50618 0.159409 0
M  V30 1727 C 159.092 4.81066 -0.113741 0
M  V30 1728 C 161.444 5.18615 -0.518461 0
M  V30 1729 C 158.772 5.76835 -1.07137 0
M  V30 1730 C 161.124 6.15412 -1.46459 0
M  V30 1731 C 159.788 6.44262 -1.74592 0
M  V30 1732 H 159.058 0.711863 0.205748 0
M  V30 1733 H 161.705 1.90679 -0.17715 0
M  V30 1734 H 160.01 3.38766 1.96836 0
M  V30 1735 H 161.707 3.64435 1.67297 0
M  V30 1736 H 158.297 4.2689 0.382491 0
M  V30 1737 H 162.481 4.95264 -0.320581 0
M  V30 1738 H 157.737 5.975 -1.29628 0
M  V30 1739 H 161.911 6.67194 -1.99564 0
M  V30 1740 H 159.538 7.1828 -2.48953 0
M  V30 1741 N 161.113 -0.173488 1.56642 0
M  V30 1742 C 162.36 -0.890465 1.81871 0
M  V30 1743 C 162.688 -1.82339 0.67696 0
M  V30 1744 O 161.943 -1.92795 -0.335926 0
M  V30 1745 C 162.242 -1.72069 3.13252 0
M  V30 1746 C 161.908 -0.936878 4.41059 0
M  V30 1747 C 160.57 -0.720545 4.75775 0
M  V30 1748 C 162.922 -0.386919 5.19762 0
M  V30 1749 C 160.25 0.0568829 5.86672 0
M  V30 1750 C 162.602 0.37741 6.31473 0
M  V30 1751 C 161.266 0.604563 6.64757 0
M  V30 1752 H 160.536 -0.325844 0.665512 0
M  V30 1753 H 163.183 -0.155527 1.90867 0
M  V30 1754 H 161.488 -2.52496 2.99588 0
M  V30 1755 H 163.185 -2.27844 3.29982 0
M  V30 1756 H 159.775 -1.11553 4.13828 0
M  V30 1757 H 163.959 -0.541398 4.93338 0
M  V30 1758 H 159.215 0.242635 6.10918 0
M  V30 1759 H 163.389 0.810825 6.91664 0
M  V30 1760 H 161.016 1.20885 7.50527 0
M  V30 1761 N 162.591 -1.51276 -0.441967 0
M  V30 1762 C 163.84 -1.6295 -1.18871 0
M  V30 1763 C 164.153 -0.349312 -1.92456 0
M  V30 1764 O 165.359 -0.345355 -2.69295 0
M  V30 1765 C 163.815 -2.87759 -2.16155 0
M  V30 1766 C 163.423 -4.22764 -1.48239 0
M  V30 1767 C 165.167 -3.08788 -2.91291 0
M  V30 1768 C 163.074 -5.38728 -2.4398 0
M  V30 1769 H 162.004 -0.606913 -0.447406 0
M  V30 1770 H 164.655 -1.77739 -0.456205 0
M  V30 1771 H 163.037 -2.66593 -2.92821 0
M  V30 1772 H 164.211 -4.54293 -0.771635 0
M  V30 1773 H 162.526 -4.07575 -0.852741 0
M  V30 1774 H 165.123 -3.92599 -3.63002 0
M  V30 1775 H 165.466 -2.21679 -3.5237 0
M  V30 1776 H 165.999 -3.30272 -2.21733 0
M  V30 1777 H 162.738 -6.28082 -1.87598 0
M  V30 1778 H 162.258 -5.1158 -3.13123 0
M  V30 1779 H 163.937 -5.70489 -3.05207 0
M  V30 1780 N 164.069 0.697108 -1.41344 0
M  V30 1781 C 165.317 1.45426 -1.40341 0
M  V30 1782 C 165.638 1.94996 -0.0128787 0
M  V30 1783 O 164.908 1.71599 0.945027 0
M  V30 1784 H 163.488 0.539594 -0.516573 0
M  V30 1785 H 166.15 0.825201 -1.76569 0
M  V30 1786 H 165.246 2.31817 -2.08967 0
M  V30 1787 N 165.547 1.27147 0.931209 0
M  V30 1788 C 166.794 1.13278 1.67852 0
M  V30 1789 C 167.122 -0.32204 1.91815 0
M  V30 1790 O 166.377 -1.25224 1.50391 0
M  V30 1791 C 166.676 1.8579 3.05314 0
M  V30 1792 C 166.342 3.35657 3.01073 0
M  V30 1793 C 165.004 3.76536 2.99623 0
M  V30 1794 C 167.356 4.31299 2.92627 0
M  V30 1795 C 164.684 5.11426 2.87506 0
M  V30 1796 C 167.036 5.66242 2.82051 0
M  V30 1797 C 165.7 6.06418 2.7895 0
M  V30 1798 H 164.97 0.414515 0.614214 0
M  V30 1799 H 167.617 1.57712 1.08624 0
M  V30 1800 H 165.922 1.33854 3.68226 0
M  V30 1801 H 167.619 1.72491 3.62005 0
M  V30 1802 H 164.209 3.03146 3.02986 0
M  V30 1803 H 168.393 4.00692 2.92848 0
M  V30 1804 H 163.649 5.41705 2.83489 0
M  V30 1805 H 167.823 6.40026 2.74481 0
M  V30 1806 H 165.45 7.10895 2.69318 0
M  V30 1807 N 167.025 -1.13721 1.09112 0
M  V30 1808 C 168.253 -1.88773 0.846899 0
M  V30 1809 C 168.668 -1.7896 -0.601572 0
M  V30 1810 O 168.025 -1.15394 -1.41388 0
M  V30 1811 C 168.076 -3.3849 1.26913 0
M  V30 1812 O 167.797 -3.48043 2.66079 0
M  V30 1813 C 169.298 -4.30518 1.05682 0
M  V30 1814 H 166.518 -0.59772 0.304914 0
M  V30 1815 H 169.062 -1.43977 1.45227 0
M  V30 1816 H 167.217 -3.80881 0.707723 0
M  V30 1817 H 167.631 -4.4109 2.83795 0
M  V30 1818 H 169.105 -5.3391 1.40156 0
M  V30 1819 H 169.582 -4.392 -0.00563416 0
M  V30 1820 H 170.188 -3.93893 1.60402 0
M  V30 1821 N 168.503 -0.877838 -1.30888 0
M  V30 1822 C 169.466 -0.344265 -2.266 0
M  V30 1823 C 170.466 0.50922 -1.52524 0
M  V30 1824 O 171.656 0.317398 -1.71284 0
M  V30 1825 C 168.788 0.510198 -3.37061 0
M  V30 1826 H 169.981 -1.1893 -2.7531 0
M  V30 1827 H 167.534 -0.654088 -1.41956 0
M  V30 1828 H 168.269 1.37612 -2.93655 0
M  V30 1829 H 168.054 -0.101047 -3.9197 0
M  V30 1830 H 169.544 0.875537 -4.08319 0
M  V30 1831 N 169.982 1.44106 -0.638065 0
M  V30 1832 C 170.912 2.33448 0.0494287 0
M  V30 1833 C 171.893 1.48606 0.827672 0
M  V30 1834 O 173.078 1.77308 0.792173 0
M  V30 1835 C 170.208 3.31771 1.02691 0
M  V30 1836 C 169.162 4.26485 0.359823 0
M  V30 1837 C 168.488 5.14729 1.44769 0
M  V30 1838 C 169.788 5.17056 -0.738296 0
M  V30 1839 H 171.482 2.91183 -0.696636 0
M  V30 1840 H 169.028 1.40014 -0.336456 0
M  V30 1841 H 170.981 3.93161 1.51666 0
M  V30 1842 H 169.705 2.7226 1.80395 0
M  V30 1843 H 168.364 3.66437 -0.10934 0
M  V30 1844 H 168.012 4.51566 2.21578 0
M  V30 1845 H 167.712 5.78913 1.00668 0
M  V30 1846 H 169.236 5.78991 1.93911 0
M  V30 1847 H 170.65 5.72342 -0.331354 0
M  V30 1848 H 169.047 5.89879 -1.10286 0
M  V30 1849 H 170.117 4.57652 -1.60258 0
M  V30 1850 N 171.46 0.379036 1.52974 0
M  V30 1851 C 172.706 -0.206727 2.01744 0
M  V30 1852 C 173.039 -1.47314 1.26539 0
M  V30 1853 O 172.314 -1.91084 0.362903 0
M  V30 1854 C 172.597 -0.485066 3.56818 0
M  V30 1855 C 172.45 0.795919 4.42702 0
M  V30 1856 C 173.769 -1.28003 4.21074 0
M  V30 1857 H 170.888 -0.0736607 0.73331 0
M  V30 1858 H 173.53 0.506581 1.83122 0
M  V30 1859 H 171.68 -1.09272 3.72816 0
M  V30 1860 H 173.352 1.43307 4.38476 0
M  V30 1861 H 171.595 1.41344 4.10127 0
M  V30 1862 H 172.266 0.555947 5.49193 0
M  V30 1863 H 174.742 -0.765867 4.08991 0
M  V30 1864 H 173.618 -1.44352 5.29579 0
M  V30 1865 H 173.879 -2.29236 3.78026 0
M  V30 1866 N 172.938 -1.57226 0.108567 0
M  V30 1867 C 174.187 -1.94008 -0.551703 0
M  V30 1868 C 174.5 -0.993442 -1.68494 0
M  V30 1869 O 175.706 -1.25551 -2.40726 0
M  V30 1870 C 174.162 -3.44763 -1.03279 0
M  V30 1871 C 173.77 -4.47943 0.0714193 0
M  V30 1872 C 175.514 -3.90483 -1.66503 0
M  V30 1873 C 173.421 -5.89865 -0.425779 0
M  V30 1874 H 172.351 -0.724206 -0.209863 0
M  V30 1875 H 175.002 -1.82547 0.186741 0
M  V30 1876 H 173.384 -3.51422 -1.82533 0
M  V30 1877 H 174.558 -4.52942 0.847365 0
M  V30 1878 H 172.873 -4.11913 0.609669 0
M  V30 1879 H 175.47 -4.93925 -2.04798 0
M  V30 1880 H 175.813 -3.29877 -2.53942 0
M  V30 1881 H 176.346 -3.86581 -0.938074 0
M  V30 1882 H 173.085 -6.54202 0.412316 0
M  V30 1883 H 172.605 -5.88309 -1.16843 0
M  V30 1884 H 174.284 -6.40844 -0.890397 0
M  V30 1885 N 174.416 0.165178 -1.56732 0
M  V30 1886 C 175.349 1.23336 -1.91998 0
M  V30 1887 C 176.327 1.42476 -0.783531 0
M  V30 1888 O 177.511 1.57384 -1.03743 0
M  V30 1889 C 174.638 2.59533 -2.17625 0
M  V30 1890 C 173.684 2.57093 -3.40302 0
M  V30 1891 S 174.517 2.05571 -4.9447 0
M  V30 1892 C 175.673 3.43532 -5.23198 0
M  V30 1893 H 175.906 0.932387 -2.82301 0
M  V30 1894 H 173.439 0.370013 -1.49901 0
M  V30 1895 H 175.397 3.37918 -2.3307 0
M  V30 1896 H 174.058 2.86827 -1.28019 0
M  V30 1897 H 173.251 3.57308 -3.55453 0
M  V30 1898 H 172.853 1.86806 -3.24005 0
M  V30 1899 H 175.145 4.39559 -5.15552 0
M  V30 1900 H 176.088 3.33251 -6.2478 0
M  V30 1901 H 176.496 3.39828 -4.50752 0
M  V30 1902 N 175.894 1.51508 0.433938 0
M  V30 1903 C 177.14 1.65549 1.18173 0
M  V30 1904 C 177.495 0.368751 1.88833 0
M  V30 1905 O 176.788 -0.635616 1.8075 0
M  V30 1906 C 176.982 2.79928 2.22205 0
M  V30 1907 C 176.811 4.19601 1.61756 0
M  V30 1908 C 175.581 4.85489 1.40101 0
M  V30 1909 C 177.779 5.02574 1.09194 0
M  V30 1910 N 175.761 6.09266 0.752859 0
M  V30 1911 C 177.132 6.17381 0.569255 0
M  V30 1912 C 179.187 4.88079 0.984025 0
M  V30 1913 C 177.89 7.19282 -0.0507472 0
M  V30 1914 C 179.916 5.90191 0.377912 0
M  V30 1915 C 179.278 7.04272 -0.134216 0
M  V30 1916 H 175.377 0.659653 0.419979 0
M  V30 1917 H 177.961 1.88746 0.477818 0
M  V30 1918 H 176.132 2.5839 2.89982 0
M  V30 1919 H 177.864 2.83132 2.89168 0
M  V30 1920 H 174.619 4.43417 1.66369 0
M  V30 1921 H 175.043 6.75528 0.446123 0
M  V30 1922 H 179.685 4.00131 1.36583 0
M  V30 1923 H 177.403 8.06876 -0.444676 0
M  V30 1924 H 180.989 5.81045 0.296269 0
M  V30 1925 H 179.869 7.81933 -0.59585 0
M  V30 1926 N 177.372 -0.689602 1.41712 0
M  V30 1927 C 178.304 -1.815 1.39966 0
M  V30 1928 C 179.317 -1.59995 0.300917 0
M  V30 1929 O 180.506 -1.69387 0.563039 0
M  V30 1930 C 177.606 -3.18364 1.16179 0
M  V30 1931 C 176.779 -3.66847 2.38206 0
M  V30 1932 C 175.838 -4.82398 2.10186 0
M  V30 1933 O 174.864 -4.93706 2.83272 0
M  V30 1934 N 176.066 -5.70064 1.0958 0
M  V30 1935 H 178.831 -1.83488 2.36965 0
M  V30 1936 H 176.392 -0.872149 1.36401 0
M  V30 1937 H 178.384 -3.93301 0.953756 0
M  V30 1938 H 176.954 -3.11365 0.27756 0
M  V30 1939 H 176.174 -2.82751 2.74673 0
M  V30 1940 H 177.462 -3.95978 3.19498 0
M  V30 1941 H 176.86 -5.63565 0.491019 0
M  V30 1942 H 175.417 -6.44874 0.947656 0
M  V30 1943 N 178.85 -1.27639 -0.924453 0
M  V30 1944 C 179.797 -1.10644 -2.0255 0
M  V30 1945 C 180.767 -0.00658438 -1.66099 0
M  V30 1946 O 181.952 -0.16952 -1.90045 0
M  V30 1947 C 179.092 -0.76309 -3.36557 0
M  V30 1948 C 178.205 -1.94091 -3.85944 0
M  V30 1949 C 177.34 -1.53914 -5.08413 0
M  V30 1950 C 176.379 -2.68425 -5.50104 0
M  V30 1951 N 175.516 -2.28815 -6.63768 0
M  V30 1952 H 180.356 -2.04858 -2.16419 0
M  V30 1953 H 177.893 -1.01974 -1.06017 0
M  V30 1954 H 179.851 -0.544822 -4.13627 0
M  V30 1955 H 178.481 0.142102 -3.22487 0
M  V30 1956 H 177.533 -2.27162 -3.05125 0
M  V30 1957 H 178.845 -2.7998 -4.12811 0
M  V30 1958 H 177.999 -1.28231 -5.92994 0
M  V30 1959 H 176.738 -0.651391 -4.8333 0
M  V30 1960 H 175.743 -2.94819 -4.64071 0
M  V30 1961 H 176.968 -3.57826 -5.7718 0
M  V30 1962 H 174.914 -1.42495 -6.40337 0
M  V30 1963 H 174.831 -3.08242 -6.90306 0
M  V30 1964 H 176.099 -2.06387 -7.51681 0
M  V30 1965 N 180.328 1.1314 -1.09713 0
M  V30 1966 C 181.278 2.16709 -0.708593 0
M  V30 1967 C 182.262 1.58471 0.278523 0
M  V30 1968 O 183.454 1.76779 0.088427 0
M  V30 1969 C 180.583 3.43039 -0.133923 0
M  V30 1970 C 179.669 4.08277 -1.14763 0
M  V30 1971 N 180.06 4.48637 -2.33577 0
M  V30 1972 C 178.358 4.34954 -0.986446 0
M  V30 1973 C 179.059 4.9952 -2.98085 0
M  V30 1974 N 178.035 4.94561 -2.25632 0
M  V30 1975 H 181.837 2.45672 -1.61315 0
M  V30 1976 H 179.351 1.29967 -0.973775 0
M  V30 1977 H 181.348 4.16583 0.162465 0
M  V30 1978 H 180.008 3.15549 0.765447 0
M  V30 1979 H 181.019 4.41246 -2.7115 0
M  V30 1980 H 177.696 4.17258 -0.142008 0
M  V30 1981 H 179.086 5.40521 -3.99108 0
M  V30 1982 N 181.806 0.884767 1.30421 0
M  V30 1983 C 183.036 0.517293 2.00019 0
M  V30 1984 C 183.444 -0.898632 1.66497 0
M  V30 1985 O 182.787 -1.60245 0.898181 0
M  V30 1986 C 182.849 0.612025 3.54252 0
M  V30 1987 C 182.513 1.99222 4.1129 0
M  V30 1988 C 183.51 2.9616 4.273 0
M  V30 1989 C 181.195 2.29755 4.46674 0
M  V30 1990 C 183.189 4.21764 4.77906 0
M  V30 1991 C 180.876 3.55606 4.96979 0
M  V30 1992 C 181.874 4.51425 5.12547 0
M  V30 1993 O 181.562 5.75043 5.61766 0
M  V30 1994 H 181.294 0.198529 0.64619 0
M  V30 1995 H 183.848 1.1919 1.67281 0
M  V30 1996 H 182.078 -0.119561 3.86515 0
M  V30 1997 H 183.767 0.255859 4.05093 0
M  V30 1998 H 184.533 2.73882 4.00267 0
M  V30 1999 H 180.412 1.55942 4.33824 0
M  V30 2000 H 183.956 4.96561 4.89972 0
M  V30 2001 H 179.853 3.7772 5.23448 0
M  V30 2002 H 180.621 5.77422 5.80109 0
M  V30 2003 N 183.284 -1.43765 0.645699 0
M  V30 2004 C 184.53 -2.02197 0.156271 0
M  V30 2005 C 184.863 -1.50776 -1.22393 0
M  V30 2006 O 184.138 -0.697771 -1.81553 0
M  V30 2007 C 184.421 -3.59749 0.158872 0
M  V30 2008 C 184.274 -4.21419 1.57245 0
M  V30 2009 C 185.593 -4.37149 -0.50879 0
M  V30 2010 H 182.712 -0.734694 0.0582602 0
M  V30 2011 H 185.354 -1.71157 0.824951 0
M  V30 2012 H 183.504 -3.86325 -0.410525 0
M  V30 2013 H 185.176 -4.059 2.19186 0
M  V30 2014 H 183.419 -3.78356 2.122 0
M  V30 2015 H 184.09 -5.30482 1.52619 0
M  V30 2016 H 186.566 -4.16093 -0.024412 0
M  V30 2017 H 185.442 -5.4683 -0.476213 0
M  V30 2018 H 185.703 -4.12839 -1.58165 0
M  V30 2019 N 184.763 -0.387143 -1.52771 0
M  V30 2020 C 185.993 0.195585 -2.05672 0
M  V30 2021 C 186.401 1.41241 -1.25887 0
M  V30 2022 O 185.744 1.81265 -0.298081 0
M  V30 2023 C 185.806 0.632327 -3.53895 0
M  V30 2024 C 185.47 -0.470739 -4.54569 0
M  V30 2025 C 186.467 -1.32746 -5.02667 0
M  V30 2026 C 184.152 -0.637151 -4.98243 0
M  V30 2027 C 186.146 -2.33574 -5.93061 0
M  V30 2028 C 183.833 -1.64877 -5.88438 0
M  V30 2029 C 184.831 -2.49649 -6.35739 0
M  V30 2030 O 184.519 -3.49082 -7.24153 0
M  V30 2031 H 184.251 0.033658 -0.675162 0
M  V30 2032 H 186.805 -0.550221 -1.97893 0
M  V30 2033 H 185.035 1.43008 -3.59285 0
M  V30 2034 H 186.724 1.14048 -3.89548 0
M  V30 2035 H 187.49 -1.21019 -4.69659 0
M  V30 2036 H 183.369 0.0129567 -4.60998 0
M  V30 2037 H 186.913 -2.99777 -6.29904 0
M  V30 2038 H 182.81 -1.76643 -6.2086 0
M  V30 2039 H 183.578 -3.45065 -7.42208 0
M  V30 2040 N 186.241 1.57166 -0.116904 0
M  V30 2041 C 187.489 1.94737 0.540533 0
M  V30 2042 C 187.81 1.00096 1.67349 0
M  V30 2043 O 187.08 0.0568854 1.95817 0
M  V30 2044 H 185.66 0.718981 0.202669 0
M  V30 2045 H 188.322 1.94017 -0.185353 0
M  V30 2046 H 187.418 2.97719 0.936483 0
M  V30 2047 N 187.719 -0.156864 1.56817 0
M  V30 2048 C 189.13 -0.717916 1.72345 0
M  V30 2049 C 189.481 -1.82124 0.729747 0
M  V30 2050 O 188.606 -2.16141 -0.105781 0
M  V30 2051 C 189.201 -1.30904 3.12489 0
M  V30 2052 C 187.76 -1.81676 3.29653 0
M  V30 2053 C 186.907 -0.701349 2.68284 0
M  V30 2054 H 189.858 0.0686989 1.58551 0
M  V30 2055 H 189.879 -2.17882 3.11942 0
M  V30 2056 H 189.391 -0.505796 3.8479 0
M  V30 2057 H 187.492 -2.64598 2.62333 0
M  V30 2058 H 187.605 -1.95226 4.3752 0
M  V30 2059 H 185.969 -1.12548 2.28484 0
M  V30 2060 H 186.752 0.0902846 3.43181 0
M  V30 2061 N 189.197 -1.51736 -0.425897 0
M  V30 2062 C 190.127 -1.76827 -1.52494 0
M  V30 2063 C 191.108 -0.618524 -1.58456 0
M  V30 2064 O 192.293 -0.862416 -1.74 0
M  V30 2065 C 189.423 -1.90374 -2.90474 0
M  V30 2066 C 188.377 -3.0588 -2.99369 0
M  V30 2067 C 187.703 -3.04625 -4.3944 0
M  V30 2068 C 189.003 -4.45644 -2.72394 0
M  V30 2069 H 190.697 -2.68855 -1.31748 0
M  V30 2070 H 188.243 -1.29372 -0.632362 0
M  V30 2071 H 190.196 -2.0651 -3.6733 0
M  V30 2072 H 188.92 -0.95004 -3.12477 0
M  V30 2073 H 187.579 -2.89467 -2.24954 0
M  V30 2074 H 187.227 -2.0701 -4.58428 0
M  V30 2075 H 186.927 -3.82195 -4.46319 0
M  V30 2076 H 188.451 -3.22869 -5.18255 0
M  V30 2077 H 189.865 -4.62348 -3.38979 0
M  V30 2078 H 188.262 -5.25006 -2.9067 0
M  V30 2079 H 189.332 -4.54893 -1.67929 0
M  V30 2080 N 190.675 0.682077 -1.42076 0
M  V30 2081 C 192.086 1.26246 -1.37546 0
M  V30 2082 C 192.437 1.96092 -0.0651481 0
M  V30 2083 O 191.562 1.99587 0.836297 0
M  V30 2084 C 192.157 2.29594 -2.49143 0
M  V30 2085 C 190.716 2.83175 -2.47969 0
M  V30 2086 C 189.863 1.57395 -2.28303 0
M  V30 2087 H 192.814 0.475937 -1.51395 0
M  V30 2088 H 192.835 3.11175 -2.18976 0
M  V30 2089 H 192.347 1.78729 -3.44496 0
M  V30 2090 H 190.448 3.3818 -1.56413 0
M  V30 2091 H 190.561 3.32687 -3.44755 0
M  V30 2092 H 188.925 1.83699 -1.76428 0
M  V30 2093 H 189.708 1.08507 -3.25701 0
M  V30 2094 N 192.153 1.28127 0.917671 0
M  V30 2095 C 193.085 1.07517 2.02417 0
M  V30 2096 C 194.098 0.0281099 1.62776 0
M  V30 2097 O 195.287 0.270748 1.76435 0
M  V30 2098 C 192.387 0.610957 3.33347 0
M  V30 2099 C 191.56 1.73255 4.01624 0
M  V30 2100 C 190.619 1.26238 5.10833 0
M  V30 2101 O 189.645 1.96389 5.34247 0
M  V30 2102 N 190.847 0.123448 5.80369 0
M  V30 2103 H 193.612 2.02806 2.20658 0
M  V30 2104 H 191.173 1.19827 1.08871 0
M  V30 2105 H 193.165 0.280101 4.0373 0
M  V30 2106 H 191.735 -0.24898 3.11607 0
M  V30 2107 H 190.955 2.23319 3.24842 0
M  V30 2108 H 192.243 2.48503 4.43986 0
M  V30 2109 H 191.641 -0.461847 5.63812 0
M  V30 2110 H 190.198 -0.148158 6.51632 0
M  V30 2111 N 193.631 -1.12557 1.10312 0
M  V30 2112 C 194.856 -1.88405 0.867085 0
M  V30 2113 C 195.281 -1.79038 -0.576817 0
M  V30 2114 O 194.639 -1.14439 -1.40618 0
M  V30 2115 C 194.687 -3.3563 1.31851 0
M  V30 2116 O 193.791 -4.09565 0.482734 0
M  V30 2117 H 193.132 -0.585455 0.313271 0
M  V30 2118 H 195.662 -1.42352 1.4696 0
M  V30 2119 H 195.672 -3.86469 1.3079 0
M  V30 2120 H 194.347 -3.41765 2.37001 0
M  V30 2121 H 192.924 -3.68695 0.558448 0
M  V30 2122 N 195.109 -0.891671 -1.2995 0
M  V30 2123 C 196.356 -0.513501 -1.95881 0
M  V30 2124 C 196.684 0.938655 -1.70351 0
M  V30 2125 O 195.939 1.67936 -1.00478 0
M  V30 2126 C 196.238 -0.742868 -3.49594 0
M  V30 2127 C 195.904 -2.17114 -3.95186 0
M  V30 2128 C 194.566 -2.56169 -4.07346 0
M  V30 2129 C 196.918 -3.10162 -4.18866 0
M  V30 2130 C 194.246 -3.87469 -4.4055 0
M  V30 2131 C 196.598 -4.41001 -4.53542 0
M  V30 2132 C 195.262 -4.79941 -4.63911 0
M  V30 2133 H 194.532 -0.187903 -0.71678 0
M  V30 2134 H 197.179 -1.1288 -1.54694 0
M  V30 2135 H 195.484 -0.044586 -3.91775 0
M  V30 2136 H 197.181 -0.429767 -3.9869 0
M  V30 2137 H 193.771 -1.85801 -3.86233 0
M  V30 2138 H 197.955 -2.81206 -4.08946 0
M  V30 2139 H 193.211 -4.17371 -4.46779 0
M  V30 2140 H 197.385 -5.13133 -4.70815 0
M  V30 2141 H 195.012 -5.81719 -4.89395 0
M  V30 2142 N 196.587 1.43421 -0.653314 0
M  V30 2143 C 197.864 1.95361 -0.0966581 0
M  V30 2144 C 198.244 1.59461 1.38331 0
M  V30 2145 O 197.592 0.879777 2.10884 0
M  V30 2146 C 197.802 3.47311 -0.342988 0
M  V30 2147 C 199.15 4.23875 -0.24798 0
M  V30 2148 O 200.174 3.55133 -0.275553 0
M  V30 2149 O 199.033 5.4623 -0.171771 0
M  V30 2150 H 196.127 0.826945 0.00956291 0
M  V30 2151 H 198.673 1.5336 -0.726558 0
M  V30 2152 H 197.445 3.66569 -1.36906 0
M  V30 2153 H 197.068 3.9631 0.319975 0
M  V30 2154 N 198.065 0.39524 1.52563 0
M  V30 2155 C 199.012 -0.437036 2.26624 0
M  V30 2156 C 199.982 -1.05281 1.28472 0
M  V30 2157 O 201.167 -1.07971 1.57311 0
M  V30 2158 C 198.307 -1.55524 3.08069 0
M  V30 2159 C 197.42 -0.961745 4.21158 0
M  V30 2160 C 196.555 -2.05149 4.89987 0
M  V30 2161 C 195.594 -1.4342 5.95061 0
M  V30 2162 N 194.731 -2.46351 6.57462 0
M  V30 2163 H 199.571 0.200976 2.97322 0
M  V30 2164 H 197.108 0.110944 1.46681 0
M  V30 2165 H 199.066 -2.21437 3.53584 0
M  V30 2166 H 197.696 -2.16348 2.3957 0
M  V30 2167 H 196.748 -0.192048 3.79915 0
M  V30 2168 H 198.06 -0.470701 4.96574 0
M  V30 2169 H 197.214 -2.78819 5.38837 0
M  V30 2170 H 195.953 -2.57615 4.14109 0
M  V30 2171 H 194.958 -0.682774 5.45544 0
M  V30 2172 H 196.183 -0.917416 6.72875 0
M  V30 2173 H 194.129 -2.97975 5.8442 0
M  V30 2174 H 194.046 -2.02019 7.28508 0
M  V30 2175 H 195.314 -3.19633 7.10954 0
M  V30 2176 N 199.544 -1.57102 0.125237 0
M  V30 2177 C 200.454 -2.19191 -0.8362 0
M  V30 2178 C 201.47 -1.16985 -1.28805 0
M  V30 2179 O 202.646 -1.49479 -1.34974 0
M  V30 2180 C 199.711 -2.78407 -2.06617 0
M  V30 2181 C 198.772 -3.9567 -1.66565 0
M  V30 2182 C 198.005 -4.52052 -2.83698 0
M  V30 2183 O 198.228 -4.07326 -3.99302 0
M  V30 2184 O 197.162 -5.42645 -2.60423 0
M  V30 2185 H 200.988 -3.01816 -0.337776 0
M  V30 2186 H 198.573 -1.4906 -0.100695 0
M  V30 2187 H 200.455 -3.16129 -2.7864 0
M  V30 2188 H 199.13 -1.9881 -2.55453 0
M  V30 2189 H 198.037 -3.62705 -0.916296 0
M  V30 2190 H 199.37 -4.76722 -1.22464 0
M  V30 2191 N 201.022 0.148545 -1.56898 0
M  V30 2192 C 202.268 0.857877 -1.84424 0
M  V30 2193 C 202.623 1.7886 -0.709006 0
M  V30 2194 O 201.916 1.89344 0.293139 0
M  V30 2195 C 202.11 1.67064 -3.1595 0
M  V30 2196 C 201.939 0.82011 -4.42159 0
M  V30 2197 C 200.709 0.486328 -5.02954 0
M  V30 2198 C 202.907 0.151155 -5.14078 0
M  V30 2199 N 200.889 -0.377956 -6.12735 0
M  V30 2200 C 202.26 -0.573333 -6.17343 0
M  V30 2201 C 204.315 0.0716685 -4.97848 0
M  V30 2202 C 203.018 -1.3698 -7.06137 0
M  V30 2203 C 205.044 -0.711532 -5.87104 0
M  V30 2204 C 204.406 -1.42431 -6.8985 0
M  V30 2205 H 200.505 0.291798 -0.725519 0
M  V30 2206 H 203.089 0.123347 -1.94309 0
M  V30 2207 H 201.26 2.37642 -3.07215 0
M  V30 2208 H 202.992 2.32302 -3.31388 0
M  V30 2209 H 199.747 0.821753 -4.66416 0
M  V30 2210 H 200.171 -0.801077 -6.72244 0
M  V30 2211 H 204.813 0.608381 -4.184 0
M  V30 2212 H 202.531 -1.91778 -7.85014 0
M  V30 2213 H 206.117 -0.775005 -5.76615 0
M  V30 2214 H 204.997 -2.02061 -7.57721 0
M  V30 2215 N 202.5 1.5196 0.417844 0
M  V30 2216 C 203.746 1.65836 1.16732 0
M  V30 2217 C 204.079 0.382881 1.90388 0
M  V30 2218 O 203.354 -0.618368 1.84408 0
M  V30 2219 C 203.637 2.87466 2.16876 0
M  V30 2220 C 203.49 4.25041 1.47174 0
M  V30 2221 C 204.809 3.04613 3.17646 0
M  V30 2222 H 201.928 0.603515 0.423011 0
M  V30 2223 H 204.57 1.84494 0.454105 0
M  V30 2224 H 202.72 2.71689 2.777 0
M  V30 2225 H 204.392 4.52527 0.895376 0
M  V30 2226 H 202.635 4.26843 0.773806 0
M  V30 2227 H 203.306 5.06176 2.20204 0
M  V30 2228 H 205.782 3.1923 2.66892 0
M  V30 2229 H 204.658 3.91247 3.8499 0
M  V30 2230 H 204.919 2.17541 3.84874 0
M  V30 2231 N 203.978 -0.674533 1.42435 0
M  V30 2232 C 204.941 -1.76986 1.45632 0
M  V30 2233 C 205.941 -1.5708 0.343871 0
M  V30 2234 O 207.131 -1.63367 0.604709 0
M  V30 2235 C 204.263 -3.15623 1.28822 0
M  V30 2236 H 205.456 -1.75539 2.43158 0
M  V30 2237 H 203.009 -0.884189 1.28887 0
M  V30 2238 H 203.744 -3.22696 0.322193 0
M  V30 2239 H 203.529 -3.31475 2.09444 0
M  V30 2240 H 205.019 -3.95537 1.33942 0
M  V30 2241 N 205.456 -1.28612 -0.910864 0
M  V30 2242 C 206.403 -1.12786 -2.01365 0
M  V30 2243 C 207.373 -0.024201 -1.66082 0
M  V30 2244 O 208.558 -0.189667 -1.89855 0
M  V30 2245 C 205.698 -0.798743 -3.35729 0
M  V30 2246 C 204.811 -1.98173 -3.83864 0
M  V30 2247 C 203.946 -1.59298 -5.06752 0
M  V30 2248 C 202.985 -2.74245 -5.47226 0
M  V30 2249 N 202.122 -2.35842 -6.61304 0
M  V30 2250 H 206.962 -2.07142 -2.14234 0
M  V30 2251 H 204.499 -1.03093 -1.0493 0
M  V30 2252 H 206.457 -0.588662 -4.13026 0
M  V30 2253 H 205.087 0.10789 -3.2262 0
M  V30 2254 H 204.139 -2.30386 -3.02699 0
M  V30 2255 H 205.451 -2.84343 -4.09818 0
M  V30 2256 H 204.605 -1.34513 -5.916 0
M  V30 2257 H 203.344 -0.702618 -4.82612 0
M  V30 2258 H 202.349 -2.99725 -4.60918 0
M  V30 2259 H 203.574 -3.63928 -5.73353 0
M  V30 2260 H 201.52 -1.49279 -6.38789 0
M  V30 2261 H 201.437 -3.15546 -6.86998 0
M  V30 2262 H 202.705 -2.14348 -7.4945 0
M  V30 2263 N 206.934 1.1197 -1.10907 0
M  V30 2264 C 207.866 2.17592 -0.720175 0
M  V30 2265 C 208.879 1.60938 0.245495 0
M  V30 2266 O 210.068 1.78476 0.0292245 0
M  V30 2267 C 207.168 3.38873 -0.0427917 0
M  V30 2268 C 206.341 4.25006 -1.03388 0
M  V30 2269 C 205.4 5.24774 -0.387075 0
M  V30 2270 O 204.426 5.59631 -1.03934 0
M  V30 2271 N 205.628 5.74208 0.852407 0
M  V30 2272 H 208.393 2.51567 -1.62893 0
M  V30 2273 H 205.954 1.27439 -0.998543 0
M  V30 2274 H 207.946 4.02703 0.401501 0
M  V30 2275 H 206.516 3.03007 0.768456 0
M  V30 2276 H 205.736 3.57716 -1.65629 0
M  V30 2277 H 207.024 4.79397 -1.70458 0
M  V30 2278 H 206.422 5.48062 1.40161 0
M  V30 2279 H 204.979 6.39901 1.23977 0
M  V30 2280 N 208.412 0.89855 1.29475 0
M  V30 2281 C 209.64 0.539261 1.99749 0
M  V30 2282 C 210.055 -0.875716 1.67262 0
M  V30 2283 O 209.412 -1.57786 0.917049 0
M  V30 2284 C 209.463 0.72061 3.54245 0
M  V30 2285 O 209.184 2.07989 3.8558 0
M  V30 2286 C 210.685 0.366118 4.41786 0
M  V30 2287 H 207.905 0.207047 0.638258 0
M  V30 2288 H 210.449 1.20758 1.65039 0
M  V30 2289 H 208.604 0.0994862 3.87272 0
M  V30 2290 H 209.018 2.10841 4.80257 0
M  V30 2291 H 210.492 0.543848 5.49314 0
M  V30 2292 H 210.969 -0.696763 4.33638 0
M  V30 2293 H 211.575 0.964135 4.14228 0
M  V30 2294 N 209.89 -1.43072 0.660911 0
M  V30 2295 C 210.837 -2.30785 -0.0259884 0
M  V30 2296 C 211.807 -1.45184 -0.806888 0
M  V30 2297 O 212.992 -1.74041 -0.781943 0
M  V30 2298 C 210.132 -3.30861 -0.981067 0
M  V30 2299 C 209.245 -4.31558 -0.195458 0
M  V30 2300 C 208.38 -5.18712 -1.14503 0
M  V30 2301 C 207.419 -6.11097 -0.350299 0
M  V30 2302 N 206.556 -6.90849 -1.25186 0
M  V30 2303 H 211.396 -2.88975 0.727846 0
M  V30 2304 H 208.933 -1.42353 0.370682 0
M  V30 2305 H 210.891 -3.87399 -1.54849 0
M  V30 2306 H 209.521 -2.74304 -1.70169 0
M  V30 2307 H 208.573 -3.77252 0.488374 0
M  V30 2308 H 209.885 -4.9701 0.422176 0
M  V30 2309 H 209.039 -5.79914 -1.78284 0
M  V30 2310 H 207.778 -4.53404 -1.79656 0
M  V30 2311 H 206.783 -5.48976 0.300808 0
M  V30 2312 H 208.008 -6.7845 0.296941 0
M  V30 2313 H 205.954 -6.28182 -1.89005 0
M  V30 2314 H 205.871 -7.52854 -0.688971 0
M  V30 2315 H 207.139 -7.5655 -1.87757 0
M  V30 2316 N 211.368 -0.403325 -1.52352 0
M  V30 2317 C 212.784 -0.0539281 -1.59509 0
M  V30 2318 C 212.984 1.43307 -1.41652 0
M  V30 2319 O 212.04 2.19924 -1.24056 0
M  V30 2320 C 213.353 -0.543654 -2.95745 0
M  V30 2321 C 214.901 -0.501125 -3.08962 0
M  V30 2322 C 215.376 -0.967267 -4.47669 0
M  V30 2323 N 216.867 -0.923849 -4.53893 0
M  V30 2324 C 217.602 -1.25578 -5.5948 0
M  V30 2325 N 217.098 -1.65889 -6.72646 0
M  V30 2326 N 218.891 -1.17613 -5.49658 0
M  V30 2327 H 211.042 -1.37123 -1.62206 0
M  V30 2328 H 213.305 -0.56294 -0.76276 0
M  V30 2329 H 213.011 -1.58275 -3.14073 0
M  V30 2330 H 212.885 0.0498042 -3.77167 0
M  V30 2331 H 215.272 0.528909 -2.90321 0
M  V30 2332 H 215.353 -1.13056 -2.2946 0
M  V30 2333 H 214.997 -1.9956 -4.67053 0
M  V30 2334 H 214.927 -0.314698 -5.25659 0
M  V30 2335 H 217.418 -0.627403 -3.72655 0
M  V30 2336 H 217.731 -1.89543 -7.49195 0
M  V30 2337 H 216.076 -1.69787 -6.73942 0
M  V30 2338 H 219.267 -0.860115 -4.6013 0
M  V30 2339 H 219.44 -1.43812 -6.3184 0
M  V30 2340 N 212.846 1.57033 -0.133567 0
M  V30 2341 C 213.779 2.11824 0.848872 0
M  V30 2342 C 214.757 1.03833 1.2513 0
M  V30 2343 O 215.941 1.31579 1.34978 0
M  V30 2344 C 213.068 2.62692 2.138 0
M  V30 2345 C 212.114 3.82705 1.88253 0
M  V30 2346 S 212.947 5.2438 1.08563 0
M  V30 2347 C 214.103 5.78627 2.38624 0
M  V30 2348 H 214.336 2.94824 0.38289 0
M  V30 2349 H 211.869 1.5419 0.0804796 0
M  V30 2350 H 213.827 2.92652 2.87863 0
M  V30 2351 H 212.488 1.79847 2.57515 0
M  V30 2352 H 211.681 4.16496 2.83809 0
M  V30 2353 H 211.283 3.53437 1.22305 0
M  V30 2354 H 213.575 5.8924 3.34369 0
M  V30 2355 H 214.518 6.76443 2.09358 0
M  V30 2356 H 214.926 5.06783 2.48658 0
M  V30 2357 N 214.325 -0.140222 1.56975 0
M  V30 2358 C 215.255 -1.17456 2.01808 0
M  V30 2359 C 216.236 -1.44415 0.898794 0
M  V30 2360 O 217.421 -1.5522 1.16707 0
M  V30 2361 C 214.551 -2.50607 2.40444 0
M  V30 2362 C 213.505 -2.38155 3.55621 0
M  V30 2363 C 212.831 -3.76078 3.80091 0
M  V30 2364 C 214.131 -1.85991 4.88062 0
M  V30 2365 H 215.825 -0.801743 2.88466 0
M  V30 2366 H 213.371 -0.38422 1.38779 0
M  V30 2367 H 215.324 -3.23197 2.7041 0
M  V30 2368 H 214.048 -2.89737 1.50732 0
M  V30 2369 H 212.707 -1.68016 3.25832 0
M  V30 2370 H 212.355 -4.12656 2.87618 0
M  V30 2371 H 212.055 -3.68606 4.57606 0
M  V30 2372 H 213.579 -4.50206 4.12488 0
M  V30 2373 H 214.993 -2.4838 5.16701 0
M  V30 2374 H 213.39 -1.89393 5.6943 0
M  V30 2375 H 214.46 -0.816023 4.77984 0
M  V30 2376 N 215.803 -1.52179 -0.40978 0
M  V30 2377 C 217.08 -1.56769 -1.16974 0
M  V30 2378 C 217.46 -0.348322 -2.08206 0
M  V30 2379 O 216.808 0.664862 -2.18613 0
M  V30 2380 C 217.018 -2.89603 -1.9476 0
M  V30 2381 C 218.366 -3.42579 -2.50849 0
M  V30 2382 O 219.39 -2.91338 -2.04941 0
M  V30 2383 O 218.249 -4.32054 -3.34652 0
M  V30 2384 H 215.343 -0.631439 -0.534054 0
M  V30 2385 H 217.889 -1.64507 -0.416613 0
M  V30 2386 H 216.661 -3.698 -1.27921 0
M  V30 2387 H 216.284 -2.85155 -2.77079 0
M  V30 2388 N 217.281 0.66697 -1.42791 0
M  V30 2389 C 218.214 1.79177 -1.41318 0
M  V30 2390 C 219.192 1.60234 -0.276401 0
M  V30 2391 O 220.376 1.82602 -0.46785 0
M  V30 2392 C 217.503 3.16289 -1.21157 0
M  V30 2393 C 216.549 3.53964 -2.37932 0
M  V30 2394 S 217.382 3.55501 -4.00474 0
M  V30 2395 C 218.538 4.95292 -3.8267 0
M  V30 2396 H 218.771 1.80153 -2.365 0
M  V30 2397 H 216.304 0.838357 -1.29657 0
M  V30 2398 H 218.262 3.95428 -1.10212 0
M  V30 2399 H 216.923 3.1289 -0.275481 0
M  V30 2400 H 216.116 4.53646 -2.19594 0
M  V30 2401 H 215.718 2.82204 -2.45432 0
M  V30 2402 H 218.01 5.83584 -3.44145 0
M  V30 2403 H 218.953 5.18679 -4.82055 0
M  V30 2404 H 219.361 4.68179 -3.15386 0
M  V30 2405 N 218.759 1.29093 0.90403 0
M  V30 2406 C 219.706 1.13853 2.00764 0
M  V30 2407 C 220.676 0.0330084 1.66067 0
M  V30 2408 O 221.861 0.199733 1.89752 0
M  V30 2409 C 219.001 0.816537 3.35301 0
M  V30 2410 C 218.114 2.00206 3.82807 0
M  V30 2411 C 217.249 1.61983 5.059 0
M  V30 2412 C 216.288 2.77143 5.45764 0
M  V30 2413 N 215.425 2.39346 6.60044 0
M  V30 2414 H 220.265 2.08276 2.13132 0
M  V30 2415 H 217.802 1.03648 1.04381 0
M  V30 2416 H 219.76 0.610557 4.12708 0
M  V30 2417 H 218.39 -0.090779 3.22672 0
M  V30 2418 H 217.442 2.31988 3.01473 0
M  V30 2419 H 218.754 2.86512 4.08304 0
M  V30 2420 H 217.908 1.37649 5.90879 0
M  V30 2421 H 216.647 0.728202 4.82233 0
M  V30 2422 H 215.652 3.02165 4.59322 0
M  V30 2423 H 216.877 3.66964 5.71414 0
M  V30 2424 H 214.823 1.52665 6.37989 0
M  V30 2425 H 214.74 3.19185 6.85315 0
M  V30 2426 H 216.008 2.1832 7.48303 0
M  V30 2427 N 220.237 -1.11381 1.11499 0
M  V30 2428 C 221.483 -1.83403 0.865512 0
M  V30 2429 C 221.816 -1.84459 -0.607329 0
M  V30 2430 O 221.091 -1.29811 -1.44842 0
M  V30 2431 C 221.374 -3.30552 1.42855 0
M  V30 2432 C 221.227 -3.37886 2.96906 0
M  V30 2433 C 222.546 -4.26643 1.08 0
M  V30 2434 H 219.665 -0.665879 0.31587 0
M  V30 2435 H 222.307 -1.30601 1.37998 0
M  V30 2436 H 220.457 -3.75648 0.990985 0
M  V30 2437 H 222.129 -3.01343 3.49271 0
M  V30 2438 H 220.372 -2.78088 3.32941 0
M  V30 2439 H 221.043 -4.41458 3.31389 0
M  V30 2440 H 223.519 -3.89729 1.45775 0
M  V30 2441 H 222.395 -5.27986 1.50072 0
M  V30 2442 H 222.656 -4.42099 -0.00915037 0
M  V30 2443 N 221.715 -0.905404 -1.28997 0
M  V30 2444 C 222.663 -0.377431 -2.29517 0
M  V30 2445 C 223.657 0.526461 -1.61012 0
M  V30 2446 O 224.863 0.40863 -1.753 0
M  V30 2447 H 221.238 -0.103437 -0.744852 0
M  V30 2448 H 223.209 -1.23848 -2.71485 0
M  V30 2449 C 221.958 0.374833 -3.45674 0
M  V30 2450 H 221.281 -0.311474 -3.98585 0
M  V30 2451 H 222.721 0.70903 -4.1803 0
M  V30 2452 C 221.18 1.57963 -2.97572 0
M  V30 2453 O 221.71 2.67886 -2.99333 0
M  V30 2454 N 219.916 1.42375 -2.53333 0
M  V30 2455 H 219.463 0.529466 -2.521 0
M  V30 2456 H 219.421 2.23117 -2.21509 0
M  V30 2457 N 223.193 1.4272 -0.668489 0
M  V30 2458 C 224.604 1.84793 -0.266151 0
M  V30 2459 C 224.955 1.55959 1.19043 0
M  V30 2460 O 224.08 1.01622 1.91055 0
M  V30 2461 C 224.675 3.35436 -0.476271 0
M  V30 2462 C 223.234 3.76182 -0.128113 0
M  V30 2463 C 222.381 2.66344 -0.771777 0
M  V30 2464 H 225.332 1.32656 -0.871098 0
M  V30 2465 H 225.353 3.79515 0.273561 0
M  V30 2466 H 224.865 3.5639 -1.53647 0
M  V30 2467 H 222.966 3.60836 0.928891 0
M  V30 2468 H 223.079 4.75766 -0.564231 0
M  V30 2469 H 221.443 2.53885 -0.203652 0
M  V30 2470 H 222.226 2.90123 -1.83531 0
M  V30 2471 N 224.671 0.411399 1.52136 0
M  V30 2472 C 225.92 -0.165009 2.01024 0
M  V30 2473 C 226.233 -1.4603 1.30133 0
M  V30 2474 O 227.439 -2.1181 1.69849 0
M  V30 2475 C 225.895 -0.344618 3.58246 0
M  V30 2476 C 225.503 0.938716 4.38055 0
M  V30 2477 C 227.247 -0.876195 4.15359 0
M  V30 2478 C 225.154 0.726172 5.86925 0
M  V30 2479 H 224.084 -0.0654407 0.751155 0
M  V30 2480 H 226.735 0.537192 1.75461 0
M  V30 2481 H 225.117 -1.10921 3.80148 0
M  V30 2482 H 226.291 1.70963 4.27912 0
M  V30 2483 H 224.606 1.39688 3.92271 0
M  V30 2484 H 227.203 -1.05128 5.24263 0
M  V30 2485 H 227.546 -1.85152 3.7286 0
M  V30 2486 H 228.079 -0.170607 3.97434 0
M  V30 2487 H 224.818 1.67312 6.33788 0
M  V30 2488 H 224.338 -0.00540283 5.998 0
M  V30 2489 H 226.017 0.369231 6.45946 0
M  V30 2490 N 226.149 -1.5696 0.141893 0
M  V30 2491 C 227.081 -2.13619 -0.830627 0
M  V30 2492 C 228.094 -1.08439 -1.21428 0
M  V30 2493 O 229.283 -1.35734 -1.15925 0
M  V30 2494 C 226.383 -2.63978 -2.12529 0
M  V30 2495 C 225.556 -3.93504 -1.9098 0
M  V30 2496 C 224.615 -4.29225 -3.04388 0
M  V30 2497 O 223.641 -4.97641 -2.76302 0
M  V30 2498 N 224.843 -3.88393 -4.31429 0
M  V30 2499 H 227.608 -2.97691 -0.34641 0
M  V30 2500 H 225.169 -1.61846 -0.0418375 0
M  V30 2501 H 227.161 -2.84891 -2.87436 0
M  V30 2502 H 225.731 -1.84659 -2.52229 0
M  V30 2503 H 224.951 -3.81269 -1.00139 0
M  V30 2504 H 226.239 -4.78154 -1.73914 0
M  V30 2505 H 225.637 -3.33257 -4.57117 0
M  V30 2506 H 224.194 -4.14368 -5.03133 0
M  V30 2507 N 227.627 0.131896 -1.57047 0
M  V30 2508 C 228.875 0.840269 -1.83804 0
M  V30 2509 C 229.196 1.81017 -0.72512 0
M  V30 2510 O 228.466 1.94272 0.251995 0
M  V30 2511 H 227.046 0.313294 -0.678127 0
M  V30 2512 H 229.708 0.122294 -1.94516 0
M  V30 2513 H 228.804 1.39335 -2.79271 0
M  V30 2514 N 229.106 1.52395 0.401703 0
M  V30 2515 C 230.036 1.79231 1.49661 0
M  V30 2516 C 231.017 0.643654 1.57452 0
M  V30 2517 O 232.202 0.889989 1.72606 0
M  V30 2518 C 229.332 1.94971 2.87409 0
M  V30 2519 C 228.286 3.10604 2.94465 0
M  V30 2520 C 227.612 3.11577 4.34538 0
M  V30 2521 C 228.912 4.49921 2.6527 0
M  V30 2522 H 230.606 2.70917 1.27454 0
M  V30 2523 H 228.152 1.30362 0.6117 0
M  V30 2524 H 230.105 2.12328 3.63999 0
M  V30 2525 H 228.829 0.999632 3.10926 0
M  V30 2526 H 227.488 2.93009 2.20321 0
M  V30 2527 H 227.136 2.14277 4.55076 0
M  V30 2528 H 226.836 3.89247 4.40183 0
M  V30 2529 H 228.36 3.31073 5.13053 0
M  V30 2530 H 229.774 4.67683 3.31581 0
M  V30 2531 H 228.171 5.29564 2.82281 0
M  V30 2532 H 229.241 4.57507 1.60671 0
M  V30 2533 N 230.584 -0.659388 1.43143 0
M  V30 2534 C 231.547 -1.75432 1.47501 0
M  V30 2535 C 232.547 -1.56707 0.360512 0
M  V30 2536 O 233.737 -1.62717 0.622002 0
M  V30 2537 C 230.869 -3.14239 1.32162 0
M  V30 2538 H 232.062 -1.7295 2.45006 0
M  V30 2539 H 229.615 -0.870469 1.29817 0
M  V30 2540 H 230.35 -3.22336 0.356401 0
M  V30 2541 H 230.135 -3.29235 2.12948 0
M  V30 2542 H 231.625 -3.94094 1.3813 0
M  V30 2543 N 232.062 -1.29571 -0.897171 0
M  V30 2544 C 233.287 -1.20705 -1.68656 0
M  V30 2545 C 233.712 0.228582 -1.86706 0
M  V30 2546 O 233.07 1.16494 -1.3892 0
M  V30 2547 C 233.118 -1.9282 -3.04717 0
M  V30 2548 O 232.222 -1.24697 -3.93096 0
M  V30 2549 H 231.563 -0.418126 -0.515816 0
M  V30 2550 H 234.093 -1.71183 -1.12061 0
M  V30 2551 H 234.103 -2.01372 -3.54843 0
M  V30 2552 H 232.778 -2.97239 -2.90899 0
M  V30 2553 H 231.355 -1.2442 -3.51531 0
M  V30 2554 N 233.54 1.10788 -1.12088 0
M  V30 2555 C 234.487 2.17025 -0.785407 0
M  V30 2556 C 235.457 1.64265 0.246191 0
M  V30 2557 O 236.642 1.90412 0.121584 0
M  V30 2558 C 233.782 3.44249 -0.242177 0
M  V30 2559 C 232.895 4.1098 -1.33115 0
M  V30 2560 C 232.03 5.25911 -0.747741 0
M  V30 2561 C 231.069 5.84538 -1.81609 0
M  V30 2562 N 230.206 6.90853 -1.25167 0
M  V30 2563 H 235.046 2.45066 -1.69548 0
M  V30 2564 H 232.583 1.20297 -0.846582 0
M  V30 2565 H 234.541 4.17101 0.0908026 0
M  V30 2566 H 233.171 3.16571 0.631072 0
M  V30 2567 H 232.223 3.36133 -1.78097 0
M  V30 2568 H 233.535 4.50601 -2.13917 0
M  V30 2569 H 232.689 6.056 -0.365216 0
M  V30 2570 H 231.428 4.87614 0.0915188 0
M  V30 2571 H 230.433 5.03522 -2.20785 0
M  V30 2572 H 231.658 6.249 -2.6585 0
M  V30 2573 H 229.604 6.54562 -0.434174 0
M  V30 2574 H 229.521 7.29166 -1.99633 0
M  V30 2575 H 230.789 7.7433 -0.896259 0
M  V30 2576 N 235.018 0.912232 1.28515 0
M  V30 2577 C 236.264 0.554851 1.95686 0
M  V30 2578 C 236.619 -0.89138 1.70506 0
M  V30 2579 O 235.912 -1.62529 1.01464 0
M  V30 2580 C 236.106 0.798392 3.48368 0
M  V30 2581 C 235.935 2.26674 3.88393 0
M  V30 2582 C 234.705 2.91657 4.12631 0
M  V30 2583 C 236.903 3.24303 3.99164 0
M  V30 2584 N 234.885 4.28805 4.39317 0
M  V30 2585 C 236.256 4.4661 4.30046 0
M  V30 2586 C 238.311 3.19723 3.81683 0
M  V30 2587 C 237.014 5.64915 4.45268 0
M  V30 2588 C 239.04 4.37325 3.98121 0
M  V30 2589 C 238.402 5.58406 4.29375 0
M  V30 2590 H 234.501 0.252876 0.739985 0
M  V30 2591 H 237.085 1.17565 1.55199 0
M  V30 2592 H 235.256 0.20688 3.87849 0
M  V30 2593 H 236.988 0.405193 4.02666 0
M  V30 2594 H 233.743 2.42393 4.06869 0
M  V30 2595 H 234.167 4.99712 4.56746 0
M  V30 2596 H 238.809 2.27191 3.56573 0
M  V30 2597 H 236.527 6.57927 4.6921 0
M  V30 2598 H 240.113 4.35282 3.86033 0
M  V30 2599 H 238.993 6.47889 4.41825 0
M  V30 2600 N 236.496 -1.42363 0.676048 0
M  V30 2601 C 237.773 -1.95183 0.127726 0
M  V30 2602 C 238.153 -1.61641 -1.35777 0
M  V30 2603 O 237.501 -0.913216 -2.09458 0
M  V30 2604 C 237.711 -3.46721 0.398199 0
M  V30 2605 C 239.059 -4.23427 0.315383 0
M  V30 2606 O 240.083 -3.54649 0.332016 0
M  V30 2607 O 238.942 -5.45888 0.25865 0
M  V30 2608 H 236.036 -0.826992 0.00359427 0
M  V30 2609 H 238.582 -1.52184 0.750864 0
M  V30 2610 H 237.354 -3.64344 1.4272 0
M  V30 2611 H 236.977 -3.96769 -0.256885 0
M  V30 2612 N 237.974 -0.419461 -1.51915 0
M  V30 2613 C 239.204 0.151915 -2.06041 0
M  V30 2614 C 239.612 1.38539 -1.28855 0
M  V30 2615 O 238.955 1.80592 -0.336463 0
M  V30 2616 C 239.017 0.557119 -3.55157 0
M  V30 2617 C 238.681 -0.567054 -4.53468 0
M  V30 2618 C 239.678 -1.43379 -4.99738 0
M  V30 2619 C 237.363 -0.742693 -4.96779 0
M  V30 2620 C 239.357 -2.46102 -5.87973 0
M  V30 2621 C 237.044 -1.77322 -5.84808 0
M  V30 2622 C 238.042 -2.63078 -6.30301 0
M  V30 2623 O 237.73 -3.64364 -7.16585 0
M  V30 2624 H 237.462 0.0193293 -0.675724 0
M  V30 2625 H 240.016 -0.592073 -1.96682 0
M  V30 2626 H 238.246 1.35355 -3.62238 0
M  V30 2627 H 239.935 1.05759 -3.9188 0
M  V30 2628 H 240.701 -1.30954 -4.66986 0
M  V30 2629 H 236.58 -0.0848307 -4.60922 0
M  V30 2630 H 240.124 -3.13071 -6.23404 0
M  V30 2631 H 236.021 -1.89773 -6.16974 0
M  V30 2632 H 236.789 -3.60731 -7.34721 0
M  V30 2633 N 239.452 1.56882 -0.150215 0
M  V30 2634 C 240.362 2.20494 0.801222 0
M  V30 2635 C 241.378 1.19019 1.26927 0
M  V30 2636 O 242.554 1.51607 1.32579 0
M  V30 2637 C 239.619 2.81659 2.02161 0
M  V30 2638 C 238.68 3.9827 1.60249 0
M  V30 2639 C 237.913 4.56508 2.7647 0
M  V30 2640 O 238.136 4.13627 3.92771 0
M  V30 2641 O 237.07 5.46719 2.51757 0
M  V30 2642 H 240.896 3.02315 0.289717 0
M  V30 2643 H 238.481 1.49202 0.0769684 0
M  V30 2644 H 240.363 3.20522 2.73576 0
M  V30 2645 H 239.038 2.02849 2.52258 0
M  V30 2646 H 237.945 3.64117 0.858477 0
M  V30 2647 H 239.278 4.78609 1.14864 0
M  V30 2648 N 240.93 -0.123565 1.57115 0
M  V30 2649 C 241.877 -1.15177 2.00007 0
M  V30 2650 C 242.847 -1.41403 0.871454 0
M  V30 2651 O 244.032 -1.53346 1.13533 0
M  V30 2652 C 241.172 -2.47436 2.40561 0
M  V30 2653 C 240.285 -2.28184 3.66819 0
M  V30 2654 C 239.42 -3.53641 3.96373 0
M  V30 2655 C 238.459 -3.29528 5.15827 0
M  V30 2656 N 237.596 -4.47175 5.41275 0
M  V30 2657 H 242.436 -0.779008 2.87638 0
M  V30 2658 H 239.973 -0.373166 1.42288 0
M  V30 2659 H 241.931 -3.24584 2.62109 0
M  V30 2660 H 240.561 -2.82614 1.55978 0
M  V30 2661 H 239.613 -1.41976 3.52912 0
M  V30 2662 H 240.925 -2.0634 4.5412 0
M  V30 2663 H 240.079 -4.39209 4.18545 0
M  V30 2664 H 238.818 -3.78512 3.07538 0
M  V30 2665 H 237.823 -2.42349 4.93505 0
M  V30 2666 H 239.048 -3.06031 6.06236 0
M  V30 2667 H 236.994 -4.72175 4.55397 0
M  V30 2668 H 236.911 -4.28419 6.22891 0
M  V30 2669 H 238.179 -5.3389 5.67963 0
M  V30 2670 N 242.408 -1.52605 -0.393616 0
M  V30 2671 C 243.356 -1.77688 -1.50099 0
M  V30 2672 C 244.35 -0.644615 -1.56656 0
M  V30 2673 O 245.556 -0.826997 -1.59877 0
M  V30 2674 H 241.931 -0.562159 -0.499481 0
M  V30 2675 H 243.902 -2.7043 -1.26135 0
M  V30 2676 C 242.651 -1.95858 -2.87289 0
M  V30 2677 H 241.974 -2.8241 -2.82992 0
M  V30 2678 H 243.414 -2.174 -3.64024 0
M  V30 2679 C 241.873 -0.729848 -3.28899 0
M  V30 2680 O 242.403 0.0949217 -4.01588 0
M  V30 2681 N 240.609 -0.561283 -2.85128 0
M  V30 2682 H 240.156 -1.23357 -2.26143 0
M  V30 2683 H 240.114 0.2595 -3.13327 0
M  V30 2684 N 243.887 0.651787 -1.4349 0
M  V30 2685 C 244.797 1.79368 -1.5121 0
M  V30 2686 C 245.813 1.69361 -0.399093 0
M  V30 2687 O 246.989 1.90505 -0.653431 0
M  V30 2688 C 244.054 3.15653 -1.43401 0
M  V30 2689 C 243.115 3.37446 -2.65384 0
M  V30 2690 C 242.348 4.67229 -2.57939 0
M  V30 2691 O 242.571 5.46676 -1.62792 0
M  V30 2692 O 241.505 4.90773 -3.48462 0
M  V30 2693 H 245.331 1.7581 -2.47638 0
M  V30 2694 H 242.916 0.810447 -1.25507 0
M  V30 2695 H 244.798 3.96935 -1.41494 0
M  V30 2696 H 243.473 3.19798 -0.501085 0
M  V30 2697 H 242.38 2.55923 -2.72863 0
M  V30 2698 H 243.713 3.38148 -3.57654 0
M  V30 2699 N 245.365 1.30045 0.890287 0
M  V30 2700 C 246.611 1.19747 1.64415 0
M  V30 2701 C 246.966 -0.246591 1.90813 0
M  V30 2702 O 246.259 -1.174 1.51419 0
M  V30 2703 C 246.453 1.95409 2.99249 0
M  V30 2704 C 246.282 3.47025 2.86013 0
M  V30 2705 C 245.052 4.1638 2.86279 0
M  V30 2706 C 247.25 4.42353 2.62351 0
M  V30 2707 N 245.232 5.54293 2.63879 0
M  V30 2708 C 246.603 5.67792 2.49022 0
M  V30 2709 C 248.658 4.32009 2.47533 0
M  V30 2710 C 247.361 6.8406 2.22383 0
M  V30 2711 C 249.387 5.48038 2.22279 0
M  V30 2712 C 248.749 6.72455 2.09722 0
M  V30 2713 H 244.848 0.493223 0.60684 0
M  V30 2714 H 247.432 1.6399 1.04954 0
M  V30 2715 H 245.603 1.53565 3.56752 0
M  V30 2716 H 247.335 1.77298 3.63796 0
M  V30 2717 H 244.09 3.68164 2.97913 0
M  V30 2718 H 244.514 6.26852 2.55706 0
M  V30 2719 H 249.156 3.36503 2.55979 0
M  V30 2720 H 246.874 7.79612 2.12675 0
M  V30 2721 H 250.46 5.41939 2.11643 0
M  V30 2722 H 249.34 7.60722 1.90453 0
M  V30 2723 N 246.843 -1.10192 1.12674 0
M  V30 2724 C 247.79 -2.16606 0.796906 0
M  V30 2725 C 248.76 -1.64394 -0.237476 0
M  V30 2726 O 249.945 -1.90474 -0.111484 0
M  V30 2727 C 247.085 -3.44116 0.26043 0
M  V30 2728 C 246.198 -4.10268 1.35293 0
M  V30 2729 C 245.333 -5.25507 0.775621 0
M  V30 2730 C 244.372 -5.83567 1.84706 0
M  V30 2731 N 243.509 -6.90179 1.28829 0
M  V30 2732 H 248.349 -2.44163 1.70846 0
M  V30 2733 H 245.886 -1.19846 0.85295 0
M  V30 2734 H 247.844 -4.17143 -0.0686814 0
M  V30 2735 H 246.474 -3.16901 -0.614274 0
M  V30 2736 H 245.526 -3.35184 1.79877 0
M  V30 2737 H 246.838 -4.4946 2.16303 0
M  V30 2738 H 245.992 -6.05398 0.397327 0
M  V30 2739 H 244.731 -4.87656 -0.0656581 0
M  V30 2740 H 243.736 -5.02344 2.23452 0
M  V30 2741 H 244.961 -6.23482 2.69161 0
M  V30 2742 H 242.907 -6.54322 0.468881 0
M  V30 2743 H 242.824 -7.28097 2.03497 0
M  V30 2744 H 244.092 -7.73844 0.937311 0
M  V30 2745 N 248.321 -0.919034 -1.28029 0
M  V30 2746 C 249.268 -0.410005 -2.27129 0
M  V30 2747 C 250.238 0.518405 -1.57803 0
M  V30 2748 O 251.423 0.439451 -1.8567 0
M  V30 2749 C 248.563 0.339054 -3.4343 0
M  V30 2750 C 247.676 -0.622468 -4.27492 0
M  V30 2751 C 246.811 0.145567 -5.31001 0
M  V30 2752 C 245.85 -0.809226 -6.06727 0
M  V30 2753 N 244.987 -0.0743728 -7.02061 0
M  V30 2754 H 249.827 -1.26011 -2.70047 0
M  V30 2755 H 247.364 -0.632663 -1.328 0
M  V30 2756 H 249.322 0.789586 -4.0966 0
M  V30 2757 H 247.952 1.15346 -3.01488 0
M  V30 2758 H 247.004 -1.19153 -3.61257 0
M  V30 2759 H 248.316 -1.35252 -4.80113 0
M  V30 2760 H 247.47 0.656417 -6.03139 0
M  V30 2761 H 246.209 0.908643 -4.79161 0
M  V30 2762 H 245.214 -1.3314 -5.33436 0
M  V30 2763 H 246.439 -1.57194 -6.60656 0
M  V30 2764 H 244.385 0.670616 -6.52563 0
M  V30 2765 H 244.302 -0.744157 -7.52329 0
M  V30 2766 H 245.57 0.416109 -7.78389 0
M  V30 2767 O 249.838 1.38984 -0.822545 0
M  V30 2768 H 250.529 1.89429 -0.404525 0
M  V30 END ATOM
M  V30 BEGIN BOND
M  V30 END BOND
M  V30 END CTAB
M  END
$$$$
