drugbank_target|P08200 Isocitrate dehydrogenase [NADP] (DB01727; DB02190; DB03461; DB04279)
 OpenBabel12092119503D

  0  0  0     0  0            999 V3000
M  V30 BEGIN CTAB
M  V30 COUNTS 6453 6514 0 0 0
M  V30 BEGIN ATOM
M  V30 1 H -0.908 1.98254 -0.117106 0
M  V30 2 N 0 1.576 0 0
M  V30 3 C 0.933 2.03868 1.02534 0
M  V30 4 C 1.911 0.928543 1.3348 0
M  V30 5 O 3.095 1.19667 1.45644 0
M  V30 6 C 0.222 2.43627 2.35294 0
M  V30 7 C -0.732 3.65373 2.2001 0
M  V30 8 S 0.101 5.13292 1.52614 0
M  V30 9 C 1.257 5.56322 2.86805 0
M  V30 10 H 1.49 2.90518 0.631377 0
M  V30 11 H -0.977 1.52953 0.210867 0
M  V30 12 H 0.981 2.67203 3.11629 0
M  V30 13 H -0.358 1.57376 2.7183 0
M  V30 14 H -1.165 3.90944 3.18086 0
M  V30 15 H -1.563 3.418 1.51819 0
M  V30 16 H 0.729 5.58782 3.83104 0
M  V30 17 H 1.672 6.56266 2.65933 0
M  V30 18 H 2.08 4.83886 2.90714 0
M  V30 19 N 1.4781 -0.272755 1.55222 0
M  V30 20 C 2.3881 -1.35918 1.91216 0
M  V30 21 C 3.4041 -1.54026 0.809436 0
M  V30 22 O 4.5801 -1.68148 1.10852 0
M  V30 23 C 1.6451 -2.69834 2.17693 0
M  V30 24 C 0.7061 -2.6047 3.41253 0
M  V30 25 C -0.0609 -3.88 3.66458 0
M  V30 26 O 0.1621 -4.88693 2.94169 0
M  V30 27 O -0.9039 -3.88189 4.59992 0
M  V30 28 H 2.9221 -1.0839 2.83699 0
M  V30 29 H 0.5071 -0.471301 1.41771 0
M  V30 30 H 2.3891 -3.49017 2.36147 0
M  V30 31 H 1.0641 -2.97148 1.28392 0
M  V30 32 H -0.0289 -1.79663 3.28134 0
M  V30 33 H 1.3041 -2.38106 4.30774 0
M  V30 34 N 2.9562 -1.48159 -0.537278 0
M  V30 35 C 4.1812 -1.59707 -1.32319 0
M  V30 36 C 4.6062 -0.254859 -1.86365 0
M  V30 37 O 3.9642 0.772378 -1.64024 0
M  V30 38 C 4.0122 -2.6412 -2.45505 0
M  V30 39 O 3.1162 -2.20774 -3.48328 0
M  V30 40 H 2.4572 -0.535791 -0.392204 0
M  V30 41 H 4.9872 -1.94092 -0.647268 0
M  V30 42 H 4.9972 -2.85166 -2.91795 0
M  V30 43 H 3.6722 -3.61567 -2.05528 0
M  V30 44 H 2.2492 -2.09911 -3.08207 0
M  V30 45 N 4.4343 0.785586 -1.36625 0
M  V30 46 C 5.3813 1.89838 -1.31264 0
M  V30 47 C 6.3513 1.65115 -0.180633 0
M  V30 48 O 7.5363 1.87222 -0.36777 0
M  V30 49 C 4.6763 3.26706 -1.11163 0
M  V30 50 C 3.7893 3.63476 -2.33472 0
M  V30 51 C 2.9243 4.89481 -2.06353 0
M  V30 52 C 1.9633 5.18941 -3.24602 0
M  V30 53 N 1.1003 6.36131 -2.97123 0
M  V30 54 H 5.9403 1.93756 -2.26413 0
M  V30 55 H 3.4773 0.947454 -1.12524 0
M  V30 56 H 5.4353 4.05639 -0.975337 0
M  V30 57 H 4.0653 3.222 -0.196674 0
M  V30 58 H 3.1173 2.79636 -2.57891 0
M  V30 59 H 4.4293 3.81193 -3.21704 0
M  V30 60 H 3.5833 5.76288 -1.89675 0
M  V30 61 H 2.3223 4.73841 -1.15437 0
M  V30 62 H 1.3273 4.30615 -3.41834 0
M  V30 63 H 2.5523 5.36498 -4.16349 0
M  V30 64 H 0.4983 6.21875 -2.08823 0
M  V30 65 H 0.4153 6.54198 -3.78894 0
M  V30 66 H 1.6833 7.2591 -2.84033 0
M  V30 67 N 5.9124 1.20967 1.01018 0
M  V30 68 C 7.1584 1.02526 1.74975 0
M  V30 69 C 7.4914 -0.4408 1.89131 0
M  V30 70 O 6.7664 -1.32718 1.42184 0
M  V30 71 C 7.0494 1.71699 3.1653 0
M  V30 72 C 6.9024 3.25791 3.10129 0
M  V30 73 C 8.2214 1.45531 4.15342 0
M  V30 74 H 5.3404 0.373863 0.635134 0
M  V30 75 H 7.9824 1.49071 1.17805 0
M  V30 76 H 6.1324 1.32128 3.65341 0
M  V30 77 H 7.8044 3.74697 2.69072 0
M  V30 78 H 6.0474 3.56363 2.47362 0
M  V30 79 H 6.7184 3.69353 4.10222 0
M  V30 80 H 9.1944 1.79872 3.75213 0
M  V30 81 H 8.0704 1.96453 5.1254 0
M  V30 82 H 8.3314 0.384237 4.40427 0
M  V30 83 N 7.3905 -1.2043 1.01659 0
M  V30 84 C 8.6365 -1.90079 0.706963 0
M  V30 85 C 8.9695 -1.78648 -0.761474 0
M  V30 86 O 8.2445 -1.17069 -1.55323 0
M  V30 87 C 8.5275 -3.41469 1.14327 0
M  V30 88 C 8.3805 -3.61833 2.67201 0
M  V30 89 C 9.6995 -4.34261 0.714529 0
M  V30 90 H 6.8185 -0.690254 0.2583 0
M  V30 91 H 9.4605 -1.41826 1.26433 0
M  V30 92 H 7.6105 -3.82696 0.669056 0
M  V30 93 H 9.2825 -3.2986 3.22475 0
M  V30 94 H 7.5255 -3.05304 3.08175 0
M  V30 95 H 8.1965 -4.67955 2.92783 0
M  V30 96 H 10.6725 -4.00682 1.12221 0
M  V30 97 H 9.5485 -5.38806 1.04784 0
M  V30 98 H 9.8095 -4.40431 -0.383799 0
M  V30 99 N 8.8686 -0.792821 -1.36206 0
M  V30 100 C 10.1146 -0.36733 -1.99446 0
M  V30 101 C 10.4476 1.05917 -1.62774 0
M  V30 102 O 9.7226 1.7324 -0.88421 0
M  V30 103 C 10.0056 -0.535044 -3.56103 0
M  V30 104 C 9.8586 -2.00548 -4.02617 0
M  V30 105 C 11.1776 0.0478191 -4.40074 0
M  V30 106 H 8.2966 -0.134941 -0.724541 0
M  V30 107 H 10.9386 -0.999794 -1.61568 0
M  V30 108 H 9.0886 0.00336329 -3.885 0
M  V30 109 H 10.7606 -2.60521 -3.80692 0
M  V30 110 H 9.0036 -2.50686 -3.54032 0
M  V30 111 H 9.6746 -2.07377 -5.11565 0
M  V30 112 H 12.1506 -0.411822 -4.14057 0
M  V30 113 H 11.0266 -0.0995336 -5.4881 0
M  V30 114 H 11.2876 1.14025 -4.27142 0
M  V30 115 N 10.3467 1.47872 -0.545128 0
M  V30 116 C 11.7577 1.86384 -0.108581 0
M  V30 117 C 12.1087 1.45309 1.31832 0
M  V30 118 O 11.2337 0.850641 1.9898 0
M  V30 119 C 11.8287 3.38265 -0.190274 0
M  V30 120 C 10.3877 3.75914 0.191164 0
M  V30 121 C 9.5347 2.71926 -0.543273 0
M  V30 122 H 12.4857 1.39561 -0.755537 0
M  V30 123 H 12.5067 3.75831 0.594217 0
M  V30 124 H 12.0187 3.6813 -1.2289 0
M  V30 125 H 10.1197 3.51665 1.23136 0
M  V30 126 H 10.2327 4.78836 -0.158987 0
M  V30 127 H 8.5967 2.54697 0.0122495 0
M  V30 128 H 9.3797 3.04634 -1.58282 0
M  V30 129 N 11.8248 0.280983 1.55075 0
M  V30 130 C 12.7878 -0.590896 2.21452 0
M  V30 131 C 13.7878 -1.07682 1.19421 0
M  V30 132 O 14.9778 -0.97605 1.44288 0
M  V30 133 C 12.1098 -1.81587 2.88511 0
M  V30 134 H 13.3028 -0.0112554 2.99898 0
M  V30 135 H 10.8558 0.0316438 1.56268 0
M  V30 136 H 11.5908 -2.43587 2.14093 0
M  V30 137 H 11.3758 -1.4753 3.63287 0
M  V30 138 H 12.8658 -2.43575 3.39206 0
M  V30 139 N 13.3029 -1.57598 0.00835791 0
M  V30 140 C 14.2349 -2.05811 -1.00868 0
M  V30 141 C 15.2479 -0.977579 -1.30182 0
M  V30 142 O 16.4369 -1.25421 -1.27011 0
M  V30 143 C 13.5369 -2.45016 -2.34137 0
M  V30 144 C 12.7099 -3.75903 -2.23643 0
M  V30 145 C 11.7689 -4.01884 -3.3967 0
M  V30 146 O 10.7949 -4.72433 -3.17483 0
M  V30 147 N 11.9969 -3.50432 -4.62793 0
M  V30 148 H 14.7619 -2.93684 -0.597458 0
M  V30 149 H 12.3229 -1.60909 -0.178852 0
M  V30 150 H 14.3149 -2.59506 -3.10546 0
M  V30 151 H 12.8849 -1.62618 -2.66972 0
M  V30 152 H 12.1049 -3.7141 -1.32091 0
M  V30 153 H 13.3929 -4.61695 -2.13812 0
M  V30 154 H 12.7909 -2.93317 -4.83716 0
M  V30 155 H 11.3479 -3.70236 -5.3644 0
M  V30 156 N 14.781 0.264519 -1.55364 0
M  V30 157 C 16.029 0.993021 -1.76021 0
M  V30 158 C 16.35 1.86511 -0.569099 0
M  V30 159 O 15.62 1.91438 0.415735 0
M  V30 160 H 14.2 0.369639 -0.649135 0
M  V30 161 H 16.862 0.286707 -1.9278 0
M  V30 162 H 15.958 1.62502 -2.66457 0
M  V30 163 N 16.2591 1.48442 0.529413 0
M  V30 164 C 17.2061 1.63007 1.63394 0
M  V30 165 C 18.1761 0.47212 1.59249 0
M  V30 166 O 19.3611 0.695673 1.77666 0
M  V30 167 C 16.5011 1.6763 3.01653 0
M  V30 168 C 15.6141 2.94535 3.16027 0
M  V30 169 C 14.7491 2.90316 4.44849 0
M  V30 170 C 13.7881 4.11923 4.52754 0
M  V30 171 N 12.9251 4.05777 5.72965 0
M  V30 172 H 17.7651 2.5733 1.50285 0
M  V30 173 H 15.3021 1.27613 0.731656 0
M  V30 174 H 17.2601 1.68292 3.81751 0
M  V30 175 H 15.8901 0.76797 3.13532 0
M  V30 176 H 14.9421 3.03615 2.29177 0
M  V30 177 H 16.2541 3.84512 3.17729 0
M  V30 178 H 15.4081 2.89382 5.33238 0
M  V30 179 H 14.1471 1.98068 4.45668 0
M  V30 180 H 13.1521 4.13131 3.62771 0
M  V30 181 H 14.3771 5.0533 4.53672 0
M  V30 182 H 12.3231 3.16351 5.74681 0
M  V30 183 H 12.2401 4.8946 5.76164 0
M  V30 184 H 13.5081 4.08904 6.6364 0
M  V30 185 N 17.7372 -0.778329 1.37039 0
M  V30 186 C 18.6842 -1.89139 1.32269 0
M  V30 187 C 19.6542 -1.65017 0.189387 0
M  V30 188 O 20.8392 -1.87024 0.377693 0
M  V30 189 C 17.9792 -3.26112 1.12894 0
M  V30 190 C 17.0922 -3.62233 2.35396 0
M  V30 191 C 16.2272 -4.8838 2.08946 0
M  V30 192 C 15.2662 -5.17212 3.2735 0
M  V30 193 N 14.4032 -6.34546 3.00492 0
M  V30 194 H 19.2432 -1.92552 2.27437 0
M  V30 195 H 16.7802 -0.941473 1.13025 0
M  V30 196 H 18.7382 -4.05116 0.996835 0
M  V30 197 H 17.3682 -3.22091 0.213758 0
M  V30 198 H 16.4202 -2.78265 2.5937 0
M  V30 199 H 17.7322 -3.79481 3.23721 0
M  V30 200 H 16.8862 -5.75274 1.92729 0
M  V30 201 H 15.6252 -4.73222 1.17949 0
M  V30 202 H 14.6302 -4.28796 3.44113 0
M  V30 203 H 15.8552 -5.34283 4.19188 0
M  V30 204 H 13.8012 -6.20759 2.12118 0
M  V30 205 H 13.7182 -6.52179 3.82358 0
M  V30 206 H 14.9862 -7.24394 2.87879 0
M  V30 207 N 19.2153 -1.21501 -1.00376 0
M  V30 208 C 20.4643 -1.02718 -1.73586 0
M  V30 209 C 20.7773 0.439589 -1.90596 0
M  V30 210 O 21.9833 0.746848 -2.61026 0
M  V30 211 C 20.4393 -1.78929 -3.1227 0
M  V30 212 C 20.0473 -3.29783 -3.03228 0
M  V30 213 C 21.7913 -1.68557 -3.89601 0
M  V30 214 C 19.6983 -3.98479 -4.36999 0
M  V30 215 H 18.6283 -0.380733 -0.650814 0
M  V30 216 H 21.2793 -1.45248 -1.1214 0
M  V30 217 H 19.6613 -1.29192 -3.74333 0
M  V30 218 H 20.8353 -3.86832 -2.50395 0
M  V30 219 H 19.1503 -3.40711 -2.39385 0
M  V30 220 H 21.7473 -2.17211 -4.88593 0
M  V30 221 H 22.0903 -0.644021 -4.11288 0
M  V30 222 H 22.6233 -2.15778 -3.34193 0
M  V30 223 H 19.3623 -5.02841 -4.20513 0
M  V30 224 H 18.8823 -3.46219 -4.89788 0
M  V30 225 H 20.5613 -4.03462 -5.05794 0
M  V30 226 N 20.6934 1.19889 -1.02296 0
M  V30 227 C 21.9214 1.9339 -0.735399 0
M  V30 228 C 22.3364 1.75148 0.704887 0
M  V30 229 O 21.6934 1.06954 1.47875 0
M  V30 230 C 21.7444 3.45313 -1.06962 0
M  V30 231 O 21.4654 3.62964 -2.45334 0
M  V30 232 C 22.9664 4.35948 -0.804021 0
M  V30 233 H 20.1864 0.61448 -0.269546 0
M  V30 234 H 22.7304 1.522 -1.36585 0
M  V30 235 H 20.8854 3.84359 -0.484455 0
M  V30 236 H 21.2994 4.56886 -2.57595 0
M  V30 237 H 22.7734 5.41174 -1.0879 0
M  V30 238 H 23.2504 4.3842 0.261691 0
M  V30 239 H 23.8564 4.02574 -1.37164 0
M  V30 240 N 22.1715 0.800033 1.35784 0
M  V30 241 C 23.1015 0.220184 2.3246 0
M  V30 242 C 24.0825 -0.65073 1.57161 0
M  V30 243 O 25.2675 -0.582359 1.85263 0
M  V30 244 C 22.3975 -0.637353 3.41402 0
M  V30 245 C 21.3515 0.134531 4.27789 0
M  V30 246 C 20.6775 -0.844285 5.27992 0
M  V30 247 C 21.9775 1.32979 5.05088 0
M  V30 248 H 23.6715 1.02787 2.81203 0
M  V30 249 H 21.2175 0.495717 1.35199 0
M  V30 250 H 23.1705 -1.05302 4.08031 0
M  V30 251 H 21.8945 -1.47785 2.91251 0
M  V30 252 H 20.5535 0.531296 3.6273 0
M  V30 253 H 20.2015 -1.68011 4.74111 0
M  V30 254 H 19.9015 -0.332184 5.8666 0
M  V30 255 H 21.4255 -1.2583 5.97494 0
M  V30 256 H 22.8395 0.98934 5.64699 0
M  V30 257 H 21.2365 1.77593 5.7322 0
M  V30 258 H 22.3065 2.11978 4.36111 0
M  V30 259 N 23.6496 -1.47581 0.552962 0
M  V30 260 C 24.5816 -2.27997 -0.234533 0
M  V30 261 C 25.5946 -1.36753 -0.883321 0
M  V30 262 O 26.7836 -1.61612 -0.757889 0
M  V30 263 C 23.8836 -3.10879 -1.34935 0
M  V30 264 C 23.0566 -4.30056 -0.798158 0
M  V30 265 C 22.1156 -4.94567 -1.79694 0
M  V30 266 O 21.1416 -5.53087 -1.34474 0
M  V30 267 N 22.3436 -4.88878 -3.13015 0
M  V30 268 H 25.1086 -2.96222 0.455255 0
M  V30 269 H 22.6696 -1.57163 0.388761 0
M  V30 270 H 24.6616 -3.50903 -2.01616 0
M  V30 271 H 23.2316 -2.44924 -1.94244 0
M  V30 272 H 22.4516 -3.94174 0.0453079 0
M  V30 273 H 23.7396 -5.07152 -0.409173 0
M  V30 274 H 23.1376 -4.42526 -3.52402 0
M  V30 275 H 21.6946 -5.32934 -3.75266 0
M  V30 276 N 25.1277 -0.289203 -1.54924 0
M  V30 277 C 26.0757 0.607966 -2.24514 0
M  V30 278 C 27.0697 1.14655 -1.24702 0
M  V30 279 O 28.2757 1.09856 -1.4259 0
M  V30 280 H 24.6507 0.21464 -0.720718 0
M  V30 281 H 26.6217 -0.00164182 -2.984 0
M  V30 282 C 25.3707 1.77406 -2.99036 0
M  V30 283 H 24.6937 1.36884 -3.75637 0
M  V30 284 H 26.1337 2.37814 -3.51028 0
M  V30 285 C 24.5927 2.67107 -2.05318 0
M  V30 286 O 25.1227 3.6787 -1.61353 0
M  V30 287 N 23.3287 2.34582 -1.71521 0
M  V30 288 H 22.8757 1.52688 -2.07471 0
M  V30 289 H 22.8337 2.94867 -1.0909 0
M  V30 290 N 26.6058 1.57591 -0.0167156 0
M  V30 291 C 27.8538 1.90906 0.663285 0
M  V30 292 C 28.1748 0.892509 1.73376 0
M  V30 293 O 27.4448 -0.0677623 1.95783 0
M  V30 294 H 26.0248 0.704637 0.247983 0
M  V30 295 H 28.6868 1.94803 -0.0615909 0
M  V30 296 H 27.7828 2.9116 1.12393 0
M  V30 297 N 28.0839 -0.256276 1.55502 0
M  V30 298 C 29.0309 -1.31714 1.89526 0
M  V30 299 C 30.0009 -1.4828 0.748479 0
M  V30 300 O 31.1859 -1.62416 1.00128 0
M  V30 301 C 28.3259 -2.66933 2.18725 0
M  V30 302 C 27.4389 -2.58452 3.4616 0
M  V30 303 C 26.5739 -3.85961 3.64976 0
M  V30 304 C 25.6129 -3.72059 4.86044 0
M  V30 305 N 24.7499 -4.9144 5.01429 0
M  V30 306 H 29.5899 -1.01998 2.80001 0
M  V30 307 H 27.1269 -0.492413 1.38613 0
M  V30 308 H 29.0849 -3.4563 2.33657 0
M  V30 309 H 27.7149 -2.94816 1.31466 0
M  V30 310 H 26.7669 -1.71374 3.3961 0
M  V30 311 H 28.0789 -2.44085 4.34999 0
M  V30 312 H 27.2329 -4.73101 3.79816 0
M  V30 313 H 25.9719 -4.03215 2.74353 0
M  V30 314 H 24.9769 -2.83302 4.7119 0
M  V30 315 H 26.2019 -3.56309 5.78118 0
M  V30 316 H 24.1479 -5.09072 4.13741 0
M  V30 317 H 24.0649 -4.79668 5.84341 0
M  V30 318 H 25.3329 -5.80104 5.20672 0
M  V30 319 N 29.562 -1.4872 -0.521534 0
M  V30 320 C 30.492 -1.66771 -1.63431 0
M  V30 321 C 31.473 -0.516499 -1.62069 0
M  V30 322 O 32.658 -0.750013 -1.79132 0
M  V30 323 C 29.788 -1.71515 -3.01993 0
M  V30 324 C 28.742 -2.86222 -3.18216 0
M  V30 325 C 28.068 -2.76061 -4.57924 0
M  V30 326 C 29.368 -4.27419 -3.00184 0
M  V30 327 H 31.062 -2.59932 -1.48579 0
M  V30 328 H 28.608 -1.25089 -0.713358 0
M  V30 329 H 30.561 -1.82731 -3.7972 0
M  V30 330 H 29.285 -0.749393 -3.17886 0
M  V30 331 H 27.944 -2.74575 -2.42908 0
M  V30 332 H 27.592 -1.77437 -4.70665 0
M  V30 333 H 27.292 -3.53037 -4.69722 0
M  V30 334 H 28.816 -2.89256 -5.37739 0
M  V30 335 H 30.23 -4.39855 -3.67697 0
M  V30 336 H 28.627 -5.05458 -3.2347 0
M  V30 337 H 29.697 -4.43293 -1.96518 0
M  V30 338 N 31.0401 0.771051 -1.3745 0
M  V30 339 C 31.9881 1.90574 -1.33358 0
M  V30 340 C 32.9821 1.67936 -0.22224 0
M  V30 341 O 34.1881 1.75717 -0.390304 0
M  V30 342 H 30.5631 0.626714 -0.415612 0
M  V30 343 H 32.5341 1.91142 -2.29144 0
M  V30 344 C 31.2831 3.27845 -1.15813 0
M  V30 345 H 30.6061 3.45842 -2.00583 0
M  V30 346 H 32.0461 4.07538 -1.17 0
M  V30 347 C 30.5051 3.36625 0.136165 0
M  V30 348 O 31.0351 3.85785 1.11949 0
M  V30 349 N 29.2411 2.89997 0.187099 0
M  V30 350 H 28.7881 2.50182 -0.613753 0
M  V30 351 H 28.7461 2.96252 1.05272 0
M  V30 352 N 32.5182 1.22032 0.997298 0
M  V30 353 C 33.7642 1.04376 1.73878 0
M  V30 354 C 34.0972 -0.420716 1.89588 0
M  V30 355 O 33.3722 -1.31202 1.43583 0
M  V30 356 C 33.6552 1.75047 3.14691 0
M  V30 357 C 33.5082 3.29062 3.06656 0
M  V30 358 C 34.8272 1.49928 4.13775 0
M  V30 359 H 31.9462 0.380578 0.631133 0
M  V30 360 H 34.5882 1.50312 1.16217 0
M  V30 361 H 32.7382 1.35996 3.63919 0
M  V30 362 H 34.4102 3.7753 2.65083 0
M  V30 363 H 32.6532 3.58967 2.43568 0
M  V30 364 H 33.3242 3.73683 4.06282 0
M  V30 365 H 35.8002 1.83842 3.73285 0
M  V30 366 H 34.6762 2.01878 5.10428 0
M  V30 367 H 34.9372 0.430929 4.39995 0
M  V30 368 N 33.9963 -1.19345 1.0293 0
M  V30 369 C 35.4073 -1.70725 0.755633 0
M  V30 370 C 35.7583 -1.82326 -0.724676 0
M  V30 371 O 34.8833 -1.49471 -1.56484 0
M  V30 372 C 35.4783 -3.10084 1.36503 0
M  V30 373 C 34.0373 -3.58723 1.13994 0
M  V30 374 C 33.1843 -2.35577 1.46283 0
M  V30 375 H 36.1353 -1.0418 1.19718 0
M  V30 376 H 36.1563 -3.72787 0.762217 0
M  V30 377 H 35.6683 -3.01609 2.44241 0
M  V30 378 H 33.7693 -3.72512 0.0807901 0
M  V30 379 H 33.8823 -4.42816 1.82894 0
M  V30 380 H 32.2463 -2.38935 0.88217 0
M  V30 381 H 33.0293 -2.29731 2.55105 0
M  V30 382 N 35.4744 -0.807222 -1.35358 0
M  V30 383 C 36.3844 -0.219594 -2.3357 0
M  V30 384 C 37.4004 0.637734 -1.61892 0
M  V30 385 O 38.5764 0.549336 -1.93763 0
M  V30 386 C 35.6414 0.62158 -3.41083 0
M  V30 387 C 34.7024 -0.256315 -4.28534 0
M  V30 388 C 33.9354 0.544807 -5.30912 0
M  V30 389 O 34.1584 1.77944 -5.41934 0
M  V30 390 O 33.0924 -0.0646478 -6.01865 0
M  V30 391 H 36.9184 -1.03208 -2.85625 0
M  V30 392 H 34.5034 -0.569025 -1.38139 0
M  V30 393 H 36.3854 1.10067 -4.06772 0
M  V30 394 H 35.0604 1.41165 -2.91297 0
M  V30 395 H 33.9674 -0.782559 -3.65823 0
M  V30 396 H 35.3004 -1.01034 -4.81719 0
M  V30 397 N 36.9525 1.47285 -0.560781 0
M  V30 398 C 37.9005 2.31756 0.197942 0
M  V30 399 C 38.8945 1.43146 0.905854 0
M  V30 400 O 40.1005 1.59891 0.826733 0
M  V30 401 H 36.4755 0.747438 0.0827049 0
M  V30 402 H 38.4465 2.9359 -0.533629 0
M  V30 403 C 37.1955 3.25874 1.21249 0
M  V30 404 H 36.5185 3.94023 0.67719 0
M  V30 405 H 37.9585 3.87803 1.71419 0
M  V30 406 C 36.4175 2.49651 2.26221 0
M  V30 407 O 36.9475 2.24355 3.33208 0
M  V30 408 N 35.1535 2.10597 2.00243 0
M  V30 409 H 34.7005 2.31369 1.13252 0
M  V30 410 H 34.6585 1.59913 2.70694 0
M  V30 411 N 38.4306 0.297415 1.54768 0
M  V30 412 C 39.8416 -0.195947 1.85669 0
M  V30 413 C 40.1926 -1.53707 1.21937 0
M  V30 414 O 39.3176 -2.10164 0.515754 0
M  V30 415 C 39.9126 -0.362318 3.36857 0
M  V30 416 C 38.4716 -0.799901 3.67802 0
M  V30 417 C 37.6186 0.0938578 2.77141 0
M  V30 418 H 40.5696 0.518538 1.4999 0
M  V30 419 H 40.5906 -1.19745 3.61167 0
M  V30 420 H 40.1026 0.613921 3.83214 0
M  V30 421 H 38.2036 -1.78682 3.26961 0
M  V30 422 H 38.3166 -0.621773 4.75048 0
M  V30 423 H 36.6806 -0.426254 2.51108 0
M  V30 424 H 37.4636 1.06639 3.26318 0
M  V30 425 N 39.9087 -1.5758 0.0250728 0
M  V30 426 C 41.1577 -1.90811 -0.653767 0
M  V30 427 C 41.4707 -0.90273 -1.73523 0
M  V30 428 O 42.6767 -1.12614 -2.47043 0
M  V30 429 C 41.1327 -3.38804 -1.21409 0
M  V30 430 C 40.7407 -4.47692 -0.166126 0
M  V30 431 C 42.4847 -3.81108 -1.86967 0
M  V30 432 C 40.3917 -5.86779 -0.737856 0
M  V30 433 H 39.3217 -0.712063 -0.247956 0
M  V30 434 H 41.9727 -1.83281 0.0897137 0
M  V30 435 H 40.3547 -3.41252 -2.00905 0
M  V30 436 H 41.5287 -4.56797 0.606079 0
M  V30 437 H 39.8437 -4.14565 0.390466 0
M  V30 438 H 42.4407 -4.82375 -2.30692 0
M  V30 439 H 42.7837 -3.15953 -2.71071 0
M  V30 440 H 43.3167 -3.81065 -1.14167 0
M  V30 441 H 40.0557 -6.55468 0.0649577 0
M  V30 442 H 39.5757 -5.81288 -1.47864 0
M  V30 443 H 41.2547 -6.35223 -1.22884 0
M  V30 444 N 41.3868 0.248026 -1.55636 0
M  V30 445 C 42.6358 0.974134 -1.76617 0
M  V30 446 C 42.9488 1.86528 -0.588796 0
M  V30 447 O 44.1548 2.62805 -0.681594 0
M  V30 448 C 42.6108 1.78213 -3.12679 0
M  V30 449 C 42.2188 0.93843 -4.38061 0
M  V30 450 C 43.9628 2.50104 -3.42999 0
M  V30 451 C 41.8698 1.74225 -5.65155 0
M  V30 452 H 40.7998 0.36745 -0.658405 0
M  V30 453 H 43.4508 0.22884 -1.82067 0
M  V30 454 H 41.8328 2.56933 -3.01333 0
M  V30 455 H 43.0068 0.193635 -4.60393 0
M  V30 456 H 41.3218 0.332905 -4.15067 0
M  V30 457 H 43.9188 3.10694 -4.3517 0
M  V30 458 H 44.2618 3.21662 -2.64271 0
M  V30 459 H 44.7948 1.78395 -3.55556 0
M  V30 460 H 41.5338 1.07043 -6.46701 0
M  V30 461 H 41.0538 2.46235 -5.46926 0
M  V30 462 H 42.7328 2.30967 -6.0437 0
M  V30 463 N 42.8649 1.48995 0.513639 0
M  V30 464 C 44.2759 1.5119 1.09537 0
M  V30 465 C 44.6269 0.290906 1.94031 0
M  V30 466 O 43.7519 -0.60049 2.07902 0
M  V30 467 C 44.3469 2.73964 1.99322 0
M  V30 468 C 42.9059 2.78978 2.52682 0
M  V30 469 C 42.0529 2.44934 1.30009 0
M  V30 470 H 45.0039 1.55875 0.298125 0
M  V30 471 H 45.0249 2.53409 2.83838 0
M  V30 472 H 44.5369 3.62813 1.37799 0
M  V30 473 H 42.6379 1.94378 3.1788 0
M  V30 474 H 42.7509 3.8083 2.90698 0
M  V30 475 H 41.1149 1.9644 1.62122 0
M  V30 476 H 41.8979 3.36043 0.702131 0
M  V30 477 N 44.343 -0.763751 1.37857 0
M  V30 478 C 45.573 -1.55067 1.3652 0
M  V30 479 C 45.981 -1.89135 -0.0494227 0
M  V30 480 O 45.324 -1.52529 -1.02375 0
M  V30 481 C 45.386 -2.8838 2.14656 0
M  V30 482 C 45.05 -2.76905 3.63555 0
M  V30 483 C 46.047 -2.4739 4.57268 0
M  V30 484 C 43.732 -2.94676 4.06781 0
M  V30 485 C 45.726 -2.35786 5.92186 0
M  V30 486 C 43.413 -2.82692 5.41782 0
M  V30 487 C 44.411 -2.53289 6.34298 0
M  V30 488 O 44.099 -2.41345 7.66817 0
M  V30 489 H 43.831 -0.486776 0.469069 0
M  V30 490 H 46.385 -0.953812 1.81911 0
M  V30 491 H 44.615 -3.50217 1.63967 0
M  V30 492 H 46.304 -3.49828 2.05852 0
M  V30 493 H 47.07 -2.33339 4.2518 0
M  V30 494 H 42.949 -3.16563 3.35126 0
M  V30 495 H 46.493 -2.12757 6.64365 0
M  V30 496 H 42.39 -2.96314 5.7347 0
M  V30 497 H 43.158 -2.56634 7.77226 0
M  V30 498 N 45.8211 -1.22559 -0.990812 0
M  V30 499 C 47.0701 -1.04553 -1.72486 0
M  V30 500 C 47.3831 0.419349 -1.91052 0
M  V30 501 O 48.5891 0.719121 -2.61803 0
M  V30 502 C 47.0451 -1.82231 -3.10355 0
M  V30 503 C 46.6531 -3.32981 -2.99713 0
M  V30 504 C 48.3971 -1.7268 -3.87791 0
M  V30 505 C 46.3041 -4.03091 -4.32748 0
M  V30 506 H 45.2341 -0.387614 -0.646739 0
M  V30 507 H 47.8851 -1.46429 -1.10593 0
M  V30 508 H 46.2671 -1.33155 -3.72942 0
M  V30 509 H 47.4411 -3.89466 -2.46278 0
M  V30 510 H 45.7561 -3.43231 -2.35758 0
M  V30 511 H 48.3531 -2.22381 -4.86262 0
M  V30 512 H 48.6961 -0.687607 -4.10582 0
M  V30 513 H 49.2291 -2.1931 -3.31885 0
M  V30 514 H 45.9681 -5.07273 -4.15156 0
M  V30 515 H 45.4881 -3.51394 -4.86089 0
M  V30 516 H 47.1671 -4.08804 -5.01486 0
M  V30 517 N 47.2992 1.18797 -1.03562 0
M  V30 518 C 48.2092 2.25913 -0.632505 0
M  V30 519 C 49.2252 1.70668 0.338882 0
M  V30 520 O 50.4012 2.00453 0.195076 0
M  V30 521 C 47.4662 3.467 0.00350942 0
M  V30 522 C 46.5272 4.17098 -1.01624 0
M  V30 523 C 45.7602 5.32119 -0.410478 0
M  V30 524 O 45.9832 5.64976 0.784725 0
M  V30 525 O 44.9172 5.9107 -1.13667 0
M  V30 526 H 48.7432 2.62648 -1.52478 0
M  V30 527 H 46.3282 1.25781 -0.806195 0
M  V30 528 H 48.2102 4.19878 0.35781 0
M  V30 529 H 46.8852 3.11798 0.869686 0
M  V30 530 H 45.7922 3.4601 -1.42224 0
M  V30 531 H 47.1252 4.55987 -1.85301 0
M  V30 532 N 48.7773 0.814389 1.34928 0
M  V30 533 C 50.0253 0.397636 1.9815 0
M  V30 534 C 50.3463 -1.04069 1.64908 0
M  V30 535 O 49.6163 -1.72121 0.93548 0
M  V30 536 H 48.1963 0.144043 0.732981 0
M  V30 537 H 50.8583 1.04195 1.6471 0
M  V30 538 H 49.9543 0.509688 3.0791 0
M  V30 539 N 50.2554 -1.46986 0.568584 0
M  V30 540 C 51.5324 -1.95592 -0.0174074 0
M  V30 541 C 51.9124 -1.51124 -1.47393 0
M  V30 542 O 51.2604 -0.755329 -2.15655 0
M  V30 543 C 51.4704 -3.48719 0.139913 0
M  V30 544 C 52.8184 -4.246 0.000426376 0
M  V30 545 O 53.8424 -3.56135 0.0680316 0
M  V30 546 O 52.7014 -5.46302 -0.146988 0
M  V30 547 H 49.7954 -0.82498 -0.0577599 0
M  V30 548 H 52.3414 -1.57335 0.635909 0
M  V30 549 H 51.1134 -3.73927 1.15301 0
M  V30 550 H 50.7364 -3.93771 -0.550491 0
M  V30 551 N 51.7335 -0.305618 -1.54608 0
M  V30 552 C 52.9815 0.301701 -1.99835 0
M  V30 553 C 53.3025 1.54054 -1.19551 0
M  V30 554 O 52.5725 1.93702 -0.292658 0
M  V30 555 H 51.1525 0.114468 -0.738178 0
M  V30 556 H 53.8145 -0.418016 -1.90364 0
M  V30 557 H 52.9105 0.570548 -3.06841 0
M  V30 558 N 53.2116 1.57565 -0.0334293 0
M  V30 559 C 54.4606 1.91155 0.643639 0
M  V30 560 C 54.7736 0.91192 1.73042 0
M  V30 561 O 55.9796 1.13923 2.46442 0
M  V30 562 C 54.4356 3.39443 1.1961 0
M  V30 563 C 54.0436 4.47774 0.142381 0
M  V30 564 C 55.7876 3.82094 1.84944 0
M  V30 565 C 53.6946 5.87162 0.706727 0
M  V30 566 H 52.6246 0.713368 0.244176 0
M  V30 567 H 55.2756 1.8323 -0.0994323 0
M  V30 568 H 53.6576 3.42313 1.99092 0
M  V30 569 H 54.8316 4.56469 -0.630296 0
M  V30 570 H 53.1466 4.14352 -0.412446 0
M  V30 571 H 55.7436 4.83591 2.2813 0
M  V30 572 H 56.0866 3.17386 2.69392 0
M  V30 573 H 56.6196 3.81665 1.12145 0
M  V30 574 H 53.3586 6.55424 -0.0997178 0
M  V30 575 H 52.8786 5.82064 1.44779 0
M  V30 576 H 54.5576 6.35866 1.19514 0
M  V30 577 N 54.6897 -0.239769 1.55765 0
M  V30 578 C 55.9377 -0.964892 1.77579 0
M  V30 579 C 56.2587 -1.85582 0.598699 0
M  V30 580 O 55.5287 -1.92075 -0.385226 0
M  V30 581 H 54.1087 -0.359265 0.654933 0
M  V30 582 H 56.7707 -0.256001 1.93211 0
M  V30 583 H 55.8667 -1.58243 2.69009 0
M  V30 584 N 56.1678 -1.49265 -0.50573 0
M  V30 585 C 57.4138 -1.58748 -1.26202 0
M  V30 586 C 57.7468 -0.271227 -1.92297 0
M  V30 587 O 57.0218 0.724831 -1.80489 0
M  V30 588 C 57.3048 -2.74332 -2.33268 0
M  V30 589 C 57.1578 -4.15737 -1.71705 0
M  V30 590 C 58.4768 -2.85576 -3.34865 0
M  V30 591 H 55.5958 -0.577826 -0.457478 0
M  V30 592 H 58.2378 -1.81532 -0.560897 0
M  V30 593 H 56.3878 -2.55036 -2.93068 0
M  V30 594 H 58.0598 -4.46537 -1.15769 0
M  V30 595 H 56.3028 -4.21605 -1.02135 0
M  V30 596 H 56.9738 -4.92477 -2.49341 0
M  V30 597 H 59.4498 -3.03127 -2.8505 0
M  V30 598 H 58.3258 -3.68135 -4.07146 0
M  V30 599 H 58.5868 -1.94732 -3.96903 0
M  V30 600 N 57.6459 0.756429 -1.3826 0
M  V30 601 C 58.9229 1.50584 -1.24835 0
M  V30 602 C 59.3029 2.10556 0.151485 0
M  V30 603 O 58.6509 1.96825 1.1607 0
M  V30 604 C 58.8609 2.57448 -2.3563 0
M  V30 605 C 60.2089 3.24429 -2.73917 0
M  V30 606 O 61.2329 2.67751 -2.34921 0
M  V30 607 O 60.0919 4.26937 -3.41156 0
M  V30 608 H 57.1859 0.667664 -0.48801 0
M  V30 609 H 59.7319 0.792083 -1.5008 0
M  V30 610 H 58.5039 2.11362 -3.29305 0
M  V30 611 H 58.1269 3.36408 -2.11933 0
M  V30 612 N 59.124 1.23083 0.984299 0
M  V30 613 C 60.37 1.06214 1.72761 0
M  V30 614 C 60.703 -0.400584 1.90024 0
M  V30 615 O 59.978 -1.29672 1.44967 0
M  V30 616 C 60.261 1.78375 3.12817 0
M  V30 617 C 60.114 3.32296 3.03149 0
M  V30 618 C 61.433 1.54309 4.12161 0
M  V30 619 H 58.552 0.387251 0.627061 0
M  V30 620 H 61.194 1.51536 1.14616 0
M  V30 621 H 59.344 1.39848 3.62457 0
M  V30 622 H 61.016 3.8032 2.61064 0
M  V30 623 H 59.259 3.6153 2.39747 0
M  V30 624 H 59.93 3.77972 4.02295 0
M  V30 625 H 62.406 1.87791 3.71314 0
M  V30 626 H 61.282 2.07281 5.08258 0
M  V30 627 H 61.543 0.477572 4.39513 0
M  V30 628 N 60.6021 -1.18246 1.0419 0
M  V30 629 C 61.8301 -1.92195 0.766072 0
M  V30 630 C 62.2451 -1.76247 -0.676933 0
M  V30 631 O 61.6021 -1.09293 -1.46155 0
M  V30 632 C 61.6531 -3.43568 1.12442 0
M  V30 633 O 61.3741 -3.59015 2.51078 0
M  V30 634 C 62.8751 -4.34613 0.873275 0
M  V30 635 H 60.0951 -0.610114 0.279288 0
M  V30 636 H 62.6391 -1.50007 1.38989 0
M  V30 637 H 60.7941 -3.8354 0.545542 0
M  V30 638 H 61.2081 -4.5273 2.64831 0
M  V30 639 H 62.6821 -5.39374 1.17385 0
M  V30 640 H 63.1591 -4.38781 -0.191909 0
M  V30 641 H 63.7651 -4.00341 1.43551 0
M  V30 642 N 62.0802 -0.821533 -1.34494 0
M  V30 643 C 63.4912 -0.467956 -1.8074 0
M  V30 644 C 63.8422 1.01151 -1.68116 0
M  V30 645 O 62.9672 1.78707 -1.22036 0
M  V30 646 C 63.5622 -0.842627 -3.28154 0
M  V30 647 C 62.1212 -0.541439 -3.72485 0
M  V30 648 C 61.2682 -1.06028 -2.56229 0
M  V30 649 H 64.2192 -1.01183 -1.22261 0
M  V30 650 H 64.2402 -0.145876 -3.8022 0
M  V30 651 H 63.7522 -1.91945 -3.37311 0
M  V30 652 H 61.8532 0.526034 -3.68868 0
M  V30 653 H 61.9662 -1.08453 -4.66663 0
M  V30 654 H 60.3302 -0.481892 -2.501 0
M  V30 655 H 61.1132 -2.14352 -2.68157 0
M  V30 656 N 63.5583 1.46682 -0.576371 0
M  V30 657 C 64.5213 2.28707 0.150239 0
M  V30 658 C 65.5213 1.38035 0.824794 0
M  V30 659 O 66.7113 1.60476 0.677719 0
M  V30 660 C 63.8433 3.18248 1.22192 0
M  V30 661 H 65.0363 2.94423 -0.570521 0
M  V30 662 H 62.5893 1.52688 -0.334078 0
M  V30 663 H 63.3243 2.57265 1.97447 0
M  V30 664 H 63.1093 3.85 0.742812 0
M  V30 665 H 64.5993 3.80001 1.73172 0
M  V30 666 N 65.0364 0.313813 1.54444 0
M  V30 667 C 65.9694 -0.598866 2.20202 0
M  V30 668 C 66.9474 -1.12318 1.17573 0
M  V30 669 O 68.1314 -1.18899 1.46271 0
M  V30 670 C 65.2584 -1.82071 2.85601 0
M  V30 671 C 64.3044 -1.42851 4.01865 0
M  V30 672 S 65.1374 -0.473512 5.33402 0
M  V30 673 C 66.2934 -1.70286 6.0229 0
M  V30 674 H 66.5264 -0.0402532 2.97273 0
M  V30 675 H 64.0594 0.0979165 1.54089 0
M  V30 676 H 66.0174 -2.52184 3.23904 0
M  V30 677 H 64.6784 -2.3505 2.08351 0
M  V30 678 H 63.8714 -2.33871 4.46453 0
M  V30 679 H 63.4734 -0.807198 3.65185 0
M  V30 680 H 65.7654 -2.64168 6.23876 0
M  V30 681 H 66.7084 -1.29932 6.96077 0
M  V30 682 H 67.1164 -1.88541 5.32083 0
M  V30 683 N 66.5145 -1.57545 0.0417849 0
M  V30 684 C 67.4445 -2.14009 -0.933929 0
M  V30 685 C 68.4255 -1.05938 -1.33083 0
M  V30 686 O 69.6105 -1.33833 -1.40721 0
M  V30 687 C 66.7405 -2.67747 -2.21199 0
M  V30 688 C 65.6945 -3.80718 -1.95544 0
M  V30 689 C 65.0205 -4.20935 -3.29724 0
M  V30 690 C 66.3205 -5.06258 -1.28452 0
M  V30 691 H 68.0145 -2.95788 -0.463645 0
M  V30 692 H 65.5605 -1.42285 -0.221573 0
M  V30 693 H 67.5135 -3.05886 -2.89848 0
M  V30 694 H 66.2375 -1.83147 -2.70416 0
M  V30 695 H 64.8965 -3.43037 -1.2931 0
M  V30 696 H 64.5445 -3.33298 -3.76724 0
M  V30 697 H 64.2445 -4.9707 -3.13361 0
M  V30 698 H 65.7685 -4.61666 -3.9962 0
M  V30 699 H 67.1825 -5.41903 -1.8712 0
M  V30 700 H 65.5795 -5.87475 -1.22445 0
M  V30 701 H 66.6495 -4.84207 -0.259219 0
M  V30 702 N 67.9926 0.231505 -1.5589 0
M  V30 703 C 68.9396 1.28682 -1.91598 0
M  V30 704 C 69.9096 1.47071 -0.771974 0
M  V30 705 O 71.0946 1.60802 -1.027 0
M  V30 706 C 68.2346 2.6342 -2.22944 0
M  V30 707 C 67.3476 2.52912 -3.50228 0
M  V30 708 C 66.4826 3.80106 -3.7107 0
M  V30 709 C 65.5216 3.64279 -4.91902 0
M  V30 710 N 64.6586 4.834 -5.09184 0
M  V30 711 H 69.4986 0.975305 -2.81588 0
M  V30 712 H 67.0356 0.470299 -1.39379 0
M  V30 713 H 68.9936 3.41869 -2.39126 0
M  V30 714 H 67.6236 2.92687 -1.36139 0
M  V30 715 H 66.6756 1.6595 -3.42294 0
M  V30 716 H 67.9876 2.37133 -4.38827 0
M  V30 717 H 67.1416 4.66999 -3.87295 0
M  V30 718 H 65.8806 3.98799 -2.80733 0
M  V30 719 H 64.8856 2.7577 -4.75637 0
M  V30 720 H 66.1106 3.47067 -5.83714 0
M  V30 721 H 64.0566 5.02425 -4.21788 0
M  V30 722 H 63.9736 4.70311 -5.91898 0
M  V30 723 H 65.2416 5.71747 -5.29835 0
M  V30 724 N 69.4707 1.49531 0.497807 0
M  V30 725 C 70.7167 1.59415 1.25358 0
M  V30 726 C 71.0497 0.281422 1.9215 0
M  V30 727 O 70.3247 -0.715249 1.80871 0
M  V30 728 C 70.6077 2.75566 2.3181 0
M  V30 729 C 70.4607 4.16642 1.69498 0
M  V30 730 C 71.7797 2.87347 3.33346 0
M  V30 731 H 68.8987 0.580244 0.454408 0
M  V30 732 H 71.5407 1.81827 0.551262 0
M  V30 733 H 69.6907 2.56587 2.91711 0
M  V30 734 H 71.3627 4.47145 1.13399 0
M  V30 735 H 69.6057 4.22141 0.998978 0
M  V30 736 H 70.2767 4.93792 2.46725 0
M  V30 737 H 72.7527 3.04634 2.83438 0
M  V30 738 H 71.6287 3.70289 4.05188 0
M  V30 739 H 71.8897 1.96834 3.95865 0
M  V30 740 N 70.9488 -0.749086 1.3866 0
M  V30 741 C 72.1948 -1.51056 1.35314 0
M  V30 742 C 72.5278 -1.94121 -0.0553751 0
M  V30 743 O 71.8028 -1.65763 -1.01749 0
M  V30 744 C 72.0858 -2.76003 2.31288 0
M  V30 745 C 71.9388 -2.39047 3.8102 0
M  V30 746 C 73.2578 -3.78046 2.2532 0
M  V30 747 H 70.3768 -0.547972 0.492844 0
M  V30 748 H 73.0188 -0.857628 1.69543 0
M  V30 749 H 71.1688 -3.31716 2.02229 0
M  V30 750 H 72.8408 -1.89074 4.20771 0
M  V30 751 H 71.0838 -1.71449 3.98482 0
M  V30 752 H 71.7548 -3.28462 4.4364 0
M  V30 753 H 74.2308 -3.31884 2.50983 0
M  V30 754 H 73.1068 -4.63159 2.94576 0
M  V30 755 H 73.3678 -4.23957 1.25352 0
M  V30 756 N 72.4269 -1.23603 -0.977757 0
M  V30 757 C 73.7039 -0.977897 -1.69401 0
M  V30 758 C 74.0839 0.502738 -2.05026 0
M  V30 759 O 73.4319 1.47459 -1.74551 0
M  V30 760 C 73.6419 -1.89077 -2.93345 0
M  V30 761 C 74.9899 -2.15579 -3.65802 0
M  V30 762 O 76.0139 -1.86648 -3.03383 0
M  V30 763 O 74.8729 -2.64658 -4.78141 0
M  V30 764 H 71.9669 -0.369025 -0.740101 0
M  V30 765 H 74.5129 -1.34657 -1.03274 0
M  V30 766 H 73.2849 -2.89158 -2.63634 0
M  V30 767 H 72.9079 -1.52463 -3.67207 0
M  V30 768 N 73.905 1.17692 -1.04816 0
M  V30 769 C 74.868 2.19787 -0.650117 0
M  V30 770 C 75.868 1.58044 0.296427 0
M  V30 771 O 77.058 1.74012 0.0808097 0
M  V30 772 C 74.19 3.40869 0.0456987 0
M  V30 773 H 75.383 2.56516 -1.5537 0
M  V30 774 H 72.936 1.31708 -0.841594 0
M  V30 775 H 73.671 3.09681 0.962726 0
M  V30 776 H 73.456 3.86928 -0.634727 0
M  V30 777 H 74.946 4.16445 0.310432 0
M  V30 778 N 75.3831 0.828654 1.34056 0
M  V30 779 C 76.3461 0.259927 2.27721 0
M  V30 780 C 77.3461 -0.565478 1.50529 0
M  V30 781 O 78.5361 -0.38075 1.69988 0
M  V30 782 C 75.6681 -0.634944 3.34935 0
M  V30 783 H 76.8611 1.0863 2.79534 0
M  V30 784 H 74.4141 0.600951 1.44285 0
M  V30 785 H 75.1491 -1.48416 2.88346 0
M  V30 786 H 74.9341 -0.0444999 3.92075 0
M  V30 787 H 76.4241 -1.02648 4.04788 0
M  V30 788 N 76.8612 -1.46375 0.584142 0
M  V30 789 C 78.1072 -2.02678 0.0703716 0
M  V30 790 C 78.4402 -1.4545 -1.28678 0
M  V30 791 O 77.7152 -0.62014 -1.84349 0
M  V30 792 C 77.9982 -3.60099 0.00614674 0
M  V30 793 C 77.8512 -4.27709 1.3923 0
M  V30 794 C 79.1702 -4.34598 -0.693742 0
M  V30 795 H 76.2892 -0.736504 0.027047 0
M  V30 796 H 78.9312 -1.74501 0.751615 0
M  V30 797 H 77.0812 -3.84236 -0.574009 0
M  V30 798 H 78.7532 -4.14832 2.01773 0
M  V30 799 H 76.9962 -3.87016 1.95962 0
M  V30 800 H 77.6672 -5.36478 1.29982 0
M  V30 801 H 80.1432 -4.15615 -0.200869 0
M  V30 802 H 79.0192 -5.44318 -0.707714 0
M  V30 803 H 79.2802 -4.05759 -1.75533 0
M  V30 804 N 78.3393 -0.321999 -1.54275 0
M  V30 805 C 79.2493 0.553631 -2.27974 0
M  V30 806 C 80.2653 1.13054 -1.32268 0
M  V30 807 O 81.4413 1.15084 -1.6528 0
M  V30 808 C 78.5063 1.69927 -3.02201 0
M  V30 809 C 77.5673 1.15433 -4.1349 0
M  V30 810 C 76.8003 2.24537 -4.84168 0
M  V30 811 O 77.0233 3.44852 -4.5435 0
M  V30 812 O 75.9573 1.90044 -5.7111 0
M  V30 813 H 79.7833 -0.0448345 -3.03667 0
M  V30 814 H 77.3683 -0.0877418 -1.49142 0
M  V30 815 H 79.2503 2.3663 -3.48689 0
M  V30 816 H 77.9253 2.28395 -2.29385 0
M  V30 817 H 76.8323 0.452436 -3.71354 0
M  V30 818 H 78.1653 0.614805 -4.88345 0
M  V30 819 N 79.8174 1.5752 -0.0501392 0
M  V30 820 C 80.7644 2.1147 0.924603 0
M  V30 821 C 81.7344 1.02182 1.30951 0
M  V30 822 O 82.9194 1.29723 1.39916 0
M  V30 823 C 80.0594 2.66337 2.19451 0
M  V30 824 C 79.1724 3.89708 1.86418 0
M  V30 825 C 78.3074 4.32893 3.07859 0
M  V30 826 C 77.3464 5.48967 2.70742 0
M  V30 827 N 76.4834 5.87211 3.84874 0
M  V30 828 H 81.3234 2.94465 0.457639 0
M  V30 829 H 78.8604 1.45531 0.214266 0
M  V30 830 H 80.8184 2.96247 2.93758 0
M  V30 831 H 79.4484 1.86141 2.63726 0
M  V30 832 H 78.5004 3.66396 1.02264 0
M  V30 833 H 79.8124 4.74074 1.55096 0
M  V30 834 H 78.9664 4.6435 3.90466 0
M  V30 835 H 77.7054 3.47336 3.42358 0
M  V30 836 H 76.7104 5.17183 1.86551 0
M  V30 837 H 77.9354 6.3624 2.37436 0
M  V30 838 H 75.8814 5.04607 4.19175 0
M  V30 839 H 75.7984 6.66266 3.57247 0
M  V30 840 H 77.0664 6.23282 4.68123 0
M  V30 841 N 81.2955 -0.223234 1.56011 0
M  V30 842 C 82.2585 -1.26014 1.9145 0
M  V30 843 C 83.2585 -1.3989 0.792937 0
M  V30 844 O 84.4485 -1.38184 1.0607 0
M  V30 845 C 81.5805 -2.63422 2.16383 0
M  V30 846 H 82.7735 -0.95796 2.84189 0
M  V30 847 H 80.3265 -0.463576 1.49267 0
M  V30 848 H 81.0615 -2.98741 1.2619 0
M  V30 849 H 80.8465 -2.54728 2.98088 0
M  V30 850 H 82.3365 -3.38249 2.44903 0
M  V30 851 N 82.7736 -1.49793 -0.48987 0
M  V30 852 C 84.0036 -1.6333 -1.26518 0
M  V30 853 C 84.4116 -0.308392 -1.8667 0
M  V30 854 O 83.7546 0.717512 -1.69108 0
M  V30 855 C 83.8166 -2.6522 -2.4269 0
M  V30 856 C 83.4806 -4.09279 -2.03321 0
M  V30 857 C 84.4776 -4.95738 -1.56652 0
M  V30 858 C 82.1626 -4.55082 -2.12616 0
M  V30 859 C 84.1566 -6.26041 -1.19795 0
M  V30 860 C 81.8436 -5.85396 -1.75371 0
M  V30 861 C 82.8416 -6.707 -1.29036 0
M  V30 862 O 82.5296 -7.98584 -0.92299 0
M  V30 863 H 82.2616 -0.552502 -0.389509 0
M  V30 864 H 84.8156 -1.96642 -0.593381 0
M  V30 865 H 83.0456 -2.27112 -3.12981 0
M  V30 866 H 84.7346 -2.68171 -3.04695 0
M  V30 867 H 85.5006 -4.61575 -1.48908 0
M  V30 868 H 81.3796 -3.88844 -2.47631 0
M  V30 869 H 84.9236 -6.92578 -0.835582 0
M  V30 870 H 80.8206 -6.19085 -1.82768 0
M  V30 871 H 81.5886 -8.11692 -1.05349 0
M  V30 872 N 84.2517 0.741722 -1.39055 0
M  V30 873 C 85.1987 1.85566 -1.37237 0
M  V30 874 C 86.1687 1.64457 -0.233072 0
M  V30 875 O 87.3537 1.85957 -0.427147 0
M  V30 876 C 84.4937 3.23004 -1.215 0
M  V30 877 C 83.6067 3.55864 -2.44918 0
M  V30 878 C 82.7417 4.82669 -2.21821 0
M  V30 879 C 81.7807 5.08351 -3.40948 0
M  V30 880 N 80.9177 6.26356 -3.17211 0
M  V30 881 H 85.7577 1.86455 -2.32462 0
M  V30 882 H 83.2947 0.911176 -1.15482 0
M  V30 883 H 85.2527 4.02331 -1.10389 0
M  V30 884 H 83.8827 3.21411 -0.29908 0
M  V30 885 H 82.9347 2.7129 -2.66657 0
M  V30 886 H 84.2467 3.70765 -3.33668 0
M  V30 887 H 83.4007 5.69962 -2.07914 0
M  V30 888 H 82.1397 4.69929 -1.30454 0
M  V30 889 H 81.1447 4.19522 -3.55361 0
M  V30 890 H 82.3697 5.22981 -4.33207 0
M  V30 891 H 80.3157 6.14917 -2.28502 0
M  V30 892 H 80.2327 6.41813 -3.99515 0
M  V30 893 H 81.5007 7.16506 -3.06984 0
M  V30 894 N 85.7298 1.2412 0.971189 0
M  V30 895 C 86.9778 1.07668 1.71032 0
M  V30 896 C 87.2988 -0.385797 1.91146 0
M  V30 897 O 86.5688 -1.27569 1.4867 0
M  V30 898 H 85.1488 0.395429 0.633755 0
M  V30 899 H 87.8108 1.55984 1.16855 0
M  V30 900 H 86.9068 1.57195 2.69622 0
M  V30 901 N 87.2079 -1.17134 1.05439 0
M  V30 902 C 88.1179 -2.24878 0.668365 0
M  V30 903 C 89.1339 -1.71186 -0.311687 0
M  V30 904 O 90.3099 -2.00738 -0.163161 0
M  V30 905 C 87.3749 -3.46662 0.051648 0
M  V30 906 C 86.4359 -4.15429 1.08246 0
M  V30 907 C 85.6689 -5.31399 0.495082 0
M  V30 908 O 85.8919 -5.66153 -0.694743 0
M  V30 909 O 84.8259 -5.89187 1.23056 0
M  V30 910 H 88.6519 -2.60189 1.56637 0
M  V30 911 H 86.2369 -1.24482 0.826104 0
M  V30 912 H 88.1189 -4.20394 -0.290966 0
M  V30 913 H 86.7939 -3.13142 -0.819971 0
M  V30 914 H 85.7009 -3.43704 1.47711 0
M  V30 915 H 87.0339 -4.52982 1.92532 0
M  V30 916 N 88.686 -0.835752 -1.33615 0
M  V30 917 C 90.102 -0.523139 -1.50783 0
M  V30 918 C 90.302 0.950171 -1.77691 0
M  V30 919 O 89.358 1.73411 -1.83534 0
M  V30 920 C 90.671 -1.39378 -2.66448 0
M  V30 921 C 92.219 -1.39223 -2.80332 0
M  V30 922 C 92.694 -2.24765 -3.99055 0
M  V30 923 N 94.185 -2.22458 -4.06284 0
M  V30 924 C 94.92 -2.85386 -4.97336 0
M  V30 925 N 94.416 -3.57354 -5.93523 0
M  V30 926 N 96.209 -2.74872 -4.90308 0
M  V30 927 H 88.36 -1.78952 -1.14411 0
M  V30 928 H 90.623 -0.763297 -0.562212 0
M  V30 929 H 90.329 -2.44061 -2.53234 0
M  V30 930 H 90.203 -1.0676 -3.61776 0
M  V30 931 H 92.59 -0.353136 -2.92979 0
M  V30 932 H 92.671 -1.75846 -1.85773 0
M  V30 933 H 92.315 -3.28732 -3.87167 0
M  V30 934 H 92.245 -1.85485 -4.92852 0
M  V30 935 H 94.736 -1.70119 -3.37443 0
M  V30 936 H 95.049 -4.02584 -6.59656 0
M  V30 937 H 93.394 -3.61461 -5.93608 0
M  V30 938 H 96.585 -2.18213 -4.14126 0
M  V30 939 H 96.758 -3.24199 -5.61069 0
M  V30 940 N 90.1641 1.46063 -0.591896 0
M  V30 941 C 91.1111 2.30399 0.136069 0
M  V30 942 C 92.0811 1.41169 0.875238 0
M  V30 943 O 93.2661 1.70112 0.86409 0
M  V30 944 C 90.4061 3.25804 1.13781 0
M  V30 945 C 89.5191 4.30134 0.401137 0
M  V30 946 C 88.6541 5.12659 1.39121 0
M  V30 947 C 87.6931 6.0873 0.641462 0
M  V30 948 N 86.8301 6.8409 1.58004 0
M  V30 949 H 91.6701 2.92118 -0.589144 0
M  V30 950 H 89.2071 1.43959 -0.302342 0
M  V30 951 H 91.1651 3.79569 1.73156 0
M  V30 952 H 89.7951 2.65872 1.83062 0
M  V30 953 H 88.8471 3.79152 -0.307826 0
M  V30 954 H 90.1591 4.98458 -0.184565 0
M  V30 955 H 89.3131 5.70747 2.05749 0
M  V30 956 H 88.0521 4.44316 2.01084 0
M  V30 957 H 87.0571 5.49786 -0.0385419 0
M  V30 958 H 88.2821 6.79095 0.0270945 0
M  V30 959 H 86.2281 6.18449 2.18761 0
M  V30 960 H 86.1451 7.48709 1.04738 0
M  V30 961 H 87.4131 7.4673 2.23639 0
M  V30 962 N 91.6422 0.330177 1.54103 0
M  V30 963 C 92.8912 -0.271336 1.99867 0
M  V30 964 C 93.2042 -1.52723 1.22209 0
M  V30 965 O 94.4102 -2.20515 1.58383 0
M  V30 966 C 92.8662 -0.534032 3.55916 0
M  V30 967 C 92.4742 0.705193 4.42415 0
M  V30 968 C 94.2182 -1.09514 4.1013 0
M  V30 969 C 92.1252 0.414035 5.89949 0
M  V30 970 H 91.0552 -0.105166 0.74663 0
M  V30 971 H 93.7062 0.443429 1.78062 0
M  V30 972 H 92.0882 -1.30915 3.73734 0
M  V30 973 H 93.2622 1.4804 4.36372 0
M  V30 974 H 91.5772 1.18698 3.99124 0
M  V30 975 H 94.1742 -1.3277 5.17954 0
M  V30 976 H 94.5172 -2.04656 3.62521 0
M  V30 977 H 95.0502 -0.381038 3.95971 0
M  V30 978 H 91.7892 1.33481 6.41766 0
M  V30 979 H 91.3092 -0.323336 5.98928 0
M  V30 980 H 92.9882 0.0263105 6.46995 0
M  V30 981 N 93.1203 -1.57491 0.0584922 0
M  V30 982 C 94.3453 -1.97711 -0.62652 0
M  V30 983 C 94.7703 -0.936132 -1.63151 0
M  V30 984 O 94.1283 0.099811 -1.81025 0
M  V30 985 C 94.1763 -3.36989 -1.28338 0
M  V30 986 O 93.2803 -3.35433 -2.39913 0
M  V30 987 H 92.6213 -0.643868 -0.162266 0
M  V30 988 H 95.1513 -2.04193 0.129064 0
M  V30 989 H 95.1613 -3.73879 -1.63335 0
M  V30 990 H 93.8363 -4.12289 -0.546889 0
M  V30 991 H 92.4133 -3.10298 -2.06809 0
M  V30 992 N 94.5984 0.214957 -1.56127 0
M  V30 993 C 95.8444 0.935325 -1.80619 0
M  V30 994 C 96.1994 1.81706 -0.632507 0
M  V30 995 O 95.4924 1.87931 0.373182 0
M  V30 996 C 95.6864 1.80314 -3.0858 0
M  V30 997 C 95.5154 1.00691 -4.38282 0
M  V30 998 C 94.2854 0.699211 -5.00439 0
M  V30 999 C 96.4834 0.369057 -5.12974 0
M  V30 1000 N 94.4654 -0.117734 -6.13787 0
M  V30 1001 C 95.8364 -0.310981 -6.1922 0
M  V30 1002 C 97.8914 0.282759 -4.97096 0
M  V30 1003 C 96.5944 -1.06907 -7.11311 0
M  V30 1004 C 98.6204 -0.461881 -5.89594 0
M  V30 1005 C 97.9824 -1.13044 -6.9527 0
M  V30 1006 H 94.0814 0.322307 -0.71249 0
M  V30 1007 H 96.6654 0.205649 -1.93611 0
M  V30 1008 H 94.8364 2.50458 -2.96859 0
M  V30 1009 H 96.5684 2.46148 -3.21237 0
M  V30 1010 H 93.3234 1.01884 -4.62511 0
M  V30 1011 H 93.7474 -0.515235 -6.75037 0
M  V30 1012 H 98.3894 0.785292 -4.15443 0
M  V30 1013 H 96.1074 -1.5831 -7.92442 0
M  V30 1014 H 99.6934 -0.529746 -5.79383 0
M  V30 1015 H 98.5734 -1.69742 -7.65609 0
M  V30 1016 N 96.0765 1.50051 0.48192 0
M  V30 1017 C 97.0095 1.62749 1.59963 0
M  V30 1018 C 97.9875 0.475903 1.5548 0
M  V30 1019 O 99.1715 0.693986 1.7526 0
M  V30 1020 C 96.2985 1.60008 2.98522 0
M  V30 1021 C 95.3445 2.80596 3.21198 0
M  V30 1022 S 96.1775 4.42038 3.02262 0
M  V30 1023 C 97.3335 4.41973 4.43182 0
M  V30 1024 H 97.5665 2.57296 1.4895 0
M  V30 1025 H 95.0995 1.39179 0.668477 0
M  V30 1026 H 97.0575 1.59112 3.78409 0
M  V30 1027 H 95.7185 0.667153 3.06933 0
M  V30 1028 H 94.9115 2.74952 4.22395 0
M  V30 1029 H 94.5135 2.79003 2.49065 0
M  V30 1030 H 96.8055 4.14868 5.35622 0
M  V30 1031 H 97.7485 5.43512 4.53873 0
M  V30 1032 H 98.1565 3.71812 4.24755 0
M  V30 1033 N 97.5546 -0.734337 1.39446 0
M  V30 1034 C 98.4646 -1.87879 1.40495 0
M  V30 1035 C 99.4806 -1.714 0.299672 0
M  V30 1036 O 100.657 -1.93991 0.541249 0
M  V30 1037 C 97.7216 -3.23477 1.24754 0
M  V30 1038 C 96.7826 -3.52344 2.45259 0
M  V30 1039 C 96.0156 -4.81473 2.30259 0
M  V30 1040 O 96.2386 -5.55237 1.30643 0
M  V30 1041 O 95.1726 -5.10254 3.19256 0
M  V30 1042 H 98.9986 -1.89949 2.36966 0
M  V30 1043 H 96.5836 -0.882243 1.20569 0
M  V30 1044 H 98.4656 -4.04509 1.18111 0
M  V30 1045 H 97.1406 -3.22176 0.313781 0
M  V30 1046 H 96.0476 -2.71396 2.57478 0
M  V30 1047 H 97.3806 -3.58426 3.37331 0
M  V30 1048 N 99.0327 -1.24633 -0.964593 0
M  V30 1049 C 100.282 -1.08188 -1.7023 0
M  V30 1050 C 100.595 0.37873 -1.91898 0
M  V30 1051 O 101.801 0.663427 -2.6327 0
M  V30 1052 C 100.257 -1.88773 -3.06419 0
M  V30 1053 C 99.8647 -3.39263 -2.92582 0
M  V30 1054 C 101.609 -1.80867 -3.84041 0
M  V30 1055 C 99.5157 -4.1218 -4.24101 0
M  V30 1056 H 98.4457 -0.401245 -0.638372 0
M  V30 1057 H 101.097 -1.48742 -1.07462 0
M  V30 1058 H 99.4787 -1.41035 -3.70034 0
M  V30 1059 H 100.653 -3.94603 -2.37961 0
M  V30 1060 H 98.9677 -3.48154 -2.28424 0
M  V30 1061 H 101.565 -2.32646 -4.81435 0
M  V30 1062 H 101.908 -0.774543 -4.09031 0
M  V30 1063 H 102.441 -2.26301 -3.27159 0
M  V30 1064 H 99.1797 -5.15965 -4.04303 0
M  V30 1065 H 98.6997 -3.61626 -4.78526 0
M  V30 1066 H 100.379 -4.19349 -4.92702 0
M  V30 1067 N 100.511 1.16574 -1.06058 0
M  V30 1068 C 101.741 1.90675 -0.795397 0
M  V30 1069 C 102.149 1.77547 0.653735 0
M  V30 1070 O 101.492 1.11611 1.45907 0
M  V30 1071 C 101.554 3.42011 -1.10764 0
M  V30 1072 C 101.218 3.78924 -2.55471 0
M  V30 1073 C 102.215 3.81042 -3.53699 0
M  V30 1074 C 99.8998 4.09626 -2.90708 0
M  V30 1075 C 101.894 4.13346 -4.85205 0
M  V30 1076 C 99.5808 4.41597 -4.22416 0
M  V30 1077 C 100.579 4.43436 -5.19474 0
M  V30 1078 O 100.267 4.74649 -6.48817 0
M  V30 1079 H 99.9988 0.611554 -0.288058 0
M  V30 1080 H 102.553 1.48711 -1.41683 0
M  V30 1081 H 100.783 3.84312 -0.429128 0
M  V30 1082 H 102.472 3.97384 -0.827077 0
M  V30 1083 H 103.238 3.57437 -3.27817 0
M  V30 1084 H 99.1168 4.07361 -2.15819 0
M  V30 1085 H 102.661 4.14696 -5.60957 0
M  V30 1086 H 98.5578 4.64667 -4.48056 0
M  V30 1087 H 99.3258 4.9247 -6.5377 0
M  V30 1088 N 101.989 0.842826 1.3317 0
M  V30 1089 C 103.217 0.454055 2.01856 0
M  V30 1090 C 103.632 -0.94587 1.63397 0
M  V30 1091 O 102.989 -1.61534 0.849302 0
M  V30 1092 C 103.04 0.569715 3.56982 0
M  V30 1093 O 102.761 1.91448 3.94055 0
M  V30 1094 C 104.262 0.178412 4.42941 0
M  V30 1095 H 101.482 0.17979 0.646465 0
M  V30 1096 H 104.026 1.1365 1.70012 0
M  V30 1097 H 102.181 -0.0648587 3.87346 0
M  V30 1098 H 102.595 1.90282 4.88767 0
M  V30 1099 H 104.069 0.310376 5.51127 0
M  V30 1100 H 104.546 -0.880056 4.30293 0
M  V30 1101 H 105.152 0.787579 4.17944 0
M  V30 1102 N 103.467 -1.45747 0.599634 0
M  V30 1103 C 104.715 -2.01893 0.0915472 0
M  V30 1104 C 105.036 -1.47155 -1.27946 0
M  V30 1105 O 104.306 -0.66273 -1.84349 0
M  V30 1106 H 102.886 -0.746363 0.0308524 0
M  V30 1107 H 105.548 -1.78645 0.779237 0
M  V30 1108 H 104.644 -3.1208 0.0353086 0
M  V30 1109 N 104.945 -0.338344 -1.53925 0
M  V30 1110 C 105.855 0.529421 -2.28548 0
M  V30 1111 C 106.871 1.11645 -1.3346 0
M  V30 1112 O 108.047 1.13325 -1.66492 0
M  V30 1113 C 105.112 1.66713 -3.03987 0
M  V30 1114 C 104.173 1.11041 -4.14691 0
M  V30 1115 C 103.406 2.19389 -4.86522 0
M  V30 1116 O 103.629 3.40013 -4.57982 0
M  V30 1117 O 102.563 1.83976 -5.73094 0
M  V30 1118 H 106.389 -0.0770399 -3.03602 0
M  V30 1119 H 103.974 -0.103555 -1.49041 0
M  V30 1120 H 105.856 2.32918 -3.5118 0
M  V30 1121 H 104.531 2.25949 -2.31794 0
M  V30 1122 H 103.438 0.413024 -3.71813 0
M  V30 1123 H 104.771 0.562975 -4.8897 0
M  V30 1124 N 106.423 1.57458 -0.0668435 0
M  V30 1125 C 107.37 2.12439 0.902122 0
M  V30 1126 C 108.34 1.03565 1.2986 0
M  V30 1127 O 109.525 1.312 1.38532 0
M  V30 1128 C 106.665 2.6865 2.16614 0
M  V30 1129 C 105.778 3.91663 1.82274 0
M  V30 1130 C 104.913 4.36134 3.0325 0
M  V30 1131 C 103.952 5.51808 2.64904 0
M  V30 1132 N 103.089 5.9126 3.78624 0
M  V30 1133 H 107.929 2.94934 0.426382 0
M  V30 1134 H 105.466 1.4575 0.198819 0
M  V30 1135 H 107.424 2.99346 2.90599 0
M  V30 1136 H 106.054 1.88928 2.61737 0
M  V30 1137 H 105.106 3.6746 0.983719 0
M  V30 1138 H 106.418 4.75693 1.50059 0
M  V30 1139 H 105.572 4.68465 3.85519 0
M  V30 1140 H 104.311 3.50948 3.38655 0
M  V30 1141 H 103.316 5.19133 1.81055 0
M  V30 1142 H 104.541 6.38722 2.30675 0
M  V30 1143 H 102.487 5.09024 4.138 0
M  V30 1144 H 102.404 6.70018 3.5016 0
M  V30 1145 H 103.672 6.28212 4.61486 0
M  V30 1146 N 107.901 -0.206675 1.56239 0
M  V30 1147 C 109.126 -0.949474 1.8439 0
M  V30 1148 C 109.551 -1.76549 0.649016 0
M  V30 1149 O 108.909 -1.76782 -0.402231 0
M  V30 1150 C 108.957 -1.83078 3.10668 0
M  V30 1151 O 108.061 -2.9281 2.90407 0
M  V30 1152 H 107.402 -0.268033 0.607499 0
M  V30 1153 H 109.932 -0.215488 2.03462 0
M  V30 1154 H 109.942 -2.2377 3.41161 0
M  V30 1155 H 108.617 -1.23112 3.97261 0
M  V30 1156 H 107.194 -2.55956 2.71184 0
M  V30 1157 N 109.379 -1.50304 -0.473955 0
M  V30 1158 C 110.607 -1.64902 -1.24959 0
M  V30 1159 C 111.022 -0.331198 -1.85872 0
M  V30 1160 O 110.379 0.68652 -1.69095 0
M  V30 1161 C 110.43 -2.73803 -2.36038 0
M  V30 1162 O 110.151 -4.00477 -1.77624 0
M  V30 1163 C 111.652 -2.99349 -3.26964 0
M  V30 1164 H 108.872 -0.554383 -0.378022 0
M  V30 1165 H 111.416 -1.9651 -0.566054 0
M  V30 1166 H 109.571 -2.44898 -3.00173 0
M  V30 1167 H 109.985 -4.60678 -2.5075 0
M  V30 1168 H 111.459 -3.79217 -4.01121 0
M  V30 1169 H 111.936 -2.10307 -3.85574 0
M  V30 1170 H 112.542 -3.29774 -2.68569 0
M  V30 1171 N 110.857 0.726932 -1.39834 0
M  V30 1172 C 111.789 1.85147 -1.35104 0
M  V30 1173 C 112.802 1.60736 -0.258392 0
M  V30 1174 O 113.991 1.70821 -0.517931 0
M  V30 1175 C 111.091 3.21332 -1.07697 0
M  V30 1176 C 110.264 3.73033 -2.28396 0
M  V30 1177 C 109.323 4.87802 -1.97322 0
M  V30 1178 O 108.349 5.01043 -2.70083 0
M  V30 1179 N 109.551 5.72768 -0.944273 0
M  V30 1180 H 112.316 1.89706 -2.32017 0
M  V30 1181 H 109.877 0.908006 -1.3404 0
M  V30 1182 H 111.869 3.95691 -0.849144 0
M  V30 1183 H 110.439 3.11992 -0.194909 0
M  V30 1184 H 109.659 2.89934 -2.6708 0
M  V30 1185 H 110.947 4.0431 -3.08887 0
M  V30 1186 H 110.345 5.64669 -0.341427 0
M  V30 1187 H 108.902 6.4716 -0.776346 0
M  V30 1188 N 112.336 1.25143 0.95797 0
M  V30 1189 C 113.582 1.09855 1.70469 0
M  V30 1190 C 113.915 -0.360187 1.90831 0
M  V30 1191 O 113.19 -1.26568 1.47685 0
M  V30 1192 C 113.473 1.8497 3.08963 0
M  V30 1193 C 113.326 3.38652 2.96032 0
M  V30 1194 C 114.645 1.63016 4.08795 0
M  V30 1195 H 111.764 0.400465 0.618706 0
M  V30 1196 H 114.406 1.53933 1.11376 0
M  V30 1197 H 112.556 1.47505 3.59409 0
M  V30 1198 H 114.228 3.85772 2.52938 0
M  V30 1199 H 112.471 3.66534 2.32025 0
M  V30 1200 H 113.142 3.8642 3.94187 0
M  V30 1201 H 115.618 1.95625 3.67247 0
M  V30 1202 H 114.494 2.18015 5.03747 0
M  V30 1203 H 114.755 0.570692 4.38401 0
M  V30 1204 N 113.814 -1.1601 1.06675 0
M  V30 1205 C 115.044 -1.90251 0.805497 0
M  V30 1206 C 115.452 -1.77891 -0.64431 0
M  V30 1207 O 114.795 -1.12383 -1.45313 0
M  V30 1208 C 114.857 -3.41419 1.12576 0
M  V30 1209 C 114.521 -3.77564 2.57477 0
M  V30 1210 C 115.518 -3.79161 3.55715 0
M  V30 1211 C 113.203 -4.08079 2.92877 0
M  V30 1212 C 115.197 -4.10767 4.8739 0
M  V30 1213 C 112.884 -4.39351 4.24751 0
M  V30 1214 C 113.882 -4.40675 5.21818 0
M  V30 1215 O 113.57 -4.71202 6.51325 0
M  V30 1216 H 113.302 -0.610018 0.291297 0
M  V30 1217 H 115.856 -1.47958 1.4247 0
M  V30 1218 H 114.086 -3.84079 0.449503 0
M  V30 1219 H 115.775 -3.9694 0.84814 0
M  V30 1220 H 116.541 -3.55693 3.29708 0
M  V30 1221 H 112.42 -4.06211 2.17976 0
M  V30 1222 H 115.964 -4.11715 5.63148 0
M  V30 1223 H 111.861 -4.62285 4.50514 0
M  V30 1224 H 112.629 -4.88996 6.56373 0
M  V30 1225 N 115.292 -0.849877 -1.32721 0
M  V30 1226 C 116.54 -0.450032 -1.97026 0
M  V30 1227 C 116.861 0.996604 -1.67609 0
M  V30 1228 O 116.131 1.6958 -0.980786 0
M  V30 1229 H 114.711 -0.163426 -0.728904 0
M  V30 1230 H 117.373 -1.08526 -1.6189 0
M  V30 1231 H 116.469 -0.591146 -3.0645 0
M  V30 1232 N 116.77 1.45427 -0.607355 0
M  V30 1233 C 117.702 2.2871 0.149752 0
M  V30 1234 C 118.715 1.39937 0.831958 0
M  V30 1235 O 119.904 1.64313 0.697385 0
M  V30 1236 C 117.004 3.15673 1.23304 0
M  V30 1237 C 116.177 4.32722 0.637996 0
M  V30 1238 C 115.236 5.00895 1.61215 0
M  V30 1239 O 114.262 5.57697 1.13854 0
M  V30 1240 N 115.464 5.00159 2.94655 0
M  V30 1241 H 118.229 2.94328 -0.564882 0
M  V30 1242 H 115.79 1.55612 -0.446823 0
M  V30 1243 H 117.782 3.58144 1.88454 0
M  V30 1244 H 116.352 2.51965 1.8502 0
M  V30 1245 H 115.572 3.93734 -0.191572 0
M  V30 1246 H 116.86 5.08321 0.220665 0
M  V30 1247 H 116.258 4.553 3.35735 0
M  V30 1248 H 114.815 5.46495 3.55228 0
M  V30 1249 N 118.248 0.346503 1.53744 0
M  V30 1250 C 119.525 -0.304532 1.93215 0
M  V30 1251 C 119.905 -1.67993 1.27834 0
M  V30 1252 O 119.253 -2.24411 0.430352 0
M  V30 1253 C 119.463 -0.373852 3.46992 0
M  V30 1254 C 120.811 -0.62329 4.2 0
M  V30 1255 O 121.835 -0.455847 3.53271 0
M  V30 1256 O 120.694 -0.947879 5.38217 0
M  V30 1257 H 117.788 -0.178318 0.807547 0
M  V30 1258 H 120.334 0.397895 1.64969 0
M  V30 1259 H 119.106 0.591224 3.86808 0
M  V30 1260 H 118.729 -1.12294 3.81413 0
M  V30 1261 N 119.726 -1.57421 0.075193 0
M  V30 1262 C 120.972 -1.93905 -0.594025 0
M  V30 1263 C 121.305 -0.955701 -1.69056 0
M  V30 1264 O 120.58 0.0145373 -1.94495 0
M  V30 1265 C 120.863 -3.40638 -1.1678 0
M  V30 1266 C 120.716 -4.49733 -0.0776792 0
M  V30 1267 C 122.035 -3.88259 -2.07228 0
M  V30 1268 H 119.154 -0.705105 -0.214466 0
M  V30 1269 H 121.796 -1.8947 0.141854 0
M  V30 1270 H 119.946 -3.44549 -1.79494 0
M  V30 1271 H 121.618 -4.57942 0.555573 0
M  V30 1272 H 119.861 -4.29751 0.591286 0
M  V30 1273 H 120.532 -5.49549 -0.519603 0
M  V30 1274 H 123.008 -3.86376 -1.54445 0
M  V30 1275 H 121.884 -4.91533 -2.44308 0
M  V30 1276 H 122.145 -3.26396 -2.98191 0
M  V30 1277 N 121.204 0.198386 -1.56346 0
M  V30 1278 C 122.45 0.916115 -1.81601 0
M  V30 1279 C 122.805 1.81025 -0.651744 0
M  V30 1280 O 122.098 1.88316 0.353229 0
M  V30 1281 C 122.292 1.77031 -3.10475 0
M  V30 1282 C 122.121 0.960365 -4.39326 0
M  V30 1283 C 120.891 0.646093 -5.01152 0
M  V30 1284 C 123.089 0.314628 -5.13337 0
M  V30 1285 N 121.071 -0.182828 -6.13628 0
M  V30 1286 C 122.442 -0.37664 -6.18855 0
M  V30 1287 C 124.497 0.230019 -4.97368 0
M  V30 1288 C 123.2 -1.14445 -7.10137 0
M  V30 1289 C 125.226 -0.524389 -5.89071 0
M  V30 1290 C 124.588 -1.20412 -6.94032 0
M  V30 1291 H 120.687 0.314732 -0.715868 0
M  V30 1292 H 123.271 0.185102 -1.93818 0
M  V30 1293 H 121.442 2.47295 -2.99499 0
M  V30 1294 H 123.174 2.42727 -3.2383 0
M  V30 1295 H 119.929 0.969724 -4.63566 0
M  V30 1296 H 120.353 -0.586802 -6.74452 0
M  V30 1297 H 124.995 0.741184 -4.16253 0
M  V30 1298 H 122.713 -1.66706 -7.90718 0
M  V30 1299 H 126.299 -0.591167 -5.78789 0
M  V30 1300 H 125.179 -1.77853 -7.63766 0
M  V30 1301 N 122.682 1.50554 0.465978 0
M  V30 1302 C 123.612 1.72722 1.57128 0
M  V30 1303 C 124.593 0.576294 1.6004 0
M  V30 1304 O 125.778 0.81598 1.76225 0
M  V30 1305 C 122.908 1.82605 2.95419 0
M  V30 1306 C 121.862 2.97835 3.07373 0
M  V30 1307 C 121.188 2.92867 4.47363 0
M  V30 1308 C 122.488 4.38265 2.84114 0
M  V30 1309 H 124.182 2.65267 1.38829 0
M  V30 1310 H 121.728 1.2765 0.666441 0
M  V30 1311 H 123.681 1.96698 3.72677 0
M  V30 1312 H 122.405 0.866858 3.14886 0
M  V30 1313 H 121.064 2.83401 2.3255 0
M  V30 1314 H 120.712 1.94783 4.63755 0
M  V30 1315 H 120.412 3.70227 4.56296 0
M  V30 1316 H 121.936 3.09015 5.26633 0
M  V30 1317 H 123.35 4.53198 3.51118 0
M  V30 1318 H 121.747 5.17115 3.04487 0
M  V30 1319 H 122.817 4.50281 1.7993 0
M  V30 1320 N 124.16 -0.719506 1.40217 0
M  V30 1321 C 125.571 -1.29848 1.34151 0
M  V30 1322 C 125.922 -1.96196 0.0131349 0
M  V30 1323 O 125.047 -1.973 -0.88892 0
M  V30 1324 C 125.642 -2.36118 2.42968 0
M  V30 1325 C 124.201 -2.8965 2.40374 0
M  V30 1326 C 123.348 -1.63393 2.24049 0
M  V30 1327 H 126.299 -0.51591 1.5008 0
M  V30 1328 H 126.32 -3.16871 2.10649 0
M  V30 1329 H 125.832 -1.878 3.39636 0
M  V30 1330 H 123.933 -3.42208 1.47392 0
M  V30 1331 H 124.046 -3.4171 3.35814 0
M  V30 1332 H 122.41 -1.88312 1.71495 0
M  V30 1333 H 123.193 -1.17104 3.2271 0
M  V30 1334 N 125.638 -1.25649 -0.95132 0
M  V30 1335 C 126.601 -1.06399 -2.03007 0
M  V30 1336 C 127.601 -0.0156794 -1.60792 0
M  V30 1337 O 128.791 -0.25817 -1.72276 0
M  V30 1338 C 125.923 -0.616184 -3.35285 0
M  V30 1339 H 127.116 -2.02164 -2.21517 0
M  V30 1340 H 124.669 -1.08103 -1.12887 0
M  V30 1341 H 125.404 0.343917 -3.22471 0
M  V30 1342 H 125.189 -1.37301 -3.67275 0
M  V30 1343 H 126.679 -0.503032 -4.14559 0
M  V30 1344 N 127.117 1.15442 -1.07289 0
M  V30 1345 C 128.027 2.23786 -0.704057 0
M  V30 1346 C 129.043 1.7166 0.284413 0
M  V30 1347 O 130.219 2.00972 0.131205 0
M  V30 1348 C 127.284 3.46535 -0.106792 0
M  V30 1349 C 126.345 4.13654 -1.14842 0
M  V30 1350 C 125.578 5.30544 -0.57956 0
M  V30 1351 O 125.801 5.67187 0.604585 0
M  V30 1352 O 124.735 5.87154 -1.32414 0
M  V30 1353 H 128.561 2.57664 -1.60757 0
M  V30 1354 H 126.146 1.23152 -0.845803 0
M  V30 1355 H 128.028 4.20804 0.224048 0
M  V30 1356 H 126.703 3.14407 0.770049 0
M  V30 1357 H 125.61 3.4131 -1.5316 0
M  V30 1358 H 126.943 4.49861 -1.99714 0
M  V30 1359 N 128.595 0.856903 1.32268 0
M  V30 1360 C 129.823 0.475439 2.01363 0
M  V30 1361 C 130.238 -0.928486 1.64392 0
M  V30 1362 O 129.595 -1.60624 0.866387 0
M  V30 1363 C 129.646 0.607545 3.56358 0
M  V30 1364 O 129.367 1.95617 3.92002 0
M  V30 1365 C 130.868 0.225382 4.42727 0
M  V30 1366 H 128.088 0.186636 0.644521 0
M  V30 1367 H 130.632 1.15446 1.68797 0
M  V30 1368 H 128.787 -0.0237719 3.87393 0
M  V30 1369 H 129.201 1.95455 4.86721 0
M  V30 1370 H 130.675 0.368813 5.50767 0
M  V30 1371 H 131.152 -0.834369 4.31202 0
M  V30 1372 H 131.758 0.831864 4.17085 0
M  V30 1373 N 130.073 -1.45103 0.615059 0
M  V30 1374 C 131.003 -2.33339 -0.0865619 0
M  V30 1375 C 131.984 -1.4727 -0.851209 0
M  V30 1376 O 133.169 -1.76026 -0.820281 0
M  V30 1377 C 130.299 -3.30095 -1.07956 0
M  V30 1378 C 129.253 -4.25858 -0.427628 0
M  V30 1379 C 128.579 -5.12361 -1.5294 0
M  V30 1380 C 129.879 -5.18165 0.655944 0
M  V30 1381 H 131.573 -2.92254 0.650224 0
M  V30 1382 H 129.119 -1.40532 0.314138 0
M  V30 1383 H 131.072 -3.90698 -1.57901 0
M  V30 1384 H 129.796 -2.69355 -1.84703 0
M  V30 1385 H 128.455 -3.66564 0.0510292 0
M  V30 1386 H 128.103 -4.47984 -2.28734 0
M  V30 1387 H 127.803 -5.77238 -1.09865 0
M  V30 1388 H 129.327 -5.75833 -2.03098 0
M  V30 1389 H 130.741 -5.72796 0.240257 0
M  V30 1390 H 129.138 -5.91559 1.00888 0
M  V30 1391 H 130.208 -4.60144 1.52957 0
M  V30 1392 N 131.551 -0.354651 -1.53558 0
M  V30 1393 C 132.828 0.294281 -1.93374 0
M  V30 1394 C 133.208 1.67313 -1.28723 0
M  V30 1395 O 132.556 2.24179 -0.442247 0
M  V30 1396 C 132.766 0.355445 -3.47185 0
M  V30 1397 C 134.114 0.601007 -4.20325 0
M  V30 1398 O 135.138 0.437106 -3.53508 0
M  V30 1399 O 133.997 0.919322 -5.38712 0
M  V30 1400 H 131.091 0.174033 -0.808481 0
M  V30 1401 H 133.637 -0.406638 -1.64756 0
M  V30 1402 H 132.409 -0.611729 -3.86489 0
M  V30 1403 H 132.032 1.1027 -3.82003 0
M  V30 1404 N 133.029 1.57378 -0.0835403 0
M  V30 1405 C 133.959 2.1641 0.87686 0
M  V30 1406 C 134.94 1.09429 1.30228 0
M  V30 1407 O 136.125 1.37516 1.37124 0
M  V30 1408 C 133.255 2.73517 2.14022 0
M  V30 1409 C 132.209 3.85769 1.85381 0
M  V30 1410 C 131.535 4.29529 3.18448 0
M  V30 1411 C 132.835 5.09486 1.14984 0
M  V30 1412 H 134.529 2.96914 0.385059 0
M  V30 1413 H 132.075 1.42823 0.18377 0
M  V30 1414 H 134.028 3.13463 2.81636 0
M  V30 1415 H 132.752 1.90252 2.65465 0
M  V30 1416 H 131.411 3.46345 1.20169 0
M  V30 1417 H 131.059 3.43169 3.67755 0
M  V30 1418 H 130.759 5.05204 3.00071 0
M  V30 1419 H 132.283 4.72099 3.8724 0
M  V30 1420 H 133.697 5.46674 1.72687 0
M  V30 1421 H 132.094 5.90515 1.06826 0
M  V30 1422 H 133.164 4.84724 0.130749 0
M  V30 1423 N 134.507 -0.190092 1.56449 0
M  V30 1424 C 135.756 -0.907912 1.80111 0
M  V30 1425 C 136.069 -1.84214 0.657619 0
M  V30 1426 O 137.275 -2.60094 0.778663 0
M  V30 1427 C 135.731 -1.66485 3.19078 0
M  V30 1428 C 135.339 -0.7752 4.41242 0
M  V30 1429 C 137.083 -2.37201 3.52045 0
M  V30 1430 C 134.99 -1.53129 5.71231 0
M  V30 1431 H 133.92 -0.34276 0.671589 0
M  V30 1432 H 136.571 -0.161109 1.82791 0
M  V30 1433 H 134.953 -2.45572 3.10661 0
M  V30 1434 H 136.127 -0.0226298 4.60794 0
M  V30 1435 H 134.442 -0.178627 4.16017 0
M  V30 1436 H 137.039 -2.94329 4.46402 0
M  V30 1437 H 137.382 -3.11632 2.76028 0
M  V30 1438 H 137.915 -1.65075 3.61932 0
M  V30 1439 H 134.654 -0.82967 6.50228 0
M  V30 1440 H 134.174 -2.25767 5.55688 0
M  V30 1441 H 135.853 -2.08377 6.12526 0
M  V30 1442 N 135.985 -1.50799 -0.457987 0
M  V30 1443 C 137.401 -1.38515 -0.792819 0
M  V30 1444 C 137.601 -0.451409 -1.96379 0
M  V30 1445 O 136.657 0.10112 -2.52297 0
M  V30 1446 C 137.97 -2.80149 -1.09258 0
M  V30 1447 C 139.518 -2.89156 -1.19825 0
M  V30 1448 C 139.993 -4.31651 -1.53106 0
M  V30 1449 N 141.484 -4.34662 -1.60072 0
M  V30 1450 C 142.219 -5.41928 -1.87354 0
M  V30 1451 N 141.715 -6.59384 -2.12568 0
M  V30 1452 N 143.508 -5.29385 -1.88965 0
M  V30 1453 H 135.659 -2.10073 0.313511 0
M  V30 1454 H 137.922 -0.944803 0.0777862 0
M  V30 1455 H 137.628 -3.50374 -0.305084 0
M  V30 1456 H 137.502 -3.18204 -2.02549 0
M  V30 1457 H 139.889 -2.19141 -1.97639 0
M  V30 1458 H 139.97 -2.54626 -0.244821 0
M  V30 1459 H 139.614 -5.02208 -0.758266 0
M  V30 1460 H 139.544 -4.63678 -2.49621 0
M  V30 1461 H 142.035 -3.49973 -1.42573 0
M  V30 1462 H 142.348 -7.36934 -2.32696 0
M  V30 1463 H 140.693 -6.62535 -2.09933 0
M  V30 1464 H 143.884 -4.36616 -1.68772 0
M  V30 1465 H 144.057 -6.13066 -2.09891 0
M  V30 1466 N 137.463 0.71206 -1.40597 0
M  V30 1467 C 138.373 1.8562 -1.43466 0
M  V30 1468 C 139.389 1.70902 -0.326902 0
M  V30 1469 O 140.565 1.93105 -0.572043 0
M  V30 1470 C 137.63 3.21451 -1.29884 0
M  V30 1471 C 136.691 3.48398 -2.50833 0
M  V30 1472 C 135.924 4.77749 -2.3789 0
M  V30 1473 O 136.147 5.53089 -1.39459 0
M  V30 1474 O 135.081 5.05111 -3.27333 0
M  V30 1475 H 138.907 1.86155 -2.39958 0
M  V30 1476 H 136.492 0.86295 -1.21957 0
M  V30 1477 H 138.374 4.02579 -1.24531 0
M  V30 1478 H 137.049 3.21636 -0.364997 0
M  V30 1479 H 135.956 2.67265 -2.61763 0
M  V30 1480 H 137.289 3.53014 -3.4299 0
M  V30 1481 N 138.941 1.26152 0.944643 0
M  V30 1482 C 140.171 1.14094 1.72239 0
M  V30 1483 C 140.579 -0.306931 1.86694 0
M  V30 1484 O 139.922 -1.22222 1.3714 0
M  V30 1485 C 139.984 1.73316 3.14963 0
M  V30 1486 C 139.648 3.2239 3.23904 0
M  V30 1487 C 140.645 4.19252 3.07447 0
M  V30 1488 C 138.33 3.62788 3.47405 0
M  V30 1489 C 140.324 5.54491 3.14353 0
M  V30 1490 C 138.011 4.98162 3.53947 0
M  V30 1491 C 139.009 5.93823 3.37436 0
M  V30 1492 O 138.697 7.26732 3.43679 0
M  V30 1493 H 138.429 0.398292 0.546205 0
M  V30 1494 H 140.983 1.67201 1.19301 0
M  V30 1495 H 139.213 1.14667 3.69308 0
M  V30 1496 H 140.902 1.56214 3.74636 0
M  V30 1497 H 141.668 3.8938 2.8915 0
M  V30 1498 H 137.547 2.88816 3.59313 0
M  V30 1499 H 141.091 6.29137 3.01384 0
M  V30 1500 H 136.988 5.27695 3.71763 0
M  V30 1501 H 137.756 7.3496 3.60245 0
M  V30 1502 N 140.419 -1.14872 1.07899 0
M  V30 1503 C 141.835 -1.37776 0.805606 0
M  V30 1504 C 142.035 -1.92743 -0.587555 0
M  V30 1505 O 141.091 -2.13678 -1.34528 0
M  V30 1506 C 142.404 -2.34361 1.88402 0
M  V30 1507 C 143.952 -2.48012 1.90942 0
M  V30 1508 C 144.427 -3.47893 2.97883 0
M  V30 1509 N 145.918 -3.55433 2.97021 0
M  V30 1510 C 146.653 -4.32553 3.76412 0
M  V30 1511 N 146.149 -5.12959 4.65666 0
M  V30 1512 N 147.942 -4.27697 3.64735 0
M  V30 1513 H 140.093 -0.775365 1.97742 0
M  V30 1514 H 142.356 -0.403521 0.857831 0
M  V30 1515 H 142.062 -2.01098 2.88535 0
M  V30 1516 H 141.936 -3.34206 1.74889 0
M  V30 1517 H 144.323 -2.8057 0.914579 0
M  V30 1518 H 144.404 -1.48147 2.08534 0
M  V30 1519 H 144.048 -3.16069 3.97571 0
M  V30 1520 H 143.978 -4.47527 2.77538 0
M  V30 1521 H 146.469 -2.98048 2.32326 0
M  V30 1522 H 146.782 -5.69065 5.22862 0
M  V30 1523 H 145.127 -5.12245 4.69712 0
M  V30 1524 H 148.318 -3.63949 2.94378 0
M  V30 1525 H 148.491 -4.8755 4.26848 0
M  V30 1526 N 141.898 -0.863906 -1.31812 0
M  V30 1527 C 143.144 -0.472535 -1.97218 0
M  V30 1528 C 143.477 0.971394 -1.68159 0
M  V30 1529 O 142.752 1.68309 -0.974798 0
M  V30 1530 C 143.035 -0.723054 -3.52766 0
M  V30 1531 C 142.888 -2.21608 -3.91421 0
M  V30 1532 C 144.207 -0.185522 -4.39709 0
M  V30 1533 H 141.326 -0.173158 -0.71637 0
M  V30 1534 H 143.968 -1.08403 -1.56041 0
M  V30 1535 H 142.118 -0.202577 -3.87971 0
M  V30 1536 H 143.79 -2.80334 -3.66347 0
M  V30 1537 H 142.033 -2.691 -3.40246 0
M  V30 1538 H 142.704 -2.34203 -4.99853 0
M  V30 1539 H 145.18 -0.630726 -4.11292 0
M  V30 1540 H 144.056 -0.390306 -5.47511 0
M  V30 1541 H 144.317 0.912229 -4.32586 0
M  V30 1542 N 143.376 1.44774 -0.622745 0
M  V30 1543 C 144.339 2.29069 0.0774015 0
M  V30 1544 C 145.339 1.4059 0.780461 0
M  V30 1545 O 146.529 1.62551 0.626322 0
M  V30 1546 C 143.661 3.21974 1.12006 0
M  V30 1547 H 144.854 2.92459 -0.663901 0
M  V30 1548 H 142.407 1.51548 -0.382486 0
M  V30 1549 H 143.142 2.63417 1.89162 0
M  V30 1550 H 142.927 3.87168 0.619951 0
M  V30 1551 H 144.417 3.85318 1.60995 0
M  V30 1552 N 144.854 0.36279 1.53368 0
M  V30 1553 C 146.103 -0.22888 2.00397 0
M  V30 1554 C 146.416 -1.50096 1.25421 0
M  V30 1555 O 147.622 -2.17106 1.63025 0
M  V30 1556 C 146.078 -0.458417 3.56969 0
M  V30 1557 C 145.686 0.798877 4.4082 0
M  V30 1558 C 147.43 -1.00789 4.12361 0
M  V30 1559 C 145.337 0.539078 5.88938 0
M  V30 1560 H 144.267 -0.089305 0.748693 0
M  V30 1561 H 146.918 0.481099 1.77081 0
M  V30 1562 H 145.3 -1.22959 3.76427 0
M  V30 1563 H 146.474 1.57262 4.33134 0
M  V30 1564 H 144.789 1.27137 3.96516 0
M  V30 1565 H 147.386 -1.21754 5.20653 0
M  V30 1566 H 147.729 -1.9692 3.66781 0
M  V30 1567 H 148.262 -0.296961 3.9669 0
M  V30 1568 H 145.001 1.47064 6.3879 0
M  V30 1569 H 144.521 -0.196222 5.99479 0
M  V30 1570 H 146.2 0.163542 6.46793 0
M  V30 1571 N 146.332 -1.57332 0.0918853 0
M  V30 1572 C 147.279 -2.13847 -0.868211 0
M  V30 1573 C 148.249 -1.05618 -1.28196 0
M  V30 1574 O 149.434 -1.33387 -1.36427 0
M  V30 1575 C 146.574 -2.72062 -2.12312 0
M  V30 1576 C 145.687 -3.94514 -1.7602 0
M  V30 1577 C 144.822 -4.40903 -2.96273 0
M  V30 1578 C 143.861 -5.55953 -2.56092 0
M  V30 1579 N 142.998 -5.97209 -3.69169 0
M  V30 1580 H 147.838 -2.95575 -0.379406 0
M  V30 1581 H 145.375 -1.46048 -0.175606 0
M  V30 1582 H 147.333 -3.03931 -2.858 0
M  V30 1583 H 145.963 -1.93068 -2.58698 0
M  V30 1584 H 145.015 -3.68979 -0.925135 0
M  V30 1585 H 146.327 -4.7802 -1.42472 0
M  V30 1586 H 145.481 -4.74539 -3.78018 0
M  V30 1587 H 144.22 -3.56291 -3.33029 0
M  V30 1588 H 143.225 -5.21948 -1.72773 0
M  V30 1589 H 144.45 -6.42311 -2.20484 0
M  V30 1590 H 142.396 -5.15543 -4.05649 0
M  V30 1591 H 142.313 -6.75504 -3.39456 0
M  V30 1592 H 143.581 -6.35475 -4.51434 0
M  V30 1593 N 147.81 0.181792 -1.56548 0
M  V30 1594 C 149.058 0.89832 -1.81038 0
M  V30 1595 C 149.379 1.83232 -0.667164 0
M  V30 1596 O 148.649 1.93372 0.313673 0
M  V30 1597 H 147.229 0.33471 -0.667816 0
M  V30 1598 H 149.891 0.184116 -1.94028 0
M  V30 1599 H 148.987 1.4815 -2.74696 0
M  V30 1600 N 149.288 1.51039 0.449983 0
M  V30 1601 C 150.699 1.557 1.03026 0
M  V30 1602 C 151.05 0.372939 1.92623 0
M  V30 1603 O 150.175 -0.511771 2.10261 0
M  V30 1604 C 150.77 2.82171 1.87523 0
M  V30 1605 C 149.329 2.89444 2.40622 0
M  V30 1606 C 148.476 2.50228 1.19504 0
M  V30 1607 H 151.427 1.56999 0.231745 0
M  V30 1608 H 151.448 2.65219 2.72835 0
M  V30 1609 H 150.96 3.68331 1.22286 0
M  V30 1610 H 149.061 2.07685 3.0935 0
M  V30 1611 H 149.174 3.92816 2.74285 0
M  V30 1612 H 147.538 2.03139 1.53644 0
M  V30 1613 H 148.321 3.38719 0.558972 0
M  V30 1614 N 150.766 -0.704594 1.40972 0
M  V30 1615 C 151.696 -1.83124 1.44872 0
M  V30 1616 C 152.677 -1.67281 0.30838 0
M  V30 1617 O 153.862 -1.87149 0.518556 0
M  V30 1618 C 150.992 -3.21181 1.32136 0
M  V30 1619 C 149.946 -3.51714 2.43888 0
M  V30 1620 C 149.272 -4.89032 2.16222 0
M  V30 1621 C 150.572 -3.516 3.86232 0
M  V30 1622 H 152.266 -1.80117 2.39161 0
M  V30 1623 H 149.812 -0.865145 1.15114 0
M  V30 1624 H 151.765 -3.99702 1.33479 0
M  V30 1625 H 150.489 -3.24791 0.343279 0
M  V30 1626 H 149.148 -2.75539 2.41813 0
M  V30 1627 H 148.796 -4.89256 1.16778 0
M  V30 1628 H 148.496 -5.10426 2.911 0
M  V30 1629 H 150.02 -5.69873 2.19265 0
M  V30 1630 H 151.434 -4.2014 3.9007 0
M  V30 1631 H 149.831 -3.84523 4.60719 0
M  V30 1632 H 150.901 -2.50757 4.15029 0
M  V30 1633 N 152.244 -1.26651 -0.937939 0
M  V30 1634 C 153.472 -1.15173 -1.7188 0
M  V30 1635 C 153.887 0.292668 -1.86518 0
M  V30 1636 O 153.244 1.20014 -1.37488 0
M  V30 1637 C 153.295 -1.81925 -3.12387 0
M  V30 1638 O 153.016 -3.2072 -2.98446 0
M  V30 1639 C 154.517 -1.76442 -4.06673 0
M  V30 1640 H 151.737 -0.400911 -0.538063 0
M  V30 1641 H 154.281 -1.67332 -1.1756 0
M  V30 1642 H 152.436 -1.33696 -3.63599 0
M  V30 1643 H 152.85 -3.53802 -3.872 0
M  V30 1644 H 154.324 -2.27781 -5.02812 0
M  V30 1645 H 154.801 -0.731608 -4.33064 0
M  V30 1646 H 155.407 -2.24238 -3.61382 0
M  V30 1647 N 153.722 1.14298 -1.08507 0
M  V30 1648 C 154.95 1.89219 -0.836876 0
M  V30 1649 C 155.365 1.78638 0.611054 0
M  V30 1650 O 154.722 1.14643 1.41998 0
M  V30 1651 C 154.773 3.39158 -1.25116 0
M  V30 1652 O 154.494 3.49449 -2.64229 0
M  V30 1653 C 155.995 4.31073 -1.03398 0
M  V30 1654 H 153.215 0.599328 -0.301739 0
M  V30 1655 H 155.759 1.44746 -1.44461 0
M  V30 1656 H 153.914 3.81251 -0.687514 0
M  V30 1657 H 154.328 4.42589 -2.81452 0
M  V30 1658 H 155.802 5.34646 -1.37323 0
M  V30 1659 H 156.279 4.3919 0.0289259 0
M  V30 1660 H 156.885 3.94738 -1.58311 0
M  V30 1661 N 155.201 0.870884 1.31352 0
M  V30 1662 C 156.612 0.534714 1.78879 0
M  V30 1663 C 156.963 -0.948423 1.71754 0
M  V30 1664 O 156.088 -1.74055 1.28584 0
M  V30 1665 C 156.683 0.963839 3.24801 0
M  V30 1666 C 155.242 0.679311 3.70219 0
M  V30 1667 C 154.389 1.15465 2.52117 0
M  V30 1668 H 157.34 1.05651 1.18421 0
M  V30 1669 H 157.361 0.286892 3.79417 0
M  V30 1670 H 156.873 2.04332 3.29955 0
M  V30 1671 H 154.974 -0.388769 3.70566 0
M  V30 1672 H 155.087 1.25698 4.62317 0
M  V30 1673 H 153.451 0.574383 2.48139 0
M  V30 1674 H 154.234 2.24157 2.60016 0
M  V30 1675 N 156.679 -1.44442 0.630414 0
M  V30 1676 C 157.925 -2.02351 0.134816 0
M  V30 1677 C 158.258 -1.4947 -1.23986 0
M  V30 1678 O 157.533 -0.678475 -1.82283 0
M  V30 1679 C 157.816 -3.59898 0.120707 0
M  V30 1680 C 157.669 -4.23063 1.52767 0
M  V30 1681 C 158.988 -4.36585 -0.555127 0
M  V30 1682 H 156.107 -0.73527 0.0504646 0
M  V30 1683 H 158.749 -1.72022 0.806751 0
M  V30 1684 H 156.899 -3.85868 -0.451477 0
M  V30 1685 H 158.571 -4.08202 2.14869 0
M  V30 1686 H 156.814 -3.80586 2.08175 0
M  V30 1687 H 157.485 -5.32071 1.46984 0
M  V30 1688 H 159.961 -4.16044 -0.0685429 0
M  V30 1689 H 158.837 -5.46294 -0.534185 0
M  V30 1690 H 159.098 -4.11138 -1.62535 0
M  V30 1691 N 158.157 -0.370918 -1.53173 0
M  V30 1692 C 159.405 0.216673 -2.00935 0
M  V30 1693 C 159.726 1.48845 -1.25977 0
M  V30 1694 O 158.996 1.92286 -0.374551 0
M  V30 1695 H 157.576 0.0830565 -0.742368 0
M  V30 1696 H 160.238 -0.49838 -1.8842 0
M  V30 1697 H 159.334 0.439893 -3.08984 0
M  V30 1698 N 159.635 1.57281 -0.100228 0
M  V30 1699 C 160.883 1.94153 0.561157 0
M  V30 1700 C 161.204 0.983157 1.68401 0
M  V30 1701 O 160.474 0.0361132 1.95867 0
M  V30 1702 H 159.054 0.716791 0.210283 0
M  V30 1703 H 161.716 1.94202 -0.164765 0
M  V30 1704 H 160.812 2.96709 0.968008 0
M  V30 1705 N 161.113 -0.173488 1.56642 0
M  V30 1706 C 162.361 -0.888706 1.81512 0
M  V30 1707 C 162.682 -1.82875 0.676872 0
M  V30 1708 O 161.952 -1.93536 -0.303414 0
M  V30 1709 H 160.532 -0.331164 0.669582 0
M  V30 1710 H 163.194 -0.173823 1.94123 0
M  V30 1711 H 162.29 -1.46691 2.75478 0
M  V30 1712 N 162.591 -1.51276 -0.441967 0
M  V30 1713 C 163.84 -1.6295 -1.18871 0
M  V30 1714 C 164.153 -0.349312 -1.92456 0
M  V30 1715 O 165.359 -0.345355 -2.69295 0
M  V30 1716 C 163.815 -2.87759 -2.16155 0
M  V30 1717 C 163.423 -4.22764 -1.48239 0
M  V30 1718 C 165.167 -3.08788 -2.91291 0
M  V30 1719 C 163.074 -5.38728 -2.4398 0
M  V30 1720 H 162.004 -0.606913 -0.447406 0
M  V30 1721 H 164.655 -1.77739 -0.456205 0
M  V30 1722 H 163.037 -2.66593 -2.92821 0
M  V30 1723 H 164.211 -4.54293 -0.771635 0
M  V30 1724 H 162.526 -4.07575 -0.852741 0
M  V30 1725 H 165.123 -3.92599 -3.63002 0
M  V30 1726 H 165.466 -2.21679 -3.5237 0
M  V30 1727 H 165.999 -3.30272 -2.21733 0
M  V30 1728 H 162.738 -6.28082 -1.87598 0
M  V30 1729 H 162.258 -5.1158 -3.13123 0
M  V30 1730 H 163.937 -5.70489 -3.05207 0
M  V30 1731 N 164.069 0.697108 -1.41344 0
M  V30 1732 C 165.485 1.00751 -1.2378 0
M  V30 1733 C 165.685 2.01105 -0.126066 0
M  V30 1734 O 164.741 2.47295 0.51004 0
M  V30 1735 C 166.054 1.53359 -2.58653 0
M  V30 1736 C 167.602 1.6525 -2.65822 0
M  V30 1737 C 168.077 2.2126 -4.01009 0
M  V30 1738 N 169.568 2.28622 -4.02847 0
M  V30 1739 C 170.303 2.72984 -5.04249 0
M  V30 1740 N 169.799 3.16962 -6.16041 0
M  V30 1741 N 171.592 2.72534 -4.91611 0
M  V30 1742 H 163.743 0.0322662 -2.12375 0
M  V30 1743 H 166.006 0.0768853 -0.944877 0
M  V30 1744 H 165.712 0.870773 -3.4075 0
M  V30 1745 H 165.586 2.51597 -2.81032 0
M  V30 1746 H 167.973 2.30644 -1.84086 0
M  V30 1747 H 168.054 0.655614 -2.47256 0
M  V30 1748 H 167.698 1.56482 -4.83193 0
M  V30 1749 H 167.628 3.21698 -4.16915 0
M  V30 1750 H 170.119 1.97585 -3.22131 0
M  V30 1751 H 170.432 3.49434 -6.89287 0
M  V30 1752 H 168.777 3.14875 -6.1958 0
M  V30 1753 H 171.968 2.37525 -4.0336 0
M  V30 1754 H 172.141 3.06789 -5.70775 0
M  V30 1755 N 165.547 1.27147 0.931209 0
M  V30 1756 C 166.772 1.16191 1.71797 0
M  V30 1757 C 167.197 -0.278004 1.86034 0
M  V30 1758 O 166.555 -1.20137 1.35782 0
M  V30 1759 C 166.603 1.84673 3.09723 0
M  V30 1760 O 165.707 1.14231 3.96264 0
M  V30 1761 H 165.048 0.404303 0.526721 0
M  V30 1762 H 167.578 1.68152 1.1656 0
M  V30 1763 H 167.588 1.91893 3.60057 0
M  V30 1764 H 166.263 2.89421 2.98677 0
M  V30 1765 H 164.84 1.15056 3.54706 0
M  V30 1766 N 167.025 -1.13721 1.09112 0
M  V30 1767 C 167.955 -2.21148 0.749385 0
M  V30 1768 C 168.936 -1.6792 -0.271475 0
M  V30 1769 O 170.121 -1.93693 -0.140251 0
M  V30 1770 C 167.251 -3.46905 0.165659 0
M  V30 1771 C 166.205 -4.13203 1.11567 0
M  V30 1772 C 165.531 -5.33248 0.393809 0
M  V30 1773 C 166.831 -4.60912 2.45678 0
M  V30 1774 H 168.525 -2.4999 1.64758 0
M  V30 1775 H 166.071 -1.20156 0.793626 0
M  V30 1776 H 168.024 -4.21313 -0.085466 0
M  V30 1777 H 166.748 -3.17449 -0.767714 0
M  V30 1778 H 165.407 -3.40758 1.35202 0
M  V30 1779 H 165.055 -5.00054 -0.543599 0
M  V30 1780 H 164.755 -5.78552 1.02721 0
M  V30 1781 H 166.279 -6.10413 0.150908 0
M  V30 1782 H 167.693 -5.26759 2.26269 0
M  V30 1783 H 166.09 -5.16944 3.04776 0
M  V30 1784 H 167.16 -3.75603 3.06677 0
M  V30 1785 N 168.503 -0.877838 -1.30888 0
M  V30 1786 C 169.451 -0.328662 -2.30266 0
M  V30 1787 C 170.445 0.560496 -1.59859 0
M  V30 1788 O 171.651 0.445722 -1.74394 0
M  V30 1789 H 168.026 -0.0876142 -0.746879 0
M  V30 1790 H 169.997 -1.18061 -2.74051 0
M  V30 1791 C 168.746 0.448071 -3.44801 0
M  V30 1792 H 168.069 -0.226859 -3.99156 0
M  V30 1793 H 169.509 0.797541 -4.16432 0
M  V30 1794 C 167.968 1.64239 -2.94155 0
M  V30 1795 O 168.498 2.74175 -2.93583 0
M  V30 1796 N 166.704 1.47716 -2.50256 0
M  V30 1797 H 166.251 0.582821 -2.5092 0
M  V30 1798 H 166.209 2.27765 -2.16727 0
M  V30 1799 N 169.982 1.44106 -0.638065 0
M  V30 1800 C 171.228 2.02277 -0.145546 0
M  V30 1801 C 171.561 1.50125 1.23191 0
M  V30 1802 O 170.836 0.688133 1.8192 0
M  V30 1803 C 171.119 3.59829 -0.139791 0
M  V30 1804 C 170.972 4.22247 -1.55008 0
M  V30 1805 C 172.291 4.36873 0.531966 0
M  V30 1806 H 169.41 0.734992 -0.0543632 0
M  V30 1807 H 172.052 1.71592 -0.815863 0
M  V30 1808 H 170.202 3.86102 0.431007 0
M  V30 1809 H 171.874 4.07057 -2.1703 0
M  V30 1810 H 170.117 3.79476 -2.10191 0
M  V30 1811 H 170.788 5.31284 -1.49804 0
M  V30 1812 H 173.264 4.16074 0.0464781 0
M  V30 1813 H 172.14 5.4657 0.505206 0
M  V30 1814 H 172.401 4.11995 1.60352 0
M  V30 1815 N 171.46 0.379036 1.52974 0
M  V30 1816 C 172.423 -0.448865 2.24762 0
M  V30 1817 C 173.423 -0.998689 1.26027 0
M  V30 1818 O 174.613 -0.882313 1.50203 0
M  V30 1819 C 171.745 -1.62872 2.99476 0
M  V30 1820 H 172.938 0.179491 2.99362 0
M  V30 1821 H 170.491 0.13096 1.5575 0
M  V30 1822 H 171.226 -2.29479 2.29151 0
M  V30 1823 H 171.011 -1.24128 3.71934 0
M  V30 1824 H 172.501 -2.2151 3.5401 0
M  V30 1825 N 172.938 -1.57226 0.108567 0
M  V30 1826 C 173.868 -2.17778 -0.84232 0
M  V30 1827 C 174.849 -1.11487 -1.2847 0
M  V30 1828 O 176.034 -1.39681 -1.34918 0
M  V30 1829 C 173.164 -2.76888 -2.09644 0
M  V30 1830 C 172.118 -3.88669 -1.79221 0
M  V30 1831 C 171.444 -4.34541 -3.11574 0
M  V30 1832 C 172.744 -5.11251 -1.06864 0
M  V30 1833 H 174.438 -2.97489 -0.337774 0
M  V30 1834 H 171.984 -1.43097 -0.161025 0
M  V30 1835 H 173.937 -3.17904 -2.76614 0
M  V30 1836 H 172.661 -1.94451 -2.62405 0
M  V30 1837 H 171.32 -3.48213 -1.14644 0
M  V30 1838 H 170.968 -3.48977 -3.62249 0
M  V30 1839 H 170.668 -5.09914 -2.91996 0
M  V30 1840 H 172.192 -4.782 -3.7968 0
M  V30 1841 H 173.606 -5.49352 -1.63968 0
M  V30 1842 H 172.003 -5.9214 -0.974178 0
M  V30 1843 H 173.073 -4.8487 -0.0536168 0
M  V30 1844 N 174.416 0.165178 -1.56732 0
M  V30 1845 C 175.832 0.517174 -1.50988 0
M  V30 1846 C 176.032 1.84331 -0.813894 0
M  V30 1847 O 175.088 2.49672 -0.37682 0
M  V30 1848 C 176.401 0.544261 -2.95733 0
M  V30 1849 C 177.949 0.631039 -3.06573 0
M  V30 1850 C 178.424 0.68896 -4.52788 0
M  V30 1851 N 179.915 0.751683 -4.5706 0
M  V30 1852 C 180.65 0.817177 -5.67547 0
M  V30 1853 N 180.146 0.843129 -6.8765 0
M  V30 1854 N 181.939 0.856668 -5.55534 0
M  V30 1855 H 174.09 -0.704318 -2.00382 0
M  V30 1856 H 176.353 -0.254687 -0.913148 0
M  V30 1857 H 176.059 -0.361607 -3.49836 0
M  V30 1858 H 175.933 1.3886 -3.5071 0
M  V30 1859 H 178.32 1.52733 -2.52501 0
M  V30 1860 H 178.401 -0.240095 -2.54671 0
M  V30 1861 H 178.045 -0.2031 -5.07494 0
M  V30 1862 H 177.975 1.57633 -5.02454 0
M  V30 1863 H 180.466 0.739661 -3.70591 0
M  V30 1864 H 180.779 0.894448 -7.67606 0
M  V30 1865 H 179.124 0.811304 -6.90248 0
M  V30 1866 H 182.315 0.833437 -4.60621 0
M  V30 1867 H 182.488 0.904247 -6.4166 0
M  V30 1868 N 175.894 1.51508 0.433938 0
M  V30 1869 C 176.826 1.69266 1.54537 0
M  V30 1870 C 177.839 0.573276 1.52373 0
M  V30 1871 O 179.028 0.847698 1.57087 0
M  V30 1872 C 176.128 1.69524 2.93453 0
M  V30 1873 C 175.301 2.98101 3.20085 0
M  V30 1874 C 174.36 2.90502 4.38742 0
M  V30 1875 O 173.386 3.64442 4.3723 0
M  V30 1876 N 174.588 2.06586 5.42496 0
M  V30 1877 H 177.353 2.65145 1.39708 0
M  V30 1878 H 174.914 1.49437 0.622922 0
M  V30 1879 H 176.906 1.62004 3.70859 0
M  V30 1880 H 175.476 0.812245 3.01863 0
M  V30 1881 H 174.696 3.19464 2.30947 0
M  V30 1882 H 175.984 3.83207 3.34708 0
M  V30 1883 H 175.382 1.45896 5.46563 0
M  V30 1884 H 173.939 2.04943 6.18742 0
M  V30 1885 N 177.372 -0.689602 1.41712 0
M  V30 1886 C 178.282 -1.83314 1.46401 0
M  V30 1887 C 179.298 -1.7036 0.35405 0
M  V30 1888 O 180.474 -1.92171 0.602692 0
M  V30 1889 C 177.539 -3.19344 1.34982 0
M  V30 1890 C 176.6 -3.44363 2.56344 0
M  V30 1891 C 175.833 -4.73904 2.45461 0
M  V30 1892 O 176.056 -5.508 1.48241 0
M  V30 1893 O 174.99 -4.99839 3.35328 0
M  V30 1894 H 178.816 -1.82314 2.42889 0
M  V30 1895 H 176.401 -0.843438 1.23315 0
M  V30 1896 H 178.283 -4.00547 1.3092 0
M  V30 1897 H 176.958 -3.21014 0.41612 0
M  V30 1898 H 175.865 -2.63067 2.65982 0
M  V30 1899 H 177.198 -3.47512 3.48563 0
M  V30 1900 N 178.85 -1.27639 -0.924453 0
M  V30 1901 C 179.78 -1.13166 -2.04244 0
M  V30 1902 C 180.761 -0.032256 -1.70069 0
M  V30 1903 O 181.946 -0.207328 -1.9309 0
M  V30 1904 C 179.076 -0.781496 -3.38393 0
M  V30 1905 C 178.03 -1.83449 -3.86692 0
M  V30 1906 C 177.356 -1.33822 -5.17683 0
M  V30 1907 C 178.656 -3.23917 -4.09726 0
M  V30 1908 H 180.35 -2.06689 -2.1661 0
M  V30 1909 H 177.896 -0.995136 -1.04082 0
M  V30 1910 H 179.849 -0.667057 -4.16087 0
M  V30 1911 H 178.573 0.189439 -3.2605 0
M  V30 1912 H 177.232 -1.93789 -3.11193 0
M  V30 1913 H 176.88 -0.35665 -5.01734 0
M  V30 1914 H 176.58 -2.04224 -5.50968 0
M  V30 1915 H 178.104 -1.23679 -5.97943 0
M  V30 1916 H 179.518 -3.16559 -4.77978 0
M  V30 1917 H 177.915 -3.92059 -4.54324 0
M  V30 1918 H 178.985 -3.68729 -3.14908 0
M  V30 1919 N 180.328 1.1314 -1.09713 0
M  V30 1920 C 181.605 1.80762 -0.747302 0
M  V30 1921 C 181.985 1.96663 0.767265 0
M  V30 1922 O 181.333 1.53706 1.69076 0
M  V30 1923 C 181.543 3.15606 -1.48975 0
M  V30 1924 C 182.891 3.90914 -1.65746 0
M  V30 1925 O 183.915 3.25239 -1.45251 0
M  V30 1926 O 182.774 5.08718 -1.9967 0
M  V30 1927 H 179.868 0.782103 -0.268782 0
M  V30 1928 H 182.414 1.20041 -1.19951 0
M  V30 1929 H 181.186 2.99278 -2.52088 0
M  V30 1930 H 180.809 3.84029 -1.02991 0
M  V30 1931 N 181.806 0.884767 1.30421 0
M  V30 1932 C 182.736 0.367574 2.30589 0
M  V30 1933 C 183.717 -0.549464 1.60981 0
M  V30 1934 O 184.902 -0.46336 1.88591 0
M  V30 1935 C 182.032 -0.418944 3.44764 0
M  V30 1936 C 180.986 0.406316 4.26067 0
M  V30 1937 C 180.312 -0.506793 5.32293 0
M  V30 1938 C 181.612 1.64832 4.95608 0
M  V30 1939 H 183.306 1.20462 2.74097 0
M  V30 1940 H 180.852 0.580695 1.31772 0
M  V30 1941 H 182.805 -0.791395 4.13902 0
M  V30 1942 H 181.529 -1.28964 3.0006 0
M  V30 1943 H 180.188 0.760903 3.58617 0
M  V30 1944 H 179.836 -1.37519 4.83836 0
M  V30 1945 H 179.536 0.0415828 5.87585 0
M  V30 1946 H 181.06 -0.875764 6.04287 0
M  V30 1947 H 182.474 1.34646 5.57264 0
M  V30 1948 H 180.871 2.13688 5.60765 0
M  V30 1949 H 181.941 2.39284 4.21748 0
M  V30 1950 N 183.284 -1.43765 0.645699 0
M  V30 1951 C 184.514 -2.05953 0.163318 0
M  V30 1952 C 184.922 -1.48432 -1.17322 0
M  V30 1953 O 184.265 -0.607295 -1.73371 0
M  V30 1954 C 184.327 -3.59499 -0.0103065 0
M  V30 1955 C 183.991 -4.39563 1.25035 0
M  V30 1956 C 184.988 -4.72108 2.17739 0
M  V30 1957 C 182.673 -4.79697 1.48983 0
M  V30 1958 C 184.667 -5.43688 3.3269 0
M  V30 1959 C 182.354 -5.51023 2.64229 0
M  V30 1960 C 183.352 -5.8294 3.55908 0
M  V30 1961 O 183.04 -6.5281 4.69142 0
M  V30 1962 H 182.772 -0.670798 0.0836986 0
M  V30 1963 H 185.326 -1.85384 0.884407 0
M  V30 1964 H 183.556 -3.78613 -0.78669 0
M  V30 1965 H 185.245 -4.03408 -0.449087 0
M  V30 1966 H 186.011 -4.41627 2.00476 0
M  V30 1967 H 181.89 -4.54266 0.785078 0
M  V30 1968 H 185.434 -5.68517 4.04269 0
M  V30 1969 H 181.331 -5.8092 2.81429 0
M  V30 1970 H 182.099 -6.71288 4.6831 0
M  V30 1971 N 184.763 -0.387143 -1.52771 0
M  V30 1972 C 186.012 0.19697 -2.00736 0
M  V30 1973 C 186.325 1.48082 -1.27793 0
M  V30 1974 O 187.531 2.14485 -1.66458 0
M  V30 1975 C 185.987 0.401568 -3.57653 0
M  V30 1976 C 185.595 -0.868907 -4.39493 0
M  V30 1977 C 187.339 0.942164 -4.13912 0
M  V30 1978 C 185.246 -0.632705 -5.88006 0
M  V30 1979 H 184.176 0.0773827 -0.750019 0
M  V30 1980 H 186.827 -0.50921 -1.76293 0
M  V30 1981 H 185.209 1.16954 -3.78335 0
M  V30 1982 H 186.383 -1.64133 -4.30577 0
M  V30 1983 H 184.698 -1.33429 -3.94443 0
M  V30 1984 H 187.295 1.13455 -5.22525 0
M  V30 1985 H 187.638 1.9106 -3.69867 0
M  V30 1986 H 188.171 0.233814 -3.97112 0
M  V30 1987 H 184.91 -1.57208 -6.36369 0
M  V30 1988 H 184.43 0.100825 -5.99715 0
M  V30 1989 H 186.109 -0.26642 -6.46451 0
M  V30 1990 N 186.241 1.57166 -0.116904 0
M  V30 1991 C 187.481 1.97008 0.544715 0
M  V30 1992 C 187.845 0.998713 1.63981 0
M  V30 1993 O 189.046 1.28644 2.36018 0
M  V30 1994 C 187.317 3.41145 1.06559 0
M  V30 1995 S 188.876 4.02998 1.73603 0
M  V30 1996 H 185.694 0.688587 0.177112 0
M  V30 1997 H 188.296 1.94459 -0.201487 0
M  V30 1998 H 187 4.09592 0.257374 0
M  V30 1999 H 186.531 3.4734 1.84712 0
M  V30 2000 H 188.546 3.93585 3.02168 0
M  V30 2001 N 187.719 -0.156864 1.56817 0
M  V30 2002 C 188.649 -1.19589 2.00551 0
M  V30 2003 C 189.63 -1.4536 0.883426 0
M  V30 2004 O 190.815 -1.56449 1.15054 0
M  V30 2005 C 187.945 -2.53143 2.37773 0
M  V30 2006 C 186.899 -2.41913 3.53075 0
M  V30 2007 C 186.225 -3.80088 3.76081 0
M  V30 2008 C 187.525 -1.91157 4.86062 0
M  V30 2009 H 189.219 -0.832293 2.87599 0
M  V30 2010 H 186.765 -0.398918 1.38364 0
M  V30 2011 H 188.718 -3.26047 2.66967 0
M  V30 2012 H 187.442 -2.91319 1.4765 0
M  V30 2013 H 186.101 -1.71462 3.24031 0
M  V30 2014 H 185.749 -4.15683 2.83225 0
M  V30 2015 H 185.449 -3.73439 4.53671 0
M  V30 2016 H 186.973 -4.54556 4.0769 0
M  V30 2017 H 188.387 -2.53846 5.14038 0
M  V30 2018 H 186.784 -1.95422 5.67389 0
M  V30 2019 H 187.854 -0.866673 4.77092 0
M  V30 2020 N 189.197 -1.51736 -0.425897 0
M  V30 2021 C 190.613 -1.40166 -0.76326 0
M  V30 2022 C 190.813 -0.492962 -1.95377 0
M  V30 2023 O 189.869 0.0475815 -2.52455 0
M  V30 2024 C 191.182 -2.82403 -1.03291 0
M  V30 2025 C 192.73 -2.91632 -1.13665 0
M  V30 2026 C 193.205 -4.34801 -1.43916 0
M  V30 2027 N 194.696 -4.3796 -1.50816 0
M  V30 2028 C 195.431 -5.4578 -1.75817 0
M  V30 2029 N 194.927 -6.63744 -1.98534 0
M  V30 2030 N 196.72 -5.33274 -1.77694 0
M  V30 2031 H 188.871 -2.09361 0.358 0
M  V30 2032 H 191.134 -0.942941 0.0978094 0
M  V30 2033 H 190.84 -3.50943 -0.230696 0
M  V30 2034 H 190.714 -3.22428 -1.95754 0
M  V30 2035 H 193.101 -2.23284 -1.92947 0
M  V30 2036 H 193.182 -2.55088 -0.190756 0
M  V30 2037 H 192.826 -5.03703 -0.65157 0
M  V30 2038 H 192.756 -4.68868 -2.39729 0
M  V30 2039 H 195.247 -3.52919 -1.35118 0
M  V30 2040 H 195.56 -7.41704 -2.17013 0
M  V30 2041 H 193.905 -6.66839 -1.95832 0
M  V30 2042 H 197.096 -4.40098 -1.59473 0
M  V30 2043 H 197.269 -6.1738 -1.9684 0
M  V30 2044 N 190.675 0.682077 -1.42076 0
M  V30 2045 C 192.086 1.26246 -1.37546 0
M  V30 2046 C 192.437 1.96092 -0.0651481 0
M  V30 2047 O 191.562 1.99587 0.836297 0
M  V30 2048 C 192.157 2.29594 -2.49143 0
M  V30 2049 C 190.716 2.83175 -2.47969 0
M  V30 2050 C 189.863 1.57395 -2.28303 0
M  V30 2051 H 192.814 0.475937 -1.51395 0
M  V30 2052 H 192.835 3.11175 -2.18976 0
M  V30 2053 H 192.347 1.78729 -3.44496 0
M  V30 2054 H 190.448 3.3818 -1.56413 0
M  V30 2055 H 190.561 3.32687 -3.44755 0
M  V30 2056 H 188.925 1.83699 -1.76428 0
M  V30 2057 H 189.708 1.08507 -3.25701 0
M  V30 2058 N 192.153 1.28127 0.917671 0
M  V30 2059 C 193.399 1.15223 1.66888 0
M  V30 2060 C 193.732 -0.299293 1.9188 0
M  V30 2061 O 193.007 -1.21805 1.51637 0
M  V30 2062 C 193.29 1.94706 3.02922 0
M  V30 2063 C 193.143 3.47898 2.85109 0
M  V30 2064 C 194.462 1.75939 4.03402 0
M  V30 2065 H 191.581 0.419946 0.605652 0
M  V30 2066 H 194.223 1.57398 1.06423 0
M  V30 2067 H 192.373 1.58864 3.54534 0
M  V30 2068 H 194.045 3.93624 2.40537 0
M  V30 2069 H 192.288 3.7373 2.20246 0
M  V30 2070 H 192.959 3.98765 3.81694 0
M  V30 2071 H 195.435 2.07209 3.60837 0
M  V30 2072 H 194.311 2.33931 4.96556 0
M  V30 2073 H 194.572 0.709877 4.36364 0
M  V30 2074 N 193.631 -1.12557 1.10312 0
M  V30 2075 C 195.047 -1.36036 0.834649 0
M  V30 2076 C 195.247 -1.93946 -0.546539 0
M  V30 2077 O 194.303 -2.16484 -1.29966 0
M  V30 2078 C 195.616 -2.30312 1.9333 0
M  V30 2079 C 197.164 -2.43906 1.9616 0
M  V30 2080 C 197.639 -3.41496 3.05195 0
M  V30 2081 N 199.13 -3.49053 3.04494 0
M  V30 2082 C 199.865 -4.24471 3.85502 0
M  V30 2083 N 199.361 -5.02966 4.76442 0
M  V30 2084 N 201.154 -4.19864 3.73725 0
M  V30 2085 H 193.305 -0.733246 1.99342 0
M  V30 2086 H 195.568 -0.385234 0.866198 0
M  V30 2087 H 195.274 -1.94933 2.92735 0
M  V30 2088 H 195.148 -3.30421 1.81939 0
M  V30 2089 H 197.535 -2.78567 0.973886 0
M  V30 2090 H 197.616 -1.4369 2.11629 0
M  V30 2091 H 197.26 -3.07565 4.04186 0
M  V30 2092 H 197.19 -4.41539 2.86968 0
M  V30 2093 H 199.681 -2.93053 2.38596 0
M  V30 2094 H 199.994 -5.57846 5.34815 0
M  V30 2095 H 198.339 -5.02167 4.80472 0
M  V30 2096 H 201.53 -3.57623 3.02032 0
M  V30 2097 H 201.703 -4.78386 4.37093 0
M  V30 2098 N 195.109 -0.891671 -1.2995 0
M  V30 2099 C 196.339 -0.527893 -1.99742 0
M  V30 2100 C 196.747 0.88979 -1.66971 0
M  V30 2101 O 196.09 1.59766 -0.906667 0
M  V30 2102 C 196.152 -0.630804 -3.53922 0
M  V30 2103 C 195.816 -2.01401 -4.10228 0
M  V30 2104 C 196.813 -2.98422 -4.25724 0
M  V30 2105 C 194.498 -2.32121 -4.45449 0
M  V30 2106 C 196.492 -4.24293 -4.75662 0
M  V30 2107 C 194.179 -3.58237 -4.95086 0
M  V30 2108 C 195.177 -4.54137 -5.10146 0
M  V30 2109 O 194.865 -5.78014 -5.58708 0
M  V30 2110 H 194.597 -0.201953 -0.645129 0
M  V30 2111 H 197.151 -1.20076 -1.66646 0
M  V30 2112 H 195.381 0.0990616 -3.86573 0
M  V30 2113 H 197.07 -0.277338 -4.04951 0
M  V30 2114 H 197.836 -2.76001 -3.98809 0
M  V30 2115 H 193.715 -1.5824 -4.32991 0
M  V30 2116 H 197.259 -4.99153 -4.87332 0
M  V30 2117 H 193.156 -3.80491 -5.21437 0
M  V30 2118 H 193.924 -5.8049 -5.77039 0
M  V30 2119 N 196.587 1.43421 -0.653314 0
M  V30 2120 C 197.817 2.05864 -0.174238 0
M  V30 2121 C 198.225 1.49052 1.16534 0
M  V30 2122 O 197.568 0.616481 1.73047 0
M  V30 2123 C 197.63 3.59499 -0.00875873 0
M  V30 2124 C 197.294 4.38893 -1.27364 0
M  V30 2125 C 198.291 4.70947 -2.20239 0
M  V30 2126 C 195.976 4.789 -1.51525 0
M  V30 2127 C 197.97 5.41916 -3.35568 0
M  V30 2128 C 195.657 5.49614 -2.67147 0
M  V30 2129 C 196.655 5.81044 -3.58994 0
M  V30 2130 O 196.343 6.50313 -4.72597 0
M  V30 2131 H 196.075 0.670345 -0.0872549 0
M  V30 2132 H 198.629 1.84913 -0.894226 0
M  V30 2133 H 196.859 3.79025 0.7666 0
M  V30 2134 H 198.548 4.0364 0.427687 0
M  V30 2135 H 199.314 4.40558 -2.02815 0
M  V30 2136 H 195.193 4.53843 -0.809158 0
M  V30 2137 H 198.737 5.66365 -4.07279 0
M  V30 2138 H 194.634 5.79419 -2.84505 0
M  V30 2139 H 195.402 6.68795 -4.71864 0
M  V30 2140 N 198.065 0.39524 1.52563 0
M  V30 2141 C 198.997 -0.472201 2.24283 0
M  V30 2142 C 200.01 -1.02178 1.26742 0
M  V30 2143 O 201.199 -0.923097 1.52778 0
M  V30 2144 C 198.299 -1.66775 2.95024 0
M  V30 2145 C 197.472 -1.2445 4.19322 0
M  V30 2146 C 196.531 -2.30539 4.7301 0
M  V30 2147 O 195.557 -1.91702 5.35947 0
M  V30 2148 N 196.759 -3.6253 4.53379 0
M  V30 2149 H 199.524 0.142282 2.99362 0
M  V30 2150 H 197.085 0.2219 1.60372 0
M  V30 2151 H 199.077 -2.37283 3.27839 0
M  V30 2152 H 197.647 -2.18845 2.23217 0
M  V30 2153 H 196.867 -0.368069 3.92478 0
M  V30 2154 H 198.155 -0.938457 5.0007 0
M  V30 2155 H 197.553 -3.96841 4.03154 0
M  V30 2156 H 196.11 -4.29055 4.90668 0
M  V30 2157 N 199.544 -1.57102 0.125237 0
M  V30 2158 C 200.792 -1.95021 -0.530198 0
M  V30 2159 C 201.113 -1.00982 -1.66816 0
M  V30 2160 O 200.383 -0.0672693 -1.95784 0
M  V30 2161 H 198.963 -0.720046 -0.198853 0
M  V30 2162 H 201.625 -1.93916 0.19564 0
M  V30 2163 H 200.721 -2.98211 -0.920681 0
M  V30 2164 N 201.022 0.148545 -1.56898 0
M  V30 2165 C 202.25 0.876389 -1.87422 0
M  V30 2166 C 202.665 1.74809 -0.713256 0
M  V30 2167 O 202.022 1.79725 0.317025 0
M  V30 2168 C 202.073 1.73438 -3.17178 0
M  V30 2169 O 201.794 0.897809 -4.28802 0
M  V30 2170 C 203.295 2.56993 -3.61205 0
M  V30 2171 H 200.515 0.253489 -0.621277 0
M  V30 2172 H 203.059 0.141798 -2.04008 0
M  V30 2173 H 201.214 2.42205 -3.0235 0
M  V30 2174 H 201.628 1.48672 -5.02988 0
M  V30 2175 H 203.102 3.12773 -4.54838 0
M  V30 2176 H 203.579 3.32958 -2.86419 0
M  V30 2177 H 204.185 1.9352 -3.78722 0
M  V30 2178 N 202.5 1.5196 0.417844 0
M  V30 2179 C 203.911 1.57851 0.997 0
M  V30 2180 C 204.262 0.413714 1.91789 0
M  V30 2181 O 203.387 -0.467057 2.113 0
M  V30 2182 C 203.982 2.86085 1.81496 0
M  V30 2183 C 202.541 2.94483 2.34428 0
M  V30 2184 C 201.688 2.52707 1.14169 0
M  V30 2185 H 204.639 1.57455 0.198392 0
M  V30 2186 H 204.66 2.70947 2.67148 0
M  V30 2187 H 204.172 3.70842 1.14446 0
M  V30 2188 H 202.273 2.142 3.04875 0
M  V30 2189 H 202.386 3.98546 2.65891 0
M  V30 2190 H 200.75 2.06353 1.49301 0
M  V30 2191 H 201.533 3.39828 0.486999 0
M  V30 2192 N 203.978 -0.674533 1.42435 0
M  V30 2193 C 205.203 -1.46784 1.46524 0
M  V30 2194 C 205.628 -1.87938 0.078066 0
M  V30 2195 O 204.986 -1.56014 -0.92354 0
M  V30 2196 C 205.034 -2.69307 2.39805 0
M  V30 2197 O 204.138 -3.67587 1.86959 0
M  V30 2198 H 203.479 -0.440959 0.496439 0
M  V30 2199 H 206.009 -0.827326 1.87127 0
M  V30 2200 H 206.019 -3.17374 2.56393 0
M  V30 2201 H 204.694 -2.38692 3.40586 0
M  V30 2202 H 203.271 -3.2662 1.79927 0
M  V30 2203 N 205.456 -1.28612 -0.910864 0
M  V30 2204 C 206.867 -1.14406 -1.47541 0
M  V30 2205 C 207.218 0.264901 -1.94403 0
M  V30 2206 O 206.343 1.15942 -1.82719 0
M  V30 2207 C 206.938 -2.07073 -2.68153 0
M  V30 2208 C 205.497 -1.96923 -3.20778 0
M  V30 2209 C 204.644 -1.98646 -1.93481 0
M  V30 2210 H 207.595 -1.41259 -0.723291 0
M  V30 2211 H 207.616 -1.63642 -3.43514 0
M  V30 2212 H 207.128 -3.09611 -2.34015 0
M  V30 2213 H 205.229 -0.97433 -3.59635 0
M  V30 2214 H 205.342 -2.84026 -3.85832 0
M  V30 2215 H 203.706 -1.43093 -2.10705 0
M  V30 2216 H 204.489 -3.02868 -1.61634 0
M  V30 2217 N 206.934 1.1197 -1.10907 0
M  V30 2218 C 208.18 1.8386 -0.855773 0
M  V30 2219 C 208.513 1.84134 0.617103 0
M  V30 2220 O 207.788 1.29041 1.45529 0
M  V30 2221 C 208.071 3.31305 -1.411 0
M  V30 2222 C 207.924 3.39456 -2.9511 0
M  V30 2223 C 209.243 4.2721 -1.05736 0
M  V30 2224 H 206.362 0.667545 -0.312334 0
M  V30 2225 H 209.004 1.31331 -1.37303 0
M  V30 2226 H 207.154 3.76169 -0.97105 0
M  V30 2227 H 208.826 3.03191 -3.47668 0
M  V30 2228 H 207.069 2.79849 -3.31462 0
M  V30 2229 H 207.74 4.43209 -3.29044 0
M  V30 2230 H 210.216 3.90497 -1.43706 0
M  V30 2231 H 209.092 5.28775 -1.47269 0
M  V30 2232 H 209.353 4.42088 0.0325958 0
M  V30 2233 N 208.412 0.89855 1.29475 0
M  V30 2234 C 209.359 0.373819 2.27753 0
M  V30 2235 C 210.329 -0.543444 1.56958 0
M  V30 2236 O 211.514 -0.468934 1.84948 0
M  V30 2237 C 208.654 -0.393648 3.42848 0
M  V30 2238 C 207.767 0.554379 4.28428 0
M  V30 2239 C 206.902 -0.230026 5.30702 0
M  V30 2240 C 205.941 0.712599 6.07938 0
M  V30 2241 N 205.078 -0.0373283 7.0209 0
M  V30 2242 H 209.918 1.21699 2.72017 0
M  V30 2243 H 207.455 0.611456 1.33789 0
M  V30 2244 H 209.413 -0.85466 4.08352 0
M  V30 2245 H 208.043 -1.20128 2.99615 0
M  V30 2246 H 207.095 1.13391 3.63107 0
M  V30 2247 H 208.407 1.27597 4.82204 0
M  V30 2248 H 207.561 -0.752288 6.02018 0
M  V30 2249 H 206.3 -0.984758 4.77654 0
M  V30 2250 H 205.305 1.24637 5.35486 0
M  V30 2251 H 206.53 1.46664 6.63074 0
M  V30 2252 H 204.476 -0.774348 6.51414 0
M  V30 2253 H 204.393 0.624374 7.53417 0
M  V30 2254 H 205.661 -0.539891 7.77628 0
M  V30 2255 N 209.89 -1.43072 0.660911 0
M  V30 2256 C 210.84 -2.27948 -0.04847 0
M  V30 2257 C 211.824 -1.40325 -0.787246 0
M  V30 2258 O 213.016 -1.63893 -0.668446 0
M  V30 2259 C 210.145 -3.28143 -1.00881 0
M  V30 2260 C 209.231 -4.23252 -0.268108 0
M  V30 2261 N 209.622 -5.00656 0.719528 0
M  V30 2262 C 207.92 -4.43092 -0.508493 0
M  V30 2263 C 208.621 -5.70019 1.15988 0
M  V30 2264 N 207.597 -5.41364 0.492584 0
M  V30 2265 H 211.399 -2.85213 0.709279 0
M  V30 2266 H 208.913 -1.54869 0.488822 0
M  V30 2267 H 210.91 -3.87736 -1.53188 0
M  V30 2268 H 209.57 -2.7244 -1.76654 0
M  V30 2269 H 210.581 -5.06115 1.09855 0
M  V30 2270 H 207.258 -3.98449 -1.24679 0
M  V30 2271 H 208.648 -6.4214 1.97751 0
M  V30 2272 N 211.368 -0.403325 -1.52352 0
M  V30 2273 C 212.779 0.0675782 -1.86578 0
M  V30 2274 C 213.13 1.44941 -1.32236 0
M  V30 2275 O 212.255 2.06112 -0.659307 0
M  V30 2276 C 212.85 0.129404 -3.38553 0
M  V30 2277 C 211.409 0.544629 -3.72439 0
M  V30 2278 C 210.556 -0.284551 -2.75836 0
M  V30 2279 H 213.507 -0.620631 -1.46061 0
M  V30 2280 H 213.528 0.94581 -3.68558 0
M  V30 2281 H 213.04 -0.87645 -3.78074 0
M  V30 2282 H 211.141 1.55734 -3.38493 0
M  V30 2283 H 211.254 0.293046 -4.78203 0
M  V30 2284 H 209.618 0.252258 -2.53448 0
M  V30 2285 H 210.401 -1.28865 -3.18196 0
M  V30 2286 N 212.846 1.57033 -0.133567 0
M  V30 2287 C 213.756 2.19632 0.824564 0
M  V30 2288 C 214.772 1.17666 1.28182 0
M  V30 2289 O 215.948 1.50193 1.3418 0
M  V30 2290 C 213.013 2.79499 2.05137 0
M  V30 2291 C 212.074 3.96548 1.64464 0
M  V30 2292 C 211.307 4.5355 2.81297 0
M  V30 2293 O 211.53 4.09438 3.97136 0
M  V30 2294 O 210.464 5.44018 2.57542 0
M  V30 2295 H 214.29 3.01991 0.321766 0
M  V30 2296 H 211.875 1.49112 0.0927889 0
M  V30 2297 H 213.757 3.17602 2.7696 0
M  V30 2298 H 212.432 2.00162 2.54395 0
M  V30 2299 H 211.339 3.63186 0.897048 0
M  V30 2300 H 212.672 4.77364 1.19934 0
M  V30 2301 N 214.325 -0.140222 1.56975 0
M  V30 2302 C 215.255 -1.17456 2.01808 0
M  V30 2303 C 216.236 -1.44415 0.898794 0
M  V30 2304 O 217.421 -1.5522 1.16707 0
M  V30 2305 C 214.551 -2.50607 2.40444 0
M  V30 2306 C 213.505 -2.38155 3.55621 0
M  V30 2307 C 212.831 -3.76078 3.80091 0
M  V30 2308 C 214.131 -1.85991 4.88062 0
M  V30 2309 H 215.825 -0.801743 2.88466 0
M  V30 2310 H 213.371 -0.38422 1.38779 0
M  V30 2311 H 215.324 -3.23197 2.7041 0
M  V30 2312 H 214.048 -2.89737 1.50732 0
M  V30 2313 H 212.707 -1.68016 3.25832 0
M  V30 2314 H 212.355 -4.12656 2.87618 0
M  V30 2315 H 212.055 -3.68606 4.57606 0
M  V30 2316 H 213.579 -4.50206 4.12488 0
M  V30 2317 H 214.993 -2.4838 5.16701 0
M  V30 2318 H 213.39 -1.89393 5.6943 0
M  V30 2319 H 214.46 -0.816023 4.77984 0
M  V30 2320 N 215.803 -1.52179 -0.40978 0
M  V30 2321 C 217.031 -1.70054 -1.17853 0
M  V30 2322 C 217.446 -0.409735 -1.843 0
M  V30 2323 O 216.803 0.614183 -1.71855 0
M  V30 2324 C 216.854 -2.83568 -2.24213 0
M  V30 2325 O 216.575 -4.0765 -1.60478 0
M  V30 2326 C 218.076 -3.12947 -3.13973 0
M  V30 2327 H 215.296 -0.569917 -0.354169 0
M  V30 2328 H 217.84 -1.98734 -0.482198 0
M  V30 2329 H 215.995 -2.57409 -2.89516 0
M  V30 2330 H 216.409 -4.70899 -2.30986 0
M  V30 2331 H 217.883 -3.95889 -3.84677 0
M  V30 2332 H 218.36 -2.26472 -3.76307 0
M  V30 2333 H 218.966 -3.40868 -2.5434 0
M  V30 2334 N 217.281 0.66697 -1.42791 0
M  V30 2335 C 218.558 1.4234 -1.34159 0
M  V30 2336 C 218.938 2.11093 0.0172729 0
M  V30 2337 O 218.286 2.03808 1.03318 0
M  V30 2338 C 218.496 2.41942 -2.51526 0
M  V30 2339 C 219.844 3.06353 -2.93995 0
M  V30 2340 O 220.868 2.52269 -2.51473 0
M  V30 2341 O 219.727 4.04376 -3.67617 0
M  V30 2342 H 216.821 0.635277 -0.529483 0
M  V30 2343 H 219.367 0.695034 -1.54814 0
M  V30 2344 H 218.139 1.89991 -3.42081 0
M  V30 2345 H 217.762 3.22249 -2.32898 0
M  V30 2346 N 218.759 1.29093 0.90403 0
M  V30 2347 C 219.692 1.08176 2.00931 0
M  V30 2348 C 220.67 -0.005083 1.62599 0
M  V30 2349 O 221.854 0.144765 1.87943 0
M  V30 2350 C 218.981 0.645897 3.32484 0
M  V30 2351 C 218.027 1.73081 3.89801 0
M  V30 2352 S 218.86 3.32905 4.19446 0
M  V30 2353 C 220.016 2.91176 5.54046 0
M  V30 2354 H 220.249 2.01752 2.18365 0
M  V30 2355 H 217.782 1.13191 1.0501 0
M  V30 2356 H 219.74 0.401131 4.08535 0
M  V30 2357 H 218.401 -0.270188 3.12936 0
M  V30 2358 H 217.594 1.37768 4.84805 0
M  V30 2359 H 217.196 1.92888 3.20422 0
M  V30 2360 H 219.488 2.37952 6.34338 0
M  V30 2361 H 220.431 3.85014 5.94281 0
M  V30 2362 H 220.839 2.296 5.15698 0
M  V30 2363 N 220.237 -1.11381 1.11499 0
M  V30 2364 C 221.483 -1.83403 0.865512 0
M  V30 2365 C 221.816 -1.84459 -0.607329 0
M  V30 2366 O 221.091 -1.29811 -1.44842 0
M  V30 2367 C 221.374 -3.30552 1.42855 0
M  V30 2368 C 221.227 -3.37886 2.96906 0
M  V30 2369 C 222.546 -4.26643 1.08 0
M  V30 2370 H 219.665 -0.665879 0.31587 0
M  V30 2371 H 222.307 -1.30601 1.37998 0
M  V30 2372 H 220.457 -3.75648 0.990985 0
M  V30 2373 H 222.129 -3.01343 3.49271 0
M  V30 2374 H 220.372 -2.78088 3.32941 0
M  V30 2375 H 221.043 -4.41458 3.31389 0
M  V30 2376 H 223.519 -3.89729 1.45775 0
M  V30 2377 H 222.395 -5.27986 1.50072 0
M  V30 2378 H 222.656 -4.42099 -0.00915037 0
M  V30 2379 N 221.715 -0.905404 -1.28997 0
M  V30 2380 C 222.964 -0.530191 -1.94607 0
M  V30 2381 C 223.277 0.929185 -1.72121 0
M  V30 2382 O 224.483 1.41218 -2.31883 0
M  V30 2383 C 222.939 -0.897333 -3.48534 0
M  V30 2384 C 222.547 -2.37587 -3.79811 0
M  V30 2385 C 224.291 -0.592304 -4.20347 0
M  V30 2386 C 222.198 -2.68357 -5.27009 0
M  V30 2387 H 221.128 -0.194558 -0.728466 0
M  V30 2388 H 223.779 -1.10318 -1.46636 0
M  V30 2389 H 222.161 -0.253214 -3.9519 0
M  V30 2390 H 223.335 -3.06602 -3.43994 0
M  V30 2391 H 221.65 -2.6505 -3.2115 0
M  V30 2392 H 224.247 -0.798975 -5.28697 0
M  V30 2393 H 224.59 0.469474 -4.13644 0
M  V30 2394 H 225.123 -1.19452 -3.79442 0
M  V30 2395 H 221.862 -3.73355 -5.38782 0
M  V30 2396 H 221.382 -2.03971 -5.64053 0
M  V30 2397 H 223.061 -2.54922 -5.94663 0
M  V30 2398 N 223.193 1.4272 -0.668489 0
M  V30 2399 C 224.44 2.01624 -0.18814 0
M  V30 2400 C 224.768 1.5282 1.20317 0
M  V30 2401 O 224.023 0.718323 1.8204 0
M  V30 2402 C 224.322 3.57021 -0.164499 0
M  V30 2403 C 223.988 4.25232 -1.49962 0
M  V30 2404 C 222.65 4.4358 -1.8652 0
M  V30 2405 C 225.002 4.63727 -2.37921 0
M  V30 2406 C 222.33 4.97694 -3.10674 0
M  V30 2407 C 224.682 5.19218 -3.6138 0
M  V30 2408 C 223.346 5.3578 -3.98115 0
M  V30 2409 H 222.616 0.737795 -0.0688454 0
M  V30 2410 H 225.263 1.70991 -0.862225 0
M  V30 2411 H 223.568 3.87285 0.593079 0
M  V30 2412 H 225.265 4.00372 0.224271 0
M  V30 2413 H 221.855 4.11306 -1.20522 0
M  V30 2414 H 226.039 4.4923 -2.10964 0
M  V30 2415 H 221.295 5.08702 -3.39164 0
M  V30 2416 H 225.469 5.4799 -4.29743 0
M  V30 2417 H 223.096 5.77475 -4.94395 0
M  V30 2418 N 224.671 0.411399 1.52136 0
M  V30 2419 C 226.087 0.0623865 1.59478 0
M  V30 2420 C 226.287 -1.42554 1.4241 0
M  V30 2421 O 225.343 -2.19263 1.2522 0
M  V30 2422 C 226.656 0.559331 2.95452 0
M  V30 2423 C 228.204 0.517503 3.08692 0
M  V30 2424 C 228.679 0.990994 4.4715 0
M  V30 2425 N 230.17 0.947908 4.53397 0
M  V30 2426 C 230.905 1.28544 5.58806 0
M  V30 2427 N 230.401 1.69454 6.71757 0
M  V30 2428 N 232.194 1.20526 5.49026 0
M  V30 2429 H 224.345 1.37982 1.61477 0
M  V30 2430 H 226.608 0.566977 0.759764 0
M  V30 2431 H 226.314 1.59938 3.1323 0
M  V30 2432 H 226.188 -0.0298014 3.77188 0
M  V30 2433 H 228.575 -0.513505 2.90598 0
M  V30 2434 H 228.656 1.14272 2.28857 0
M  V30 2435 H 228.3 2.02034 4.65988 0
M  V30 2436 H 228.23 0.34257 5.25485 0
M  V30 2437 H 230.721 0.647157 3.72317 0
M  V30 2438 H 231.034 1.93513 7.48179 0
M  V30 2439 H 229.379 1.73359 6.73032 0
M  V30 2440 H 232.57 0.884505 4.59667 0
M  V30 2441 H 232.743 1.47161 6.31069 0
M  V30 2442 N 226.149 -1.5696 0.141893 0
M  V30 2443 C 227.059 -2.20066 -0.812905 0
M  V30 2444 C 228.075 -1.18344 -1.27557 0
M  V30 2445 O 229.251 -1.50902 -1.33381 0
M  V30 2446 C 226.316 -2.80583 -2.03652 0
M  V30 2447 C 225.377 -3.97414 -1.62359 0
M  V30 2448 C 224.61 -4.55036 -2.78887 0
M  V30 2449 O 224.833 -4.11538 -3.94959 0
M  V30 2450 O 223.767 -5.45376 -2.54653 0
M  V30 2451 H 227.593 -3.02157 -0.305746 0
M  V30 2452 H 225.178 -1.49159 -0.0848799 0
M  V30 2453 H 227.06 -3.19067 -2.75272 0
M  V30 2454 H 225.735 -2.01508 -2.5333 0
M  V30 2455 H 224.642 -3.63656 -0.877775 0
M  V30 2456 H 225.975 -4.77994 -1.17401 0
M  V30 2457 N 227.627 0.131896 -1.57047 0
M  V30 2458 C 228.575 1.18146 -2.0036 0
M  V30 2459 C 229.569 1.43614 -0.898406 0
M  V30 2460 O 230.775 1.43729 -1.08361 0
M  V30 2461 H 227.15 0.398042 -0.638018 0
M  V30 2462 H 229.121 0.789564 -2.87765 0
M  V30 2463 C 227.87 2.50341 -2.41298 0
M  V30 2464 H 227.193 2.31578 -3.25902 0
M  V30 2465 H 228.633 3.22371 -2.75414 0
M  V30 2466 C 227.092 3.11984 -1.27153 0
M  V30 2467 O 227.622 3.97484 -0.580459 0
M  V30 2468 N 225.828 2.71662 -1.03189 0
M  V30 2469 H 225.375 2.02231 -1.59564 0
M  V30 2470 H 225.333 3.13238 -0.270077 0
M  V30 2471 N 229.106 1.52395 0.401703 0
M  V30 2472 C 230.331 1.70972 1.17403 0
M  V30 2473 C 230.756 0.421615 1.83314 0
M  V30 2474 O 230.114 -0.621564 1.70312 0
M  V30 2475 C 230.162 2.85151 2.20728 0
M  V30 2476 O 229.266 2.51238 3.27037 0
M  V30 2477 H 228.607 0.568927 0.342372 0
M  V30 2478 H 231.137 1.99131 0.469891 0
M  V30 2479 H 231.147 3.10279 2.64936 0
M  V30 2480 H 229.822 3.78603 1.7214 0
M  V30 2481 H 228.399 2.36808 2.88057 0
M  V30 2482 N 230.584 -0.659388 1.43143 0
M  V30 2483 C 231.494 -1.80167 1.50256 0
M  V30 2484 C 232.51 -1.69571 0.390106 0
M  V30 2485 O 233.686 -1.90849 0.643319 0
M  V30 2486 C 230.751 -3.16409 1.41725 0
M  V30 2487 C 229.812 -3.38848 2.63591 0
M  V30 2488 C 229.045 -4.68591 2.55458 0
M  V30 2489 O 229.268 -5.47532 1.59891 0
M  V30 2490 O 228.202 -4.92614 3.45854 0
M  V30 2491 H 232.028 -1.77121 2.46702 0
M  V30 2492 H 229.613 -0.817092 1.25076 0
M  V30 2493 H 231.495 -3.9768 1.39387 0
M  V30 2494 H 230.17 -3.20059 0.484118 0
M  V30 2495 H 229.077 -2.57366 2.71502 0
M  V30 2496 H 230.41 -3.4004 3.55856 0
M  V30 2497 N 232.062 -1.29571 -0.897171 0
M  V30 2498 C 233.339 -1.08365 -1.62839 0
M  V30 2499 C 233.719 0.371331 -2.07808 0
M  V30 2500 O 233.067 1.3606 -1.83576 0
M  V30 2501 C 233.277 -2.0735 -2.80726 0
M  V30 2502 C 234.625 -2.38406 -3.51351 0
M  V30 2503 O 235.649 -2.05564 -2.90898 0
M  V30 2504 O 234.508 -2.9453 -4.60341 0
M  V30 2505 H 231.602 -0.415345 -0.715134 0
M  V30 2506 H 234.148 -1.40952 -0.945018 0
M  V30 2507 H 232.92 -3.05339 -2.44711 0
M  V30 2508 H 232.543 -1.75507 -3.56767 0
M  V30 2509 N 233.54 1.10788 -1.12088 0
M  V30 2510 C 234.789 1.82036 -0.868659 0
M  V30 2511 C 235.102 1.85929 0.607426 0
M  V30 2512 O 236.308 2.53346 0.97613 0
M  V30 2513 C 234.764 3.26951 -1.50435 0
M  V30 2514 C 234.372 3.31367 -3.01496 0
M  V30 2515 C 236.116 4.03053 -1.33225 0
M  V30 2516 C 234.023 4.7072 -3.58017 0
M  V30 2517 H 232.953 0.682108 -0.321318 0
M  V30 2518 H 235.604 1.24618 -1.34694 0
M  V30 2519 H 233.986 3.84343 -0.953735 0
M  V30 2520 H 235.16 2.83819 -3.6302 0
M  V30 2521 H 233.475 2.6875 -3.18061 0
M  V30 2522 H 236.072 5.05981 -1.72878 0
M  V30 2523 H 236.415 4.15387 -0.275529 0
M  V30 2524 H 236.948 3.52066 -1.85188 0
M  V30 2525 H 233.687 4.63585 -4.63432 0
M  V30 2526 H 233.207 5.1865 -3.01268 0
M  V30 2527 H 234.886 5.39685 -3.56859 0
M  V30 2528 N 235.018 0.912232 1.28515 0
M  V30 2529 C 236.248 0.559604 1.98877 0
M  V30 2530 C 236.656 -0.863113 1.68366 0
M  V30 2531 O 235.999 -1.58304 0.931969 0
M  V30 2532 C 236.061 0.68703 3.52874 0
M  V30 2533 C 235.725 2.07901 4.06972 0
M  V30 2534 C 236.722 3.05157 4.20922 0
M  V30 2535 C 234.407 2.39178 4.417 0
M  V30 2536 C 236.401 4.31806 4.68852 0
M  V30 2537 C 234.088 3.66068 4.89324 0
M  V30 2538 C 235.086 4.62195 5.02856 0
M  V30 2539 O 234.774 5.86829 5.49442 0
M  V30 2540 H 234.506 0.212191 0.641834 0
M  V30 2541 H 237.06 1.22712 1.64715 0
M  V30 2542 H 235.29 -0.0375486 3.86682 0
M  V30 2543 H 236.979 0.341727 4.04459 0
M  V30 2544 H 237.745 2.82311 3.94367 0
M  V30 2545 H 233.624 1.65109 4.30418 0
M  V30 2546 H 237.168 5.06842 4.79329 0
M  V30 2547 H 233.065 3.88739 5.15318 0
M  V30 2548 H 233.833 5.89597 5.6773 0
M  V30 2549 N 236.496 -1.42363 0.676048 0
M  V30 2550 C 237.459 -2.29199 0.00766941 0
M  V30 2551 C 238.459 -1.43389 -0.727745 0
M  V30 2552 O 239.649 -1.64764 -0.56556 0
M  V30 2553 C 236.781 -3.2591 -0.999785 0
M  V30 2554 H 237.974 -2.89794 0.771988 0
M  V30 2555 H 235.527 -1.50024 0.438468 0
M  V30 2556 H 236.262 -2.70256 -1.79255 0
M  V30 2557 H 236.047 -3.89202 -0.475829 0
M  V30 2558 H 237.537 -3.91028 -1.46583 0
M  V30 2559 N 237.974 -0.419461 -1.51915 0
M  V30 2560 C 239.222 0.152637 -2.01523 0
M  V30 2561 C 239.543 1.44762 -1.30649 0
M  V30 2562 O 238.813 1.90997 -0.435535 0
M  V30 2563 H 237.393 0.0593966 -0.744635 0
M  V30 2564 H 240.055 -0.558073 -1.86739 0
M  V30 2565 H 239.151 0.341369 -3.10227 0
M  V30 2566 N 239.452 1.56882 -0.150215 0
M  V30 2567 C 240.701 1.95403 0.500071 0
M  V30 2568 C 241.014 1.03777 1.658 0
M  V30 2569 O 242.22 1.31889 2.37313 0
M  V30 2570 C 240.676 3.4738 0.941018 0
M  V30 2571 C 240.284 4.47596 -0.190158 0
M  V30 2572 C 242.028 3.9476 1.56091 0
M  V30 2573 C 239.935 5.90787 0.269237 0
M  V30 2574 H 238.865 0.729515 0.190588 0
M  V30 2575 H 241.516 1.81988 -0.235074 0
M  V30 2576 H 239.898 3.56138 1.73152 0
M  V30 2577 H 241.072 4.50536 -0.967157 0
M  V30 2578 H 239.387 4.10151 -0.718666 0
M  V30 2579 H 241.984 4.99181 1.9163 0
M  V30 2580 H 242.327 3.36494 2.45107 0
M  V30 2581 H 242.86 3.88932 0.835249 0
M  V30 2582 H 239.599 6.52879 -0.585621 0
M  V30 2583 H 239.119 5.912 1.01204 0
M  V30 2584 H 240.798 6.42979 0.720176 0
M  V30 2585 N 240.93 -0.123565 1.57115 0
M  V30 2586 C 241.84 -1.17074 2.033 0
M  V30 2587 C 242.856 -1.4561 0.952559 0
M  V30 2588 O 244.032 -1.56817 1.26374 0
M  V30 2589 C 241.097 -2.47857 2.42421 0
M  V30 2590 C 240.158 -2.26758 3.64526 0
M  V30 2591 C 239.391 -3.51305 4.01771 0
M  V30 2592 O 239.614 -4.5843 3.39409 0
M  V30 2593 O 238.548 -3.42578 4.94898 0
M  V30 2594 H 242.374 -0.808555 2.92739 0
M  V30 2595 H 239.959 -0.334027 1.45618 0
M  V30 2596 H 241.841 -3.2492 2.68338 0
M  V30 2597 H 240.516 -2.83558 1.5613 0
M  V30 2598 H 239.423 -1.47569 3.43765 0
M  V30 2599 H 240.756 -1.95963 4.51508 0
M  V30 2600 N 242.408 -1.52605 -0.393616 0
M  V30 2601 C 243.654 -1.68624 -1.13743 0
M  V30 2602 C 244.009 -0.418687 -1.87789 0
M  V30 2603 O 243.302 0.58747 -1.82371 0
M  V30 2604 C 243.496 -2.85721 -2.14705 0
M  V30 2605 C 243.325 -4.23742 -1.50575 0
M  V30 2606 C 242.095 -4.89033 -1.2718 0
M  V30 2607 C 244.293 -5.05293 -0.958311 0
M  V30 2608 N 242.275 -6.11048 -0.591058 0
M  V30 2609 C 243.646 -6.18673 -0.405367 0
M  V30 2610 C 245.701 -4.90517 -0.854274 0
M  V30 2611 C 244.404 -7.18895 0.241434 0
M  V30 2612 C 246.43 -5.90986 -0.221301 0
M  V30 2613 C 245.792 -7.03669 0.320894 0
M  V30 2614 H 241.891 -0.670556 -0.402342 0
M  V30 2615 H 244.475 -1.89946 -0.427607 0
M  V30 2616 H 242.646 -2.65987 -2.83029 0
M  V30 2617 H 244.378 -2.90699 -2.8156 0
M  V30 2618 H 241.133 -4.47672 -1.54554 0
M  V30 2619 H 241.557 -6.76474 -0.266862 0
M  V30 2620 H 246.199 -4.03612 -1.25926 0
M  V30 2621 H 243.917 -8.05413 0.658448 0
M  V30 2622 H 247.503 -5.81626 -0.142111 0
M  V30 2623 H 246.383 -7.80078 0.802956 0
M  V30 2624 N 243.887 0.651787 -1.4349 0
M  V30 2625 C 244.834 1.76462 -1.4876 0
M  V30 2626 C 245.804 1.62641 -0.337189 0
M  V30 2627 O 246.989 1.82864 -0.544544 0
M  V30 2628 C 244.129 3.14623 -1.41796 0
M  V30 2629 C 243.242 3.39568 -2.67053 0
M  V30 2630 C 242.377 4.67585 -2.52068 0
M  V30 2631 C 241.416 4.85639 -3.72587 0
M  V30 2632 N 240.553 6.04915 -3.56402 0
M  V30 2633 H 245.393 1.71293 -2.43849 0
M  V30 2634 H 242.93 0.835889 -1.21043 0
M  V30 2635 H 244.888 3.94496 -1.35753 0
M  V30 2636 H 243.518 3.18859 -0.50288 0
M  V30 2637 H 242.57 2.53783 -2.8337 0
M  V30 2638 H 243.882 3.48795 -3.56572 0
M  V30 2639 H 243.036 5.55586 -2.4374 0
M  V30 2640 H 241.775 4.60681 -1.60075 0
M  V30 2641 H 240.78 3.96073 -3.81321 0
M  V30 2642 H 242.005 4.94372 -4.65589 0
M  V30 2643 H 239.951 5.9914 -2.67146 0
M  V30 2644 H 239.868 6.15106 -4.39524 0
M  V30 2645 H 241.136 6.95533 -3.51929 0
M  V30 2646 N 245.365 1.30045 0.890287 0
M  V30 2647 C 246.328 1.15963 1.977 0
M  V30 2648 C 247.328 0.0923777 1.60534 0
M  V30 2649 O 248.518 0.340071 1.70848 0
M  V30 2650 C 245.65 0.775451 3.31963 0
M  V30 2651 H 246.843 2.12502 2.11619 0
M  V30 2652 H 244.396 1.13366 1.07601 0
M  V30 2653 H 245.131 -0.189671 3.23745 0
M  V30 2654 H 244.916 1.54668 3.60306 0
M  V30 2655 H 246.406 0.700251 4.11687 0
M  V30 2656 N 246.843 -1.10192 1.12674 0
M  V30 2657 C 248.12 -1.78717 0.794965 0
M  V30 2658 C 248.5 -1.98628 -0.714853 0
M  V30 2659 O 247.848 -1.58135 -1.64941 0
M  V30 2660 C 248.058 -3.11546 1.5729 0
M  V30 2661 C 249.406 -3.86382 1.76052 0
M  V30 2662 O 250.43 -3.21274 1.53823 0
M  V30 2663 O 249.289 -5.03246 2.13087 0
M  V30 2664 H 246.383 -0.774702 0.289423 0
M  V30 2665 H 248.929 -1.16819 1.23091 0
M  V30 2666 H 247.701 -2.92489 2.59935 0
M  V30 2667 H 247.324 -3.81164 1.13137 0
M  V30 2668 N 248.321 -0.919034 -1.28029 0
M  V30 2669 C 249.546 -0.570357 -1.99403 0
M  V30 2670 C 249.971 0.842486 -1.68178 0
M  V30 2671 O 249.329 1.56391 -0.917141 0
M  V30 2672 C 249.377 -0.792541 -3.51783 0
M  V30 2673 O 248.481 0.145988 -4.12142 0
M  V30 2674 H 247.822 -0.220555 -0.6263 0
M  V30 2675 H 250.352 -1.23592 -1.63053 0
M  V30 2676 H 250.362 -0.704708 -4.01868 0
M  V30 2677 H 249.037 -1.82247 -3.73844 0
M  V30 2678 H 247.614 0.00897528 -3.72899 0
M  V30 2679 N 249.799 1.42003 -0.683588 0
M  V30 2680 C 250.762 2.29191 -0.0198243 0
M  V30 2681 C 251.762 1.43773 0.72013 0
M  V30 2682 O 252.952 1.65061 0.556815 0
M  V30 2683 C 250.084 3.26435 0.982487 0
M  V30 2684 H 251.277 2.8938 -0.787345 0
M  V30 2685 H 248.83 1.49789 -0.446418 0
M  V30 2686 H 249.565 2.71203 1.77819 0
M  V30 2687 H 249.35 3.89449 0.455182 0
M  V30 2688 H 250.84 3.918 1.44508 0
M  V30 2689 N 251.277 0.427512 1.51691 0
M  V30 2690 C 252.554 -0.201684 1.94557 0
M  V30 2691 C 252.934 -1.60981 1.36559 0
M  V30 2692 O 252.282 -2.21814 0.548702 0
M  V30 2693 C 252.492 -0.189394 3.48486 0
M  V30 2694 C 253.84 -0.39978 4.22714 0
M  V30 2695 O 254.864 -0.267945 3.55191 0
M  V30 2696 O 253.723 -0.661249 5.42485 0
M  V30 2697 H 250.817 -0.135261 0.815864 0
M  V30 2698 H 253.363 0.484782 1.62628 0
M  V30 2699 H 252.135 0.795431 3.8313 0
M  V30 2700 H 251.758 -0.919187 3.86829 0
M  V30 2701 N 252.755 -1.56801 0.158532 0
M  V30 2702 C 253.718 -2.16138 -0.762705 0
M  V30 2703 C 254.718 -1.1061 -1.16713 0
M  V30 2704 O 255.908 -1.36191 -1.08617 0
M  V30 2705 C 253.04 -2.73386 -2.03649 0
M  V30 2706 H 254.233 -2.98886 -0.246354 0
M  V30 2707 H 251.786 -1.56035 -0.0909744 0
M  V30 2708 H 252.521 -1.94335 -2.59623 0
M  V30 2709 H 252.306 -3.50601 -1.75559 0
M  V30 2710 H 253.796 -3.19065 -2.6942 0
M  V30 2711 N 254.233 0.115231 -1.57178 0
M  V30 2712 C 255.143 1.15994 -2.03918 0
M  V30 2713 C 256.159 1.45103 -0.960268 0
M  V30 2714 O 257.335 1.56144 -1.27204 0
M  V30 2715 C 254.4 2.46568 -2.43732 0
M  V30 2716 C 253.461 2.24822 -3.65723 0
M  V30 2717 C 252.694 3.4917 -4.03629 0
M  V30 2718 O 252.917 4.56623 -3.41835 0
M  V30 2719 O 251.851 3.39949 -4.96708 0
M  V30 2720 H 255.677 0.793019 -2.93164 0
M  V30 2721 H 253.262 0.3263 -1.45793 0
M  V30 2722 H 255.144 3.23492 -2.70057 0
M  V30 2723 H 253.819 2.82726 -1.57631 0
M  V30 2724 H 252.726 1.45744 -3.44542 0
M  V30 2725 H 254.059 1.93566 -4.52541 0
M  V30 2726 N 255.711 1.52812 0.385517 0
M  V30 2727 C 256.658 1.77838 1.47113 0
M  V30 2728 C 257.628 0.621757 1.54024 0
M  V30 2729 O 258.813 0.861846 1.70226 0
M  V30 2730 C 255.953 1.95618 2.84302 0
M  V30 2731 C 255.066 3.23316 2.86515 0
M  V30 2732 C 254.201 3.31394 4.15152 0
M  V30 2733 C 253.24 4.53201 4.1143 0
M  V30 2734 N 252.377 4.58542 5.3168 0
M  V30 2735 H 257.217 2.70482 1.25073 0
M  V30 2736 H 254.754 1.34006 0.606692 0
M  V30 2737 H 256.712 2.03912 3.63972 0
M  V30 2738 H 255.342 1.06331 3.04784 0
M  V30 2739 H 254.394 3.24076 1.99195 0
M  V30 2740 H 255.706 4.13045 2.79634 0
M  V30 2741 H 254.86 3.3889 5.03228 0
M  V30 2742 H 253.599 2.39645 4.24761 0
M  V30 2743 H 252.604 4.45827 3.21742 0
M  V30 2744 H 253.829 5.46271 4.03442 0
M  V30 2745 H 251.775 3.69686 5.41912 0
M  V30 2746 H 251.692 5.42148 5.26889 0
M  V30 2747 H 252.96 4.70296 6.21644 0
M  V30 2748 N 257.189 -0.644168 1.43834 0
M  V30 2749 C 258.435 -1.40603 1.46146 0
M  V30 2750 C 258.768 -1.93997 0.0887717 0
M  V30 2751 O 258.043 -1.72854 -0.891724 0
M  V30 2752 C 258.326 -2.58086 2.51124 0
M  V30 2753 C 258.179 -2.10126 3.97702 0
M  V30 2754 C 259.498 -3.60291 2.52742 0
M  V30 2755 H 256.617 -0.509905 0.532134 0
M  V30 2756 H 259.259 -0.729502 1.75437 0
M  V30 2757 H 257.409 -3.15801 2.26278 0
M  V30 2758 H 259.081 -1.57342 4.33637 0
M  V30 2759 H 257.324 -1.41419 4.10101 0
M  V30 2760 H 257.995 -2.94649 4.66783 0
M  V30 2761 H 260.471 -3.12352 2.7491 0
M  V30 2762 H 259.347 -4.40032 3.28121 0
M  V30 2763 H 259.608 -4.1349 1.56455 0
M  V30 2764 N 258.668 -1.30515 -0.883378 0
M  V30 2765 C 259.917 -1.18795 -1.63005 0
M  V30 2766 C 260.23 0.255923 -1.93919 0
M  V30 2767 O 261.436 0.494654 -2.66956 0
M  V30 2768 C 259.892 -2.07878 -2.93794 0
M  V30 2769 C 259.5 -3.57184 -2.70414 0
M  V30 2770 C 261.244 -2.04924 -3.71761 0
M  V30 2771 C 259.151 -4.38317 -3.97029 0
M  V30 2772 H 258.081 -0.441031 -0.611562 0
M  V30 2773 H 260.732 -1.55275 -0.977854 0
M  V30 2774 H 259.114 -1.64283 -3.60315 0
M  V30 2775 H 260.288 -4.08937 -2.12384 0
M  V30 2776 H 258.603 -3.61976 -2.0582 0
M  V30 2777 H 261.2 -2.62792 -4.65665 0
M  V30 2778 H 261.543 -1.0331 -4.03277 0
M  V30 2779 H 262.076 -2.46649 -3.12104 0
M  V30 2780 H 258.815 -5.40632 -3.70671 0
M  V30 2781 H 258.335 -3.91326 -4.54559 0
M  V30 2782 H 260.014 -4.49834 -4.65036 0
M  V30 2783 N 260.146 1.09593 -1.13257 0
M  V30 2784 C 261.093 2.1618 -0.808381 0
M  V30 2785 C 262.063 1.64517 0.228754 0
M  V30 2786 O 263.248 1.9053 0.101381 0
M  V30 2787 C 260.388 3.43973 -0.278675 0
M  V30 2788 C 259.501 4.09545 -1.37466 0
M  V30 2789 C 258.636 5.25088 -0.803479 0
M  V30 2790 C 257.675 5.82579 -1.87799 0
M  V30 2791 N 256.812 6.89486 -1.32488 0
M  V30 2792 H 261.652 2.43254 -1.72138 0
M  V30 2793 H 259.189 1.19392 -0.859294 0
M  V30 2794 H 261.147 4.17174 0.0465583 0
M  V30 2795 H 259.777 3.17223 0.597459 0
M  V30 2796 H 258.829 3.34226 -1.81652 0
M  V30 2797 H 260.141 4.48307 -2.18684 0
M  V30 2798 H 259.295 6.05178 -0.429427 0
M  V30 2799 H 258.034 4.87684 0.0397956 0
M  V30 2800 H 257.039 5.01152 -2.26113 0
M  V30 2801 H 258.264 6.22045 -2.72463 0
M  V30 2802 H 256.21 6.54064 -0.503575 0
M  V30 2803 H 256.127 7.27007 -2.07355 0
M  V30 2804 H 257.395 7.73336 -0.978336 0
M  V30 2805 N 261.624 0.925811 1.2754 0
M  V30 2806 C 262.871 0.565255 1.94451 0
M  V30 2807 C 263.199 -0.89316 1.7278 0
M  V30 2808 O 262.454 -1.65213 1.04895 0
M  V30 2809 C 262.753 0.835296 3.47502 0
M  V30 2810 C 262.419 2.27515 3.89291 0
M  V30 2811 C 261.081 2.66879 4.00411 0
M  V30 2812 C 263.433 3.21158 4.10496 0
M  V30 2813 C 260.761 3.99014 4.30122 0
M  V30 2814 C 263.113 4.52871 4.4169 0
M  V30 2815 C 261.777 4.92072 4.51023 0
M  V30 2816 H 261.047 0.206841 0.711546 0
M  V30 2817 H 263.694 1.16942 1.51647 0
M  V30 2818 H 261.999 0.148442 3.91519 0
M  V30 2819 H 263.696 0.535322 3.97411 0
M  V30 2820 H 260.286 1.95976 3.81171 0
M  V30 2821 H 264.47 2.9195 4.01346 0
M  V30 2822 H 259.726 4.2907 4.35556 0
M  V30 2823 H 263.9 5.25436 4.57045 0
M  V30 2824 H 261.527 5.9449 4.738 0
M  V30 2825 N 263.102 -1.41638 0.69111 0
M  V30 2826 C 264.032 -2.3347 0.037248 0
M  V30 2827 C 265.013 -1.51575 -0.771947 0
M  V30 2828 O 266.198 -1.80126 -0.72582 0
M  V30 2829 C 263.328 -3.35354 -0.903064 0
M  V30 2830 C 262.282 -4.27526 -0.201288 0
M  V30 2831 C 261.608 -5.19747 -1.25565 0
M  V30 2832 C 262.908 -5.13959 0.929689 0
M  V30 2833 H 264.602 -2.88397 0.804227 0
M  V30 2834 H 262.148 -1.38669 0.388189 0
M  V30 2835 H 264.101 -3.98519 -1.36969 0
M  V30 2836 H 262.825 -2.78767 -1.70166 0
M  V30 2837 H 261.484 -3.65779 0.245265 0
M  V30 2838 H 261.132 -4.59479 -2.04666 0
M  V30 2839 H 260.832 -5.8225 -0.791128 0
M  V30 2840 H 262.356 -5.85789 -1.72288 0
M  V30 2841 H 263.77 -5.70718 0.543546 0
M  V30 2842 H 262.167 -5.85379 1.32103 0
M  V30 2843 H 263.237 -4.51389 1.77133 0
M  V30 2844 N 264.58 -0.43555 -1.51462 0
M  V30 2845 C 265.996 -0.0877501 -1.59359 0
M  V30 2846 C 266.196 1.4027 -1.4466 0
M  V30 2847 O 265.252 2.17243 -1.28693 0
M  V30 2848 C 266.565 -0.606264 -2.94525 0
M  V30 2849 C 268.113 -0.566548 -3.0783 0
M  V30 2850 C 268.588 -1.06201 -4.45517 0
M  V30 2851 N 270.079 -1.01992 -4.51832 0
M  V30 2852 C 270.814 -1.37417 -5.5669 0
M  V30 2853 N 270.31 -1.80119 -6.68976 0
M  V30 2854 N 272.103 -1.29245 -5.47039 0
M  V30 2855 H 264.254 -1.40533 -1.59261 0
M  V30 2856 H 266.517 -0.578992 -0.750648 0
M  V30 2857 H 266.223 -1.64901 -3.10645 0
M  V30 2858 H 266.097 -0.0302097 -3.77188 0
M  V30 2859 H 268.484 0.467208 -2.91378 0
M  V30 2860 H 268.565 -1.17898 -2.2701 0
M  V30 2861 H 268.209 -2.09422 -4.62715 0
M  V30 2862 H 268.139 -0.426127 -5.24873 0
M  V30 2863 H 270.63 -0.706308 -3.71241 0
M  V30 2864 H 270.943 -2.05392 -7.45006 0
M  V30 2865 H 269.288 -1.84044 -6.70189 0
M  V30 2866 H 272.479 -0.957522 -4.58202 0
M  V30 2867 H 272.652 -1.57182 -6.28648 0
M  V30 2868 N 266.058 1.56714 -0.166846 0
M  V30 2869 C 266.968 2.21331 0.777791 0
M  V30 2870 C 267.984 1.20358 1.25658 0
M  V30 2871 O 269.16 1.53005 1.30964 0
M  V30 2872 C 266.225 2.83787 1.99163 0
M  V30 2873 C 265.286 3.99947 1.56016 0
M  V30 2874 C 264.519 4.59415 2.71613 0
M  V30 2875 O 264.742 4.17769 3.88362 0
M  V30 2876 O 263.676 5.49359 2.45945 0
M  V30 2877 H 267.502 3.02605 0.257636 0
M  V30 2878 H 265.087 1.49275 0.0611393 0
M  V30 2879 H 266.969 3.23405 2.70161 0
M  V30 2880 H 265.644 2.05513 2.50092 0
M  V30 2881 H 264.551 3.65007 0.819809 0
M  V30 2882 H 265.884 4.79801 1.09782 0
M  V30 2883 N 267.536 -0.106894 1.57237 0
M  V30 2884 C 268.446 -1.14911 2.0453 0
M  V30 2885 C 269.462 -1.44592 0.96795 0
M  V30 2886 O 270.638 -1.55468 1.2803 0
M  V30 2887 C 267.703 -2.45272 2.45036 0
M  V30 2888 C 266.764 -2.22879 3.66911 0
M  V30 2889 C 265.997 -3.47024 4.05475 0
M  V30 2890 O 266.22 -4.54804 3.44252 0
M  V30 2891 O 265.154 -3.3731 4.98504 0
M  V30 2892 H 268.98 -0.777461 2.9358 0
M  V30 2893 H 266.565 -0.318563 1.45964 0
M  V30 2894 H 268.447 -3.22055 2.71769 0
M  V30 2895 H 267.122 -2.81886 1.59129 0
M  V30 2896 H 266.029 -1.43915 3.45311 0
M  V30 2897 H 267.362 -1.91163 4.53561 0
M  V30 2898 N 269.014 -1.53014 -0.377408 0
M  V30 2899 C 269.947 -1.73382 -1.48371 0
M  V30 2900 C 270.925 -0.581879 -1.51832 0
M  V30 2901 O 272.109 -0.81307 -1.70063 0
M  V30 2902 C 269.236 -1.80192 -2.8679 0
M  V30 2903 C 268.282 -3.02056 -3.01105 0
M  V30 2904 S 269.115 -4.61811 -2.71093 0
M  V30 2905 C 270.271 -4.71453 -4.11683 0
M  V30 2906 H 270.504 -2.66946 -1.30872 0
M  V30 2907 H 268.037 -1.43453 -0.571012 0
M  V30 2908 H 269.995 -1.84802 -3.6655 0
M  V30 2909 H 268.656 -0.877008 -3.01608 0
M  V30 2910 H 267.849 -3.03396 -4.02451 0
M  V30 2911 H 267.451 -2.95498 -2.29253 0
M  V30 2912 H 269.743 -4.50781 -5.0577 0
M  V30 2913 H 270.686 -5.73487 -4.15353 0
M  V30 2914 H 271.094 -4.00189 -3.98132 0
M  V30 2915 N 270.492 0.636531 -1.44174 0
M  V30 2916 C 271.74 1.39343 -1.46383 0
M  V30 2917 C 272.061 1.94766 -0.0955715 0
M  V30 2918 O 271.331 1.75452 0.871395 0
M  V30 2919 H 269.911 0.517199 -0.538994 0
M  V30 2920 H 272.573 0.74957 -1.7991 0
M  V30 2921 H 271.669 2.22746 -2.18611 0
M  V30 2922 N 271.97 1.30982 0.876444 0
M  V30 2923 C 273.216 1.20474 1.63138 0
M  V30 2924 C 273.549 -0.238096 1.92735 0
M  V30 2925 O 272.824 -1.1692 1.55435 0
M  V30 2926 C 273.107 2.04244 2.96574 0
M  V30 2927 C 272.96 3.56793 2.73896 0
M  V30 2928 C 274.279 1.88684 3.97601 0
M  V30 2929 H 271.398 0.439001 0.591985 0
M  V30 2930 H 274.04 1.60704 1.01361 0
M  V30 2931 H 272.19 1.70063 3.493 0
M  V30 2932 H 273.862 4.01077 2.27892 0
M  V30 2933 H 272.105 3.80548 2.08245 0
M  V30 2934 H 272.776 4.10706 3.68815 0
M  V30 2935 H 275.252 2.18584 3.54062 0
M  V30 2936 H 274.128 2.4961 4.88862 0
M  V30 2937 H 274.389 0.848343 4.33884 0
M  V30 2938 N 273.449 -1.08991 1.13837 0
M  V30 2939 C 274.396 -2.15748 0.819835 0
M  V30 2940 C 275.366 -1.64636 -0.220026 0
M  V30 2941 O 276.551 -1.90582 -0.0912757 0
M  V30 2942 C 273.691 -3.4382 0.296913 0
M  V30 2943 C 272.804 -4.0881 1.39636 0
M  V30 2944 C 271.939 -5.24655 0.831314 0
M  V30 2945 C 270.978 -5.81575 1.90886 0
M  V30 2946 N 270.115 -6.88774 1.36142 0
M  V30 2947 H 274.955 -2.42338 1.73426 0
M  V30 2948 H 272.492 -1.18935 0.865613 0
M  V30 2949 H 274.45 -4.17193 -0.0244339 0
M  V30 2950 H 273.08 -3.17535 -0.580628 0
M  V30 2951 H 272.132 -3.33258 1.83422 0
M  V30 2952 H 273.444 -4.47141 2.21058 0
M  V30 2953 H 272.598 -6.04942 0.461515 0
M  V30 2954 H 271.337 -4.87698 -0.013932 0
M  V30 2955 H 270.342 -4.99946 2.28767 0
M  V30 2956 H 271.567 -6.20592 2.75758 0
M  V30 2957 H 269.513 -6.53788 0.538254 0
M  V30 2958 H 269.43 -7.25898 2.11208 0
M  V30 2959 H 270.698 -7.72806 1.01933 0
M  V30 2960 N 274.927 -0.932562 -1.27047 0
M  V30 2961 C 275.874 -0.434072 -2.26681 0
M  V30 2962 C 276.844 0.501639 -1.58344 0
M  V30 2963 O 278.029 0.419734 -1.86126 0
M  V30 2964 C 275.169 0.30261 -3.43771 0
M  V30 2965 C 274.282 -0.667774 -4.26808 0
M  V30 2966 C 273.417 0.0892393 -5.31125 0
M  V30 2967 C 272.456 -0.873532 -6.05835 0
M  V30 2968 N 271.593 -0.148832 -7.01942 0
M  V30 2969 H 276.433 -1.28868 -2.68695 0
M  V30 2970 H 273.97 -0.646713 -1.32121 0
M  V30 2971 H 275.928 0.746092 -4.10474 0
M  V30 2972 H 274.558 1.12142 -3.02695 0
M  V30 2973 H 273.61 -1.22978 -3.59973 0
M  V30 2974 H 274.922 -1.40337 -4.78651 0
M  V30 2975 H 274.076 0.592409 -6.03801 0
M  V30 2976 H 272.815 0.85777 -4.80097 0
M  V30 2977 H 271.82 -1.38791 -5.31994 0
M  V30 2978 H 273.045 -1.64193 -6.58952 0
M  V30 2979 H 270.991 0.601365 -6.53238 0
M  V30 2980 H 270.908 -0.82391 -7.51497 0
M  V30 2981 H 272.176 0.333527 -7.78786 0
M  V30 2982 N 276.405 1.4127 -0.698611 0
M  V30 2983 C 277.654 2.00408 -0.227949 0
M  V30 2984 C 277.967 1.55981 1.18023 0
M  V30 2985 O 279.173 2.07699 1.74852 0
M  V30 2986 C 277.629 3.58129 -0.356636 0
M  V30 2987 C 277.237 4.11536 -1.77037 0
M  V30 2988 C 278.981 4.24466 0.0540969 0
M  V30 2989 C 276.888 5.61701 -1.85055 0
M  V30 2990 H 275.818 0.749586 -0.0814657 0
M  V30 2991 H 278.469 1.61713 -0.867249 0
M  V30 2992 H 276.851 3.94442 0.350965 0
M  V30 2993 H 278.025 3.86636 -2.50698 0
M  V30 2994 H 276.34 3.57736 -2.13105 0
M  V30 2995 H 278.937 5.34698 0.0146723 0
M  V30 2996 H 279.28 4.01687 1.09332 0
M  V30 2997 H 279.813 3.93198 -0.603337 0
M  V30 2998 H 276.552 5.89312 -2.8704 0
M  V30 2999 H 276.072 5.88519 -1.15783 0
M  V30 3000 H 277.751 6.26524 -1.61484 0
M  V30 3001 N 277.883 0.443576 1.51229 0
M  V30 3002 C 279.299 0.0962001 1.5931 0
M  V30 3003 C 279.499 -1.39501 1.45402 0
M  V30 3004 O 278.555 -2.16557 1.29843 0
M  V30 3005 C 279.868 0.621875 2.94199 0
M  V30 3006 C 281.416 0.582865 3.07525 0
M  V30 3007 C 281.891 1.08562 4.44948 0
M  V30 3008 N 283.382 1.04387 4.51284 0
M  V30 3009 C 284.117 1.40368 5.55954 0
M  V30 3010 N 283.613 1.83664 6.68011 0
M  V30 3011 N 285.406 1.32145 5.46346 0
M  V30 3012 H 277.557 1.41376 1.58514 0
M  V30 3013 H 279.82 0.582965 0.747567 0
M  V30 3014 H 279.526 1.66546 3.09767 0
M  V30 3015 H 279.4 0.0502125 3.77167 0
M  V30 3016 H 281.787 -0.451749 2.91622 0
M  V30 3017 H 281.868 1.191 2.26382 0
M  V30 3018 H 281.512 2.11873 4.61598 0
M  V30 3019 H 281.442 0.453956 5.2464 0
M  V30 3020 H 283.933 0.725986 3.70861 0
M  V30 3021 H 284.246 2.0934 7.43906 0
M  V30 3022 H 282.591 1.87596 6.69203 0
M  V30 3023 H 285.782 0.981808 4.57688 0
M  V30 3024 H 285.955 1.60514 6.27805 0
M  V30 3025 N 279.361 -1.56624 0.175154 0
M  V30 3026 C 280.608 -1.96999 -0.468811 0
M  V30 3027 C 280.936 -1.06129 -1.62994 0
M  V30 3028 O 280.191 -0.0961771 -1.95464 0
M  V30 3029 C 280.49 -3.43419 -0.989864 0
M  V30 3030 C 280.156 -4.50866 0.0557687 0
M  V30 3031 C 278.818 -4.79975 0.343134 0
M  V30 3032 C 281.17 -5.15551 0.765308 0
M  V30 3033 C 278.498 -5.71066 1.34536 0
M  V30 3034 C 280.85 -6.07724 1.75654 0
M  V30 3035 C 279.514 -6.35199 2.05132 0
M  V30 3036 H 278.784 -0.720869 -0.17155 0
M  V30 3037 H 281.431 -1.89616 0.267924 0
M  V30 3038 H 279.736 -3.47772 -1.80449 0
M  V30 3039 H 281.433 -3.72002 -1.49719 0
M  V30 3040 H 278.023 -4.28229 -0.178381 0
M  V30 3041 H 282.207 -4.9317 0.556513 0
M  V30 3042 H 277.463 -5.90635 1.57988 0
M  V30 3043 H 281.637 -6.56912 2.31169 0
M  V30 3044 H 279.264 -7.05584 2.8294 0
M  V30 3045 N 280.839 0.0985539 -1.57292 0
M  V30 3046 C 282.25 0.653457 -1.74891 0
M  V30 3047 C 282.601 1.7929 -0.796838 0
M  V30 3048 O 281.726 2.16385 0.0254886 0
M  V30 3049 C 282.321 1.19216 -3.17133 0
M  V30 3050 C 280.88 1.69316 -3.36168 0
M  V30 3051 C 280.027 0.601294 -2.70702 0
M  V30 3052 H 282.978 -0.127497 -1.58187 0
M  V30 3053 H 282.999 2.06154 -3.19814 0
M  V30 3054 H 282.511 0.362635 -3.86402 0
M  V30 3055 H 280.612 2.5468 -2.71972 0
M  V30 3056 H 280.725 1.78853 -4.44464 0
M  V30 3057 H 279.089 1.0399 -2.32504 0
M  V30 3058 H 279.872 -0.217592 -3.4261 0
M  V30 3059 N 282.317 1.53212 0.369288 0
M  V30 3060 C 283.227 1.82342 1.47609 0
M  V30 3061 C 284.243 0.711532 1.58787 0
M  V30 3062 O 285.419 1.0012 1.74751 0
M  V30 3063 C 282.484 2.00393 2.8292 0
M  V30 3064 C 281.545 3.24297 2.81301 0
M  V30 3065 C 280.778 3.41478 4.10157 0
M  V30 3066 O 281.001 2.63033 5.06132 0
M  V30 3067 O 279.935 4.34817 4.16194 0
M  V30 3068 H 283.761 2.76366 1.25918 0
M  V30 3069 H 281.346 1.38547 0.559034 0
M  V30 3070 H 283.228 2.13859 3.63101 0
M  V30 3071 H 281.903 1.09559 3.04596 0
M  V30 3072 H 280.81 3.16257 1.99831 0
M  V30 3073 H 282.143 4.15041 2.64578 0
M  V30 3074 N 283.795 -0.628877 1.44509 0
M  V30 3075 C 284.745 -1.7345 1.47983 0
M  V30 3076 C 285.729 -1.5715 0.345373 0
M  V30 3077 O 286.921 -1.66848 0.590829 0
M  V30 3078 C 284.05 -3.12143 1.42904 0
M  V30 3079 C 283.136 -3.33906 2.61472 0
M  V30 3080 N 283.527 -3.26024 3.86706 0
M  V30 3081 C 281.825 -3.64709 2.56716 0
M  V30 3082 C 282.526 -3.48536 4.65722 0
M  V30 3083 N 281.502 -3.71517 3.96832 0
M  V30 3084 H 285.304 -1.65818 2.42655 0
M  V30 3085 H 282.818 -0.831419 1.39503 0
M  V30 3086 H 284.815 -3.91433 1.43476 0
M  V30 3087 H 283.475 -3.2094 0.492717 0
M  V30 3088 H 284.486 -3.04893 4.18641 0
M  V30 3089 H 281.163 -3.80473 1.71891 0
M  V30 3090 H 282.553 -3.48016 5.74747 0
M  V30 3091 N 285.273 -1.31445 -0.869486 0
M  V30 3092 C 286.513 -1.22458 -1.63656 0
M  V30 3093 C 286.877 0.213846 -1.90805 0
M  V30 3094 O 288.078 0.427212 -2.65383 0
M  V30 3095 C 286.349 -2.04564 -2.93067 0
M  V30 3096 S 287.908 -2.12445 -3.83944 0
M  V30 3097 H 284.726 -0.436145 -0.561514 0
M  V30 3098 H 287.328 -1.66114 -1.03085 0
M  V30 3099 H 286.032 -3.0816 -2.71045 0
M  V30 3100 H 285.563 -1.6163 -3.58663 0
M  V30 3101 H 287.578 -1.26312 -4.79854 0
M  V30 3102 N 286.751 1.08385 -1.14413 0
M  V30 3103 C 287.999 1.80419 -0.910679 0
M  V30 3104 C 288.32 1.86658 0.564243 0
M  V30 3105 O 287.59 1.35985 1.41014 0
M  V30 3106 H 286.17 0.668204 -0.333934 0
M  V30 3107 H 288.832 1.31037 -1.44275 0
M  V30 3108 H 287.928 2.83238 -1.31082 0
M  V30 3109 N 288.23 0.939286 1.26551 0
M  V30 3110 C 289.479 0.581601 1.93133 0
M  V30 3111 C 289.792 -0.883224 1.74524 0
M  V30 3112 O 290.998 -1.3502 2.35546 0
M  V30 3113 C 289.454 0.989425 3.46032 0
M  V30 3114 C 289.062 2.47573 3.73379 0
M  V30 3115 C 290.806 0.703544 4.18629 0
M  V30 3116 C 288.713 2.82235 5.19709 0
M  V30 3117 H 287.643 0.213803 0.723052 0
M  V30 3118 H 290.294 1.14167 1.4366 0
M  V30 3119 H 288.676 0.357902 3.94379 0
M  V30 3120 H 289.85 3.15614 3.35744 0
M  V30 3121 H 288.165 2.73471 3.1401 0
M  V30 3122 H 290.762 0.938869 5.26393 0
M  V30 3123 H 291.105 -0.359639 4.14744 0
M  V30 3124 H 291.638 1.2947 3.76141 0
M  V30 3125 H 288.377 3.87509 5.28694 0
M  V30 3126 H 287.897 2.18854 5.58447 0
M  V30 3127 H 289.576 2.70599 5.87695 0
M  V30 3128 N 289.708 -1.40897 0.706093 0
M  V30 3129 C 290.956 -2.00657 0.241054 0
M  V30 3130 C 291.277 -1.56241 -1.16678 0
M  V30 3131 O 290.547 -0.79765 -1.78926 0
M  V30 3132 H 289.127 -0.742018 0.0861308 0
M  V30 3133 H 291.789 -1.72372 0.909604 0
M  V30 3134 H 290.885 -3.10958 0.266705 0
M  V30 3135 N 291.186 -0.45159 -1.50991 0
M  V30 3136 C 292.435 0.111653 -2.01391 0
M  V30 3137 C 292.748 1.42529 -1.33959 0
M  V30 3138 O 293.954 2.07232 -1.75405 0
M  V30 3139 C 292.41 0.249514 -3.59034 0
M  V30 3140 C 292.018 -1.05453 -4.35412 0
M  V30 3141 C 293.762 0.765762 -4.17536 0
M  V30 3142 C 291.669 -0.881529 -5.84793 0
M  V30 3143 H 290.599 0.0455022 -0.752626 0
M  V30 3144 H 293.25 -0.583524 -1.73975 0
M  V30 3145 H 291.632 1.00803 -3.82955 0
M  V30 3146 H 292.806 -1.82248 -4.23229 0
M  V30 3147 H 291.121 -1.50039 -3.88429 0
M  V30 3148 H 293.718 0.911913 -5.26866 0
M  V30 3149 H 294.061 1.75201 -3.77638 0
M  V30 3150 H 294.594 0.0651744 -3.97747 0
M  V30 3151 H 291.333 -1.84057 -6.29129 0
M  V30 3152 H 290.853 -0.153625 -5.99603 0
M  V30 3153 H 292.532 -0.540363 -6.4474 0
M  V30 3154 N 292.664 1.56529 -0.183458 0
M  V30 3155 C 293.611 2.18546 0.742055 0
M  V30 3156 C 294.581 1.12912 1.2182 0
M  V30 3157 O 295.766 1.41115 1.28418 0
M  V30 3158 C 292.906 2.83977 1.96089 0
M  V30 3159 C 292.019 4.04105 1.52719 0
M  V30 3160 C 291.154 4.57427 2.70063 0
M  V30 3161 C 290.193 5.69938 2.23243 0
M  V30 3162 N 289.33 6.17717 3.33722 0
M  V30 3163 H 294.17 2.97284 0.206432 0
M  V30 3164 H 291.707 1.46823 0.0901571 0
M  V30 3165 H 293.665 3.20077 2.67594 0
M  V30 3166 H 292.295 2.07822 2.47002 0
M  V30 3167 H 291.347 3.73745 0.708436 0
M  V30 3168 H 292.659 4.85513 1.1436 0
M  V30 3169 H 291.813 4.95772 3.49708 0
M  V30 3170 H 290.552 3.75101 3.11689 0
M  V30 3171 H 289.557 5.31133 1.42048 0
M  V30 3172 H 290.782 6.54073 1.82661 0
M  V30 3173 H 288.728 5.38317 3.74902 0
M  V30 3174 H 288.645 6.94146 2.99495 0
M  V30 3175 H 289.913 6.60713 4.13616 0
M  V30 3176 N 294.142 -0.090211 1.57342 0
M  V30 3177 C 295.553 -0.644173 1.75235 0
M  V30 3178 C 295.904 -1.78865 0.806335 0
M  V30 3179 O 295.029 -2.16395 -0.0140128 0
M  V30 3180 C 295.624 -1.17532 3.1776 0
M  V30 3181 C 294.183 -1.67531 3.37061 0
M  V30 3182 C 293.33 -0.58693 2.71017 0
M  V30 3183 H 296.281 0.135884 1.58117 0
M  V30 3184 H 296.302 -2.04455 3.20902 0
M  V30 3185 H 295.814 -0.342138 3.86589 0
M  V30 3186 H 293.915 -2.53234 2.73319 0
M  V30 3187 H 294.028 -1.76493 4.45406 0
M  V30 3188 H 292.392 -1.02756 2.33052 0
M  V30 3189 H 293.175 0.235758 3.4249 0
M  V30 3190 N 295.62 -1.53406 -0.361157 0
M  V30 3191 C 296.86 -1.71507 -1.11197 0
M  V30 3192 C 297.224 -0.459337 -1.86425 0
M  V30 3193 O 298.425 -0.517102 -2.63779 0
M  V30 3194 C 296.696 -2.93307 -2.0422 0
M  V30 3195 S 298.255 -3.32135 -2.86761 0
M  V30 3196 H 295.073 -0.603448 -0.375995 0
M  V30 3197 H 297.675 -1.91516 -0.392642 0
M  V30 3198 H 296.379 -3.82891 -1.47724 0
M  V30 3199 H 295.91 -2.75712 -2.80618 0
M  V30 3200 H 297.925 -2.84493 -4.06544 0
M  V30 3201 N 297.098 0.621204 -1.44841 0
M  V30 3202 C 298.323 1.41244 -1.51871 0
M  V30 3203 C 298.748 1.87519 -0.147764 0
M  V30 3204 O 298.106 1.59334 0.865 0
M  V30 3205 C 298.154 2.60221 -2.49634 0
M  V30 3206 O 297.258 3.60395 -2.00473 0
M  V30 3207 H 296.599 0.42223 -0.512463 0
M  V30 3208 H 299.129 0.757305 -1.90069 0
M  V30 3209 H 299.139 3.0764 -2.67996 0
M  V30 3210 H 297.814 2.25887 -3.4921 0
M  V30 3211 H 296.391 3.19717 -1.91925 0
M  V30 3212 N 298.576 1.31904 0.862503 0
M  V30 3213 C 299.486 1.22161 2.00285 0
M  V30 3214 C 300.502 0.136785 1.73462 0
M  V30 3215 O 301.678 0.355994 1.98229 0
M  V30 3216 C 298.743 0.937093 3.33796 0
M  V30 3217 C 297.804 2.10957 3.73893 0
M  V30 3218 C 297.037 1.83853 5.01033 0
M  V30 3219 O 297.26 0.777274 5.65079 0
M  V30 3220 O 296.194 2.69741 5.38074 0
M  V30 3221 H 300.02 2.18008 2.11439 0
M  V30 3222 H 297.605 1.11716 0.991957 0
M  V30 3223 H 299.487 0.794583 4.13841 0
M  V30 3224 H 298.162 0.00871894 3.23699 0
M  V30 3225 H 297.069 2.30752 2.94456 0
M  V30 3226 H 298.402 3.02046 3.88625 0
M  V30 3227 N 300.054 -1.07777 1.14986 0
M  V30 3228 C 300.964 -2.18404 0.856546 0
M  V30 3229 C 301.98 -1.73211 -0.165485 0
M  V30 3230 O 303.156 -2.01399 0.00755219 0
M  V30 3231 C 300.221 -3.44977 0.34526 0
M  V30 3232 C 299.282 -4.0476 1.43065 0
M  V30 3233 C 298.515 -5.25291 0.943663 0
M  V30 3234 O 298.738 -5.70004 -0.212426 0
M  V30 3235 O 297.672 -5.76638 1.72547 0
M  V30 3236 H 301.498 -2.45978 1.78125 0
M  V30 3237 H 299.083 -1.17033 0.928631 0
M  V30 3238 H 300.965 -4.21348 0.0663671 0
M  V30 3239 H 299.64 -3.18965 -0.551631 0
M  V30 3240 H 298.547 -3.29949 1.76309 0
M  V30 3241 H 299.88 -4.35035 2.30229 0
M  V30 3242 N 301.532 -0.945985 -1.26051 0
M  V30 3243 C 302.78 -0.594941 -1.93145 0
M  V30 3244 C 303.101 0.86953 -1.7454 0
M  V30 3245 O 302.371 1.61838 -1.10387 0
M  V30 3246 H 300.951 -0.217044 -0.714773 0
M  V30 3247 H 303.613 -1.20235 -1.53393 0
M  V30 3248 H 302.709 -0.816835 -3.01221 0
M  V30 3249 N 303.011 1.40521 -0.713556 0
M  V30 3250 C 304.239 2.05237 -0.261775 0
M  V30 3251 C 304.654 1.53755 1.09567 0
M  V30 3252 O 304.011 0.693268 1.6882 0
M  V30 3253 C 304.062 3.60763 -0.230706 0
M  V30 3254 O 303.783 4.10345 -1.53455 0
M  V30 3255 C 305.284 4.42651 0.239874 0
M  V30 3256 H 302.504 0.660533 -0.118057 0
M  V30 3257 H 305.048 1.79967 -0.971192 0
M  V30 3258 H 303.203 3.8501 0.429661 0
M  V30 3259 H 303.617 5.04526 -1.43366 0
M  V30 3260 H 305.091 5.51599 0.210468 0
M  V30 3261 H 305.568 4.20082 1.28171 0
M  V30 3262 H 306.174 4.23507 -0.390142 0
M  V30 3263 N 304.489 0.459591 1.5075 0
M  V30 3264 C 305.436 -0.340524 2.28274 0
M  V30 3265 C 306.406 -0.997371 1.32822 0
M  V30 3266 O 307.591 -1.01202 1.61749 0
M  V30 3267 C 304.731 -1.42317 3.14388 0
M  V30 3268 C 303.844 -0.782251 4.24859 0
M  V30 3269 C 302.979 -1.84182 4.98247 0
M  V30 3270 C 302.018 -1.18053 6.00608 0
M  V30 3271 N 301.155 -2.18244 6.67319 0
M  V30 3272 H 305.995 0.326899 2.96202 0
M  V30 3273 H 303.532 0.173057 1.46078 0
M  V30 3274 H 305.49 -2.06241 3.62658 0
M  V30 3275 H 304.12 -2.05992 2.4853 0
M  V30 3276 H 303.172 -0.0307404 3.80388 0
M  V30 3277 H 304.484 -0.259663 4.98124 0
M  V30 3278 H 303.638 -2.55714 5.50177 0
M  V30 3279 H 302.377 -2.39819 4.24662 0
M  V30 3280 H 301.382 -0.450776 5.47949 0
M  V30 3281 H 302.607 -0.631202 6.7616 0
M  V30 3282 H 300.553 -2.72919 5.96533 0
M  V30 3283 H 300.47 -1.70938 7.36421 0
M  V30 3284 H 301.738 -2.89191 7.23871 0
M  V30 3285 N 305.967 -1.56429 0.191757 0
M  V30 3286 C 307.383 -1.58754 -0.164137 0
M  V30 3287 C 307.583 -1.20782 -1.61288 0
M  V30 3288 O 306.639 -0.928999 -2.34789 0
M  V30 3289 C 307.952 -3.00396 0.135195 0
M  V30 3290 C 309.5 -3.1291 0.0750351 0
M  V30 3291 C 309.975 -4.56679 0.347632 0
M  V30 3292 N 311.466 -4.62252 0.296131 0
M  V30 3293 C 312.201 -5.71379 0.480948 0
M  V30 3294 N 311.697 -6.88986 0.725933 0
M  V30 3295 N 313.49 -5.60563 0.415435 0
M  V30 3296 H 305.641 -1.79393 1.13718 0
M  V30 3297 H 307.904 -0.832414 0.453643 0
M  V30 3298 H 307.61 -3.32726 1.13958 0
M  V30 3299 H 307.484 -3.72963 -0.563773 0
M  V30 3300 H 309.871 -2.80394 -0.919948 0
M  V30 3301 H 309.952 -2.42736 0.807029 0
M  V30 3302 H 309.596 -4.89907 1.33992 0
M  V30 3303 H 309.526 -5.25039 -0.405212 0
M  V30 3304 H 312.017 -3.7773 0.113259 0
M  V30 3305 H 312.33 -7.68046 0.855857 0
M  V30 3306 H 310.675 -6.90801 0.762788 0
M  V30 3307 H 313.866 -4.67561 0.224486 0
M  V30 3308 H 314.039 -6.45551 0.562889 0
M  V30 3309 N 307.445 0.0818655 -1.57387 0
M  V30 3310 C 308.375 1.09885 -2.06028 0
M  V30 3311 C 309.356 1.4098 -0.951774 0
M  V30 3312 O 310.541 1.50781 -1.22387 0
M  V30 3313 C 307.671 2.4151 -2.4958 0
M  V30 3314 C 306.625 2.24792 -3.64215 0
M  V30 3315 C 305.951 3.61712 -3.93787 0
M  V30 3316 C 307.251 1.67749 -4.94629 0
M  V30 3317 H 308.945 0.694128 -2.91243 0
M  V30 3318 H 306.491 0.332448 -1.4011 0
M  V30 3319 H 308.444 3.12939 -2.82219 0
M  V30 3320 H 307.168 2.83943 -1.61381 0
M  V30 3321 H 305.827 1.55807 -3.31843 0
M  V30 3322 H 305.475 4.01697 -3.02735 0
M  V30 3323 H 305.175 3.51368 -4.70971 0
M  V30 3324 H 306.699 4.34587 -4.28913 0
M  V30 3325 H 308.113 2.29032 -5.25564 0
M  V30 3326 H 306.51 1.68128 -5.76067 0
M  V30 3327 H 307.58 0.638059 -4.80684 0
M  V30 3328 N 308.923 1.53595 0.353017 0
M  V30 3329 C 310.169 1.70638 1.09593 0
M  V30 3330 C 310.502 0.463286 1.88593 0
M  V30 3331 O 309.777 -0.539597 1.86865 0
M  V30 3332 C 310.06 2.96406 2.04489 0
M  V30 3333 C 309.913 4.30901 1.29014 0
M  V30 3334 C 311.232 3.17812 3.0444 0
M  V30 3335 H 308.351 0.620913 0.397034 0
M  V30 3336 H 310.993 1.86254 0.375446 0
M  V30 3337 H 309.143 2.83223 2.65927 0
M  V30 3338 H 310.815 4.55917 0.702638 0
M  V30 3339 H 309.058 4.29741 0.592071 0
M  V30 3340 H 309.729 5.1506 1.98537 0
M  V30 3341 H 312.205 3.30263 2.53112 0
M  V30 3342 H 311.081 4.07223 3.6805 0
M  V30 3343 H 311.342 2.33669 3.75301 0
M  V30 3344 N 310.401 -0.613514 1.45168 0
M  V30 3345 C 311.817 -0.933629 1.29443 0
M  V30 3346 C 312.017 -2.00028 0.243101 0
M  V30 3347 O 311.073 -2.49848 -0.364992 0
M  V30 3348 C 312.386 -1.38018 2.67155 0
M  V30 3349 C 313.934 -1.49471 2.75004 0
M  V30 3350 C 314.409 -1.97503 4.13227 0
M  V30 3351 N 315.9 -2.04746 4.15491 0
M  V30 3352 C 316.635 -2.43121 5.19307 0
M  V30 3353 N 316.131 -2.80506 6.33473 0
M  V30 3354 N 317.924 -2.43408 5.06664 0
M  V30 3355 H 310.075 0.0916097 2.12202 0
M  V30 3356 H 312.338 -0.0216655 0.947752 0
M  V30 3357 H 312.044 -0.670625 3.45247 0
M  V30 3358 H 311.918 -2.34784 2.95222 0
M  V30 3359 H 314.305 -2.19519 1.9722 0
M  V30 3360 H 314.386 -0.510342 2.50657 0
M  V30 3361 H 314.03 -1.28045 4.91495 0
M  V30 3362 H 313.96 -2.96843 4.34962 0
M  V30 3363 H 316.451 -1.78468 3.33103 0
M  V30 3364 H 316.764 -3.08652 7.08487 0
M  V30 3365 H 315.109 -2.78216 6.36884 0
M  V30 3366 H 318.3 -2.13604 4.16523 0
M  V30 3367 H 318.473 -2.72989 5.87691 0
M  V30 3368 N 311.879 -1.3236 -0.855495 0
M  V30 3369 C 312.842 -1.21164 -1.94556 0
M  V30 3370 C 313.842 -0.134908 -1.60233 0
M  V30 3371 O 315.032 -0.385249 -1.69887 0
M  V30 3372 C 312.164 -0.863192 -3.29791 0
M  V30 3373 H 313.357 -2.18038 -2.05911 0
M  V30 3374 H 310.91 -1.16179 -1.04557 0
M  V30 3375 H 311.645 0.103769 -3.24134 0
M  V30 3376 H 311.43 -1.64166 -3.56078 0
M  V30 3377 H 312.92 -0.809156 -4.09686 0
M  V30 3378 N 313.357 1.07166 -1.15556 0
M  V30 3379 C 314.32 2.12589 -0.856644 0
M  V30 3380 C 315.32 1.6015 0.14444 0
M  V30 3381 O 316.51 1.7399 -0.0854163 0
M  V30 3382 C 313.642 3.39753 -0.279405 0
M  V30 3383 H 314.835 2.40539 -1.79112 0
M  V30 3384 H 312.388 1.23086 -0.963298 0
M  V30 3385 H 313.123 3.17447 0.663174 0
M  V30 3386 H 312.908 3.79117 -1.00063 0
M  V30 3387 H 314.398 4.17507 -0.0879113 0
M  V30 3388 N 314.835 0.952656 1.25548 0
M  V30 3389 C 316.084 0.602053 1.92505 0
M  V30 3390 C 316.397 -0.864663 1.75451 0
M  V30 3391 O 317.603 -1.32514 2.36965 0
M  V30 3392 C 316.059 1.02607 3.44963 0
M  V30 3393 C 315.667 2.51519 3.70732 0
M  V30 3394 C 317.411 0.747905 4.1786 0
M  V30 3395 C 315.318 2.87732 5.16686 0
M  V30 3396 H 314.248 0.22146 0.720744 0
M  V30 3397 H 316.899 1.15684 1.42441 0
M  V30 3398 H 315.281 0.399712 3.93978 0
M  V30 3399 H 316.455 3.19157 3.32378 0
M  V30 3400 H 314.77 2.76786 3.11092 0
M  V30 3401 H 317.367 0.994647 5.25367 0
M  V30 3402 H 317.71 -0.315629 4.15102 0
M  V30 3403 H 318.243 1.33452 3.74747 0
M  V30 3404 H 314.982 3.93095 5.24554 0
M  V30 3405 H 314.502 2.24765 5.56094 0
M  V30 3406 H 316.181 2.76817 5.84792 0
M  V30 3407 N 316.313 -1.40141 0.720998 0
M  V30 3408 C 317.223 -2.34486 0.0731031 0
M  V30 3409 C 318.239 -1.57587 -0.737723 0
M  V30 3410 O 319.415 -1.89949 -0.669429 0
M  V30 3411 C 316.48 -3.36528 -0.833656 0
M  V30 3412 C 315.541 -4.29298 -0.0121673 0
M  V30 3413 C 314.774 -5.26466 -0.875742 0
M  V30 3414 O 314.997 -5.29745 -2.11485 0
M  V30 3415 O 313.931 -6.01092 -0.31185 0
M  V30 3416 H 317.757 -2.9152 0.851444 0
M  V30 3417 H 315.342 -1.41427 0.481527 0
M  V30 3418 H 317.224 -3.99093 -1.35289 0
M  V30 3419 H 315.899 -2.81899 -1.59105 0
M  V30 3420 H 314.806 -3.70001 0.552262 0
M  V30 3421 H 316.139 -4.87094 0.707129 0
M  V30 3422 N 317.792 -0.46758 -1.50504 0
M  V30 3423 C 319.022 0.086288 -2.0642 0
M  V30 3424 C 319.43 1.34369 -1.33197 0
M  V30 3425 O 318.773 1.79431 -0.393747 0
M  V30 3426 C 318.835 0.443846 -3.5675 0
M  V30 3427 C 318.499 -0.711035 -4.51435 0
M  V30 3428 C 319.496 -1.59205 -4.94924 0
M  V30 3429 C 317.181 -0.900363 -4.94165 0
M  V30 3430 C 319.175 -2.64683 -5.79846 0
M  V30 3431 C 316.862 -1.95837 -5.7887 0
M  V30 3432 C 317.86 -2.82997 -6.21612 0
M  V30 3433 O 317.548 -3.86977 -7.0463 0
M  V30 3434 H 317.28 -0.00217814 -0.675996 0
M  V30 3435 H 319.834 -0.654346 -1.94698 0
M  V30 3436 H 318.064 1.23762 -3.6636 0
M  V30 3437 H 319.753 0.932386 -3.95046 0
M  V30 3438 H 320.519 -1.45745 -4.62583 0
M  V30 3439 H 316.398 -0.231427 -4.60419 0
M  V30 3440 H 319.942 -3.32745 -6.13128 0
M  V30 3441 H 315.839 -2.09305 -6.10624 0
M  V30 3442 H 316.607 -3.83923 -7.22873 0
M  V30 3443 N 319.27 1.56325 -0.20005 0
M  V30 3444 C 320.233 2.18084 0.705132 0
M  V30 3445 C 321.233 1.13666 1.1374 0
M  V30 3446 O 322.423 1.39023 1.04968 0
M  V30 3447 C 319.555 2.78689 1.96329 0
M  V30 3448 H 320.748 2.99435 0.167023 0
M  V30 3449 H 318.301 1.56221 0.0495725 0
M  V30 3450 H 319.036 2.0115 2.5438 0
M  V30 3451 H 318.821 3.55133 1.66202 0
M  V30 3452 H 320.311 3.26096 2.60866 0
M  V30 3453 N 320.748 -0.0735177 1.57428 0
M  V30 3454 C 321.997 -0.771809 1.86349 0
M  V30 3455 C 322.31 -1.78828 0.792452 0
M  V30 3456 O 323.516 -2.53602 0.96945 0
M  V30 3457 C 321.972 -1.42358 3.30548 0
M  V30 3458 C 321.58 -0.445761 4.45777 0
M  V30 3459 C 323.324 -2.10434 3.6867 0
M  V30 3460 C 321.231 -1.10335 5.81016 0
M  V30 3461 H 320.161 -0.291999 0.695164 0
M  V30 3462 H 322.812 -0.0250749 1.83483 0
M  V30 3463 H 321.194 -2.21852 3.28021 0
M  V30 3464 H 322.368 0.319239 4.59693 0
M  V30 3465 H 320.683 0.130457 4.16196 0
M  V30 3466 H 323.28 -2.60405 4.67004 0
M  V30 3467 H 323.623 -2.90298 2.98383 0
M  V30 3468 H 324.156 -1.37773 3.7318 0
M  V30 3469 H 320.895 -0.345061 6.54591 0
M  V30 3470 H 320.415 -1.83925 5.70904 0
M  V30 3471 H 322.094 -1.62367 6.26295 0
M  V30 3472 N 322.226 -1.5378 -0.344866 0
M  V30 3473 C 323.189 -1.80981 -1.40637 0
M  V30 3474 C 324.189 -0.680816 -1.45676 0
M  V30 3475 O 325.379 -0.949095 -1.46075 0
M  V30 3476 C 322.511 -1.95063 -2.79577 0
M  V30 3477 H 323.704 -2.75803 -1.17783 0
M  V30 3478 H 321.257 -1.45173 -0.579181 0
M  V30 3479 H 321.992 -1.02379 -3.07716 0
M  V30 3480 H 321.777 -2.77198 -2.77315 0
M  V30 3481 H 323.267 -2.17629 -3.56409 0
M  V30 3482 N 323.704 0.605807 -1.45491 0
M  V30 3483 C 324.652 1.73754 -1.54636 0
M  V30 3484 C 325.646 1.64207 -0.416219 0
M  V30 3485 O 326.852 1.69979 -0.592199 0
M  V30 3486 H 323.227 0.574073 -0.485741 0
M  V30 3487 H 325.198 1.63169 -2.49837 0
M  V30 3488 C 323.947 3.12135 -1.53189 0
M  V30 3489 H 323.27 3.20141 -2.39478 0
M  V30 3490 H 324.71 3.91147 -1.63645 0
M  V30 3491 C 323.169 3.35921 -0.256616 0
M  V30 3492 O 323.699 3.96194 0.662798 0
M  V30 3493 N 321.905 2.90204 -0.151751 0
M  V30 3494 H 321.452 2.41336 -0.90081 0
M  V30 3495 H 321.41 3.06492 0.700699 0
M  V30 3496 N 325.182 1.32811 0.848464 0
M  V30 3497 C 326.459 1.14334 1.58704 0
M  V30 3498 C 326.839 -0.293948 2.09043 0
M  V30 3499 O 326.187 -1.29153 1.88499 0
M  V30 3500 C 326.397 2.17626 2.72837 0
M  V30 3501 C 327.745 2.51282 3.42261 0
M  V30 3502 O 328.769 2.16219 2.83068 0
M  V30 3503 O 327.628 3.11413 4.49093 0
M  V30 3504 H 324.722 0.441601 0.699226 0
M  V30 3505 H 327.268 1.44362 0.892053 0
M  V30 3506 H 326.04 3.14211 2.3321 0
M  V30 3507 H 325.663 1.88628 3.50008 0
M  V30 3508 N 326.66 -1.06551 1.16123 0
M  V30 3509 C 328.076 -1.3142 0.905585 0
M  V30 3510 C 328.276 -1.96571 -0.442964 0
M  V30 3511 O 327.332 -2.23068 -1.18308 0
M  V30 3512 C 328.645 -2.19741 2.05267 0
M  V30 3513 C 330.193 -2.33165 2.08813 0
M  V30 3514 C 330.668 -3.24838 3.22868 0
M  V30 3515 N 332.159 -3.32421 3.22568 0
M  V30 3516 C 332.894 -4.0344 4.0746 0
M  V30 3517 N 332.39 -4.77003 5.02434 0
M  V30 3518 N 334.183 -3.99464 3.95456 0
M  V30 3519 H 326.334 -0.626548 2.02949 0
M  V30 3520 H 328.597 -0.338777 0.8854 0
M  V30 3521 H 328.303 -1.79142 3.02657 0
M  V30 3522 H 328.177 -3.20313 1.99198 0
M  V30 3523 H 330.564 -2.73013 1.12018 0
M  V30 3524 H 330.645 -1.3227 2.18948 0
M  V30 3525 H 330.289 -2.85708 4.19921 0
M  V30 3526 H 330.219 -4.25707 3.0997 0
M  V30 3527 H 332.71 -2.79994 2.53795 0
M  V30 3528 H 333.023 -5.28712 5.63634 0
M  V30 3529 H 331.368 -4.75992 5.06415 0
M  V30 3530 H 334.559 -3.4111 3.20564 0
M  V30 3531 H 334.732 -4.54544 4.61837 0
M  V30 3532 N 328.138 -0.959301 -1.25041 0
M  V30 3533 C 329.415 -0.533805 -1.88175 0
M  V30 3534 C 329.795 0.988994 -1.865 0
M  V30 3535 O 329.143 1.85677 -1.33177 0
M  V30 3536 C 329.353 -1.11575 -3.30684 0
M  V30 3537 C 330.701 -1.19548 -4.07423 0
M  V30 3538 O 331.725 -1.06765 -3.39823 0
M  V30 3539 O 330.584 -1.39656 -5.28354 0
M  V30 3540 H 327.678 -0.176772 -0.807887 0
M  V30 3541 H 330.224 -1.05303 -1.33076 0
M  V30 3542 H 328.996 -2.15884 -3.26358 0
M  V30 3543 H 328.619 -0.580059 -3.93346 0
M  V30 3544 N 329.616 1.39756 -0.72842 0
M  V30 3545 C 330.841 2.05472 -0.282159 0
M  V30 3546 C 331.266 1.54549 1.07221 0
M  V30 3547 O 330.624 0.686372 1.67805 0
M  V30 3548 C 330.672 3.59462 -0.286264 0
M  V30 3549 O 329.776 4.05918 0.728298 0
M  V30 3550 H 329.117 0.651226 -0.129618 0
M  V30 3551 H 331.647 1.78915 -0.992499 0
M  V30 3552 H 331.657 4.07798 -0.128373 0
M  V30 3553 H 330.332 3.95889 -1.27456 0
M  V30 3554 H 328.909 3.69012 0.537081 0
M  V30 3555 N 331.094 0.475555 1.50254 0
M  V30 3556 C 332.34 -0.0780073 2.0265 0
M  V30 3557 C 332.673 -1.38968 1.35652 0
M  V30 3558 O 331.948 -1.8839 0.483691 0
M  V30 3559 C 332.231 -0.257161 3.59181 0
M  V30 3560 C 332.084 1.07585 4.36744 0
M  V30 3561 C 333.403 -1.00965 4.28362 0
M  V30 3562 H 330.522 -0.0268758 0.73651 0
M  V30 3563 H 333.164 0.622015 1.7953 0
M  V30 3564 H 331.314 -0.853412 3.79011 0
M  V30 3565 H 332.986 1.70902 4.28474 0
M  V30 3566 H 331.229 1.6714 4.00308 0
M  V30 3567 H 331.9 0.904088 5.44546 0
M  V30 3568 H 334.376 -0.504214 4.13034 0
M  V30 3569 H 333.252 -1.10381 5.37687 0
M  V30 3570 H 333.513 -2.04731 3.91839 0
M  V30 3571 N 332.573 -1.56217 0.208337 0
M  V30 3572 C 333.801 -2.02337 -0.43215 0
M  V30 3573 C 334.216 -1.08834 -1.54275 0
M  V30 3574 O 333.573 -0.0955462 -1.8225 0
M  V30 3575 C 333.624 -3.48072 -0.976138 0
M  V30 3576 O 333.345 -4.38007 0.0901621 0
M  V30 3577 C 334.846 -4.09773 -1.69119 0
M  V30 3578 H 332.066 -0.662385 -0.10718 0
M  V30 3579 H 334.61 -2.01966 0.320923 0
M  V30 3580 H 332.765 -3.49099 -1.67954 0
M  V30 3581 H 333.179 -5.23543 -0.316701 0
M  V30 3582 H 334.653 -5.13556 -2.02397 0
M  V30 3583 H 335.13 -3.53999 -2.59964 0
M  V30 3584 H 335.736 -4.12556 -1.03332 0
M  V30 3585 N 334.051 0.0651679 -1.57465 0
M  V30 3586 C 334.981 1.07693 -2.07182 0
M  V30 3587 C 335.962 1.39962 -0.966673 0
M  V30 3588 O 337.147 1.49475 -1.2398 0
M  V30 3589 C 334.277 2.3885 -2.52127 0
M  V30 3590 C 333.231 2.20917 -3.66579 0
M  V30 3591 C 332.557 3.57515 -3.97601 0
M  V30 3592 C 333.857 1.62493 -4.9638 0
M  V30 3593 H 335.551 0.663199 -2.91962 0
M  V30 3594 H 333.097 0.317569 -1.40455 0
M  V30 3595 H 335.05 3.09928 -2.85522 0
M  V30 3596 H 333.774 2.82215 -1.64384 0
M  V30 3597 H 332.433 1.52279 -3.33477 0
M  V30 3598 H 332.081 3.98463 -3.06979 0
M  V30 3599 H 331.781 3.46353 -4.74672 0
M  V30 3600 H 333.305 4.30013 -4.33499 0
M  V30 3601 H 334.719 2.23445 -5.27963 0
M  V30 3602 H 333.116 1.62009 -5.77818 0
M  V30 3603 H 334.186 0.587041 -4.81333 0
M  V30 3604 N 335.529 1.53961 0.336706 0
M  V30 3605 C 336.775 1.7179 1.07777 0
M  V30 3606 C 337.108 0.483263 1.88091 0
M  V30 3607 O 336.383 -0.519747 1.87427 0
M  V30 3608 C 336.666 2.98558 2.01334 0
M  V30 3609 C 336.519 4.32245 1.24437 0
M  V30 3610 C 337.838 3.21023 3.01052 0
M  V30 3611 H 334.957 0.625089 0.390426 0
M  V30 3612 H 337.599 1.86641 0.35567 0
M  V30 3613 H 335.749 2.86028 2.62908 0
M  V30 3614 H 337.421 4.56637 0.654243 0
M  V30 3615 H 335.664 4.30344 0.546458 0
M  V30 3616 H 336.335 5.17137 1.93063 0
M  V30 3617 H 338.811 3.32929 2.49595 0
M  V30 3618 H 337.687 4.11104 3.6371 0
M  V30 3619 H 337.948 2.37637 3.72802 0
M  V30 3620 N 337.007 -0.598083 1.45811 0
M  V30 3621 C 337.957 -1.70272 1.51629 0
M  V30 3622 C 338.941 -1.56382 0.378629 0
M  V30 3623 O 340.133 -1.65557 0.626087 0
M  V30 3624 C 337.262 -3.09042 1.49493 0
M  V30 3625 C 336.348 -3.28284 2.68496 0
M  V30 3626 N 336.739 -3.17748 3.93535 0
M  V30 3627 C 335.037 -3.59182 2.64394 0
M  V30 3628 C 335.738 -3.38579 4.7301 0
M  V30 3629 N 334.714 -3.63016 4.04624 0
M  V30 3630 H 338.516 -1.60634 2.46118 0
M  V30 3631 H 336.03 -0.801642 1.41235 0
M  V30 3632 H 338.027 -3.88302 1.51747 0
M  V30 3633 H 336.687 -3.19823 0.560683 0
M  V30 3634 H 337.698 -2.95944 4.25014 0
M  V30 3635 H 334.375 -3.76742 1.79922 0
M  V30 3636 H 335.765 -3.35747 5.82 0
M  V30 3637 N 338.485 -1.33259 -0.841409 0
M  V30 3638 C 339.432 -1.23302 -1.95103 0
M  V30 3639 C 340.402 -0.112204 -1.65721 0
M  V30 3640 O 341.587 -0.290038 -1.88583 0
M  V30 3641 C 338.727 -0.975583 -3.31023 0
M  V30 3642 C 337.84 -2.18243 -3.72819 0
M  V30 3643 C 336.975 -1.85936 -4.97595 0
M  V30 3644 C 336.014 -3.02866 -5.3192 0
M  V30 3645 N 335.151 -2.70565 -6.47873 0
M  V30 3646 H 339.991 -2.18207 -2.02952 0
M  V30 3647 H 337.528 -1.0851 -0.993173 0
M  V30 3648 H 339.486 -0.80677 -4.09325 0
M  V30 3649 H 338.116 -0.0632755 -3.22738 0
M  V30 3650 H 337.168 -2.46107 -2.90061 0
M  V30 3651 H 338.48 -3.05666 -3.94169 0
M  V30 3652 H 337.634 -1.65684 -5.83638 0
M  V30 3653 H 336.373 -0.957452 -4.78209 0
M  V30 3654 H 335.378 -3.23736 -4.44382 0
M  V30 3655 H 336.603 -3.93809 -5.53255 0
M  V30 3656 H 334.549 -1.8293 -6.29978 0
M  V30 3657 H 334.466 -3.51519 -6.69306 0
M  V30 3658 H 335.734 -2.53774 -7.37034 0
M  V30 3659 N 339.963 1.05934 -1.16686 0
M  V30 3660 C 341.211 1.78447 -0.948744 0
M  V30 3661 C 341.532 1.87813 0.524523 0
M  V30 3662 O 340.802 1.38945 1.38098 0
M  V30 3663 H 339.382 0.660971 -0.348033 0
M  V30 3664 H 342.044 1.27947 -1.47022 0
M  V30 3665 H 341.14 2.80394 -1.37061 0
M  V30 3666 N 341.441 0.965919 1.2453 0
M  V30 3667 C 342.389 0.486506 2.27455 0
M  V30 3668 C 343.383 -0.449041 1.6334 0
M  V30 3669 O 344.589 -0.324527 1.7705 0
M  V30 3670 H 340.964 0.138857 0.739069 0
M  V30 3671 H 342.935 1.3666 2.65267 0
M  V30 3672 C 341.684 -0.209481 3.47068 0
M  V30 3673 H 341.007 0.50129 3.96645 0
M  V30 3674 H 342.447 -0.508775 4.20936 0
M  V30 3675 C 340.906 -1.43586 3.0477 0
M  V30 3676 O 341.436 -2.53299 3.11773 0
M  V30 3677 N 339.642 -1.30126 2.59838 0
M  V30 3678 H 339.189 -0.408583 2.54339 0
M  V30 3679 H 339.147 -2.12294 2.31902 0
M  V30 3680 N 342.919 -1.39368 0.735821 0
M  V30 3681 C 344.168 -1.99733 0.281004 0
M  V30 3682 C 344.481 -1.59055 -1.13846 0
M  V30 3683 O 345.687 -2.12262 -1.69284 0
M  V30 3684 C 344.143 -3.57057 0.451462 0
M  V30 3685 C 343.751 -4.06697 1.87886 0
M  V30 3686 C 345.495 -4.2446 0.0584616 0
M  V30 3687 C 343.402 -5.56598 1.99883 0
M  V30 3688 H 342.332 -0.747163 0.101311 0
M  V30 3689 H 344.983 -1.59357 0.909819 0
M  V30 3690 H 343.365 -3.95234 -0.246263 0
M  V30 3691 H 344.539 -3.79853 2.60861 0
M  V30 3692 H 342.854 -3.5196 2.22515 0
M  V30 3693 H 345.451 -5.34549 0.127099 0
M  V30 3694 H 345.794 -4.04444 -0.986433 0
M  V30 3695 H 346.327 -3.9146 0.707374 0
M  V30 3696 H 343.066 -5.81494 3.02564 0
M  V30 3697 H 342.586 -5.85242 1.31346 0
M  V30 3698 H 344.265 -6.22022 1.78039 0
M  V30 3699 N 344.397 -0.483516 -1.5 0
M  V30 3700 C 345.33 0.350427 -2.25493 0
M  V30 3701 C 346.308 0.985549 -1.29328 0
M  V30 3702 O 347.492 1.01906 -1.58579 0
M  V30 3703 C 344.619 1.49202 -3.04066 0
M  V30 3704 C 343.665 0.973036 -4.15252 0
M  V30 3705 S 344.498 -0.122237 -5.3536 0
M  V30 3706 C 345.654 1.02294 -6.17484 0
M  V30 3707 H 345.887 -0.290381 -2.95878 0
M  V30 3708 H 343.42 -0.268562 -1.52046 0
M  V30 3709 H 345.378 2.14623 -3.49925 0
M  V30 3710 H 344.039 2.10438 -2.33183 0
M  V30 3711 H 343.232 1.82804 -4.69679 0
M  V30 3712 H 342.834 0.396335 -3.71894 0
M  V30 3713 H 345.126 1.93195 -6.49371 0
M  V30 3714 H 346.069 0.517664 -7.06205 0
M  V30 3715 H 346.477 1.28238 -5.49741 0
M  V30 3716 N 345.875 1.56104 -0.216619 0
M  V30 3717 C 346.822 2.2007 0.695531 0
M  V30 3718 C 347.792 1.15471 1.19397 0
M  V30 3719 O 348.977 1.43807 1.25396 0
M  V30 3720 C 346.117 2.88073 1.90021 0
M  V30 3721 C 345.23 4.07253 1.44113 0
M  V30 3722 C 344.365 4.63052 2.603 0
M  V30 3723 C 343.404 5.74545 2.11103 0
M  V30 3724 N 342.541 6.24656 3.20545 0
M  V30 3725 H 347.381 2.97655 0.143327 0
M  V30 3726 H 344.918 1.46982 0.0589934 0
M  V30 3727 H 346.876 3.25681 2.60745 0
M  V30 3728 H 345.506 2.13015 2.42538 0
M  V30 3729 H 344.558 3.75164 0.628999 0
M  V30 3730 H 345.87 4.8783 1.04036 0
M  V30 3731 H 345.024 5.03078 3.39113 0
M  V30 3732 H 343.763 3.81628 3.03663 0
M  V30 3733 H 342.768 5.34027 1.3075 0
M  V30 3734 H 343.993 6.57801 1.68746 0
M  V30 3735 H 341.939 5.46148 3.63399 0
M  V30 3736 H 341.856 7.00343 2.84704 0
M  V30 3737 H 343.124 6.69338 3.99508 0
M  V30 3738 N 347.353 -0.0568162 1.57498 0
M  V30 3739 C 348.6 -0.753104 1.87975 0
M  V30 3740 C 348.928 -1.76815 0.81035 0
M  V30 3741 O 348.183 -1.94756 -0.19199 0
M  V30 3742 C 348.482 -1.48359 3.25153 0
M  V30 3743 C 348.148 -0.60713 4.46794 0
M  V30 3744 C 346.81 -0.365642 4.79809 0
M  V30 3745 C 349.162 -0.000305978 5.212 0
M  V30 3746 C 346.49 0.491905 5.84634 0
M  V30 3747 C 348.842 0.844781 6.26934 0
M  V30 3748 C 347.506 1.096 6.58441 0
M  V30 3749 H 346.776 -0.27558 0.687849 0
M  V30 3750 H 349.423 -0.0135173 1.91495 0
M  V30 3751 H 347.728 -2.29577 3.17492 0
M  V30 3752 H 349.425 -2.02739 3.45974 0
M  V30 3753 H 346.015 -0.805487 4.20963 0
M  V30 3754 H 350.199 -0.173961 4.95995 0
M  V30 3755 H 345.455 0.695131 6.07436 0
M  V30 3756 H 349.629 1.32165 6.83744 0
M  V30 3757 H 347.256 1.76224 7.39492 0
M  V30 3758 N 348.832 -1.54138 -0.328536 0
M  V30 3759 C 350.06 -1.76062 -1.08673 0
M  V30 3760 C 350.475 -0.506852 -1.81869 0
M  V30 3761 O 349.832 0.522223 -1.74869 0
M  V30 3762 C 349.883 -2.95054 -2.08866 0
M  V30 3763 O 349.604 -4.15583 -1.38644 0
M  V30 3764 C 351.105 -3.2915 -2.96943 0
M  V30 3765 H 348.325 -0.587889 -0.323461 0
M  V30 3766 H 350.869 -2.0101 -0.376175 0
M  V30 3767 H 349.024 -2.72394 -2.75464 0
M  V30 3768 H 349.438 -4.82481 -2.05699 0
M  V30 3769 H 350.912 -4.15723 -3.63151 0
M  V30 3770 H 351.389 -2.461 -3.63774 0
M  V30 3771 H 351.995 -3.53871 -2.35914 0
M  V30 3772 N 350.31 0.590341 -1.46126 0
M  V30 3773 C 351.22 1.72793 -1.58681 0
M  V30 3774 C 352.236 1.67516 -0.470566 0
M  V30 3775 O 353.412 1.87562 -0.733642 0
M  V30 3776 C 350.477 3.09287 -1.5666 0
M  V30 3777 C 349.538 3.25886 -2.79458 0
M  V30 3778 C 348.771 4.55869 -2.77524 0
M  V30 3779 O 348.994 5.3928 -1.85832 0
M  V30 3780 O 347.928 4.75552 -3.68964 0
M  V30 3781 H 351.754 1.65149 -2.54872 0
M  V30 3782 H 349.339 0.756486 -1.28832 0
M  V30 3783 H 351.221 3.90577 -1.58202 0
M  V30 3784 H 349.896 3.17385 -0.636271 0
M  V30 3785 H 348.803 2.44119 -2.83472 0
M  V30 3786 H 350.136 3.22675 -3.71674 0
M  V30 3787 N 351.788 1.33704 0.83433 0
M  V30 3788 C 353.036 1.25169 1.58673 0
M  V30 3789 C 353.357 -0.18127 1.94156 0
M  V30 3790 O 352.627 -1.11113 1.6134 0
M  V30 3791 H 351.207 0.4603 0.58833 0
M  V30 3792 H 353.869 1.67478 0.996847 0
M  V30 3793 H 352.965 1.84856 2.51465 0
M  V30 3794 N 353.266 -1.05314 1.17247 0
M  V30 3795 C 354.229 -2.112 0.890357 0
M  V30 3796 C 355.229 -1.60359 -0.118943 0
M  V30 3797 O 356.419 -1.73833 0.113086 0
M  V30 3798 C 353.551 -3.39266 0.333422 0
M  V30 3799 H 354.744 -2.37659 1.82916 0
M  V30 3800 H 352.297 -1.21538 0.982758 0
M  V30 3801 H 353.032 -3.18462 -0.612587 0
M  V30 3802 H 352.817 -3.77477 1.06082 0
M  V30 3803 H 354.307 -4.17315 0.154322 0
M  V30 3804 N 354.744 -0.972509 -1.24016 0
M  V30 3805 C 355.991 -0.637034 -1.92219 0
M  V30 3806 C 356.319 0.828418 -1.75976 0
M  V30 3807 O 355.574 1.61206 -1.10955 0
M  V30 3808 C 355.873 -0.963694 -3.44162 0
M  V30 3809 C 355.539 -2.41807 -3.80579 0
M  V30 3810 C 354.201 -2.81556 -3.9023 0
M  V30 3811 C 356.553 -3.36172 -3.98293 0
M  V30 3812 C 353.881 -4.14702 -4.15017 0
M  V30 3813 C 356.233 -4.68952 -4.24578 0
M  V30 3814 C 354.897 -5.08472 -4.32449 0
M  V30 3815 H 354.167 -0.233107 -0.703379 0
M  V30 3816 H 356.814 -1.2249 -1.47202 0
M  V30 3817 H 355.119 -0.29365 -3.90698 0
M  V30 3818 H 356.816 -0.682449 -3.9515 0
M  V30 3819 H 353.406 -2.09988 -3.73635 0
M  V30 3820 H 357.59 -3.06644 -3.90234 0
M  V30 3821 H 352.846 -4.4494 -4.19331 0
M  V30 3822 H 357.02 -5.42037 -4.37229 0
M  V30 3823 H 354.647 -6.11665 -4.51409 0
M  V30 3824 N 356.222 1.38976 -0.743202 0
M  V30 3825 C 357.169 2.30544 -0.10861 0
M  V30 3826 C 358.139 1.49642 0.720869 0
M  V30 3827 O 359.324 1.78304 0.679142 0
M  V30 3828 C 356.464 3.36018 0.786496 0
M  V30 3829 C 355.577 4.31963 -0.0564849 0
M  V30 3830 C 354.712 5.24506 0.840657 0
M  V30 3831 C 353.751 6.121 -0.00658363 0
M  V30 3832 N 352.888 6.96973 0.846943 0
M  V30 3833 H 357.728 2.8424 -0.895088 0
M  V30 3834 H 355.265 1.3995 -0.453048 0
M  V30 3835 H 357.223 3.95768 1.31999 0
M  V30 3836 H 355.853 2.83758 1.53887 0
M  V30 3837 H 354.905 3.73763 -0.707492 0
M  V30 3838 H 356.217 4.93703 -0.711229 0
M  V30 3839 H 355.371 5.89322 1.4417 0
M  V30 3840 H 354.11 4.63107 1.52916 0
M  V30 3841 H 353.115 5.46289 -0.620366 0
M  V30 3842 H 354.34 6.75565 -0.691992 0
M  V30 3843 H 352.286 6.38133 1.52059 0
M  V30 3844 H 352.203 7.5559 0.248864 0
M  V30 3845 H 353.471 7.6621 1.43328 0
M  V30 3846 N 357.7 0.491464 1.49741 0
M  V30 3847 C 358.977 -0.118984 1.95238 0
M  V30 3848 C 359.357 -1.55044 1.43264 0
M  V30 3849 O 358.705 -2.19287 0.642287 0
M  V30 3850 C 358.915 -0.0414187 3.48975 0
M  V30 3851 C 360.263 -0.220133 4.24029 0
M  V30 3852 O 361.287 -0.117055 3.56008 0
M  V30 3853 O 360.146 -0.430567 5.44801 0
M  V30 3854 H 357.24 -0.100536 0.820866 0
M  V30 3855 H 359.786 0.553322 1.60426 0
M  V30 3856 H 358.558 0.957214 3.79412 0
M  V30 3857 H 358.181 -0.754292 3.9038 0
M  V30 3858 N 359.178 -1.55987 0.224894 0
M  V30 3859 C 360.424 -1.99433 -0.39973 0
M  V30 3860 C 360.779 -1.11004 -1.57149 0
M  V30 3861 O 360.072 -0.160725 -1.90925 0
M  V30 3862 C 360.266 -3.46394 -0.880106 0
M  V30 3863 C 360.095 -4.4904 0.243565 0
M  V30 3864 C 358.865 -5.00272 0.711056 0
M  V30 3865 C 361.063 -5.03195 1.06299 0
M  V30 3866 N 359.045 -5.86628 1.80944 0
M  V30 3867 C 360.416 -5.86508 2.01017 0
M  V30 3868 C 362.471 -4.8555 1.10205 0
M  V30 3869 C 361.174 -6.54062 2.99324 0
M  V30 3870 C 363.2 -5.53866 2.07332 0
M  V30 3871 C 362.562 -6.3695 3.00789 0
M  V30 3872 H 358.661 -0.773815 -0.112847 0
M  V30 3873 H 361.245 -1.91754 0.337432 0
M  V30 3874 H 359.416 -3.54515 -1.58662 0
M  V30 3875 H 361.148 -3.76752 -1.47783 0
M  V30 3876 H 357.903 -4.72655 0.29906 0
M  V30 3877 H 358.327 -6.34507 2.36073 0
M  V30 3878 H 362.969 -4.20966 0.39343 0
M  V30 3879 H 360.687 -7.17827 3.71147 0
M  V30 3880 H 364.273 -5.42178 2.11032 0
M  V30 3881 H 363.153 -6.8888 3.74718 0
M  V30 3882 N 360.656 0.0484629 -1.57525 0
M  V30 3883 C 361.904 0.741657 -1.88 0
M  V30 3884 C 362.225 1.76918 -0.820054 0
M  V30 3885 O 361.495 1.95335 0.148661 0
M  V30 3886 H 360.075 0.276908 -0.69378 0
M  V30 3887 H 362.737 0.019013 -1.94891 0
M  V30 3888 H 361.833 1.24336 -2.86264 0
M  V30 3889 N 362.134 1.5431 0.320358 0
M  V30 3890 C 363.364 1.7638 1.07582 0
M  V30 3891 C 363.772 0.513944 1.82086 0
M  V30 3892 O 363.115 -0.525123 1.76035 0
M  V30 3893 C 363.177 2.9055 2.1171 0
M  V30 3894 C 362.841 4.2934 1.56575 0
M  V30 3895 C 363.838 5.10077 1.00586 0
M  V30 3896 C 361.523 4.75893 1.60722 0
M  V30 3897 C 363.517 6.35477 0.494756 0
M  V30 3898 C 361.204 6.0126 1.09224 0
M  V30 3899 C 362.202 6.80886 0.53696 0
M  V30 3900 O 361.89 8.03894 0.0297371 0
M  V30 3901 H 361.622 0.592369 0.325692 0
M  V30 3902 H 364.176 2.02019 0.37116 0
M  V30 3903 H 362.406 2.60489 2.85801 0
M  V30 3904 H 364.095 3.00373 2.73003 0
M  V30 3905 H 364.861 4.75265 0.966869 0
M  V30 3906 H 360.74 4.13957 2.02882 0
M  V30 3907 H 364.284 6.97574 0.0606842 0
M  V30 3908 H 360.181 6.35562 1.12831 0
M  V30 3909 H 360.949 8.18372 0.14486 0
M  V30 3910 N 363.613 -0.582584 1.46437 0
M  V30 3911 C 364.545 -1.70618 1.53043 0
M  V30 3912 C 365.558 -1.57322 0.418769 0
M  V30 3913 O 366.747 -1.64744 0.687136 0
M  V30 3914 C 363.847 -3.08869 1.39474 0
M  V30 3915 C 363.02 -3.48166 2.64762 0
M  V30 3916 C 362.079 -4.65478 2.4539 0
M  V30 3917 O 361.105 -4.71333 3.19114 0
M  V30 3918 N 362.307 -5.60365 1.51564 0
M  V30 3919 H 365.072 -1.65405 2.49923 0
M  V30 3920 H 362.633 -0.768567 1.42494 0
M  V30 3921 H 364.625 -3.85143 1.24287 0
M  V30 3922 H 363.195 -3.08449 0.507758 0
M  V30 3923 H 362.415 -2.61598 2.9489 0
M  V30 3924 H 363.703 -3.71188 3.4799 0
M  V30 3925 H 363.101 -5.5837 0.907705 0
M  V30 3926 H 361.658 -6.36068 1.4234 0
M  V30 3927 N 365.091 -1.34144 -0.827227 0
M  V30 3928 C 366.021 -1.28005 -1.95287 0
M  V30 3929 C 367.002 -0.158321 -1.69362 0
M  V30 3930 O 368.187 -0.349987 -1.9102 0
M  V30 3931 C 365.317 -1.03036 -3.31664 0
M  V30 3932 C 364.271 -2.11628 -3.72019 0
M  V30 3933 C 363.597 -1.71854 -5.0633 0
M  V30 3934 C 364.897 -3.53417 -3.8457 0
M  V30 3935 H 366.591 -2.22187 -2.00682 0
M  V30 3936 H 364.137 -1.0696 -0.964135 0
M  V30 3937 H 366.09 -0.973863 -4.09993 0
M  V30 3938 H 364.814 -0.0529391 -3.26557 0
M  V30 3939 H 363.473 -2.16339 -2.95961 0
M  V30 3940 H 363.121 -0.727841 -4.97706 0
M  V30 3941 H 362.821 -2.44531 -5.34302 0
M  V30 3942 H 364.345 -1.67692 -5.87122 0
M  V30 3943 H 365.759 -3.51142 -4.5318 0
M  V30 3944 H 364.156 -4.24679 -4.2399 0
M  V30 3945 H 365.226 -3.91072 -2.86689 0
M  V30 3946 N 366.569 1.04691 -1.17803 0
M  V30 3947 C 367.532 2.10724 -0.901545 0
M  V30 3948 C 368.532 1.6042 0.110437 0
M  V30 3949 O 369.722 1.7377 -0.122303 0
M  V30 3950 C 366.854 3.39084 -0.351409 0
M  V30 3951 H 368.047 2.36686 -1.84174 0
M  V30 3952 H 365.6 1.21015 -0.98919 0
M  V30 3953 H 366.335 3.18782 0.59569 0
M  V30 3954 H 366.12 3.76909 -1.08083 0
M  V30 3955 H 367.61 4.17227 -0.176451 0
M  V30 3956 N 368.047 0.979072 1.23499 0
M  V30 3957 C 369.463 0.687475 1.44034 0
M  V30 3958 C 369.663 -0.746801 1.8715 0
M  V30 3959 O 368.719 -1.51939 2.0167 0
M  V30 3960 C 370.032 1.68127 2.49307 0
M  V30 3961 C 371.58 1.69516 2.63122 0
M  V30 3962 C 372.055 2.67723 3.71603 0
M  V30 3963 N 373.546 2.66233 3.79044 0
M  V30 3964 C 374.281 3.38891 4.62537 0
M  V30 3965 N 373.777 4.21103 5.50131 0
M  V30 3966 N 375.57 3.27661 4.56721 0
M  V30 3967 H 367.721 1.90559 0.938135 0
M  V30 3968 H 369.984 0.821051 0.473897 0
M  V30 3969 H 369.69 2.70693 2.2454 0
M  V30 3970 H 369.564 1.46306 3.4767 0
M  V30 3971 H 371.951 0.676561 2.8724 0
M  V30 3972 H 372.032 1.95404 1.65079 0
M  V30 3973 H 371.676 3.69724 3.48233 0
M  V30 3974 H 371.606 2.39111 4.69184 0
M  V30 3975 H 374.097 2.06568 3.16446 0
M  V30 3976 H 374.41 4.73403 6.10827 0
M  V30 3977 H 372.755 4.25195 5.49759 0
M  V30 3978 H 375.946 2.62887 3.87309 0
M  V30 3979 H 376.119 3.84547 5.21562 0
M  V30 3980 N 369.525 -1.3858 0.750561 0
M  V30 3981 C 370.435 -2.34278 0.122825 0
M  V30 3982 C 371.451 -1.59116 -0.704131 0
M  V30 3983 O 372.627 -1.91326 -0.628987 0
M  V30 3984 C 369.692 -3.38221 -0.762086 0
M  V30 3985 C 368.753 -4.29227 0.078896 0
M  V30 3986 C 367.986 -5.28205 -0.763874 0
M  V30 3987 O 368.209 -5.34112 -2.00201 0
M  V30 3988 O 367.143 -6.01618 -0.18428 0
M  V30 3989 H 370.969 -2.89649 0.913088 0
M  V30 3990 H 368.554 -1.40374 0.511417 0
M  V30 3991 H 370.436 -4.01872 -1.26793 0
M  V30 3992 H 369.111 -2.85211 -1.5309 0
M  V30 3993 H 368.018 -3.68747 0.630621 0
M  V30 3994 H 369.351 -4.85484 0.810289 0
M  V30 3995 N 371.003 -0.499398 -1.49478 0
M  V30 3996 C 371.913 0.284489 -2.32869 0
M  V30 3997 C 372.929 0.968885 -1.44529 0
M  V30 3998 O 374.105 0.95062 -1.77553 0
M  V30 3999 C 371.17 1.33594 -3.19928 0
M  V30 4000 C 370.231 0.665149 -4.24116 0
M  V30 4001 C 369.464 1.6665 -5.07014 0
M  V30 4002 O 369.687 2.89618 -4.91404 0
M  V30 4003 O 368.621 1.22271 -5.8935 0
M  V30 4004 H 372.447 -0.39802 -3.01081 0
M  V30 4005 H 370.032 -0.260758 -1.47107 0
M  V30 4006 H 371.914 1.94431 -3.73864 0
M  V30 4007 H 370.589 2.0014 -2.54412 0
M  V30 4008 H 369.496 0.0170769 -3.74096 0
M  V30 4009 H 370.829 0.0421555 -4.92182 0
M  V30 4010 N 372.481 1.55866 -0.233164 0
M  V30 4011 C 373.728 1.98603 0.395374 0
M  V30 4012 C 374.056 1.12105 1.58942 0
M  V30 4013 O 373.311 0.168656 1.94972 0
M  V30 4014 C 373.61 3.46856 0.861724 0
M  V30 4015 C 373.276 4.50348 -0.223066 0
M  V30 4016 C 371.938 4.78371 -0.521038 0
M  V30 4017 C 374.29 5.12355 -0.956124 0
M  V30 4018 C 371.618 5.6568 -1.55638 0
M  V30 4019 C 373.97 6.00786 -1.98089 0
M  V30 4020 C 372.634 6.27148 -2.28565 0
M  V30 4021 H 371.904 0.726739 0.144677 0
M  V30 4022 H 374.551 1.88491 -0.338114 0
M  V30 4023 H 372.856 3.5423 1.67418 0
M  V30 4024 H 374.553 3.77302 1.35809 0
M  V30 4025 H 371.143 4.28596 0.0193234 0
M  V30 4026 H 375.327 4.90765 -0.739166 0
M  V30 4027 H 370.583 5.84365 -1.798 0
M  V30 4028 H 374.757 6.4788 -2.55391 0
M  V30 4029 H 372.384 6.94597 -3.08932 0
M  V30 4030 N 373.959 -0.0401083 1.57549 0
M  V30 4031 C 375.207 -0.731677 1.8839 0
M  V30 4032 C 375.528 -1.76481 0.829425 0
M  V30 4033 O 374.798 -1.95411 -0.1383 0
M  V30 4034 H 373.378 -0.273225 0.695239 0
M  V30 4035 H 376.04 -0.00867725 1.94898 0
M  V30 4036 H 375.136 -1.22816 2.86919 0
M  V30 4037 N 375.437 -1.54477 -0.31217 0
M  V30 4038 C 376.685 -1.72884 -1.04668 0
M  V30 4039 C 377.006 -0.511477 -1.88173 0
M  V30 4040 O 376.276 0.474407 -1.90069 0
M  V30 4041 H 374.856 -0.637461 -0.389425 0
M  V30 4042 H 377.518 -1.91807 -0.345852 0
M  V30 4043 H 376.614 -2.61334 -1.70619 0
M  V30 4044 N 376.915 0.57481 -1.46744 0
M  V30 4045 C 377.825 1.711 -1.60505 0
M  V30 4046 C 378.841 1.67008 -0.488307 0
M  V30 4047 O 380.017 1.86774 -0.753495 0
M  V30 4048 C 377.082 3.07608 -1.59932 0
M  V30 4049 C 376.143 3.22904 -2.82898 0
M  V30 4050 C 375.376 4.529 -2.82343 0
M  V30 4051 O 375.599 5.37278 -1.91542 0
M  V30 4052 O 374.533 4.71611 -3.73987 0
M  V30 4053 H 378.359 1.62436 -2.56609 0
M  V30 4054 H 375.944 0.742779 -1.29627 0
M  V30 4055 H 377.826 3.88877 -1.62336 0
M  V30 4056 H 376.501 3.16692 -0.669898 0
M  V30 4057 H 375.408 2.41099 -2.86046 0
M  V30 4058 H 376.741 3.18715 -3.75076 0
M  V30 4059 N 378.394 1.34581 0.820102 0
M  V30 4060 C 379.324 1.29038 1.94606 0
M  V30 4061 C 380.305 0.1673 1.69275 0
M  V30 4062 O 381.49 0.360112 1.90832 0
M  V30 4063 C 378.62 1.04793 3.31113 0
M  V30 4064 C 377.574 2.13597 3.70891 0
M  V30 4065 C 376.9 1.74537 5.05412 0
M  V30 4066 C 378.2 3.55451 3.8269 0
M  V30 4067 H 379.894 2.23248 1.99501 0
M  V30 4068 H 377.44 1.0747 0.958449 0
M  V30 4069 H 379.393 0.995592 4.0947 0
M  V30 4070 H 378.117 0.0702565 3.26524 0
M  V30 4071 H 376.776 2.17905 2.9481 0
M  V30 4072 H 376.424 0.754226 4.97313 0
M  V30 4073 H 376.124 2.47361 5.32997 0
M  V30 4074 H 377.648 1.70803 5.86224 0
M  V30 4075 H 379.062 3.5354 4.51312 0
M  V30 4076 H 377.459 4.26922 4.21732 0
M  V30 4077 H 378.529 3.92587 2.84611 0
M  V30 4078 N 379.872 -1.04064 1.18357 0
M  V30 4079 C 381.121 -1.76662 0.973313 0
M  V30 4080 C 381.434 -1.89154 -0.497991 0
M  V30 4081 O 382.64 -2.58606 -0.826762 0
M  V30 4082 C 381.096 -3.17624 1.69242 0
M  V30 4083 C 380.704 -3.13225 3.20303 0
M  V30 4084 C 382.448 -3.946 1.56497 0
M  V30 4085 C 380.355 -4.49046 3.84853 0
M  V30 4086 H 379.285 -0.662214 0.36054 0
M  V30 4087 H 381.936 -1.16553 1.41731 0
M  V30 4088 H 380.318 -3.78129 1.1762 0
M  V30 4089 H 381.492 -2.62172 3.78949 0
M  V30 4090 H 379.807 -2.49749 3.33189 0
M  V30 4091 H 382.404 -4.95042 2.02084 0
M  V30 4092 H 382.747 -4.13074 0.517243 0
M  V30 4093 H 383.28 -3.4067 2.05399 0
M  V30 4094 H 380.019 -4.35777 4.89672 0
M  V30 4095 H 379.539 -5.00203 3.30994 0
M  V30 4096 H 381.218 -5.17961 3.87718 0
M  V30 4097 N 381.35 -0.985608 -1.22978 0
M  V30 4098 C 382.627 -0.573599 -1.87001 0
M  V30 4099 C 383.007 0.949213 -1.88555 0
M  V30 4100 O 382.355 1.82811 -1.37086 0
M  V30 4101 C 382.565 -1.18564 -3.28243 0
M  V30 4102 C 383.913 -1.28163 -4.04796 0
M  V30 4103 O 384.937 -1.13949 -3.37482 0
M  V30 4104 O 383.796 -1.50832 -5.25273 0
M  V30 4105 H 380.89 -0.193868 -0.803955 0
M  V30 4106 H 383.436 -1.08102 -1.30813 0
M  V30 4107 H 382.208 -2.22758 -3.21706 0
M  V30 4108 H 381.831 -0.663363 -3.92027 0
M  V30 4109 N 382.828 1.3818 -0.7579 0
M  V30 4110 C 384.076 1.99624 -0.315361 0
M  V30 4111 C 384.397 1.60464 1.10799 0
M  V30 4112 O 383.667 0.863507 1.75842 0
M  V30 4113 H 382.247 0.73831 -0.113611 0
M  V30 4114 H 384.909 1.68878 -0.972952 0
M  V30 4115 H 384.005 3.09754 -0.381931 0
M  V30 4116 N 384.306 0.507319 1.49211 0
M  V30 4117 C 385.554 -0.0348839 2.0207 0
M  V30 4118 C 385.875 -1.36898 1.38866 0
M  V30 4119 O 385.145 -1.88133 0.546151 0
M  V30 4120 H 383.725 -0.0158812 0.746831 0
M  V30 4121 H 386.387 0.665998 1.83168 0
M  V30 4122 H 385.483 -0.159917 3.1169 0
M  V30 4123 N 385.784 -1.5574 0.241426 0
M  V30 4124 C 387.195 -1.84842 -0.262755 0
M  V30 4125 C 387.546 -1.16317 -1.58003 0
M  V30 4126 O 386.671 -0.439653 -2.11887 0
M  V30 4127 C 387.266 -3.35332 -0.483523 0
M  V30 4128 C 385.825 -3.6468 -0.931977 0
M  V30 4129 C 384.972 -2.77299 -0.0061151 0
M  V30 4130 H 387.923 -1.51761 0.464129 0
M  V30 4131 H 387.944 -3.56615 -1.32688 0
M  V30 4132 H 387.456 -3.85178 0.47537 0
M  V30 4133 H 385.557 -3.20307 -1.90353 0
M  V30 4134 H 385.67 -4.72498 -0.792628 0
M  V30 4135 H 384.034 -2.49408 -0.516503 0
M  V30 4136 H 384.817 -3.2995 0.948052 0
M  V30 4137 N 387.262 0.0317525 -1.57568 0
M  V30 4138 C 388.508 0.718712 -1.90279 0
M  V30 4139 C 388.863 1.73108 -0.839727 0
M  V30 4140 O 388.156 1.90997 0.15188 0
M  V30 4141 C 388.35 1.43167 -3.27472 0
M  V30 4142 C 388.179 0.489869 -4.47024 0
M  V30 4143 C 386.949 0.111909 -5.05176 0
M  V30 4144 C 389.147 -0.230592 -5.13783 0
M  V30 4145 N 387.129 -0.831427 -6.08244 0
M  V30 4146 C 388.5 -1.02968 -6.1139 0
M  V30 4147 C 390.555 -0.297821 -4.97008 0
M  V30 4148 C 389.258 -1.88982 -6.9403 0
M  V30 4149 C 391.284 -1.14507 -5.80209 0
M  V30 4150 C 390.646 -1.9321 -6.77384 0
M  V30 4151 H 386.745 0.237177 -0.745165 0
M  V30 4152 H 389.329 -0.0211267 -1.94689 0
M  V30 4153 H 387.5 2.14199 -3.23996 0
M  V30 4154 H 389.232 2.0708 -3.47707 0
M  V30 4155 H 385.987 0.473513 -4.71227 0
M  V30 4156 H 386.411 -1.29752 -6.6445 0
M  V30 4157 H 391.053 0.296346 -4.2176 0
M  V30 4158 H 388.771 -2.4948 -7.68626 0
M  V30 4159 H 392.357 -1.20059 -5.69278 0
M  V30 4160 H 391.237 -2.57711 -7.40645 0
M  V30 4161 N 388.74 1.54641 0.303973 0
M  V30 4162 C 389.67 1.88386 1.3796 0
M  V30 4163 C 390.651 0.742485 1.5304 0
M  V30 4164 O 391.836 0.997959 1.66597 0
M  V30 4165 C 388.966 2.12854 2.74427 0
M  V30 4166 C 387.92 3.28702 2.74115 0
M  V30 4167 C 387.246 3.38582 4.13844 0
M  V30 4168 C 388.546 4.65881 2.3612 0
M  V30 4169 H 390.24 2.78474 1.09966 0
M  V30 4170 H 387.786 1.33988 0.527556 0
M  V30 4171 H 389.739 2.35047 3.49758 0
M  V30 4172 H 388.463 1.19535 3.03939 0
M  V30 4173 H 387.122 3.06428 2.0124 0
M  V30 4174 H 386.77 2.42784 4.40528 0
M  V30 4175 H 386.47 4.16453 4.14537 0
M  V30 4176 H 387.994 3.63031 4.90959 0
M  V30 4177 H 389.408 4.87823 3.01167 0
M  V30 4178 H 387.805 5.46444 2.48031 0
M  V30 4179 H 388.875 4.66799 1.3125 0
M  V30 4180 N 390.218 -0.567019 1.47046 0
M  V30 4181 C 391.165 -1.67489 1.58796 0
M  V30 4182 C 392.135 -1.60399 0.43144 0
M  V30 4183 O 393.32 -1.79378 0.650233 0
M  V30 4184 C 390.46 -3.05821 1.59899 0
M  V30 4185 C 389.573 -3.2342 2.86397 0
M  V30 4186 C 388.708 -4.52093 2.789 0
M  V30 4187 C 387.747 -4.6309 4.00267 0
M  V30 4188 N 386.884 -5.83106 3.91064 0
M  V30 4189 H 391.724 -1.56785 2.53422 0
M  V30 4190 H 389.261 -0.763896 1.2571 0
M  V30 4191 H 391.219 -3.8591 1.58522 0
M  V30 4192 H 389.849 -3.15384 0.687929 0
M  V30 4193 H 388.901 -2.3683 2.97684 0
M  V30 4194 H 390.213 -3.27412 3.76301 0
M  V30 4195 H 389.367 -5.4043 2.75718 0
M  V30 4196 H 388.106 -4.50565 1.86662 0
M  V30 4197 H 387.111 -3.73168 4.03765 0
M  V30 4198 H 388.336 -4.66386 4.93621 0
M  V30 4199 H 386.282 -5.82546 3.01623 0
M  V30 4200 H 386.199 -5.88434 4.74638 0
M  V30 4201 H 387.467 -6.73831 3.91882 0
M  V30 4202 N 391.696 -1.35014 -0.812953 0
M  V30 4203 C 392.942 -1.2812 -1.57204 0
M  V30 4204 C 393.275 0.145869 -1.93651 0
M  V30 4205 O 392.55 1.0937 -1.60836 0
M  V30 4206 C 392.833 -2.18162 -2.86492 0
M  V30 4207 C 392.686 -3.69454 -2.56561 0
M  V30 4208 C 394.005 -2.07439 -3.88145 0
M  V30 4209 H 391.124 -0.466746 -0.570366 0
M  V30 4210 H 393.766 -1.65357 -0.935783 0
M  V30 4211 H 391.916 -1.86535 -3.40789 0
M  V30 4212 H 393.588 -4.11493 -2.08497 0
M  V30 4213 H 391.831 -3.9005 -1.89851 0
M  V30 4214 H 392.502 -4.27835 -3.48799 0
M  V30 4215 H 394.978 -2.35228 -3.4323 0
M  V30 4216 H 393.854 -2.7265 -4.76396 0
M  V30 4217 H 394.115 -1.05439 -4.29343 0
M  V30 4218 N 393.175 1.03435 -1.18907 0
M  V30 4219 C 394.122 2.11591 -0.921837 0
M  V30 4220 C 395.092 1.65499 0.141226 0
M  V30 4221 O 396.277 1.908 0.000242829 0
M  V30 4222 C 393.417 3.42012 -0.460616 0
M  V30 4223 C 392.53 4.01682 -1.58982 0
M  V30 4224 C 391.665 5.20091 -1.08069 0
M  V30 4225 C 390.704 5.71805 -2.18416 0
M  V30 4226 N 389.841 6.81494 -1.68849 0
M  V30 4227 H 394.681 2.33787 -1.8479 0
M  V30 4228 H 392.218 1.1467 -0.921373 0
M  V30 4229 H 394.176 4.16834 -0.174642 0
M  V30 4230 H 392.806 3.19944 0.428467 0
M  V30 4231 H 391.858 3.24127 -1.99113 0
M  V30 4232 H 393.17 4.36084 -2.4214 0
M  V30 4233 H 392.324 6.02051 -0.749615 0
M  V30 4234 H 391.063 4.87209 -0.218771 0
M  V30 4235 H 390.068 4.88461 -2.5236 0
M  V30 4236 H 391.293 6.06728 -3.05054 0
M  V30 4237 H 389.239 6.50475 -0.849572 0
M  V30 4238 H 389.156 7.14994 -2.45601 0
M  V30 4239 H 390.424 7.67063 -1.38689 0
M  V30 4240 N 394.653 0.992116 1.22453 0
M  V30 4241 C 395.601 0.534644 2.26372 0
M  V30 4242 C 396.595 -0.414293 1.64256 0
M  V30 4243 O 397.801 -0.286899 1.77699 0
M  V30 4244 H 394.176 0.154502 0.735957 0
M  V30 4245 H 396.147 1.42256 2.62309 0
M  V30 4246 C 394.896 -0.135815 3.47435 0
M  V30 4247 H 394.219 0.585311 3.95492 0
M  V30 4248 H 395.659 -0.419374 4.21921 0
M  V30 4249 C 394.118 -1.37089 3.07747 0
M  V30 4250 O 394.648 -2.46629 3.17076 0
M  V30 4251 N 392.854 -1.24585 2.62539 0
M  V30 4252 H 392.401 -0.354542 2.55149 0
M  V30 4253 H 392.359 -2.07327 2.36353 0
M  V30 4254 N 396.131 -1.37776 0.765217 0
M  V30 4255 C 397.542 -1.82521 0.392819 0
M  V30 4256 C 397.893 -1.63789 -1.08017 0
M  V30 4257 O 397.018 -1.14542 -1.83601 0
M  V30 4258 C 397.613 -3.31358 0.706214 0
M  V30 4259 C 396.172 -3.74406 0.386952 0
M  V30 4260 C 395.319 -2.60394 0.953422 0
M  V30 4261 H 398.27 -1.2634 0.960412 0
M  V30 4262 H 398.291 -3.80498 -0.0114706 0
M  V30 4263 H 397.803 -3.44959 1.77833 0
M  V30 4264 H 395.904 -3.66377 -0.678112 0
M  V30 4265 H 396.017 -4.70749 0.890636 0
M  V30 4266 H 394.381 -2.51878 0.378064 0
M  V30 4267 H 395.164 -2.76791 2.03081 0
M  V30 4268 N 397.609 -0.515225 -1.4894 0
M  V30 4269 C 398.557 0.269115 -2.31038 0
M  V30 4270 C 399.551 0.949443 -1.40292 0
M  V30 4271 O 400.757 0.87551 -1.57273 0
M  V30 4272 H 397.132 0.10565 -0.744542 0
M  V30 4273 H 399.103 -0.443096 -2.95092 0
M  V30 4274 C 397.852 1.31213 -3.21991 0
M  V30 4275 H 397.175 0.798034 -3.91754 0
M  V30 4276 H 398.615 1.83263 -3.82349 0
M  V30 4277 C 397.074 2.33791 -2.42576 0
M  V30 4278 O 397.604 3.3995 -2.14003 0
M  V30 4279 N 395.81 2.06625 -2.0434 0
M  V30 4280 H 395.357 1.20314 -2.27777 0
M  V30 4281 H 395.315 2.75483 -1.51514 0
M  V30 4282 N 399.087 1.5561 -0.249682 0
M  V30 4283 C 400.315 2.03411 0.378352 0
M  V30 4284 C 400.73 1.12886 1.51335 0
M  V30 4285 O 400.087 0.143833 1.81932 0
M  V30 4286 C 400.138 3.50537 0.88351 0
M  V30 4287 O 399.859 4.37614 -0.20626 0
M  V30 4288 C 401.36 4.14113 1.58195 0
M  V30 4289 H 398.58 0.664994 0.08958 0
M  V30 4290 H 401.124 2.01044 -0.374357 0
M  V30 4291 H 399.279 3.5343 1.58639 0
M  V30 4292 H 399.693 5.24199 0.177782 0
M  V30 4293 H 401.167 5.18741 1.8871 0
M  V30 4294 H 401.644 3.60767 2.50487 0
M  V30 4295 H 402.25 4.15151 0.923573 0
M  V30 4296 N 400.565 -0.0233959 1.57583 0
M  V30 4297 C 401.813 -0.711654 1.89156 0
M  V30 4298 C 402.134 -1.75591 0.848096 0
M  V30 4299 O 401.404 -1.95547 -0.117566 0
M  V30 4300 H 399.984 -0.265835 0.698098 0
M  V30 4301 H 402.646 0.0119948 1.94896 0
M  V30 4302 H 401.742 -1.19766 2.88206 0
M  V30 4303 N 402.043 -1.548 -0.295768 0
M  V30 4304 C 402.99 -1.86113 -1.36494 0
M  V30 4305 C 403.96 -0.7105 -1.50137 0
M  V30 4306 O 405.145 -0.959626 -1.64912 0
M  V30 4307 C 402.285 -2.11861 -2.72413 0
M  V30 4308 C 401.398 -3.39471 -2.67177 0
M  V30 4309 C 400.533 -3.55035 -3.95125 0
M  V30 4310 C 399.572 -4.76418 -3.84308 0
M  V30 4311 N 398.709 -4.8876 -5.04042 0
M  V30 4312 H 403.549 -2.77314 -1.09091 0
M  V30 4313 H 401.086 -1.37315 -0.52753 0
M  V30 4314 H 403.044 -2.24786 -3.51464 0
M  V30 4315 H 401.674 -1.2392 -2.98066 0
M  V30 4316 H 400.726 -3.35139 -1.79962 0
M  V30 4317 H 402.038 -4.28646 -2.55076 0
M  V30 4318 H 401.192 -3.67653 -4.82614 0
M  V30 4319 H 399.931 -2.64002 -4.10066 0
M  V30 4320 H 398.936 -4.63827 -2.95202 0
M  V30 4321 H 400.161 -5.68863 -3.70906 0
M  V30 4322 H 398.107 -4.00652 -5.19436 0
M  V30 4323 H 398.024 -5.71945 -4.94384 0
M  V30 4324 H 399.292 -5.0574 -5.93167 0
M  V30 4325 N 403.521 0.559213 -1.47345 0
M  V30 4326 C 404.431 1.69388 -1.62311 0
M  V30 4327 C 405.447 1.6648 -0.505993 0
M  V30 4328 O 406.623 1.85964 -0.773262 0
M  V30 4329 C 403.688 3.05894 -1.63185 0
M  V30 4330 C 402.749 3.19885 -2.86307 0
M  V30 4331 C 401.982 4.49879 -2.87131 0
M  V30 4332 O 402.205 5.35217 -1.97229 0
M  V30 4333 O 401.139 4.67618 -3.78968 0
M  V30 4334 H 404.965 1.59706 -2.58317 0
M  V30 4335 H 402.55 0.728989 -1.30407 0
M  V30 4336 H 404.432 3.87133 -1.66451 0
M  V30 4337 H 403.107 3.15964 -0.70345 0
M  V30 4338 H 402.014 2.38052 -2.88587 0
M  V30 4339 H 403.347 3.14718 -3.78435 0
M  V30 4340 N 404.999 1.35443 0.805782 0
M  V30 4341 C 406.248 1.28097 1.55801 0
M  V30 4342 C 406.561 -0.142428 1.95081 0
M  V30 4343 O 407.767 -0.33817 2.69386 0
M  V30 4344 C 406.223 2.24653 2.81174 0
M  V30 4345 C 405.831 3.72342 2.49129 0
M  V30 4346 C 407.575 2.2625 3.59181 0
M  V30 4347 C 405.482 4.60719 3.70799 0
M  V30 4348 H 404.412 0.475937 0.584808 0
M  V30 4349 H 407.063 1.60712 0.885661 0
M  V30 4350 H 405.445 1.85011 3.50124 0
M  V30 4351 H 406.619 4.20624 1.88181 0
M  V30 4352 H 404.934 3.73361 1.84366 0
M  V30 4353 H 407.531 2.89495 4.49552 0
M  V30 4354 H 407.874 1.26647 3.96568 0
M  V30 4355 H 408.407 2.64426 2.97193 0
M  V30 4356 H 405.146 5.61324 3.3852 0
M  V30 4357 H 404.666 4.17163 4.3097 0
M  V30 4358 H 406.345 4.76182 4.38018 0
M  V30 4359 N 406.477 -1.02803 1.19454 0
M  V30 4360 C 407.723 -1.76478 0.999171 0
M  V30 4361 C 408.056 -1.88456 -0.468828 0
M  V30 4362 O 407.331 -1.40198 -1.34814 0
M  V30 4363 C 407.614 -3.19044 1.66981 0
M  V30 4364 C 407.467 -3.14932 3.21151 0
M  V30 4365 C 408.786 -4.17456 1.39349 0
M  V30 4366 H 405.905 -0.640614 0.364393 0
M  V30 4367 H 408.547 -1.20005 1.47305 0
M  V30 4368 H 406.697 -3.67263 1.2669 0
M  V30 4369 H 408.369 -2.74605 3.70661 0
M  V30 4370 H 406.612 -2.52625 3.52652 0
M  V30 4371 H 407.283 -4.1566 3.63223 0
M  V30 4372 H 409.759 -3.77842 1.74283 0
M  V30 4373 H 408.635 -5.154 1.88823 0
M  V30 4374 H 408.896 -4.40949 0.318813 0
M  V30 4375 N 407.956 -0.998596 -1.21925 0
M  V30 4376 C 409.205 -0.673085 -1.90138 0
M  V30 4377 C 409.518 0.79895 -1.78539 0
M  V30 4378 O 410.724 1.23628 -2.4172 0
M  V30 4379 C 409.18 -1.15339 -3.40918 0
M  V30 4380 C 408.788 -2.65106 -3.61141 0
M  V30 4381 C 410.532 -0.902476 -4.14796 0
M  V30 4382 C 408.439 -3.0671 -5.05651 0
M  V30 4383 H 407.369 -0.248057 -0.712028 0
M  V30 4384 H 410.02 -1.20891 -1.38049 0
M  V30 4385 H 408.402 -0.545658 -3.92223 0
M  V30 4386 H 409.576 -3.31274 -3.20304 0
M  V30 4387 H 407.891 -2.88142 -3.00605 0
M  V30 4388 H 410.488 -1.18895 -5.21314 0
M  V30 4389 H 410.831 0.161349 -4.15987 0
M  V30 4390 H 411.364 -1.47269 -3.69536 0
M  V30 4391 H 408.103 -4.12292 -5.09603 0
M  V30 4392 H 407.623 -2.45249 -5.47369 0
M  V30 4393 H 409.302 -2.9833 -5.74115 0
M  V30 4394 N 409.434 1.37368 -0.772513 0
M  V30 4395 C 410.381 2.30262 -0.157488 0
M  V30 4396 C 411.351 1.51137 0.688965 0
M  V30 4397 O 412.536 1.79704 0.641168 0
M  V30 4398 C 409.676 3.37611 0.715045 0
M  V30 4399 C 408.789 4.31746 -0.148098 0
M  V30 4400 C 407.924 5.26171 0.729213 0
M  V30 4401 C 406.963 6.11948 -0.136418 0
M  V30 4402 N 406.1 6.98613 0.698914 0
M  V30 4403 H 410.94 2.82277 -0.955179 0
M  V30 4404 H 408.477 1.38957 -0.482631 0
M  V30 4405 H 410.435 3.98479 1.23575 0
M  V30 4406 H 409.065 2.86959 1.47833 0
M  V30 4407 H 408.117 3.72178 -0.786613 0
M  V30 4408 H 409.429 4.92084 -0.81579 0
M  V30 4409 H 408.583 5.92247 1.31637 0
M  V30 4410 H 407.322 4.66246 1.43059 0
M  V30 4411 H 406.327 5.4485 -0.736102 0
M  V30 4412 H 407.552 6.73945 -0.835134 0
M  V30 4413 H 405.498 6.41215 1.38489 0
M  V30 4414 H 405.415 7.55948 0.0885358 0
M  V30 4415 H 406.683 7.69077 1.27044 0
M  V30 4416 N 410.912 0.523116 1.48665 0
M  V30 4417 C 412.189 -0.0775449 1.95446 0
M  V30 4418 C 412.569 -1.5197 1.4652 0
M  V30 4419 O 411.917 -2.17876 0.688657 0
M  V30 4420 C 412.127 0.0326135 3.48985 0
M  V30 4421 C 413.475 -0.130141 4.24401 0
M  V30 4422 O 414.499 -0.0415142 3.56176 0
M  V30 4423 O 413.358 -0.31491 5.45592 0
M  V30 4424 H 410.452 -0.0831012 0.822814 0
M  V30 4425 H 412.998 0.587227 1.59216 0
M  V30 4426 H 411.77 1.03748 3.77296 0
M  V30 4427 H 411.393 -0.671317 3.91892 0
M  V30 4428 N 412.39 -1.55475 0.257931 0
M  V30 4429 C 413.636 -1.99502 -0.364266 0
M  V30 4430 C 413.969 -1.146 -1.56782 0
M  V30 4431 O 413.244 -0.211968 -1.93342 0
M  V30 4432 C 413.527 -3.51917 -0.763333 0
M  V30 4433 C 413.38 -4.4758 0.446371 0
M  V30 4434 C 414.699 -4.09742 -1.60623 0
M  V30 4435 H 411.818 -0.725277 -0.130929 0
M  V30 4436 H 414.46 -1.8653 0.361446 0
M  V30 4437 H 412.61 -3.63101 -1.38166 0
M  V30 4438 H 414.282 -4.48362 1.08487 0
M  V30 4439 H 412.525 -4.19947 1.08753 0
M  V30 4440 H 413.196 -5.51862 0.123645 0
M  V30 4441 H 415.672 -4.01727 -1.08418 0
M  V30 4442 H 414.548 -5.16631 -1.85429 0
M  V30 4443 H 414.809 -3.58889 -2.58169 0
M  V30 4444 N 413.868 0.0150385 -1.57593 0
M  V30 4445 C 415.117 0.702115 -1.89085 0
M  V30 4446 C 415.43 1.75764 -0.858277 0
M  V30 4447 O 416.636 2.49829 -1.0629 0
M  V30 4448 C 415.092 1.29992 -3.35604 0
M  V30 4449 C 414.7 0.280007 -4.47124 0
M  V30 4450 C 416.444 1.96606 -3.76227 0
M  V30 4451 C 414.351 0.886949 -5.84711 0
M  V30 4452 H 413.281 0.265997 -0.705522 0
M  V30 4453 H 415.932 -0.0430408 -1.8345 0
M  V30 4454 H 414.314 2.09525 -3.36029 0
M  V30 4455 H 415.488 -0.489631 -4.58191 0
M  V30 4456 H 413.803 -0.284835 -4.15425 0
M  V30 4457 H 416.4 2.42893 -4.76347 0
M  V30 4458 H 416.743 2.79024 -3.08952 0
M  V30 4459 H 417.276 1.23828 -3.78036 0
M  V30 4460 H 414.015 0.101876 -6.55421 0
M  V30 4461 H 413.535 1.6261 -5.77337 0
M  V30 4462 H 415.214 1.39011 -6.3189 0
M  V30 4463 N 415.346 1.54954 0.287554 0
M  V30 4464 C 416.309 1.86076 1.33823 0
M  V30 4465 C 417.309 0.734414 1.43049 0
M  V30 4466 O 418.499 1.00266 1.42452 0
M  V30 4467 C 415.631 2.05305 2.72144 0
M  V30 4468 H 416.824 2.79984 1.07465 0
M  V30 4469 H 414.377 1.47223 0.524902 0
M  V30 4470 H 415.112 1.1373 3.03704 0
M  V30 4471 H 414.897 2.873 2.66836 0
M  V30 4472 H 416.387 2.30706 3.48087 0
M  V30 4473 N 416.824 -0.551391 1.4764 0
M  V30 4474 C 418.101 -1.31229 1.45046 0
M  V30 4475 C 418.481 -2.10563 0.150527 0
M  V30 4476 O 417.829 -2.11374 -0.867956 0
M  V30 4477 C 418.039 -2.21189 2.69956 0
M  V30 4478 C 419.387 -2.82021 3.1741 0
M  V30 4479 O 420.411 -2.31488 2.70724 0
M  V30 4480 O 419.27 -3.73885 3.98588 0
M  V30 4481 H 416.364 -0.591193 0.578291 0
M  V30 4482 H 418.91 -0.569813 1.59847 0
M  V30 4483 H 417.682 -1.62207 3.56096 0
M  V30 4484 H 417.305 -3.02722 2.57769 0
M  V30 4485 N 418.302 -1.35869 -0.798587 0
M  V30 4486 C 419.265 -1.29307 -1.89242 0
M  V30 4487 C 420.265 -0.202747 -1.59517 0
M  V30 4488 O 421.455 -0.456957 -1.681 0
M  V30 4489 C 418.587 -1.00229 -3.25833 0
M  V30 4490 H 419.78 -2.26576 -1.96478 0
M  V30 4491 H 417.333 -1.20509 -0.995358 0
M  V30 4492 H 418.068 -0.033801 -3.24282 0
M  V30 4493 H 417.853 -1.79121 -3.48795 0
M  V30 4494 H 419.343 -0.98219 -4.05885 0
M  V30 4495 N 419.78 1.02168 -1.19998 0
M  V30 4496 C 421.027 1.75685 -1.00702 0
M  V30 4497 C 421.355 1.88947 0.461426 0
M  V30 4498 O 420.61 1.40832 1.35885 0
M  V30 4499 C 420.909 3.18081 -1.62969 0
M  V30 4500 C 420.575 3.24809 -3.12746 0
M  V30 4501 C 419.237 3.26352 -3.53621 0
M  V30 4502 C 421.589 3.23379 -4.08749 0
M  V30 4503 C 418.917 3.2413 -4.89036 0
M  V30 4504 C 421.269 3.22698 -5.44104 0
M  V30 4505 C 419.933 3.22542 -5.84399 0
M  V30 4506 H 419.203 0.642877 -0.368496 0
M  V30 4507 H 421.85 1.19865 -1.49348 0
M  V30 4508 H 420.155 3.77027 -1.06573 0
M  V30 4509 H 421.852 3.73648 -1.45561 0
M  V30 4510 H 418.442 3.2434 -2.80181 0
M  V30 4511 H 422.626 3.21361 -3.78207 0
M  V30 4512 H 417.882 3.22338 -5.19527 0
M  V30 4513 H 422.056 3.20543 -6.18244 0
M  V30 4514 H 419.683 3.20575 -6.89301 0
M  V30 4515 N 421.258 1.00505 1.21394 0
M  V30 4516 C 422.188 0.585684 2.26035 0
M  V30 4517 C 423.169 -0.393525 1.65485 0
M  V30 4518 O 424.354 -0.281497 1.92149 0
M  V30 4519 C 421.484 -0.0884283 3.47187 0
M  V30 4520 C 420.438 0.810567 4.20254 0
M  V30 4521 C 419.764 0.00286382 5.347 0
M  V30 4522 C 421.064 2.1132 4.77641 0
M  V30 4523 H 422.758 1.46039 2.61368 0
M  V30 4524 H 420.304 0.703648 1.25638 0
M  V30 4525 H 422.257 -0.393286 4.19561 0
M  V30 4526 H 420.981 -0.997766 3.10986 0
M  V30 4527 H 419.64 1.09925 3.49731 0
M  V30 4528 H 419.288 -0.907765 4.94741 0
M  V30 4529 H 418.988 0.601444 5.84514 0
M  V30 4530 H 420.512 -0.295808 6.09883 0
M  V30 4531 H 421.926 1.87148 5.41893 0
M  V30 4532 H 420.323 2.66164 5.37845 0
M  V30 4533 H 421.393 2.78393 3.9702 0
M  V30 4534 N 422.737 -1.36956 0.779787 0
M  V30 4535 C 423.669 -2.28833 0.129639 0
M  V30 4536 C 424.682 -1.4902 -0.655511 0
M  V30 4537 O 425.871 -1.71578 -0.492279 0
M  V30 4538 C 422.971 -3.2833 -0.839792 0
M  V30 4539 C 422.144 -4.3727 -0.10675 0
M  V30 4540 C 421.203 -5.16789 -0.990717 0
M  V30 4541 O 420.229 -5.67406 -0.451516 0
M  V30 4542 N 421.431 -5.32294 -2.3161 0
M  V30 4543 H 424.196 -2.85268 0.918803 0
M  V30 4544 H 421.757 -1.49019 0.632841 0
M  V30 4545 H 423.749 -3.78413 -1.43477 0
M  V30 4546 H 422.319 -2.72605 -1.52988 0
M  V30 4547 H 421.539 -3.88478 0.669216 0
M  V30 4548 H 422.827 -5.07229 0.399464 0
M  V30 4549 H 422.225 -4.92768 -2.77843 0
M  V30 4550 H 420.782 -5.85656 -2.86095 0
M  V30 4551 N 424.215 -0.530993 -1.48385 0
M  V30 4552 C 425.147 0.268353 -2.27624 0
M  V30 4553 C 426.16 0.903525 -1.35426 0
M  V30 4554 O 427.349 0.781796 -1.60469 0
M  V30 4555 C 424.449 1.39535 -3.08842 0
M  V30 4556 C 423.622 0.861913 -4.28824 0
M  V30 4557 C 422.681 1.87016 -4.91845 0
M  V30 4558 O 421.707 1.4267 -5.5103 0
M  V30 4559 N 422.909 3.20238 -4.84178 0
M  V30 4560 H 425.674 -0.41123 -2.96865 0
M  V30 4561 H 423.235 -0.365387 -1.57723 0
M  V30 4562 H 425.227 2.06803 -3.47871 0
M  V30 4563 H 423.797 1.97859 -2.42014 0
M  V30 4564 H 423.017 0.0132126 -3.94198 0
M  V30 4565 H 424.305 0.484415 -5.06489 0
M  V30 4566 H 423.703 3.58932 -4.37246 0
M  V30 4567 H 422.26 3.83136 -5.27305 0
M  V30 4568 N 425.693 1.55336 -0.266172 0
M  V30 4569 C 426.942 1.98574 0.353749 0
M  V30 4570 C 427.255 1.15789 1.57646 0
M  V30 4571 O 428.461 1.49129 2.26876 0
M  V30 4572 C 426.917 3.53403 0.680747 0
M  V30 4573 C 426.525 4.44953 -0.52165 0
M  V30 4574 C 428.269 4.05251 1.26379 0
M  V30 4575 C 426.176 5.91156 -0.169736 0
M  V30 4576 H 425.106 0.741643 0.135949 0
M  V30 4577 H 427.757 1.79743 -0.369421 0
M  V30 4578 H 426.139 3.68001 1.46257 0
M  V30 4579 H 427.313 4.42121 -1.29869 0
M  V30 4580 H 425.628 4.03691 -1.02093 0
M  V30 4581 H 428.225 5.12021 1.54074 0
M  V30 4582 H 428.568 3.53749 2.19471 0
M  V30 4583 H 429.101 3.94057 0.544447 0
M  V30 4584 H 425.84 6.46736 -1.0683 0
M  V30 4585 H 425.36 5.97079 0.570717 0
M  V30 4586 H 427.039 6.4655 0.241245 0
M  V30 4587 N 427.171 -0.0066808 1.57599 0
M  V30 4588 C 428.101 -0.999296 2.11036 0
M  V30 4589 C 429.082 -1.36278 1.01795 0
M  V30 4590 O 430.267 -1.4477 1.29442 0
M  V30 4591 C 427.397 -2.29328 2.60818 0
M  V30 4592 C 426.351 -2.07159 3.74525 0
M  V30 4593 C 425.677 -3.42512 4.10596 0
M  V30 4594 C 426.977 -1.43959 5.02069 0
M  V30 4595 H 428.671 -0.554382 2.94223 0
M  V30 4596 H 426.217 -0.265221 1.41536 0
M  V30 4597 H 428.17 -2.99117 2.96828 0
M  V30 4598 H 426.894 -2.7592 1.74745 0
M  V30 4599 H 425.553 -1.39797 3.38899 0
M  V30 4600 H 425.201 -3.86795 3.21556 0
M  V30 4601 H 424.901 -3.28498 4.87199 0
M  V30 4602 H 426.425 -4.13628 4.4916 0
M  V30 4603 H 427.839 -2.03696 5.35893 0
M  V30 4604 H 426.236 -1.40452 5.83432 0
M  V30 4605 H 427.306 -0.407992 4.83181 0
M  V30 4606 N 428.649 -1.55105 -0.279332 0
M  V30 4607 C 429.579 -1.90557 -1.34945 0
M  V30 4608 C 430.56 -0.766738 -1.51839 0
M  V30 4609 O 431.745 -1.02434 -1.64988 0
M  V30 4610 C 428.875 -2.17193 -2.71006 0
M  V30 4611 C 427.829 -3.33021 -2.68851 0
M  V30 4612 C 427.155 -3.45123 -4.08405 0
M  V30 4613 C 428.455 -4.69578 -2.28678 0
M  V30 4614 H 430.149 -2.80188 -1.05522 0
M  V30 4615 H 427.695 -1.34811 -0.506173 0
M  V30 4616 H 429.648 -2.40581 -3.45975 0
M  V30 4617 H 428.372 -1.24355 -3.01999 0
M  V30 4618 H 427.031 -3.0959 -1.9634 0
M  V30 4619 H 426.679 -2.49762 -4.3661 0
M  V30 4620 H 426.379 -4.22995 -4.07859 0
M  V30 4621 H 427.903 -3.70796 -4.85121 0
M  V30 4622 H 429.317 -4.92553 -2.93368 0
M  V30 4623 H 427.714 -5.5032 -2.39306 0
M  V30 4624 H 428.784 -4.68828 -1.23807 0
M  V30 4625 N 430.127 0.543554 -1.4793 0
M  V30 4626 C 431.543 0.870806 -1.3375 0
M  V30 4627 C 431.743 1.9864 -0.338261 0
M  V30 4628 O 430.799 2.51305 0.245371 0
M  V30 4629 C 432.112 1.25114 -2.73435 0
M  V30 4630 C 433.66 1.3618 -2.81823 0
M  V30 4631 C 434.135 1.77563 -4.22179 0
M  V30 4632 N 435.626 1.8469 -4.24787 0
M  V30 4633 C 436.361 2.18067 -5.30315 0
M  V30 4634 N 435.857 2.49963 -6.46135 0
M  V30 4635 N 437.65 2.18958 -5.17701 0
M  V30 4636 H 429.801 -0.19275 -2.11524 0
M  V30 4637 H 432.064 -0.0235777 -0.947707 0
M  V30 4638 H 431.77 0.50514 -3.48053 0
M  V30 4639 H 431.644 2.20431 -3.06088 0
M  V30 4640 H 434.031 2.09859 -2.07468 0
M  V30 4641 H 434.112 0.390169 -2.52807 0
M  V30 4642 H 433.756 1.04449 -4.97044 0
M  V30 4643 H 433.686 2.75753 -4.48629 0
M  V30 4644 H 436.177 1.62372 -3.41239 0
M  V30 4645 H 436.49 2.74497 -7.22406 0
M  V30 4646 H 434.835 2.47513 -6.49432 0
M  V30 4647 H 438.026 1.93488 -4.2624 0
M  V30 4648 H 438.199 2.44639 -6.00047 0
M  V30 4649 N 431.605 1.3629 0.791371 0
M  V30 4650 C 433.016 1.27225 1.36641 0
M  V30 4651 C 433.367 -0.0887968 1.95999 0
M  V30 4652 O 432.492 -0.990207 1.92416 0
M  V30 4653 C 433.087 2.30375 2.48421 0
M  V30 4654 C 431.646 2.25004 3.01746 0
M  V30 4655 C 430.793 2.15259 1.7481 0
M  V30 4656 H 433.744 1.47198 0.593173 0
M  V30 4657 H 433.765 1.93905 3.27385 0
M  V30 4658 H 433.277 3.29422 2.05189 0
M  V30 4659 H 431.378 1.29417 3.49403 0
M  V30 4660 H 431.491 3.1761 3.58693 0
M  V30 4661 H 429.855 1.61482 1.96966 0
M  V30 4662 H 430.638 3.16191 1.33709 0
M  V30 4663 N 433.083 -1.0153 1.20538 0
M  V30 4664 C 434.046 -2.0826 0.957098 0
M  V30 4665 C 435.046 -1.60657 -0.0678655 0
M  V30 4666 O 436.236 -1.73385 0.168332 0
M  V30 4667 C 433.368 -3.38033 0.441188 0
M  V30 4668 H 434.561 -2.31719 1.90384 0
M  V30 4669 H 432.114 -1.1835 1.02093 0
M  V30 4670 H 432.849 -3.20249 -0.510961 0
M  V30 4671 H 432.634 -3.73911 1.18038 0
M  V30 4672 H 434.124 -4.16613 0.287009 0
M  V30 4673 N 434.561 -1.01147 -1.20859 0
M  V30 4674 C 435.471 -0.58686 -2.27141 0
M  V30 4675 C 436.487 0.373198 -1.69951 0
M  V30 4676 O 437.663 0.235423 -2.00019 0
M  V30 4677 C 434.728 0.0733602 -3.46622 0
M  V30 4678 C 433.789 -0.931995 -4.19061 0
M  V30 4679 C 433.022 -0.303186 -5.32838 0
M  V30 4680 O 433.245 0.898395 -5.63281 0
M  V30 4681 O 432.179 -1.01735 -5.9324 0
M  V30 4682 H 436.005 -1.47155 -2.65667 0
M  V30 4683 H 433.59 -0.780689 -1.2738 0
M  V30 4684 H 435.472 0.442333 -4.19072 0
M  V30 4685 H 434.147 0.932329 -3.09983 0
M  V30 4686 H 433.054 -1.35224 -3.48805 0
M  V30 4687 H 434.387 -1.76076 -4.59628 0
M  V30 4688 N 436.039 1.36541 -0.78704 0
M  V30 4689 C 437.269 2.03266 -0.369662 0
M  V30 4690 C 437.677 1.59481 1.01796 0
M  V30 4691 O 437.02 0.778612 1.66383 0
M  V30 4692 C 437.082 3.57779 -0.351371 0
M  V30 4693 C 436.746 4.24756 -1.68617 0
M  V30 4694 C 437.743 4.47811 -2.64124 0
M  V30 4695 C 435.428 4.62277 -1.96481 0
M  V30 4696 C 437.422 5.07464 -3.85693 0
M  V30 4697 C 435.109 5.21649 -3.18317 0
M  V30 4698 C 436.107 5.44182 -4.12741 0
M  V30 4699 O 435.795 6.02307 -5.32429 0
M  V30 4700 H 435.527 0.658977 -0.150751 0
M  V30 4701 H 438.081 1.75548 -1.0664 0
M  V30 4702 H 436.311 3.84606 0.401847 0
M  V30 4703 H 438 4.05879 0.0410147 0
M  V30 4704 H 438.766 4.19221 -2.43883 0
M  V30 4705 H 434.645 4.44065 -1.23805 0
M  V30 4706 H 438.189 5.24968 -4.59407 0
M  V30 4707 H 434.086 5.49664 -3.38437 0
M  V30 4708 H 434.854 6.20775 -5.33461 0
M  V30 4709 N 437.518 0.538854 1.48102 0
M  V30 4710 C 438.795 -0.0568108 1.95517 0
M  V30 4711 C 439.175 -1.50408 1.48124 0
M  V30 4712 O 438.523 -2.17133 0.711727 0
M  V30 4713 C 438.733 0.0696262 3.48931 0
M  V30 4714 C 440.081 -0.0851202 4.24515 0
M  V30 4715 O 441.105 -0.0037347 3.562 0
M  V30 4716 O 439.964 -0.257025 5.45895 0
M  V30 4717 H 437.058 -0.0743695 0.823649 0
M  V30 4718 H 439.604 0.604081 1.58584 0
M  V30 4719 H 438.376 1.07744 3.76174 0
M  V30 4720 H 437.999 -0.629714 3.92582 0
M  V30 4721 N 438.996 -1.55193 0.274407 0
M  V30 4722 C 440.242 -1.99877 -0.343086 0
M  V30 4723 C 440.575 -1.16256 -1.55558 0
M  V30 4724 O 439.85 -0.232462 -1.93106 0
M  V30 4725 C 440.133 -3.52706 -0.725965 0
M  V30 4726 C 439.986 -4.47081 0.493818 0
M  V30 4727 C 441.305 -4.11422 -1.56268 0
M  V30 4728 H 438.424 -0.726625 -0.123229 0
M  V30 4729 H 441.066 -1.86136 0.38121 0
M  V30 4730 H 439.216 -3.64546 -1.34307 0
M  V30 4731 H 440.888 -4.47186 1.13237 0
M  V30 4732 H 439.131 -4.1877 1.13201 0
M  V30 4733 H 439.802 -5.51699 0.18217 0
M  V30 4734 H 442.278 -4.02855 -1.04151 0
M  V30 4735 H 441.154 -5.18568 -1.79939 0
M  V30 4736 H 441.415 -3.61607 -2.54348 0
M  V30 4737 N 440.474 -0.00167713 -1.576 0
M  V30 4738 C 441.723 0.682021 -1.89819 0
M  V30 4739 C 442.036 1.74844 -0.876871 0
M  V30 4740 O 443.242 2.48688 -1.08934 0
M  V30 4741 C 441.698 1.26425 -3.36964 0
M  V30 4742 C 441.306 0.232568 -4.47396 0
M  V30 4743 C 443.05 1.92604 -3.78291 0
M  V30 4744 C 440.957 0.824882 -5.85619 0
M  V30 4745 H 439.887 0.258499 -0.708304 0
M  V30 4746 H 442.538 -0.0624957 -1.83394 0
M  V30 4747 H 440.92 2.05949 -3.38232 0
M  V30 4748 H 442.094 -0.5382 -4.57646 0
M  V30 4749 H 440.409 -0.32888 -4.15099 0
M  V30 4750 H 443.006 2.37827 -4.78897 0
M  V30 4751 H 443.349 2.75732 -3.11894 0
M  V30 4752 H 443.882 1.19812 -3.79328 0
M  V30 4753 H 440.621 0.0323542 -6.55492 0
M  V30 4754 H 440.141 1.56477 -5.79029 0
M  V30 4755 H 441.82 1.32301 -6.33329 0
M  V30 4756 N 441.952 1.55251 0.271103 0
M  V30 4757 C 442.915 1.87484 1.31842 0
M  V30 4758 C 443.915 0.749545 1.42262 0
M  V30 4759 O 445.105 1.01771 1.4138 0
M  V30 4760 C 442.237 2.0818 2.69951 0
M  V30 4761 H 443.43 2.81108 1.0449 0
M  V30 4762 H 440.983 1.47771 0.509258 0
M  V30 4763 H 441.718 1.16944 3.02481 0
M  V30 4764 H 441.503 2.90114 2.63774 0
M  V30 4765 H 442.993 2.34385 3.4562 0
M  V30 4766 N 443.43 -0.535701 1.48216 0
M  V30 4767 C 444.67 -1.30238 1.57536 0
M  V30 4768 C 445.034 -1.90479 0.241229 0
M  V30 4769 O 446.235 -2.67983 0.20938 0
M  V30 4770 C 444.506 -2.3669 2.67792 0
M  V30 4771 S 446.065 -3.23159 2.9684 0
M  V30 4772 H 442.883 -0.443093 0.556048 0
M  V30 4773 H 445.485 -0.610937 1.85709 0
M  V30 4774 H 444.189 -1.90905 3.63296 0
M  V30 4775 H 443.72 -3.10548 2.41502 0
M  V30 4776 H 445.735 -4.36647 2.35699 0
M  V30 4777 N 444.908 -1.36708 -0.784132 0
M  V30 4778 C 445.841 -1.25827 -1.90375 0
M  V30 4779 C 446.819 -0.141331 -1.61985 0
M  V30 4780 O 448.003 -0.313389 -1.85877 0
M  V30 4781 C 445.13 -0.942621 -3.25319 0
M  V30 4782 C 444.176 -2.07474 -3.72635 0
M  V30 4783 S 445.009 -3.69317 -3.8777 0
M  V30 4784 C 446.165 -3.39876 -5.25581 0
M  V30 4785 H 446.398 -2.20593 -1.99314 0
M  V30 4786 H 443.931 -1.22186 -0.943926 0
M  V30 4787 H 445.889 -0.767321 -4.03265 0
M  V30 4788 H 444.55 -0.0126566 -3.14097 0
M  V30 4789 H 443.743 -1.80858 -4.70432 0
M  V30 4790 H 443.345 -2.20953 -3.01754 0
M  V30 4791 H 445.637 -2.94097 -6.10339 0
M  V30 4792 H 446.58 -4.36956 -5.57203 0
M  V30 4793 H 446.988 -2.75098 -4.92931 0
M  V30 4794 N 446.386 1.0089 -1.21074 0
M  V30 4795 C 447.334 2.11707 -0.963476 0
M  V30 4796 C 448.328 1.69172 0.0879032 0
M  V30 4797 O 449.534 1.79889 -0.0631415 0
M  V30 4798 H 445.909 0.692026 -0.294287 0
M  V30 4799 H 447.88 2.29743 -1.90422 0
M  V30 4800 C 446.629 3.43473 -0.540509 0
M  V30 4801 H 445.952 3.76634 -1.34114 0
M  V30 4802 H 447.392 4.22044 -0.406777 0
M  V30 4803 C 445.851 3.2849 0.748079 0
M  V30 4804 O 446.381 3.58883 1.8046 0
M  V30 4805 N 444.587 2.81715 0.713081 0
M  V30 4806 H 444.134 2.5718 -0.146973 0
M  V30 4807 H 444.092 2.72071 1.57558 0
M  V30 4808 N 447.864 1.01787 1.20321 0
M  V30 4809 C 448.794 0.609625 2.25401 0
M  V30 4810 C 449.775 -0.375951 1.65893 0
M  V30 4811 O 450.96 -0.261101 1.92437 0
M  V30 4812 C 448.09 -0.0515995 3.47262 0
M  V30 4813 C 447.044 0.855095 4.19371 0
M  V30 4814 C 446.37 0.0595757 5.34667 0
M  V30 4815 C 447.67 2.16374 4.75373 0
M  V30 4816 H 449.364 1.48803 2.59804 0
M  V30 4817 H 446.91 0.716934 1.24884 0
M  V30 4818 H 448.863 -0.348764 4.19954 0
M  V30 4819 H 447.587 -0.964726 3.12027 0
M  V30 4820 H 446.246 1.13628 3.48546 0
M  V30 4821 H 445.894 -0.85524 4.95676 0
M  V30 4822 H 445.594 0.663406 5.83843 0
M  V30 4823 H 447.118 -0.231105 6.10162 0
M  V30 4824 H 448.532 1.92885 5.39878 0
M  V30 4825 H 446.929 2.71853 5.34991 0
M  V30 4826 H 447.999 2.82589 3.94045 0
M  V30 4827 N 449.342 -1.36122 0.79427 0
M  V30 4828 C 450.29 -2.31871 0.184023 0
M  V30 4829 C 451.284 -1.56041 -0.659365 0
M  V30 4830 O 452.49 -1.71266 -0.553906 0
M  V30 4831 H 448.865 -0.750896 0.0407373 0
M  V30 4832 H 450.836 -2.80898 1.00693 0
M  V30 4833 C 449.585 -3.41324 -0.662813 0
M  V30 4834 H 448.908 -3.99793 -0.0231944 0
M  V30 4835 H 450.348 -4.10629 -1.05639 0
M  V30 4836 C 448.807 -2.83308 -1.82313 0
M  V30 4837 O 449.337 -2.75863 -2.91997 0
M  V30 4838 N 447.543 -2.40529 -1.63077 0
M  V30 4839 H 447.09 -2.46785 -0.738591 0
M  V30 4840 H 447.048 -2.02059 -2.40872 0
M  V30 4841 N 450.82 -0.546701 -1.47814 0
M  V30 4842 C 452.068 -0.0187037 -2.02091 0
M  V30 4843 C 452.389 1.33168 -1.42447 0
M  V30 4844 O 451.659 1.86619 -0.595839 0
M  V30 4845 H 450.239 -0.00392531 -0.74699 0
M  V30 4846 H 452.901 -0.714327 -1.81338 0
M  V30 4847 H 451.997 0.0772219 -3.12004 0
M  V30 4848 N 452.299 1.55045 -0.282633 0
M  V30 4849 C 453.576 1.9179 0.384166 0
M  V30 4850 C 453.956 1.20778 1.73136 0
M  V30 4851 O 453.304 0.33719 2.25998 0
M  V30 4852 C 453.514 3.45149 0.517014 0
M  V30 4853 C 454.862 4.17064 0.796427 0
M  V30 4854 O 455.886 3.51084 0.601535 0
M  V30 4855 O 454.745 5.33837 1.16962 0
M  V30 4856 H 451.839 0.799483 0.211558 0
M  V30 4857 H 454.385 1.66474 -0.32934 0
M  V30 4858 H 453.157 3.88922 -0.430772 0
M  V30 4859 H 452.78 3.76443 1.2797 0
M  V30 4860 N 453.777 0.010035 1.57597 0
M  V30 4861 C 455.007 -0.682422 1.95004 0
M  V30 4862 C 455.415 -1.67278 0.884014 0
M  V30 4863 O 454.758 -1.83129 -0.144672 0
M  V30 4864 C 454.82 -1.46141 3.28456 0
M  V30 4865 C 454.484 -0.631523 4.52615 0
M  V30 4866 C 455.481 0.0850905 5.1983 0
M  V30 4867 C 453.166 -0.574539 4.99003 0
M  V30 4868 C 455.16 0.847566 6.3174 0
M  V30 4869 C 452.847 0.191655 6.10799 0
M  V30 4870 C 453.845 0.901432 6.77025 0
M  V30 4871 O 453.533 1.65511 7.86677 0
M  V30 4872 H 453.265 -0.194361 0.647456 0
M  V30 4873 H 455.819 0.060312 2.05311 0
M  V30 4874 H 454.049 -2.24885 3.14585 0
M  V30 4875 H 455.738 -2.04016 3.50902 0
M  V30 4876 H 456.504 0.0502812 4.84974 0
M  V30 4877 H 452.383 -1.11654 4.47274 0
M  V30 4878 H 455.927 1.4021 6.83364 0
M  V30 4879 H 451.824 0.228249 6.45096 0
M  V30 4880 H 452.592 1.57287 8.03245 0
M  V30 4881 N 455.255 -1.55392 -0.262866 0
M  V30 4882 C 456.504 -1.75679 -0.990943 0
M  V30 4883 C 456.817 -0.57097 -1.87081 0
M  V30 4884 O 458.023 -0.656486 -2.63444 0
M  V30 4885 C 456.479 -3.10964 -1.81188 0
M  V30 4886 C 456.087 -4.37146 -0.980188 0
M  V30 4887 C 457.831 -3.40597 -2.53365 0
M  V30 4888 C 455.738 -5.63466 -1.7961 0
M  V30 4889 H 454.668 -0.654868 -0.373716 0
M  V30 4890 H 457.319 -1.81841 -0.246203 0
M  V30 4891 H 455.701 -2.98867 -2.59797 0
M  V30 4892 H 456.875 -4.60187 -0.237558 0
M  V30 4893 H 455.19 -4.14731 -0.372497 0
M  V30 4894 H 457.787 -4.32186 -3.14833 0
M  V30 4895 H 458.13 -2.6119 -3.24169 0
M  V30 4896 H 458.663 -3.53838 -1.81779 0
M  V30 4897 H 455.402 -6.4565 -1.13209 0
M  V30 4898 H 454.922 -5.44552 -2.51443 0
M  V30 4899 H 456.601 -6.02139 -2.36723 0
M  V30 4900 N 456.733 0.527833 -1.48498 0
M  V30 4901 C 457.958 1.313 -1.60546 0
M  V30 4902 C 458.383 1.86199 -0.26672 0
M  V30 4903 O 457.741 1.64513 0.761918 0
M  V30 4904 C 457.789 2.43818 -2.65678 0
M  V30 4905 O 456.893 3.46916 -2.22987 0
M  V30 4906 H 456.234 0.388784 -0.538277 0
M  V30 4907 H 458.764 0.634896 -1.945 0
M  V30 4908 H 458.774 2.89973 -2.87018 0
M  V30 4909 H 457.449 2.03222 -3.62869 0
M  V30 4910 H 456.026 3.06864 -2.11869 0
M  V30 4911 N 458.211 1.37122 0.776871 0
M  V30 4912 C 459.488 1.22586 1.52421 0
M  V30 4913 C 459.868 -0.182726 2.10308 0
M  V30 4914 O 459.216 -1.18979 1.9508 0
M  V30 4915 C 459.426 2.31782 2.60918 0
M  V30 4916 C 460.774 2.69071 3.2846 0
M  V30 4917 O 461.798 2.3092 2.71209 0
M  V30 4918 O 460.657 3.3478 4.31954 0
M  V30 4919 H 457.751 0.478045 0.674835 0
M  V30 4920 H 460.297 1.48888 0.814275 0
M  V30 4921 H 459.069 3.26131 2.16227 0
M  V30 4922 H 458.692 2.06916 3.39517 0
M  V30 4923 N 459.689 -1.00246 1.21608 0
M  V30 4924 C 460.652 -2.07233 0.979133 0
M  V30 4925 C 461.652 -1.6072 -0.0508219 0
M  V30 4926 O 462.842 -1.73196 0.186712 0
M  V30 4927 C 459.974 -3.37546 0.477016 0
M  V30 4928 H 461.167 -2.29687 1.92831 0
M  V30 4929 H 458.72 -1.17261 1.03342 0
M  V30 4930 H 459.455 -3.20773 -0.476966 0
M  V30 4931 H 459.24 -3.72638 1.21997 0
M  V30 4932 H 460.73 -4.16285 0.331181 0
M  V30 4933 N 461.167 -1.02423 -1.1978 0
M  V30 4934 C 462.097 -0.62157 -2.25075 0
M  V30 4935 C 463.078 0.367148 -1.6609 0
M  V30 4936 O 464.263 0.250892 -1.92573 0
M  V30 4937 C 461.393 0.0331826 -3.47284 0
M  V30 4938 C 460.347 -0.877323 -4.18912 0
M  V30 4939 C 459.673 -0.0879296 -5.34628 0
M  V30 4940 C 460.973 -2.18892 -4.74219 0
M  V30 4941 H 462.667 -1.50179 -2.59011 0
M  V30 4942 H 460.213 -0.723547 -1.24502 0
M  V30 4943 H 462.166 0.326488 -4.20133 0
M  V30 4944 H 460.89 0.948164 -3.12534 0
M  V30 4945 H 459.549 -1.15475 -3.47938 0
M  V30 4946 H 459.197 0.828941 -4.96123 0
M  V30 4947 H 458.897 -0.694359 -5.83483 0
M  V30 4948 H 460.421 0.198743 -6.10276 0
M  V30 4949 H 461.835 -1.95746 -5.38847 0
M  V30 4950 H 460.232 -2.74686 -5.33542 0
M  V30 4951 H 461.302 -2.84674 -3.92541 0
M  V30 4952 N 462.645 1.35699 -0.801477 0
M  V30 4953 C 463.608 2.28199 -0.213994 0
M  V30 4954 C 464.608 1.49359 0.595691 0
M  V30 4955 O 465.798 1.69186 0.414921 0
M  V30 4956 C 462.93 3.33587 0.702297 0
M  V30 4957 H 464.123 2.81666 -1.02976 0
M  V30 4958 H 461.676 1.45467 -0.571759 0
M  V30 4959 H 462.411 2.85297 1.54195 0
M  V30 4960 H 462.196 3.91906 0.123484 0
M  V30 4961 H 463.686 4.02638 1.10783 0
M  V30 4962 N 464.123 0.554532 1.47522 0
M  V30 4963 C 465.086 -0.184174 2.28459 0
M  V30 4964 C 466.086 -0.845195 1.36796 0
M  V30 4965 O 467.276 -0.701467 1.59452 0
M  V30 4966 C 464.408 -1.26903 3.16399 0
M  V30 4967 H 465.601 0.526751 2.95238 0
M  V30 4968 H 463.154 0.311375 1.53167 0
M  V30 4969 H 463.889 -2.01244 2.54306 0
M  V30 4970 H 463.674 -0.799883 3.83854 0
M  V30 4971 H 465.164 -1.78794 3.77389 0
M  V30 4972 N 465.601 -1.54893 0.290851 0
M  V30 4973 C 466.533 -2.20564 -0.623236 0
M  V30 4974 C 467.546 -1.19519 -1.1054 0
M  V30 4975 O 468.735 -1.46165 -1.02459 0
M  V30 4976 C 465.835 -2.83033 -1.86401 0
M  V30 4977 C 465.008 -4.09916 -1.52604 0
M  V30 4978 C 464.067 -4.56284 -2.62091 0
M  V30 4979 O 463.093 -5.2171 -2.27612 0
M  V30 4980 N 464.295 -4.27746 -3.92446 0
M  V30 4981 H 467.06 -2.99638 -0.0610915 0
M  V30 4982 H 464.621 -1.61508 0.112615 0
M  V30 4983 H 466.613 -3.1099 -2.58973 0
M  V30 4984 H 465.183 -2.0786 -2.33481 0
M  V30 4985 H 464.403 -3.89078 -0.633424 0
M  V30 4986 H 465.691 -4.92554 -1.27547 0
M  V30 4987 H 465.089 -3.7531 -4.23272 0
M  V30 4988 H 463.646 -4.60437 -4.61347 0
M  V30 4989 N 467.08 -0.0183926 -1.57589 0
M  V30 4990 C 468.326 0.663543 -1.91638 0
M  V30 4991 C 468.659 1.72392 -0.894134 0
M  V30 4992 O 467.934 1.94316 0.0846449 0
M  V30 4993 C 468.217 1.28984 -3.36207 0
M  V30 4994 C 468.07 0.239761 -4.49161 0
M  V30 4995 C 469.389 2.2109 -3.80536 0
M  V30 4996 H 466.508 0.239746 -0.696915 0
M  V30 4997 H 469.15 -0.073456 -1.89858 0
M  V30 4998 H 467.3 1.91799 -3.37854 0
M  V30 4999 H 468.972 -0.390119 -4.59647 0
M  V30 5000 H 467.215 -0.435972 -4.31604 0
M  V30 5001 H 467.886 0.717383 -5.47319 0
M  V30 5002 H 470.362 1.68273 -3.80557 0
M  V30 5003 H 469.238 2.61869 -4.82406 0
M  V30 5004 H 469.499 3.09764 -3.15434 0
M  V30 5005 N 468.558 1.5553 0.254621 0
M  V30 5006 C 469.806 1.7665 0.981793 0
M  V30 5007 C 470.127 0.580963 1.86145 0
M  V30 5008 O 469.397 -0.403537 1.91699 0
M  V30 5009 H 467.977 0.651475 0.365498 0
M  V30 5010 H 470.639 1.92958 0.274426 0
M  V30 5011 H 469.735 2.67486 1.60802 0
M  V30 5012 N 470.036 -0.519951 1.48776 0
M  V30 5013 C 471.284 -1.2727 1.56993 0
M  V30 5014 C 471.605 -1.9339 0.25004 0
M  V30 5015 O 470.875 -1.81822 -0.729216 0
M  V30 5016 H 469.455 -0.472732 0.578389 0
M  V30 5017 H 472.117 -0.604234 1.85297 0
M  V30 5018 H 471.213 -2.04669 2.3562 0
M  V30 5019 N 471.514 -1.37532 -0.769588 0
M  V30 5020 C 472.763 -1.32183 -1.5235 0
M  V30 5021 C 473.076 0.0906555 -1.9539 0
M  V30 5022 O 474.282 0.266628 -2.70188 0
M  V30 5023 C 472.738 -2.32029 -2.75119 0
M  V30 5024 C 472.346 -3.78816 -2.3917 0
M  V30 5025 C 474.09 -2.35694 -3.53056 0
M  V30 5026 C 471.997 -4.70388 -3.58453 0
M  V30 5027 H 470.927 -0.491275 -0.571984 0
M  V30 5028 H 473.578 -1.63004 -0.842739 0
M  V30 5029 H 471.96 -1.94229 -3.45096 0
M  V30 5030 H 473.134 -4.25466 -1.76962 0
M  V30 5031 H 471.449 -3.78117 -1.74402 0
M  V30 5032 H 474.046 -3.01312 -4.41718 0
M  V30 5033 H 474.389 -1.37117 -3.93071 0
M  V30 5034 H 474.922 -2.72212 -2.90078 0
M  V30 5035 H 471.661 -5.70102 -3.23518 0
M  V30 5036 H 471.181 -4.28442 -4.19758 0
M  V30 5037 H 472.86 -4.87628 -4.25239 0
M  V30 5038 N 472.992 0.995999 -1.22138 0
M  V30 5039 C 474.24 1.73167 -1.042 0
M  V30 5040 C 474.561 1.90329 0.42423 0
M  V30 5041 O 473.831 1.4607 1.30539 0
M  V30 5042 H 472.411 0.641593 -0.38258 0
M  V30 5043 H 475.073 1.19974 -1.53598 0
M  V30 5044 H 474.169 2.72734 -1.51731 0
M  V30 5045 N 474.47 1.03057 1.19235 0
M  V30 5046 C 475.719 0.72326 1.88287 0
M  V30 5047 C 476.032 -0.751333 1.80594 0
M  V30 5048 O 477.238 -1.17176 2.44912 0
M  V30 5049 C 475.694 1.24338 3.3774 0
M  V30 5050 C 475.302 2.74587 3.53986 0
M  V30 5051 C 477.046 1.01213 4.12257 0
M  V30 5052 C 474.953 3.20009 4.97341 0
M  V30 5053 H 473.883 0.266848 0.705201 0
M  V30 5054 H 476.534 1.24509 1.34795 0
M  V30 5055 H 474.916 0.649457 3.90638 0
M  V30 5056 H 476.09 3.39649 3.11408 0
M  V30 5057 H 474.405 2.9601 2.9286 0
M  V30 5058 H 477.002 1.32675 5.17978 0
M  V30 5059 H 477.345 -0.051001 4.16269 0
M  V30 5060 H 477.878 1.57014 3.65501 0
M  V30 5061 H 474.617 4.25659 4.98493 0
M  V30 5062 H 474.137 2.59676 5.40674 0
M  V30 5063 H 475.816 3.13447 5.66003 0
M  V30 5064 N 475.948 -1.35272 0.808662 0
M  V30 5065 C 476.911 -2.28082 0.226093 0
M  V30 5066 C 477.911 -1.49673 -0.587762 0
M  V30 5067 O 479.101 -1.69404 -0.405943 0
M  V30 5068 C 476.233 -3.33955 -0.684596 0
M  V30 5069 H 477.426 -2.81116 1.04469 0
M  V30 5070 H 474.979 -1.45162 0.579466 0
M  V30 5071 H 475.714 -2.86111 -1.5268 0
M  V30 5072 H 475.499 -3.91965 -0.102699 0
M  V30 5073 H 476.989 -4.03219 -1.08646 0
M  V30 5074 N 477.426 -0.562348 -1.47226 0
M  V30 5075 C 478.837 -0.130325 -1.86245 0
M  V30 5076 C 479.188 1.30128 -1.46838 0
M  V30 5077 O 478.313 1.97974 -0.873805 0
M  V30 5078 C 478.908 -0.229738 -3.3802 0
M  V30 5079 C 477.467 0.14728 -3.76112 0
M  V30 5080 C 476.614 -0.574971 -2.71274 0
M  V30 5081 H 479.565 -0.771773 -1.3867 0
M  V30 5082 H 479.586 0.550316 -3.76499 0
M  V30 5083 H 479.098 -1.27178 -3.66671 0
M  V30 5084 H 477.199 1.19023 -3.53078 0
M  V30 5085 H 477.312 -0.214858 -4.78618 0
M  V30 5086 H 475.676 -0.0174756 -2.54694 0
M  V30 5087 H 476.459 -1.61827 -3.02766 0
M  V30 5088 N 478.904 1.54736 -0.299062 0
M  V30 5089 C 480.152 1.99706 0.31017 0
M  V30 5090 C 480.473 1.18896 1.54559 0
M  V30 5091 O 479.743 0.284445 1.93824 0
M  V30 5092 H 478.323 0.737686 0.117596 0
M  V30 5093 H 480.985 1.9054 -0.409943 0
M  V30 5094 H 480.081 3.06596 0.58355 0
M  V30 5095 N 480.382 0.0267497 1.57577 0
M  V30 5096 C 481.345 -0.940916 2.08996 0
M  V30 5097 C 482.345 -1.25561 1.00455 0
M  V30 5098 O 483.535 -1.19634 1.26623 0
M  V30 5099 C 480.667 -2.25814 2.55384 0
M  V30 5100 H 481.86 -0.495628 2.95776 0
M  V30 5101 H 479.413 -0.221241 1.54726 0
M  V30 5102 H 480.148 -2.74976 1.71926 0
M  V30 5103 H 479.933 -2.04285 3.34679 0
M  V30 5104 H 481.423 -2.95178 2.95398 0
M  V30 5105 N 481.861 -1.55662 -0.24637 0
M  V30 5106 C 482.809 -1.91186 -1.3248 0
M  V30 5107 C 483.803 -0.790996 -1.49799 0
M  V30 5108 O 485.009 -0.975617 -1.51267 0
M  V30 5109 H 481.384 -0.607207 -0.443626 0
M  V30 5110 H 483.355 -2.81221 -0.997853 0
M  V30 5111 C 482.104 -2.22349 -2.67313 0
M  V30 5112 H 481.427 -3.08097 -2.54786 0
M  V30 5113 H 482.867 -2.51107 -3.41645 0
M  V30 5114 C 481.326 -1.04001 -3.20446 0
M  V30 5115 O 481.856 -0.28828 -4.00664 0
M  V30 5116 N 480.062 -0.830494 -2.7848 0
M  V30 5117 H 479.609 -1.4435 -2.13356 0
M  V30 5118 H 479.567 -0.0403258 -3.14374 0
M  V30 5119 N 483.339 0.512053 -1.4905 0
M  V30 5120 C 484.588 1.26343 -1.57227 0
M  V30 5121 C 484.901 1.93876 -0.259155 0
M  V30 5122 O 486.107 2.70612 -0.219358 0
M  V30 5123 C 484.563 2.29343 -2.77362 0
M  V30 5124 C 484.171 1.67799 -4.15388 0
M  V30 5125 C 485.915 3.05378 -2.94864 0
M  V30 5126 C 483.822 2.68845 -5.2676 0
M  V30 5127 H 482.752 0.475231 -0.585382 0
M  V30 5128 H 485.403 0.53862 -1.75417 0
M  V30 5129 H 483.785 3.04938 -2.52643 0
M  V30 5130 H 484.959 0.982715 -4.50199 0
M  V30 5131 H 483.274 1.04194 -4.03153 0
M  V30 5132 H 485.871 3.80921 -3.75238 0
M  V30 5133 H 486.214 3.62327 -2.05 0
M  V30 5134 H 486.747 2.36898 -3.19569 0
M  V30 5135 H 483.486 2.16692 -6.18647 0
M  V30 5136 H 483.006 3.36647 -4.96416 0
M  V30 5137 H 484.685 3.31487 -5.5563 0
M  V30 5138 N 484.817 1.37938 0.762283 0
M  V30 5139 C 486.065 1.33404 1.51815 0
M  V30 5140 C 486.386 -0.0780975 1.94844 0
M  V30 5141 O 485.656 -1.02405 1.67003 0
M  V30 5142 H 484.236 0.490839 0.563104 0
M  V30 5143 H 486.898 1.72527 0.906669 0
M  V30 5144 H 485.994 1.97926 2.41313 0
M  V30 5145 N 486.295 -0.989507 1.22664 0
M  V30 5146 C 487.572 -1.70326 0.961688 0
M  V30 5147 C 487.952 -2.04537 -0.522279 0
M  V30 5148 O 487.3 -1.73136 -1.49118 0
M  V30 5149 C 487.51 -2.95135 1.86269 0
M  V30 5150 C 488.858 -3.67842 2.12078 0
M  V30 5151 O 489.882 -3.0515 1.83745 0
M  V30 5152 O 488.741 -4.80644 2.60083 0
M  V30 5153 H 485.835 -0.743589 0.361946 0
M  V30 5154 H 488.381 -1.04555 1.33665 0
M  V30 5155 H 487.153 -2.66382 2.8663 0
M  V30 5156 H 486.776 -3.68645 1.48952 0
M  V30 5157 N 487.773 -1.03688 -1.18687 0
M  V30 5158 C 488.683 -0.634908 -2.25845 0
M  V30 5159 C 489.699 0.337065 -1.70704 0
M  V30 5160 O 490.875 0.192943 -2.00474 0
M  V30 5161 C 487.94 -0.000180054 -3.467 0
M  V30 5162 C 487.001 -1.02067 -4.1699 0
M  V30 5163 C 486.234 -0.41614 -5.32075 0
M  V30 5164 O 486.457 0.778712 -5.65059 0
M  V30 5165 O 485.391 -1.14296 -5.90948 0
M  V30 5166 H 489.217 -1.52757 -2.62486 0
M  V30 5167 H 486.802 -0.807533 -1.25695 0
M  V30 5168 H 488.684 0.353342 -4.19916 0
M  V30 5169 H 487.359 0.866367 -3.11891 0
M  V30 5170 H 486.266 -1.42592 -3.45859 0
M  V30 5171 H 487.599 -1.85786 -4.5579 0
M  V30 5172 N 489.251 1.34841 -0.815825 0
M  V30 5173 C 490.491 2.00321 -0.406297 0
M  V30 5174 C 490.855 1.63293 1.00992 0
M  V30 5175 O 492.056 2.21563 1.52195 0
M  V30 5176 C 490.327 3.52421 -0.594469 0
M  V30 5177 S 491.886 4.37926 -0.276735 0
M  V30 5178 H 488.704 0.694155 -0.153848 0
M  V30 5179 H 491.306 1.64263 -1.06009 0
M  V30 5180 H 490.01 3.76858 -1.625 0
M  V30 5181 H 489.541 3.9333 0.0743157 0
M  V30 5182 H 491.556 4.87743 0.912215 0
M  V30 5183 N 490.729 0.570148 1.46925 0
M  V30 5184 C 491.692 -0.159933 2.28641 0
M  V30 5185 C 492.692 -0.830638 1.37685 0
M  V30 5186 O 493.882 -0.684516 1.60187 0
M  V30 5187 C 491.014 -1.2354 3.17727 0
M  V30 5188 H 492.207 0.558035 2.94662 0
M  V30 5189 H 489.76 0.327603 1.52828 0
M  V30 5190 H 490.495 -1.98535 2.56426 0
M  V30 5191 H 490.28 -0.759125 3.84681 0
M  V30 5192 H 491.77 -1.74782 3.79264 0
M  V30 5193 N 492.207 -1.54576 0.307264 0
M  V30 5194 C 493.137 -2.26708 -0.55907 0
M  V30 5195 C 494.118 -1.26893 -1.1328 0
M  V30 5196 O 495.303 -1.55677 -1.16097 0
M  V30 5197 C 492.433 -3.01259 -1.72801 0
M  V30 5198 C 491.387 -4.08275 -1.28435 0
M  V30 5199 C 490.713 -4.70575 -2.53895 0
M  V30 5200 C 492.013 -5.2068 -0.411038 0
M  V30 5201 H 493.707 -2.9937 0.042576 0
M  V30 5202 H 491.253 -1.43983 0.0219173 0
M  V30 5203 H 493.206 -3.50444 -2.34023 0
M  V30 5204 H 491.93 -2.26187 -2.356 0
M  V30 5205 H 490.589 -3.59949 -0.695161 0
M  V30 5206 H 490.237 -3.92136 -3.15021 0
M  V30 5207 H 489.937 -5.42854 -2.24908 0
M  V30 5208 H 491.461 -5.22527 -3.15908 0
M  V30 5209 H 492.875 -5.65721 -0.929097 0
M  V30 5210 H 491.272 -5.99716 -0.214664 0
M  V30 5211 H 492.342 -4.81629 0.562287 0
M  V30 5212 N 493.685 -0.035106 -1.57561 0
M  V30 5213 C 494.932 0.642229 -1.92046 0
M  V30 5214 C 495.26 1.7179 -0.91206 0
M  V30 5215 O 494.515 1.95544 0.0781153 0
M  V30 5216 C 494.814 1.29149 -3.3325 0
M  V30 5217 C 494.48 0.345604 -4.49574 0
M  V30 5218 C 493.142 0.0852775 -4.81124 0
M  V30 5219 C 495.494 -0.303569 -5.20315 0
M  V30 5220 C 492.822 -0.831927 -5.80772 0
M  V30 5221 C 495.174 -1.20886 -6.20942 0
M  V30 5222 C 493.838 -1.47802 -6.50931 0
M  V30 5223 H 493.108 0.235008 -0.702746 0
M  V30 5224 H 495.755 -0.0981529 -1.91248 0
M  V30 5225 H 494.06 2.10676 -3.30337 0
M  V30 5226 H 495.757 1.82223 -3.57205 0
M  V30 5227 H 492.347 0.558683 -4.24943 0
M  V30 5228 H 496.531 -0.115515 -4.96166 0
M  V30 5229 H 491.787 -1.0481 -6.02349 0
M  V30 5230 H 495.961 -1.71804 -6.74875 0
M  V30 5231 H 493.588 -2.19039 -7.2796 0
M  V30 5232 N 495.163 1.55791 0.238111 0
M  V30 5233 C 496.073 1.94196 1.31625 0
M  V30 5234 C 497.089 0.843545 1.52185 0
M  V30 5235 O 498.265 1.1457 1.65637 0
M  V30 5236 C 495.33 2.2365 2.64918 0
M  V30 5237 C 494.391 3.46971 2.52804 0
M  V30 5238 C 493.624 3.7501 3.79741 0
M  V30 5239 O 493.847 3.04982 4.82019 0
M  V30 5240 O 492.781 4.68525 3.77846 0
M  V30 5241 H 496.607 2.86044 1.02043 0
M  V30 5242 H 494.192 1.42786 0.439603 0
M  V30 5243 H 496.074 2.43863 3.4367 0
M  V30 5244 H 494.749 1.34979 2.94215 0
M  V30 5245 H 493.656 3.32055 1.72309 0
M  V30 5246 H 494.989 4.35971 2.28451 0
M  V30 5247 N 496.642 -0.504142 1.49319 0
M  V30 5248 C 497.605 -1.5883 1.65244 0
M  V30 5249 C 498.605 -1.52009 0.524386 0
M  V30 5250 O 499.795 -1.55218 0.79077 0
M  V30 5251 C 496.927 -2.98481 1.64687 0
M  V30 5252 H 498.12 -1.4604 2.61939 0
M  V30 5253 H 495.673 -0.728144 1.38303 0
M  V30 5254 H 496.408 -3.16751 0.695644 0
M  V30 5255 H 496.193 -3.0484 2.46607 0
M  V30 5256 H 497.683 -3.77256 1.79075 0
M  V30 5257 N 498.12 -1.38341 -0.754957 0
M  V30 5258 C 499.348 -1.37704 -1.54419 0
M  V30 5259 C 499.763 0.0335243 -1.8877 0
M  V30 5260 O 499.12 0.999773 -1.52679 0
M  V30 5261 C 499.171 -2.23136 -2.84416 0
M  V30 5262 O 498.892 -3.58697 -2.51531 0
M  V30 5263 C 500.393 -2.30664 -3.78562 0
M  V30 5264 H 497.613 -0.471061 -0.477852 0
M  V30 5265 H 500.157 -1.81902 -0.934446 0
M  V30 5266 H 498.312 -1.82403 -3.41772 0
M  V30 5267 H 498.726 -4.03665 -3.34896 0
M  V30 5268 H 500.2 -2.9473 -4.66732 0
M  V30 5269 H 500.677 -1.3199 -4.18898 0
M  V30 5270 H 501.283 -2.71781 -3.27131 0
M  V30 5271 N 499.598 0.982988 -1.23187 0
M  V30 5272 C 500.548 2.05962 -0.977942 0
M  V30 5273 C 501.532 1.60725 0.0751148 0
M  V30 5274 O 502.724 1.76471 -0.136683 0
M  V30 5275 C 499.853 3.38564 -0.568276 0
M  V30 5276 C 498.939 3.90407 -1.6566 0
M  V30 5277 N 499.33 4.15359 -2.88635 0
M  V30 5278 C 497.628 4.18915 -1.53058 0
M  V30 5279 C 498.329 4.57642 -3.5908 0
M  V30 5280 N 497.305 4.6192 -2.86584 0
M  V30 5281 H 501.107 2.23208 -1.91195 0
M  V30 5282 H 498.621 1.16555 -1.13087 0
M  V30 5283 H 500.618 4.15276 -0.36764 0
M  V30 5284 H 499.278 3.22712 0.358713 0
M  V30 5285 H 500.289 4.03258 -3.24966 0
M  V30 5286 H 496.966 4.12081 -0.670506 0
M  V30 5287 H 498.356 4.85488 -4.6449 0
M  V30 5288 N 501.076 1.04316 1.18135 0
M  V30 5289 C 502.324 0.746542 1.87806 0
M  V30 5290 C 502.645 -0.728082 1.80898 0
M  V30 5291 O 501.915 -1.52554 1.22899 0
M  V30 5292 H 500.495 0.273157 0.695265 0
M  V30 5293 H 503.157 1.32044 1.43354 0
M  V30 5294 H 502.253 1.05362 2.93778 0
M  V30 5295 N 502.554 -1.34406 0.822964 0
M  V30 5296 C 503.782 -2.02508 0.424039 0
M  V30 5297 C 504.197 -1.61975 -0.970022 0
M  V30 5298 O 503.554 -0.825228 -1.62777 0
M  V30 5299 C 503.605 -3.57789 0.516657 0
M  V30 5300 O 503.326 -3.96853 1.85577 0
M  V30 5301 C 504.827 -4.43157 0.112637 0
M  V30 5302 H 502.047 -0.649063 0.170173 0
M  V30 5303 H 504.591 -1.7168 1.11113 0
M  V30 5304 H 502.746 -3.87207 -0.122353 0
M  V30 5305 H 503.16 -4.91538 1.83005 0
M  V30 5306 H 504.634 -5.51527 0.228526 0
M  V30 5307 H 505.111 -4.28939 -0.943837 0
M  V30 5308 H 505.717 -4.19067 0.725449 0
M  V30 5309 N 504.032 -0.577932 -1.46621 0
M  V30 5310 C 504.995 0.147805 -2.28723 0
M  V30 5311 C 505.995 0.823325 -1.38123 0
M  V30 5312 O 507.185 0.676011 -1.60548 0
M  V30 5313 C 504.317 1.21853 -3.18378 0
M  V30 5314 H 505.51 -0.573654 -2.94362 0
M  V30 5315 H 503.063 -0.335703 -1.52652 0
M  V30 5316 H 503.798 1.97173 -2.57475 0
M  V30 5317 H 503.583 0.738714 -3.85078 0
M  V30 5318 H 505.073 1.72768 -3.80186 0
M  V30 5319 N 505.51 1.54411 -0.315457 0
M  V30 5320 C 506.921 1.85885 0.174265 0
M  V30 5321 C 507.272 1.23723 1.52273 0
M  V30 5322 O 506.397 0.540246 2.09548 0
M  V30 5323 C 506.992 3.37257 0.322981 0
M  V30 5324 C 505.551 3.68711 0.756922 0
M  V30 5325 C 504.698 2.77013 -0.126195 0
M  V30 5326 H 507.649 1.49374 -0.536007 0
M  V30 5327 H 507.67 3.62539 1.15522 0
M  V30 5328 H 507.182 3.82471 -0.658602 0
M  V30 5329 H 505.283 3.29024 1.74854 0
M  V30 5330 H 505.396 4.75741 0.566291 0
M  V30 5331 H 503.76 2.51588 0.39692 0
M  V30 5332 H 504.543 3.25051 -1.1044 0
M  V30 5333 N 506.988 0.0434614 1.5754 0
M  V30 5334 C 507.935 -0.93356 2.11077 0
M  V30 5335 C 508.905 -1.31383 1.01626 0
M  V30 5336 O 510.09 -1.40465 1.29129 0
M  V30 5337 C 507.23 -2.20578 2.65404 0
M  V30 5338 C 506.343 -1.88068 3.88914 0
M  V30 5339 C 505.478 -3.09691 4.31584 0
M  V30 5340 C 504.517 -2.73067 5.47815 0
M  V30 5341 N 503.654 -3.87359 5.85574 0
M  V30 5342 H 508.494 -0.470118 2.94268 0
M  V30 5343 H 506.031 -0.220434 1.45439 0
M  V30 5344 H 507.989 -2.95011 2.94999 0
M  V30 5345 H 506.619 -2.64513 1.85021 0
M  V30 5346 H 505.671 -1.03816 3.6596 0
M  V30 5347 H 506.983 -1.57104 4.73413 0
M  V30 5348 H 506.137 -3.92431 4.62691 0
M  V30 5349 H 504.876 -3.43827 3.45882 0
M  V30 5350 H 503.881 -1.88742 5.16388 0
M  V30 5351 H 505.106 -2.40131 6.35227 0
M  V30 5352 H 503.052 -4.21311 5.02825 0
M  V30 5353 H 502.969 -3.60068 6.64746 0
M  V30 5354 H 504.237 -4.70761 6.21292 0
M  V30 5355 N 508.466 -1.55915 -0.229846 0
M  V30 5356 C 509.696 -1.82352 -0.971152 0
M  V30 5357 C 510.104 -0.619231 -1.7878 0
M  V30 5358 O 509.447 0.421597 -1.78797 0
M  V30 5359 C 509.509 -3.02399 -1.9441 0
M  V30 5360 C 509.173 -4.37739 -1.31277 0
M  V30 5361 C 510.17 -5.15074 -0.706757 0
M  V30 5362 C 507.855 -4.84454 -1.32702 0
M  V30 5363 C 509.849 -6.37281 -0.123413 0
M  V30 5364 C 507.536 -6.06605 -0.739831 0
M  V30 5365 C 508.534 -6.82858 -0.139071 0
M  V30 5366 O 508.222 -8.027 0.439007 0
M  V30 5367 H 507.954 -0.61035 -0.290601 0
M  V30 5368 H 510.508 -2.03839 -0.252746 0
M  V30 5369 H 508.738 -2.76709 -2.70128 0
M  V30 5370 H 510.427 -3.15779 -2.55026 0
M  V30 5371 H 511.193 -4.80093 -0.688131 0
M  V30 5372 H 507.072 -4.25081 -1.78402 0
M  V30 5373 H 510.616 -6.96741 0.346124 0
M  V30 5374 H 506.513 -6.4106 -0.755841 0
M  V30 5375 H 507.281 -8.17824 0.332521 0
M  V30 5376 N 509.944 0.496216 -1.49584 0
M  V30 5377 C 510.907 1.57952 -1.66084 0
M  V30 5378 C 511.907 1.51729 -0.53244 0
M  V30 5379 O 513.097 1.54796 -0.79899 0
M  V30 5380 C 510.229 2.97604 -1.66268 0
M  V30 5381 H 511.422 1.44649 -2.6271 0
M  V30 5382 H 508.975 0.7208 -1.38687 0
M  V30 5383 H 509.71 3.16378 -0.712432 0
M  V30 5384 H 509.495 3.03528 -2.4822 0
M  V30 5385 H 510.985 3.76301 -1.81073 0
M  V30 5386 N 511.423 1.38739 0.74761 0
M  V30 5387 C 512.671 1.35007 1.50391 0
M  V30 5388 C 512.992 -0.0574274 1.94915 0
M  V30 5389 O 512.262 -1.00628 1.6808 0
M  V30 5390 H 510.842 0.496784 0.557866 0
M  V30 5391 H 513.504 1.73479 0.888319 0
M  V30 5392 H 512.6 2.00474 2.392 0
M  V30 5393 N 512.901 -0.976442 1.23707 0
M  V30 5394 C 513.833 -2.07212 0.979574 0
M  V30 5395 C 514.846 -1.6273 -0.0478528 0
M  V30 5396 O 516.035 -1.77506 0.18815 0
M  V30 5397 C 513.135 -3.35835 0.45479 0
M  V30 5398 C 512.308 -4.09268 1.54331 0
M  V30 5399 C 511.367 -5.16166 1.02271 0
M  V30 5400 O 510.393 -5.42827 1.71254 0
M  V30 5401 N 511.595 -5.80313 -0.147419 0
M  V30 5402 H 514.36 -2.29878 1.92292 0
M  V30 5403 H 511.921 -1.14343 1.14618 0
M  V30 5404 H 513.913 -4.04597 0.0914631 0
M  V30 5405 H 512.483 -3.10106 -0.394068 0
M  V30 5406 H 511.703 -3.34906 2.07923 0
M  V30 5407 H 512.991 -4.55095 2.27522 0
M  V30 5408 H 512.389 -5.61043 -0.724353 0
M  V30 5409 H 510.946 -6.50231 -0.451972 0
M  V30 5410 N 514.379 -1.04941 -1.1758 0
M  V30 5411 C 515.656 -0.671918 -1.83697 0
M  V30 5412 C 516.036 0.847929 -1.93322 0
M  V30 5413 O 515.384 1.75287 -1.46583 0
M  V30 5414 C 515.594 -1.35797 -3.21497 0
M  V30 5415 C 516.942 -1.4944 -3.97433 0
M  V30 5416 O 517.966 -1.31678 -3.30967 0
M  V30 5417 O 516.825 -1.78463 -5.1654 0
M  V30 5418 H 513.919 -0.236212 -0.792548 0
M  V30 5419 H 516.465 -1.14884 -1.24899 0
M  V30 5420 H 515.237 -2.39498 -3.09446 0
M  V30 5421 H 514.86 -0.870236 -3.8796 0
M  V30 5422 N 515.857 1.33968 -0.830081 0
M  V30 5423 C 516.804 2.29387 -0.255008 0
M  V30 5424 C 517.774 1.53923 0.624243 0
M  V30 5425 O 518.959 1.82262 0.564372 0
M  V30 5426 C 516.099 3.4034 0.571209 0
M  V30 5427 C 515.212 4.30729 -0.331083 0
M  V30 5428 C 514.347 5.2879 0.505389 0
M  V30 5429 C 513.386 6.10819 -0.395843 0
M  V30 5430 N 512.523 7.00948 0.401979 0
M  V30 5431 H 517.363 2.77972 -1.07404 0
M  V30 5432 H 514.9 1.36785 -0.541133 0
M  V30 5433 H 516.858 4.03361 1.06562 0
M  V30 5434 H 515.488 2.9297 1.35529 0
M  V30 5435 H 514.54 3.68507 -0.943759 0
M  V30 5436 H 515.852 4.88181 -1.02377 0
M  V30 5437 H 515.006 5.97297 1.06399 0
M  V30 5438 H 513.745 4.71894 1.23155 0
M  V30 5439 H 512.75 5.41238 -0.966529 0
M  V30 5440 H 513.975 6.69797 -1.12023 0
M  V30 5441 H 511.921 6.46512 1.11168 0
M  V30 5442 H 511.838 7.55643 -0.232167 0
M  V30 5443 H 513.106 7.73774 0.943102 0
M  V30 5444 N 517.335 0.585699 1.46312 0
M  V30 5445 C 518.581 0.0725284 2.0267 0
M  V30 5446 C 518.914 -1.28523 1.45586 0
M  V30 5447 O 518.189 -1.84283 0.622101 0
M  V30 5448 C 518.472 0.0099788 3.60099 0
M  V30 5449 C 518.325 1.39685 4.27561 0
M  V30 5450 C 519.644 -0.689117 4.34671 0
M  V30 5451 H 516.763 0.0278307 0.736474 0
M  V30 5452 H 519.405 0.753472 1.74421 0
M  V30 5453 H 517.555 -0.56992 3.84297 0
M  V30 5454 H 519.227 2.02215 4.14617 0
M  V30 5455 H 517.47 1.96374 3.86807 0
M  V30 5456 H 518.141 1.30553 5.36339 0
M  V30 5457 H 520.617 -0.196446 4.15636 0
M  V30 5458 H 519.493 -0.701921 5.44393 0
M  V30 5459 H 519.754 -1.75101 4.05946 0
M  V30 5460 N 518.813 -1.54241 0.323641 0
M  V30 5461 C 519.761 -2.25813 -0.557804 0
M  V30 5462 C 520.755 -1.27225 -1.11849 0
M  V30 5463 O 521.961 -1.45001 -1.06652 0
M  V30 5464 H 518.336 -0.72532 -0.198532 0
M  V30 5465 H 520.307 -2.98322 0.0681112 0
M  V30 5466 C 519.056 -3.02913 -1.70701 0
M  V30 5467 H 518.379 -3.78593 -1.28482 0
M  V30 5468 H 519.819 -3.56238 -2.29935 0
M  V30 5469 C 518.278 -2.11217 -2.62467 0
M  V30 5470 O 518.808 -1.69508 -3.64184 0
M  V30 5471 N 517.014 -1.76704 -2.30703 0
M  V30 5472 H 516.561 -2.1082 -1.48029 0
M  V30 5473 H 516.519 -1.15631 -2.92364 0
M  V30 5474 N 520.291 -0.0518155 -1.57515 0
M  V30 5475 C 521.702 0.483787 -1.80323 0
M  V30 5476 C 522.053 1.70879 -0.964099 0
M  V30 5477 O 521.178 2.15643 -0.180872 0
M  V30 5478 C 521.773 0.884459 -3.27052 0
M  V30 5479 C 520.332 1.36504 -3.50776 0
M  V30 5480 C 519.479 0.340539 -2.75201 0
M  V30 5481 H 522.43 -0.277691 -1.56252 0
M  V30 5482 H 522.451 1.74733 -3.38007 0
M  V30 5483 H 521.963 -0.00731093 -3.88099 0
M  V30 5484 H 520.064 2.27598 -2.95009 0
M  V30 5485 H 520.177 1.35675 -4.59488 0
M  V30 5486 H 518.541 0.81356 -2.41357 0
M  V30 5487 H 519.324 -0.543156 -3.38976 0
M  V30 5488 N 521.769 1.56035 0.221574 0
M  V30 5489 C 523.017 1.78693 0.944102 0
M  V30 5490 C 523.338 0.620317 1.8487 0
M  V30 5491 O 522.608 -0.362784 1.92512 0
M  V30 5492 H 521.188 0.659082 0.351597 0
M  V30 5493 H 523.85 1.93497 0.233435 0
M  V30 5494 H 522.946 2.70837 1.55093 0
M  V30 5495 N 523.247 -0.488276 1.49845 0
M  V30 5496 C 524.472 -1.26997 1.63971 0
M  V30 5497 C 524.897 -1.85427 0.315994 0
M  V30 5498 O 524.255 -1.66475 -0.718032 0
M  V30 5499 C 524.303 -2.36689 2.72049 0
M  V30 5500 O 523.407 -3.40882 2.32107 0
M  V30 5501 H 522.748 -0.374376 0.548396 0
M  V30 5502 H 525.278 -0.583104 1.96115 0
M  V30 5503 H 525.288 -2.82262 2.94605 0
M  V30 5504 H 523.963 -1.93529 3.68129 0
M  V30 5505 H 522.54 -3.01139 2.19931 0
M  V30 5506 N 524.725 -1.39134 -0.740242 0
M  V30 5507 C 525.974 -1.35384 -1.49512 0
M  V30 5508 C 526.287 0.04919 -1.95538 0
M  V30 5509 O 527.493 0.209257 -2.70692 0
M  V30 5510 C 525.949 -2.37812 -2.70136 0
M  V30 5511 C 525.557 -3.83804 -2.31081 0
M  V30 5512 C 527.301 -2.4313 -3.47977 0
M  V30 5513 C 525.208 -4.77886 -3.48395 0
M  V30 5514 H 524.138 -0.503297 -0.561434 0
M  V30 5515 H 526.789 -1.64754 -0.807974 0
M  V30 5516 H 525.171 -2.01505 -3.40899 0
M  V30 5517 H 526.345 -4.29123 -1.67898 0
M  V30 5518 H 524.66 -3.81732 -1.66343 0
M  V30 5519 H 527.257 -3.10614 -4.35228 0
M  V30 5520 H 527.6 -1.45423 -3.90074 0
M  V30 5521 H 528.133 -2.78304 -2.84239 0
M  V30 5522 H 524.872 -5.76836 -3.11353 0
M  V30 5523 H 524.392 -4.3725 -4.10576 0
M  V30 5524 H 526.071 -4.96538 -4.148 0
M  V30 5525 N 526.204 0.969867 -1.24223 0
M  V30 5526 C 527.453 1.70687 -1.07466 0
M  V30 5527 C 527.766 1.91736 0.386861 0
M  V30 5528 O 528.972 2.62986 0.674581 0
M  V30 5529 C 527.428 3.07217 -1.87472 0
M  V30 5530 C 527.036 2.94018 -3.3802 0
M  V30 5531 C 528.78 3.84804 -1.79237 0
M  V30 5532 C 526.687 4.25844 -4.10379 0
M  V30 5533 H 525.617 0.640067 -0.398536 0
M  V30 5534 H 528.268 1.08092 -1.48285 0
M  V30 5535 H 526.65 3.70628 -1.39466 0
M  V30 5536 H 527.824 2.39632 -3.9359 0
M  V30 5537 H 526.139 2.29898 -3.47183 0
M  V30 5538 H 528.736 4.82417 -2.30603 0
M  V30 5539 H 529.079 4.09356 -0.757197 0
M  V30 5540 H 529.612 3.28115 -2.24912 0
M  V30 5541 H 526.351 4.06486 -5.14246 0
M  V30 5542 H 525.871 4.80054 -3.59594 0
M  V30 5543 H 527.55 4.94475 -4.17257 0
M  V30 5544 N 527.682 1.05563 1.17022 0
M  V30 5545 C 528.612 0.681026 2.23348 0
M  V30 5546 C 529.593 -0.322983 1.67005 0
M  V30 5547 O 530.778 -0.199746 1.9317 0
M  V30 5548 C 527.908 0.0589053 3.4725 0
M  V30 5549 C 526.862 0.988082 4.16438 0
M  V30 5550 C 526.188 0.229646 5.34207 0
M  V30 5551 C 527.488 2.31388 4.68249 0
M  V30 5552 H 529.182 1.56993 2.54938 0
M  V30 5553 H 526.728 0.756302 1.2254 0
M  V30 5554 H 528.681 -0.214982 4.20851 0
M  V30 5555 H 527.405 -0.864968 3.14938 0
M  V30 5556 H 526.064 1.24659 3.44754 0
M  V30 5557 H 525.712 -0.697111 4.98146 0
M  V30 5558 H 525.412 0.848815 5.81437 0
M  V30 5559 H 526.936 -0.0368694 6.10589 0
M  V30 5560 H 528.35 2.09964 5.33468 0
M  V30 5561 H 526.747 2.88736 5.26072 0
M  V30 5562 H 527.817 2.94982 3.84855 0
M  V30 5563 N 529.16 -1.33526 0.837174 0
M  V30 5564 C 530.385 -2.0258 0.444545 0
M  V30 5565 C 530.81 -1.6258 -0.946006 0
M  V30 5566 O 530.168 -0.817548 -1.6182 0
M  V30 5567 C 530.216 -3.5605 0.571006 0
M  V30 5568 O 529.32 -4.10422 -0.403431 0
M  V30 5569 H 528.661 -0.638866 0.180958 0
M  V30 5570 H 531.191 -1.70462 1.13154 0
M  V30 5571 H 531.201 -4.05488 0.452024 0
M  V30 5572 H 529.876 -3.84509 1.58512 0
M  V30 5573 H 528.453 -3.72113 -0.242147 0
M  V30 5574 N 530.638 -0.59345 -1.46 0
M  V30 5575 C 531.601 0.123538 -2.28867 0
M  V30 5576 C 532.601 0.808628 -1.38989 0
M  V30 5577 O 533.791 0.658945 -1.61256 0
M  V30 5578 C 530.923 1.1847 -3.19653 0
M  V30 5579 H 532.116 -0.604843 -2.93737 0
M  V30 5580 H 529.669 -0.351875 -1.52288 0
M  V30 5581 H 530.404 1.94431 -2.59552 0
M  V30 5582 H 530.189 0.69783 -3.8584 0
M  V30 5583 H 531.679 1.68726 -3.81997 0
M  V30 5584 N 532.116 1.54067 -0.331816 0
M  V30 5585 C 533.026 2.28322 0.539104 0
M  V30 5586 C 534.042 1.32985 1.1221 0
M  V30 5587 O 535.218 1.6601 1.1403 0
M  V30 5588 C 532.283 3.03277 1.68 0
M  V30 5589 C 531.344 4.14216 1.12798 0
M  V30 5590 C 530.577 4.85588 2.2145 0
M  V30 5591 O 530.8 4.56536 3.41952 0
M  V30 5592 O 529.734 5.72309 1.86404 0
M  V30 5593 H 533.56 3.03632 -0.0641692 0
M  V30 5594 H 531.145 1.49083 -0.0972365 0
M  V30 5595 H 533.027 3.50189 2.34405 0
M  V30 5596 H 531.702 2.30834 2.2693 0
M  V30 5597 H 530.609 3.71635 0.428782 0
M  V30 5598 H 531.942 4.88727 0.583698 0
M  V30 5599 N 533.594 0.0601682 1.57485 0
M  V30 5600 C 534.527 -0.94676 2.07634 0
M  V30 5601 C 535.505 -1.29837 0.978826 0
M  V30 5602 O 536.689 -1.40969 1.2514 0
M  V30 5603 C 533.816 -2.25822 2.52433 0
M  V30 5604 C 532.862 -2.05901 3.73507 0
M  V30 5605 S 533.695 -1.32907 5.18745 0
M  V30 5606 C 534.851 -2.65356 5.66866 0
M  V30 5607 H 535.084 -0.520003 2.92717 0
M  V30 5608 H 532.617 -0.152319 1.53647 0
M  V30 5609 H 534.575 -3.01201 2.78905 0
M  V30 5610 H 533.236 -2.65624 1.67639 0
M  V30 5611 H 532.429 -3.02929 4.02803 0
M  V30 5612 H 532.031 -1.38659 3.47347 0
M  V30 5613 H 534.323 -3.61492 5.73001 0
M  V30 5614 H 535.266 -2.40685 6.6594 0
M  V30 5615 H 535.674 -2.72028 4.94632 0
M  V30 5616 N 535.072 -1.5615 -0.213296 0
M  V30 5617 C 536.005 -1.88115 -1.29182 0
M  V30 5618 C 536.983 -0.739348 -1.44819 0
M  V30 5619 O 538.167 -0.988541 -1.605 0
M  V30 5620 C 535.294 -2.09541 -2.66102 0
M  V30 5621 C 534.34 -3.32236 -2.67436 0
M  V30 5622 S 535.173 -4.87915 -2.20679 0
M  V30 5623 C 536.329 -5.12387 -3.59458 0
M  V30 5624 H 536.562 -2.793 -1.01876 0
M  V30 5625 H 534.095 -1.48692 -0.415934 0
M  V30 5626 H 536.053 -2.22568 -3.44925 0
M  V30 5627 H 534.714 -1.19138 -2.90628 0
M  V30 5628 H 533.907 -3.44297 -3.6807 0
M  V30 5629 H 533.509 -3.18108 -1.96681 0
M  V30 5630 H 535.801 -5.01791 -4.55205 0
M  V30 5631 H 536.744 -6.14236 -3.52306 0
M  V30 5632 H 537.152 -4.40089 -3.53528 0
M  V30 5633 N 536.55 0.480323 -1.50102 0
M  V30 5634 C 537.48 1.58769 -1.71215 0
M  V30 5635 C 538.461 1.60583 -0.560997 0
M  V30 5636 O 539.646 1.76996 -0.799127 0
M  V30 5637 C 536.776 2.97148 -1.79778 0
M  V30 5638 C 535.73 3.10201 -2.94888 0
M  V30 5639 C 535.056 4.50137 -2.88584 0
M  V30 5640 C 536.356 2.88283 -4.35534 0
M  V30 5641 H 538.05 1.41354 -2.6393 0
M  V30 5642 H 535.596 0.678591 -1.27008 0
M  V30 5643 H 537.549 3.74536 -1.93133 0
M  V30 5644 H 536.273 3.15699 -0.836772 0
M  V30 5645 H 534.932 2.35244 -2.81169 0
M  V30 5646 H 534.58 4.65593 -1.90349 0
M  V30 5647 H 534.28 4.59808 -3.65856 0
M  V30 5648 H 535.804 5.29558 -3.03976 0
M  V30 5649 H 537.218 3.55427 -4.49827 0
M  V30 5650 H 535.615 3.09408 -5.14186 0
M  V30 5651 H 536.685 1.84219 -4.48544 0
M  V30 5652 N 538.028 1.39524 0.732853 0
M  V30 5653 C 539.444 1.21176 1.03868 0
M  V30 5654 C 539.644 0.0748448 2.01361 0
M  V30 5655 O 538.7 -0.57281 2.45917 0
M  V30 5656 C 540.013 2.54667 1.59892 0
M  V30 5657 C 541.561 2.6153 1.71962 0
M  V30 5658 C 542.036 3.95248 2.31394 0
M  V30 5659 N 543.527 3.96899 2.38801 0
M  V30 5660 C 544.262 4.97138 2.85729 0
M  V30 5661 N 543.758 6.07775 3.32537 0
M  V30 5662 N 545.551 4.84516 2.84957 0
M  V30 5663 H 537.702 2.12225 0.086304 0
M  V30 5664 H 539.965 0.942614 0.100907 0
M  V30 5665 H 539.671 3.38423 0.95721 0
M  V30 5666 H 539.545 2.74538 2.58668 0
M  V30 5667 H 541.932 1.78156 2.35254 0
M  V30 5668 H 542.013 2.45507 0.718327 0
M  V30 5669 H 541.657 4.79054 1.68729 0
M  V30 5670 H 541.587 4.08593 3.32204 0
M  V30 5671 H 544.078 3.16998 2.05719 0
M  V30 5672 H 544.391 6.8017 3.66862 0
M  V30 5673 H 542.736 6.11366 3.30541 0
M  V30 5674 H 545.927 3.97185 2.47713 0
M  V30 5675 H 546.1 5.62783 3.21215 0
M  V30 5676 N 539.506 -0.963266 1.24736 0
M  V30 5677 C 540.456 -2.0438 1.01058 0
M  V30 5678 C 541.44 -1.60824 -0.0495354 0
M  V30 5679 O 542.632 -1.76232 0.164741 0
M  V30 5680 C 539.761 -3.37617 0.622067 0
M  V30 5681 C 538.847 -3.87722 1.7185 0
M  V30 5682 N 539.238 -4.10715 2.95207 0
M  V30 5683 C 537.536 -4.16426 1.59703 0
M  V30 5684 C 538.237 -4.51872 3.66315 0
M  V30 5685 N 537.213 -4.57302 2.93897 0
M  V30 5686 H 541.015 -2.20138 1.94721 0
M  V30 5687 H 538.529 -1.14741 1.14927 0
M  V30 5688 H 540.526 -4.14638 0.43366 0
M  V30 5689 H 539.186 -3.23242 -0.307327 0
M  V30 5690 H 540.197 -3.98037 3.31341 0
M  V30 5691 H 536.874 -4.10962 0.73598 0
M  V30 5692 H 538.264 -4.78037 4.72155 0
M  V30 5693 N 540.985 -1.06182 -1.16461 0
M  V30 5694 C 541.918 -0.615859 -2.19733 0
M  V30 5695 C 542.896 0.360766 -1.58547 0
M  V30 5696 O 544.08 0.270009 -1.86556 0
M  V30 5697 C 541.207 0.097312 -3.3856 0
M  V30 5698 C 540.253 -0.835889 -4.18229 0
M  V30 5699 S 541.086 -2.33052 -4.82128 0
M  V30 5700 C 542.242 -1.62881 -6.04335 0
M  V30 5701 H 542.475 -1.49079 -2.57221 0
M  V30 5702 H 540.008 -0.874692 -1.27234 0
M  V30 5703 H 541.966 0.502563 -4.07412 0
M  V30 5704 H 540.627 0.948418 -2.99439 0
M  V30 5705 H 539.82 -0.283426 -5.03202 0
M  V30 5706 H 539.422 -1.18097 -3.54865 0
M  V30 5707 H 541.714 -0.933764 -6.71034 0
M  V30 5708 H 542.657 -2.45641 -6.64128 0
M  V30 5709 H 543.065 -1.11189 -5.53441 0
M  V30 5710 N 542.463 1.3308 -0.844243 0
M  V30 5711 C 543.711 1.97215 -0.441676 0
M  V30 5712 C 544.032 1.67185 1.0037 0
M  V30 5713 O 543.302 0.973588 1.69994 0
M  V30 5714 H 541.882 0.72959 -0.160335 0
M  V30 5715 H 544.544 1.62348 -1.07838 0
M  V30 5716 H 543.64 3.06698 -0.57815 0
M  V30 5717 N 543.941 0.601185 1.45683 0
M  V30 5718 C 545.187 0.102425 2.03142 0
M  V30 5719 C 545.542 -1.25066 1.46207 0
M  V30 5720 O 544.835 -1.81126 0.624806 0
M  V30 5721 C 545.029 -0.00222425 3.574 0
M  V30 5722 C 544.858 1.33917 4.29298 0
M  V30 5723 C 543.628 1.91818 4.67476 0
M  V30 5724 C 545.826 2.26652 4.61664 0
M  V30 5725 N 543.808 3.19504 5.24204 0
M  V30 5726 C 545.179 3.38933 5.19157 0
M  V30 5727 C 547.234 2.26103 4.43601 0
M  V30 5728 C 545.937 4.50823 5.60492 0
M  V30 5729 C 547.963 3.37036 4.85964 0
M  V30 5730 C 547.325 4.48039 5.43545 0
M  V30 5731 H 543.424 0.0806974 0.777825 0
M  V30 5732 H 546.008 0.798134 1.77589 0
M  V30 5733 H 544.179 -0.66714 3.82627 0
M  V30 5734 H 545.911 -0.507058 4.01511 0
M  V30 5735 H 542.666 1.45097 4.50826 0
M  V30 5736 H 543.09 3.84705 5.57073 0
M  V30 5737 H 547.732 1.41547 3.98402 0
M  V30 5738 H 545.45 5.36108 6.0466 0
M  V30 5739 H 549.036 3.37752 4.73725 0
M  V30 5740 H 547.916 5.32459 5.75723 0
M  V30 5741 N 545.419 -1.53889 0.339982 0
M  V30 5742 C 546.647 -2.05271 -0.259114 0
M  V30 5743 C 547.062 -1.21517 -1.44496 0
M  V30 5744 O 546.419 -0.24966 -1.80784 0
M  V30 5745 C 546.47 -3.55092 -0.677634 0
M  V30 5746 O 546.191 -4.35667 0.461051 0
M  V30 5747 C 547.692 -4.22631 -1.33782 0
M  V30 5748 H 544.912 -0.669085 -0.0506566 0
M  V30 5749 H 547.456 -1.9852 0.490935 0
M  V30 5750 H 545.611 -3.62077 -1.37763 0
M  V30 5751 H 546.025 -5.24343 0.128144 0
M  V30 5752 H 547.499 -5.28861 -1.58145 0
M  V30 5753 H 547.976 -3.74758 -2.29027 0
M  V30 5754 H 548.582 -4.19829 -0.679957 0
M  V30 5755 N 546.897 -0.0685191 -1.57451 0
M  V30 5756 C 547.807 0.914677 -2.16034 0
M  V30 5757 C 548.823 1.32938 -1.12265 0
M  V30 5758 O 549.999 1.40275 -1.44516 0
M  V30 5759 C 547.064 2.16519 -2.70777 0
M  V30 5760 C 546.125 1.80721 -3.89408 0
M  V30 5761 C 545.358 2.9981 -4.41531 0
M  V30 5762 O 545.581 4.13727 -3.92666 0
M  V30 5763 O 544.515 2.79817 -5.32903 0
M  V30 5764 H 548.341 0.446364 -3.00402 0
M  V30 5765 H 545.926 0.154367 -1.486 0
M  V30 5766 H 547.808 2.89856 -3.05878 0
M  V30 5767 H 546.483 2.62454 -1.89471 0
M  V30 5768 H 545.39 1.04646 -3.59166 0
M  V30 5769 H 546.723 1.39571 -4.71997 0
M  V30 5770 N 548.375 1.56261 0.205012 0
M  V30 5771 C 549.338 1.92908 1.23771 0
M  V30 5772 C 550.338 0.809208 1.38955 0
M  V30 5773 O 551.528 1.07676 1.36936 0
M  V30 5774 C 548.66 2.19442 2.60879 0
M  V30 5775 H 549.853 2.85287 0.924728 0
M  V30 5776 H 547.406 1.49798 0.446125 0
M  V30 5777 H 548.141 1.29668 2.97248 0
M  V30 5778 H 547.926 3.0104 2.51232 0
M  V30 5779 H 549.416 2.48833 3.35368 0
M  V30 5780 N 549.853 -0.472356 1.50355 0
M  V30 5781 C 550.816 -1.5529 1.68576 0
M  V30 5782 C 551.816 -1.50863 0.556511 0
M  V30 5783 O 553.006 -1.53505 0.823516 0
M  V30 5784 C 550.138 -2.94921 1.70981 0
M  V30 5785 H 551.331 -1.40451 2.64978 0
M  V30 5786 H 548.884 -0.698645 1.39816 0
M  V30 5787 H 549.619 -3.15204 0.762675 0
M  V30 5788 H 549.404 -2.99541 2.53017 0
M  V30 5789 H 550.894 -3.73372 1.87037 0
M  V30 5790 N 551.331 -1.39911 -0.725443 0
M  V30 5791 C 552.608 -1.28158 -1.47766 0
M  V30 5792 C 552.988 0.104545 -2.10841 0
M  V30 5793 O 552.336 1.11657 -1.99361 0
M  V30 5794 C 552.546 -2.41306 -2.52135 0
M  V30 5795 C 553.894 -2.81076 -3.18247 0
M  V30 5796 O 554.918 -2.40827 -2.62452 0
M  V30 5797 O 553.777 -3.50581 -4.19231 0
M  V30 5798 H 550.871 -0.502761 -0.656628 0
M  V30 5799 H 553.417 -1.51808 -0.758456 0
M  V30 5800 H 552.189 -3.33932 -2.03974 0
M  V30 5801 H 551.812 -2.19374 -3.31603 0
M  V30 5802 N 552.809 0.956637 -1.25245 0
M  V30 5803 C 553.739 2.07058 -1.07931 0
M  V30 5804 C 554.72 1.70096 0.0110361 0
M  V30 5805 O 555.905 1.93555 -0.158121 0
M  V30 5806 C 553.035 3.40272 -0.695124 0
M  V30 5807 C 551.989 3.91235 -1.73549 0
M  V30 5808 C 551.315 5.20921 -1.20604 0
M  V30 5809 C 552.615 4.17837 -3.13385 0
M  V30 5810 H 554.309 2.218 -2.01109 0
M  V30 5811 H 551.855 1.06581 -0.968326 0
M  V30 5812 H 553.808 4.1765 -0.560949 0
M  V30 5813 H 552.532 3.25462 0.272355 0
M  V30 5814 H 551.191 3.16025 -1.85807 0
M  V30 5815 H 550.839 5.02479 -0.228846 0
M  V30 5816 H 550.539 5.55987 -1.90136 0
M  V30 5817 H 552.063 6.00897 -1.08421 0
M  V30 5818 H 553.477 4.8588 -3.04292 0
M  V30 5819 H 551.874 4.64154 -3.80369 0
M  V30 5820 H 552.944 3.2419 -3.60595 0
M  V30 5821 N 554.287 1.06798 1.15896 0
M  V30 5822 C 555.536 0.782796 1.8589 0
M  V30 5823 C 555.849 -0.693498 1.82893 0
M  V30 5824 O 557.055 -1.09325 2.48516 0
M  V30 5825 C 555.511 1.3502 3.33613 0
M  V30 5826 C 555.119 2.8571 3.45071 0
M  V30 5827 C 556.863 1.14278 4.08829 0
M  V30 5828 C 554.77 3.35669 4.86909 0
M  V30 5829 H 553.7 0.289149 0.696354 0
M  V30 5830 H 556.351 1.28734 1.30766 0
M  V30 5831 H 554.733 0.773407 3.88374 0
M  V30 5832 H 555.907 3.49385 3.00445 0
M  V30 5833 H 554.222 3.05178 2.83294 0
M  V30 5834 H 556.819 1.49087 5.13495 0
M  V30 5835 H 557.162 0.0814575 4.1622 0
M  V30 5836 H 557.695 1.68563 3.60321 0
M  V30 5837 H 554.434 4.41302 4.84698 0
M  V30 5838 H 553.954 2.76745 5.32139 0
M  V30 5839 H 555.633 3.31296 5.55745 0
M  V30 5840 N 555.766 -1.3263 0.851289 0
M  V30 5841 C 557.012 -1.9766 0.453694 0
M  V30 5842 C 557.345 -1.67225 -0.987396 0
M  V30 5843 O 556.62 -0.958693 -1.69232 0
M  V30 5844 C 556.903 -3.5344 0.68936 0
M  V30 5845 C 556.756 -3.93517 2.17862 0
M  V30 5846 C 558.075 -4.39866 0.143555 0
M  V30 5847 H 555.194 -0.717989 0.166314 0
M  V30 5848 H 557.836 -1.57068 1.06909 0
M  V30 5849 H 555.986 -3.88147 0.165546 0
M  V30 5850 H 557.658 -3.69006 2.76826 0
M  V30 5851 H 555.901 -3.42798 2.65841 0
M  V30 5852 H 556.572 -5.02065 2.29422 0
M  V30 5853 H 559.048 -4.11875 0.591451 0
M  V30 5854 H 557.924 -5.47858 0.338043 0
M  V30 5855 H 558.185 -4.31696 -0.953466 0
M  V30 5856 N 557.244 -0.608902 -1.45362 0
M  V30 5857 C 558.191 0.109172 -2.30542 0
M  V30 5858 C 559.161 0.858704 -1.42181 0
M  V30 5859 O 560.346 0.844178 -1.71109 0
M  V30 5860 C 557.486 1.09971 -3.27109 0
M  V30 5861 C 556.599 0.350911 -4.30572 0
M  V30 5862 C 555.734 1.33129 -5.14247 0
M  V30 5863 C 554.773 0.570377 -6.09437 0
M  V30 5864 N 553.91 1.5001 -6.85887 0
M  V30 5865 H 558.75 -0.623195 -2.91411 0
M  V30 5866 H 556.287 -0.319122 -1.43597 0
M  V30 5867 H 558.245 1.68714 -3.81564 0
M  V30 5868 H 556.875 1.79947 -2.67991 0
M  V30 5869 H 555.927 -0.352054 -3.78767 0
M  V30 5870 H 557.239 -0.242725 -4.98209 0
M  V30 5871 H 556.393 1.99074 -5.73109 0
M  V30 5872 H 555.132 1.95885 -4.46632 0
M  V30 5873 H 554.137 -0.102702 -5.49704 0
M  V30 5874 H 555.362 -0.0521607 -6.7908 0
M  V30 5875 H 553.308 2.11529 -6.2096 0
M  V30 5876 H 553.225 0.959934 -7.49881 0
M  V30 5877 H 554.493 2.14909 -7.49289 0
M  V30 5878 N 558.722 1.53707 -0.348139 0
M  V30 5879 C 559.97 2.00591 0.246478 0
M  V30 5880 C 560.291 1.23753 1.50699 0
M  V30 5881 O 559.561 0.345964 1.92821 0
M  V30 5882 H 558.141 0.741053 0.0940679 0
M  V30 5883 H 560.803 1.89139 -0.470354 0
M  V30 5884 H 559.899 3.08297 0.485714 0
M  V30 5885 N 560.2 0.0768682 1.57412 0
M  V30 5886 C 561.133 -0.924685 2.08626 0
M  V30 5887 C 562.111 -1.28792 0.992542 0
M  V30 5888 O 563.295 -1.39634 1.26628 0
M  V30 5889 C 560.422 -2.23131 2.54814 0
M  V30 5890 C 559.468 -2.01928 3.75669 0
M  V30 5891 S 560.301 -1.27397 5.20125 0
M  V30 5892 C 561.457 -2.59329 5.69648 0
M  V30 5893 H 561.69 -0.488928 2.93252 0
M  V30 5894 H 559.223 -0.136014 1.538 0
M  V30 5895 H 561.181 -2.98226 2.82084 0
M  V30 5896 H 559.842 -2.63831 1.70447 0
M  V30 5897 H 559.035 -2.98639 4.05993 0
M  V30 5898 H 558.637 -1.34967 3.48798 0
M  V30 5899 H 560.929 -3.55394 5.76803 0
M  V30 5900 H 561.872 -2.33608 6.68456 0
M  V30 5901 H 562.28 -2.66767 4.9749 0
M  V30 5902 N 561.678 -1.56367 -0.196722 0
M  V30 5903 C 562.588 -1.97617 -1.2643 0
M  V30 5904 C 563.604 -0.883598 -1.49895 0
M  V30 5905 O 564.78 -1.18921 -1.62541 0
M  V30 5906 C 561.845 -2.30595 -2.58895 0
M  V30 5907 C 560.906 -3.53551 -2.43516 0
M  V30 5908 C 560.139 -3.84946 -3.69665 0
M  V30 5909 O 560.362 -3.17655 -4.73763 0
M  V30 5910 O 559.296 -4.78379 -3.65291 0
M  V30 5911 H 563.122 -2.88648 -0.944233 0
M  V30 5912 H 560.707 -1.43901 -0.401592 0
M  V30 5913 H 562.589 -2.52889 -3.37083 0
M  V30 5914 H 561.264 -1.42732 -2.90533 0
M  V30 5915 H 560.171 -3.36507 -1.63445 0
M  V30 5916 H 561.504 -4.41875 -2.16812 0
M  V30 5917 N 563.156 0.464375 -1.50603 0
M  V30 5918 C 564.404 1.21356 -1.61608 0
M  V30 5919 C 564.725 1.92329 -0.321643 0
M  V30 5920 O 563.995 1.84403 0.661232 0
M  V30 5921 H 562.575 0.45094 -0.595535 0
M  V30 5922 H 565.237 0.535046 -1.87412 0
M  V30 5923 H 564.333 1.95783 -2.43054 0
M  V30 5924 N 564.634 1.40294 0.718013 0
M  V30 5925 C 565.597 1.4012 1.81381 0
M  V30 5926 C 566.597 0.295405 1.58063 0
M  V30 5927 O 567.787 0.554187 1.6515 0
M  V30 5928 C 564.919 1.19056 3.19435 0
M  V30 5929 H 566.112 2.37645 1.82933 0
M  V30 5930 H 563.665 1.26107 0.923405 0
M  V30 5931 H 564.4 0.222809 3.23534 0
M  V30 5932 H 564.185 1.99152 3.37758 0
M  V30 5933 H 565.675 1.21716 3.99468 0
M  V30 5934 N 566.112 -0.949982 1.2575 0
M  V30 5935 C 567.361 -1.68956 1.10168 0
M  V30 5936 C 567.674 -1.92327 -0.356309 0
M  V30 5937 O 568.88 -2.64026 -0.632657 0
M  V30 5938 C 567.336 -3.04196 1.92336 0
M  V30 5939 C 566.944 -2.88603 3.42655 0
M  V30 5940 C 568.688 -3.81904 1.85336 0
M  V30 5941 C 566.595 -4.19262 4.17101 0
M  V30 5942 H 565.525 -0.633645 0.408668 0
M  V30 5943 H 568.176 -1.05719 1.49986 0
M  V30 5944 H 566.558 -3.68363 1.45344 0
M  V30 5945 H 567.732 -2.3334 3.97353 0
M  V30 5946 H 566.047 -2.24345 3.50796 0
M  V30 5947 H 568.644 -4.78688 2.38248 0
M  V30 5948 H 568.987 -4.08099 0.822226 0
M  V30 5949 H 569.52 -3.24495 2.30104 0
M  V30 5950 H 566.259 -3.98254 5.20648 0
M  V30 5951 H 565.779 -4.74273 3.67186 0
M  V30 5952 H 567.458 -4.87775 4.25071 0
M  V30 5953 N 567.59 -1.07411 -1.15328 0
M  V30 5954 C 568.538 -0.689316 -2.22151 0
M  V30 5955 C 569.532 0.300156 -1.6672 0
M  V30 5956 O 570.738 0.163804 -1.79253 0
M  V30 5957 H 567.113 -0.204834 -0.723566 0
M  V30 5958 H 569.084 -1.59988 -2.51886 0
M  V30 5959 C 567.833 -0.103848 -3.47545 0
M  V30 5960 H 567.156 -0.856367 -3.90521 0
M  V30 5961 H 568.596 0.127725 -4.23808 0
M  V30 5962 C 567.055 1.15563 -3.1646 0
M  V30 5963 O 567.585 2.242 -3.33312 0
M  V30 5964 N 565.791 1.06203 -2.70498 0
M  V30 5965 H 565.338 0.177933 -2.56985 0
M  V30 5966 H 565.296 1.90553 -2.50074 0
M  V30 5967 N 569.068 1.32177 -0.85831 0
M  V30 5968 C 570.031 2.27086 -0.310588 0
M  V30 5969 C 571.031 1.51751 0.531806 0
M  V30 5970 O 572.221 1.70794 0.34279 0
M  V30 5971 C 569.353 3.36266 0.560179 0
M  V30 5972 H 570.546 2.77045 -1.1483 0
M  V30 5973 H 568.099 1.42911 -0.632942 0
M  V30 5974 H 568.834 2.9158 1.41956 0
M  V30 5975 H 568.619 3.92077 -0.0428473 0
M  V30 5976 H 570.109 4.06974 0.936056 0
M  V30 5977 N 570.547 0.616602 1.45037 0
M  V30 5978 C 571.494 -0.0969439 2.30596 0
M  V30 5979 C 572.464 -0.851151 1.42635 0
M  V30 5980 O 573.649 -0.835092 1.71554 0
M  V30 5981 C 570.789 -1.08234 3.27688 0
M  V30 5982 C 569.902 -0.328072 4.30752 0
M  V30 5983 C 569.037 -1.30399 5.14946 0
M  V30 5984 C 568.076 -0.538049 6.09731 0
M  V30 5985 N 567.213 -1.46371 6.86673 0
M  V30 5986 H 572.053 0.63864 2.91076 0
M  V30 5987 H 569.59 0.326733 1.43425 0
M  V30 5988 H 571.548 -1.66688 3.82454 0
M  V30 5989 H 570.178 -1.78523 2.68941 0
M  V30 5990 H 569.23 0.372136 3.78575 0
M  V30 5991 H 570.542 0.269142 4.98073 0
M  V30 5992 H 569.696 -1.96032 5.74157 0
M  V30 5993 H 568.435 -1.93514 4.47665 0
M  V30 5994 H 567.44 0.131852 5.49642 0
M  V30 5995 H 568.665 0.0881732 6.79043 0
M  V30 5996 H 566.611 -2.08233 6.22073 0
M  V30 5997 H 566.528 -0.920152 7.50379 0
M  V30 5998 H 567.796 -2.10932 7.50418 0
M  V30 5999 N 572.025 -1.5352 0.356285 0
M  V30 6000 C 573.253 -2.05534 -0.237328 0
M  V30 6001 C 573.668 -1.23043 -1.43199 0
M  V30 6002 O 573.025 -0.268821 -1.80509 0
M  V30 6003 C 573.076 -3.55791 -0.639933 0
M  V30 6004 O 572.797 -4.35154 0.507233 0
M  V30 6005 C 574.298 -4.24027 -1.29292 0
M  V30 6006 H 571.518 -0.669585 -0.0435572 0
M  V30 6007 H 574.062 -1.97988 0.511963 0
M  V30 6008 H 572.217 -3.63518 -1.33915 0
M  V30 6009 H 572.631 -5.24178 0.18375 0
M  V30 6010 H 574.105 -5.30509 -1.52527 0
M  V30 6011 H 574.582 -3.77166 -2.25039 0
M  V30 6012 H 575.188 -4.20527 -0.63539 0
M  V30 6013 N 573.503 -0.0852151 -1.57369 0
M  V30 6014 C 574.749 0.581666 -1.94279 0
M  V30 6015 C 575.082 1.68444 -0.966446 0
M  V30 6016 O 574.357 1.945 0.00215277 0
M  V30 6017 C 574.64 1.14609 -3.41375 0
M  V30 6018 C 574.493 0.0490414 -4.49773 0
M  V30 6019 C 575.812 2.04751 -3.8957 0
M  V30 6020 H 572.931 0.209972 -0.706456 0
M  V30 6021 H 575.573 -0.153915 -1.89376 0
M  V30 6022 H 573.723 1.77297 -3.45685 0
M  V30 6023 H 575.395 -0.584721 -4.57579 0
M  V30 6024 H 573.638 -0.618638 -4.29366 0
M  V30 6025 H 574.309 0.484601 -5.49869 0
M  V30 6026 H 576.785 1.51981 -3.87351 0
M  V30 6027 H 575.661 2.41173 -4.93079 0
M  V30 6028 H 575.922 2.96107 -3.28288 0
M  V30 6029 N 574.981 1.5647 0.188427 0
M  V30 6030 C 576.209 1.85131 0.923803 0
M  V30 6031 C 576.624 0.668537 1.76567 0
M  V30 6032 O 575.981 -0.362662 1.7886 0
M  V30 6033 C 576.032 3.12661 1.81453 0
M  V30 6034 O 575.753 4.26378 1.00665 0
M  V30 6035 C 577.254 3.54548 2.66103 0
M  V30 6036 H 574.474 0.614624 0.269218 0
M  V30 6037 H 577.018 2.03581 0.193671 0
M  V30 6038 H 575.173 2.96088 2.49821 0
M  V30 6039 H 575.587 4.99041 1.61425 0
M  V30 6040 H 577.061 4.4673 3.24247 0
M  V30 6041 H 577.538 2.77853 3.40139 0
M  V30 6042 H 578.144 3.73674 2.03096 0
M  V30 6043 N 576.459 -0.456382 1.50847 0
M  V30 6044 C 577.689 -1.22848 1.66108 0
M  V30 6045 C 578.097 -1.85936 0.349897 0
M  V30 6046 O 577.44 -1.70664 -0.679665 0
M  V30 6047 C 577.502 -2.36722 2.70561 0
M  V30 6048 C 577.166 -1.94154 4.13707 0
M  V30 6049 C 578.163 -1.4557 4.99105 0
M  V30 6050 C 575.848 -2.02426 4.59705 0
M  V30 6051 C 577.842 -1.0582 6.28555 0
M  V30 6052 C 575.529 -1.62287 5.89157 0
M  V30 6053 C 576.527 -1.14064 6.73408 0
M  V30 6054 O 576.215 -0.744873 8.00442 0
M  V30 6055 H 575.947 -0.377105 0.561042 0
M  V30 6056 H 578.501 -0.549431 1.97915 0
M  V30 6057 H 576.731 -3.07844 2.34027 0
M  V30 6058 H 578.42 -2.98646 2.74892 0
M  V30 6059 H 579.186 -1.38589 4.64777 0
M  V30 6060 H 575.065 -2.38908 3.94264 0
M  V30 6061 H 578.609 -0.6811 6.94267 0
M  V30 6062 H 574.506 -1.68932 6.23003 0
M  V30 6063 H 575.274 -0.87242 8.13837 0
M  V30 6064 N 577.937 -1.40673 -0.710563 0
M  V30 6065 C 579.214 -1.29718 -1.46398 0
M  V30 6066 C 579.594 0.082177 -2.1094 0
M  V30 6067 O 578.942 1.09536 -2.00534 0
M  V30 6068 C 579.152 -2.43967 -2.49562 0
M  V30 6069 C 580.5 -2.84436 -3.15248 0
M  V30 6070 O 581.524 -2.43597 -2.59883 0
M  V30 6071 O 580.383 -3.55008 -4.1549 0
M  V30 6072 H 577.477 -0.509697 -0.651258 0
M  V30 6073 H 580.023 -1.52603 -0.742312 0
M  V30 6074 H 578.795 -3.36076 -2.0042 0
M  V30 6075 H 578.418 -2.22879 -3.29258 0
M  V30 6076 N 579.415 0.9433 -1.26252 0
M  V30 6077 C 580.662 1.68925 -1.11672 0
M  V30 6078 C 580.99 1.91499 0.340329 0
M  V30 6079 O 580.245 1.49189 1.26653 0
M  V30 6080 C 580.544 3.07073 -1.82868 0
M  V30 6081 C 580.21 3.04262 -3.32769 0
M  V30 6082 C 578.872 3.03203 -3.7366 0
M  V30 6083 C 581.224 2.96729 -4.28487 0
M  V30 6084 C 578.552 2.92373 -5.0866 0
M  V30 6085 C 580.904 2.87442 -5.63525 0
M  V30 6086 C 579.568 2.84724 -6.03729 0
M  V30 6087 H 578.838 0.618141 -0.408635 0
M  V30 6088 H 581.485 1.10124 -1.56668 0
M  V30 6089 H 579.79 3.69486 -1.30335 0
M  V30 6090 H 581.487 3.63635 -1.69029 0
M  V30 6091 H 578.077 3.05865 -3.00241 0
M  V30 6092 H 582.261 2.96658 -3.97879 0
M  V30 6093 H 577.517 2.88645 -5.38975 0
M  V30 6094 H 581.691 2.80576 -6.37377 0
M  V30 6095 H 579.318 2.76089 -7.08293 0
M  V30 6096 N 580.893 1.08022 1.14757 0
M  V30 6097 C 581.803 0.718292 2.23333 0
M  V30 6098 C 582.819 -0.273477 1.71837 0
M  V30 6099 O 583.995 -0.118406 2.01052 0
M  V30 6100 C 581.06 0.128855 3.4646 0
M  V30 6101 C 580.121 1.17473 4.12915 0
M  V30 6102 C 579.354 0.61333 5.30164 0
M  V30 6103 O 579.577 -0.568458 5.6756 0
M  V30 6104 O 578.511 1.3615 5.86299 0
M  V30 6105 H 582.337 1.62394 2.56636 0
M  V30 6106 H 579.922 0.853628 1.22611 0
M  V30 6107 H 581.804 -0.197249 4.20938 0
M  V30 6108 H 580.479 -0.750014 3.14891 0
M  V30 6109 H 579.386 1.5533 3.40328 0
M  V30 6110 H 580.719 2.02574 4.48581 0
M  V30 6111 N 582.371 -1.3172 0.865308 0
M  V30 6112 C 583.787 -1.4958 0.556596 0
M  V30 6113 C 583.987 -1.79763 -0.910353 0
M  V30 6114 O 583.043 -1.87351 -1.6928 0
M  V30 6115 C 584.356 -2.63277 1.45279 0
M  V30 6116 C 585.904 -2.77161 1.45433 0
M  V30 6117 C 586.379 -3.93949 2.33598 0
M  V30 6118 N 587.87 -4.01228 2.31453 0
M  V30 6119 C 588.605 -4.90855 2.96393 0
M  V30 6120 N 588.101 -5.85416 3.70486 0
M  V30 6121 N 589.894 -4.84063 2.85726 0
M  V30 6122 H 582.045 -1.10396 1.81456 0
M  V30 6123 H 584.308 -0.54507 0.775631 0
M  V30 6124 H 584.014 -2.47734 2.49641 0
M  V30 6125 H 583.888 -3.59309 1.14792 0
M  V30 6126 H 586.275 -2.9212 0.41831 0
M  V30 6127 H 586.356 -1.8181 1.79941 0
M  V30 6128 H 586 -3.79748 3.37274 0
M  V30 6129 H 585.93 -4.88598 1.96417 0
M  V30 6130 H 588.421 -3.3357 1.77593 0
M  V30 6131 H 588.734 -6.50525 4.17178 0
M  V30 6132 H 587.079 -5.85409 3.74594 0
M  V30 6133 H 590.27 -4.09163 2.27384 0
M  V30 6134 H 590.443 -5.53708 3.36617 0
M  V30 6135 N 583.85 -0.624285 -1.44708 0
M  V30 6136 C 584.779 0.0717025 -2.3339 0
M  V30 6137 C 585.76 0.841814 -1.47809 0
M  V30 6138 O 586.946 0.809056 -1.76544 0
M  V30 6139 C 584.076 1.05852 -3.30776 0
M  V30 6140 C 583.029 0.400503 -4.26122 0
M  V30 6141 C 582.356 1.49674 -5.13324 0
M  V30 6142 C 583.656 -0.688924 -5.17737 0
M  V30 6143 H 585.35 -0.668819 -2.91834 0
M  V30 6144 H 582.896 -0.32308 -1.40329 0
M  V30 6145 H 584.849 1.5541 -3.91696 0
M  V30 6146 H 583.572 1.82984 -2.70526 0
M  V30 6147 H 582.231 -0.0743687 -3.66525 0
M  V30 6148 H 581.88 2.25877 -4.49431 0
M  V30 6149 H 581.58 1.06188 -5.77926 0
M  V30 6150 H 583.104 1.99427 -5.77115 0
M  V30 6151 H 584.518 -0.276724 -5.72632 0
M  V30 6152 H 582.915 -1.04652 -5.90904 0
M  V30 6153 H 583.985 -1.55884 -4.5916 0
M  V30 6154 N 585.328 1.53329 -0.364422 0
M  V30 6155 C 586.261 2.22052 0.526145 0
M  V30 6156 C 587.239 1.21203 1.08391 0
M  V30 6157 O 588.423 1.50101 1.14026 0
M  V30 6158 C 585.55 2.91432 1.72583 0
M  V30 6159 C 584.596 4.06345 1.29562 0
M  V30 6160 S 585.429 5.34671 0.297885 0
M  V30 6161 C 586.585 6.07563 1.50392 0
M  V30 6162 H 586.818 2.97244 -0.0575055 0
M  V30 6163 H 584.351 1.53684 -0.148525 0
M  V30 6164 H 586.309 3.3202 2.41398 0
M  V30 6165 H 584.97 2.15966 2.28073 0
M  V30 6166 H 584.163 4.53901 2.19067 0
M  V30 6167 H 583.765 3.67642 0.686696 0
M  V30 6168 H 586.057 6.32224 2.43513 0
M  V30 6169 H 587 6.99973 1.06977 0
M  V30 6170 H 587.408 5.37994 1.70945 0
M  V30 6171 N 586.806 0.0935595 1.57322 0
M  V30 6172 C 588.083 -0.612692 1.85756 0
M  V30 6173 C 588.463 -1.86439 0.99013 0
M  V30 6174 O 587.811 -2.28416 0.0621362 0
M  V30 6175 C 588.021 -0.929547 3.36393 0
M  V30 6176 C 589.369 -1.29366 4.04413 0
M  V30 6177 O 590.393 -1.02061 3.41265 0
M  V30 6178 O 589.252 -1.80498 5.15832 0
M  V30 6179 H 586.346 -0.306444 0.768128 0
M  V30 6180 H 588.892 0.126141 1.69231 0
M  V30 6181 H 587.664 -0.0414766 3.91278 0
M  V30 6182 H 587.287 -1.72441 3.5826 0
M  V30 6183 N 588.284 -1.56567 -0.180126 0
M  V30 6184 C 589.532 -1.81133 -0.896392 0
M  V30 6185 C 589.853 -0.669114 -1.83161 0
M  V30 6186 O 589.123 0.311616 -1.93406 0
M  V30 6187 H 587.703 -0.668172 -0.333999 0
M  V30 6188 H 590.365 -1.94048 -0.182051 0
M  V30 6189 H 589.461 -2.74854 -1.47857 0
M  V30 6190 N 589.762 0.448376 -1.51087 0
M  V30 6191 C 590.725 1.52588 -1.71025 0
M  V30 6192 C 591.725 1.49958 -0.580442 0
M  V30 6193 O 592.915 1.52176 -0.847833 0
M  V30 6194 C 590.047 2.92163 -1.75652 0
M  V30 6195 H 591.24 1.36218 -2.67179 0
M  V30 6196 H 588.793 0.676313 -1.4091 0
M  V30 6197 H 589.528 3.13951 -0.812724 0
M  V30 6198 H 589.313 2.95478 -2.57751 0
M  V30 6199 H 590.803 3.70349 -1.92953 0
M  V30 6200 N 591.24 1.41047 0.703093 0
M  V30 6201 C 592.187 1.42302 1.81711 0
M  V30 6202 C 593.157 0.278336 1.63751 0
M  V30 6203 O 594.342 0.478266 1.84709 0
M  V30 6204 C 591.482 1.30362 3.19531 0
M  V30 6205 C 590.595 2.54638 3.48975 0
M  V30 6206 C 589.73 2.35047 4.76368 0
M  V30 6207 C 588.769 3.54837 4.98756 0
M  V30 6208 N 587.906 3.34363 6.1737 0
M  V30 6209 H 592.746 2.37516 1.79973 0
M  V30 6210 H 590.283 1.1795 0.878983 0
M  V30 6211 H 592.241 1.21443 3.99134 0
M  V30 6212 H 590.871 0.387602 3.20464 0
M  V30 6213 H 589.923 2.74037 2.63833 0
M  V30 6214 H 591.235 3.43766 3.61423 0
M  V30 6215 H 590.389 2.23552 5.64012 0
M  V30 6216 H 589.128 1.43363 4.66153 0
M  V30 6217 H 588.133 3.66795 4.09563 0
M  V30 6218 H 589.358 4.47464 5.10835 0
M  V30 6219 H 587.304 2.45373 6.08382 0
M  V30 6220 H 587.221 4.17063 6.30551 0
M  V30 6221 H 588.489 3.26626 7.07768 0
M  V30 6222 N 592.718 -0.936591 1.26751 0
M  V30 6223 C 593.648 -2.05315 1.11212 0
M  V30 6224 C 594.629 -1.70092 0.0160262 0
M  V30 6225 O 595.814 -1.93279 0.188894 0
M  V30 6226 C 592.944 -3.39123 0.749171 0
M  V30 6227 C 591.898 -3.88425 1.79751 0
M  V30 6228 C 591.224 -5.18936 1.28876 0
M  V30 6229 C 592.524 -4.12798 3.19992 0
M  V30 6230 H 594.218 -2.18573 2.04613 0
M  V30 6231 H 591.764 -1.05027 0.985159 0
M  V30 6232 H 593.717 -4.16704 0.627323 0
M  V30 6233 H 592.441 -3.25855 -0.220543 0
M  V30 6234 H 591.1 -3.13028 1.90811 0
M  V30 6235 H 590.748 -5.02051 0.308757 0
M  V30 6236 H 590.448 -5.52892 1.98958 0
M  V30 6237 H 591.972 -5.99096 1.17967 0
M  V30 6238 H 593.386 -4.80977 3.11983 0
M  V30 6239 H 591.783 -4.58044 3.87705 0
M  V30 6240 H 592.853 -3.18412 3.65707 0
M  V30 6241 N 594.196 -1.08629 -1.14182 0
M  V30 6242 C 595.126 -0.740003 -2.21464 0
M  V30 6243 C 596.107 0.278591 -1.67803 0
M  V30 6244 O 597.292 0.148461 -1.93632 0
M  V30 6245 C 594.422 -0.150952 -3.46972 0
M  V30 6246 C 593.376 -1.09815 -4.13672 0
M  V30 6247 C 592.702 -0.3712 -5.3341 0
M  V30 6248 C 594.002 -2.43722 -4.61949 0
M  V30 6249 H 595.696 -1.63697 -2.50686 0
M  V30 6250 H 593.242 -0.788526 -1.20492 0
M  V30 6251 H 595.195 0.103325 -4.21273 0
M  V30 6252 H 593.919 0.781164 -3.1712 0
M  V30 6253 H 592.578 -1.33756 -3.41328 0
M  V30 6254 H 592.226 0.564792 -4.99819 0
M  V30 6255 H 591.926 -1.00267 -5.78982 0
M  V30 6256 H 593.45 -0.12503 -6.10472 0
M  V30 6257 H 594.864 -2.24034 -5.27714 0
M  V30 6258 H 593.261 -3.02582 -5.18232 0
M  V30 6259 H 594.331 -3.05082 -3.76899 0
M  V30 6260 N 595.674 1.31259 -0.872281 0
M  V30 6261 C 596.621 2.28459 -0.327857 0
M  V30 6262 C 597.591 1.55831 0.574957 0
M  V30 6263 O 598.776 1.83965 0.506101 0
M  V30 6264 C 595.916 3.41985 0.462644 0
M  V30 6265 C 595.029 4.29458 -0.467949 0
M  V30 6266 C 594.164 5.30131 0.336903 0
M  V30 6267 C 593.203 6.0925 -0.58997 0
M  V30 6268 N 592.34 7.01872 0.178775 0
M  V30 6269 H 597.18 2.74414 -1.16193 0
M  V30 6270 H 594.717 1.34994 -0.584376 0
M  V30 6271 H 596.675 4.06547 0.936759 0
M  V30 6272 H 595.305 2.97134 1.2614 0
M  V30 6273 H 594.357 3.65318 -1.06052 0
M  V30 6274 H 595.669 4.84677 -1.17856 0
M  V30 6275 H 594.823 6.0038 0.873427 0
M  V30 6276 H 593.562 4.75573 1.08079 0
M  V30 6277 H 592.567 5.37889 -1.13823 0
M  V30 6278 H 593.792 6.65894 -1.33275 0
M  V30 6279 H 591.738 6.49721 0.905435 0
M  V30 6280 H 591.655 7.54522 -0.472452 0
M  V30 6281 H 592.923 7.76382 0.696454 0
M  V30 6282 N 597.152 0.631951 1.44375 0
M  V30 6283 C 598.392 0.14009 2.03919 0
M  V30 6284 C 598.756 -1.21534 1.48639 0
M  V30 6285 O 599.957 -1.79936 1.99691 0
M  V30 6286 C 598.228 0.127174 3.57174 0
M  V30 6287 S 599.787 -0.299946 4.37774 0
M  V30 6288 H 596.605 0.0614891 0.708336 0
M  V30 6289 H 599.207 0.835524 1.76746 0
M  V30 6290 H 597.911 1.11676 3.94913 0
M  V30 6291 H 597.442 -0.589482 3.88958 0
M  V30 6292 H 599.457 -1.54396 4.71568 0
M  V30 6293 N 598.631 -1.53133 0.372548 0
M  V30 6294 C 599.856 -2.0625 -0.218098 0
M  V30 6295 C 600.281 -1.24375 -1.41111 0
M  V30 6296 O 599.639 -0.264554 -1.79359 0
M  V30 6297 C 599.687 -3.55858 -0.582876 0
M  V30 6298 O 598.791 -3.76667 -1.67917 0
M  V30 6299 H 598.132 -0.663317 -0.030104 0
M  V30 6300 H 600.662 -1.97477 0.535169 0
M  V30 6301 H 600.672 -3.99007 -0.851925 0
M  V30 6302 H 599.347 -4.14892 0.289428 0
M  V30 6303 H 597.924 -3.45413 -1.40513 0
M  V30 6304 N 600.109 -0.101901 -1.5727 0
M  V30 6305 C 601.019 0.868647 -2.17926 0
M  V30 6306 C 602.035 1.30527 -1.1506 0
M  V30 6307 O 603.211 1.37178 -1.47459 0
M  V30 6308 C 600.276 2.10727 -2.75309 0
M  V30 6309 C 599.337 1.7242 -3.93154 0
M  V30 6310 C 598.57 2.90377 -4.47791 0
M  V30 6311 O 598.793 4.05305 -4.01353 0
M  V30 6312 O 597.727 2.6845 -5.38719 0
M  V30 6313 H 601.553 0.382544 -3.01281 0
M  V30 6314 H 599.138 0.122812 -1.48894 0
M  V30 6315 H 601.02 2.83303 -3.11958 0
M  V30 6316 H 599.695 2.58376 -1.94996 0
M  V30 6317 H 598.602 0.970039 -3.61305 0
M  V30 6318 H 599.935 1.29528 -4.74851 0
M  V30 6319 N 601.587 1.56661 0.17182 0
M  V30 6320 C 602.834 1.81965 0.888529 0
M  V30 6321 C 603.162 0.6789 1.82267 0
M  V30 6322 O 602.417 -0.333875 1.92831 0
M  V30 6323 C 602.716 3.13435 1.71736 0
M  V30 6324 C 602.382 4.41159 0.932184 0
M  V30 6325 C 601.044 4.75851 0.715481 0
M  V30 6326 C 603.396 5.19803 0.381387 0
M  V30 6327 C 600.724 5.86666 -0.063126 0
M  V30 6328 C 603.076 6.31433 -0.384129 0
M  V30 6329 C 601.74 6.64692 -0.611637 0
M  V30 6330 H 601.01 0.665859 0.325136 0
M  V30 6331 H 603.657 1.90884 0.153495 0
M  V30 6332 H 601.962 2.99857 2.52177 0
M  V30 6333 H 603.659 3.30224 2.27493 0
M  V30 6334 H 600.249 4.13947 1.11112 0
M  V30 6335 H 604.433 4.93396 0.536148 0
M  V30 6336 H 599.689 6.10892 -0.249136 0
M  V30 6337 H 603.863 6.91577 -0.818185 0
M  V30 6338 H 601.49 7.50398 -1.21684 0
M  V30 6339 N 603.065 -0.440357 1.51323 0
M  V30 6340 C 604.313 -1.18769 1.63518 0
M  V30 6341 C 604.634 -1.91793 0.352201 0
M  V30 6342 O 603.904 -1.85432 -0.631811 0
M  V30 6343 H 602.484 -0.441408 0.602634 0
M  V30 6344 H 605.146 -0.505162 1.8824 0
M  V30 6345 H 604.242 -1.91892 2.46138 0
M  V30 6346 N 604.543 -1.41418 -0.695603 0
M  V30 6347 C 605.82 -1.31264 -1.45014 0
M  V30 6348 C 606.2 0.0597994 -2.11015 0
M  V30 6349 O 605.548 1.07403 -2.01685 0
M  V30 6350 C 605.758 -2.466 -2.4696 0
M  V30 6351 C 607.106 -2.87763 -3.12214 0
M  V30 6352 O 608.13 -2.46339 -2.57285 0
M  V30 6353 O 606.989 -3.59395 -4.11701 0
M  V30 6354 H 604.083 -0.516576 -0.645816 0
M  V30 6355 H 606.629 -1.53382 -0.726084 0
M  V30 6356 H 605.401 -3.38183 -1.96845 0
M  V30 6357 H 605.024 -2.26358 -3.26876 0
M  V30 6358 N 606.021 0.929856 -1.27246 0
M  V30 6359 C 606.984 2.01172 -1.09829 0
M  V30 6360 C 607.984 1.60743 -0.0429687 0
M  V30 6361 O 609.174 1.71813 -0.287373 0
M  V30 6362 C 606.306 3.34191 -0.673003 0
M  V30 6363 H 607.499 2.18054 -2.05895 0
M  V30 6364 H 605.052 1.11036 -1.10003 0
M  V30 6365 H 605.787 3.23009 0.289134 0
M  V30 6366 H 605.572 3.64892 -1.43515 0
M  V30 6367 H 607.062 4.13646 -0.573323 0
M  V30 6368 N 607.499 1.09233 1.13605 0
M  V30 6369 C 608.748 0.82205 1.84188 0
M  V30 6370 C 609.061 -0.654548 1.84323 0
M  V30 6371 O 610.267 -1.04029 2.50779 0
M  V30 6372 C 608.723 1.42066 3.30674 0
M  V30 6373 C 608.331 2.92965 3.38933 0
M  V30 6374 C 610.075 1.22924 4.06313 0
M  V30 6375 C 607.982 3.45922 4.79679 0
M  V30 6376 H 606.912 0.303854 0.690064 0
M  V30 6377 H 609.563 1.31479 1.28006 0
M  V30 6378 H 607.945 0.855613 3.86646 0
M  V30 6379 H 609.119 3.55679 2.92966 0
M  V30 6380 H 607.434 3.11118 2.76757 0
M  V30 6381 H 610.031 1.59945 5.10217 0
M  V30 6382 H 610.374 0.169726 4.15954 0
M  V30 6383 H 610.907 1.76168 3.56665 0
M  V30 6384 H 607.646 4.51484 4.75229 0
M  V30 6385 H 607.166 2.87971 5.26149 0
M  V30 6386 H 608.845 3.43009 5.48592 0
M  V30 6387 N 608.977 -1.30795 0.87923 0
M  V30 6388 C 610.226 -1.95636 0.490875 0
M  V30 6389 C 610.539 -1.70214 -0.963674 0
M  V30 6390 O 611.745 -2.28991 -1.45861 0
M  V30 6391 C 610.201 -3.50271 0.826929 0
M  V30 6392 C 609.809 -3.84521 2.29886 0
M  V30 6393 C 611.553 -4.21456 0.507494 0
M  V30 6394 C 609.46 -5.32309 2.57685 0
M  V30 6395 H 608.39 -0.732238 0.179841 0
M  V30 6396 H 611.041 -1.48829 1.07341 0
M  V30 6397 H 609.423 -3.9562 0.173542 0
M  V30 6398 H 610.597 -3.50102 2.99609 0
M  V30 6399 H 608.912 -3.26425 2.58526 0
M  V30 6400 H 611.509 -5.30199 0.692293 0
M  V30 6401 H 611.852 -4.12614 -0.552718 0
M  V30 6402 H 612.385 -3.81772 1.11782 0
M  V30 6403 H 609.124 -5.46195 3.62424 0
M  V30 6404 H 608.644 -5.68048 1.92566 0
M  V30 6405 H 610.323 -5.99678 2.42889 0
M  V30 6406 N 610.455 -0.639598 -1.44038 0
M  V30 6407 C 611.365 0.0612377 -2.3452 0
M  V30 6408 C 612.381 0.826717 -1.53106 0
M  V30 6409 O 613.557 0.777059 -1.85806 0
M  V30 6410 C 610.622 1.02492 -3.31204 0
M  V30 6411 C 609.683 0.25788 -4.28525 0
M  V30 6412 C 608.916 1.17566 -5.2059 0
M  V30 6413 O 609.139 2.41461 -5.16771 0
M  V30 6414 O 608.073 0.655407 -5.98321 0
M  V30 6415 H 611.899 -0.68318 -2.95916 0
M  V30 6416 H 609.484 -0.399784 -1.43952 0
M  V30 6417 H 611.366 1.57911 -3.90694 0
M  V30 6418 H 610.041 1.7498 -2.7233 0
M  V30 6419 H 608.948 -0.339566 -3.72556 0
M  V30 6420 H 610.281 -0.427154 -4.90343 0
M  V30 6421 N 611.933 1.52934 -0.380664 0
M  V30 6422 C 612.881 2.27727 0.47361 0
M  V30 6423 C 613.875 1.31288 1.0705 0
M  V30 6424 O 615.081 1.4886 1.01197 0
M  V30 6425 H 611.456 0.732189 0.171475 0
M  V30 6426 H 613.427 2.97864 -0.178785 0
M  V30 6427 C 612.176 3.0904 1.59341 0
M  V30 6428 H 611.499 3.831 1.14343 0
M  V30 6429 H 612.939 3.64527 2.16555 0
M  V30 6430 C 611.398 2.20813 2.54447 0
M  V30 6431 O 611.928 1.82907 3.57642 0
M  V30 6432 N 610.134 1.85145 2.23986 0
M  V30 6433 H 609.681 2.16169 1.40103 0
M  V30 6434 H 609.639 1.26402 2.87871 0
M  V30 6435 N 613.412 0.11024 1.57214 0
M  V30 6436 C 614.345 -0.880224 2.1054 0
M  V30 6437 C 615.323 -1.26658 1.01964 0
M  V30 6438 O 616.507 -1.36917 1.29561 0
M  V30 6439 C 613.634 -2.17676 2.59489 0
M  V30 6440 C 612.68 -1.93914 3.79868 0
M  V30 6441 S 613.513 -1.16336 5.2271 0
M  V30 6442 C 614.669 -2.47188 5.75021 0
M  V30 6443 H 614.902 -0.426614 2.94223 0
M  V30 6444 H 612.435 -0.10336 1.54054 0
M  V30 6445 H 614.393 -2.92175 2.88347 0
M  V30 6446 H 613.054 -2.60156 1.76005 0
M  V30 6447 H 612.247 -2.8996 4.12236 0
M  V30 6448 H 611.849 -1.27539 3.51582 0
M  V30 6449 H 614.141 -3.43079 5.84211 0
M  V30 6450 H 615.084 -2.19377 6.7326 0
M  V30 6451 H 615.492 -2.56154 5.03036 0
M  V30 6452 O 614.929 -1.61473 -0.0293866 0
M  V30 6453 H 615.62 -1.82469 -0.649975 0
M  V30 END ATOM
M  V30 BEGIN BOND
M  V30 END BOND
M  V30 END CTAB
M  END
$$$$
