drugbank_target|Q13231 Chitotriosidase-1 (DB03109; DB03539; DB03632; DB04350; DB04404)
 OpenBabel12092119473D

  0  0  0     0  0            999 V3000
M  V30 BEGIN CTAB
M  V30 COUNTS 7159 7258 0 0 0
M  V30 BEGIN ATOM
M  V30 1 H -0.908 1.98254 -0.117106 0
M  V30 2 N 0 1.576 0 0
M  V30 3 C 0.933 2.03868 1.02534 0
M  V30 4 C 1.911 0.928543 1.3348 0
M  V30 5 O 3.095 1.19667 1.45644 0
M  V30 6 C 0.222 2.43627 2.35294 0
M  V30 7 C -0.732 3.65373 2.2001 0
M  V30 8 S 0.101 5.13292 1.52614 0
M  V30 9 C 1.257 5.56322 2.86805 0
M  V30 10 H 1.49 2.90518 0.631377 0
M  V30 11 H -0.977 1.52953 0.210867 0
M  V30 12 H 0.981 2.67203 3.11629 0
M  V30 13 H -0.358 1.57376 2.7183 0
M  V30 14 H -1.165 3.90944 3.18086 0
M  V30 15 H -1.563 3.418 1.51819 0
M  V30 16 H 0.729 5.58782 3.83104 0
M  V30 17 H 1.672 6.56266 2.65933 0
M  V30 18 H 2.08 4.83886 2.90714 0
M  V30 19 N 1.4781 -0.272755 1.55222 0
M  V30 20 C 2.7241 -1.00581 1.761 0
M  V30 21 C 3.0571 -1.85932 0.560625 0
M  V30 22 O 2.3321 -1.89416 -0.441801 0
M  V30 23 C 2.6151 -1.88816 3.06628 0
M  V30 24 C 2.4681 -1.06457 4.37021 0
M  V30 25 C 3.7871 -2.8752 3.33197 0
M  V30 26 H 0.9061 -0.364244 0.640699 0
M  V30 27 H 3.5481 -0.278189 1.87952 0
M  V30 28 H 1.6981 -2.50856 2.96654 0
M  V30 29 H 3.3701 -0.464863 4.58952 0
M  V30 30 H 1.6131 -0.368043 4.32236 0
M  V30 31 H 2.2841 -1.71514 5.24678 0
M  V30 32 H 4.7601 -2.35615 3.42965 0
M  V30 33 H 3.6361 -3.46399 4.25792 0
M  V30 34 H 3.8971 -3.62657 2.52849 0
M  V30 35 N 2.9562 -1.48159 -0.537278 0
M  V30 36 C 4.3722 -1.34118 -0.865129 0
M  V30 37 C 4.5722 -0.346678 -1.98495 0
M  V30 38 O 3.6282 0.234715 -2.51407 0
M  V30 39 C 4.9412 -2.73963 -1.23954 0
M  V30 40 C 6.4892 -2.82397 -1.34984 0
M  V30 41 C 6.9642 -4.22928 -1.75772 0
M  V30 42 N 8.4552 -4.25566 -1.82887 0
M  V30 43 C 9.1902 -5.31235 -2.15817 0
M  V30 44 N 8.6862 -6.47189 -2.47222 0
M  V30 45 N 10.4792 -5.18624 -2.16761 0
M  V30 46 H 2.6302 -2.1144 0.201715 0
M  V30 47 H 4.8932 -0.947598 0.0275949 0
M  V30 48 H 4.5992 -3.48264 -0.490381 0
M  V30 49 H 4.4732 -3.0702 -2.19132 0
M  V30 50 H 6.8602 -2.08356 -2.08978 0
M  V30 51 H 6.9412 -2.5297 -0.379448 0
M  V30 52 H 6.5852 -4.97482 -1.02341 0
M  V30 53 H 6.5152 -4.49794 -2.73848 0
M  V30 54 H 9.0062 -3.41924 -1.60924 0
M  V30 55 H 9.3192 -7.23564 -2.71433 0
M  V30 56 H 7.6642 -6.50476 -2.44757 0
M  V30 57 H 10.8552 -4.27056 -1.91679 0
M  V30 58 H 11.0282 -6.01078 -2.42093 0
M  V30 59 N 4.4343 0.785586 -1.36625 0
M  V30 60 C 5.6593 1.57963 -1.34397 0
M  V30 61 C 6.0843 1.87964 0.071526 0
M  V30 62 O 5.4423 1.48182 1.0446 0
M  V30 63 C 5.4903 2.87511 -2.17646 0
M  V30 64 O 4.5943 3.81281 -1.57158 0
M  V30 65 H 3.9353 0.479014 -0.459828 0
M  V30 66 H 6.4653 0.973411 -1.79961 0
M  V30 67 H 6.4753 3.36745 -2.30362 0
M  V30 68 H 5.1503 2.65002 -3.20541 0
M  V30 69 H 3.7273 3.39885 -1.53403 0
M  V30 70 N 5.9124 1.20967 1.01018 0
M  V30 71 C 7.1584 1.02526 1.74975 0
M  V30 72 C 7.4914 -0.4408 1.89131 0
M  V30 73 O 6.7664 -1.32718 1.42184 0
M  V30 74 C 7.0494 1.71699 3.1653 0
M  V30 75 C 6.9024 3.25791 3.10129 0
M  V30 76 C 8.2214 1.45531 4.15342 0
M  V30 77 H 5.3404 0.373863 0.635134 0
M  V30 78 H 7.9824 1.49071 1.17805 0
M  V30 79 H 6.1324 1.32128 3.65341 0
M  V30 80 H 7.8044 3.74697 2.69072 0
M  V30 81 H 6.0474 3.56363 2.47362 0
M  V30 82 H 6.7184 3.69353 4.10222 0
M  V30 83 H 9.1944 1.79872 3.75213 0
M  V30 84 H 8.0704 1.96453 5.1254 0
M  V30 85 H 8.3314 0.384237 4.40427 0
M  V30 86 N 7.3905 -1.2043 1.01659 0
M  V30 87 C 8.3535 -2.21433 0.591616 0
M  V30 88 C 9.3535 -1.57203 -0.338226 0
M  V30 89 O 10.5435 -1.73737 -0.126918 0
M  V30 90 C 7.6755 -3.40628 -0.136058 0
M  V30 91 H 8.8685 -2.60545 1.48514 0
M  V30 92 H 6.4215 -1.33893 0.806379 0
M  V30 93 H 7.1565 -3.07019 -1.04449 0
M  V30 94 H 6.9415 -3.88475 0.531917 0
M  V30 95 H 8.4315 -4.15475 -0.420735 0
M  V30 96 N 8.8686 -0.792821 -1.36206 0
M  V30 97 C 10.1146 -0.376415 -1.99887 0
M  V30 98 C 10.4696 1.04127 -1.61788 0
M  V30 99 O 9.7626 1.71004 -0.864193 0
M  V30 100 C 9.9566 -0.481501 -3.54142 0
M  V30 101 C 9.7856 -1.90786 -4.07223 0
M  V30 102 C 8.5556 -2.53322 -4.37214 0
M  V30 103 C 10.7536 -2.87048 -4.26741 0
M  V30 104 N 8.7356 -3.8751 -4.7614 0
M  V30 105 C 10.1066 -4.06077 -4.6851 0
M  V30 106 C 12.1616 -2.8406 -4.08918 0
M  V30 107 C 10.8646 -5.22532 -4.94321 0
M  V30 108 C 12.8906 -3.99705 -4.35878 0
M  V30 109 C 12.2526 -5.1748 -4.77906 0
M  V30 110 H 8.3516 -0.185226 -0.759747 0
M  V30 111 H 10.9356 -1.03114 -1.65153 0
M  V30 112 H 9.1066 0.143154 -3.88136 0
M  V30 113 H 10.8386 -0.0410128 -4.04679 0
M  V30 114 H 7.5936 -2.04777 -4.2704 0
M  V30 115 H 8.0176 -4.5656 -4.99882 0
M  V30 116 H 12.6596 -1.94165 -3.75579 0
M  V30 117 H 10.3776 -6.1301 -5.2654 0
M  V30 118 H 13.9636 -3.98758 -4.23655 0
M  V30 119 H 12.8436 -6.05478 -4.98363 0
M  V30 120 N 10.3467 1.47872 -0.545128 0
M  V30 121 C 11.3097 2.28337 0.198717 0
M  V30 122 C 12.3097 1.36255 0.853888 0
M  V30 123 O 13.4997 1.59003 0.711606 0
M  V30 124 C 10.6317 3.15585 1.28915 0
M  V30 125 H 11.8247 2.95567 -0.507941 0
M  V30 126 H 9.3777 1.53362 -0.301616 0
M  V30 127 H 10.1127 2.53019 2.02859 0
M  V30 128 H 9.8977 3.83337 0.824309 0
M  V30 129 H 11.3877 3.76243 1.81194 0
M  V30 130 N 11.8248 0.280983 1.55075 0
M  V30 131 C 13.0728 -0.333455 1.9933 0
M  V30 132 C 13.3938 -1.55937 1.17085 0
M  V30 133 O 12.6638 -1.94143 0.261805 0
M  V30 134 H 11.2438 -0.126197 0.736263 0
M  V30 135 H 13.9058 0.387678 1.91005 0
M  V30 136 H 13.0018 -0.619292 3.05894 0
M  V30 137 N 13.3029 -1.57598 0.00835791 0
M  V30 138 C 14.5499 -1.90928 -0.674732 0
M  V30 139 C 14.8779 -0.88277 -1.73313 0
M  V30 140 O 14.1329 0.111294 -1.95383 0
M  V30 141 C 14.4319 -3.3101 -1.34787 0
M  V30 142 C 14.0979 -4.48922 -0.421861 0
M  V30 143 C 12.7599 -4.8091 -0.166927 0
M  V30 144 C 15.1119 -5.20755 0.215211 0
M  V30 145 C 12.4399 -5.821 0.733232 0
M  V30 146 C 14.7919 -6.22905 1.1033 0
M  V30 147 C 13.4559 -6.53346 1.36733 0
M  V30 148 H 12.7259 -0.698656 -0.246902 0
M  V30 149 H 15.3729 -1.91387 0.0656779 0
M  V30 150 H 13.6779 -3.26714 -2.16253 0
M  V30 151 H 15.3749 -3.54061 -1.8826 0
M  V30 152 H 11.9649 -4.23934 -0.630729 0
M  V30 153 H 16.1489 -4.9629 0.0312829 0
M  V30 154 H 11.4049 -6.04042 0.945712 0
M  V30 155 H 15.5789 -6.77694 1.60325 0
M  V30 156 H 13.2059 -7.31573 2.06652 0
M  V30 157 N 14.781 0.264519 -1.55364 0
M  V30 158 C 15.714 1.35297 -1.83766 0
M  V30 159 C 16.692 1.47171 -0.691336 0
M  V30 160 O 17.876 1.63663 -0.935238 0
M  V30 161 C 15.003 2.72847 -2.00679 0
M  V30 162 C 14.049 2.78214 -3.23263 0
M  V30 163 S 14.882 2.36601 -4.80396 0
M  V30 164 C 16.038 3.7611 -5.00292 0
M  V30 165 H 16.271 1.11003 -2.758 0
M  V30 166 H 13.804 0.464596 -1.47244 0
M  V30 167 H 15.762 3.52057 -2.11108 0
M  V30 168 H 14.423 2.94388 -1.09518 0
M  V30 169 H 13.616 3.7919 -3.3201 0
M  V30 170 H 13.218 2.07034 -3.11469 0
M  V30 171 H 15.51 4.71457 -4.86554 0
M  V30 172 H 16.453 3.7231 -6.02321 0
M  V30 173 H 16.861 3.67806 -4.28228 0
M  V30 174 N 16.2591 1.48442 0.529413 0
M  V30 175 C 17.5051 1.5672 1.28711 0
M  V30 176 C 17.8381 0.2406 1.92704 0
M  V30 177 O 17.1131 -0.753454 1.79313 0
M  V30 178 C 17.3961 2.70587 2.37603 0
M  V30 179 C 17.2491 4.12953 1.78297 0
M  V30 180 C 18.5681 2.80212 3.39366 0
M  V30 181 H 15.6871 0.570474 0.466613 0
M  V30 182 H 18.3291 1.80617 0.589706 0
M  V30 183 H 16.4791 2.50342 2.97088 0
M  V30 184 H 18.1511 4.44639 1.22858 0
M  V30 185 H 16.3941 4.19927 1.0883 0
M  V30 186 H 17.0651 4.88448 2.57144 0
M  V30 187 H 19.5411 2.98553 2.89836 0
M  V30 188 H 18.4171 3.61611 4.12951 0
M  V30 189 H 18.6781 1.88393 3.99951 0
M  V30 190 N 17.7372 -0.778329 1.37039 0
M  V30 191 C 18.6672 -1.90546 1.34962 0
M  V30 192 C 19.6482 -1.68681 0.219274 0
M  V30 193 O 20.8332 -1.89634 0.418624 0
M  V30 194 C 17.9632 -3.27734 1.14925 0
M  V30 195 C 16.9172 -3.64147 2.24902 0
M  V30 196 C 16.2432 -4.99806 1.89996 0
M  V30 197 C 17.5432 -3.71579 3.67051 0
M  V30 198 H 19.2372 -1.92541 2.29277 0
M  V30 199 H 16.7832 -0.924948 1.10366 0
M  V30 200 H 18.7362 -4.06215 1.12104 0
M  V30 201 H 17.4602 -3.26154 0.170631 0
M  V30 202 H 16.1192 -2.8797 2.26868 0
M  V30 203 H 15.7672 -4.94759 0.906796 0
M  V30 204 H 15.4672 -5.25139 2.63634 0
M  V30 205 H 16.9912 -5.80694 1.88749 0
M  V30 206 H 18.4052 -4.40227 3.67251 0
M  V30 207 H 16.8022 -4.08405 4.39688 0
M  V30 208 H 17.8722 -2.72404 4.01154 0
M  V30 209 N 19.2153 -1.21501 -1.00376 0
M  V30 210 C 20.1453 -0.999478 -2.11028 0
M  V30 211 C 21.1263 0.0759671 -1.6993 0
M  V30 212 O 22.3113 -0.0841106 -1.94018 0
M  V30 213 C 19.4413 -0.564709 -3.42678 0
M  V30 214 C 18.3953 -1.58486 -3.97576 0
M  V30 215 C 17.7213 -1.00628 -5.25146 0
M  V30 216 C 19.0213 -2.97204 -4.29496 0
M  V30 217 H 20.7153 -1.92495 -2.29317 0
M  V30 218 H 18.2613 -0.92693 -1.102 0
M  V30 219 H 20.2143 -0.401091 -4.19487 0
M  V30 220 H 18.9383 0.396411 -3.24185 0
M  V30 221 H 17.5973 -1.73606 -3.22888 0
M  V30 222 H 17.2453 -0.0368439 -5.02987 0
M  V30 223 H 16.9453 -1.68771 -5.62841 0
M  V30 224 H 18.4693 -0.854015 -6.04598 0
M  V30 225 H 19.8833 -2.8552 -4.97143 0
M  V30 226 H 18.2803 -3.62372 -4.78338 0
M  V30 227 H 19.3503 -3.47956 -3.3772 0
M  V30 228 N 20.6934 1.19889 -1.02296 0
M  V30 229 C 21.6264 2.21639 -0.543282 0
M  V30 230 C 22.6044 1.57275 0.412698 0
M  V30 231 O 23.7884 1.85568 0.331198 0
M  V30 232 C 20.9154 3.38057 0.208571 0
M  V30 233 C 19.9614 4.20751 -0.697933 0
M  V30 234 S 20.7944 4.89529 -2.17075 0
M  V30 235 C 21.9504 6.09363 -1.42923 0
M  V30 236 H 22.1834 2.61984 -1.40541 0
M  V30 237 H 19.7164 1.30041 -0.832387 0
M  V30 238 H 21.6744 4.05539 0.63624 0
M  V30 239 H 20.3354 2.96159 1.04635 0
M  V30 240 H 19.5284 5.03862 -0.117831 0
M  V30 241 H 19.1304 3.58556 -1.06366 0
M  V30 242 H 21.4224 6.73742 -0.712637 0
M  V30 243 H 22.3654 6.71845 -2.23673 0
M  V30 244 H 22.7734 5.56798 -0.929327 0
M  V30 245 N 22.1715 0.800033 1.35784 0
M  V30 246 C 23.4205 0.37387 1.98205 0
M  V30 247 C 23.7335 -1.06302 1.64193 0
M  V30 248 O 24.9395 -1.59198 2.19928 0
M  V30 249 C 23.3955 0.617532 3.54562 0
M  V30 250 C 23.0035 2.06654 3.9749 0
M  V30 251 C 24.7475 0.256401 4.23725 0
M  V30 252 C 22.6545 2.2563 5.46667 0
M  V30 253 H 21.5845 0.136055 0.741623 0
M  V30 254 H 24.2355 0.983166 1.54939 0
M  V30 255 H 22.6175 -0.0616248 3.95952 0
M  V30 256 H 23.7915 2.78296 3.67271 0
M  V30 257 H 22.1065 2.38691 3.41197 0
M  V30 258 H 24.7035 0.376318 5.33374 0
M  V30 259 H 25.0465 -0.796692 4.08606 0
M  V30 260 H 25.5795 0.889214 3.87734 0
M  V30 261 H 22.3185 3.2936 5.66747 0
M  V30 262 H 21.8385 1.58504 5.78478 0
M  V30 263 H 23.5175 2.06861 6.1304 0
M  V30 264 N 23.6496 -1.47581 0.552962 0
M  V30 265 C 25.0606 -1.86324 0.118463 0
M  V30 266 C 25.4116 -1.46006 -1.3106 0
M  V30 267 O 24.5366 -0.861182 -1.98526 0
M  V30 268 C 25.1316 -3.3816 0.20821 0
M  V30 269 C 23.6906 -3.7601 -0.171226 0
M  V30 270 C 22.8376 -2.71634 0.557686 0
M  V30 271 H 25.7886 -1.39159 0.762928 0
M  V30 272 H 25.8096 -3.76141 -0.574278 0
M  V30 273 H 25.3216 -3.67473 1.24841 0
M  V30 274 H 23.4226 -3.52313 -1.21269 0
M  V30 275 H 23.5356 -4.78745 0.184379 0
M  V30 276 H 21.8996 -2.547 0.00125792 0
M  V30 277 H 22.6826 -3.0379 1.59896 0
M  V30 278 N 25.1277 -0.289203 -1.54924 0
M  V30 279 C 26.3737 0.316922 -2.00916 0
M  V30 280 C 26.7287 1.52424 -1.17408 0
M  V30 281 O 26.0217 1.90097 -0.239536 0
M  V30 282 C 26.2157 0.736119 -3.49737 0
M  V30 283 C 26.0447 -0.429036 -4.47649 0
M  V30 284 C 24.8147 -0.917311 -4.96904 0
M  V30 285 C 27.0127 -1.27016 -4.98369 0
M  V30 286 N 24.9947 -2.05046 -5.78644 0
M  V30 287 C 26.3657 -2.25097 -5.77695 0
M  V30 288 C 28.4207 -1.30188 -4.80578 0
M  V30 289 C 27.1237 -3.26114 -6.41126 0
M  V30 290 C 29.1497 -2.30057 -5.44819 0
M  V30 291 C 28.5117 -3.2687 -6.23968 0
M  V30 292 H 24.6107 0.0807535 -0.777819 0
M  V30 293 H 27.1947 -0.416434 -1.90194 0
M  V30 294 H 25.3657 1.43867 -3.60773 0
M  V30 295 H 27.0977 1.32078 -3.82541 0
M  V30 296 H 23.8527 -0.494248 -4.71014 0
M  V30 297 H 24.2767 -2.62108 -6.24202 0
M  V30 298 H 28.9187 -0.567163 -4.18979 0
M  V30 299 H 26.6367 -4.00512 -7.01866 0
M  V30 300 H 30.2227 -2.33271 -5.32988 0
M  V30 301 H 29.1027 -4.02883 -6.72796 0
M  V30 302 N 26.6058 1.57591 -0.0167156 0
M  V30 303 C 27.8538 1.90906 0.663285 0
M  V30 304 C 28.1748 0.892509 1.73376 0
M  V30 305 O 27.4448 -0.0677623 1.95783 0
M  V30 306 H 26.0248 0.704637 0.247983 0
M  V30 307 H 28.6868 1.94803 -0.0615909 0
M  V30 308 H 27.7828 2.9116 1.12393 0
M  V30 309 N 28.0839 -0.256276 1.55502 0
M  V30 310 C 29.3089 -1.00766 1.81276 0
M  V30 311 C 29.7339 -1.78524 0.59252 0
M  V30 312 O 29.0919 -1.75413 -0.45827 0
M  V30 313 C 29.1399 -1.92869 3.04687 0
M  V30 314 O 28.2439 -3.019 2.80945 0
M  V30 315 H 27.5849 -0.287224 0.598664 0
M  V30 316 H 30.1149 -0.280109 2.02674 0
M  V30 317 H 30.1249 -2.34511 3.33869 0
M  V30 318 H 28.7999 -1.35689 3.93143 0
M  V30 319 H 27.3769 -2.64454 2.62904 0
M  V30 320 N 29.562 -1.4872 -0.521534 0
M  V30 321 C 30.525 -1.63379 -1.60748 0
M  V30 322 C 31.525 -0.50661 -1.52611 0
M  V30 323 O 32.715 -0.772601 -1.5613 0
M  V30 324 C 29.847 -1.61192 -3.00383 0
M  V30 325 H 31.04 -2.60217 -1.49087 0
M  V30 326 H 28.593 -1.37444 -0.744235 0
M  V30 327 H 29.328 -0.65863 -3.17541 0
M  V30 328 H 29.113 -2.43032 -3.07698 0
M  V30 329 H 30.603 -1.7466 -3.7932 0
M  V30 330 N 31.0401 0.771051 -1.3745 0
M  V30 331 C 32.0031 1.86598 -1.33093 0
M  V30 332 C 33.0031 1.59076 -0.234845 0
M  V30 333 O 34.1931 1.67145 -0.490732 0
M  V30 334 C 31.3251 3.23747 -1.06773 0
M  V30 335 H 32.5181 1.91873 -2.30488 0
M  V30 336 H 30.0711 0.970876 -1.2249 0
M  V30 337 H 30.8061 3.24148 -0.099129 0
M  V30 338 H 30.5911 3.45115 -1.86112 0
M  V30 339 H 32.0811 4.03824 -1.06377 0
M  V30 340 N 32.5182 1.22032 0.997298 0
M  V30 341 C 33.4652 0.986467 2.08656 0
M  V30 342 C 34.4352 -0.0902671 1.65855 0
M  V30 343 O 35.6202 0.0584294 1.90711 0
M  V30 344 C 32.7602 0.565569 3.40434 0
M  V30 345 C 31.8732 1.71259 3.96604 0
M  V30 346 C 31.0082 1.24011 5.16522 0
M  V30 347 C 30.0472 2.35896 5.64818 0
M  V30 348 N 29.1842 1.89726 6.7598 0
M  V30 349 H 34.0242 1.91892 2.27994 0
M  V30 350 H 31.5612 0.956199 1.11782 0
M  V30 351 H 33.5192 0.302738 4.161 0
M  V30 352 H 32.1492 -0.329879 3.2111 0
M  V30 353 H 31.2012 2.08986 3.17851 0
M  V30 354 H 32.5132 2.55436 4.28432 0
M  V30 355 H 31.6672 0.934395 5.99461 0
M  V30 356 H 30.4062 0.368487 4.86306 0
M  V30 357 H 29.4112 2.67261 4.8047 0
M  V30 358 H 30.6362 3.23567 5.97061 0
M  V30 359 H 28.5822 1.0492 6.47555 0
M  V30 360 H 28.4992 2.67471 7.07103 0
M  V30 361 H 29.7672 1.62211 7.62435 0
M  V30 362 N 33.9963 -1.19345 1.0293 0
M  V30 363 C 34.9263 -2.2481 0.631105 0
M  V30 364 C 35.9073 -1.66245 -0.360104 0
M  V30 365 O 37.0923 -1.92677 -0.242726 0
M  V30 366 C 34.2223 -3.47295 -0.0184607 0
M  V30 367 C 33.1763 -4.18536 0.895073 0
M  V30 368 C 32.5023 -5.34586 0.110592 0
M  V30 369 C 33.8023 -4.73287 2.209 0
M  V30 370 H 35.4963 -2.58372 1.51275 0
M  V30 371 H 33.0423 -1.24194 0.728818 0
M  V30 372 H 34.9953 -4.20268 -0.308675 0
M  V30 373 H 33.7193 -3.12933 -0.934907 0
M  V30 374 H 32.3783 -3.47446 1.16949 0
M  V30 375 H 32.0263 -4.96469 -0.807902 0
M  V30 376 H 31.7263 -5.83183 0.719087 0
M  V30 377 H 33.2503 -6.10355 -0.172871 0
M  V30 378 H 34.6643 -5.38013 1.98028 0
M  V30 379 H 33.0613 -5.32373 2.76946 0
M  V30 380 H 34.1313 -3.91331 2.86336 0
M  V30 381 N 35.4744 -0.807222 -1.35358 0
M  V30 382 C 36.7204 -0.388463 -1.99045 0
M  V30 383 C 37.0534 1.04184 -1.63888 0
M  V30 384 O 36.3284 1.72292 -0.902535 0
M  V30 385 C 36.6114 -0.572783 -3.55515 0
M  V30 386 C 36.4644 -2.04807 -4.00468 0
M  V30 387 C 37.7834 0.00114064 -4.401 0
M  V30 388 H 34.9024 -0.142619 -0.723069 0
M  V30 389 H 37.5444 -1.01687 -1.60498 0
M  V30 390 H 35.6944 -0.0378425 -3.88482 0
M  V30 391 H 37.3664 -2.64544 -3.77908 0
M  V30 392 H 35.6094 -2.54427 -3.51353 0
M  V30 393 H 36.2804 -2.12792 -5.09337 0
M  V30 394 H 38.7564 -0.455716 -4.13597 0
M  V30 395 H 37.6324 -0.157737 -5.48673 0
M  V30 396 H 37.8934 1.09488 -4.28328 0
M  V30 397 N 36.9525 1.47285 -0.560781 0
M  V30 398 C 38.1925 2.0436 -0.0404627 0
M  V30 399 C 38.5565 1.42534 1.28639 0
M  V30 400 O 39.7575 1.90677 1.89462 0
M  V30 401 C 38.0285 3.57369 0.0471856 0
M  V30 402 S 39.5875 4.3579 0.513109 0
M  V30 403 H 36.4055 0.710492 -0.0268674 0
M  V30 404 H 39.0075 1.80611 -0.748323 0
M  V30 405 H 37.7115 3.9989 -0.922817 0
M  V30 406 H 37.2425 3.8562 0.778491 0
M  V30 407 H 39.2575 4.63476 1.77212 0
M  V30 408 N 38.4306 0.297415 1.54768 0
M  V30 409 C 39.6606 -0.315165 2.04182 0
M  V30 410 C 40.0686 -1.4834 1.17439 0
M  V30 411 O 39.4116 -1.82695 0.191891 0
M  V30 412 C 39.4736 -0.837583 3.49607 0
M  V30 413 C 39.1376 0.204912 4.5654 0
M  V30 414 C 40.1346 1.03214 5.09552 0
M  V30 415 C 37.8196 0.345578 5.0111 0
M  V30 416 C 39.8136 1.986 6.05671 0
M  V30 417 C 37.5006 1.30289 5.97049 0
M  V30 418 C 38.4986 2.12159 6.49213 0
M  V30 419 O 38.1866 3.06268 7.43273 0
M  V30 420 H 37.9186 -0.0729646 0.672051 0
M  V30 421 H 40.4726 0.433907 2.00765 0
M  V30 422 H 38.7026 -1.63712 3.50336 0
M  V30 423 H 40.3916 -1.36566 3.82236 0
M  V30 424 H 41.1576 0.934312 4.75916 0
M  V30 425 H 37.0366 -0.28171 4.60138 0
M  V30 426 H 40.5806 2.62542 6.46311 0
M  V30 427 H 36.4776 1.40145 6.30103 0
M  V30 428 H 37.2456 3.01205 7.61064 0
M  V30 429 N 39.9087 -1.5758 0.0250728 0
M  V30 430 C 41.1557 -1.91633 -0.654444 0
M  V30 431 C 41.4837 -0.901103 -1.72367 0
M  V30 432 O 40.7387 0.0905647 -1.9549 0
M  V30 433 C 41.0377 -3.32421 -1.31268 0
M  V30 434 C 40.7037 -4.49344 -0.374223 0
M  V30 435 C 39.3657 -4.8106 -0.115911 0
M  V30 436 C 41.7177 -5.20498 0.270432 0
M  V30 437 C 39.0457 -5.8129 0.79493 0
M  V30 438 C 41.3977 -6.21699 1.1693 0
M  V30 439 C 40.0617 -6.51859 1.43655 0
M  V30 440 H 39.3317 -0.701236 -0.239478 0
M  V30 441 H 41.9787 -1.91307 0.0859734 0
M  V30 442 H 40.2837 -3.28989 -2.12775 0
M  V30 443 H 41.9807 -3.56038 -1.84494 0
M  V30 444 H 38.5707 -4.24579 -0.58573 0
M  V30 445 H 42.7547 -4.96229 0.0839194 0
M  V30 446 H 38.0107 -6.03005 1.00973 0
M  V30 447 H 42.1847 -6.75955 1.67504 0
M  V30 448 H 39.8117 -7.2934 2.144 0
M  V30 449 N 41.3868 0.248026 -1.55636 0
M  V30 450 C 42.6148 0.993808 -1.81469 0
M  V30 451 C 43.0298 1.78991 -0.60064 0
M  V30 452 O 42.3868 1.77345 0.430682 0
M  V30 453 C 42.4378 1.93258 -3.05506 0
M  V30 454 O 42.1588 1.16869 -4.22224 0
M  V30 455 C 43.6598 2.79444 -3.4413 0
M  V30 456 H 40.8798 0.292486 -0.603898 0
M  V30 457 H 43.4238 0.271253 -2.02693 0
M  V30 458 H 41.5788 2.60943 -2.86335 0
M  V30 459 H 41.9928 1.80359 -4.92515 0
M  V30 460 H 43.4668 3.41066 -4.34026 0
M  V30 461 H 43.9438 3.50499 -2.64665 0
M  V30 462 H 44.5498 2.17214 -3.65648 0
M  V30 463 N 42.8649 1.48995 0.513639 0
M  V30 464 C 43.8129 1.65199 1.63744 0
M  V30 465 C 44.8069 0.51809 1.61283 0
M  V30 466 O 46.0129 0.697335 1.65943 0
M  V30 467 H 42.3879 0.52069 0.542574 0
M  V30 468 H 44.3589 2.59552 1.47226 0
M  V30 469 C 43.1079 1.72409 3.01945 0
M  V30 470 H 42.4309 2.59029 3.04539 0
M  V30 471 H 43.8709 1.87785 3.80148 0
M  V30 472 C 42.3299 0.46618 3.33659 0
M  V30 473 O 42.8599 -0.413744 3.99564 0
M  V30 474 N 41.0659 0.332931 2.88687 0
M  V30 475 H 40.6129 1.04996 2.35231 0
M  V30 476 H 40.5709 -0.507665 3.10274 0
M  V30 477 N 44.343 -0.763751 1.37857 0
M  V30 478 C 45.589 -1.52396 1.3471 0
M  V30 479 C 45.944 -1.92288 -0.0656435 0
M  V30 480 O 45.237 -1.6181 -1.02606 0
M  V30 481 C 45.431 -2.79499 2.22745 0
M  V30 482 C 45.26 -2.52031 3.72438 0
M  V30 483 C 44.03 -2.45759 4.4151 0
M  V30 484 C 46.228 -2.19489 4.65112 0
M  V30 485 N 44.21 -2.1046 5.76697 0
M  V30 486 C 45.581 -1.94396 5.88736 0
M  V30 487 C 47.636 -2.05712 4.53417 0
M  V30 488 C 46.339 -1.56917 7.01975 0
M  V30 489 C 48.365 -1.69634 5.66549 0
M  V30 490 C 47.727 -1.45407 6.89229 0
M  V30 491 H 43.826 -0.55765 0.548225 0
M  V30 492 H 46.41 -0.890302 1.73152 0
M  V30 493 H 44.581 -3.4069 1.86507 0
M  V30 494 H 46.313 -3.45465 2.10798 0
M  V30 495 H 43.068 -2.61885 3.94605 0
M  V30 496 H 43.492 -1.95484 6.48163 0
M  V30 497 H 48.134 -2.23123 3.59133 0
M  V30 498 H 45.852 -1.38246 7.96187 0
M  V30 499 H 49.438 -1.59621 5.59475 0
M  V30 500 H 48.318 -1.17904 7.75286 0
M  V30 501 N 45.8211 -1.22559 -0.990812 0
M  V30 502 C 46.7841 -0.998863 -2.0629 0
M  V30 503 C 47.7841 0.0354834 -1.60761 0
M  V30 504 O 48.9741 -0.203231 -1.7301 0
M  V30 505 C 46.1061 -0.509203 -3.37076 0
M  V30 506 H 47.2991 -1.95014 -2.27837 0
M  V30 507 H 44.8521 -1.04456 -1.16269 0
M  V30 508 H 45.5871 0.446335 -3.21214 0
M  V30 509 H 45.3721 -1.25547 -3.71457 0
M  V30 510 H 46.8621 -0.370888 -4.1595 0
M  V30 511 N 47.2992 1.18797 -1.03562 0
M  V30 512 C 48.2312 2.21731 -0.580337 0
M  V30 513 C 49.2442 1.59051 0.347349 0
M  V30 514 O 50.4332 1.77929 0.142669 0
M  V30 515 C 47.5332 3.38459 0.172805 0
M  V30 516 C 46.7062 4.3072 -0.761496 0
M  V30 517 C 45.7652 5.26174 -0.0525547 0
M  V30 518 O 44.7912 5.65108 -0.681333 0
M  V30 519 N 45.9932 5.67624 1.21586 0
M  V30 520 H 48.7582 2.61417 -1.46565 0
M  V30 521 H 46.3192 1.33531 -0.915476 0
M  V30 522 H 48.3112 3.99335 0.656793 0
M  V30 523 H 46.8812 2.97507 0.959602 0
M  V30 524 H 46.1012 3.67525 -1.42544 0
M  V30 525 H 47.3892 4.89267 -1.39626 0
M  V30 526 H 46.7872 5.38038 1.74732 0
M  V30 527 H 45.3442 6.30721 1.64421 0
M  V30 528 N 48.7773 0.814389 1.34928 0
M  V30 529 C 50.0073 0.41054 2.0248 0
M  V30 530 C 50.4153 -0.985625 1.61499 0
M  V30 531 O 49.7583 -1.64781 0.811976 0
M  V30 532 C 49.8203 0.423384 3.56998 0
M  V30 533 C 49.4843 1.77141 4.21272 0
M  V30 534 C 50.4813 2.73093 4.42398 0
M  V30 535 C 48.1663 2.05755 4.58225 0
M  V30 536 C 50.1603 3.95838 4.9959 0
M  V30 537 C 47.8473 3.28762 5.1513 0
M  V30 538 C 48.8453 4.23621 5.35755 0
M  V30 539 O 48.5333 5.44456 5.91458 0
M  V30 540 H 48.2653 0.163997 0.655806 0
M  V30 541 H 50.8193 1.10155 1.73364 0
M  V30 542 H 49.0493 -0.324276 3.85338 0
M  V30 543 H 50.7383 0.0407683 4.0588 0
M  V30 544 H 51.5043 2.5228 4.14222 0
M  V30 545 H 47.3833 1.32727 4.4148 0
M  V30 546 H 50.9273 4.69891 5.15605 0
M  V30 547 H 46.8243 3.49443 5.42734 0
M  V30 548 H 47.5923 5.4586 6.09901 0
M  V30 549 N 50.2554 -1.46986 0.568584 0
M  V30 550 C 51.6714 -1.57946 0.229189 0
M  V30 551 C 51.8714 -1.56567 -1.26843 0
M  V30 552 O 50.9274 -1.47511 -2.04931 0
M  V30 553 C 52.2404 -2.87963 0.865909 0
M  V30 554 C 53.7884 -3.01568 0.838188 0
M  V30 555 C 54.2634 -4.34301 1.45419 0
M  V30 556 N 55.7544 -4.40965 1.41788 0
M  V30 557 C 56.4894 -5.42256 1.86403 0
M  V30 558 N 55.9854 -6.50297 2.38926 0
M  V30 559 N 57.7784 -5.3337 1.77405 0
M  V30 560 H 49.9294 -1.46126 1.54146 0
M  V30 561 H 52.1924 -0.696156 0.643484 0
M  V30 562 H 51.8984 -2.94742 1.91886 0
M  V30 563 H 51.7724 -3.75423 0.365687 0
M  V30 564 H 54.1594 -2.94379 -0.206106 0
M  V30 565 H 54.2404 -2.1562 1.37629 0
M  V30 566 H 53.8844 -4.42247 2.49761 0
M  V30 567 H 53.8144 -5.19 0.891435 0
M  V30 568 H 56.3054 -3.63484 1.03381 0
M  V30 569 H 56.6184 -7.23777 2.70863 0
M  V30 570 H 54.9634 -6.51155 2.42944 0
M  V30 571 H 58.1544 -4.47865 1.3614 0
M  V30 572 H 58.3274 -6.12169 2.12492 0
M  V30 573 N 51.7335 -0.305618 -1.54608 0
M  V30 574 C 52.6655 0.602161 -2.21149 0
M  V30 575 C 53.6785 1.09394 -1.20569 0
M  V30 576 O 54.8675 1.0106 -1.47136 0
M  V30 577 C 51.9675 1.83692 -2.84799 0
M  V30 578 C 51.1405 1.48686 -4.11353 0
M  V30 579 C 50.1995 2.57725 -4.58764 0
M  V30 580 O 49.2255 2.22623 -5.23858 0
M  V30 581 N 50.4275 3.88346 -4.31471 0
M  V30 582 H 53.1925 0.0324966 -2.99682 0
M  V30 583 H 50.7535 -0.128021 -1.61393 0
M  V30 584 H 52.7455 2.55994 -3.13448 0
M  V30 585 H 51.3155 2.31486 -2.10078 0
M  V30 586 H 50.5355 0.596269 -3.89664 0
M  V30 587 H 51.8235 1.22842 -4.93748 0
M  V30 588 H 51.2215 4.19671 -3.79331 0
M  V30 589 H 49.7785 4.56932 -4.64818 0
M  V30 590 N 53.2116 1.57565 -0.0334293 0
M  V30 591 C 54.4596 1.91598 0.642999 0
M  V30 592 C 54.7806 0.910847 1.7242 0
M  V30 593 O 54.0506 -0.0469931 1.95844 0
M  V30 594 H 52.6306 0.707228 0.240496 0
M  V30 595 H 55.2926 1.94726 -0.0822488 0
M  V30 596 H 54.3886 2.92336 1.09298 0
M  V30 597 N 54.6897 -0.239769 1.55765 0
M  V30 598 C 55.5997 -1.31831 1.94056 0
M  V30 599 C 56.6157 -1.52275 0.841925 0
M  V30 600 O 57.7917 -1.65759 1.14394 0
M  V30 601 C 54.8567 -2.65156 2.23368 0
M  V30 602 C 53.9177 -2.53173 3.46701 0
M  V30 603 C 53.1507 -3.8014 3.74606 0
M  V30 604 O 53.3737 -4.82343 3.04469 0
M  V30 605 O 52.3077 -3.78344 4.68123 0
M  V30 606 H 56.1337 -1.02347 2.85935 0
M  V30 607 H 53.7187 -0.441123 1.42739 0
M  V30 608 H 55.6007 -3.43929 2.43497 0
M  V30 609 H 54.2757 -2.94358 1.34666 0
M  V30 610 H 53.1827 -1.72662 3.31871 0
M  V30 611 H 54.5157 -2.28915 4.35728 0
M  V30 612 N 56.1678 -1.49265 -0.50573 0
M  V30 613 C 57.1308 -1.65075 -1.59006 0
M  V30 614 C 58.1308 -0.522768 -1.52065 0
M  V30 615 O 59.3208 -0.789117 -1.55302 0
M  V30 616 C 56.4528 -1.64369 -2.98656 0
M  V30 617 H 57.6458 -2.61784 -1.46319 0
M  V30 618 H 55.1988 -1.38226 -0.729616 0
M  V30 619 H 55.9338 -0.692272 -3.16825 0
M  V30 620 H 55.7188 -2.46282 -3.05103 0
M  V30 621 H 57.2088 -1.78674 -3.77446 0
M  V30 622 N 57.6459 0.756429 -1.3826 0
M  V30 623 C 59.0619 1.0591 -1.19395 0
M  V30 624 C 59.2619 2.01459 -0.0406567 0
M  V30 625 O 58.3179 2.44909 0.614467 0
M  V30 626 C 59.6309 1.64191 -2.51916 0
M  V30 627 C 61.1789 1.76376 -2.58574 0
M  V30 628 C 61.6539 2.38069 -3.91264 0
M  V30 629 N 63.1449 2.45503 -3.92788 0
M  V30 630 C 63.8799 2.94126 -4.92217 0
M  V30 631 N 63.3759 3.42805 -6.02043 0
M  V30 632 N 65.1689 2.9314 -4.7961 0
M  V30 633 H 57.3199 0.122313 -2.12048 0
M  V30 634 H 59.5829 0.116892 -0.940766 0
M  V30 635 H 59.2889 1.01451 -3.3675 0
M  V30 636 H 59.1629 2.6329 -2.70108 0
M  V30 637 H 61.5499 2.38244 -1.74137 0
M  V30 638 H 61.6309 0.759894 -2.44252 0
M  V30 639 H 61.2749 1.76835 -4.76121 0
M  V30 640 H 61.2049 3.39091 -4.02895 0
M  V30 641 H 63.6959 2.1107 -3.13461 0
M  V30 642 H 64.0089 3.78354 -6.73846 0
M  V30 643 H 62.3539 3.4087 -6.05667 0
M  V30 644 H 65.5449 2.54419 -3.92923 0
M  V30 645 H 65.7179 3.30721 -5.5725 0
M  V30 646 N 59.124 1.23083 0.984299 0
M  V30 647 C 60.371 1.06057 1.72505 0
M  V30 648 C 60.699 -0.403105 1.90277 0
M  V30 649 O 59.954 -1.3149 1.44944 0
M  V30 650 C 60.253 1.72673 3.1292 0
M  V30 651 C 59.919 3.22586 3.15038 0
M  V30 652 C 58.581 3.63489 3.15324 0
M  V30 653 C 60.933 4.185 3.10657 0
M  V30 654 C 58.261 4.98772 3.08939 0
M  V30 655 C 60.613 5.53769 3.05814 0
M  V30 656 C 59.277 5.94041 3.04419 0
M  V30 657 H 58.547 0.388091 0.631242 0
M  V30 658 H 61.194 1.52963 1.15215 0
M  V30 659 H 59.499 1.18116 3.73572 0
M  V30 660 H 61.196 1.56982 3.68996 0
M  V30 661 H 57.786 2.90022 3.15571 0
M  V30 662 H 61.97 3.87911 3.09579 0
M  V30 663 H 57.226 5.29193 3.0621 0
M  V30 664 H 61.4 6.27808 3.0138 0
M  V30 665 H 59.027 6.98833 2.99227 0
M  V30 666 N 60.6021 -1.18246 1.0419 0
M  V30 667 C 61.5321 -2.24127 0.654914 0
M  V30 668 C 62.5131 -1.66617 -0.342451 0
M  V30 669 O 63.6981 -1.92924 -0.222277 0
M  V30 670 C 60.8281 -3.47295 0.0183757 0
M  V30 671 C 59.7821 -4.17563 0.939414 0
M  V30 672 C 59.1081 -5.34438 0.167286 0
M  V30 673 C 60.4081 -4.70917 2.25908 0
M  V30 674 H 62.1021 -2.56753 1.54007 0
M  V30 675 H 59.6481 -1.23414 0.74195 0
M  V30 676 H 61.6011 -4.20572 -0.264082 0
M  V30 677 H 60.3251 -3.13907 -0.901664 0
M  V30 678 H 58.9841 -3.46186 1.20628 0
M  V30 679 H 58.6321 -4.97298 -0.7552 0
M  V30 680 H 58.3321 -5.82388 0.780901 0
M  V30 681 H 59.8561 -6.10504 -0.108125 0
M  V30 682 H 61.2701 -5.35882 2.03724 0
M  V30 683 H 59.6671 -5.29406 2.82577 0
M  V30 684 H 60.7371 -3.88272 2.9047 0
M  V30 685 N 62.0802 -0.821533 -1.34494 0
M  V30 686 C 63.4912 -0.467956 -1.8074 0
M  V30 687 C 63.8422 1.01151 -1.68116 0
M  V30 688 O 62.9672 1.78707 -1.22036 0
M  V30 689 C 63.5622 -0.842627 -3.28154 0
M  V30 690 C 62.1212 -0.541439 -3.72485 0
M  V30 691 C 61.2682 -1.06028 -2.56229 0
M  V30 692 H 64.2192 -1.01183 -1.22261 0
M  V30 693 H 64.2402 -0.145876 -3.8022 0
M  V30 694 H 63.7522 -1.91945 -3.37311 0
M  V30 695 H 61.8532 0.526034 -3.68868 0
M  V30 696 H 61.9662 -1.08453 -4.66663 0
M  V30 697 H 60.3302 -0.481892 -2.501 0
M  V30 698 H 61.1132 -2.14352 -2.68157 0
M  V30 699 N 63.5583 1.46682 -0.576371 0
M  V30 700 C 64.5053 2.30241 0.160499 0
M  V30 701 C 65.4753 1.40233 0.890162 0
M  V30 702 O 66.6603 1.69186 0.882084 0
M  V30 703 C 63.8003 3.24578 1.1723 0
M  V30 704 C 62.9133 4.29684 0.446736 0
M  V30 705 C 62.0483 5.11154 1.44551 0
M  V30 706 C 61.0873 6.08015 0.70599 0
M  V30 707 N 60.2243 6.82376 1.65251 0
M  V30 708 H 65.0643 2.92727 -0.558127 0
M  V30 709 H 62.6013 1.44272 -0.287056 0
M  V30 710 H 64.5593 3.77711 1.77172 0
M  V30 711 H 63.1893 2.63916 1.85872 0
M  V30 712 H 62.2413 3.79458 -0.267594 0
M  V30 713 H 63.5533 4.98626 -0.131686 0
M  V30 714 H 62.7073 5.68533 2.11791 0
M  V30 715 H 61.4463 4.42158 2.05786 0
M  V30 716 H 60.4513 5.49796 0.0197725 0
M  V30 717 H 61.6763 6.79028 0.09912 0
M  V30 718 H 59.6223 6.16094 2.25308 0
M  V30 719 H 59.5393 7.47556 1.12673 0
M  V30 720 H 60.8073 7.44316 2.31546 0
M  V30 721 N 65.0364 0.313813 1.54444 0
M  V30 722 C 66.3134 -0.345447 1.92525 0
M  V30 723 C 66.6934 -1.70667 1.24242 0
M  V30 724 O 66.0414 -2.25273 0.382654 0
M  V30 725 C 66.2514 -0.44737 3.46121 0
M  V30 726 C 67.5994 -0.712238 4.18584 0
M  V30 727 O 68.6234 -0.530678 3.52225 0
M  V30 728 O 67.4824 -1.06183 5.36085 0
M  V30 729 H 64.5764 -0.195407 0.803583 0
M  V30 730 H 67.1224 0.362813 1.65776 0
M  V30 731 H 65.8944 0.509043 3.87975 0
M  V30 732 H 65.5174 -1.20359 3.78945 0
M  V30 733 N 66.5145 -1.57545 0.0417849 0
M  V30 734 C 67.4445 -2.14009 -0.933929 0
M  V30 735 C 68.4255 -1.05938 -1.33083 0
M  V30 736 O 69.6105 -1.33833 -1.40721 0
M  V30 737 C 66.7405 -2.67747 -2.21199 0
M  V30 738 C 65.6945 -3.80718 -1.95544 0
M  V30 739 C 65.0205 -4.20935 -3.29724 0
M  V30 740 C 66.3205 -5.06258 -1.28452 0
M  V30 741 H 68.0145 -2.95788 -0.463645 0
M  V30 742 H 65.5605 -1.42285 -0.221573 0
M  V30 743 H 67.5135 -3.05886 -2.89848 0
M  V30 744 H 66.2375 -1.83147 -2.70416 0
M  V30 745 H 64.8965 -3.43037 -1.2931 0
M  V30 746 H 64.5445 -3.33298 -3.76724 0
M  V30 747 H 64.2445 -4.9707 -3.13361 0
M  V30 748 H 65.7685 -4.61666 -3.9962 0
M  V30 749 H 67.1825 -5.41903 -1.8712 0
M  V30 750 H 65.5795 -5.87475 -1.22445 0
M  V30 751 H 66.6495 -4.84207 -0.259219 0
M  V30 752 N 67.9926 0.231505 -1.5589 0
M  V30 753 C 69.2696 0.981096 -1.69215 0
M  V30 754 C 69.6496 2.02799 -0.586164 0
M  V30 755 O 68.9976 2.24823 0.408253 0
M  V30 756 C 69.2076 1.60054 -3.10135 0
M  V30 757 C 70.5556 2.09658 -3.69227 0
M  V30 758 O 71.5796 1.69967 -3.13033 0
M  V30 759 O 70.4386 2.8258 -4.67772 0
M  V30 760 H 67.5326 0.457653 -0.688827 0
M  V30 761 H 70.0786 0.224073 -1.68214 0
M  V30 762 H 68.8506 0.844105 -3.82087 0
M  V30 763 H 68.4736 2.42336 -3.15212 0
M  V30 764 N 69.4707 1.49531 0.497807 0
M  V30 765 C 70.8817 1.52344 1.07927 0
M  V30 766 C 71.2327 0.311469 1.93712 0
M  V30 767 O 70.3577 -0.578405 2.08527 0
M  V30 768 C 70.9527 2.76062 1.96405 0
M  V30 769 C 69.5117 2.81643 2.49709 0
M  V30 770 C 68.6587 2.46299 1.27404 0
M  V30 771 H 71.6097 1.56182 0.281576 0
M  V30 772 H 71.6307 2.56405 2.81135 0
M  V30 773 H 71.1427 3.64254 1.33943 0
M  V30 774 H 69.2437 1.97739 3.15801 0
M  V30 775 H 69.3567 3.83891 2.86643 0
M  V30 776 H 67.7207 1.98148 1.60029 0
M  V30 777 H 68.5037 3.36769 0.66645 0
M  V30 778 N 70.9488 -0.749086 1.3866 0
M  V30 779 C 72.1738 -1.54344 1.38538 0
M  V30 780 C 72.5988 -1.88088 -0.0216655 0
M  V30 781 O 71.9568 -1.50899 -1.00494 0
M  V30 782 C 72.0048 -2.8164 2.25192 0
M  V30 783 O 71.1088 -3.7698 1.67212 0
M  V30 784 H 70.4498 -0.466654 0.472367 0
M  V30 785 H 72.9798 -0.925355 1.82478 0
M  V30 786 H 72.9898 -3.30519 2.3921 0
M  V30 787 H 71.6648 -2.56411 3.27454 0
M  V30 788 H 70.2418 -3.35699 1.6236 0
M  V30 789 N 72.4269 -1.23603 -0.977757 0
M  V30 790 C 73.3569 -1.04401 -2.0886 0
M  V30 791 C 74.3379 0.0399052 -1.70053 0
M  V30 792 O 75.5229 -0.125246 -1.93796 0
M  V30 793 C 72.6529 -0.637269 -3.41403 0
M  V30 794 C 71.6069 -1.66883 -3.94124 0
M  V30 795 C 70.9329 -1.11745 -5.22893 0
M  V30 796 C 72.2329 -3.06247 -4.23096 0
M  V30 797 H 73.9269 -1.97316 -2.25182 0
M  V30 798 H 71.4729 -0.950096 -1.08209 0
M  V30 799 H 73.4259 -0.48998 -4.18542 0
M  V30 800 H 72.1499 0.327557 -3.24953 0
M  V30 801 H 70.8089 -1.80416 -3.19133 0
M  V30 802 H 70.4569 -0.143527 -5.02795 0
M  V30 803 H 70.1569 -1.80672 -5.59134 0
M  V30 804 H 71.6809 -0.982067 -6.02651 0
M  V30 805 H 73.0949 -2.96001 -4.90975 0
M  V30 806 H 71.4919 -3.72436 -4.70544 0
M  V30 807 H 72.5619 -3.55041 -3.30263 0
M  V30 808 N 73.905 1.17692 -1.04816 0
M  V30 809 C 75.145 1.89545 -0.764979 0
M  V30 810 C 75.509 1.78979 0.695028 0
M  V30 811 O 76.71 2.45613 1.09215 0
M  V30 812 C 74.981 3.35659 -1.22751 0
M  V30 813 S 76.54 4.25526 -1.07112 0
M  V30 814 H 73.358 0.654432 -0.27792 0
M  V30 815 H 75.96 1.42163 -1.34201 0
M  V30 816 H 74.664 3.40882 -2.28533 0
M  V30 817 H 74.195 3.88083 -0.644594 0
M  V30 818 H 76.21 4.962 0.00697508 0
M  V30 819 N 75.3831 0.828654 1.34056 0
M  V30 820 C 76.6111 0.43262 2.02326 0
M  V30 821 C 77.0261 -0.963147 1.62385 0
M  V30 822 O 76.3831 -1.62425 0.832121 0
M  V30 823 C 76.4341 0.53182 3.57567 0
M  V30 824 O 76.1551 1.87258 3.96063 0
M  V30 825 C 77.6561 0.131422 4.43105 0
M  V30 826 H 74.8761 0.172923 0.648335 0
M  V30 827 H 77.4201 1.1184 1.71208 0
M  V30 828 H 75.5751 -0.105938 3.87255 0
M  V30 829 H 75.9891 1.85087 4.90758 0
M  V30 830 H 77.4631 0.251904 5.51425 0
M  V30 831 H 77.9401 -0.925645 4.29335 0
M  V30 832 H 78.5461 0.743207 4.18756 0
M  V30 833 N 76.8612 -1.46375 0.584142 0
M  V30 834 C 77.8112 -2.27371 -0.169232 0
M  V30 835 C 78.7952 -1.35955 -0.860523 0
M  V30 836 O 79.9872 -1.60119 -0.754382 0
M  V30 837 C 77.1162 -3.22334 -1.18134 0
M  V30 838 C 76.2022 -4.21235 -0.492088 0
M  V30 839 N 76.5932 -5.03766 0.453129 0
M  V30 840 C 74.8912 -4.39773 -0.742652 0
M  V30 841 C 75.5922 -5.75366 0.85609 0
M  V30 842 N 74.5682 -5.43214 0.204926 0
M  V30 843 H 78.3702 -2.88572 0.557097 0
M  V30 844 H 75.8842 -1.57242 0.406042 0
M  V30 845 H 77.8812 -3.79071 -1.73525 0
M  V30 846 H 76.5412 -2.62693 -1.90847 0
M  V30 847 H 77.5522 -5.11227 0.828723 0
M  V30 848 H 74.2292 -3.91279 -1.45625 0
M  V30 849 H 75.6192 -6.5172 1.63434 0
M  V30 850 N 78.3393 -0.321999 -1.54275 0
M  V30 851 C 79.2693 0.537411 -2.27231 0
M  V30 852 C 80.2503 1.12064 -1.27968 0
M  V30 853 O 81.4353 1.14606 -1.56777 0
M  V30 854 C 78.5653 1.69919 -3.02894 0
M  V30 855 C 77.5193 1.24534 -4.09482 0
M  V30 856 C 76.8453 2.49394 -4.72977 0
M  V30 857 C 78.1453 0.361335 -5.21049 0
M  V30 858 H 79.8393 -0.0711406 -2.99315 0
M  V30 859 H 77.3853 -0.0356555 -1.43956 0
M  V30 860 H 79.3383 2.30668 -3.52662 0
M  V30 861 H 78.0623 2.33431 -2.28424 0
M  V30 862 H 76.7213 0.660782 -3.60596 0
M  V30 863 H 76.3693 3.11265 -3.95124 0
M  V30 864 H 76.0693 2.19718 -5.44975 0
M  V30 865 H 77.5933 3.10908 -5.25517 0
M  V30 866 H 79.0073 0.875072 -5.66582 0
M  V30 867 H 77.4043 0.157428 -5.99893 0
M  V30 868 H 78.4743 -0.60822 -4.8107 0
M  V30 869 N 79.8174 1.5752 -0.0501392 0
M  V30 870 C 81.0664 1.91827 0.623328 0
M  V30 871 C 81.3794 0.930222 1.72065 0
M  V30 872 O 82.5854 1.1653 2.4522 0
M  V30 873 C 81.0414 3.40692 1.16003 0
M  V30 874 C 80.6494 4.479 0.0948811 0
M  V30 875 C 82.3934 3.84034 1.80881 0
M  V30 876 C 80.3004 5.87879 0.644411 0
M  V30 877 H 79.2304 0.715918 0.236596 0
M  V30 878 H 81.8814 1.83115 -0.118861 0
M  V30 879 H 80.2634 3.44405 1.9545 0
M  V30 880 H 81.4374 4.55775 -0.678675 0
M  V30 881 H 79.7524 4.13892 -0.45637 0
M  V30 882 H 82.3494 4.85984 2.22988 0
M  V30 883 H 82.6924 3.20225 2.6601 0
M  V30 884 H 83.2254 3.82833 1.0809 0
M  V30 885 H 79.9644 6.55282 -0.169229 0
M  V30 886 H 79.4844 5.83567 1.38598 0
M  V30 887 H 81.1634 6.37098 1.12763 0
M  V30 888 N 81.2955 -0.223234 1.56011 0
M  V30 889 C 82.5255 -0.963413 1.82762 0
M  V30 890 C 82.9335 -1.78516 0.626804 0
M  V30 891 O 82.2765 -1.78974 -0.414014 0
M  V30 892 C 82.3385 -1.93126 3.0322 0
M  V30 893 C 82.0025 -1.2942 4.38291 0
M  V30 894 C 82.9995 -0.684916 5.15369 0
M  V30 895 C 80.6845 -1.30647 4.85012 0
M  V30 896 C 82.6785 -0.0963971 6.37327 0
M  V30 897 C 80.3655 -0.71411 6.06913 0
M  V30 898 C 81.3635 -0.110123 6.82911 0
M  V30 899 O 81.0515 0.47303 8.02507 0
M  V30 900 H 80.7835 -0.288011 0.611576 0
M  V30 901 H 83.3375 -0.244103 2.03944 0
M  V30 902 H 81.5675 -2.68952 2.77852 0
M  V30 903 H 83.2565 -2.53685 3.16857 0
M  V30 904 H 84.0225 -0.667774 4.80381 0
M  V30 905 H 79.9015 -1.76598 4.25833 0
M  V30 906 H 83.4455 0.375657 6.96588 0
M  V30 907 H 79.3425 -0.728659 6.41374 0
M  V30 908 H 80.1105 0.367186 8.17676 0
M  V30 909 N 82.7736 -1.49793 -0.48987 0
M  V30 910 C 83.7366 -1.66752 -1.57246 0
M  V30 911 C 84.7366 -0.538867 -1.51502 0
M  V30 912 O 85.9266 -0.805545 -1.54456 0
M  V30 913 C 83.0586 -1.67528 -2.96896 0
M  V30 914 H 84.2516 -2.63321 -1.43534 0
M  V30 915 H 81.8046 -1.38992 -0.714914 0
M  V30 916 H 82.5396 -0.725837 -3.16073 0
M  V30 917 H 82.3246 -2.49504 -3.02473 0
M  V30 918 H 83.8146 -1.82667 -3.7553 0
M  V30 919 N 84.2517 0.741722 -1.39055 0
M  V30 920 C 85.4987 1.50114 -1.35912 0
M  V30 921 C 85.8267 1.94443 0.0470937 0
M  V30 922 O 85.0817 1.66612 1.02659 0
M  V30 923 C 85.3807 2.7592 -2.27163 0
M  V30 924 C 85.0467 2.50493 -3.74919 0
M  V30 925 C 83.7087 2.43267 -4.1518 0
M  V30 926 C 86.0607 2.28585 -4.684 0
M  V30 927 C 83.3887 2.12166 -5.46994 0
M  V30 928 C 85.7407 1.99002 -6.00484 0
M  V30 929 C 84.4047 1.90241 -6.39816 0
M  V30 930 H 83.6747 0.549306 -0.497336 0
M  V30 931 H 86.3217 0.851896 -1.71508 0
M  V30 932 H 84.6267 3.45553 -1.84663 0
M  V30 933 H 86.3237 3.33923 -2.22028 0
M  V30 934 H 82.9137 2.56992 -3.43006 0
M  V30 935 H 87.0977 2.33139 -4.38132 0
M  V30 936 H 82.3537 2.03901 -5.76398 0
M  V30 937 H 86.5277 1.81057 -6.72452 0
M  V30 938 H 84.1547 1.65907 -7.41875 0
M  V30 939 N 85.7298 1.2412 0.971189 0
M  V30 940 C 86.6928 1.03156 2.04674 0
M  V30 941 C 87.6928 -0.00990322 1.60797 0
M  V30 942 O 88.8828 0.230729 1.72665 0
M  V30 943 C 86.0148 0.562765 3.36223 0
M  V30 944 H 87.2078 1.98614 2.24705 0
M  V30 945 H 84.7608 1.06293 1.14593 0
M  V30 946 H 85.4958 -0.395176 3.21883 0
M  V30 947 H 85.2808 1.31441 3.69413 0
M  V30 948 H 86.7708 0.437015 4.15307 0
M  V30 949 N 87.2079 -1.17134 1.05439 0
M  V30 950 C 88.4559 -1.87085 0.764429 0
M  V30 951 C 88.7769 -1.81584 -0.710787 0
M  V30 952 O 88.0469 -1.24349 -1.51374 0
M  V30 953 H 86.6269 -0.692627 0.279779 0
M  V30 954 H 89.2889 -1.42087 1.33406 0
M  V30 955 H 88.3849 -2.92759 1.0816 0
M  V30 956 N 88.686 -0.835752 -1.33615 0
M  V30 957 C 89.619 -0.211815 -2.27215 0
M  V30 958 C 90.597 0.639249 -1.49507 0
M  V30 959 O 91.781 0.600193 -1.78689 0
M  V30 960 C 88.908 0.702893 -3.31326 0
M  V30 961 C 87.954 -0.0723049 -4.26439 0
M  V30 962 S 88.787 -1.42811 -5.16106 0
M  V30 963 C 89.943 -0.518613 -6.23748 0
M  V30 964 H 90.176 -1.00533 -2.79786 0
M  V30 965 H 87.709 -0.632336 -1.40858 0
M  V30 966 H 89.667 1.22505 -3.91794 0
M  V30 967 H 88.328 1.47004 -2.77576 0
M  V30 968 H 87.521 0.62359 -5.00127 0
M  V30 969 H 87.123 -0.525424 -3.70291 0
M  V30 970 H 89.415 0.284778 -6.76901 0
M  V30 971 H 90.358 -1.22556 -6.97413 0
M  V30 972 H 90.766 -0.101344 -5.64409 0
M  V30 973 N 90.1641 1.46063 -0.591896 0
M  V30 974 C 91.3921 2.06717 -0.0868936 0
M  V30 975 C 91.8071 1.43916 1.22203 0
M  V30 976 O 91.1641 0.547698 1.74088 0
M  V30 977 C 91.2151 3.6142 0.0758725 0
M  V30 978 O 90.9361 4.21874 -1.18126 0
M  V30 979 C 92.4371 4.39025 0.61416 0
M  V30 980 H 89.6571 0.668162 -0.0616518 0
M  V30 981 H 92.2011 1.8755 -0.815175 0
M  V30 982 H 90.3561 3.79983 0.754413 0
M  V30 983 H 90.7701 5.14861 -1.00092 0
M  V30 984 H 92.2441 5.4783 0.677193 0
M  V30 985 H 92.7211 4.07708 1.63312 0
M  V30 986 H 93.3271 4.2529 -0.0298142 0
M  V30 987 N 91.6422 0.330177 1.54103 0
M  V30 988 C 92.5902 -0.548226 2.26047 0
M  V30 989 C 93.5842 -1.11309 1.27698 0
M  V30 990 O 94.7902 -1.06036 1.45452 0
M  V30 991 H 91.1652 -0.195456 0.726155 0
M  V30 992 H 93.1362 0.0807567 2.98291 0
M  V30 993 C 91.8852 -1.69415 3.03634 0
M  V30 994 H 91.2082 -1.26876 3.79134 0
M  V30 995 H 92.6482 -2.28423 3.5721 0
M  V30 996 C 91.1072 -2.61569 2.12328 0
M  V30 997 O 91.6372 -3.63462 1.7105 0
M  V30 998 N 89.8432 -2.29952 1.77681 0
M  V30 999 H 89.3902 -1.47134 2.11446 0
M  V30 1000 H 89.3482 -2.91871 1.16869 0
M  V30 1001 N 93.1203 -1.57491 0.0584922 0
M  V30 1002 C 94.0703 -2.08474 -0.923188 0
M  V30 1003 C 95.0543 -0.991479 -1.26722 0
M  V30 1004 O 96.2463 -1.25473 -1.24842 0
M  V30 1005 C 93.3753 -2.6392 -2.19548 0
M  V30 1006 C 92.4613 -3.80227 -1.87852 0
M  V30 1007 N 92.8523 -4.89714 -1.26546 0
M  V30 1008 C 91.1503 -3.89271 -2.17679 0
M  V30 1009 C 91.8513 -5.70689 -1.12644 0
M  V30 1010 N 90.8273 -5.18531 -1.63176 0
M  V30 1011 H 94.6293 -2.90517 -0.444653 0
M  V30 1012 H 92.1433 -1.61745 -0.145764 0
M  V30 1013 H 94.1403 -2.98752 -2.9078 0
M  V30 1014 H 92.8003 -1.83318 -2.68001 0
M  V30 1015 H 93.8113 -5.09358 -0.936757 0
M  V30 1016 H 90.4883 -3.19623 -2.68602 0
M  V30 1017 H 91.8783 -6.6875 -0.6499 0
M  V30 1018 N 94.5984 0.214957 -1.56127 0
M  V30 1019 C 95.5304 1.29004 -1.89448 0
M  V30 1020 C 96.5434 1.42716 -0.783326 0
M  V30 1021 O 97.7324 1.43496 -1.06166 0
M  V30 1022 C 94.8324 2.66482 -2.09381 0
M  V30 1023 C 94.0054 2.74633 -3.40434 0
M  V30 1024 C 93.0644 3.9317 -3.49719 0
M  V30 1025 O 92.0904 3.812 -4.227 0
M  V30 1026 N 93.2924 5.07765 -2.81346 0
M  V30 1027 H 96.0574 1.00743 -2.82261 0
M  V30 1028 H 93.6184 0.40497 -1.56753 0
M  V30 1029 H 95.6104 3.44173 -2.12901 0
M  V30 1030 H 94.1804 2.87314 -1.23163 0
M  V30 1031 H 93.4004 1.83368 -3.48955 0
M  V30 1032 H 94.6884 2.77054 -4.26754 0
M  V30 1033 H 94.0864 5.20386 -2.21843 0
M  V30 1034 H 92.6434 5.83474 -2.90519 0
M  V30 1035 N 96.0765 1.50051 0.48192 0
M  V30 1036 C 97.0065 1.71046 1.58951 0
M  V30 1037 C 97.9875 0.559288 1.60642 0
M  V30 1038 O 99.1725 0.797243 1.77081 0
M  V30 1039 C 96.3025 1.79462 2.97339 0
M  V30 1040 C 95.2565 2.94558 3.10515 0
M  V30 1041 C 94.5825 2.88105 4.50444 0
M  V30 1042 C 95.8825 4.35227 2.88747 0
M  V30 1043 H 97.5765 2.6378 1.41635 0
M  V30 1044 H 95.1225 1.26936 0.679942 0
M  V30 1045 H 97.0755 1.92734 3.74742 0
M  V30 1046 H 95.7995 0.833412 3.15788 0
M  V30 1047 H 94.4585 2.80918 2.35543 0
M  V30 1048 H 94.1065 1.89853 4.65795 0
M  V30 1049 H 93.8065 3.65366 4.60197 0
M  V30 1050 H 95.3305 3.03412 5.29881 0
M  V30 1051 H 96.7445 4.49449 3.55905 0
M  V30 1052 H 95.1415 5.13856 3.09955 0
M  V30 1053 H 96.2115 4.48347 1.84696 0
M  V30 1054 N 97.5546 -0.734337 1.39446 0
M  V30 1055 C 98.7796 -1.52866 1.40167 0
M  V30 1056 C 99.2046 -1.881 -0.00171513 0
M  V30 1057 O 98.5626 -1.51957 -0.988879 0
M  V30 1058 C 98.6106 -2.79235 2.28167 0
M  V30 1059 O 97.7146 -3.75185 1.71201 0
M  V30 1060 H 97.0556 -0.461618 0.477289 0
M  V30 1061 H 99.5856 -0.905949 1.8345 0
M  V30 1062 H 99.5956 -3.27963 2.42702 0
M  V30 1063 H 98.2706 -2.52923 3.30156 0
M  V30 1064 H 96.8476 -3.33958 1.65912 0
M  V30 1065 N 99.0327 -1.24633 -0.964593 0
M  V30 1066 C 100.261 -1.11501 -1.74285 0
M  V30 1067 C 100.676 0.332165 -1.85855 0
M  V30 1068 O 100.033 1.22903 -1.34911 0
M  V30 1069 C 100.084 -1.75258 -3.16175 0
M  V30 1070 O 99.8047 -3.14318 -3.05182 0
M  V30 1071 C 101.306 -1.67776 -4.10324 0
M  V30 1072 H 98.5257 -0.389407 -0.546446 0
M  V30 1073 H 101.07 -1.64801 -1.21083 0
M  V30 1074 H 99.2247 -1.25954 -3.66353 0
M  V30 1075 H 99.6387 -3.4551 -3.94618 0
M  V30 1076 H 101.113 -2.17064 -5.0753 0
M  V30 1077 H 101.59 -0.639584 -4.34518 0
M  V30 1078 H 102.196 -2.16522 -3.66058 0
M  V30 1079 N 100.511 1.16574 -1.06058 0
M  V30 1080 C 101.739 1.90952 -0.796552 0
M  V30 1081 C 102.154 1.77302 0.648808 0
M  V30 1082 O 101.511 1.11605 1.44397 0
M  V30 1083 C 101.562 3.41736 -1.17894 0
M  V30 1084 O 101.283 3.54975 -2.56758 0
M  V30 1085 C 102.784 4.33169 -0.942308 0
M  V30 1086 H 100.004 0.605594 -0.288959 0
M  V30 1087 H 102.548 1.47777 -1.41358 0
M  V30 1088 H 100.703 3.82623 -0.606491 0
M  V30 1089 H 101.117 4.4846 -2.72 0
M  V30 1090 H 102.591 5.37439 -1.25952 0
M  V30 1091 H 103.068 4.3903 0.122078 0
M  V30 1092 H 103.674 3.98007 -1.49902 0
M  V30 1093 N 101.989 0.842826 1.3317 0
M  V30 1094 C 102.899 0.281444 2.32906 0
M  V30 1095 C 103.915 -0.594587 1.63526 0
M  V30 1096 O 105.091 -0.49777 1.95152 0
M  V30 1097 C 102.156 -0.530929 3.42611 0
M  V30 1098 C 101.217 0.369843 4.27704 0
M  V30 1099 C 100.45 -0.403853 5.3217 0
M  V30 1100 O 100.673 -1.63513 5.46461 0
M  V30 1101 O 99.6069 0.224199 6.01482 0
M  V30 1102 H 103.433 1.10744 2.82789 0
M  V30 1103 H 101.018 0.60545 1.36582 0
M  V30 1104 H 102.9 -0.992437 4.09547 0
M  V30 1105 H 101.575 -1.33392 2.94938 0
M  V30 1106 H 100.482 0.879275 3.6362 0
M  V30 1107 H 101.815 1.13771 4.78871 0
M  V30 1108 N 103.467 -1.45747 0.599634 0
M  V30 1109 C 104.713 -2.03153 0.100263 0
M  V30 1110 C 105.068 -1.46073 -1.25221 0
M  V30 1111 O 104.361 -0.622878 -1.81193 0
M  V30 1112 C 104.555 -3.57399 -0.00602758 0
M  V30 1113 C 104.384 -4.2944 1.3346 0
M  V30 1114 C 103.154 -4.6768 1.91321 0
M  V30 1115 C 105.352 -4.61905 2.2616 0
M  V30 1116 N 103.334 -5.24544 3.18946 0
M  V30 1117 C 104.705 -5.19518 3.3838 0
M  V30 1118 C 106.76 -4.43841 2.25631 0
M  V30 1119 C 105.463 -5.60972 4.50226 0
M  V30 1120 C 107.489 -4.86322 3.36518 0
M  V30 1121 C 106.851 -5.44021 4.4746 0
M  V30 1122 H 102.95 -0.777911 0.0798696 0
M  V30 1123 H 105.534 -1.77674 0.796244 0
M  V30 1124 H 103.705 -3.82556 -0.671212 0
M  V30 1125 H 105.437 -4.01457 -0.51133 0
M  V30 1126 H 102.192 -4.5098 1.44617 0
M  V30 1127 H 102.616 -5.57483 3.84112 0
M  V30 1128 H 107.258 -3.98552 1.41123 0
M  V30 1129 H 104.976 -6.0523 5.35464 0
M  V30 1130 H 108.562 -4.74084 3.37247 0
M  V30 1131 H 107.442 -5.76289 5.31846 0
M  V30 1132 N 104.945 -0.338344 -1.53925 0
M  V30 1133 C 105.893 0.536231 -2.26335 0
M  V30 1134 C 106.887 1.1063 -1.28286 0
M  V30 1135 O 108.093 1.05264 -1.46012 0
M  V30 1136 H 104.468 0.191602 -0.727181 0
M  V30 1137 H 106.439 -0.0965747 -2.98244 0
M  V30 1138 C 105.188 1.67803 -3.04528 0
M  V30 1139 H 104.511 1.24864 -3.79801 0
M  V30 1140 H 105.951 2.26526 -3.58416 0
M  V30 1141 C 104.41 2.60439 -2.13712 0
M  V30 1142 O 104.94 3.6255 -1.72975 0
M  V30 1143 N 103.146 2.29006 -1.78898 0
M  V30 1144 H 102.693 1.46011 -2.12223 0
M  V30 1145 H 102.651 2.91248 -1.18416 0
M  V30 1146 N 106.423 1.57458 -0.0668435 0
M  V30 1147 C 107.7 1.8469 0.644132 0
M  V30 1148 C 108.08 0.958343 1.88093 0
M  V30 1149 O 107.428 0.0233579 2.28488 0
M  V30 1150 C 107.638 3.34767 0.986509 0
M  V30 1151 C 108.986 4.02159 1.36212 0
M  V30 1152 O 110.01 3.39484 1.07839 0
M  V30 1153 O 108.869 5.12694 1.89227 0
M  V30 1154 H 105.963 0.762816 0.319437 0
M  V30 1155 H 108.509 1.6942 -0.0973986 0
M  V30 1156 H 107.281 3.91151 0.107883 0
M  V30 1157 H 106.904 3.55281 1.78497 0
M  V30 1158 N 107.901 -0.206675 1.56239 0
M  V30 1159 C 108.811 -1.27686 1.96808 0
M  V30 1160 C 109.827 -1.50455 0.874035 0
M  V30 1161 O 111.003 -1.63295 1.17884 0
M  V30 1162 C 108.068 -2.60358 2.28942 0
M  V30 1163 C 107.129 -2.45762 3.51994 0
M  V30 1164 C 106.362 -3.72108 3.82585 0
M  V30 1165 O 106.585 -4.75776 3.14631 0
M  V30 1166 O 105.519 -3.6833 4.76043 0
M  V30 1167 H 109.345 -0.962593 2.88041 0
M  V30 1168 H 106.93 -0.410746 1.43643 0
M  V30 1169 H 108.812 -3.38687 2.50737 0
M  V30 1170 H 107.487 -2.91435 1.4088 0
M  V30 1171 H 106.394 -1.65584 3.35459 0
M  V30 1172 H 107.727 -2.19621 4.40486 0
M  V30 1173 N 109.379 -1.50304 -0.473955 0
M  V30 1174 C 110.607 -1.64902 -1.24959 0
M  V30 1175 C 111.022 -0.331198 -1.85872 0
M  V30 1176 O 110.379 0.68652 -1.69095 0
M  V30 1177 C 110.43 -2.73803 -2.36038 0
M  V30 1178 O 110.151 -4.00477 -1.77624 0
M  V30 1179 C 111.652 -2.99349 -3.26964 0
M  V30 1180 H 108.872 -0.554383 -0.378022 0
M  V30 1181 H 111.416 -1.9651 -0.566054 0
M  V30 1182 H 109.571 -2.44898 -3.00173 0
M  V30 1183 H 109.985 -4.60678 -2.5075 0
M  V30 1184 H 111.459 -3.79217 -4.01121 0
M  V30 1185 H 111.936 -2.10307 -3.85574 0
M  V30 1186 H 112.542 -3.29774 -2.68569 0
M  V30 1187 N 110.857 0.726932 -1.39834 0
M  V30 1188 C 111.787 1.85405 -1.41941 0
M  V30 1189 C 112.768 1.67751 -0.281728 0
M  V30 1190 O 113.953 1.8795 -0.488717 0
M  V30 1191 C 111.083 3.23243 -1.2701 0
M  V30 1192 C 110.037 3.55549 -2.38262 0
M  V30 1193 C 109.363 4.9241 -2.08415 0
M  V30 1194 C 110.663 3.577 -3.80589 0
M  V30 1195 H 112.357 1.83899 -2.36266 0
M  V30 1196 H 109.903 0.883349 -1.13723 0
M  V30 1197 H 111.856 4.01775 -1.27103 0
M  V30 1198 H 110.58 3.25296 -0.291564 0
M  V30 1199 H 109.239 2.79351 -2.37399 0
M  V30 1200 H 108.887 4.91052 -1.0898 0
M  V30 1201 H 108.587 5.14992 -2.82943 0
M  V30 1202 H 110.111 5.73289 -2.10171 0
M  V30 1203 H 111.525 4.26293 -3.83337 0
M  V30 1204 H 109.922 3.91804 -4.54543 0
M  V30 1205 H 110.992 2.57328 -4.10987 0
M  V30 1206 N 112.336 1.25143 0.95797 0
M  V30 1207 C 113.566 1.12261 1.73439 0
M  V30 1208 C 113.974 -0.326715 1.86358 0
M  V30 1209 O 113.317 -1.2367 1.35836 0
M  V30 1210 C 113.379 1.69966 3.16784 0
M  V30 1211 C 113.043 3.18936 3.27305 0
M  V30 1212 C 114.04 4.15968 3.11877 0
M  V30 1213 C 111.725 3.59083 3.51234 0
M  V30 1214 C 113.719 5.51126 3.20217 0
M  V30 1215 C 111.406 4.9438 3.5921 0
M  V30 1216 C 112.404 5.90211 3.43716 0
M  V30 1217 O 112.092 7.23046 3.51368 0
M  V30 1218 H 111.824 0.392476 0.550399 0
M  V30 1219 H 114.378 1.65927 1.21068 0
M  V30 1220 H 112.608 1.10744 3.70503 0
M  V30 1221 H 114.297 1.52232 3.76272 0
M  V30 1222 H 115.063 3.86292 2.93264 0
M  V30 1223 H 110.942 2.84989 3.62356 0
M  V30 1224 H 114.486 6.25905 3.0804 0
M  V30 1225 H 110.383 5.23723 3.77339 0
M  V30 1226 H 111.151 7.31097 3.6802 0
M  V30 1227 N 113.814 -1.1601 1.06675 0
M  V30 1228 C 114.746 -2.20115 0.638921 0
M  V30 1229 C 115.759 -1.59916 -0.305057 0
M  V30 1230 O 116.948 -1.78245 -0.0954446 0
M  V30 1231 C 114.048 -3.38798 -0.0830083 0
M  V30 1232 C 113.221 -4.2855 0.875426 0
M  V30 1233 C 112.28 -5.25849 0.192042 0
M  V30 1234 O 111.306 -5.63102 0.830921 0
M  V30 1235 N 112.508 -5.70648 -1.06493 0
M  V30 1236 H 115.273 -2.57439 1.53444 0
M  V30 1237 H 112.834 -1.31057 0.950557 0
M  V30 1238 H 114.826 -4.00936 -0.550685 0
M  V30 1239 H 113.396 -2.99947 -0.880386 0
M  V30 1240 H 112.616 -3.63617 1.52238 0
M  V30 1241 H 113.904 -4.85393 1.52548 0
M  V30 1242 H 113.302 -5.42482 -1.60405 0
M  V30 1243 H 111.859 -6.34859 -1.47641 0
M  V30 1244 N 115.292 -0.849877 -1.32721 0
M  V30 1245 C 116.202 -0.293791 -2.32753 0
M  V30 1246 C 117.218 0.585906 -1.63839 0
M  V30 1247 O 118.394 0.487413 -1.95413 0
M  V30 1248 C 115.459 0.512752 -3.42887 0
M  V30 1249 C 114.52 -0.39252 -4.27502 0
M  V30 1250 C 113.753 0.375625 -5.32377 0
M  V30 1251 O 113.976 1.60613 -5.4732 0
M  V30 1252 O 112.91 -0.256094 -6.01355 0
M  V30 1253 H 116.736 -1.12242 -2.82197 0
M  V30 1254 H 114.321 -0.612685 -1.36259 0
M  V30 1255 H 116.203 0.970704 -4.10067 0
M  V30 1256 H 114.878 1.31826 -2.95641 0
M  V30 1257 H 113.785 -0.898547 -3.63149 0
M  V30 1258 H 115.118 -1.16309 -4.7826 0
M  V30 1259 N 116.77 1.45427 -0.607355 0
M  V30 1260 C 118.017 2.02241 -0.102455 0
M  V30 1261 C 118.345 1.4758 1.26691 0
M  V30 1262 O 117.6 0.640468 1.84923 0
M  V30 1263 C 117.899 3.57398 -0.0129263 0
M  V30 1264 C 117.565 4.3121 -1.31792 0
M  V30 1265 C 116.227 4.51092 -1.67539 0
M  V30 1266 C 118.579 4.73401 -2.18039 0
M  V30 1267 C 115.907 5.10422 -2.89285 0
M  V30 1268 C 118.259 5.34078 -3.39034 0
M  V30 1269 C 116.923 5.52184 -3.75033 0
M  V30 1270 H 116.193 0.740051 -0.037491 0
M  V30 1271 H 118.84 1.74494 -0.788926 0
M  V30 1272 H 117.145 3.84421 0.756806 0
M  V30 1273 H 118.842 3.99061 0.393881 0
M  V30 1274 H 115.432 4.16047 -1.02968 0
M  V30 1275 H 119.616 4.57774 -1.91721 0
M  V30 1276 H 114.872 5.22629 -3.17283 0
M  V30 1277 H 119.046 5.65724 -4.06115 0
M  V30 1278 H 116.673 5.97925 -4.69457 0
M  V30 1279 N 118.248 0.346503 1.53744 0
M  V30 1280 C 119.196 -0.52422 2.26616 0
M  V30 1281 C 120.19 -1.09948 1.28871 0
M  V30 1282 O 121.396 -1.04488 1.46568 0
M  V30 1283 H 117.771 -0.187743 0.728187 0
M  V30 1284 H 119.742 0.11239 2.98188 0
M  V30 1285 C 118.491 -1.66186 3.05414 0
M  V30 1286 H 117.814 -1.22848 3.80458 0
M  V30 1287 H 119.254 -2.24622 3.59612 0
M  V30 1288 C 117.713 -2.59302 2.1509 0
M  V30 1289 O 118.243 -3.61628 1.74895 0
M  V30 1290 N 116.449 -2.28055 1.8011 0
M  V30 1291 H 115.996 -1.44883 2.12994 0
M  V30 1292 H 115.954 -2.90615 1.19958 0
M  V30 1293 N 119.726 -1.57421 0.075193 0
M  V30 1294 C 120.974 -1.93236 -0.591974 0
M  V30 1295 C 121.295 -0.956241 -1.69944 0
M  V30 1296 O 120.565 -0.00494792 -1.95899 0
M  V30 1297 H 119.145 -0.713355 -0.22166 0
M  V30 1298 H 121.807 -1.9444 0.133848 0
M  V30 1299 H 120.903 -2.95131 -1.01509 0
M  V30 1300 N 121.204 0.198386 -1.56346 0
M  V30 1301 C 122.134 1.24865 -1.9731 0
M  V30 1302 C 123.115 1.47651 -0.844576 0
M  V30 1303 O 124.3 1.59444 -1.10866 0
M  V30 1304 C 121.43 2.59358 -2.30977 0
M  V30 1305 C 120.384 2.5119 -3.46537 0
M  V30 1306 C 119.71 3.89926 -3.65871 0
M  V30 1307 C 121.01 2.03977 -4.80823 0
M  V30 1308 H 122.704 0.908252 -2.85291 0
M  V30 1309 H 120.25 0.435462 -1.37258 0
M  V30 1310 H 122.203 3.33011 -2.58228 0
M  V30 1311 H 120.927 2.95132 -1.39874 0
M  V30 1312 H 119.586 1.79993 -3.19371 0
M  V30 1313 H 119.234 4.23046 -2.72105 0
M  V30 1314 H 118.934 3.85336 -4.4361 0
M  V30 1315 H 120.458 4.65205 -3.95495 0
M  V30 1316 H 121.872 2.67386 -5.07127 0
M  V30 1317 H 120.269 2.10397 -5.62008 0
M  V30 1318 H 121.339 0.992861 -4.74626 0
M  V30 1319 N 122.682 1.50554 0.465978 0
M  V30 1320 C 123.629 1.6979 1.56333 0
M  V30 1321 C 124.599 0.539239 1.57103 0
M  V30 1322 O 125.784 0.770401 1.74555 0
M  V30 1323 C 122.924 1.80273 2.94271 0
M  V30 1324 C 122.037 3.07674 3.0325 0
M  V30 1325 C 121.172 3.08922 4.32135 0
M  V30 1326 C 120.211 4.30755 4.34875 0
M  V30 1327 N 119.348 4.29714 5.55239 0
M  V30 1328 H 124.188 2.63472 1.39235 0
M  V30 1329 H 121.725 1.30602 0.676873 0
M  V30 1330 H 123.683 1.84332 3.74269 0
M  V30 1331 H 122.313 0.900258 3.09992 0
M  V30 1332 H 121.365 3.13062 2.16094 0
M  V30 1333 H 122.677 3.97642 3.01135 0
M  V30 1334 H 121.831 3.11738 5.20485 0
M  V30 1335 H 120.57 2.16792 4.36866 0
M  V30 1336 H 119.575 4.28146 3.44922 0
M  V30 1337 H 120.8 5.24117 4.31831 0
M  V30 1338 H 118.746 3.4044 5.60746 0
M  V30 1339 H 118.663 5.13456 5.54886 0
M  V30 1340 H 119.931 4.36683 6.457 0
M  V30 1341 N 124.16 -0.719506 1.40217 0
M  V30 1342 C 125.107 -1.83359 1.40172 0
M  V30 1343 C 126.077 -1.64065 0.259206 0
M  V30 1344 O 127.262 -1.85254 0.456677 0
M  V30 1345 C 124.402 -3.2103 1.26624 0
M  V30 1346 C 123.515 -3.51923 2.50548 0
M  V30 1347 C 122.65 -4.79079 2.29471 0
M  V30 1348 C 121.689 -5.02863 3.48992 0
M  V30 1349 N 120.826 -6.2123 3.27135 0
M  V30 1350 H 125.666 -1.82733 2.35399 0
M  V30 1351 H 123.203 -0.892688 1.16917 0
M  V30 1352 H 125.161 -4.00524 1.16776 0
M  V30 1353 H 123.791 -3.20895 0.350176 0
M  V30 1354 H 122.843 -2.67014 2.70939 0
M  V30 1355 H 124.155 -3.6541 3.39525 0
M  V30 1356 H 123.309 -5.66582 2.16955 0
M  V30 1357 H 122.048 -4.67794 1.37913 0
M  V30 1358 H 121.053 -4.13816 3.6199 0
M  V30 1359 H 122.278 -5.16023 4.41472 0
M  V30 1360 H 120.224 -6.11204 2.38256 0
M  V30 1361 H 120.141 -6.35375 4.09675 0
M  V30 1362 H 121.409 -7.11532 3.18344 0
M  V30 1363 N 125.638 -1.25649 -0.95132 0
M  V30 1364 C 126.571 -1.00644 -2.04807 0
M  V30 1365 C 127.549 0.0654271 -1.62468 0
M  V30 1366 O 128.733 -0.074911 -1.88351 0
M  V30 1367 C 125.86 -0.522052 -3.34653 0
M  V30 1368 C 124.906 -1.58495 -3.95957 0
M  V30 1369 S 125.739 -3.17108 -4.31512 0
M  V30 1370 C 126.895 -2.70412 -5.64471 0
M  V30 1371 H 127.128 -1.93508 -2.25703 0
M  V30 1372 H 124.661 -1.09216 -1.09139 0
M  V30 1373 H 126.619 -0.24923 -4.09743 0
M  V30 1374 H 125.28 0.386146 -3.11717 0
M  V30 1375 H 124.473 -1.1968 -4.89584 0
M  V30 1376 H 124.075 -1.80862 -3.2736 0
M  V30 1377 H 126.367 -2.14245 -6.42733 0
M  V30 1378 H 127.31 -3.62693 -6.08161 0
M  V30 1379 H 127.718 -2.10302 -5.23864 0
M  V30 1380 N 127.117 1.15442 -1.07289 0
M  V30 1381 C 128.065 2.22225 -0.686952 0
M  V30 1382 C 129.059 1.66688 0.30193 0
M  V30 1383 O 130.265 1.79236 0.165712 0
M  V30 1384 H 126.64 0.723783 -0.204064 0
M  V30 1385 H 128.611 2.52056 -1.5972 0
M  V30 1386 C 127.36 3.47556 -0.100149 0
M  V30 1387 H 126.683 3.90612 -0.852211 0
M  V30 1388 H 128.123 4.23794 0.132235 0
M  V30 1389 C 126.582 3.16337 1.159 0
M  V30 1390 O 127.112 3.33074 2.24555 0
M  V30 1391 N 125.318 2.70385 1.06491 0
M  V30 1392 H 124.865 2.56966 0.180668 0
M  V30 1393 H 124.823 2.49871 1.90819 0
M  V30 1394 N 128.595 0.856903 1.32268 0
M  V30 1395 C 130.006 0.515711 1.79436 0
M  V30 1396 C 130.357 -0.966586 1.70738 0
M  V30 1397 O 129.482 -1.75409 1.26731 0
M  V30 1398 C 130.077 0.929335 3.25805 0
M  V30 1399 C 128.636 0.640006 3.70919 0
M  V30 1400 C 127.783 1.12784 2.53328 0
M  V30 1401 H 130.734 1.04389 1.19535 0
M  V30 1402 H 130.755 0.246633 3.797 0
M  V30 1403 H 130.267 2.00821 3.32103 0
M  V30 1404 H 128.368 -0.428051 3.70133 0
M  V30 1405 H 128.481 1.20788 4.63624 0
M  V30 1406 H 126.845 0.548033 2.48734 0
M  V30 1407 H 127.628 2.21387 2.62379 0
M  V30 1408 N 130.073 -1.45103 0.615059 0
M  V30 1409 C 131.02 -2.30586 -0.0993978 0
M  V30 1410 C 131.99 -1.42544 -0.852669 0
M  V30 1411 O 133.175 -1.71465 -0.836917 0
M  V30 1412 C 130.315 -3.27572 -1.08583 0
M  V30 1413 C 129.428 -4.30717 -0.332656 0
M  V30 1414 C 128.563 -5.14807 -1.30947 0
M  V30 1415 C 127.602 -6.09673 -0.544538 0
M  V30 1416 N 126.739 -6.86517 -1.47101 0
M  V30 1417 H 131.579 -2.91144 0.635542 0
M  V30 1418 H 129.116 -1.4346 0.325206 0
M  V30 1419 H 131.074 -3.82276 -1.67095 0
M  V30 1420 H 129.704 -2.68751 -1.78809 0
M  V30 1421 H 128.756 -3.78615 0.368107 0
M  V30 1422 H 130.068 -4.98102 0.263842 0
M  V30 1423 H 129.222 -5.73948 -1.96643 0
M  V30 1424 H 127.961 -4.47458 -1.9399 0
M  V30 1425 H 126.966 -5.49656 0.126003 0
M  V30 1426 H 128.191 -6.79052 0.080947 0
M  V30 1427 H 126.137 -6.21851 -2.08895 0
M  V30 1428 H 126.054 -7.50281 -0.928137 0
M  V30 1429 H 127.322 -7.50194 -2.11731 0
M  V30 1430 N 131.551 -0.354651 -1.53558 0
M  V30 1431 C 132.481 0.489091 -2.2832 0
M  V30 1432 C 133.462 1.09324 -1.30316 0
M  V30 1433 O 134.647 1.11255 -1.59173 0
M  V30 1434 C 131.777 1.63456 -3.0643 0
M  V30 1435 C 130.731 1.1582 -4.12031 0
M  V30 1436 C 130.057 2.39305 -4.7816 0
M  V30 1437 C 131.357 0.250731 -5.21698 0
M  V30 1438 H 133.051 -0.134614 -2.99097 0
M  V30 1439 H 130.597 -0.0661826 -1.43848 0
M  V30 1440 H 132.55 2.23136 -3.57475 0
M  V30 1441 H 131.274 2.28533 -2.33325 0
M  V30 1442 H 129.933 0.584146 -3.61916 0
M  V30 1443 H 129.581 3.02814 -4.01637 0
M  V30 1444 H 129.281 2.08109 -5.49513 0
M  V30 1445 H 130.805 2.99691 -5.31994 0
M  V30 1446 H 132.219 0.754695 -5.68311 0
M  V30 1447 H 130.616 0.0301468 -6.00092 0
M  V30 1448 H 131.686 -0.710125 -4.79672 0
M  V30 1449 N 133.029 1.57378 -0.0835403 0
M  V30 1450 C 133.976 2.13384 0.879539 0
M  V30 1451 C 134.946 1.04936 1.28754 0
M  V30 1452 O 136.131 1.32662 1.37133 0
M  V30 1453 C 133.271 2.70932 2.13752 0
M  V30 1454 C 132.384 3.93575 1.7811 0
M  V30 1455 C 131.519 4.39326 2.98607 0
M  V30 1456 C 130.558 5.54587 2.59037 0
M  V30 1457 N 129.695 5.95243 3.72331 0
M  V30 1458 H 134.535 2.9537 0.395076 0
M  V30 1459 H 132.072 1.45953 0.183349 0
M  V30 1460 H 134.03 3.02411 2.87408 0
M  V30 1461 H 132.66 1.91693 2.59718 0
M  V30 1462 H 131.712 3.68483 0.94469 0
M  V30 1463 H 133.024 4.77258 1.45005 0
M  V30 1464 H 132.178 4.72528 3.80529 0
M  V30 1465 H 130.917 3.5452 3.34913 0
M  V30 1466 H 129.922 5.21024 1.75539 0
M  V30 1467 H 131.147 6.41133 2.23887 0
M  V30 1468 H 129.093 5.13385 4.08378 0
M  V30 1469 H 129.01 6.73694 3.43034 0
M  V30 1470 H 130.278 6.33072 4.54797 0
M  V30 1471 N 134.507 -0.190092 1.56449 0
M  V30 1472 C 135.735 -0.925772 1.85033 0
M  V30 1473 C 136.15 -1.76638 0.666658 0
M  V30 1474 O 135.507 -1.78822 -0.364565 0
M  V30 1475 C 135.558 -1.81786 3.12468 0
M  V30 1476 O 135.279 -1.01118 4.26271 0
M  V30 1477 C 136.78 -2.6648 3.54265 0
M  V30 1478 H 134 -0.269872 0.614337 0
M  V30 1479 H 136.544 -0.195837 2.0356 0
M  V30 1480 H 134.699 -2.50136 2.95822 0
M  V30 1481 H 135.113 -1.61956 4.98869 0
M  V30 1482 H 136.587 -3.24722 4.46385 0
M  V30 1483 H 137.064 -3.40434 2.77491 0
M  V30 1484 H 137.67 -2.03493 3.73458 0
M  V30 1485 N 135.985 -1.50799 -0.457987 0
M  V30 1486 C 136.915 -1.73553 -1.5621 0
M  V30 1487 C 137.896 -0.584774 -1.59732 0
M  V30 1488 O 139.081 -0.825314 -1.7579 0
M  V30 1489 C 136.211 -1.84169 -2.94447 0
M  V30 1490 C 135.165 -2.99461 -3.0579 0
M  V30 1491 C 134.491 -2.95235 -4.45803 0
M  V30 1492 C 135.791 -4.39766 -2.81786 0
M  V30 1493 H 137.485 -2.66 -1.37421 0
M  V30 1494 H 135.031 -1.28002 -0.659662 0
M  V30 1495 H 136.984 -1.98672 -3.71628 0
M  V30 1496 H 135.708 -0.883545 -3.14422 0
M  V30 1497 H 134.367 -2.8463 -2.31044 0
M  V30 1498 H 134.015 -1.97239 -4.62715 0
M  V30 1499 H 133.715 -3.72642 -4.54326 0
M  V30 1500 H 135.239 -3.11803 -5.24987 0
M  V30 1501 H 136.653 -4.55054 -3.4871 0
M  V30 1502 H 135.05 -5.18722 -3.0174 0
M  V30 1503 H 136.12 -4.51229 -1.7754 0
M  V30 1504 N 137.463 0.71206 -1.40597 0
M  V30 1505 C 138.393 1.83889 -1.43899 0
M  V30 1506 C 139.374 1.67442 -0.299504 0
M  V30 1507 O 140.559 1.87421 -0.508624 0
M  V30 1508 C 137.689 3.21877 -1.30431 0
M  V30 1509 C 136.643 3.53002 -2.42019 0
M  V30 1510 C 135.969 4.90172 -2.13626 0
M  V30 1511 C 137.269 3.53643 -3.84362 0
M  V30 1512 H 138.963 1.81383 -2.38203 0
M  V30 1513 H 136.509 0.871237 -1.14654 0
M  V30 1514 H 138.462 4.00404 -1.31357 0
M  V30 1515 H 137.186 3.24968 -0.326049 0
M  V30 1516 H 135.845 2.76818 -2.40349 0
M  V30 1517 H 135.493 4.89869 -1.14182 0
M  V30 1518 H 135.193 5.11962 -2.88389 0
M  V30 1519 H 136.717 5.71028 -2.1624 0
M  V30 1520 H 138.131 4.22203 -3.87837 0
M  V30 1521 H 136.528 3.86961 -4.58673 0
M  V30 1522 H 137.598 2.52954 -4.13693 0
M  V30 1523 N 138.941 1.26152 0.944643 0
M  V30 1524 C 139.904 1.07474 2.0244 0
M  V30 1525 C 140.904 0.0242064 1.60782 0
M  V30 1526 O 142.094 0.267302 1.72137 0
M  V30 1527 C 139.226 0.633956 3.34953 0
M  V30 1528 H 140.419 2.03336 2.20442 0
M  V30 1529 H 137.972 1.087 1.12312 0
M  V30 1530 H 138.707 -0.326811 3.22649 0
M  V30 1531 H 138.492 1.39247 3.66542 0
M  V30 1532 H 139.982 0.52501 4.14287 0
M  V30 1533 N 140.419 -1.14872 1.07899 0
M  V30 1534 C 141.668 -1.85135 0.800499 0
M  V30 1535 C 141.981 -1.83547 -0.676014 0
M  V30 1536 O 143.187 -2.49548 -1.06948 0
M  V30 1537 C 141.643 -3.3231 1.38197 0
M  V30 1538 C 141.251 -3.42329 2.8899 0
M  V30 1539 C 142.995 -4.0772 1.18174 0
M  V30 1540 C 140.902 -4.83684 3.403 0
M  V30 1541 H 139.832 -0.693563 0.29578 0
M  V30 1542 H 142.483 -1.29532 1.29976 0
M  V30 1543 H 140.865 -3.87618 0.810431 0
M  V30 1544 H 142.039 -2.97097 3.52236 0
M  V30 1545 H 140.354 -2.80369 3.07867 0
M  V30 1546 H 142.951 -5.12049 1.5398 0
M  V30 1547 H 143.294 -4.16124 0.12117 0
M  V30 1548 H 143.827 -3.58696 1.71994 0
M  V30 1549 H 140.566 -4.80465 4.45907 0
M  V30 1550 H 140.086 -5.29474 2.81811 0
M  V30 1551 H 141.765 -5.52558 3.36584 0
M  V30 1552 N 141.898 -0.863906 -1.31812 0
M  V30 1553 C 143.146 -0.470904 -1.96537 0
M  V30 1554 C 143.467 0.978771 -1.68657 0
M  V30 1555 O 142.737 1.6853 -0.998717 0
M  V30 1556 H 141.317 -0.171148 -0.72713 0
M  V30 1557 H 143.979 -1.10236 -1.60729 0
M  V30 1558 H 143.075 -0.623616 -3.05806 0
M  V30 1559 N 143.376 1.44774 -0.622745 0
M  V30 1560 C 144.624 2.01721 -0.123655 0
M  V30 1561 C 144.945 1.49172 1.25589 0
M  V30 1562 O 144.215 0.691974 1.83272 0
M  V30 1563 H 142.795 0.745777 -0.0427225 0
M  V30 1564 H 145.457 1.77382 -0.807559 0
M  V30 1565 H 144.553 3.11984 -0.0849534 0
M  V30 1566 N 144.854 0.36279 1.53368 0
M  V30 1567 C 146.1 -0.220702 2.02199 0
M  V30 1568 C 146.455 -1.46649 1.24546 0
M  V30 1569 O 145.748 -1.88737 0.32996 0
M  V30 1570 C 145.942 -0.568417 3.52851 0
M  V30 1571 C 145.771 0.642126 4.45092 0
M  V30 1572 C 144.541 1.15335 4.91961 0
M  V30 1573 C 146.739 1.50649 4.91741 0
M  V30 1574 N 144.721 2.3242 5.68202 0
M  V30 1575 C 146.092 2.52404 5.66297 0
M  V30 1576 C 148.147 1.52969 4.73819 0
M  V30 1577 C 146.85 3.56331 6.24836 0
M  V30 1578 C 148.876 2.55789 5.33222 0
M  V30 1579 C 148.238 3.56268 6.07662 0
M  V30 1580 H 144.337 -0.0435508 0.780786 0
M  V30 1581 H 146.921 0.506704 1.87991 0
M  V30 1582 H 145.092 -1.2649 3.67226 0
M  V30 1583 H 146.824 -1.13676 3.88407 0
M  V30 1584 H 143.579 0.718412 4.68119 0
M  V30 1585 H 144.003 2.91591 6.10986 0
M  V30 1586 H 148.645 0.766418 4.15795 0
M  V30 1587 H 146.363 4.33543 6.81958 0
M  V30 1588 H 149.949 2.58435 5.21251 0
M  V30 1589 H 148.829 4.34524 6.52808 0
M  V30 1590 N 146.332 -1.57332 0.0918853 0
M  V30 1591 C 147.28 -2.15075 -0.885747 0
M  V30 1592 C 148.274 -1.09277 -1.29441 0
M  V30 1593 O 149.48 -1.27627 -1.26931 0
M  V30 1594 H 145.855 -0.687966 -0.303656 0
M  V30 1595 H 147.826 -2.96047 -0.373995 0
M  V30 1596 C 146.575 -2.74325 -2.13638 0
M  V30 1597 H 145.898 -3.55418 -1.8308 0
M  V30 1598 H 147.338 -3.183 -2.80109 0
M  V30 1599 C 145.797 -1.70062 -2.90827 0
M  V30 1600 O 146.327 -1.13763 -3.85254 0
M  V30 1601 N 144.533 -1.40628 -2.54307 0
M  V30 1602 H 144.08 -1.866 -1.7759 0
M  V30 1603 H 144.038 -0.711043 -3.06254 0
M  V30 1604 N 147.81 0.181792 -1.56548 0
M  V30 1605 C 149.057 0.900097 -1.81396 0
M  V30 1606 C 149.385 1.82695 -0.667281 0
M  V30 1607 O 148.64 1.92614 0.346146 0
M  V30 1608 C 148.939 1.73728 -3.12335 0
M  V30 1609 C 148.605 0.960255 -4.40556 0
M  V30 1610 C 147.267 0.745766 -4.75386 0
M  V30 1611 C 149.619 0.414477 -5.19549 0
M  V30 1612 C 146.947 -0.0257694 -5.86694 0
M  V30 1613 C 149.299 -0.343916 -6.31664 0
M  V30 1614 C 147.963 -0.569301 -6.65068 0
M  V30 1615 H 147.233 0.329369 -0.663775 0
M  V30 1616 H 149.88 0.165647 -1.90782 0
M  V30 1617 H 148.185 2.54081 -2.98245 0
M  V30 1618 H 149.882 2.29591 -3.28769 0
M  V30 1619 H 146.472 1.13746 -4.13231 0
M  V30 1620 H 150.656 0.567554 -4.93044 0
M  V30 1621 H 145.912 -0.210233 -6.11038 0
M  V30 1622 H 150.086 -0.774133 -6.92084 0
M  V30 1623 H 147.713 -1.16903 -7.51158 0
M  V30 1624 N 149.288 1.51039 0.449983 0
M  V30 1625 C 150.536 1.62759 1.19808 0
M  V30 1626 C 150.857 0.339981 1.92013 0
M  V30 1627 O 150.127 -0.643606 1.85026 0
M  V30 1628 H 148.707 0.599811 0.445237 0
M  V30 1629 H 151.369 1.87914 0.517138 0
M  V30 1630 H 150.465 2.44911 1.93455 0
M  V30 1631 N 150.766 -0.704594 1.40972 0
M  V30 1632 C 151.994 -1.49354 1.43182 0
M  V30 1633 C 152.409 -1.88768 0.0345508 0
M  V30 1634 O 151.766 -1.56184 -0.944081 0
M  V30 1635 C 151.817 -2.76187 2.33244 0
M  V30 1636 O 151.538 -2.38436 3.67532 0
M  V30 1637 C 153.039 -3.7 2.44162 0
M  V30 1638 H 150.259 -0.460559 0.487982 0
M  V30 1639 H 152.803 -0.868261 1.85153 0
M  V30 1640 H 150.958 -3.34974 1.94606 0
M  V30 1641 H 151.372 -3.20126 4.15475 0
M  V30 1642 H 152.846 -4.55803 3.11364 0
M  V30 1643 H 153.323 -4.13867 1.47006 0
M  V30 1644 H 153.929 -3.17121 2.83398 0
M  V30 1645 N 152.244 -1.26651 -0.937939 0
M  V30 1646 C 153.176 -1.04283 -2.04102 0
M  V30 1647 C 154.189 -0.00221014 -1.628 0
M  V30 1648 O 155.378 -0.242645 -1.76843 0
M  V30 1649 C 152.478 -0.557846 -3.34277 0
M  V30 1650 C 151.651 -1.66843 -4.04329 0
M  V30 1651 C 150.71 -1.18095 -5.12777 0
M  V30 1652 O 149.736 -1.87865 -5.37304 0
M  V30 1653 N 150.938 -0.0311006 -5.80492 0
M  V30 1654 H 153.703 -1.9927 -2.23856 0
M  V30 1655 H 151.264 -1.1808 -1.10764 0
M  V30 1656 H 153.256 -0.215836 -4.04124 0
M  V30 1657 H 151.826 0.298523 -3.11171 0
M  V30 1658 H 151.046 -2.18123 -3.28353 0
M  V30 1659 H 152.334 -2.41408 -4.47883 0
M  V30 1660 H 151.732 0.551486 -5.63005 0
M  V30 1661 H 150.289 0.251809 -6.51313 0
M  V30 1662 N 153.722 1.14298 -1.08507 0
M  V30 1663 C 154.669 2.19414 -0.715965 0
M  V30 1664 C 155.639 1.63399 0.298326 0
M  V30 1665 O 156.824 1.89929 0.182101 0
M  V30 1666 C 153.964 3.44845 -0.132534 0
M  V30 1667 C 153.077 4.15007 -1.19973 0
M  V30 1668 C 152.212 5.28024 -0.580048 0
M  V30 1669 C 151.251 5.9002 -1.62921 0
M  V30 1670 N 150.388 6.94485 -1.03125 0
M  V30 1671 H 155.228 2.50336 -1.61666 0
M  V30 1672 H 152.765 1.2293 -0.807882 0
M  V30 1673 H 154.723 4.16601 0.223454 0
M  V30 1674 H 153.353 3.14403 0.731467 0
M  V30 1675 H 152.405 3.41629 -1.67313 0
M  V30 1676 H 153.717 4.57178 -1.99473 0
M  V30 1677 H 152.871 6.06455 -0.172364 0
M  V30 1678 H 151.61 4.87076 0.246603 0
M  V30 1679 H 150.615 5.10291 -2.04654 0
M  V30 1680 H 151.84 6.33042 -2.45835 0
M  V30 1681 H 149.786 6.55612 -0.225711 0
M  V30 1682 H 149.703 7.35148 -1.76334 0
M  V30 1683 H 150.971 7.7679 -0.649458 0
M  V30 1684 N 155.201 0.870884 1.31352 0
M  V30 1685 C 156.448 0.482273 1.96673 0
M  V30 1686 C 156.776 -0.965638 1.68836 0
M  V30 1687 O 156.031 -1.69514 0.977937 0
M  V30 1688 C 156.33 0.687157 3.50732 0
M  V30 1689 C 155.996 2.108 3.9859 0
M  V30 1690 C 154.658 2.49656 4.1137 0
M  V30 1691 C 157.01 3.03459 4.23748 0
M  V30 1692 C 154.338 3.80412 4.46659 0
M  V30 1693 C 156.69 4.3373 4.60501 0
M  V30 1694 C 155.354 4.725 4.71487 0
M  V30 1695 H 154.624 0.176476 0.719679 0
M  V30 1696 H 157.271 1.10405 1.56471 0
M  V30 1697 H 155.576 -0.0177476 3.91796 0
M  V30 1698 H 157.273 0.366284 3.99324 0
M  V30 1699 H 153.863 1.79633 3.8914 0
M  V30 1700 H 158.047 2.74665 4.13368 0
M  V30 1701 H 153.303 4.1021 4.53362 0
M  V30 1702 H 157.477 5.05578 4.78919 0
M  V30 1703 H 155.104 5.73859 4.98588 0
M  V30 1704 N 156.679 -1.44442 0.630414 0
M  V30 1705 C 157.907 -2.06414 0.141671 0
M  V30 1706 C 158.322 -1.47105 -1.18345 0
M  V30 1707 O 157.679 -0.593662 -1.72574 0
M  V30 1708 C 157.73 -3.61494 0.0199784 0
M  V30 1709 O 157.451 -4.18594 1.29269 0
M  V30 1710 C 158.952 -4.40499 -0.497544 0
M  V30 1711 H 156.172 -0.666292 0.0793452 0
M  V30 1712 H 158.716 -1.85323 0.864614 0
M  V30 1713 H 156.871 -3.8185 -0.653402 0
M  V30 1714 H 157.285 -5.12026 1.13707 0
M  V30 1715 H 158.759 -5.49433 -0.531708 0
M  V30 1716 H 159.236 -4.11895 -1.52445 0
M  V30 1717 H 159.842 -4.25061 0.142562 0
M  V30 1718 N 158.157 -0.370918 -1.53173 0
M  V30 1719 C 159.434 0.273754 -1.93675 0
M  V30 1720 C 159.814 1.65938 -1.3049 0
M  V30 1721 O 159.162 2.23698 -0.465999 0
M  V30 1722 C 159.372 0.318602 -3.47543 0
M  V30 1723 C 160.72 0.556392 -4.20939 0
M  V30 1724 O 161.744 0.399587 -3.53952 0
M  V30 1725 O 160.603 0.862133 -5.39657 0
M  V30 1726 H 157.697 0.165448 -0.810281 0
M  V30 1727 H 160.243 -0.42409 -1.64315 0
M  V30 1728 H 159.015 -0.652687 -3.85818 0
M  V30 1729 H 158.638 1.06212 -3.83151 0
M  V30 1730 N 159.635 1.57281 -0.100228 0
M  V30 1731 C 160.568 2.09976 0.893612 0
M  V30 1732 C 161.546 1.01155 1.27304 0
M  V30 1733 O 162.73 1.28687 1.37739 0
M  V30 1734 C 159.857 2.58098 2.19324 0
M  V30 1735 C 158.903 3.78626 1.96328 0
M  V30 1736 S 159.736 5.21959 1.19662 0
M  V30 1737 C 160.892 5.73435 2.50844 0
M  V30 1738 H 161.125 2.93946 0.44534 0
M  V30 1739 H 158.658 1.53985 0.113167 0
M  V30 1740 H 160.616 2.8648 2.94005 0
M  V30 1741 H 159.277 1.74344 2.61272 0
M  V30 1742 H 158.47 4.10382 2.92579 0
M  V30 1743 H 158.072 3.50763 1.29775 0
M  V30 1744 H 160.364 5.82015 3.46792 0
M  V30 1745 H 161.307 6.7185 2.23659 0
M  V30 1746 H 161.715 5.01395 2.59352 0
M  V30 1747 N 161.113 -0.173488 1.56642 0
M  V30 1748 C 162.359 -0.891784 1.8214 0
M  V30 1749 C 162.692 -1.8199 0.677736 0
M  V30 1750 O 161.967 -1.91842 -0.320446 0
M  V30 1751 C 162.25 -1.68933 3.18015 0
M  V30 1752 C 162.103 -0.784487 4.42906 0
M  V30 1753 C 163.422 -2.65748 3.50808 0
M  V30 1754 H 160.541 -0.322761 0.662567 0
M  V30 1755 H 163.183 -0.158095 1.89341 0
M  V30 1756 H 161.333 -2.31482 3.12007 0
M  V30 1757 H 163.005 -0.172046 4.60979 0
M  V30 1758 H 161.248 -0.0924117 4.33702 0
M  V30 1759 H 161.919 -1.37799 5.34524 0
M  V30 1760 H 164.395 -2.13327 3.57255 0
M  V30 1761 H 163.271 -3.18619 4.4696 0
M  V30 1762 H 163.532 -3.45842 2.75401 0
M  V30 1763 N 162.591 -1.51276 -0.441967 0
M  V30 1764 C 163.554 -1.7167 -1.51862 0
M  V30 1765 C 164.554 -0.586793 -1.49711 0
M  V30 1766 O 165.744 -0.854276 -1.51815 0
M  V30 1767 C 162.876 -1.76889 -2.91416 0
M  V30 1768 H 164.069 -2.67754 -1.35084 0
M  V30 1769 H 161.622 -1.41196 -0.670333 0
M  V30 1770 H 162.357 -0.826026 -3.13604 0
M  V30 1771 H 162.142 -2.59001 -2.94382 0
M  V30 1772 H 163.632 -1.94522 -3.69528 0
M  V30 1773 N 164.069 0.697108 -1.41344 0
M  V30 1774 C 165.297 1.48593 -1.43972 0
M  V30 1775 C 165.712 1.88747 -0.0445612 0
M  V30 1776 O 165.069 1.56682 0.935785 0
M  V30 1777 C 165.12 2.74946 -2.34706 0
M  V30 1778 O 164.841 2.36484 -3.68791 0
M  V30 1779 C 166.342 3.687 -2.46121 0
M  V30 1780 H 163.562 0.457964 -0.490418 0
M  V30 1781 H 166.106 0.858429 -1.8561 0
M  V30 1782 H 164.261 3.33937 -1.9638 0
M  V30 1783 H 164.675 3.17918 -4.17167 0
M  V30 1784 H 166.149 4.54145 -3.13777 0
M  V30 1785 H 166.626 4.13081 -1.49199 0
M  V30 1786 H 167.232 3.15613 -2.85076 0
M  V30 1787 N 165.547 1.27147 0.931209 0
M  V30 1788 C 166.51 1.09615 2.01289 0
M  V30 1789 C 167.51 0.0412581 1.60747 0
M  V30 1790 O 168.7 0.285545 1.71844 0
M  V30 1791 C 165.832 0.669447 3.34262 0
M  V30 1792 H 167.025 2.05662 2.18273 0
M  V30 1793 H 164.578 1.09885 1.11153 0
M  V30 1794 H 165.313 -0.292572 3.22978 0
M  V30 1795 H 165.098 1.43127 3.65044 0
M  V30 1796 H 166.588 0.568921 4.13706 0
M  V30 1797 N 167.025 -1.13721 1.09112 0
M  V30 1798 C 167.973 -2.21103 0.722219 0
M  V30 1799 C 168.967 -1.67147 -0.275374 0
M  V30 1800 O 170.173 -1.79477 -0.137176 0
M  V30 1801 H 166.548 -0.720445 0.215553 0
M  V30 1802 H 168.519 -2.49483 1.63709 0
M  V30 1803 C 167.268 -3.47352 0.15543 0
M  V30 1804 H 166.591 -3.89206 0.914246 0
M  V30 1805 H 168.031 -4.2395 -0.0647967 0
M  V30 1806 C 166.49 -3.1814 -1.10852 0
M  V30 1807 O 167.02 -3.36604 -2.19227 0
M  V30 1808 N 165.226 -2.72045 -1.02176 0
M  V30 1809 H 164.773 -2.57221 -0.139764 0
M  V30 1810 H 164.731 -2.52875 -1.8682 0
M  V30 1811 N 168.503 -0.877838 -1.30888 0
M  V30 1812 C 169.451 -0.328662 -2.30266 0
M  V30 1813 C 170.445 0.560496 -1.59859 0
M  V30 1814 O 171.651 0.445722 -1.74394 0
M  V30 1815 H 168.026 -0.0876142 -0.746879 0
M  V30 1816 H 169.997 -1.18061 -2.74051 0
M  V30 1817 C 168.746 0.448071 -3.44801 0
M  V30 1818 H 168.069 -0.226859 -3.99156 0
M  V30 1819 H 169.509 0.797541 -4.16432 0
M  V30 1820 C 167.968 1.64239 -2.94155 0
M  V30 1821 O 168.498 2.74175 -2.93583 0
M  V30 1822 N 166.704 1.47716 -2.50256 0
M  V30 1823 H 166.251 0.582821 -2.5092 0
M  V30 1824 H 166.209 2.27765 -2.16727 0
M  V30 1825 N 169.982 1.44106 -0.638065 0
M  V30 1826 C 171.398 1.56672 -0.304286 0
M  V30 1827 C 171.598 1.6244 1.19228 0
M  V30 1828 O 170.654 1.57121 1.9766 0
M  V30 1829 C 171.967 2.83503 -1.00231 0
M  V30 1830 C 173.515 2.97226 -0.981116 0
M  V30 1831 C 173.99 4.26868 -1.65974 0
M  V30 1832 N 175.481 4.33698 -1.62666 0
M  V30 1833 C 176.216 5.32745 -2.12063 0
M  V30 1834 N 175.712 6.38157 -2.6968 0
M  V30 1835 N 177.505 5.24299 -2.02651 0
M  V30 1836 H 169.656 1.38605 -1.60942 0
M  V30 1837 H 171.919 0.664661 -0.675965 0
M  V30 1838 H 171.625 2.85251 -2.0573 0
M  V30 1839 H 171.499 3.73251 -0.54439 0
M  V30 1840 H 173.886 2.95027 0.0654188 0
M  V30 1841 H 173.967 2.08808 -1.47759 0
M  V30 1842 H 173.611 4.29826 -2.70576 0
M  V30 1843 H 173.541 5.14156 -1.13804 0
M  V30 1844 H 176.032 3.58138 -1.20606 0
M  V30 1845 H 176.345 7.10029 -3.05087 0
M  V30 1846 H 174.69 6.38823 -2.73734 0
M  V30 1847 H 177.881 4.4086 -1.57353 0
M  V30 1848 H 178.054 6.01334 -2.41457 0
M  V30 1849 N 171.46 0.379036 1.52974 0
M  V30 1850 C 172.392 -0.495963 2.2377 0
M  V30 1851 C 173.405 -1.03517 1.25651 0
M  V30 1852 O 174.594 -0.939249 1.51791 0
M  V30 1853 C 171.694 -1.69894 2.93239 0
M  V30 1854 C 170.867 -1.2889 4.17979 0
M  V30 1855 C 169.926 -2.35543 4.70538 0
M  V30 1856 O 168.952 -1.97375 5.33883 0
M  V30 1857 N 170.154 -3.67318 4.49508 0
M  V30 1858 H 172.919 0.110523 2.99496 0
M  V30 1859 H 170.48 0.204878 1.60598 0
M  V30 1860 H 172.472 -2.40747 3.25304 0
M  V30 1861 H 171.042 -2.212 2.20883 0
M  V30 1862 H 170.262 -0.409676 3.92065 0
M  V30 1863 H 171.55 -0.991443 4.99047 0
M  V30 1864 H 170.948 -4.01095 3.98923 0
M  V30 1865 H 169.505 -4.34235 4.8609 0
M  V30 1866 N 172.938 -1.57226 0.108567 0
M  V30 1867 C 174.166 -1.99179 -0.559954 0
M  V30 1868 C 174.581 -0.988022 -1.60884 0
M  V30 1869 O 173.938 0.0205512 -1.82488 0
M  V30 1870 C 173.989 -3.41159 -1.19552 0
M  V30 1871 O 173.71 -4.37694 -0.188577 0
M  V30 1872 C 175.211 -3.98188 -1.94837 0
M  V30 1873 H 172.431 -0.654228 -0.149088 0
M  V30 1874 H 174.975 -2.03598 0.19183 0
M  V30 1875 H 173.13 -3.37711 -1.89815 0
M  V30 1876 H 173.544 -5.20469 -0.649014 0
M  V30 1877 H 175.018 -4.99644 -2.34648 0
M  V30 1878 H 175.495 -3.3675 -2.81951 0
M  V30 1879 H 176.101 -4.0515 -1.2936 0
M  V30 1880 N 174.416 0.165178 -1.56732 0
M  V30 1881 C 175.663 0.880807 -1.8234 0
M  V30 1882 C 175.991 1.81977 -0.686621 0
M  V30 1883 O 175.246 1.92971 0.325697 0
M  V30 1884 C 175.545 1.70405 -3.1416 0
M  V30 1885 C 175.211 0.913475 -4.4155 0
M  V30 1886 C 173.873 0.695303 -4.7615 0
M  V30 1887 C 176.225 0.359349 -5.1996 0
M  V30 1888 C 173.553 -0.0879947 -5.86634 0
M  V30 1889 C 175.905 -0.410893 -6.31264 0
M  V30 1890 C 174.569 -0.639808 -6.64427 0
M  V30 1891 H 173.839 0.32231 -0.667231 0
M  V30 1892 H 176.486 0.145402 -1.90947 0
M  V30 1893 H 174.791 2.50903 -3.00923 0
M  V30 1894 H 176.488 2.26091 -3.31186 0
M  V30 1895 H 173.078 1.09357 -4.14414 0
M  V30 1896 H 177.262 0.515228 -4.93618 0
M  V30 1897 H 172.518 -0.27503 -6.10781 0
M  V30 1898 H 176.692 -0.847494 -6.91224 0
M  V30 1899 H 174.319 -1.24864 -7.49875 0
M  V30 1900 N 175.894 1.51508 0.433938 0
M  V30 1901 C 177.14 1.64588 1.18484 0
M  V30 1902 C 177.473 0.362666 1.90784 0
M  V30 1903 O 176.748 -0.637892 1.83742 0
M  V30 1904 C 177.031 2.85149 2.19913 0
M  V30 1905 C 176.884 4.23456 1.51674 0
M  V30 1906 C 178.203 3.01227 3.20858 0
M  V30 1907 H 175.322 0.598994 0.429389 0
M  V30 1908 H 177.964 1.84002 0.473647 0
M  V30 1909 H 176.114 2.68729 2.80566 0
M  V30 1910 H 177.786 4.51552 0.943322 0
M  V30 1911 H 176.029 4.25998 0.819035 0
M  V30 1912 H 176.7 5.03812 2.2556 0
M  V30 1913 H 179.176 3.16382 2.70263 0
M  V30 1914 H 178.052 3.87141 3.89118 0
M  V30 1915 H 178.313 2.13447 3.8716 0
M  V30 1916 N 177.372 -0.689602 1.41712 0
M  V30 1917 C 178.32 -1.82475 1.44242 0
M  V30 1918 C 179.314 -1.66354 0.319774 0
M  V30 1919 O 180.52 -1.73143 0.492089 0
M  V30 1920 H 176.895 -0.601416 0.451445 0
M  V30 1921 H 178.866 -1.77458 2.39899 0
M  V30 1922 C 177.615 -3.20535 1.3473 0
M  V30 1923 H 176.938 -3.33559 2.20405 0
M  V30 1924 H 178.378 -4.00023 1.40562 0
M  V30 1925 C 176.837 -3.36846 0.0603281 0
M  V30 1926 O 177.367 -3.91656 -0.892663 0
M  V30 1927 N 175.573 -2.90595 -0.0177039 0
M  V30 1928 H 175.12 -2.46178 0.758572 0
M  V30 1929 H 175.078 -3.01886 -0.878201 0
M  V30 1930 N 178.85 -1.27639 -0.924453 0
M  V30 1931 C 180.075 -1.17101 -1.71179 0
M  V30 1932 C 180.5 0.268134 -1.86179 0
M  V30 1933 O 179.858 1.19415 -1.36418 0
M  V30 1934 C 179.906 -1.86313 -3.08739 0
M  V30 1935 O 179.01 -1.16331 -3.95652 0
M  V30 1936 H 178.351 -0.407091 -0.524569 0
M  V30 1937 H 180.881 -1.68767 -1.15666 0
M  V30 1938 H 180.891 -1.938 -3.59034 0
M  V30 1939 H 179.566 -2.91001 -2.97138 0
M  V30 1940 H 178.143 -1.16935 -3.54091 0
M  V30 1941 N 180.328 1.1314 -1.09713 0
M  V30 1942 C 181.291 2.16831 -0.742751 0
M  V30 1943 C 182.291 1.59159 0.229129 0
M  V30 1944 O 183.481 1.74199 0.00693237 0
M  V30 1945 C 180.613 3.40756 -0.0989168 0
M  V30 1946 H 181.806 2.49695 -1.66109 0
M  V30 1947 H 179.359 1.2802 -0.896699 0
M  V30 1948 H 180.094 3.13485 0.830514 0
M  V30 1949 H 179.879 3.83888 -0.798265 0
M  V30 1950 H 181.369 4.17386 0.133524 0
M  V30 1951 N 181.806 0.884767 1.30421 0
M  V30 1952 C 183.055 0.499164 1.95426 0
M  V30 1953 C 183.368 -0.95645 1.70621 0
M  V30 1954 O 184.574 -1.44889 2.29607 0
M  V30 1955 C 183.03 0.84177 3.49917 0
M  V30 1956 C 182.638 2.31514 3.83543 0
M  V30 1957 C 184.382 0.525355 4.21237 0
M  V30 1958 C 182.289 2.59939 5.31212 0
M  V30 1959 H 181.219 0.182944 0.73147 0
M  V30 1960 H 183.87 1.07971 1.48373 0
M  V30 1961 H 182.252 0.190311 3.95542 0
M  V30 1962 H 183.426 3.0109 3.48829 0
M  V30 1963 H 181.741 2.59907 3.25326 0
M  V30 1964 H 184.338 0.714762 5.29901 0
M  V30 1965 H 184.681 -0.535222 4.12845 0
M  V30 1966 H 185.214 1.134 3.81294 0
M  V30 1967 H 181.953 3.64736 5.44654 0
M  V30 1968 H 181.473 1.94972 5.67227 0
M  V30 1969 H 183.152 2.45429 5.98643 0
M  V30 1970 N 183.284 -1.43765 0.645699 0
M  V30 1971 C 184.7 -1.56509 0.312591 0
M  V30 1972 C 184.9 -1.6307 -1.18365 0
M  V30 1973 O 183.956 -1.58167 -1.96824 0
M  V30 1974 C 185.269 -2.82968 1.01733 0
M  V30 1975 C 186.817 -2.96701 0.996865 0
M  V30 1976 C 187.292 -4.25982 1.68236 0
M  V30 1977 N 188.783 -4.32829 1.64964 0
M  V30 1978 C 189.518 -5.31613 2.14885 0
M  V30 1979 N 189.014 -6.36718 2.73061 0
M  V30 1980 N 190.807 -5.23217 2.05428 0
M  V30 1981 H 182.958 -1.3775 1.61675 0
M  V30 1982 H 185.221 -0.661067 0.679481 0
M  V30 1983 H 184.927 -2.84156 2.0724 0
M  V30 1984 H 184.801 -3.72957 0.564177 0
M  V30 1985 H 187.188 -2.95058 -0.0497719 0
M  V30 1986 H 187.269 -2.08022 1.48865 0
M  V30 1987 H 186.913 -4.28386 2.72852 0
M  V30 1988 H 186.843 -5.13545 1.16529 0
M  V30 1989 H 189.334 -3.57493 1.22503 0
M  V30 1990 H 189.647 -7.08401 3.08848 0
M  V30 1991 H 187.992 -6.37362 2.77118 0
M  V30 1992 H 191.183 -4.40019 1.59689 0
M  V30 1993 H 191.356 -6.00045 2.44643 0
M  V30 1994 N 184.763 -0.387143 -1.52771 0
M  V30 1995 C 186.01 0.195735 -2.01552 0
M  V30 1996 C 186.338 1.46995 -1.27369 0
M  V30 1997 O 185.593 1.92325 -0.361879 0
M  V30 1998 C 185.892 0.512209 -3.53711 0
M  V30 1999 C 185.558 -0.670202 -4.45891 0
M  V30 2000 C 184.22 -0.994586 -4.70809 0
M  V30 2001 C 186.572 -1.46134 -5.00294 0
M  V30 2002 C 183.9 -2.11169 -5.4738 0
M  V30 2003 C 186.252 -2.56903 -5.78086 0
M  V30 2004 C 184.916 -2.89852 -6.01284 0
M  V30 2005 H 184.186 0.0716246 -0.73753 0
M  V30 2006 H 186.833 -0.524046 -1.8419 0
M  V30 2007 H 185.138 1.31329 -3.69134 0
M  V30 2008 H 186.835 0.975804 -3.88946 0
M  V30 2009 H 183.425 -0.407366 -4.2666 0
M  V30 2010 H 187.609 -1.22397 -4.80971 0
M  V30 2011 H 182.865 -2.3707 -5.63567 0
M  V30 2012 H 187.039 -3.18608 -6.19243 0
M  V30 2013 H 184.666 -3.76533 -6.60399 0
M  V30 2014 N 186.241 1.57166 -0.116904 0
M  V30 2015 C 187.171 2.18222 0.830759 0
M  V30 2016 C 188.152 1.12167 1.27877 0
M  V30 2017 O 189.337 1.40394 1.34176 0
M  V30 2018 C 186.467 2.77996 2.08172 0
M  V30 2019 C 185.421 3.89614 1.77157 0
M  V30 2020 C 184.747 4.36187 3.09265 0
M  V30 2021 C 186.047 5.1181 1.04151 0
M  V30 2022 H 187.741 2.97664 0.321992 0
M  V30 2023 H 185.287 1.4318 0.153434 0
M  V30 2024 H 187.24 3.19366 2.74924 0
M  V30 2025 H 185.964 1.9584 2.6137 0
M  V30 2026 H 184.623 3.48816 1.12796 0
M  V30 2027 H 184.271 3.50893 3.60393 0
M  V30 2028 H 183.971 5.11455 2.89288 0
M  V30 2029 H 185.495 4.80207 3.77139 0
M  V30 2030 H 186.909 5.50214 1.61052 0
M  V30 2031 H 185.306 5.92648 0.942762 0
M  V30 2032 H 186.376 4.84892 0.0279022 0
M  V30 2033 N 187.719 -0.156864 1.56817 0
M  V30 2034 C 189.135 -0.50916 1.5126 0
M  V30 2035 C 189.335 -1.83897 0.823658 0
M  V30 2036 O 188.391 -2.49469 0.390055 0
M  V30 2037 C 189.704 -0.52857 2.96018 0
M  V30 2038 C 191.252 -0.614771 3.06903 0
M  V30 2039 C 191.727 -0.664938 4.53147 0
M  V30 2040 N 193.218 -0.727433 4.57452 0
M  V30 2041 C 193.953 -0.787067 5.67973 0
M  V30 2042 N 193.449 -0.806649 6.88088 0
M  V30 2043 N 195.242 -0.827195 5.5598 0
M  V30 2044 H 187.393 0.714935 2.00006 0
M  V30 2045 H 189.656 0.259526 0.911784 0
M  V30 2046 H 189.362 0.380154 3.49639 0
M  V30 2047 H 189.236 -1.36998 3.51442 0
M  V30 2048 H 191.623 -1.51392 2.53307 0
M  V30 2049 H 191.704 0.253597 2.5454 0
M  V30 2050 H 191.348 0.230011 5.07379 0
M  V30 2051 H 191.278 -1.54966 5.03282 0
M  V30 2052 H 193.769 -0.719998 3.70978 0
M  V30 2053 H 194.082 -0.853727 7.6807 0
M  V30 2054 H 192.427 -0.774687 6.90669 0
M  V30 2055 H 195.618 -0.808998 4.61056 0
M  V30 2056 H 195.791 -0.870206 6.4213 0
M  V30 2057 N 189.197 -1.51736 -0.425897 0
M  V30 2058 C 190.144 -1.73875 -1.51776 0
M  V30 2059 C 191.114 -0.580702 -1.55618 0
M  V30 2060 O 192.299 -0.81641 -1.72451 0
M  V30 2061 C 189.439 -1.88012 -2.89388 0
M  V30 2062 C 188.552 -3.15606 -2.94986 0
M  V30 2063 C 187.687 -3.20271 -4.23793 0
M  V30 2064 C 186.726 -4.42134 -4.23302 0
M  V30 2065 N 185.863 -4.44284 -5.43651 0
M  V30 2066 H 190.703 -2.67071 -1.32201 0
M  V30 2067 H 188.24 -1.32351 -0.642008 0
M  V30 2068 H 190.198 -1.9419 -3.69251 0
M  V30 2069 H 188.828 -0.98213 -3.07496 0
M  V30 2070 H 187.88 -3.18681 -2.07717 0
M  V30 2071 H 189.192 -4.05486 -2.90486 0
M  V30 2072 H 188.346 -3.25428 -5.12036 0
M  V30 2073 H 187.085 -2.28299 -4.30965 0
M  V30 2074 H 186.09 -4.3714 -3.3345 0
M  V30 2075 H 187.315 -5.35382 -4.17783 0
M  V30 2076 H 185.261 -3.55188 -5.51523 0
M  V30 2077 H 185.178 -5.27988 -5.41078 0
M  V30 2078 H 186.446 -4.53649 -6.33895 0
M  V30 2079 N 190.675 0.682077 -1.42076 0
M  V30 2080 C 191.905 1.46844 -1.45329 0
M  V30 2081 C 192.313 1.89102 -0.0609328 0
M  V30 2082 O 191.656 1.58238 0.933082 0
M  V30 2083 C 191.718 2.75375 -2.31104 0
M  V30 2084 C 191.382 2.55238 -3.79081 0
M  V30 2085 C 192.379 2.20309 -4.70914 0
M  V30 2086 C 190.064 2.70459 -4.2327 0
M  V30 2087 C 192.058 2.00859 -6.04925 0
M  V30 2088 C 189.745 2.50624 -5.57343 0
M  V30 2089 C 190.743 2.15876 -6.47986 0
M  V30 2090 O 190.431 1.96227 -7.79583 0
M  V30 2091 H 190.163 0.4586 -0.496651 0
M  V30 2092 H 192.717 0.846131 -1.87162 0
M  V30 2093 H 190.947 3.40061 -1.84107 0
M  V30 2094 H 192.636 3.37231 -2.25898 0
M  V30 2095 H 193.402 2.08153 -4.38061 0
M  V30 2096 H 189.281 2.96485 -3.53012 0
M  V30 2097 H 192.825 1.7366 -6.75639 0
M  V30 2098 H 188.722 2.62375 -5.89771 0
M  V30 2099 H 189.49 2.10883 -7.90867 0
M  V30 2100 N 192.153 1.28127 0.917671 0
M  V30 2101 C 193.378 1.18007 1.70555 0
M  V30 2102 C 193.803 -0.258257 1.86319 0
M  V30 2103 O 193.161 -1.1869 1.37049 0
M  V30 2104 C 193.209 1.87948 3.07746 0
M  V30 2105 O 192.313 1.18427 3.9503 0
M  V30 2106 H 191.654 0.409867 0.522403 0
M  V30 2107 H 194.184 1.69379 1.1477 0
M  V30 2108 H 194.194 1.95701 3.58001 0
M  V30 2109 H 192.869 2.92573 2.95591 0
M  V30 2110 H 191.446 1.18811 3.53466 0
M  V30 2111 N 193.631 -1.12557 1.10312 0
M  V30 2112 C 194.878 -1.84038 0.844759 0
M  V30 2113 C 195.206 -1.84026 -0.629668 0
M  V30 2114 O 194.461 -1.28026 -1.48013 0
M  V30 2115 C 194.76 -3.31462 1.33669 0
M  V30 2116 C 194.426 -3.51647 2.82232 0
M  V30 2117 C 193.088 -3.56864 3.22802 0
M  V30 2118 C 195.44 -3.58867 3.77974 0
M  V30 2119 C 192.768 -3.66844 4.57867 0
M  V30 2120 C 195.12 -3.70375 5.1284 0
M  V30 2121 C 193.784 -3.73848 5.52986 0
M  V30 2122 H 193.054 -0.673444 0.309119 0
M  V30 2123 H 195.701 -1.32824 1.37949 0
M  V30 2124 H 194.006 -3.85091 0.721949 0
M  V30 2125 H 195.703 -3.85236 1.11329 0
M  V30 2126 H 192.293 -3.48249 2.49842 0
M  V30 2127 H 196.477 -3.54107 3.47738 0
M  V30 2128 H 191.733 -3.67804 4.88396 0
M  V30 2129 H 195.907 -3.74904 5.86873 0
M  V30 2130 H 193.534 -3.81333 6.57639 0
M  V30 2131 N 195.109 -0.891671 -1.2995 0
M  V30 2132 C 196.386 -0.433307 -1.9074 0
M  V30 2133 C 196.766 1.08646 -1.80995 0
M  V30 2134 O 196.114 1.92476 -1.23147 0
M  V30 2135 C 196.324 -0.938895 -3.36134 0
M  V30 2136 C 197.672 -0.977829 -4.13187 0
M  V30 2137 O 198.696 -0.886015 -3.45005 0
M  V30 2138 O 197.555 -1.11453 -5.35015 0
M  V30 2139 H 194.649 -0.133699 -0.816121 0
M  V30 2140 H 197.195 -0.981011 -1.38471 0
M  V30 2141 H 195.967 -1.98281 -3.37343 0
M  V30 2142 H 195.59 -0.37074 -3.95868 0
M  V30 2143 N 196.587 1.43421 -0.653314 0
M  V30 2144 C 197.835 2.01414 -0.166415 0
M  V30 2145 C 198.156 1.51803 1.22397 0
M  V30 2146 O 197.426 0.730693 1.81763 0
M  V30 2147 H 196.006 0.744703 -0.0585319 0
M  V30 2148 H 198.668 1.75629 -0.845003 0
M  V30 2149 H 197.764 3.11734 -0.151111 0
M  V30 2150 N 198.065 0.39524 1.52563 0
M  V30 2151 C 198.995 -0.428384 2.29537 0
M  V30 2152 C 199.976 -1.05831 1.33169 0
M  V30 2153 O 201.161 -1.06995 1.62067 0
M  V30 2154 C 198.291 -1.55274 3.10656 0
M  V30 2155 C 197.245 -1.04855 4.14957 0
M  V30 2156 C 196.571 -2.26543 4.84337 0
M  V30 2157 C 197.871 -0.112324 5.22179 0
M  V30 2158 H 199.565 0.213867 2.98635 0
M  V30 2159 H 197.111 0.104298 1.43622 0
M  V30 2160 H 199.064 -2.1358 3.63265 0
M  V30 2161 H 197.788 -2.22266 2.39302 0
M  V30 2162 H 196.447 -0.487985 3.63338 0
M  V30 2163 H 196.095 -2.92059 4.09525 0
M  V30 2164 H 195.795 -1.93466 5.54837 0
M  V30 2165 H 197.319 -2.85481 5.39753 0
M  V30 2166 H 198.733 -0.603752 5.70112 0
M  V30 2167 H 197.13 0.128968 5.99961 0
M  V30 2168 H 198.2 0.837052 4.77621 0
M  V30 2169 N 199.544 -1.57102 0.125237 0
M  V30 2170 C 200.821 -1.86953 -0.575142 0
M  V30 2171 C 201.201 -1.02749 -1.84407 0
M  V30 2172 O 200.549 -0.108144 -2.28244 0
M  V30 2173 C 200.759 -3.38198 -0.861583 0
M  V30 2174 C 202.107 -4.06937 -1.21192 0
M  V30 2175 O 203.131 -3.43252 -0.951645 0
M  V30 2176 O 201.99 -5.19364 -1.70068 0
M  V30 2177 H 199.084 -0.774147 -0.290906 0
M  V30 2178 H 201.63 -1.68942 0.160211 0
M  V30 2179 H 200.402 -3.91282 0.0373647 0
M  V30 2180 H 200.025 -3.61661 -1.65188 0
M  V30 2181 N 201.022 0.148545 -1.56898 0
M  V30 2182 C 201.952 1.18524 -2.01182 0
M  V30 2183 C 202.933 1.4489 -0.891123 0
M  V30 2184 O 204.118 1.55836 -1.15882 0
M  V30 2185 C 201.248 2.51879 -2.39112 0
M  V30 2186 C 200.202 2.40038 -3.54353 0
M  V30 2187 C 199.528 3.78089 -3.78091 0
M  V30 2188 C 200.828 1.88577 -4.87069 0
M  V30 2189 H 202.522 0.817029 -2.88036 0
M  V30 2190 H 200.068 0.391575 -1.38574 0
M  V30 2191 H 202.021 3.24627 -2.68692 0
M  V30 2192 H 200.745 2.90532 -1.49193 0
M  V30 2193 H 199.404 1.69742 -3.24936 0
M  V30 2194 H 199.052 4.14175 -2.85426 0
M  V30 2195 H 198.752 3.71028 -4.55645 0
M  V30 2196 H 200.276 4.52387 -4.10095 0
M  V30 2197 H 201.69 2.51117 -5.15377 0
M  V30 2198 H 200.087 1.9241 -5.68417 0
M  V30 2199 H 201.157 0.84136 -4.77545 0
M  V30 2200 N 202.5 1.5196 0.417844 0
M  V30 2201 C 203.777 1.56146 1.17803 0
M  V30 2202 C 204.157 0.337275 2.08388 0
M  V30 2203 O 203.505 -0.676447 2.18258 0
M  V30 2204 C 203.715 2.88566 1.96293 0
M  V30 2205 C 205.063 3.41244 2.52662 0
M  V30 2206 O 206.087 2.90247 2.06483 0
M  V30 2207 O 204.946 4.30273 3.36938 0
M  V30 2208 H 202.04 0.628598 0.537395 0
M  V30 2209 H 204.586 1.64283 0.425331 0
M  V30 2210 H 203.358 3.69116 1.2988 0
M  V30 2211 H 202.981 2.83681 2.78587 0
M  V30 2212 N 203.978 -0.674533 1.42435 0
M  V30 2213 C 205.224 -1.43521 1.4413 0
M  V30 2214 C 205.579 -1.92316 0.0567773 0
M  V30 2215 O 204.872 -1.68008 -0.921076 0
M  V30 2216 C 205.066 -2.64767 2.40069 0
M  V30 2217 C 204.895 -2.27836 3.87713 0
M  V30 2218 C 203.665 -2.17183 4.56245 0
M  V30 2219 C 205.863 -1.89466 4.78129 0
M  V30 2220 N 203.845 -1.73358 5.88915 0
M  V30 2221 C 205.216 -1.56561 5.99907 0
M  V30 2222 C 207.271 -1.7646 4.65582 0
M  V30 2223 C 205.974 -1.11957 7.10534 0
M  V30 2224 C 208 -1.3326 5.76191 0
M  V30 2225 C 207.362 -1.0128 6.97081 0
M  V30 2226 H 203.461 -0.521656 0.582579 0
M  V30 2227 H 206.045 -0.778381 1.78464 0
M  V30 2228 H 204.216 -3.28139 2.07796 0
M  V30 2229 H 205.948 -3.3136 2.32342 0
M  V30 2230 H 202.703 -2.3626 4.10461 0
M  V30 2231 H 203.127 -1.53867 6.59283 0
M  V30 2232 H 207.769 -1.99831 3.72595 0
M  V30 2233 H 205.487 -0.873318 8.03367 0
M  V30 2234 H 209.073 -1.23717 5.68494 0
M  V30 2235 H 207.953 -0.683597 7.81215 0
M  V30 2236 N 205.456 -1.28612 -0.910864 0
M  V30 2237 C 206.366 -1.14643 -2.0468 0
M  V30 2238 C 207.382 -0.0723121 -1.7385 0
M  V30 2239 O 208.558 -0.282178 -1.99413 0
M  V30 2240 C 205.623 -0.812561 -3.37044 0
M  V30 2241 C 204.684 -1.96935 -3.81465 0
M  V30 2242 C 203.917 -1.65131 -5.07511 0
M  V30 2243 O 204.14 -0.567013 -5.67575 0
M  V30 2244 O 203.074 -2.49585 -5.47714 0
M  V30 2245 H 206.9 -2.1001 -2.19384 0
M  V30 2246 H 204.485 -1.07958 -1.03274 0
M  V30 2247 H 206.367 -0.640441 -4.16505 0
M  V30 2248 H 205.042 0.111426 -3.23508 0
M  V30 2249 H 203.949 -2.19664 -3.02818 0
M  V30 2250 H 205.282 -2.87414 -3.99567 0
M  V30 2251 N 206.934 1.1197 -1.10907 0
M  V30 2252 C 208.164 1.8713 -0.875553 0
M  V30 2253 C 208.572 1.8016 0.577843 0
M  V30 2254 O 207.915 1.17699 1.41042 0
M  V30 2255 C 207.977 3.37005 -1.2517 0
M  V30 2256 C 207.641 3.67748 -2.71313 0
M  V30 2257 C 208.638 3.65698 -3.69542 0
M  V30 2258 C 206.323 3.96928 -3.07821 0
M  V30 2259 C 208.317 3.92395 -5.023 0
M  V30 2260 C 206.004 4.23284 -4.40765 0
M  V30 2261 C 207.002 4.21005 -5.37814 0
M  V30 2262 O 206.69 4.46704 -6.68364 0
M  V30 2263 H 206.422 0.598786 -0.313737 0
M  V30 2264 H 208.976 1.42568 -1.47863 0
M  V30 2265 H 207.206 3.82146 -0.591741 0
M  V30 2266 H 208.895 3.93519 -0.994877 0
M  V30 2267 H 209.661 3.43211 -3.42682 0
M  V30 2268 H 205.54 3.97841 -2.32902 0
M  V30 2269 H 209.084 3.90531 -5.78041 0
M  V30 2270 H 204.981 4.45246 -4.67361 0
M  V30 2271 H 205.749 4.64299 -6.74069 0
M  V30 2272 N 208.412 0.89855 1.29475 0
M  V30 2273 C 209.823 0.572537 1.77705 0
M  V30 2274 C 210.174 -0.911778 1.73727 0
M  V30 2275 O 209.299 -1.71288 1.32247 0
M  V30 2276 C 209.894 1.03252 3.22683 0
M  V30 2277 C 208.453 0.757687 3.68695 0
M  V30 2278 C 207.6 1.20787 2.49612 0
M  V30 2279 H 210.551 1.08139 1.16153 0
M  V30 2280 H 210.572 0.367307 3.78723 0
M  V30 2281 H 210.084 2.11285 3.25546 0
M  V30 2282 H 208.185 -0.310079 3.71308 0
M  V30 2283 H 208.298 1.35476 4.59547 0
M  V30 2284 H 206.662 0.626888 2.46865 0
M  V30 2285 H 207.445 2.29622 2.55203 0
M  V30 2286 N 209.89 -1.43072 0.660911 0
M  V30 2287 C 211.138 -2.01323 0.177094 0
M  V30 2288 C 211.459 -1.5245 -1.2159 0
M  V30 2289 O 210.729 -0.740322 -1.81373 0
M  V30 2290 H 209.309 -0.744382 0.0624804 0
M  V30 2291 H 211.971 -1.75179 0.854305 0
M  V30 2292 H 211.067 -3.11649 0.167641 0
M  V30 2293 N 211.368 -0.403325 -1.52352 0
M  V30 2294 C 212.593 0.176499 -2.06648 0
M  V30 2295 C 213.018 1.38577 -1.27193 0
M  V30 2296 O 212.376 1.7879 -0.300637 0
M  V30 2297 C 212.424 0.511061 -3.5696 0
M  V30 2298 O 211.528 1.60294 -3.79973 0
M  V30 2299 H 210.869 0.0167337 -0.663789 0
M  V30 2300 H 213.399 -0.574848 -1.96359 0
M  V30 2301 H 213.409 0.771362 -4.00642 0
M  V30 2302 H 212.084 -0.37296 -4.14224 0
M  V30 2303 H 210.661 1.33526 -3.48174 0
M  V30 2304 N 212.846 1.57033 -0.133567 0
M  V30 2305 C 213.778 2.13176 0.841944 0
M  V30 2306 C 214.791 1.07794 1.22001 0
M  V30 2307 O 215.98 1.35117 1.16643 0
M  V30 2308 C 213.08 2.62847 2.13926 0
M  V30 2309 C 212.253 3.92486 1.93064 0
M  V30 2310 C 211.312 4.27605 3.0666 0
M  V30 2311 O 210.338 4.96168 2.78937 0
M  V30 2312 N 211.54 3.861 4.33483 0
M  V30 2313 H 214.305 2.97503 0.362192 0
M  V30 2314 H 211.866 1.61821 0.05042 0
M  V30 2315 H 213.858 2.83363 2.88942 0
M  V30 2316 H 212.428 1.83319 2.53205 0
M  V30 2317 H 211.648 3.80732 1.02159 0
M  V30 2318 H 212.936 4.77225 1.76447 0
M  V30 2319 H 212.334 3.30828 4.58878 0
M  V30 2320 H 210.891 4.11694 5.05323 0
M  V30 2321 N 214.325 -0.140222 1.56975 0
M  V30 2322 C 215.573 -0.850005 1.83356 0
M  V30 2323 C 215.894 -1.81399 0.71551 0
M  V30 2324 O 215.164 -1.94136 -0.262294 0
M  V30 2325 H 213.744 -0.316886 0.676456 0
M  V30 2326 H 216.406 -0.132608 1.94448 0
M  V30 2327 H 215.502 -1.40814 2.78528 0
M  V30 2328 N 215.803 -1.52179 -0.40978 0
M  V30 2329 C 217.028 -1.70347 -1.18308 0
M  V30 2330 C 217.453 -0.411887 -1.83535 0
M  V30 2331 O 216.811 0.630587 -1.6998 0
M  V30 2332 C 216.859 -2.83977 -2.22238 0
M  V30 2333 O 215.963 -2.495 -3.28365 0
M  V30 2334 H 215.304 -0.567103 -0.345384 0
M  V30 2335 H 217.834 -1.98879 -0.480445 0
M  V30 2336 H 217.844 -3.0887 -2.66577 0
M  V30 2337 H 216.519 -3.77685 -1.74146 0
M  V30 2338 H 215.096 -2.35277 -2.89308 0
M  V30 2339 N 217.281 0.66697 -1.42791 0
M  V30 2340 C 218.692 1.2478 -1.38877 0
M  V30 2341 C 219.043 1.96012 -0.0859426 0
M  V30 2342 O 218.168 2.00463 0.815081 0
M  V30 2343 C 218.763 2.26938 -2.51564 0
M  V30 2344 C 217.322 2.80529 -2.50959 0
M  V30 2345 C 216.469 1.54965 -2.29959 0
M  V30 2346 H 219.42 0.459853 -1.51892 0
M  V30 2347 H 219.441 3.08834 -2.22265 0
M  V30 2348 H 218.953 1.75065 -3.46372 0
M  V30 2349 H 217.054 3.36502 -1.59991 0
M  V30 2350 H 217.167 3.29012 -3.48265 0
M  V30 2351 H 215.531 1.81817 -1.78366 0
M  V30 2352 H 216.314 1.05047 -3.26833 0
M  V30 2353 N 218.759 1.29093 0.90403 0
M  V30 2354 C 219.722 1.1386 1.98919 0
M  V30 2355 C 220.722 0.0753457 1.60623 0
M  V30 2356 O 221.912 0.321931 1.71199 0
M  V30 2357 C 219.044 0.740198 3.32767 0
M  V30 2358 H 220.237 2.10246 2.13861 0
M  V30 2359 H 217.79 1.12218 1.08797 0
M  V30 2360 H 218.525 -0.223997 3.23525 0
M  V30 2361 H 218.31 1.50838 3.61926 0
M  V30 2362 H 219.8 0.656546 4.12407 0
M  V30 2363 N 220.237 -1.11381 1.11499 0
M  V30 2364 C 221.483 -1.83403 0.865512 0
M  V30 2365 C 221.816 -1.84459 -0.607329 0
M  V30 2366 O 221.091 -1.29811 -1.44842 0
M  V30 2367 C 221.374 -3.30552 1.42855 0
M  V30 2368 C 221.227 -3.37886 2.96906 0
M  V30 2369 C 222.546 -4.26643 1.08 0
M  V30 2370 H 219.665 -0.665879 0.31587 0
M  V30 2371 H 222.307 -1.30601 1.37998 0
M  V30 2372 H 220.457 -3.75648 0.990985 0
M  V30 2373 H 222.129 -3.01343 3.49271 0
M  V30 2374 H 220.372 -2.78088 3.32941 0
M  V30 2375 H 221.043 -4.41458 3.31389 0
M  V30 2376 H 223.519 -3.89729 1.45775 0
M  V30 2377 H 222.395 -5.27986 1.50072 0
M  V30 2378 H 222.656 -4.42099 -0.00915037 0
M  V30 2379 N 221.715 -0.905404 -1.28997 0
M  V30 2380 C 222.992 -0.453513 -1.9027 0
M  V30 2381 C 223.372 1.06721 -1.82137 0
M  V30 2382 O 222.72 1.91159 -1.25182 0
M  V30 2383 C 222.93 -0.974494 -3.35119 0
M  V30 2384 C 224.278 -1.0216 -4.12127 0
M  V30 2385 O 225.302 -0.922557 -3.44046 0
M  V30 2386 O 224.161 -1.17121 -5.33802 0
M  V30 2387 H 221.255 -0.142347 -0.814657 0
M  V30 2388 H 223.801 -0.995642 -1.37423 0
M  V30 2389 H 222.573 -2.01848 -3.35221 0
M  V30 2390 H 222.196 -0.412706 -3.95452 0
M  V30 2391 N 223.193 1.4272 -0.668489 0
M  V30 2392 C 224.14 2.30796 0.0137489 0
M  V30 2393 C 225.11 1.4561 0.799177 0
M  V30 2394 O 226.295 1.74453 0.772702 0
M  V30 2395 C 223.435 3.31377 0.963507 0
M  V30 2396 C 222.548 4.31655 0.172569 0
M  V30 2397 C 221.683 5.19312 1.1175 0
M  V30 2398 C 220.722 6.11274 0.317886 0
M  V30 2399 N 219.859 6.91504 1.2152 0
M  V30 2400 H 224.699 2.88585 -0.743161 0
M  V30 2401 H 222.236 1.42154 -0.378226 0
M  V30 2402 H 224.194 3.88214 1.52792 0
M  V30 2403 H 222.824 2.75202 1.68712 0
M  V30 2404 H 221.876 3.76988 -0.508374 0
M  V30 2405 H 223.188 4.96779 -0.448527 0
M  V30 2406 H 222.342 5.80851 1.75206 0
M  V30 2407 H 221.081 4.5435 1.77249 0
M  V30 2408 H 220.086 5.48809 -0.329918 0
M  V30 2409 H 221.311 6.78283 -0.332917 0
M  V30 2410 H 219.257 6.29176 1.85671 0
M  V30 2411 H 219.174 7.53209 0.649036 0
M  V30 2412 H 220.442 7.57535 1.83742 0
M  V30 2413 N 224.671 0.411399 1.52136 0
M  V30 2414 C 225.581 -0.419774 2.30814 0
M  V30 2415 C 226.597 -1.0515 1.38634 0
M  V30 2416 O 227.773 -1.05252 1.71709 0
M  V30 2417 C 224.838 -1.52019 3.11594 0
M  V30 2418 C 223.899 -0.91129 4.19516 0
M  V30 2419 C 223.132 -1.95927 4.96436 0
M  V30 2420 O 223.355 -3.17775 4.73683 0
M  V30 2421 O 222.289 -1.56423 5.81219 0
M  V30 2422 H 226.115 0.221805 3.02889 0
M  V30 2423 H 223.7 0.174547 1.48377 0
M  V30 2424 H 225.582 -2.15898 3.61892 0
M  V30 2425 H 224.257 -2.14633 2.42311 0
M  V30 2426 H 223.164 -0.235157 3.7336 0
M  V30 2427 H 224.497 -0.32904 4.91099 0
M  V30 2428 N 226.149 -1.5696 0.141893 0
M  V30 2429 C 227.565 -1.58151 -0.21456 0
M  V30 2430 C 227.765 -1.1559 -1.65049 0
M  V30 2431 O 226.821 -0.853832 -2.37626 0
M  V30 2432 C 228.134 -3.00674 0.0395576 0
M  V30 2433 C 229.682 -3.1299 -0.0245529 0
M  V30 2434 C 230.157 -4.57554 0.202167 0
M  V30 2435 N 231.648 -4.62961 0.148919 0
M  V30 2436 C 232.383 -5.7262 0.298924 0
M  V30 2437 N 231.879 -6.90947 0.50637 0
M  V30 2438 N 233.672 -5.61601 0.236886 0
M  V30 2439 H 225.823 -1.8292 1.07953 0
M  V30 2440 H 228.086 -0.846425 0.42693 0
M  V30 2441 H 227.792 -3.36183 1.03315 0
M  V30 2442 H 227.666 -3.70981 -0.682143 0
M  V30 2443 H 230.053 -2.77326 -1.00869 0
M  V30 2444 H 230.134 -2.4518 0.729396 0
M  V30 2445 H 229.778 -4.93922 1.18338 0
M  V30 2446 H 229.708 -5.23484 -0.572044 0
M  V30 2447 H 232.199 -3.77899 -0.00697015 0
M  V30 2448 H 232.512 -7.7038 0.611076 0
M  V30 2449 H 230.857 -6.92878 0.542628 0
M  V30 2450 H 234.048 -4.68039 0.0756209 0
M  V30 2451 H 234.221 -6.47015 0.357227 0
M  V30 2452 N 227.627 0.131896 -1.57047 0
M  V30 2453 C 228.874 0.841932 -1.84168 0
M  V30 2454 C 229.202 1.8048 -0.725066 0
M  V30 2455 O 228.457 1.93618 0.284692 0
M  V30 2456 C 228.756 1.63703 -3.17704 0
M  V30 2457 C 228.422 0.81961 -4.43388 0
M  V30 2458 C 227.084 0.594148 -4.77518 0
M  V30 2459 C 229.436 0.248977 -5.20605 0
M  V30 2460 C 226.764 -0.212409 -5.86315 0
M  V30 2461 C 229.116 -0.544701 -6.30251 0
M  V30 2462 C 227.78 -0.780599 -6.6292 0
M  V30 2463 H 227.05 0.308085 -0.673917 0
M  V30 2464 H 229.697 0.104867 -1.91213 0
M  V30 2465 H 228.002 2.44464 -3.06177 0
M  V30 2466 H 229.699 2.19015 -3.35907 0
M  V30 2467 H 226.289 1.00542 -4.16641 0
M  V30 2468 H 230.473 0.410408 -4.946 0
M  V30 2469 H 225.729 -0.404524 -6.1006 0
M  V30 2470 H 229.903 -0.993922 -6.89271 0
M  V30 2471 H 227.53 -1.40742 -7.47058 0
M  V30 2472 N 229.106 1.52395 0.401703 0
M  V30 2473 C 230.334 1.70676 1.16949 0
M  V30 2474 C 230.749 0.419503 1.8408 0
M  V30 2475 O 230.106 -0.605061 1.72178 0
M  V30 2476 C 230.157 2.84753 2.22706 0
M  V30 2477 O 229.878 4.08495 1.58314 0
M  V30 2478 C 231.379 3.14608 3.12309 0
M  V30 2479 H 228.599 0.571787 0.351142 0
M  V30 2480 H 231.143 1.98987 0.471652 0
M  V30 2481 H 229.298 2.58941 2.88147 0
M  V30 2482 H 229.712 4.72117 2.28485 0
M  V30 2483 H 231.186 3.97923 3.82572 0
M  V30 2484 H 231.663 2.28464 3.75101 0
M  V30 2485 H 232.269 3.42212 2.52529 0
M  V30 2486 N 230.584 -0.659388 1.43143 0
M  V30 2487 C 231.812 -1.44723 1.47861 0
M  V30 2488 C 232.227 -1.88563 0.0945886 0
M  V30 2489 O 231.584 -1.59108 -0.893915 0
M  V30 2490 C 231.635 -2.68627 2.41913 0
M  V30 2491 O 231.356 -2.26623 3.74932 0
M  V30 2492 C 232.857 -3.62045 2.55809 0
M  V30 2493 H 230.077 -0.444801 0.502387 0
M  V30 2494 H 232.621 -0.808916 1.87821 0
M  V30 2495 H 230.776 -3.28613 2.05164 0
M  V30 2496 H 231.19 -3.06745 4.2545 0
M  V30 2497 H 232.664 -4.45666 3.25708 0
M  V30 2498 H 233.141 -4.08981 1.60099 0
M  V30 2499 H 233.747 -3.07944 2.93344 0
M  V30 2500 N 232.062 -1.29571 -0.897171 0
M  V30 2501 C 232.992 -1.17473 -2.01798 0
M  V30 2502 C 233.973 -0.068323 -1.69963 0
M  V30 2503 O 235.158 -0.248239 -1.92607 0
M  V30 2504 C 232.288 -0.853099 -3.36659 0
M  V30 2505 C 231.242 -1.9161 -3.82713 0
M  V30 2506 C 230.568 -1.44773 -5.14728 0
M  V30 2507 C 231.868 -3.32535 -4.02763 0
M  V30 2508 H 233.562 -2.11237 -2.12177 0
M  V30 2509 H 231.108 -1.01699 -1.01948 0
M  V30 2510 H 233.061 -0.755165 -4.14578 0
M  V30 2511 H 231.785 0.120236 -3.26379 0
M  V30 2512 H 230.444 -2.00346 -3.07013 0
M  V30 2513 H 230.092 -0.462995 -5.00865 0
M  V30 2514 H 229.792 -2.15865 -5.46513 0
M  V30 2515 H 231.316 -1.36334 -5.95185 0
M  V30 2516 H 232.73 -3.26626 -4.71156 0
M  V30 2517 H 231.127 -4.01607 -4.45905 0
M  V30 2518 H 232.197 -3.75326 -3.07016 0
M  V30 2519 N 233.54 1.10788 -1.12088 0
M  V30 2520 C 234.786 1.82942 -0.875226 0
M  V30 2521 C 235.119 1.84779 0.597538 0
M  V30 2522 O 234.394 1.30578 1.44152 0
M  V30 2523 C 234.677 3.29789 -1.44606 0
M  V30 2524 C 234.53 3.36307 -2.98693 0
M  V30 2525 C 235.849 4.26064 -1.10261 0
M  V30 2526 H 232.968 0.664195 -0.319397 0
M  V30 2527 H 235.61 1.29867 -1.38689 0
M  V30 2528 H 233.76 3.75118 -1.01089 0
M  V30 2529 H 235.432 2.99487 -3.50864 0
M  V30 2530 H 233.675 2.76318 -3.34411 0
M  V30 2531 H 234.346 4.39694 -3.33726 0
M  V30 2532 H 236.822 3.88951 -1.4784 0
M  V30 2533 H 235.698 5.27183 -1.52869 0
M  V30 2534 H 235.959 4.42098 -0.0142953 0
M  V30 2535 N 235.018 0.912232 1.28515 0
M  V30 2536 C 235.95 0.35676 2.26406 0
M  V30 2537 C 236.963 -0.503933 1.54804 0
M  V30 2538 O 238.152 -0.319059 1.75625 0
M  V30 2539 C 235.252 -0.508825 3.35058 0
M  V30 2540 C 234.425 0.329007 4.36161 0
M  V30 2541 C 233.484 -0.471422 5.24084 0
M  V30 2542 O 232.51 0.115482 5.69083 0
M  V30 2543 N 233.712 -1.77479 5.52704 0
M  V30 2544 H 236.477 1.19818 2.74707 0
M  V30 2545 H 234.038 0.778022 1.4198 0
M  V30 2546 H 236.03 -1.051 3.90815 0
M  V30 2547 H 234.6 -1.25095 2.86478 0
M  V30 2548 H 233.82 1.05256 3.79888 0
M  V30 2549 H 235.108 0.90234 5.00735 0
M  V30 2550 H 234.506 -2.27417 5.17975 0
M  V30 2551 H 233.063 -2.26382 6.11224 0
M  V30 2552 N 236.496 -1.42363 0.676048 0
M  V30 2553 C 237.773 -1.95183 0.127726 0
M  V30 2554 C 238.153 -1.61641 -1.35777 0
M  V30 2555 O 237.501 -0.913216 -2.09458 0
M  V30 2556 C 237.711 -3.46721 0.398199 0
M  V30 2557 C 239.059 -4.23427 0.315383 0
M  V30 2558 O 240.083 -3.54649 0.332016 0
M  V30 2559 O 238.942 -5.45888 0.25865 0
M  V30 2560 H 236.036 -0.826992 0.00359427 0
M  V30 2561 H 238.582 -1.52184 0.750864 0
M  V30 2562 H 237.354 -3.64344 1.4272 0
M  V30 2563 H 236.977 -3.96769 -0.256885 0
M  V30 2564 N 237.974 -0.419461 -1.51915 0
M  V30 2565 C 238.904 0.391813 -2.30189 0
M  V30 2566 C 239.885 1.03699 -1.34836 0
M  V30 2567 O 241.07 1.04403 -1.63748 0
M  V30 2568 C 238.2 1.50312 -3.13087 0
M  V30 2569 C 237.154 0.9824 -4.16573 0
M  V30 2570 C 236.48 2.18809 -4.8788 0
M  V30 2571 C 237.78 0.0292356 -5.22292 0
M  V30 2572 H 239.474 -0.26135 -2.98257 0
M  V30 2573 H 237.02 -0.127134 -1.43438 0
M  V30 2574 H 238.973 2.07773 -3.66617 0
M  V30 2575 H 237.697 2.18431 -2.42807 0
M  V30 2576 H 236.356 0.430119 -3.64068 0
M  V30 2577 H 236.004 2.85507 -4.14119 0
M  V30 2578 H 235.704 1.84615 -5.57845 0
M  V30 2579 H 237.228 2.76858 -5.44226 0
M  V30 2580 H 238.642 0.512976 -5.71 0
M  V30 2581 H 237.039 -0.2244 -5.9968 0
M  V30 2582 H 238.109 -0.912931 -4.76228 0
M  V30 2583 N 239.452 1.56882 -0.150215 0
M  V30 2584 C 240.415 2.1573 0.774157 0
M  V30 2585 C 241.415 1.0999 1.17298 0
M  V30 2586 O 242.605 1.35613 1.09338 0
M  V30 2587 C 239.737 2.72302 2.05096 0
M  V30 2588 H 240.93 2.98752 0.262201 0
M  V30 2589 H 238.483 1.55985 0.099248 0
M  V30 2590 H 239.218 1.92956 2.6065 0
M  V30 2591 H 239.003 3.49665 1.77416 0
M  V30 2592 H 240.493 3.17632 2.71109 0
M  V30 2593 N 240.93 -0.123565 1.57115 0
M  V30 2594 C 241.878 -1.17082 2.00984 0
M  V30 2595 C 242.872 -1.43136 0.906009 0
M  V30 2596 O 244.078 -1.43152 1.09121 0
M  V30 2597 H 240.453 -0.394653 0.64012 0
M  V30 2598 H 242.424 -0.774292 2.88179 0
M  V30 2599 C 241.173 -2.49057 2.42623 0
M  V30 2600 H 240.496 -2.29846 3.27125 0
M  V30 2601 H 241.936 -3.20906 2.7712 0
M  V30 2602 C 240.395 -3.11305 1.28805 0
M  V30 2603 O 240.925 -3.97171 0.60153 0
M  V30 2604 N 239.131 -2.71111 1.04628 0
M  V30 2605 H 238.678 -2.01382 1.60634 0
M  V30 2606 H 238.636 -3.1309 0.286685 0
M  V30 2607 N 242.408 -1.52605 -0.393616 0
M  V30 2608 C 243.371 -1.76415 -1.46323 0
M  V30 2609 C 244.371 -0.634126 -1.47768 0
M  V30 2610 O 245.561 -0.902142 -1.4902 0
M  V30 2611 C 242.693 -1.8607 -2.85641 0
M  V30 2612 H 243.886 -2.71916 -1.26498 0
M  V30 2613 H 241.439 -1.43257 -0.625073 0
M  V30 2614 H 242.174 -0.925378 -3.10817 0
M  V30 2615 H 241.959 -2.68235 -2.85993 0
M  V30 2616 H 243.449 -2.06179 -3.63153 0
M  V30 2617 N 243.887 0.651787 -1.4349 0
M  V30 2618 C 245.134 1.41167 -1.45183 0
M  V30 2619 C 245.462 1.94349 -0.0766601 0
M  V30 2620 O 244.717 1.72804 0.918555 0
M  V30 2621 C 245.016 2.60914 -2.44251 0
M  V30 2622 C 244.682 2.26142 -3.9009 0
M  V30 2623 C 243.344 2.16371 -4.2981 0
M  V30 2624 C 245.696 1.98334 -4.81989 0
M  V30 2625 C 243.024 1.7695 -5.5938 0
M  V30 2626 C 245.376 1.6041 -6.11924 0
M  V30 2627 C 244.04 1.49166 -6.5062 0
M  V30 2628 H 243.31 0.516566 -0.531263 0
M  V30 2629 H 245.957 0.741099 -1.76579 0
M  V30 2630 H 244.262 3.3311 -2.06265 0
M  V30 2631 H 245.959 3.19127 -2.42815 0
M  V30 2632 H 242.549 2.34658 -3.58655 0
M  V30 2633 H 246.733 2.04803 -4.52072 0
M  V30 2634 H 241.989 1.66831 -5.88198 0
M  V30 2635 H 246.163 1.37925 -6.82605 0
M  V30 2636 H 243.79 1.1839 -7.50925 0
M  V30 2637 N 245.365 1.30045 0.890287 0
M  V30 2638 C 246.297 1.11786 2.00091 0
M  V30 2639 C 247.31 0.0626307 1.62679 0
M  V30 2640 O 248.499 0.308112 1.75821 0
M  V30 2641 C 245.599 0.681527 3.31977 0
M  V30 2642 C 244.772 1.81735 3.97858 0
M  V30 2643 C 243.831 1.37045 5.08041 0
M  V30 2644 O 242.857 2.07677 5.29961 0
M  V30 2645 N 244.059 0.246525 5.79976 0
M  V30 2646 H 246.824 2.07441 2.16306 0
M  V30 2647 H 244.385 1.2211 1.06305 0
M  V30 2648 H 246.377 0.365675 4.03045 0
M  V30 2649 H 244.947 -0.182828 3.12065 0
M  V30 2650 H 244.167 2.30159 3.20032 0
M  V30 2651 H 245.455 2.57865 4.38615 0
M  V30 2652 H 244.853 -0.34215 5.64664 0
M  V30 2653 H 243.41 -0.00990438 6.51799 0
M  V30 2654 N 246.843 -1.10192 1.12674 0
M  V30 2655 C 247.775 -2.16418 0.754701 0
M  V30 2656 C 248.788 -1.61309 -0.21986 0
M  V30 2657 O 249.977 -1.785 -0.000826841 0
M  V30 2658 C 247.077 -3.38762 0.096698 0
M  V30 2659 C 246.25 -4.23307 1.10136 0
M  V30 2660 C 245.309 -5.24092 0.470513 0
M  V30 2661 O 244.335 -5.57906 1.12824 0
M  V30 2662 N 245.537 -5.75491 -0.760948 0
M  V30 2663 H 248.302 -2.48943 1.66875 0
M  V30 2664 H 245.863 -1.25834 1.01869 0
M  V30 2665 H 247.855 -4.03291 -0.337384 0
M  V30 2666 H 246.425 -3.04192 -0.720153 0
M  V30 2667 H 245.645 -3.55036 1.71299 0
M  V30 2668 H 246.933 -4.76624 1.78064 0
M  V30 2669 H 246.331 -5.50222 -1.31424 0
M  V30 2670 H 244.888 -6.41792 -1.13781 0
M  V30 2671 N 248.321 -0.919034 -1.28029 0
M  V30 2672 C 249.231 -0.416756 -2.30869 0
M  V30 2673 C 250.247 0.498235 -1.66714 0
M  V30 2674 O 251.423 0.383144 -1.97722 0
M  V30 2675 C 248.488 0.330274 -3.45123 0
M  V30 2676 C 247.549 -0.618578 -4.2482 0
M  V30 2677 C 246.782 0.0928959 -5.33619 0
M  V30 2678 O 247.005 1.31375 -5.55065 0
M  V30 2679 O 245.939 -0.574499 -5.99152 0
M  V30 2680 H 249.765 -1.27043 -2.75851 0
M  V30 2681 H 247.35 -0.684052 -1.3282 0
M  V30 2682 H 249.232 0.751972 -4.14636 0
M  V30 2683 H 247.907 1.1597 -3.02213 0
M  V30 2684 H 246.814 -1.08978 -3.57875 0
M  V30 2685 H 248.147 -1.41497 -4.71423 0
M  V30 2686 N 249.799 1.42003 -0.683588 0
M  V30 2687 C 250.762 2.29191 -0.0198243 0
M  V30 2688 C 251.762 1.43773 0.72013 0
M  V30 2689 O 252.952 1.65061 0.556815 0
M  V30 2690 C 250.084 3.26435 0.982487 0
M  V30 2691 H 251.277 2.8938 -0.787345 0
M  V30 2692 H 248.83 1.49789 -0.446418 0
M  V30 2693 H 249.565 2.71203 1.77819 0
M  V30 2694 H 249.35 3.89449 0.455182 0
M  V30 2695 H 250.84 3.918 1.44508 0
M  V30 2696 N 251.277 0.427512 1.51691 0
M  V30 2697 C 252.209 -0.424521 2.25234 0
M  V30 2698 C 253.222 -0.994671 1.2888 0
M  V30 2699 O 254.411 -0.890483 1.54702 0
M  V30 2700 C 251.511 -1.60479 2.98496 0
M  V30 2701 C 250.684 -1.15527 4.21868 0
M  V30 2702 C 249.743 -2.20454 4.77793 0
M  V30 2703 O 248.769 -1.8029 5.39893 0
M  V30 2704 N 249.971 -3.52831 4.60967 0
M  V30 2705 H 252.736 0.205749 2.98993 0
M  V30 2706 H 250.297 0.255867 1.59865 0
M  V30 2707 H 252.289 -2.30276 3.32799 0
M  V30 2708 H 250.859 -2.14061 2.27809 0
M  V30 2709 H 250.079 -0.284736 3.9317 0
M  V30 2710 H 251.367 -0.832173 5.01949 0
M  V30 2711 H 250.765 -3.88201 4.11481 0
M  V30 2712 H 249.322 -4.18551 4.99658 0
M  V30 2713 N 252.755 -1.56801 0.158532 0
M  V30 2714 C 253.983 -2.00859 -0.496303 0
M  V30 2715 C 254.398 -1.03871 -1.57659 0
M  V30 2716 O 253.755 -0.0375165 -1.82461 0
M  V30 2717 C 253.806 -3.4479 -1.08638 0
M  V30 2718 O 253.527 -4.38072 -0.0492322 0
M  V30 2719 C 255.028 -4.04185 -1.8207 0
M  V30 2720 H 252.248 -0.65864 -0.128199 0
M  V30 2721 H 254.792 -2.02885 0.256506 0
M  V30 2722 H 252.947 -3.43579 -1.78975 0
M  V30 2723 H 253.361 -5.2227 -0.483102 0
M  V30 2724 H 254.835 -5.06857 -2.18633 0
M  V30 2725 H 255.312 -3.45549 -2.71095 0
M  V30 2726 H 255.918 -4.0906 -1.16405 0
M  V30 2727 N 254.233 0.115231 -1.57178 0
M  V30 2728 C 255.458 0.840354 -1.89612 0
M  V30 2729 C 255.883 1.72464 -0.750845 0
M  V30 2730 O 255.241 1.78826 0.298478 0
M  V30 2731 C 255.289 1.64654 -3.20814 0
M  V30 2732 O 254.393 2.7538 -3.06985 0
M  V30 2733 H 253.734 0.232158 -0.622092 0
M  V30 2734 H 256.264 0.0964977 -2.04372 0
M  V30 2735 H 256.274 2.03499 -3.53627 0
M  V30 2736 H 254.949 0.997416 -4.03763 0
M  V30 2737 H 253.526 2.3971 -2.85646 0
M  V30 2738 N 255.711 1.52812 0.385517 0
M  V30 2739 C 256.959 1.67694 1.12797 0
M  V30 2740 C 257.28 0.421115 1.90399 0
M  V30 2741 O 256.55 -0.564551 1.87589 0
M  V30 2742 H 255.13 0.618155 0.419396 0
M  V30 2743 H 257.792 1.89938 0.436972 0
M  V30 2744 H 256.888 2.52896 1.82894 0
M  V30 2745 N 257.189 -0.644168 1.43834 0
M  V30 2746 C 258.136 -1.75671 1.49694 0
M  V30 2747 C 259.106 -1.6246 0.345809 0
M  V30 2748 O 260.291 -1.82573 0.554234 0
M  V30 2749 C 257.431 -3.13867 1.43463 0
M  V30 2750 C 256.544 -3.38147 2.6885 0
M  V30 2751 C 255.679 -4.66241 2.54544 0
M  V30 2752 C 254.718 -4.83657 3.75157 0
M  V30 2753 N 253.855 -6.03016 3.59605 0
M  V30 2754 H 258.695 -1.69998 2.44754 0
M  V30 2755 H 256.232 -0.829458 1.21484 0
M  V30 2756 H 258.19 -3.9377 1.37843 0
M  V30 2757 H 256.82 -3.18588 0.519783 0
M  V30 2758 H 255.872 -2.52276 2.84712 0
M  V30 2759 H 257.184 -3.46899 3.58417 0
M  V30 2760 H 256.338 -5.54285 2.46683 0
M  V30 2761 H 255.077 -4.59826 1.62516 0
M  V30 2762 H 254.082 -3.94046 3.83416 0
M  V30 2763 H 255.307 -4.91896 4.68204 0
M  V30 2764 H 253.253 -5.97715 2.7032 0
M  V30 2765 H 253.17 -6.12766 4.42779 0
M  V30 2766 H 254.438 -6.93657 3.55613 0
M  V30 2767 N 258.668 -1.30515 -0.883378 0
M  V30 2768 C 259.578 -1.18959 -2.02203 0
M  V30 2769 C 260.594 -0.109172 -1.73657 0
M  V30 2770 O 261.77 -0.324413 -1.9877 0
M  V30 2771 C 258.835 -0.883871 -3.35244 0
M  V30 2772 C 257.896 -2.04982 -3.77201 0
M  V30 2773 C 257.129 -1.75859 -5.03894 0
M  V30 2774 O 257.352 -0.687276 -5.66244 0
M  V30 2775 O 256.286 -2.61146 -5.42297 0
M  V30 2776 H 260.112 -2.14616 -2.1488 0
M  V30 2777 H 257.697 -1.10124 -1.0096 0
M  V30 2778 H 259.579 -0.728644 -4.15053 0
M  V30 2779 H 258.254 0.0427798 -3.23672 0
M  V30 2780 H 257.161 -2.26038 -2.9809 0
M  V30 2781 H 258.494 -2.95825 -3.93381 0
M  V30 2782 N 260.146 1.09593 -1.13257 0
M  V30 2783 C 261.562 1.33775 -0.870423 0
M  V30 2784 C 261.762 1.95327 0.494926 0
M  V30 2785 O 260.818 2.19853 1.2418 0
M  V30 2786 C 262.131 2.25106 -1.99369 0
M  V30 2787 C 263.679 2.3862 -2.02558 0
M  V30 2788 C 264.154 3.33285 -3.14142 0
M  V30 2789 N 265.645 3.40857 -3.13641 0
M  V30 2790 C 266.38 4.14101 -3.96621 0
M  V30 2791 N 265.876 4.90157 -4.8961 0
M  V30 2792 N 267.669 4.09808 -3.84726 0
M  V30 2793 H 259.82 0.680136 -2.01216 0
M  V30 2794 H 262.083 0.362133 -0.876107 0
M  V30 2795 H 261.789 1.87103 -2.97801 0
M  V30 2796 H 261.663 3.25481 -1.90635 0
M  V30 2797 H 264.05 2.75887 -1.0474 0
M  V30 2798 H 264.131 1.38028 -2.15364 0
M  V30 2799 H 263.775 2.96741 -4.12198 0
M  V30 2800 H 263.705 4.33776 -2.98574 0
M  V30 2801 H 266.196 2.86624 -2.46282 0
M  V30 2802 H 266.509 5.4347 -5.49418 0
M  V30 2803 H 264.854 4.89251 -4.93617 0
M  V30 2804 H 268.045 3.4949 -3.11408 0
M  V30 2805 H 268.218 4.66629 -4.49623 0
M  V30 2806 N 261.624 0.925811 1.2754 0
M  V30 2807 C 262.554 0.440748 2.29303 0
M  V30 2808 C 263.535 -0.497971 1.62648 0
M  V30 2809 O 264.72 -0.403126 1.8997 0
M  V30 2810 C 261.85 -0.309048 3.45922 0
M  V30 2811 C 260.804 0.54166 4.24559 0
M  V30 2812 C 260.13 -0.337191 5.33636 0
M  V30 2813 C 261.43 1.80516 4.90114 0
M  V30 2814 H 263.124 1.29121 2.70126 0
M  V30 2815 H 260.67 0.622323 1.29858 0
M  V30 2816 H 262.623 -0.659315 4.1621 0
M  V30 2817 H 261.347 -1.19352 3.04011 0
M  V30 2818 H 260.006 0.874609 3.56014 0
M  V30 2819 H 259.654 -1.22056 4.87966 0
M  V30 2820 H 259.354 0.228497 5.87156 0
M  V30 2821 H 260.878 -0.683072 6.06767 0
M  V30 2822 H 262.292 1.52307 5.52698 0
M  V30 2823 H 260.689 2.3142 5.53683 0
M  V30 2824 H 261.759 2.52581 4.13921 0
M  V30 2825 N 263.102 -1.41638 0.69111 0
M  V30 2826 C 264.032 -2.3347 0.037248 0
M  V30 2827 C 265.013 -1.51575 -0.771947 0
M  V30 2828 O 266.198 -1.80126 -0.72582 0
M  V30 2829 C 263.328 -3.35354 -0.903064 0
M  V30 2830 C 262.282 -4.27526 -0.201288 0
M  V30 2831 C 261.608 -5.19747 -1.25565 0
M  V30 2832 C 262.908 -5.13959 0.929689 0
M  V30 2833 H 264.602 -2.88397 0.804227 0
M  V30 2834 H 262.148 -1.38669 0.388189 0
M  V30 2835 H 264.101 -3.98519 -1.36969 0
M  V30 2836 H 262.825 -2.78767 -1.70166 0
M  V30 2837 H 261.484 -3.65779 0.245265 0
M  V30 2838 H 261.132 -4.59479 -2.04666 0
M  V30 2839 H 260.832 -5.8225 -0.791128 0
M  V30 2840 H 262.356 -5.85789 -1.72288 0
M  V30 2841 H 263.77 -5.70718 0.543546 0
M  V30 2842 H 262.167 -5.85379 1.32103 0
M  V30 2843 H 263.237 -4.51389 1.77133 0
M  V30 2844 N 264.58 -0.43555 -1.51462 0
M  V30 2845 C 265.51 0.367376 -2.30592 0
M  V30 2846 C 266.491 1.02263 -1.35928 0
M  V30 2847 O 267.676 1.02661 -1.64847 0
M  V30 2848 C 264.806 1.46983 -3.14664 0
M  V30 2849 C 263.76 0.938161 -4.17591 0
M  V30 2850 C 263.086 2.13622 -4.90173 0
M  V30 2851 C 264.386 -0.0261621 -5.22293 0
M  V30 2852 H 266.08 -0.292969 -2.97963 0
M  V30 2853 H 263.626 -0.14234 -1.43295 0
M  V30 2854 H 265.579 2.03873 -3.688 0
M  V30 2855 H 264.303 2.15843 -2.4511 0
M  V30 2856 H 262.962 0.391481 -3.64504 0
M  V30 2857 H 262.61 2.81098 -4.17124 0
M  V30 2858 H 262.31 1.78688 -5.59772 0
M  V30 2859 H 263.834 2.7107 -5.47132 0
M  V30 2860 H 265.248 0.452384 -5.71512 0
M  V30 2861 H 263.645 -0.287992 -5.99409 0
M  V30 2862 H 264.715 -0.963391 -4.75233 0
M  V30 2863 N 266.058 1.56714 -0.166846 0
M  V30 2864 C 267.283 2.01557 0.488833 0
M  V30 2865 C 267.708 1.0463 1.56314 0
M  V30 2866 O 267.066 0.0251304 1.81283 0
M  V30 2867 C 267.114 3.4503 1.04818 0
M  V30 2868 O 266.218 3.51163 2.16236 0
M  V30 2869 H 265.559 0.653516 0.117526 0
M  V30 2870 H 268.089 2.02818 -0.269421 0
M  V30 2871 H 268.099 3.84243 1.37191 0
M  V30 2872 H 266.774 4.15077 0.261572 0
M  V30 2873 H 265.351 3.23807 1.84942 0
M  V30 2874 N 267.536 -0.106894 1.57237 0
M  V30 2875 C 268.499 -1.11466 2.0027 0
M  V30 2876 C 269.499 -1.33623 0.894519 0
M  V30 2877 O 270.689 -1.29935 1.16028 0
M  V30 2878 C 267.821 -2.46646 2.35327 0
M  V30 2879 H 269.014 -0.744516 2.90512 0
M  V30 2880 H 266.567 -0.351576 1.52295 0
M  V30 2881 H 267.302 -2.88558 1.48003 0
M  V30 2882 H 267.087 -2.31915 3.16161 0
M  V30 2883 H 268.577 -3.19151 2.69318 0
M  V30 2884 N 269.014 -1.53014 -0.377408 0
M  V30 2885 C 269.977 -1.77957 -1.44444 0
M  V30 2886 C 270.977 -0.649763 -1.47087 0
M  V30 2887 O 272.167 -0.917897 -1.48055 0
M  V30 2888 C 269.299 -1.89089 -2.83651 0
M  V30 2889 H 270.492 -2.73243 -1.23606 0
M  V30 2890 H 268.045 -1.43912 -0.609844 0
M  V30 2891 H 268.78 -0.958293 -3.09818 0
M  V30 2892 H 268.565 -2.71254 -2.83132 0
M  V30 2893 H 270.055 -2.1002 -3.60945 0
M  V30 2894 N 270.492 0.636531 -1.44174 0
M  V30 2895 C 271.738 1.39826 -1.4689 0
M  V30 2896 C 272.071 1.93947 -0.0990585 0
M  V30 2897 O 271.346 1.73325 0.882544 0
M  V30 2898 C 271.629 2.56751 -2.5249 0
M  V30 2899 C 271.482 2.08014 -3.98811 0
M  V30 2900 C 272.801 3.58946 -2.54649 0
M  V30 2901 H 269.92 0.507075 -0.53483 0
M  V30 2902 H 272.562 0.720188 -1.75822 0
M  V30 2903 H 270.712 3.14597 -2.2795 0
M  V30 2904 H 272.384 1.5504 -4.34466 0
M  V30 2905 H 270.627 1.39242 -4.10846 0
M  V30 2906 H 271.298 2.92169 -4.68339 0
M  V30 2907 H 273.774 3.1089 -2.76563 0
M  V30 2908 H 272.65 4.38286 -3.3045 0
M  V30 2909 H 272.911 4.12655 -1.58646 0
M  V30 2910 N 271.97 1.30982 0.876444 0
M  V30 2911 C 273.381 1.18277 1.44456 0
M  V30 2912 C 273.732 -0.213265 1.95037 0
M  V30 2913 O 272.857 -1.11057 1.85729 0
M  V30 2914 C 273.452 2.1411 2.62569 0
M  V30 2915 C 272.011 2.05358 3.15444 0
M  V30 2916 C 271.158 2.03706 1.88146 0
M  V30 2917 H 274.109 1.43127 0.685584 0
M  V30 2918 H 274.13 1.72692 3.39054 0
M  V30 2919 H 273.642 3.15706 2.25724 0
M  V30 2920 H 271.743 1.06934 3.56926 0
M  V30 2921 H 271.856 2.94156 3.78166 0
M  V30 2922 H 270.22 1.48629 2.06837 0
M  V30 2923 H 271.003 3.07047 1.53547 0
M  V30 2924 N 273.449 -1.08991 1.13837 0
M  V30 2925 C 274.412 -2.13925 0.822715 0
M  V30 2926 C 275.412 -1.599 -0.1699 0
M  V30 2927 O 276.602 -1.74104 0.0577251 0
M  V30 2928 C 273.734 -3.40155 0.225318 0
M  V30 2929 H 274.927 -2.43358 1.75262 0
M  V30 2930 H 272.48 -1.24603 0.943594 0
M  V30 2931 H 273.215 -3.16352 -0.713594 0
M  V30 2932 H 273 -3.80661 0.940193 0
M  V30 2933 H 274.49 -4.17594 0.0214784 0
M  V30 2934 N 274.927 -0.932562 -1.27047 0
M  V30 2935 C 276.175 -0.574422 -1.93765 0
M  V30 2936 C 276.496 0.887993 -1.73608 0
M  V30 2937 O 275.766 1.62999 -1.08665 0
M  V30 2938 H 274.346 -0.209451 -0.717035 0
M  V30 2939 H 277.008 -1.18601 -1.5466 0
M  V30 2940 H 276.104 -0.784841 -3.02071 0
M  V30 2941 N 276.405 1.4127 -0.698611 0
M  V30 2942 C 277.337 2.292 0.00399731 0
M  V30 2943 C 278.35 1.44944 0.741279 0
M  V30 2944 O 279.539 1.68416 0.591477 0
M  V30 2945 C 276.639 3.22875 1.02979 0
M  V30 2946 C 275.812 4.35904 0.36151 0
M  V30 2947 C 274.871 5.10134 1.29033 0
M  V30 2948 O 273.897 5.63809 0.781562 0
M  V30 2949 N 275.099 5.17885 2.6225 0
M  V30 2950 H 277.864 2.9014 -0.750921 0
M  V30 2951 H 275.425 1.52455 -0.544882 0
M  V30 2952 H 277.417 3.69404 1.65296 0
M  V30 2953 H 275.987 2.63221 1.68622 0
M  V30 2954 H 275.207 3.91719 -0.441584 0
M  V30 2955 H 276.495 5.08696 -0.103055 0
M  V30 2956 H 275.893 4.7573 3.061 0
M  V30 2957 H 274.45 5.6798 3.19754 0
M  V30 2958 N 277.883 0.443576 1.51229 0
M  V30 2959 C 279.111 -0.11929 2.06556 0
M  V30 2960 C 279.526 -1.35921 1.31038 0
M  V30 2961 O 278.883 -1.78675 0.371704 0
M  V30 2962 C 278.934 -0.435228 3.5887 0
M  V30 2963 O 278.655 0.755486 4.31537 0
M  V30 2964 C 280.156 -1.04808 4.30732 0
M  V30 2965 H 277.376 -0.0051584 0.67098 0
M  V30 2966 H 279.92 0.624453 1.94733 0
M  V30 2967 H 278.075 -1.12887 3.70588 0
M  V30 2968 H 278.489 0.483491 5.22267 0
M  V30 2969 H 279.963 -1.2191 5.3837 0
M  V30 2970 H 280.44 -2.03081 3.89429 0
M  V30 2971 H 281.046 -0.393637 4.23474 0
M  V30 2972 N 279.361 -1.56624 0.175154 0
M  V30 2973 C 280.591 -2.01082 -0.474283 0
M  V30 2974 C 280.999 -1.05447 -1.57091 0
M  V30 2975 O 280.342 -0.0480595 -1.83637 0
M  V30 2976 C 280.404 -3.41963 -1.10911 0
M  V30 2977 C 280.068 -4.56742 -0.153666 0
M  V30 2978 C 281.065 -5.16076 0.629448 0
M  V30 2979 C 278.75 -5.02277 -0.0483776 0
M  V30 2980 C 280.744 -6.19377 1.50501 0
M  V30 2981 C 278.431 -6.05427 0.830768 0
M  V30 2982 C 279.429 -6.63849 1.60605 0
M  V30 2983 O 279.117 -7.64998 2.47049 0
M  V30 2984 H 278.849 -0.664261 -0.125432 0
M  V30 2985 H 281.403 -2.03549 0.275163 0
M  V30 2986 H 279.633 -3.36422 -1.90676 0
M  V30 2987 H 281.322 -3.70352 -1.66114 0
M  V30 2988 H 282.088 -4.81776 0.558297 0
M  V30 2989 H 277.967 -4.56513 -0.641611 0
M  V30 2990 H 281.511 -6.64906 2.1106 0
M  V30 2991 H 277.408 -6.39151 0.903107 0
M  V30 2992 H 278.176 -7.82336 2.40607 0
M  V30 2993 N 280.839 0.0985539 -1.57292 0
M  V30 2994 C 282.085 0.803867 -1.86188 0
M  V30 2995 C 282.418 1.78549 -0.763794 0
M  V30 2996 O 281.693 1.93153 0.22855 0
M  V30 2997 C 281.976 1.53568 -3.25713 0
M  V30 2998 C 281.829 0.572277 -4.46145 0
M  V30 2999 C 283.148 2.48708 -3.63087 0
M  V30 3000 H 280.267 0.290781 -0.677211 0
M  V30 3001 H 282.909 0.0675783 -1.8988 0
M  V30 3002 H 281.059 2.16332 -3.22696 0
M  V30 3003 H 282.731 -0.0480894 -4.61275 0
M  V30 3004 H 280.974 -0.114618 -4.33649 0
M  V30 3005 H 281.645 1.12139 -5.40489 0
M  V30 3006 H 284.121 1.96039 -3.67026 0
M  V30 3007 H 282.997 2.96932 -4.61652 0
M  V30 3008 H 283.258 3.32309 -2.91588 0
M  V30 3009 N 282.317 1.53212 0.369288 0
M  V30 3010 C 283.594 1.59815 1.12776 0
M  V30 3011 C 283.974 0.403402 2.0721 0
M  V30 3012 O 283.322 -0.606667 2.20299 0
M  V30 3013 C 283.532 2.94664 1.87013 0
M  V30 3014 C 284.88 3.49109 2.41677 0
M  V30 3015 O 285.904 2.96669 1.97144 0
M  V30 3016 O 284.763 4.40775 3.23079 0
M  V30 3017 H 281.857 0.645376 0.517125 0
M  V30 3018 H 284.403 1.65553 0.37285 0
M  V30 3019 H 283.175 3.73061 1.18071 0
M  V30 3020 H 282.798 2.92401 2.69421 0
M  V30 3021 N 283.795 -0.628877 1.44509 0
M  V30 3022 C 284.758 -1.72263 1.51188 0
M  V30 3023 C 285.758 -1.55907 0.39367 0
M  V30 3024 O 286.948 -1.61361 0.656377 0
M  V30 3025 C 284.08 -3.11365 1.38798 0
M  V30 3026 H 285.273 -1.67714 2.4862 0
M  V30 3027 H 282.826 -0.842737 1.31634 0
M  V30 3028 H 283.561 -3.21507 0.424693 0
M  V30 3029 H 283.346 -3.24644 2.19884 0
M  V30 3030 H 284.836 -3.91075 1.46458 0
M  V30 3031 N 285.273 -1.31445 -0.869486 0
M  V30 3032 C 286.521 -1.20918 -1.61936 0
M  V30 3033 C 286.842 0.232683 -1.93607 0
M  V30 3034 O 286.112 1.15352 -1.58338 0
M  V30 3035 H 284.692 -0.44454 -0.600328 0
M  V30 3036 H 287.354 -1.64776 -1.0409 0
M  V30 3037 H 286.45 -1.78124 -2.56278 0
M  V30 3038 N 286.751 1.08385 -1.14413 0
M  V30 3039 C 287.981 1.8425 -0.934644 0
M  V30 3040 C 288.389 1.81907 0.520234 0
M  V30 3041 O 287.732 1.22126 1.37226 0
M  V30 3042 C 287.794 3.32853 -1.35828 0
M  V30 3043 C 287.458 3.5893 -2.82875 0
M  V30 3044 C 288.455 3.53756 -3.80989 0
M  V30 3045 C 286.14 3.86934 -3.20293 0
M  V30 3046 C 288.134 3.76216 -5.14529 0
M  V30 3047 C 285.821 4.09047 -4.54008 0
M  V30 3048 C 286.819 4.03682 -5.50936 0
M  V30 3049 O 286.507 4.25214 -6.82238 0
M  V30 3050 H 286.239 0.588502 -0.332628 0
M  V30 3051 H 288.793 1.37792 -1.52324 0
M  V30 3052 H 287.023 3.8007 -0.713019 0
M  V30 3053 H 288.712 3.90154 -1.11957 0
M  V30 3054 H 289.478 3.32135 -3.53428 0
M  V30 3055 H 285.357 3.9023 -2.45442 0
M  V30 3056 H 288.901 3.71943 -5.90173 0
M  V30 3057 H 284.798 4.30151 -4.8129 0
M  V30 3058 H 285.566 4.42619 -6.88499 0
M  V30 3059 N 288.23 0.939286 1.26551 0
M  V30 3060 C 289.14 0.453432 2.30176 0
M  V30 3061 C 290.156 -0.471649 1.67486 0
M  V30 3062 O 291.332 -0.35164 1.98306 0
M  V30 3063 C 288.397 -0.275326 3.45605 0
M  V30 3064 C 287.458 0.686084 4.23782 0
M  V30 3065 C 286.691 -0.00798994 5.33699 0
M  V30 3066 O 286.914 -1.22528 5.57085 0
M  V30 3067 O 285.848 0.669746 5.98162 0
M  V30 3068 H 289.674 1.31416 2.73795 0
M  V30 3069 H 287.259 0.705095 1.31715 0
M  V30 3070 H 289.141 -0.685911 4.1578 0
M  V30 3071 H 287.816 -1.11147 3.0402 0
M  V30 3072 H 286.723 1.14658 3.56096 0
M  V30 3073 H 288.056 1.48979 4.69112 0
M  V30 3074 N 289.708 -1.40897 0.706093 0
M  V30 3075 C 290.954 -2.01352 0.241889 0
M  V30 3076 C 291.287 -1.55832 -1.15888 0
M  V30 3077 O 290.562 -0.774145 -1.7843 0
M  V30 3078 C 290.845 -3.58752 0.311311 0
M  V30 3079 C 290.698 -4.1437 1.74978 0
M  V30 3080 C 292.017 -4.38914 -0.322922 0
M  V30 3081 H 289.136 -0.731562 0.0893687 0
M  V30 3082 H 291.778 -1.67504 0.896802 0
M  V30 3083 H 289.928 -3.87718 -0.246302 0
M  V30 3084 H 291.6 -3.96239 2.36205 0
M  V30 3085 H 289.843 -3.69016 2.28057 0
M  V30 3086 H 290.514 -5.23532 1.74981 0
M  V30 3087 H 292.99 -4.15822 0.152089 0
M  V30 3088 H 291.866 -5.48358 -0.243855 0
M  V30 3089 H 292.127 -4.19176 -1.40513 0
M  V30 3090 N 291.186 -0.45159 -1.50991 0
M  V30 3091 C 292.463 0.170707 -1.94854 0
M  V30 3092 C 292.843 1.58788 -1.39103 0
M  V30 3093 O 292.191 2.20913 -0.583921 0
M  V30 3094 C 292.401 0.133929 -3.48743 0
M  V30 3095 C 293.749 0.33248 -4.23296 0
M  V30 3096 O 294.773 0.211403 -3.55572 0
M  V30 3097 O 293.632 0.57486 -5.43468 0
M  V30 3098 H 290.726 0.122264 -0.817912 0
M  V30 3099 H 293.272 -0.510594 -1.61836 0
M  V30 3100 H 292.044 -0.856283 -3.81816 0
M  V30 3101 H 291.667 0.857529 -3.88242 0
M  V30 3102 N 292.664 1.56529 -0.183458 0
M  V30 3103 C 293.611 2.18546 0.742055 0
M  V30 3104 C 294.581 1.12912 1.2182 0
M  V30 3105 O 295.766 1.41115 1.28418 0
M  V30 3106 C 292.906 2.83977 1.96089 0
M  V30 3107 C 292.019 4.04105 1.52719 0
M  V30 3108 C 291.154 4.57427 2.70063 0
M  V30 3109 C 290.193 5.69938 2.23243 0
M  V30 3110 N 289.33 6.17717 3.33722 0
M  V30 3111 H 294.17 2.97284 0.206432 0
M  V30 3112 H 291.707 1.46823 0.0901571 0
M  V30 3113 H 293.665 3.20077 2.67594 0
M  V30 3114 H 292.295 2.07822 2.47002 0
M  V30 3115 H 291.347 3.73745 0.708436 0
M  V30 3116 H 292.659 4.85513 1.1436 0
M  V30 3117 H 291.813 4.95772 3.49708 0
M  V30 3118 H 290.552 3.75101 3.11689 0
M  V30 3119 H 289.557 5.31133 1.42048 0
M  V30 3120 H 290.782 6.54073 1.82661 0
M  V30 3121 H 288.728 5.38317 3.74902 0
M  V30 3122 H 288.645 6.94146 2.99495 0
M  V30 3123 H 289.913 6.60713 4.13616 0
M  V30 3124 N 294.142 -0.090211 1.57342 0
M  V30 3125 C 295.391 -0.791531 1.8552 0
M  V30 3126 C 295.704 -1.79659 0.773441 0
M  V30 3127 O 296.91 -2.54616 0.942497 0
M  V30 3128 C 295.366 -1.45856 3.2902 0
M  V30 3129 C 294.974 -0.493017 4.45279 0
M  V30 3130 C 296.718 -2.14332 3.66418 0
M  V30 3131 C 294.625 -1.16491 5.79814 0
M  V30 3132 H 293.555 -0.299356 0.692027 0
M  V30 3133 H 296.206 -0.0445343 1.83446 0
M  V30 3134 H 294.588 -2.25318 3.2565 0
M  V30 3135 H 295.762 0.270464 4.60006 0
M  V30 3136 H 294.077 0.0863061 4.16311 0
M  V30 3137 H 296.674 -2.65344 4.64216 0
M  V30 3138 H 297.017 -2.93447 2.95287 0
M  V30 3139 H 297.55 -1.41724 3.71698 0
M  V30 3140 H 294.289 -0.41447 6.54188 0
M  V30 3141 H 293.809 -1.8997 5.68921 0
M  V30 3142 H 295.488 -1.69001 6.24538 0
M  V30 3143 N 295.62 -1.53406 -0.361157 0
M  V30 3144 C 296.583 -1.79479 -1.42548 0
M  V30 3145 C 297.583 -0.665327 -1.4639 0
M  V30 3146 O 298.773 -0.933549 -1.47073 0
M  V30 3147 C 295.905 -1.92087 -2.8163 0
M  V30 3148 H 297.098 -2.74538 -1.20701 0
M  V30 3149 H 294.651 -1.4455 -0.594546 0
M  V30 3150 H 295.386 -0.991099 -3.08784 0
M  V30 3151 H 295.171 -2.74241 -2.80239 0
M  V30 3152 H 296.661 -2.13836 -3.58697 0
M  V30 3153 N 297.098 0.621204 -1.44841 0
M  V30 3154 C 298.03 1.74615 -1.48466 0
M  V30 3155 C 299.043 1.58377 -0.37691 0
M  V30 3156 O 300.232 1.66508 -0.643215 0
M  V30 3157 C 297.332 3.12459 -1.31236 0
M  V30 3158 C 296.505 3.55064 -2.55438 0
M  V30 3159 C 295.564 4.71821 -2.32963 0
M  V30 3160 O 294.59 4.79628 -3.06505 0
M  V30 3161 N 295.792 5.64186 -1.36654 0
M  V30 3162 H 298.557 1.71973 -2.45449 0
M  V30 3163 H 296.118 0.806077 -1.40407 0
M  V30 3164 H 298.11 3.88302 -1.14032 0
M  V30 3165 H 296.68 3.09686 -0.4258 0
M  V30 3166 H 295.9 2.69324 -2.87851 0
M  V30 3167 H 297.188 3.80284 -3.38026 0
M  V30 3168 H 296.586 5.6058 -0.759344 0
M  V30 3169 H 295.143 6.39618 -1.25425 0
M  V30 3170 N 298.576 1.31904 0.862503 0
M  V30 3171 C 299.524 1.20125 1.9918 0
M  V30 3172 C 300.518 0.107824 1.69056 0
M  V30 3173 O 301.724 0.270223 1.7796 0
M  V30 3174 H 298.099 0.372148 0.65346 0
M  V30 3175 H 300.07 2.15652 2.06244 0
M  V30 3176 C 298.819 0.933099 3.34946 0
M  V30 3177 H 298.142 1.76664 3.5865 0
M  V30 3178 H 299.582 0.890892 4.14535 0
M  V30 3179 C 298.041 -0.364172 3.34926 0
M  V30 3180 O 298.571 -1.37858 3.77304 0
M  V30 3181 N 296.777 -0.383362 2.8806 0
M  V30 3182 H 296.324 0.442651 2.53768 0
M  V30 3183 H 296.282 -1.25123 2.8843 0
M  V30 3184 N 300.054 -1.07777 1.14986 0
M  V30 3185 C 300.984 -2.16865 0.865557 0
M  V30 3186 C 301.965 -1.69123 -0.182083 0
M  V30 3187 O 303.15 -1.94164 -0.0373815 0
M  V30 3188 C 300.28 -3.45539 0.349313 0
M  V30 3189 C 299.234 -4.06708 1.33313 0
M  V30 3190 C 298.56 -5.30411 0.675918 0
M  V30 3191 C 299.86 -4.47241 2.69764 0
M  V30 3192 H 301.554 -2.40905 1.77778 0
M  V30 3193 H 299.1 -1.15781 0.856203 0
M  V30 3194 H 301.053 -4.21174 0.137983 0
M  V30 3195 H 299.777 -3.21072 -0.598362 0
M  V30 3196 H 298.436 -3.33112 1.53075 0
M  V30 3197 H 298.084 -5.02232 -0.277767 0
M  V30 3198 H 297.784 -5.72293 1.33244 0
M  V30 3199 H 299.308 -6.08755 0.474262 0
M  V30 3200 H 300.722 -5.14025 2.53873 0
M  V30 3201 H 299.119 -5.00062 3.3175 0
M  V30 3202 H 300.189 -3.58818 3.26156 0
M  V30 3203 N 301.532 -0.945985 -1.26051 0
M  V30 3204 C 302.809 -0.513816 -1.88731 0
M  V30 3205 C 303.189 1.00872 -1.8544 0
M  V30 3206 O 302.537 1.8708 -1.312 0
M  V30 3207 C 302.747 -1.08062 -3.31849 0
M  V30 3208 C 304.095 -1.1522 -4.08668 0
M  V30 3209 O 305.119 -1.03155 -3.40936 0
M  V30 3210 O 303.978 -1.34044 -5.29806 0
M  V30 3211 H 301.072 -0.168193 -0.809716 0
M  V30 3212 H 303.618 -1.03886 -1.34186 0
M  V30 3213 H 302.39 -2.1241 -3.2863 0
M  V30 3214 H 302.013 -0.538307 -3.93939 0
M  V30 3215 N 303.011 1.40521 -0.713556 0
M  V30 3216 C 304.258 2.00923 -0.25219 0
M  V30 3217 C 304.586 1.56571 1.15395 0
M  V30 3218 O 303.841 0.775874 1.79663 0
M  V30 3219 C 304.14 3.56317 -0.278 0
M  V30 3220 C 303.806 4.20246 -1.63415 0
M  V30 3221 C 302.468 4.37422 -2.00538 0
M  V30 3222 C 304.82 4.55923 -2.52554 0
M  V30 3223 C 302.148 4.87558 -3.2635 0
M  V30 3224 C 304.5 5.07458 -3.77716 0
M  V30 3225 C 303.164 5.22843 -4.14959 0
M  V30 3226 H 302.434 0.735231 -0.0922829 0
M  V30 3227 H 305.081 1.68161 -0.916188 0
M  V30 3228 H 303.386 3.88976 0.469567 0
M  V30 3229 H 305.083 4.00883 0.0967819 0
M  V30 3230 H 301.673 4.07263 -1.33546 0
M  V30 3231 H 305.857 4.42291 -2.25149 0
M  V30 3232 H 301.113 4.97654 -3.55176 0
M  V30 3233 H 305.287 5.34041 -4.4696 0
M  V30 3234 H 302.914 5.61454 -5.12516 0
M  V30 3235 N 304.489 0.459591 1.5075 0
M  V30 3236 C 305.735 -0.0994966 2.02556 0
M  V30 3237 C 306.068 -1.40399 1.3417 0
M  V30 3238 O 305.343 -1.88892 0.463683 0
M  V30 3239 C 305.626 -0.295242 3.58888 0
M  V30 3240 C 305.479 1.02947 4.37861 0
M  V30 3241 C 306.798 -1.05502 4.27267 0
M  V30 3242 H 303.917 -0.034686 0.736183 0
M  V30 3243 H 306.559 0.602938 1.8018 0
M  V30 3244 H 304.709 -0.893563 3.78084 0
M  V30 3245 H 306.381 1.66348 4.30263 0
M  V30 3246 H 304.624 1.62885 4.02058 0
M  V30 3247 H 305.295 0.846281 5.45474 0
M  V30 3248 H 307.771 -0.547993 4.12476 0
M  V30 3249 H 306.647 -1.16077 5.36486 0
M  V30 3250 H 306.908 -2.08875 3.89645 0
M  V30 3251 N 305.967 -1.56429 0.191757 0
M  V30 3252 C 306.915 -2.20273 -0.747174 0
M  V30 3253 C 307.909 -1.17288 -1.22229 0
M  V30 3254 O 309.115 -1.35441 -1.18557 0
M  V30 3255 H 305.49 -0.705885 -0.259289 0
M  V30 3256 H 307.461 -2.97826 -0.184963 0
M  V30 3257 C 306.21 -2.87356 -1.95759 0
M  V30 3258 H 305.533 -3.66341 -1.60106 0
M  V30 3259 H 306.973 -3.3547 -2.59299 0
M  V30 3260 C 305.432 -1.88213 -2.79423 0
M  V30 3261 O 305.962 -1.38033 -3.7724 0
M  V30 3262 N 304.168 -1.56516 -2.44849 0
M  V30 3263 H 303.715 -1.97516 -1.65364 0
M  V30 3264 H 303.673 -0.904369 -3.01112 0
M  V30 3265 N 307.445 0.0818655 -1.57387 0
M  V30 3266 C 308.375 1.09885 -2.06028 0
M  V30 3267 C 309.356 1.4098 -0.951774 0
M  V30 3268 O 310.541 1.50781 -1.22387 0
M  V30 3269 C 307.671 2.4151 -2.4958 0
M  V30 3270 C 306.625 2.24792 -3.64215 0
M  V30 3271 C 305.951 3.61712 -3.93787 0
M  V30 3272 C 307.251 1.67749 -4.94629 0
M  V30 3273 H 308.945 0.694128 -2.91243 0
M  V30 3274 H 306.491 0.332448 -1.4011 0
M  V30 3275 H 308.444 3.12939 -2.82219 0
M  V30 3276 H 307.168 2.83943 -1.61381 0
M  V30 3277 H 305.827 1.55807 -3.31843 0
M  V30 3278 H 305.475 4.01697 -3.02735 0
M  V30 3279 H 305.175 3.51368 -4.70971 0
M  V30 3280 H 306.699 4.34587 -4.28913 0
M  V30 3281 H 308.113 2.29032 -5.25564 0
M  V30 3282 H 306.51 1.68128 -5.76067 0
M  V30 3283 H 307.58 0.638059 -4.80684 0
M  V30 3284 N 308.923 1.53595 0.353017 0
M  V30 3285 C 309.856 1.7572 1.45594 0
M  V30 3286 C 310.834 0.605961 1.50887 0
M  V30 3287 O 312.018 0.840023 1.68748 0
M  V30 3288 C 309.145 1.84732 2.83887 0
M  V30 3289 C 308.191 3.06808 2.96262 0
M  V30 3290 S 309.024 4.66065 2.63711 0
M  V30 3291 C 310.18 4.77943 4.04131 0
M  V30 3292 H 310.413 2.68994 1.26608 0
M  V30 3293 H 307.946 1.44343 0.548117 0
M  V30 3294 H 309.904 1.9061 3.63563 0
M  V30 3295 H 308.565 0.92488 3.00175 0
M  V30 3296 H 307.758 3.09761 3.97573 0
M  V30 3297 H 307.36 2.99108 2.24523 0
M  V30 3298 H 309.652 4.5877 4.98534 0
M  V30 3299 H 310.595 5.80022 4.06177 0
M  V30 3300 H 311.003 4.06472 3.91715 0
M  V30 3301 N 310.401 -0.613514 1.45168 0
M  V30 3302 C 311.364 -1.7065 1.53007 0
M  V30 3303 C 312.364 -1.5548 0.410184 0
M  V30 3304 O 313.554 -1.60656 0.673455 0
M  V30 3305 C 310.686 -3.09875 1.42093 0
M  V30 3306 H 311.879 -1.65068 2.50385 0
M  V30 3307 H 309.432 -0.828728 1.32521 0
M  V30 3308 H 310.167 -3.21039 0.458769 0
M  V30 3309 H 309.952 -3.22293 2.23315 0
M  V30 3310 H 311.442 -3.895 1.50598 0
M  V30 3311 N 311.879 -1.3236 -0.855495 0
M  V30 3312 C 313.109 -1.25688 -1.6397 0
M  V30 3313 C 313.517 0.177592 -1.88365 0
M  V30 3314 O 312.86 1.12485 -1.45234 0
M  V30 3315 C 312.922 -1.94602 -3.02275 0
M  V30 3316 C 312.586 -3.43937 -3.00926 0
M  V30 3317 C 313.583 -4.39435 -2.77835 0
M  V30 3318 C 311.268 -3.85858 -3.21588 0
M  V30 3319 C 313.262 -5.74829 -2.75409 0
M  V30 3320 C 310.949 -5.21361 -3.18789 0
M  V30 3321 C 311.947 -6.15658 -2.95727 0
M  V30 3322 O 311.635 -7.48681 -2.928 0
M  V30 3323 H 311.367 -0.434972 -0.51747 0
M  V30 3324 H 313.921 -1.75023 -1.075 0
M  V30 3325 H 312.151 -1.39836 -3.60531 0
M  V30 3326 H 313.84 -1.81651 -3.62985 0
M  V30 3327 H 314.606 -4.08374 -2.6164 0
M  V30 3328 H 310.485 -3.12883 -3.38564 0
M  V30 3329 H 314.029 -6.48404 -2.57328 0
M  V30 3330 H 309.926 -5.52052 -3.34528 0
M  V30 3331 H 310.694 -7.5803 -3.0876 0
M  V30 3332 N 313.357 1.07166 -1.15556 0
M  V30 3333 C 314.634 1.76546 -0.842069 0
M  V30 3334 C 315.014 2.00453 0.661939 0
M  V30 3335 O 314.362 1.62452 1.60691 0
M  V30 3336 C 314.572 3.07266 -1.65495 0
M  V30 3337 C 315.92 3.81578 -1.86234 0
M  V30 3338 O 316.944 3.17083 -1.62287 0
M  V30 3339 O 315.803 4.97419 -2.26355 0
M  V30 3340 H 312.897 0.766756 -0.309862 0
M  V30 3341 H 315.443 1.13514 -1.26145 0
M  V30 3342 H 314.215 2.85494 -2.67598 0
M  V30 3343 H 313.838 3.7803 -1.23203 0
M  V30 3344 N 314.835 0.952656 1.25548 0
M  V30 3345 C 316.082 0.606373 1.93208 0
M  V30 3346 C 316.41 -0.85631 1.74636 0
M  V30 3347 O 315.665 -1.62951 1.08376 0
M  V30 3348 C 315.964 0.908818 3.45652 0
M  V30 3349 C 315.63 2.35722 3.84378 0
M  V30 3350 C 314.292 2.75312 3.9466 0
M  V30 3351 C 316.644 3.29793 4.03591 0
M  V30 3352 C 313.972 4.08047 4.21562 0
M  V30 3353 C 316.324 4.62138 4.31985 0
M  V30 3354 C 314.988 5.01528 4.40484 0
M  V30 3355 H 314.258 0.221888 0.706998 0
M  V30 3356 H 316.905 1.20132 1.49133 0
M  V30 3357 H 315.21 0.231456 3.91116 0
M  V30 3358 H 316.907 0.619498 3.96186 0
M  V30 3359 H 313.497 2.04017 3.76928 0
M  V30 3360 H 317.681 3.00397 3.95064 0
M  V30 3361 H 312.937 4.38212 4.26357 0
M  V30 3362 H 317.111 5.35012 4.45797 0
M  V30 3363 H 314.738 6.04406 4.61083 0
M  V30 3364 N 316.313 -1.40141 0.720998 0
M  V30 3365 C 317.263 -2.27949 0.0482544 0
M  V30 3366 C 318.247 -1.43538 -0.727021 0
M  V30 3367 O 319.439 -1.6658 -0.598332 0
M  V30 3368 C 316.568 -3.32126 -0.868729 0
M  V30 3369 C 315.654 -4.24008 -0.0883515 0
M  V30 3370 N 316.045 -4.97154 0.931226 0
M  V30 3371 C 314.343 -4.4485 -0.320105 0
M  V30 3372 C 315.044 -5.64587 1.4006 0
M  V30 3373 N 314.02 -5.38787 0.721752 0
M  V30 3374 H 317.822 -2.81948 0.829609 0
M  V30 3375 H 315.336 -1.52656 0.554067 0
M  V30 3376 H 317.333 -3.93884 -1.36605 0
M  V30 3377 H 315.993 -2.79687 -1.6494 0
M  V30 3378 H 317.004 -5.01 1.31222 0
M  V30 3379 H 313.681 -4.03378 -1.07668 0
M  V30 3380 H 315.071 -6.33175 2.24808 0
M  V30 3381 N 317.792 -0.46758 -1.50504 0
M  V30 3382 C 319.04 0.0884469 -2.01906 0
M  V30 3383 C 319.361 1.40532 -1.35188 0
M  V30 3384 O 318.631 1.89515 -0.496079 0
M  V30 3385 H 317.211 0.0356765 -0.746148 0
M  V30 3386 H 319.873 -0.6172 -1.84869 0
M  V30 3387 H 318.969 0.2425 -3.11156 0
M  V30 3388 N 319.27 1.56325 -0.20005 0
M  V30 3389 C 320.495 2.02548 0.44597 0
M  V30 3390 C 320.92 1.07922 1.5406 0
M  V30 3391 O 320.278 0.0635775 1.81188 0
M  V30 3392 C 320.326 3.47175 0.974761 0
M  V30 3393 O 319.43 3.55671 2.08739 0
M  V30 3394 H 318.771 0.655862 0.103638 0
M  V30 3395 H 321.301 2.02201 -0.312381 0
M  V30 3396 H 321.311 3.87067 1.2901 0
M  V30 3397 H 319.986 4.15538 0.17347 0
M  V30 3398 H 318.563 3.27657 1.78032 0
M  V30 3399 N 320.748 -0.0735177 1.57428 0
M  V30 3400 C 321.994 -0.768909 1.88307 0
M  V30 3401 C 322.349 -1.75273 0.793535 0
M  V30 3402 O 321.642 -1.90527 -0.202466 0
M  V30 3403 C 321.836 -1.51799 3.23561 0
M  V30 3404 C 321.665 -0.608217 4.45568 0
M  V30 3405 C 320.435 -0.245808 5.04702 0
M  V30 3406 C 322.633 0.0942904 5.14214 0
M  V30 3407 N 320.615 0.66987 6.10234 0
M  V30 3408 C 321.986 0.867222 6.13905 0
M  V30 3409 C 324.041 0.165943 4.97623 0
M  V30 3410 C 322.744 1.70515 6.98797 0
M  V30 3411 C 324.77 0.990837 5.83041 0
M  V30 3412 C 324.132 1.75182 6.82269 0
M  V30 3413 H 320.231 -0.25685 0.738615 0
M  V30 3414 H 322.815 -0.030499 1.94676 0
M  V30 3415 H 320.986 -2.22713 3.18203 0
M  V30 3416 H 322.718 -2.16226 3.42094 0
M  V30 3417 H 319.473 -0.598284 4.69806 0
M  V30 3418 H 319.897 1.1209 6.67656 0
M  V30 3419 H 324.539 -0.408064 4.20826 0
M  V30 3420 H 322.257 2.29013 7.7497 0
M  V30 3421 H 325.843 1.04923 5.72261 0
M  V30 3422 H 324.723 2.37983 7.47217 0
M  V30 3423 N 322.226 -1.5378 -0.344866 0
M  V30 3424 C 323.136 -1.84667 -1.4469 0
M  V30 3425 C 324.152 -0.736704 -1.57635 0
M  V30 3426 O 325.328 -1.02888 -1.73136 0
M  V30 3427 C 322.393 -2.04869 -2.79696 0
M  V30 3428 C 321.454 -3.28731 -2.76106 0
M  V30 3429 C 320.687 -3.4796 -4.04673 0
M  V30 3430 O 320.91 -2.71052 -5.01883 0
M  V30 3431 O 319.844 -4.41383 -4.09224 0
M  V30 3432 H 323.67 -2.78334 -1.21506 0
M  V30 3433 H 321.255 -1.39418 -0.536921 0
M  V30 3434 H 323.137 -2.19609 -3.59652 0
M  V30 3435 H 321.812 -1.14391 -3.02814 0
M  V30 3436 H 320.719 -3.19396 -1.94774 0
M  V30 3437 H 322.052 -4.19198 -2.57941 0
M  V30 3438 N 323.704 0.605807 -1.45491 0
M  V30 3439 C 324.651 1.7164 -1.54299 0
M  V30 3440 C 325.621 1.61486 -0.388761 0
M  V30 3441 O 326.806 1.81039 -0.602445 0
M  V30 3442 C 323.946 3.09953 -1.51734 0
M  V30 3443 C 323.059 3.309 -2.77721 0
M  V30 3444 C 322.194 4.59329 -2.66816 0
M  V30 3445 C 321.233 4.7354 -3.87848 0
M  V30 3446 N 320.37 5.9327 -3.75467 0
M  V30 3447 H 325.21 1.63449 -2.49176 0
M  V30 3448 H 322.747 0.796957 -1.23641 0
M  V30 3449 H 324.705 3.89977 -1.48235 0
M  V30 3450 H 323.335 3.17098 -0.604068 0
M  V30 3451 H 322.387 2.44639 -2.913 0
M  V30 3452 H 323.699 3.37274 -3.67488 0
M  V30 3453 H 322.853 5.4755 -2.61292 0
M  V30 3454 H 321.592 4.55355 -1.74651 0
M  V30 3455 H 320.597 3.83741 -3.93729 0
M  V30 3456 H 321.822 4.79309 -4.81082 0
M  V30 3457 H 319.768 5.90338 -2.86072 0
M  V30 3458 H 319.685 6.00811 -4.5887 0
M  V30 3459 H 320.953 6.83984 -3.73879 0
M  V30 3460 N 325.182 1.32811 0.848464 0
M  V30 3461 C 326.428 1.23907 1.60546 0
M  V30 3462 C 326.761 -0.197161 1.93197 0
M  V30 3463 O 326.036 -1.13596 1.5788 0
M  V30 3464 C 326.319 2.10489 2.92175 0
M  V30 3465 C 326.172 3.62522 2.66266 0
M  V30 3466 C 327.491 1.97075 3.93509 0
M  V30 3467 H 324.61 0.451459 0.58254 0
M  V30 3468 H 327.252 1.62818 0.979296 0
M  V30 3469 H 325.402 1.77434 3.45614 0
M  V30 3470 H 327.074 4.05821 2.19334 0
M  V30 3471 H 325.317 3.84879 2.00126 0
M  V30 3472 H 325.988 4.18437 3.6002 0
M  V30 3473 H 328.464 2.26045 3.49346 0
M  V30 3474 H 327.34 2.59923 4.83457 0
M  V30 3475 H 327.601 0.940186 4.31987 0
M  V30 3476 N 326.66 -1.06551 1.16123 0
M  V30 3477 C 327.888 -1.83005 0.965237 0
M  V30 3478 C 328.303 -1.82423 -0.486542 0
M  V30 3479 O 327.66 -1.24152 -1.33763 0
M  V30 3480 C 327.711 -3.29733 1.48183 0
M  V30 3481 O 327.432 -3.30416 2.87674 0
M  V30 3482 C 328.933 -4.22926 1.32848 0
M  V30 3483 H 326.153 -0.577118 0.342309 0
M  V30 3484 H 328.697 -1.3445 1.54089 0
M  V30 3485 H 326.852 -3.75609 0.948517 0
M  V30 3486 H 327.266 -4.22149 3.11272 0
M  V30 3487 H 328.74 -5.23916 1.73827 0
M  V30 3488 H 329.217 -4.38346 0.273692 0
M  V30 3489 H 329.823 -3.82894 1.85127 0
M  V30 3490 N 328.138 -0.959301 -1.25041 0
M  V30 3491 C 329.386 -0.615393 -1.92503 0
M  V30 3492 C 329.707 0.850969 -1.75452 0
M  V30 3493 O 328.977 1.60658 -1.12098 0
M  V30 3494 H 327.557 -0.224613 -0.712431 0
M  V30 3495 H 330.219 -1.21855 -1.5211 0
M  V30 3496 H 329.315 -0.848738 -3.00338 0
M  V30 3497 N 329.616 1.39756 -0.72842 0
M  V30 3498 C 330.566 2.2792 -0.0603424 0
M  V30 3499 C 331.55 1.43922 0.719399 0
M  V30 3500 O 332.742 1.66895 0.589489 0
M  V30 3501 C 329.871 3.32582 0.851104 0
M  V30 3502 C 328.957 4.24049 0.0658641 0
M  V30 3503 N 329.348 4.96653 -0.957578 0
M  V30 3504 C 327.646 4.45013 0.296509 0
M  V30 3505 C 328.347 5.63836 -1.43052 0
M  V30 3506 N 327.323 5.38397 -0.750315 0
M  V30 3507 H 331.125 2.81504 -0.84455 0
M  V30 3508 H 328.639 1.5236 -0.562155 0
M  V30 3509 H 330.636 3.94603 1.34514 0
M  V30 3510 H 329.296 2.80558 1.63454 0
M  V30 3511 H 330.307 5.00297 -1.33877 0
M  V30 3512 H 326.984 4.03943 1.05527 0
M  V30 3513 H 328.374 6.31974 -2.28163 0
M  V30 3514 N 331.094 0.475555 1.50254 0
M  V30 3515 C 332.042 -0.330276 2.30243 0
M  V30 3516 C 333.036 -0.986306 1.37726 0
M  V30 3517 O 334.242 -0.9169 1.54897 0
M  V30 3518 H 330.617 -0.125353 0.741479 0
M  V30 3519 H 332.588 0.364702 2.96163 0
M  V30 3520 C 331.337 -1.39704 3.18399 0
M  V30 3521 H 330.66 -0.901621 3.89501 0
M  V30 3522 H 332.1 -1.93336 3.77355 0
M  V30 3523 C 330.559 -2.4014 2.36293 0
M  V30 3524 O 331.089 -3.45504 2.04914 0
M  V30 3525 N 329.295 -2.1197 1.98789 0
M  V30 3526 H 328.842 -1.2631 2.24507 0
M  V30 3527 H 328.8 -2.79403 1.44157 0
M  V30 3528 N 332.573 -1.56217 0.208337 0
M  V30 3529 C 333.798 -2.02782 -0.435222 0
M  V30 3530 C 334.223 -1.08738 -1.53485 0
M  V30 3531 O 333.581 -0.0731855 -1.81152 0
M  V30 3532 C 333.629 -3.47687 -0.956335 0
M  V30 3533 O 332.733 -3.56773 -2.06849 0
M  V30 3534 H 332.074 -0.656403 -0.100158 0
M  V30 3535 H 334.604 -2.02033 0.3231 0
M  V30 3536 H 334.614 -3.87745 -1.26955 0
M  V30 3537 H 333.289 -4.15624 -0.15143 0
M  V30 3538 H 331.866 -3.28597 -1.76292 0
M  V30 3539 N 334.051 0.0651679 -1.57465 0
M  V30 3540 C 335.462 0.616213 -1.76238 0
M  V30 3541 C 335.813 1.7756 -0.834689 0
M  V30 3542 O 334.938 2.1639 -0.0204156 0
M  V30 3543 C 335.533 1.12462 -3.1959 0
M  V30 3544 C 334.092 1.62147 -3.39684 0
M  V30 3545 C 333.239 0.543739 -2.71917 0
M  V30 3546 H 336.19 -0.161022 -1.57881 0
M  V30 3547 H 336.211 1.99324 -3.24114 0
M  V30 3548 H 335.723 0.280592 -3.87084 0
M  V30 3549 H 333.824 2.48854 -2.77313 0
M  V30 3550 H 333.937 1.69385 -4.48158 0
M  V30 3551 H 332.301 0.990352 -2.34657 0
M  V30 3552 H 333.084 -0.290216 -3.42071 0
M  V30 3553 N 335.529 1.53961 0.336706 0
M  V30 3554 C 336.459 1.85417 1.41925 0
M  V30 3555 C 337.44 0.709856 1.5458 0
M  V30 3556 O 338.625 0.962396 1.68676 0
M  V30 3557 C 335.755 2.06985 2.78881 0
M  V30 3558 C 334.709 3.22813 2.81026 0
M  V30 3559 C 334.035 3.29727 4.20932 0
M  V30 3560 C 335.335 4.60767 2.45949 0
M  V30 3561 H 337.029 2.76079 1.15848 0
M  V30 3562 H 334.575 1.32839 0.555859 0
M  V30 3563 H 336.528 2.27575 3.54665 0
M  V30 3564 H 335.252 1.13061 3.06406 0
M  V30 3565 H 333.911 3.0209 2.07695 0
M  V30 3566 H 333.559 2.33385 4.45579 0
M  V30 3567 H 333.259 4.07566 4.23277 0
M  V30 3568 H 334.783 3.52536 4.98549 0
M  V30 3569 H 336.197 4.81325 3.11446 0
M  V30 3570 H 334.594 5.4106 2.59566 0
M  V30 3571 H 335.664 4.6391 1.41122 0
M  V30 3572 N 337.007 -0.598083 1.45811 0
M  V30 3573 C 338.237 -1.38121 1.53643 0
M  V30 3574 C 338.645 -1.88425 0.171081 0
M  V30 3575 O 337.988 -1.63409 -0.839237 0
M  V30 3576 C 338.05 -2.61432 2.46766 0
M  V30 3577 C 337.714 -2.32702 3.93318 0
M  V30 3578 C 338.711 -1.92479 4.82957 0
M  V30 3579 C 336.396 -2.45321 4.38318 0
M  V30 3580 C 338.39 -1.65248 6.15607 0
M  V30 3581 C 336.077 -2.17703 5.71007 0
M  V30 3582 C 337.075 -1.7773 6.5947 0
M  V30 3583 O 336.763 -1.50441 7.89698 0
M  V30 3584 H 336.495 -0.428863 0.522544 0
M  V30 3585 H 339.049 -0.73557 1.91777 0
M  V30 3586 H 337.279 -3.28749 2.0362 0
M  V30 3587 H 338.968 -3.23487 2.45175 0
M  V30 3588 H 339.734 -1.82258 4.49452 0
M  V30 3589 H 335.613 -2.75399 3.69697 0
M  V30 3590 H 339.157 -1.33973 6.84614 0
M  V30 3591 H 335.054 -2.27544 6.04065 0
M  V30 3592 H 335.822 -1.64415 8.01817 0
M  V30 3593 N 338.485 -1.33259 -0.841409 0
M  V30 3594 C 339.432 -1.23302 -1.95103 0
M  V30 3595 C 340.402 -0.112204 -1.65721 0
M  V30 3596 O 341.587 -0.290038 -1.88583 0
M  V30 3597 C 338.727 -0.975583 -3.31023 0
M  V30 3598 C 337.84 -2.18243 -3.72819 0
M  V30 3599 C 336.975 -1.85936 -4.97595 0
M  V30 3600 C 336.014 -3.02866 -5.3192 0
M  V30 3601 N 335.151 -2.70565 -6.47873 0
M  V30 3602 H 339.991 -2.18207 -2.02952 0
M  V30 3603 H 337.528 -1.0851 -0.993173 0
M  V30 3604 H 339.486 -0.80677 -4.09325 0
M  V30 3605 H 338.116 -0.0632755 -3.22738 0
M  V30 3606 H 337.168 -2.46107 -2.90061 0
M  V30 3607 H 338.48 -3.05666 -3.94169 0
M  V30 3608 H 337.634 -1.65684 -5.83638 0
M  V30 3609 H 336.373 -0.957452 -4.78209 0
M  V30 3610 H 335.378 -3.23736 -4.44382 0
M  V30 3611 H 336.603 -3.93809 -5.53255 0
M  V30 3612 H 334.549 -1.8293 -6.29978 0
M  V30 3613 H 334.466 -3.51519 -6.69306 0
M  V30 3614 H 335.734 -2.53774 -7.37034 0
M  V30 3615 N 339.963 1.05934 -1.16686 0
M  V30 3616 C 341.379 1.30938 -0.912542 0
M  V30 3617 C 341.579 1.96803 0.432533 0
M  V30 3618 O 340.635 2.23693 1.17123 0
M  V30 3619 C 341.948 2.18649 -2.06429 0
M  V30 3620 C 343.496 2.32055 -2.10047 0
M  V30 3621 C 343.971 3.23122 -3.24586 0
M  V30 3622 N 345.462 3.30706 -3.24327 0
M  V30 3623 C 346.197 4.01273 -4.09594 0
M  V30 3624 N 345.693 4.74332 -5.04956 0
M  V30 3625 N 347.486 3.97361 -3.97569 0
M  V30 3626 H 339.637 0.615777 -2.03278 0
M  V30 3627 H 341.9 0.334077 -0.887185 0
M  V30 3628 H 341.606 1.77534 -3.03603 0
M  V30 3629 H 341.48 3.19252 -2.00894 0
M  V30 3630 H 343.867 2.72415 -1.13464 0
M  V30 3631 H 343.948 1.31107 -2.19647 0
M  V30 3632 H 343.592 2.83477 -4.2143 0
M  V30 3633 H 343.522 4.24057 -3.12223 0
M  V30 3634 H 346.013 2.78644 -2.55276 0
M  V30 3635 H 346.326 5.25716 -5.6643 0
M  V30 3636 H 344.671 4.733 -5.08933 0
M  V30 3637 H 347.862 3.39405 -3.22369 0
M  V30 3638 H 348.035 4.52089 -4.64241 0
M  V30 3639 N 341.441 0.965919 1.2453 0
M  V30 3640 C 342.373 0.452465 2.2469 0
M  V30 3641 C 343.386 -0.437821 1.56802 0
M  V30 3642 O 344.575 -0.244283 1.76821 0
M  V30 3643 C 341.675 -0.366258 3.36915 0
M  V30 3644 C 340.848 0.513701 4.34373 0
M  V30 3645 C 339.907 -0.248716 5.25612 0
M  V30 3646 O 338.933 0.356745 5.68081 0
M  V30 3647 N 340.135 -1.53877 5.59734 0
M  V30 3648 H 342.9 1.31361 2.69378 0
M  V30 3649 H 340.461 0.837541 1.38553 0
M  V30 3650 H 342.453 -0.884297 3.94921 0
M  V30 3651 H 341.023 -1.12832 2.91526 0
M  V30 3652 H 340.243 1.21273 3.75082 0
M  V30 3653 H 341.531 1.11391 4.96457 0
M  V30 3654 H 340.929 -2.05243 5.27154 0
M  V30 3655 H 339.486 -2.00254 6.20275 0
M  V30 3656 N 342.919 -1.39368 0.735821 0
M  V30 3657 C 343.829 -2.34395 0.0979693 0
M  V30 3658 C 344.845 -1.58361 -0.720968 0
M  V30 3659 O 346.021 -1.90648 -0.649245 0
M  V30 3660 C 343.086 -3.37393 -0.797916 0
M  V30 3661 C 342.147 -4.29287 0.0333662 0
M  V30 3662 C 341.38 -5.27365 -0.819854 0
M  V30 3663 O 341.603 -5.31959 -2.05855 0
M  V30 3664 O 340.537 -6.01389 -0.248079 0
M  V30 3665 H 344.363 -2.90601 0.882315 0
M  V30 3666 H 341.948 -1.40909 0.4965 0
M  V30 3667 H 343.83 -4.00505 -1.31048 0
M  V30 3668 H 342.505 -2.83571 -1.56106 0
M  V30 3669 H 341.412 -3.69395 0.591475 0
M  V30 3670 H 342.745 -4.86317 0.758752 0
M  V30 3671 N 344.397 -0.483516 -1.5 0
M  V30 3672 C 345.307 0.309172 -2.32554 0
M  V30 3673 C 346.323 0.984159 -1.43493 0
M  V30 3674 O 347.499 0.969399 -1.76535 0
M  V30 3675 C 344.564 1.36979 -3.18493 0
M  V30 3676 C 343.625 0.710095 -4.23387 0
M  V30 3677 C 342.858 1.72018 -5.05218 0
M  V30 3678 O 343.081 2.94813 -4.88305 0
M  V30 3679 O 342.015 1.28515 -5.8802 0
M  V30 3680 H 345.841 -0.366064 -3.01486 0
M  V30 3681 H 343.426 -0.24514 -1.47375 0
M  V30 3682 H 345.308 1.98385 -3.71781 0
M  V30 3683 H 343.983 2.02828 -2.52275 0
M  V30 3684 H 342.89 0.0567539 -3.74057 0
M  V30 3685 H 344.223 0.0943557 -4.9211 0
M  V30 3686 N 345.875 1.56104 -0.216619 0
M  V30 3687 C 347.1 2.0301 0.424462 0
M  V30 3688 C 347.525 1.0955 1.52907 0
M  V30 3689 O 346.883 0.0827914 1.81111 0
M  V30 3690 C 346.931 3.4819 0.937883 0
M  V30 3691 O 346.035 3.57865 2.04955 0
M  V30 3692 H 345.376 0.656925 0.0966755 0
M  V30 3693 H 347.906 2.01859 -0.33381 0
M  V30 3694 H 347.916 3.88413 1.24897 0
M  V30 3695 H 346.591 4.15699 0.129387 0
M  V30 3696 H 345.168 3.29527 1.74546 0
M  V30 3697 N 347.353 -0.0568162 1.57498 0
M  V30 3698 C 348.601 -0.751617 1.87604 0
M  V30 3699 C 348.922 -1.77351 0.81066 0
M  V30 3700 O 348.192 -1.95254 -0.159018 0
M  V30 3701 H 346.772 -0.280583 0.692302 0
M  V30 3702 H 349.434 -0.0293483 1.94878 0
M  V30 3703 H 348.53 -1.25852 2.856 0
M  V30 3704 N 348.832 -1.54138 -0.328536 0
M  V30 3705 C 349.795 -1.82462 -1.38709 0
M  V30 3706 C 350.795 -0.696229 -1.44946 0
M  V30 3707 O 351.985 -0.964535 -1.4506 0
M  V30 3708 C 349.117 -1.98018 -2.77492 0
M  V30 3709 H 350.31 -2.77037 -1.14851 0
M  V30 3710 H 347.863 -1.45779 -0.563751 0
M  V30 3711 H 348.598 -1.05637 -3.06613 0
M  V30 3712 H 348.383 -2.80124 -2.74359 0
M  V30 3713 H 349.873 -2.21396 -3.54081 0
M  V30 3714 N 350.31 0.590341 -1.46126 0
M  V30 3715 C 351.273 1.68194 -1.55703 0
M  V30 3716 C 352.273 1.54808 -0.434868 0
M  V30 3717 O 353.463 1.59564 -0.698928 0
M  V30 3718 C 350.595 3.07575 -1.47005 0
M  V30 3719 H 351.788 1.61064 -2.52979 0
M  V30 3720 H 349.341 0.807541 -1.33823 0
M  V30 3721 H 350.076 3.20268 -0.509785 0
M  V30 3722 H 349.861 3.187 -2.28414 0
M  V30 3723 H 351.351 3.87055 -1.56776 0
M  V30 3724 N 351.788 1.33704 0.83433 0
M  V30 3725 C 352.751 1.24244 1.92603 0
M  V30 3726 C 353.751 0.160383 1.59998 0
M  V30 3727 O 354.941 0.412228 1.69252 0
M  V30 3728 C 352.073 0.91555 3.28376 0
M  V30 3729 H 353.266 2.21287 2.02416 0
M  V30 3730 H 350.819 1.17827 1.02696 0
M  V30 3731 H 351.554 -0.0521886 3.24258 0
M  V30 3732 H 351.339 1.69811 3.53422 0
M  V30 3733 H 352.829 0.874231 4.08347 0
M  V30 3734 N 353.266 -1.05314 1.17247 0
M  V30 3735 C 354.491 -1.82509 0.985148 0
M  V30 3736 C 354.916 -1.82343 -0.461788 0
M  V30 3737 O 354.274 -1.23151 -1.33055 0
M  V30 3738 C 354.322 -3.26566 1.52929 0
M  V30 3739 O 353.426 -4.05666 0.742225 0
M  V30 3740 H 352.767 -0.564347 0.349869 0
M  V30 3741 H 355.297 -1.32718 1.55715 0
M  V30 3742 H 355.307 -3.77369 1.55103 0
M  V30 3743 H 353.982 -3.26001 2.58256 0
M  V30 3744 H 352.559 -3.64397 0.791794 0
M  V30 3745 N 354.744 -0.972509 -1.24016 0
M  V30 3746 C 355.674 -0.525548 -2.27509 0
M  V30 3747 C 356.655 0.437262 -1.64384 0
M  V30 3748 O 357.84 0.332343 -1.91335 0
M  V30 3749 C 354.97 0.180448 -3.46831 0
M  V30 3750 C 353.924 -0.698859 -4.22256 0
M  V30 3751 C 353.25 0.138903 -5.3452 0
M  V30 3752 C 354.55 -1.98582 -4.83076 0
M  V30 3753 H 356.244 -1.39058 -2.65148 0
M  V30 3754 H 353.79 -0.67009 -1.27459 0
M  V30 3755 H 355.743 0.504387 -4.18371 0
M  V30 3756 H 354.467 1.07987 -3.08231 0
M  V30 3757 H 353.126 -1.00614 -3.52523 0
M  V30 3758 H 352.774 1.03862 -4.9216 0
M  V30 3759 H 352.474 -0.446259 -5.85903 0
M  V30 3760 H 353.998 0.457404 -6.08884 0
M  V30 3761 H 355.412 -1.72715 -5.46665 0
M  V30 3762 H 353.809 -2.5181 -5.44713 0
M  V30 3763 H 354.879 -2.67769 -4.04262 0
M  V30 3764 N 356.222 1.38976 -0.743202 0
M  V30 3765 C 357.17 2.32394 -0.0978389 0
M  V30 3766 C 358.164 1.53486 0.716824 0
M  V30 3767 O 359.37 1.69092 0.617088 0
M  V30 3768 H 355.745 0.75189 -0.0128402 0
M  V30 3769 H 357.716 2.84441 -0.901981 0
M  V30 3770 C 356.465 3.38629 0.789036 0
M  V30 3771 H 355.788 3.99432 0.171559 0
M  V30 3772 H 357.228 4.06426 1.20807 0
M  V30 3773 C 355.687 2.76347 1.92702 0
M  V30 3774 O 356.217 2.64836 3.02034 0
M  V30 3775 N 354.423 2.34311 1.71891 0
M  V30 3776 H 353.97 2.43873 0.829675 0
M  V30 3777 H 353.928 1.9298 2.48205 0
M  V30 3778 N 357.7 0.491464 1.49741 0
M  V30 3779 C 358.946 -0.0565092 2.02721 0
M  V30 3780 C 359.279 -1.37522 1.37118 0
M  V30 3781 O 358.554 -1.87866 0.503645 0
M  V30 3782 C 358.837 -0.219051 3.59433 0
M  V30 3783 C 358.69 1.12211 4.35579 0
M  V30 3784 C 360.009 -0.964157 4.29409 0
M  V30 3785 H 357.128 -0.0190627 0.736753 0
M  V30 3786 H 359.77 0.641021 1.7886 0
M  V30 3787 H 357.92 -0.813165 3.79895 0
M  V30 3788 H 359.592 1.75437 4.26637 0
M  V30 3789 H 357.835 1.71377 3.98513 0
M  V30 3790 H 358.506 0.961794 5.43556 0
M  V30 3791 H 360.982 -0.460378 4.13545 0
M  V30 3792 H 359.858 -1.04671 5.38828 0
M  V30 3793 H 360.119 -2.00563 3.93988 0
M  V30 3794 N 359.178 -1.55987 0.224894 0
M  V30 3795 C 360.455 -1.90232 -0.455083 0
M  V30 3796 C 360.835 -1.14269 -1.77499 0
M  V30 3797 O 360.183 -0.253079 -2.27094 0
M  V30 3798 C 360.393 -3.42993 -0.644758 0
M  V30 3799 C 361.741 -4.13821 -0.950669 0
M  V30 3800 O 362.765 -3.4861 -0.731423 0
M  V30 3801 O 361.624 -5.29128 -1.36695 0
M  V30 3802 H 358.718 -0.79108 -0.241084 0
M  V30 3803 H 361.264 -1.67581 0.267327 0
M  V30 3804 H 360.036 -3.90252 0.28613 0
M  V30 3805 H 359.659 -3.71434 -1.41853 0
M  V30 3806 N 360.656 0.0484629 -1.57525 0
M  V30 3807 C 361.619 1.03956 -2.04269 0
M  V30 3808 C 362.619 1.30211 -0.943496 0
M  V30 3809 O 363.809 1.25539 -1.20771 0
M  V30 3810 C 360.941 2.37742 -2.44319 0
M  V30 3811 H 362.134 0.636182 -2.93075 0
M  V30 3812 H 359.687 0.294811 -1.53494 0
M  V30 3813 H 360.422 2.82866 -1.5861 0
M  V30 3814 H 360.207 2.20021 -3.24551 0
M  V30 3815 H 361.697 3.08936 -2.80978 0
M  V30 3816 N 362.134 1.5431 0.320358 0
M  V30 3817 C 363.097 1.83195 1.3774 0
M  V30 3818 C 364.097 0.703906 1.44575 0
M  V30 3819 O 365.287 0.972214 1.44546 0
M  V30 3820 C 362.419 1.99487 2.76438 0
M  V30 3821 H 363.612 2.77642 1.1338 0
M  V30 3822 H 361.165 1.46076 0.556012 0
M  V30 3823 H 361.9 1.07262 3.06048 0
M  V30 3824 H 361.685 2.81575 2.7287 0
M  V30 3825 H 363.175 2.23271 3.52902 0
M  V30 3826 N 363.613 -0.582584 1.46437 0
M  V30 3827 C 364.859 -1.34278 1.51978 0
M  V30 3828 C 365.192 -1.93446 0.170973 0
M  V30 3829 O 364.467 -1.76481 -0.817608 0
M  V30 3830 C 364.75 -2.47203 2.61845 0
M  V30 3831 C 364.603 -1.93069 4.06257 0
M  V30 3832 C 365.922 -3.49247 2.67795 0
M  V30 3833 H 363.041 -0.486876 0.553282 0
M  V30 3834 H 365.683 -0.654437 1.78374 0
M  V30 3835 H 363.833 -3.0592 2.39469 0
M  V30 3836 H 365.505 -1.38808 4.3992 0
M  V30 3837 H 363.748 -1.23898 4.1573 0
M  V30 3838 H 364.419 -2.74586 4.7886 0
M  V30 3839 H 366.895 -3.00411 2.8791 0
M  V30 3840 H 365.771 -4.25719 3.46489 0
M  V30 3841 H 366.032 -4.06482 1.73852 0
M  V30 3842 N 365.091 -1.34144 -0.827227 0
M  V30 3843 C 366.023 -1.21206 -1.9453 0
M  V30 3844 C 367.036 -0.140176 -1.62195 0
M  V30 3845 O 368.225 -0.391647 -1.7415 0
M  V30 3846 C 365.325 -0.839141 -3.28347 0
M  V30 3847 C 364.498 -2.0051 -3.88734 0
M  V30 3848 C 363.557 -1.61128 -5.00923 0
M  V30 3849 O 362.583 -2.32726 -5.19449 0
M  V30 3850 N 363.785 -0.522958 -5.7814 0
M  V30 3851 H 366.55 -2.17525 -2.06162 0
M  V30 3852 H 364.111 -1.27043 -1.00358 0
M  V30 3853 H 366.103 -0.557556 -4.00841 0
M  V30 3854 H 364.673 0.0337293 -3.12582 0
M  V30 3855 H 363.893 -2.45166 -3.08686 0
M  V30 3856 H 365.181 -2.78498 -4.25812 0
M  V30 3857 H 364.579 0.0723518 -5.65654 0
M  V30 3858 H 363.136 -0.301089 -6.51104 0
M  V30 3859 N 366.569 1.04691 -1.17803 0
M  V30 3860 C 367.501 2.12571 -0.857097 0
M  V30 3861 C 368.514 1.62174 0.142647 0
M  V30 3862 O 369.703 1.78301 -0.0843387 0
M  V30 3863 C 366.803 3.37915 -0.258216 0
M  V30 3864 C 365.976 4.1757 -1.30207 0
M  V30 3865 C 365.035 5.2125 -0.720029 0
M  V30 3866 O 364.061 5.51888 -1.39314 0
M  V30 3867 N 365.263 5.78466 0.485507 0
M  V30 3868 H 368.028 2.40698 -1.78562 0
M  V30 3869 H 365.589 1.20831 -1.07757 0
M  V30 3870 H 367.581 4.04442 0.144584 0
M  V30 3871 H 366.151 3.07281 0.574199 0
M  V30 3872 H 365.371 3.46458 -1.88043 0
M  V30 3873 H 366.659 4.67586 -2.00601 0
M  V30 3874 H 366.057 5.55866 1.05022 0
M  V30 3875 H 364.614 6.4649 0.830307 0
M  V30 3876 N 368.047 0.979072 1.23499 0
M  V30 3877 C 369.293 0.6578 1.9247 0
M  V30 3878 C 369.648 -0.799746 1.74991 0
M  V30 3879 O 368.941 -1.56922 1.09937 0
M  V30 3880 C 369.135 0.981932 3.43646 0
M  V30 3881 C 368.964 2.46944 3.75831 0
M  V30 3882 C 367.734 3.13119 3.96591 0
M  V30 3883 C 369.932 3.45006 3.81412 0
M  V30 3884 N 367.914 4.51489 4.15969 0
M  V30 3885 C 369.285 4.68778 4.05768 0
M  V30 3886 C 371.34 3.39505 3.64198 0
M  V30 3887 C 370.043 5.87723 4.14697 0
M  V30 3888 C 372.069 4.57814 3.7438 0
M  V30 3889 C 371.431 5.80381 3.99171 0
M  V30 3890 H 367.53 0.291746 0.72554 0
M  V30 3891 H 370.114 1.25626 1.48749 0
M  V30 3892 H 368.285 0.412179 3.86207 0
M  V30 3893 H 370.017 0.618068 3.99953 0
M  V30 3894 H 366.772 2.63619 3.93449 0
M  V30 3895 H 367.196 5.23221 4.29615 0
M  V30 3896 H 371.838 2.45773 3.44029 0
M  V30 3897 H 369.556 6.81874 4.33675 0
M  V30 3898 H 373.142 4.55132 3.62417 0
M  V30 3899 H 372.022 6.70398 4.06861 0
M  V30 3900 N 369.525 -1.3858 0.750561 0
M  V30 3901 C 370.455 -2.33102 0.136237 0
M  V30 3902 C 371.436 -1.54713 -0.706965 0
M  V30 3903 O 372.621 -1.83043 -0.648769 0
M  V30 3904 C 369.751 -3.38882 -0.760017 0
M  V30 3905 C 368.705 -4.27995 -0.0197785 0
M  V30 3906 C 368.031 -5.24605 -1.03408 0
M  V30 3907 C 369.331 -5.09554 1.14684 0
M  V30 3908 H 371.025 -2.84726 0.925822 0
M  V30 3909 H 368.571 -1.36898 0.446654 0
M  V30 3910 H 370.524 -4.0397 -1.19943 0
M  V30 3911 H 369.248 -2.85734 -1.58189 0
M  V30 3912 H 367.907 -3.64409 0.400184 0
M  V30 3913 H 367.555 -4.67746 -1.84994 0
M  V30 3914 H 367.255 -5.85081 -0.543464 0
M  V30 3915 H 368.779 -5.9257 -1.47288 0
M  V30 3916 H 370.193 -5.67899 0.785118 0
M  V30 3917 H 368.59 -5.7925 1.56812 0
M  V30 3918 H 369.66 -4.4347 1.96118 0
M  V30 3919 N 371.003 -0.499398 -1.49478 0
M  V30 3920 C 371.935 0.316575 -2.27003 0
M  V30 3921 C 372.948 0.932047 -1.33479 0
M  V30 3922 O 374.137 0.815658 -1.58774 0
M  V30 3923 C 371.237 1.46055 -3.05812 0
M  V30 3924 C 370.41 0.952679 -4.26899 0
M  V30 3925 C 369.469 1.97407 -4.87767 0
M  V30 3926 O 368.495 1.54326 -5.4788 0
M  V30 3927 N 369.697 3.30436 -4.77276 0
M  V30 3928 H 372.462 -0.348168 -2.97671 0
M  V30 3929 H 370.023 -0.33185 -1.58463 0
M  V30 3930 H 372.015 2.14135 -3.43407 0
M  V30 3931 H 370.585 2.02948 -2.37762 0
M  V30 3932 H 369.805 0.0968248 -3.94081 0
M  V30 3933 H 371.093 0.59174 -5.05347 0
M  V30 3934 H 370.491 3.68126 -4.29534 0
M  V30 3935 H 369.048 3.94235 -5.19059 0
M  V30 3936 N 372.481 1.55866 -0.233164 0
M  V30 3937 C 373.428 2.20796 0.67215 0
M  V30 3938 C 374.398 1.16731 1.18166 0
M  V30 3939 O 375.583 1.45129 1.23864 0
M  V30 3940 C 372.723 2.90072 1.86955 0
M  V30 3941 C 371.836 4.08759 1.39786 0
M  V30 3942 C 370.971 4.65787 2.55374 0
M  V30 3943 C 370.01 5.76752 2.04998 0
M  V30 3944 N 369.147 6.28021 3.13901 0
M  V30 3945 H 373.987 2.9779 0.111749 0
M  V30 3946 H 371.524 1.47036 0.0434007 0
M  V30 3947 H 373.482 3.28428 2.57276 0
M  V30 3948 H 372.112 2.15575 2.40265 0
M  V30 3949 H 371.164 3.7581 0.589173 0
M  V30 3950 H 372.476 4.88906 0.98856 0
M  V30 3951 H 371.63 5.06646 3.33758 0
M  V30 3952 H 370.369 3.84828 2.99598 0
M  V30 3953 H 369.374 5.35383 1.25079 0
M  V30 3954 H 370.599 6.59553 1.61759 0
M  V30 3955 H 368.545 5.49971 3.57586 0
M  V30 3956 H 368.462 7.03323 2.7726 0
M  V30 3957 H 369.73 6.73538 3.92386 0
M  V30 3958 N 373.959 -0.0401083 1.57549 0
M  V30 3959 C 375.207 -0.731677 1.8839 0
M  V30 3960 C 375.528 -1.76481 0.829425 0
M  V30 3961 O 374.798 -1.95411 -0.1383 0
M  V30 3962 H 373.378 -0.273225 0.695239 0
M  V30 3963 H 376.04 -0.00867725 1.94898 0
M  V30 3964 H 375.136 -1.22816 2.86919 0
M  V30 3965 N 375.437 -1.54477 -0.31217 0
M  V30 3966 C 376.665 -1.77205 -1.068 0
M  V30 3967 C 377.08 -0.526114 -1.81321 0
M  V30 3968 O 376.437 0.503647 -1.75413 0
M  V30 3969 C 376.488 -2.97253 -2.05725 0
M  V30 3970 O 376.209 -4.1703 -1.34228 0
M  V30 3971 C 377.71 -3.32281 -2.93435 0
M  V30 3972 H 374.93 -0.591287 -0.317208 0
M  V30 3973 H 377.474 -2.01398 -0.354834 0
M  V30 3974 H 375.629 -2.753 -2.72559 0
M  V30 3975 H 376.043 -4.84636 -2.00571 0
M  V30 3976 H 377.517 -4.19551 -3.58721 0
M  V30 3977 H 377.994 -2.49945 -3.61143 0
M  V30 3978 H 378.6 -3.56353 -2.32147 0
M  V30 3979 N 376.915 0.57481 -1.46744 0
M  V30 3980 C 378.326 1.15695 -1.46532 0
M  V30 3981 C 378.677 1.95068 -0.210425 0
M  V30 3982 O 377.802 2.05241 0.685944 0
M  V30 3983 C 378.397 2.1048 -2.65487 0
M  V30 3984 C 376.956 2.64002 -2.68291 0
M  V30 3985 C 376.103 1.40026 -2.39349 0
M  V30 3986 H 379.054 0.362325 -1.54509 0
M  V30 3987 H 379.075 2.94074 -2.41455 0
M  V30 3988 H 378.587 1.52683 -3.56805 0
M  V30 3989 H 376.688 3.25646 -1.81067 0
M  V30 3990 H 376.801 3.06197 -3.68483 0
M  V30 3991 H 375.165 1.70106 -1.89568 0
M  V30 3992 H 375.948 0.840485 -3.32852 0
M  V30 3993 N 378.394 1.34581 0.820102 0
M  V30 3994 C 379.357 1.2628 1.91275 0
M  V30 3995 C 380.357 0.177344 1.59819 0
M  V30 3996 O 381.547 0.430156 1.68806 0
M  V30 3997 C 378.679 0.950327 3.27386 0
M  V30 3998 H 379.872 2.23421 2.00057 0
M  V30 3999 H 377.425 1.1891 1.0144 0
M  V30 4000 H 378.16 -0.0177938 3.24295 0
M  V30 4001 H 377.945 1.73549 3.51601 0
M  V30 4002 H 379.435 0.917492 4.07396 0
M  V30 4003 N 379.872 -1.04064 1.18357 0
M  V30 4004 C 381.097 -1.81454 1.00445 0
M  V30 4005 C 381.522 -1.82823 -0.442423 0
M  V30 4006 O 380.88 -1.24555 -1.31741 0
M  V30 4007 C 380.928 -3.24925 1.56384 0
M  V30 4008 O 380.032 -4.04856 0.785209 0
M  V30 4009 H 379.373 -0.560604 0.355835 0
M  V30 4010 H 381.903 -1.31059 1.57114 0
M  V30 4011 H 381.913 -3.75702 1.59097 0
M  V30 4012 H 380.588 -3.23244 2.61699 0
M  V30 4013 H 379.165 -3.63537 0.830399 0
M  V30 4014 N 381.35 -0.985608 -1.22978 0
M  V30 4015 C 382.297 -0.529825 -2.24636 0
M  V30 4016 C 383.267 0.434028 -1.60329 0
M  V30 4017 O 384.452 0.340414 -1.87739 0
M  V30 4018 C 381.592 0.156533 -3.44745 0
M  V30 4019 C 380.705 -0.848197 -4.23591 0
M  V30 4020 C 379.84 -0.136109 -5.31026 0
M  V30 4021 C 378.879 -1.1297 -6.01585 0
M  V30 4022 N 378.016 -0.446415 -7.00679 0
M  V30 4023 H 382.856 -1.40148 -2.62988 0
M  V30 4024 H 380.393 -0.702168 -1.29259 0
M  V30 4025 H 382.351 0.571324 -4.1327 0
M  V30 4026 H 380.981 0.992025 -3.07179 0
M  V30 4027 H 380.033 -1.38135 -3.54433 0
M  V30 4028 H 381.345 -1.60512 -4.72268 0
M  V30 4029 H 380.499 0.335784 -6.0577 0
M  V30 4030 H 379.238 0.653373 -4.83304 0
M  V30 4031 H 378.243 -1.6123 -5.25628 0
M  V30 4032 H 379.468 -1.91993 -6.51395 0
M  V30 4033 H 377.414 0.323763 -6.55201 0
M  V30 4034 H 377.331 -1.1419 -7.47326 0
M  V30 4035 H 378.599 0.00291697 -7.795 0
M  V30 4036 N 382.828 1.3818 -0.7579 0
M  V30 4037 C 383.758 2.33027 -0.148597 0
M  V30 4038 C 384.739 1.55085 0.69875 0
M  V30 4039 O 385.924 1.83384 0.639053 0
M  V30 4040 C 383.054 3.3928 0.742034 0
M  V30 4041 C 382.008 4.28 -0.00291946 0
M  V30 4042 C 381.334 5.25146 1.00625 0
M  V30 4043 C 382.634 5.08938 -1.17385 0
M  V30 4044 H 384.328 2.84231 -0.940909 0
M  V30 4045 H 381.874 1.36659 -0.453908 0
M  V30 4046 H 383.827 4.046 1.17799 0
M  V30 4047 H 382.551 2.86569 1.56671 0
M  V30 4048 H 381.21 3.64192 -0.419504 0
M  V30 4049 H 380.858 4.68721 1.8251 0
M  V30 4050 H 380.558 5.85361 0.512428 0
M  V30 4051 H 382.082 5.93342 1.44143 0
M  V30 4052 H 383.496 5.67474 -0.815224 0
M  V30 4053 H 381.893 5.7841 -1.59882 0
M  V30 4054 H 382.963 4.42424 -1.98468 0
M  V30 4055 N 384.306 0.507319 1.49211 0
M  V30 4056 C 385.555 -0.0368315 2.01666 0
M  V30 4057 C 385.868 -1.37459 1.39156 0
M  V30 4058 O 387.074 -2.00579 1.82976 0
M  V30 4059 C 385.53 -0.116089 3.59713 0
M  V30 4060 C 385.138 1.2154 4.31198 0
M  V30 4061 C 386.882 -0.610268 4.2009 0
M  V30 4062 C 384.789 1.09796 5.81119 0
M  V30 4063 H 383.719 -0.0175376 0.753796 0
M  V30 4064 H 386.37 0.647691 1.71689 0
M  V30 4065 H 384.752 -0.8652 3.86433 0
M  V30 4066 H 385.926 1.9783 4.16173 0
M  V30 4067 H 384.241 1.64352 3.82593 0
M  V30 4068 H 386.838 -0.715742 5.29888 0
M  V30 4069 H 387.181 -1.61064 3.8388 0
M  V30 4070 H 387.714 0.0824916 3.97714 0
M  V30 4071 H 384.453 2.0728 6.21864 0
M  V30 4072 H 383.973 0.376058 5.9862 0
M  V30 4073 H 385.652 0.779281 6.4229 0
M  V30 4074 N 385.784 -1.5574 0.241426 0
M  V30 4075 C 386.714 -2.24133 -0.654722 0
M  V30 4076 C 387.695 -1.21974 -1.1856 0
M  V30 4077 O 388.88 -1.50612 -1.22595 0
M  V30 4078 C 386.01 -2.93659 -1.85423 0
M  V30 4079 C 384.964 -4.0246 -1.45636 0
M  V30 4080 C 384.29 -4.59383 -2.73626 0
M  V30 4081 C 385.59 -5.18468 -0.631506 0
M  V30 4082 H 387.284 -2.99281 -0.0844353 0
M  V30 4083 H 384.83 -1.43947 -0.0391707 0
M  V30 4084 H 386.783 -3.40203 -2.48676 0
M  V30 4085 H 385.507 -2.15991 -2.44981 0
M  V30 4086 H 384.166 -3.56676 -0.847202 0
M  V30 4087 H 383.814 -3.78422 -3.3137 0
M  V30 4088 H 383.514 -5.32826 -2.4773 0
M  V30 4089 H 385.038 -5.08658 -3.37786 0
M  V30 4090 H 386.452 -5.61272 -1.1682 0
M  V30 4091 H 384.849 -5.98266 -0.468831 0
M  V30 4092 H 385.919 -4.8358 0.357506 0
M  V30 4093 N 387.262 0.0317525 -1.57568 0
M  V30 4094 C 388.51 0.721676 -1.88776 0
M  V30 4095 C 388.831 1.76039 -0.838772 0
M  V30 4096 O 388.101 1.95482 0.127935 0
M  V30 4097 H 386.681 0.269534 -0.696678 0
M  V30 4098 H 389.343 -0.00165879 -1.949 0
M  V30 4099 H 388.439 1.21293 -2.87566 0
M  V30 4100 N 388.74 1.54641 0.303973 0
M  V30 4101 C 389.673 1.80263 1.3993 0
M  V30 4102 C 390.651 0.653657 1.48883 0
M  V30 4103 O 391.835 0.893284 1.6599 0
M  V30 4104 C 388.962 1.9367 2.77866 0
M  V30 4105 C 388.008 3.16078 2.86351 0
M  V30 4106 S 388.841 4.74219 2.4875 0
M  V30 4107 C 389.997 4.90558 3.88721 0
M  V30 4108 H 390.23 2.72886 1.17986 0
M  V30 4109 H 387.763 1.46014 0.501918 0
M  V30 4110 H 389.721 2.0208 3.57315 0
M  V30 4111 H 388.382 1.01991 2.9708 0
M  V30 4112 H 387.575 3.22252 3.87517 0
M  V30 4113 H 387.177 3.06099 2.14893 0
M  V30 4114 H 389.469 4.74398 4.83687 0
M  V30 4115 H 390.412 5.92651 3.87518 0
M  V30 4116 H 390.82 4.18728 3.78585 0
M  V30 4117 N 390.218 -0.567019 1.47046 0
M  V30 4118 C 391.629 -1.14916 1.47143 0
M  V30 4119 C 391.98 -1.94954 0.220767 0
M  V30 4120 O 391.105 -2.05602 -0.67505 0
M  V30 4121 C 391.7 -2.09069 2.666 0
M  V30 4122 C 390.259 -2.62575 2.69687 0
M  V30 4123 C 389.406 -1.38755 2.40088 0
M  V30 4124 H 392.357 -0.354126 1.54699 0
M  V30 4125 H 392.378 -2.92789 2.43011 0
M  V30 4126 H 391.89 -1.50789 3.57609 0
M  V30 4127 H 389.991 -3.24681 1.82792 0
M  V30 4128 H 390.104 -3.04239 3.70102 0
M  V30 4129 H 388.468 -1.69098 1.90468 0
M  V30 4130 H 389.251 -0.822822 3.33293 0
M  V30 4131 N 391.696 -1.35014 -0.812953 0
M  V30 4132 C 392.924 -1.31031 -1.6012 0
M  V30 4133 C 393.339 0.113558 -1.88458 0
M  V30 4134 O 392.696 1.06363 -1.48301 0
M  V30 4135 C 392.747 -2.10872 -2.93624 0
M  V30 4136 O 392.468 -3.47706 -2.66518 0
M  V30 4137 C 393.969 -2.14401 -3.88004 0
M  V30 4138 H 391.189 -0.45037 -0.497401 0
M  V30 4139 H 393.733 -1.77775 -1.01076 0
M  V30 4140 H 391.888 -1.67744 -3.492 0
M  V30 4141 H 392.302 -3.89097 -3.51715 0
M  V30 4142 H 393.776 -2.74669 -4.78812 0
M  V30 4143 H 394.253 -1.14105 -4.24119 0
M  V30 4144 H 394.859 -2.57662 -3.38364 0
M  V30 4145 N 393.175 1.03435 -1.18907 0
M  V30 4146 C 394.405 1.8012 -1.01195 0
M  V30 4147 C 394.813 1.8395 0.442613 0
M  V30 4148 O 394.156 1.27836 1.31923 0
M  V30 4149 C 394.218 3.26792 -1.49823 0
M  V30 4150 C 393.882 3.46609 -2.97844 0
M  V30 4151 C 394.879 3.37278 -3.95651 0
M  V30 4152 C 392.564 3.73001 -3.36416 0
M  V30 4153 C 394.558 3.54054 -5.30023 0
M  V30 4154 C 392.245 3.89423 -4.70949 0
M  V30 4155 C 393.243 3.79951 -5.67562 0
M  V30 4156 O 392.931 3.95895 -6.99659 0
M  V30 4157 H 392.663 0.573865 -0.357289 0
M  V30 4158 H 395.217 1.31207 -1.58031 0
M  V30 4159 H 393.447 3.76703 -0.873578 0
M  V30 4160 H 395.136 3.85055 -1.28404 0
M  V30 4161 H 395.902 3.16846 -3.67197 0
M  V30 4162 H 391.781 3.79469 -2.61772 0
M  V30 4163 H 395.325 3.46577 -6.05417 0
M  V30 4164 H 391.222 4.09351 -4.99101 0
M  V30 4165 H 391.99 4.13019 -7.06653 0
M  V30 4166 N 394.653 0.992116 1.22453 0
M  V30 4167 C 395.901 0.666215 1.90804 0
M  V30 4168 C 396.222 -0.804152 1.77647 0
M  V30 4169 O 395.492 -1.57629 1.16318 0
M  V30 4170 H 394.072 0.243423 0.706225 0
M  V30 4171 H 396.734 1.25845 1.48825 0
M  V30 4172 H 395.83 0.928069 2.97982 0
M  V30 4173 N 396.131 -1.37776 0.765217 0
M  V30 4174 C 397.547 -1.53297 0.444108 0
M  V30 4175 C 397.747 -1.72515 -1.04119 0
M  V30 4176 O 396.803 -1.74278 -1.82711 0
M  V30 4177 C 398.116 -2.73328 1.25349 0
M  V30 4178 C 399.664 -2.87185 1.24473 0
M  V30 4179 C 400.139 -4.10191 2.03733 0
M  V30 4180 N 401.63 -4.17291 2.01053 0
M  V30 4181 C 402.365 -5.11488 2.59166 0
M  V30 4182 N 401.861 -6.11285 3.26041 0
M  V30 4183 N 403.654 -5.03924 2.49032 0
M  V30 4184 H 395.805 -1.23552 1.72768 0
M  V30 4185 H 398.068 -0.601103 0.733062 0
M  V30 4186 H 397.774 -2.6557 2.30577 0
M  V30 4187 H 397.648 -3.66834 0.87823 0
M  V30 4188 H 400.035 -2.94418 0.20047 0
M  V30 4189 H 400.116 -1.94657 1.65959 0
M  V30 4190 H 399.76 -4.0372 3.08176 0
M  V30 4191 H 399.69 -5.01821 1.59633 0
M  V30 4192 H 402.181 -3.45825 1.5236 0
M  V30 4193 H 402.494 -6.79678 3.67774 0
M  V30 4194 H 400.839 -6.11583 3.30138 0
M  V30 4195 H 404.03 -4.24902 1.96407 0
M  V30 4196 H 404.203 -5.77152 2.94617 0
M  V30 4197 N 397.609 -0.515225 -1.4894 0
M  V30 4198 C 398.834 0.022727 -2.07388 0
M  V30 4199 C 399.259 1.2876 -1.37122 0
M  V30 4200 O 398.617 1.76067 -0.432431 0
M  V30 4201 C 398.665 0.244869 -3.59768 0
M  V30 4202 O 397.769 1.31667 -3.90817 0
M  V30 4203 H 397.11 -0.0325506 -0.663202 0
M  V30 4204 H 399.64 -0.718918 -1.91553 0
M  V30 4205 H 399.65 0.47205 -4.0526 0
M  V30 4206 H 398.325 -0.679194 -4.10317 0
M  V30 4207 H 396.902 1.07331 -3.5712 0
M  V30 4208 N 399.087 1.5561 -0.249682 0
M  V30 4209 C 400.334 1.99011 0.374287 0
M  V30 4210 C 400.662 1.13785 1.57744 0
M  V30 4211 O 399.917 0.189326 1.94782 0
M  V30 4212 C 400.216 3.4775 0.824887 0
M  V30 4213 C 399.882 4.50086 -0.270819 0
M  V30 4214 C 398.544 4.77791 -0.571746 0
M  V30 4215 C 400.896 5.11312 -1.01041 0
M  V30 4216 C 398.224 5.63997 -1.61629 0
M  V30 4217 C 400.576 5.98651 -2.0445 0
M  V30 4218 C 399.24 6.24688 -2.35204 0
M  V30 4219 H 398.51 0.728233 0.136961 0
M  V30 4220 H 401.157 1.88122 -0.358087 0
M  V30 4221 H 399.462 3.55985 1.63651 0
M  V30 4222 H 401.159 3.78721 1.31799 0
M  V30 4223 H 397.749 4.28592 -0.026136 0
M  V30 4224 H 401.933 4.89953 -0.791177 0
M  V30 4225 H 397.189 5.82425 -1.85988 0
M  V30 4226 H 401.363 6.45135 -2.62248 0
M  V30 4227 H 398.99 6.91281 -3.16282 0
M  V30 4228 N 400.565 -0.0233959 1.57583 0
M  V30 4229 C 401.793 -0.724682 1.93794 0
M  V30 4230 C 402.208 -1.68588 0.849912 0
M  V30 4231 O 401.565 -1.81676 -0.173204 0
M  V30 4232 C 401.616 -1.47684 3.29957 0
M  V30 4233 O 401.337 -0.554222 4.3458 0
M  V30 4234 C 402.838 -2.27477 3.80485 0
M  V30 4235 H 400.058 -0.203317 0.639455 0
M  V30 4236 H 402.602 0.0207653 2.04489 0
M  V30 4237 H 400.757 -2.17412 3.20641 0
M  V30 4238 H 401.171 -1.08232 5.13212 0
M  V30 4239 H 402.645 -2.7564 4.78254 0
M  V30 4240 H 403.122 -3.09144 3.11972 0
M  V30 4241 H 403.728 -1.62813 3.92902 0
M  V30 4242 N 402.043 -1.548 -0.295768 0
M  V30 4243 C 402.973 -1.89115 -1.36959 0
M  V30 4244 C 403.954 -0.75059 -1.52644 0
M  V30 4245 O 405.139 -1.00678 -1.66065 0
M  V30 4246 C 402.269 -2.14307 -2.73295 0
M  V30 4247 C 401.223 -3.30151 -2.72368 0
M  V30 4248 C 400.549 -3.40772 -4.12042 0
M  V30 4249 C 401.849 -4.67126 -2.33646 0
M  V30 4250 H 403.543 -2.79053 -1.08488 0
M  V30 4251 H 401.089 -1.34266 -0.520443 0
M  V30 4252 H 403.042 -2.36898 -3.48507 0
M  V30 4253 H 401.766 -1.21145 -3.03301 0
M  V30 4254 H 400.425 -3.0749 -1.99613 0
M  V30 4255 H 400.073 -2.45117 -4.39234 0
M  V30 4256 H 399.773 -4.18645 -4.12322 0
M  V30 4257 H 401.297 -3.6563 -4.89027 0
M  V30 4258 H 402.711 -4.89414 -2.98575 0
M  V30 4259 H 401.108 -5.47751 -2.45129 0
M  V30 4260 H 402.178 -4.67489 -1.28772 0
M  V30 4261 N 403.521 0.559213 -1.47345 0
M  V30 4262 C 404.484 1.64854 -1.59235 0
M  V30 4263 C 405.484 1.53851 -0.467607 0
M  V30 4264 O 406.674 1.58045 -0.732617 0
M  V30 4265 C 403.806 3.04388 -1.53496 0
M  V30 4266 H 404.999 1.55662 -2.56339 0
M  V30 4267 H 402.552 0.778973 -1.35505 0
M  V30 4268 H 403.287 3.19115 -0.577604 0
M  V30 4269 H 403.072 3.13783 -2.35123 0
M  V30 4270 H 404.562 3.83642 -1.6495 0
M  V30 4271 N 404.999 1.35443 0.805782 0
M  V30 4272 C 406.224 1.32037 1.59941 0
M  V30 4273 C 406.649 -0.0994215 1.87837 0
M  V30 4274 O 406.007 -1.06648 1.46615 0
M  V30 4275 C 406.055 2.13354 2.90711 0
M  V30 4276 O 405.159 1.5148 3.83572 0
M  V30 4277 H 404.5 0.452666 0.485787 0
M  V30 4278 H 407.03 1.78496 1.00002 0
M  V30 4279 H 407.04 2.25338 3.40128 0
M  V30 4280 H 405.715 3.16572 2.69732 0
M  V30 4281 H 404.292 1.4834 3.42125 0
M  V30 4282 N 406.477 -1.02803 1.19454 0
M  V30 4283 C 407.702 -1.80378 1.02364 0
M  V30 4284 C 408.127 -1.83282 -0.423007 0
M  V30 4285 O 407.485 -1.25945 -1.30413 0
M  V30 4286 C 407.533 -3.23248 1.59821 0
M  V30 4287 O 406.637 -4.04 0.828105 0
M  V30 4288 H 405.978 -0.556799 0.361761 0
M  V30 4289 H 408.508 -1.29385 1.58495 0
M  V30 4290 H 408.518 -3.73994 1.63073 0
M  V30 4291 H 407.193 -3.2045 2.65113 0
M  V30 4292 H 405.77 -3.62635 0.86891 0
M  V30 4293 N 407.956 -0.998596 -1.21925 0
M  V30 4294 C 409.181 -0.696015 -1.95372 0
M  V30 4295 C 409.606 0.733826 -1.73195 0
M  V30 4296 O 408.964 1.50242 -1.01474 0
M  V30 4297 C 409.012 -1.01466 -3.4603 0
M  V30 4298 O 408.116 -0.116415 -4.12236 0
M  V30 4299 H 407.457 -0.259938 -0.611006 0
M  V30 4300 H 409.987 -1.33711 -1.54863 0
M  V30 4301 H 409.997 -0.958855 -3.96573 0
M  V30 4302 H 408.672 -2.05653 -3.61497 0
M  V30 4303 H 407.249 -0.228193 -3.72201 0
M  V30 4304 N 409.434 1.37368 -0.772513 0
M  V30 4305 C 410.711 1.93839 -0.26188 0
M  V30 4306 C 411.091 1.7061 1.24319 0
M  V30 4307 O 410.439 1.05534 2.02669 0
M  V30 4308 C 410.649 3.43154 -0.636102 0
M  V30 4309 C 411.997 4.20249 -0.606324 0
M  V30 4310 O 413.021 3.5152 -0.575538 0
M  V30 4311 O 411.88 5.42809 -0.634086 0
M  V30 4312 H 408.974 0.82478 -0.0605555 0
M  V30 4313 H 411.52 1.4665 -0.853917 0
M  V30 4314 H 410.292 3.53647 -1.6748 0
M  V30 4315 H 409.915 3.97596 -0.0170516 0
M  V30 4316 N 410.912 0.523116 1.48665 0
M  V30 4317 C 412.14 -0.0096312 2.06898 0
M  V30 4318 C 412.555 -1.28784 1.38059 0
M  V30 4319 O 411.912 -1.76453 0.465893 0
M  V30 4320 C 411.963 -0.244386 3.60673 0
M  V30 4321 O 411.684 0.983172 4.26925 0
M  V30 4322 C 413.185 -0.818289 4.35682 0
M  V30 4323 H 410.405 0.0304161 0.67031 0
M  V30 4324 H 412.949 0.726799 1.91149 0
M  V30 4325 H 411.104 -0.930847 3.76051 0
M  V30 4326 H 411.518 0.759653 5.1897 0
M  V30 4327 H 412.992 -0.93201 5.44075 0
M  V30 4328 H 413.469 -1.82153 3.99646 0
M  V30 4329 H 414.075 -0.168609 4.24966 0
M  V30 4330 N 412.39 -1.55475 0.257931 0
M  V30 4331 C 413.806 -1.59307 -0.0966563 0
M  V30 4332 C 414.006 -1.27514 -1.5602 0
M  V30 4333 O 413.062 -1.02774 -2.30637 0
M  V30 4334 C 414.375 -2.99552 0.262481 0
M  V30 4335 C 415.923 -3.1231 0.207683 0
M  V30 4336 C 416.398 -4.54793 0.541012 0
M  V30 4337 N 417.889 -4.6058 0.491921 0
M  V30 4338 C 418.624 -5.68825 0.722857 0
M  V30 4339 N 418.12 -6.85287 1.0175 0
M  V30 4340 N 419.913 -5.58296 0.652815 0
M  V30 4341 H 412.064 -1.74409 1.21224 0
M  V30 4342 H 414.327 -0.812424 0.48854 0
M  V30 4343 H 414.033 -3.27593 1.27967 0
M  V30 4344 H 413.907 -3.75019 -0.40508 0
M  V30 4345 H 416.294 -2.84044 -0.800195 0
M  V30 4346 H 416.375 -2.39095 0.909255 0
M  V30 4347 H 416.019 -4.83783 1.5465 0
M  V30 4348 H 415.949 -5.26285 -0.18216 0
M  V30 4349 H 418.44 -3.7691 0.273366 0
M  V30 4350 H 418.753 -7.63725 1.18084 0
M  V30 4351 H 417.098 -6.86945 1.05509 0
M  V30 4352 H 420.289 -4.66189 0.422592 0
M  V30 4353 H 420.462 -6.42582 0.836182 0
M  V30 4354 N 413.868 0.0150385 -1.57593 0
M  V30 4355 C 415.114 0.704043 -1.90187 0
M  V30 4356 C 415.447 1.74249 -0.857366 0
M  V30 4357 O 414.722 1.94092 0.125843 0
M  V30 4358 C 415.005 1.36087 -3.33395 0
M  V30 4359 C 414.858 0.334981 -4.48551 0
M  V30 4360 C 416.177 2.29112 -3.7576 0
M  V30 4361 H 413.296 0.254475 -0.691673 0
M  V30 4362 H 415.938 -0.0331678 -1.89971 0
M  V30 4363 H 414.088 1.98922 -3.3371 0
M  V30 4364 H 415.76 -0.292534 -4.60372 0
M  V30 4365 H 414.003 -0.344325 -4.32431 0
M  V30 4366 H 414.674 0.833316 -5.45674 0
M  V30 4367 H 417.15 1.76308 -3.76902 0
M  V30 4368 H 416.026 2.72043 -4.76743 0
M  V30 4369 H 416.287 3.16385 -3.08793 0
M  V30 4370 N 415.346 1.54954 0.287554 0
M  V30 4371 C 416.594 1.74528 1.01904 0
M  V30 4372 C 416.915 0.541349 1.87335 0
M  V30 4373 O 416.185 -0.444108 1.908 0
M  V30 4374 H 414.765 0.643576 0.379235 0
M  V30 4375 H 417.427 1.92333 0.315294 0
M  V30 4376 H 416.523 2.64015 1.6644 0
M  V30 4377 N 416.824 -0.551391 1.4764 0
M  V30 4378 C 417.787 -1.64007 1.60107 0
M  V30 4379 C 418.787 -1.53601 0.47576 0
M  V30 4380 O 419.977 -1.57655 0.740988 0
M  V30 4381 C 417.109 -3.03569 1.55108 0
M  V30 4382 H 418.302 -1.543 2.57161 0
M  V30 4383 H 415.855 -0.771776 1.35917 0
M  V30 4384 H 416.59 -3.18804 0.594519 0
M  V30 4385 H 416.375 -3.12532 2.36783 0
M  V30 4386 H 417.865 -3.82762 1.66982 0
M  V30 4387 N 418.302 -1.35869 -0.798587 0
M  V30 4388 C 419.713 -1.26498 -1.37314 0
M  V30 4389 C 420.064 0.0991899 -1.95949 0
M  V30 4390 O 419.189 1.0004 -1.91888 0
M  V30 4391 C 419.784 -2.29054 -2.49639 0
M  V30 4392 C 418.343 -2.234 -3.02935 0
M  V30 4393 C 417.49 -2.14329 -1.75949 0
M  V30 4394 H 420.441 -1.46881 -0.600971 0
M  V30 4395 H 420.462 -1.92166 -3.28409 0
M  V30 4396 H 419.974 -3.2833 -2.06933 0
M  V30 4397 H 418.075 -1.27562 -3.50084 0
M  V30 4398 H 418.188 -3.15703 -3.60372 0
M  V30 4399 H 416.552 -1.60435 -1.9782 0
M  V30 4400 H 417.335 -3.15477 -1.35384 0
M  V30 4401 N 419.78 1.02168 -1.19998 0
M  V30 4402 C 420.743 2.08765 -0.94604 0
M  V30 4403 C 421.743 1.60618 0.0763846 0
M  V30 4404 O 422.933 1.73472 -0.159135 0
M  V30 4405 C 420.065 3.38262 -0.423255 0
M  V30 4406 H 421.258 2.32726 -1.89153 0
M  V30 4407 H 418.811 1.1889 -1.01464 0
M  V30 4408 H 419.546 3.19974 0.527938 0
M  V30 4409 H 419.331 3.74532 -1.16053 0
M  V30 4410 H 420.821 4.16759 -0.264911 0
M  V30 4411 N 421.258 1.00505 1.21394 0
M  V30 4412 C 422.486 0.706609 1.9446 0
M  V30 4413 C 422.901 -0.73081 1.74082 0
M  V30 4414 O 422.258 -1.49446 1.04747 0
M  V30 4415 C 422.309 1.01824 3.46863 0
M  V30 4416 O 422.03 2.39919 3.66566 0
M  V30 4417 C 423.531 0.739216 4.37093 0
M  V30 4418 H 420.751 0.260394 0.618414 0
M  V30 4419 H 423.295 1.34311 1.54211 0
M  V30 4420 H 421.45 0.427343 3.85036 0
M  V30 4421 H 421.864 2.50784 4.6066 0
M  V30 4422 H 423.338 1.00744 5.42729 0
M  V30 4423 H 423.815 -0.326746 4.37983 0
M  V30 4424 H 424.421 1.31173 4.04566 0
M  V30 4425 N 422.737 -1.36956 0.779787 0
M  V30 4426 C 423.985 -1.99097 0.347079 0
M  V30 4427 C 424.306 -1.62206 -1.08232 0
M  V30 4428 O 423.576 -0.891373 -1.74446 0
M  V30 4429 H 422.156 -0.736409 0.125342 0
M  V30 4430 H 424.818 -1.67308 0.999696 0
M  V30 4431 H 423.914 -3.09107 0.431162 0
M  V30 4432 N 424.215 -0.530993 -1.48385 0
M  V30 4433 C 425.44 0.000729535 -2.074 0
M  V30 4434 C 425.865 1.27298 -1.3848 0
M  V30 4435 O 425.223 1.75599 -0.451081 0
M  V30 4436 C 425.271 0.206697 -3.60007 0
M  V30 4437 O 424.375 1.27514 -3.92191 0
M  V30 4438 H 423.716 -0.039583 -0.662819 0
M  V30 4439 H 426.246 -0.739194 -1.9078 0
M  V30 4440 H 426.256 0.42904 -4.05738 0
M  V30 4441 H 424.931 -0.722675 -4.09573 0
M  V30 4442 H 423.508 1.03537 -3.58238 0
M  V30 4443 N 425.693 1.55336 -0.266172 0
M  V30 4444 C 426.941 1.99003 0.35246 0
M  V30 4445 C 427.262 1.15591 1.57047 0
M  V30 4446 O 426.532 0.243268 1.94384 0
M  V30 4447 H 425.112 0.735025 0.133217 0
M  V30 4448 H 427.774 1.91367 -0.369434 0
M  V30 4449 H 426.87 3.05289 0.648453 0
M  V30 4450 N 427.171 -0.0066808 1.57599 0
M  V30 4451 C 428.399 -0.704087 1.94551 0
M  V30 4452 C 428.814 -1.67677 0.867746 0
M  V30 4453 O 428.171 -1.8185 -0.153925 0
M  V30 4454 C 428.222 -1.44177 3.31505 0
M  V30 4455 O 427.943 -0.508097 4.35144 0
M  V30 4456 C 429.444 -2.23429 3.82876 0
M  V30 4457 H 426.664 -0.196523 0.641576 0
M  V30 4458 H 429.208 0.042453 2.04456 0
M  V30 4459 H 427.363 -2.13999 3.22929 0
M  V30 4460 H 427.777 -1.02782 5.14331 0
M  V30 4461 H 429.251 -2.70552 4.8115 0
M  V30 4462 H 429.728 -3.05818 3.15233 0
M  V30 4463 H 430.334 -1.58636 3.94607 0
M  V30 4464 N 428.649 -1.55105 -0.279332 0
M  V30 4465 C 430.06 -1.66186 -0.850832 0
M  V30 4466 C 430.411 -0.584707 -1.87285 0
M  V30 4467 O 429.536 0.274919 -2.14647 0
M  V30 4468 C 430.131 -3.01264 -1.55001 0
M  V30 4469 C 428.69 -3.14394 -2.06963 0
M  V30 4470 C 427.837 -2.61959 -0.909536 0
M  V30 4471 H 430.788 -1.58602 -0.0558235 0
M  V30 4472 H 430.809 -2.93899 -2.41669 0
M  V30 4473 H 430.321 -3.7964 -0.805931 0
M  V30 4474 H 428.422 -2.4078 -2.84352 0
M  V30 4475 H 428.535 -4.20867 -2.28928 0
M  V30 4476 H 426.899 -2.18957 -1.30116 0
M  V30 4477 H 427.682 -3.42833 -0.179062 0
M  V30 4478 N 430.127 0.543554 -1.4793 0
M  V30 4479 C 431.375 1.29752 -1.54948 0
M  V30 4480 C 431.696 1.93764 -0.219242 0
M  V30 4481 O 430.966 1.80639 0.75805 0
M  V30 4482 H 429.546 0.481874 -0.570795 0
M  V30 4483 H 432.208 0.633636 -1.84312 0
M  V30 4484 H 431.304 2.08392 -2.32334 0
M  V30 4485 N 431.605 1.3629 0.791371 0
M  V30 4486 C 433.016 1.27225 1.36641 0
M  V30 4487 C 433.367 -0.0887968 1.95999 0
M  V30 4488 O 432.492 -0.990207 1.92416 0
M  V30 4489 C 433.087 2.30375 2.48421 0
M  V30 4490 C 431.646 2.25004 3.01746 0
M  V30 4491 C 430.793 2.15259 1.7481 0
M  V30 4492 H 433.744 1.47198 0.593173 0
M  V30 4493 H 433.765 1.93905 3.27385 0
M  V30 4494 H 433.277 3.29422 2.05189 0
M  V30 4495 H 431.378 1.29417 3.49403 0
M  V30 4496 H 431.491 3.1761 3.58693 0
M  V30 4497 H 429.855 1.61482 1.96966 0
M  V30 4498 H 430.638 3.16191 1.33709 0
M  V30 4499 N 433.083 -1.0153 1.20538 0
M  V30 4500 C 434.33 -1.75149 1.01633 0
M  V30 4501 C 434.658 -1.89189 -0.451399 0
M  V30 4502 O 433.913 -1.41551 -1.35136 0
M  V30 4503 C 434.212 -3.17213 1.64654 0
M  V30 4504 C 433.878 -3.23146 3.14464 0
M  V30 4505 C 432.54 -3.24472 3.55347 0
M  V30 4506 C 434.892 -3.21207 4.10458 0
M  V30 4507 C 432.22 -3.21532 4.90748 0
M  V30 4508 C 434.572 -3.19808 5.45807 0
M  V30 4509 C 433.236 -3.19439 5.86102 0
M  V30 4510 H 432.506 -0.640914 0.3719 0
M  V30 4511 H 435.153 -1.19071 1.49981 0
M  V30 4512 H 433.458 -3.76457 1.08571 0
M  V30 4513 H 435.155 -3.72871 1.4754 0
M  V30 4514 H 431.745 -3.2285 2.81897 0
M  V30 4515 H 435.929 -3.19351 3.79906 0
M  V30 4516 H 431.185 -3.19578 5.21229 0
M  V30 4517 H 435.359 -3.1726 6.19935 0
M  V30 4518 H 432.986 -3.16915 6.90991 0
M  V30 4519 N 434.561 -1.01147 -1.20859 0
M  V30 4520 C 435.789 -0.716911 -1.94082 0
M  V30 4521 C 436.204 0.721568 -1.74467 0
M  V30 4522 O 435.561 1.48889 -1.05539 0
M  V30 4523 C 435.612 -1.03662 -3.46318 0
M  V30 4524 O 435.333 -2.4186 -3.65288 0
M  V30 4525 C 436.834 -0.762386 -4.36695 0
M  V30 4526 H 434.054 -0.26367 -0.617024 0
M  V30 4527 H 436.598 -1.35127 -1.53496 0
M  V30 4528 H 434.753 -0.447757 -3.84804 0
M  V30 4529 H 435.167 -2.53224 -4.59323 0
M  V30 4530 H 436.641 -1.03621 -5.42187 0
M  V30 4531 H 437.118 0.303514 -4.3815 0
M  V30 4532 H 437.724 -1.33316 -4.03865 0
M  V30 4533 N 436.039 1.36541 -0.78704 0
M  V30 4534 C 436.986 2.30082 -0.181901 0
M  V30 4535 C 437.956 1.5186 0.672896 0
M  V30 4536 O 439.141 1.80374 0.622072 0
M  V30 4537 C 436.281 3.3835 0.679197 0
M  V30 4538 C 435.394 4.31565 -0.193882 0
M  V30 4539 C 434.529 5.26915 0.673364 0
M  V30 4540 C 433.568 6.11769 -0.201315 0
M  V30 4541 N 432.705 6.99315 0.624777 0
M  V30 4542 H 437.545 2.81248 -0.985064 0
M  V30 4543 H 435.082 1.38437 -0.497342 0
M  V30 4544 H 437.04 3.99767 1.19341 0
M  V30 4545 H 435.67 2.8851 1.44781 0
M  V30 4546 H 434.722 3.71323 -0.826044 0
M  V30 4547 H 436.034 4.91191 -0.867937 0
M  V30 4548 H 435.188 5.9361 1.25348 0
M  V30 4549 H 433.927 4.67737 1.38105 0
M  V30 4550 H 432.932 5.44039 -0.793849 0
M  V30 4551 H 434.157 6.73022 -0.906568 0
M  V30 4552 H 432.103 6.42648 1.3168 0
M  V30 4553 H 432.02 7.56 0.00835237 0
M  V30 4554 H 433.288 7.70382 1.18879 0
M  V30 4555 N 437.518 0.538854 1.48102 0
M  V30 4556 C 438.428 -0.222648 2.33541 0
M  V30 4557 C 439.444 -0.930225 1.47047 0
M  V30 4558 O 440.62 -0.903211 1.80011 0
M  V30 4559 C 437.685 -1.25064 3.23357 0
M  V30 4560 C 436.746 -0.552469 4.2573 0
M  V30 4561 C 435.979 -1.53149 5.11254 0
M  V30 4562 O 436.202 -2.76487 4.9891 0
M  V30 4563 O 435.136 -1.06602 5.92385 0
M  V30 4564 H 438.962 0.477707 2.99919 0
M  V30 4565 H 436.547 0.299669 1.46364 0
M  V30 4566 H 438.429 -1.8445 3.78888 0
M  V30 4567 H 437.104 -1.93325 2.59629 0
M  V30 4568 H 436.011 0.082114 3.7401 0
M  V30 4569 H 437.344 0.0883526 4.92121 0
M  V30 4570 N 438.996 -1.55193 0.274407 0
M  V30 4571 C 440.244 -1.99187 -0.341902 0
M  V30 4572 C 440.565 -1.16422 -1.56431 0
M  V30 4573 O 439.835 -0.253573 -1.94252 0
M  V30 4574 H 438.415 -0.735721 -0.129317 0
M  V30 4575 H 441.077 -1.91168 0.379578 0
M  V30 4576 H 440.173 -3.05629 -0.632253 0
M  V30 4577 N 440.474 -0.00167713 -1.576 0
M  V30 4578 C 441.722 0.681471 -1.90264 0
M  V30 4579 C 442.043 1.7422 -0.875924 0
M  V30 4580 O 441.313 1.95709 0.0864412 0
M  V30 4581 H 439.893 0.254696 -0.702239 0
M  V30 4582 H 442.555 -0.0429996 -1.94853 0
M  V30 4583 H 441.651 1.15166 -2.90075 0
M  V30 4584 N 441.952 1.55251 0.271103 0
M  V30 4585 C 442.885 1.83191 1.36075 0
M  V30 4586 C 443.863 0.685091 1.47463 0
M  V30 4587 O 445.047 0.928292 1.64058 0
M  V30 4588 C 442.174 1.99521 2.73696 0
M  V30 4589 C 441.22 3.22081 2.79582 0
M  V30 4590 S 442.053 4.79388 2.38636 0
M  V30 4591 C 443.209 4.98693 3.78228 0
M  V30 4592 H 443.442 2.75327 1.12171 0
M  V30 4593 H 440.975 1.47046 0.470833 0
M  V30 4594 H 442.933 2.09613 3.52948 0
M  V30 4595 H 441.594 1.0827 2.9485 0
M  V30 4596 H 440.787 3.304 3.80594 0
M  V30 4597 H 440.389 3.10589 2.08352 0
M  V30 4598 H 442.681 4.84551 4.73515 0
M  V30 4599 H 443.624 6.00738 3.7486 0
M  V30 4600 H 444.032 4.26665 3.69618 0
M  V30 4601 N 443.43 -0.535701 1.48216 0
M  V30 4602 C 444.36 -1.65014 1.65204 0
M  V30 4603 C 445.341 -1.62554 0.501011 0
M  V30 4604 O 446.526 -1.7984 0.732886 0
M  V30 4605 C 443.656 -3.03616 1.68626 0
M  V30 4606 C 442.61 -3.20932 2.83172 0
M  V30 4607 C 441.936 -4.60537 2.71679 0
M  V30 4608 C 443.236 -3.04249 4.24535 0
M  V30 4609 H 444.93 -1.51053 2.58502 0
M  V30 4610 H 442.476 -0.725262 1.24402 0
M  V30 4611 H 444.429 -3.81446 1.79099 0
M  V30 4612 H 443.153 -3.18587 0.719026 0
M  V30 4613 H 441.812 -2.45517 2.72244 0
M  V30 4614 H 441.46 -4.72336 1.72937 0
M  V30 4615 H 441.16 -4.73069 3.48538 0
M  V30 4616 H 442.684 -5.40475 2.84112 0
M  V30 4617 H 444.098 -3.71877 4.36326 0
M  V30 4618 H 442.495 -3.28278 5.02348 0
M  V30 4619 H 443.565 -2.00739 4.41397 0
M  V30 4620 N 444.908 -1.36708 -0.784132 0
M  V30 4621 C 445.871 -1.31307 -1.87859 0
M  V30 4622 C 446.871 -0.219654 -1.59293 0
M  V30 4623 O 448.061 -0.47476 -1.67606 0
M  V30 4624 C 445.193 -1.03679 -3.24751 0
M  V30 4625 H 446.386 -2.28647 -1.94064 0
M  V30 4626 H 443.939 -1.21558 -0.98252 0
M  V30 4627 H 444.674 -0.0681936 -3.24228 0
M  V30 4628 H 444.459 -1.82811 -3.46876 0
M  V30 4629 H 445.949 -1.02518 -4.04821 0
M  V30 4630 N 446.386 1.0089 -1.21074 0
M  V30 4631 C 447.616 1.77933 -1.04993 0
M  V30 4632 C 448.024 1.84847 0.403495 0
M  V30 4633 O 447.367 1.30606 1.29181 0
M  V30 4634 C 447.429 3.23541 -1.56722 0
M  V30 4635 C 447.093 3.40214 -3.05129 0
M  V30 4636 C 448.09 3.2881 -4.02716 0
M  V30 4637 C 445.775 3.65781 -3.44252 0
M  V30 4638 C 447.769 3.42732 -5.37414 0
M  V30 4639 C 445.456 3.79346 -4.79103 0
M  V30 4640 C 446.454 3.67827 -5.75493 0
M  V30 4641 O 446.142 3.80965 -7.07899 0
M  V30 4642 H 445.874 0.566157 -0.369381 0
M  V30 4643 H 448.428 1.27826 -1.60779 0
M  V30 4644 H 446.658 3.74766 -0.953285 0
M  V30 4645 H 448.347 3.82245 -1.36543 0
M  V30 4646 H 449.113 3.08986 -3.73835 0
M  V30 4647 H 444.992 3.73831 -2.69762 0
M  V30 4648 H 448.536 3.33658 -6.12632 0
M  V30 4649 H 444.433 3.98672 -5.07672 0
M  V30 4650 H 445.201 3.97937 -7.15254 0
M  V30 4651 N 447.864 1.01787 1.20321 0
M  V30 4652 C 449.094 0.72614 1.93419 0
M  V30 4653 C 449.502 -0.717317 1.75075 0
M  V30 4654 O 448.845 -1.49836 1.06278 0
M  V30 4655 C 448.907 0.983621 3.45782 0
M  V30 4656 C 448.571 2.41645 3.87888 0
M  V30 4657 C 449.568 3.39732 3.93545 0
M  V30 4658 C 447.253 2.75752 4.19841 0
M  V30 4659 C 449.247 4.69988 4.30569 0
M  V30 4660 C 446.934 4.06221 4.56539 0
M  V30 4661 C 447.932 5.0315 4.61876 0
M  V30 4662 O 447.62 6.31284 4.97731 0
M  V30 4663 H 447.352 0.265824 0.621541 0
M  V30 4664 H 449.906 1.3623 1.53722 0
M  V30 4665 H 448.136 0.290301 3.85609 0
M  V30 4666 H 449.825 0.683279 4.00108 0
M  V30 4667 H 450.591 3.14718 3.69022 0
M  V30 4668 H 446.47 2.00993 4.14877 0
M  V30 4669 H 450.014 5.45642 4.3465 0
M  V30 4670 H 445.911 4.31013 4.80518 0
M  V30 4671 H 446.679 6.35591 5.15719 0
M  V30 4672 N 449.342 -1.36122 0.79427 0
M  V30 4673 C 450.252 -2.33769 0.197296 0
M  V30 4674 C 451.268 -1.61276 -0.653153 0
M  V30 4675 O 452.444 -1.9323 -0.5678 0
M  V30 4676 C 449.509 -3.40474 -0.654098 0
M  V30 4677 C 448.57 -4.28759 0.215411 0
M  V30 4678 C 447.803 -5.30368 -0.595443 0
M  V30 4679 O 448.026 -5.40211 -1.83107 0
M  V30 4680 O 446.96 -6.019 0.00721351 0
M  V30 4681 H 450.786 -2.86597 1.00478 0
M  V30 4682 H 448.371 -1.38676 0.555818 0
M  V30 4683 H 450.253 -4.05703 -1.13944 0
M  V30 4684 H 448.928 -2.89937 -1.43938 0
M  V30 4685 H 447.835 -3.66554 0.747615 0
M  V30 4686 H 449.168 -4.82661 0.964332 0
M  V30 4687 N 450.82 -0.546701 -1.47814 0
M  V30 4688 C 452.066 -0.0187684 -2.02791 0
M  V30 4689 C 452.399 1.32338 -1.42128 0
M  V30 4690 O 451.674 1.85867 -0.573023 0
M  V30 4691 C 451.957 0.0854985 -3.59998 0
M  V30 4692 C 451.81 -1.283 -4.31114 0
M  V30 4693 C 453.129 0.80412 -4.32691 0
M  V30 4694 H 450.248 -0.0082946 -0.736953 0
M  V30 4695 H 452.89 -0.706962 -1.76358 0
M  V30 4696 H 451.04 0.671609 -3.82651 0
M  V30 4697 H 452.712 -1.91151 -4.19832 0
M  V30 4698 H 450.955 -1.86049 -3.91878 0
M  V30 4699 H 451.626 -1.16287 -5.39612 0
M  V30 4700 H 454.102 0.306576 -4.14969 0
M  V30 4701 H 452.978 0.846011 -5.42341 0
M  V30 4702 H 453.239 1.85802 -4.01161 0
M  V30 4703 N 452.299 1.55045 -0.282633 0
M  V30 4704 C 453.539 2.01668 0.333088 0
M  V30 4705 C 453.903 1.1667 1.52486 0
M  V30 4706 O 455.104 1.52907 2.21072 0
M  V30 4707 C 453.375 3.50509 0.698442 0
M  V30 4708 S 454.934 4.19112 1.29963 0
M  V30 4709 H 451.752 0.703468 0.103219 0
M  V30 4710 H 454.354 1.91233 -0.406222 0
M  V30 4711 H 453.058 4.10015 -0.177693 0
M  V30 4712 H 452.589 3.64943 1.46902 0
M  V30 4713 H 454.604 4.23362 2.58803 0
M  V30 4714 N 453.777 0.010035 1.57597 0
M  V30 4715 C 455.002 -0.687021 1.95691 0
M  V30 4716 C 455.427 -1.65952 0.885519 0
M  V30 4717 O 454.785 -1.80633 -0.15543 0
M  V30 4718 C 454.833 -1.3864 3.32884 0
M  V30 4719 O 453.937 -2.50115 3.27897 0
M  V30 4720 H 453.278 -0.181989 0.638573 0
M  V30 4721 H 455.808 0.0662122 2.04493 0
M  V30 4722 H 455.818 -1.74754 3.6868 0
M  V30 4723 H 454.493 -0.673411 4.10412 0
M  V30 4724 H 453.07 -2.16253 3.03791 0
M  V30 4725 N 455.255 -1.55392 -0.262866 0
M  V30 4726 C 456.501 -1.77657 -0.990424 0
M  V30 4727 C 456.856 -0.576333 -1.83565 0
M  V30 4728 O 456.149 0.430795 -1.86694 0
M  V30 4729 C 456.343 -3.02889 -1.89718 0
M  V30 4730 C 456.172 -4.34979 -1.14121 0
M  V30 4731 C 454.942 -4.98052 -0.852768 0
M  V30 4732 C 457.14 -5.11597 -0.526625 0
M  V30 4733 N 455.122 -6.13859 -0.0710649 0
M  V30 4734 C 456.493 -6.19883 0.12042 0
M  V30 4735 C 458.548 -4.95992 -0.435485 0
M  V30 4736 C 457.251 -7.14262 0.849833 0
M  V30 4737 C 459.277 -5.90735 0.280359 0
M  V30 4738 C 458.639 -6.98417 0.916103 0
M  V30 4739 H 454.738 -0.702242 -0.344064 0
M  V30 4740 H 457.322 -1.92887 -0.265088 0
M  V30 4741 H 455.493 -2.89017 -2.59468 0
M  V30 4742 H 457.225 -3.13516 -2.5591 0
M  V30 4743 H 453.98 -4.5916 -1.16058 0
M  V30 4744 H 454.404 -6.76302 0.307413 0
M  V30 4745 H 459.046 -4.12832 -0.912671 0
M  V30 4746 H 456.764 -7.96935 1.33867 0
M  V30 4747 H 460.35 -5.80738 0.351332 0
M  V30 4748 H 459.23 -7.70467 1.46119 0
M  V30 4749 N 456.733 0.527833 -1.48498 0
M  V30 4750 C 457.68 1.6322 -1.6318 0
M  V30 4751 C 458.65 1.59199 -0.473815 0
M  V30 4752 O 459.835 1.77591 -0.697563 0
M  V30 4753 C 456.975 3.01474 -1.67951 0
M  V30 4754 C 456.088 3.15713 -2.94871 0
M  V30 4755 C 455.223 4.44539 -2.90789 0
M  V30 4756 C 454.262 4.52315 -4.12404 0
M  V30 4757 N 453.399 5.72533 -4.06387 0
M  V30 4758 H 458.239 1.50011 -2.57489 0
M  V30 4759 H 455.776 0.730298 -1.27691 0
M  V30 4760 H 457.734 3.81572 -1.68698 0
M  V30 4761 H 456.364 3.1345 -0.771306 0
M  V30 4762 H 455.416 2.28854 -3.03859 0
M  V30 4763 H 456.728 3.1732 -3.8485 0
M  V30 4764 H 455.882 5.3293 -2.89949 0
M  V30 4765 H 454.621 4.45457 -1.98542 0
M  V30 4766 H 453.626 3.62331 -4.13517 0
M  V30 4767 H 454.851 4.53134 -5.05812 0
M  V30 4768 H 452.797 5.74344 -3.16962 0
M  V30 4769 H 452.714 5.75643 -4.90073 0
M  V30 4770 H 453.982 6.63204 -4.0961 0
M  V30 4771 N 458.211 1.37122 0.776871 0
M  V30 4772 C 459.459 1.31787 1.53221 0
M  V30 4773 C 459.78 -0.0987589 1.9475 0
M  V30 4774 O 459.05 -1.0417 1.65908 0
M  V30 4775 H 457.63 0.484839 0.568278 0
M  V30 4776 H 460.292 1.71556 0.924917 0
M  V30 4777 H 459.388 1.95355 2.43398 0
M  V30 4778 N 459.689 -1.00246 1.21608 0
M  V30 4779 C 460.652 -2.07233 0.979133 0
M  V30 4780 C 461.652 -1.6072 -0.0508219 0
M  V30 4781 O 462.842 -1.73196 0.186712 0
M  V30 4782 C 459.974 -3.37546 0.477016 0
M  V30 4783 H 461.167 -2.29687 1.92831 0
M  V30 4784 H 458.72 -1.17261 1.03342 0
M  V30 4785 H 459.455 -3.20773 -0.476966 0
M  V30 4786 H 459.24 -3.72638 1.21997 0
M  V30 4787 H 460.73 -4.16285 0.331181 0
M  V30 4788 N 461.167 -1.02423 -1.1978 0
M  V30 4789 C 462.395 -0.737456 -1.93311 0
M  V30 4790 C 462.81 0.703023 -1.75223 0
M  V30 4791 O 462.167 1.47761 -1.07112 0
M  V30 4792 C 462.218 -1.0733 -3.45199 0
M  V30 4793 O 461.939 -2.4572 -3.62702 0
M  V30 4794 C 463.44 -0.80866 -4.35862 0
M  V30 4795 H 460.66 -0.2702 -0.614193 0
M  V30 4796 H 463.204 -1.36747 -1.52054 0
M  V30 4797 H 461.359 -0.488545 -3.84307 0
M  V30 4798 H 461.773 -2.58081 -4.56612 0
M  V30 4799 H 463.247 -1.09365 -5.41057 0
M  V30 4800 H 463.724 0.257025 -4.38447 0
M  V30 4801 H 464.33 -1.37592 -4.02428 0
M  V30 4802 N 462.645 1.35699 -0.801477 0
M  V30 4803 C 463.592 2.29876 -0.206294 0
M  V30 4804 C 464.562 1.52565 0.656752 0
M  V30 4805 O 465.747 1.81024 0.602906 0
M  V30 4806 C 462.887 3.39052 0.643272 0
M  V30 4807 C 462 4.31335 -0.239644 0
M  V30 4808 C 461.135 5.27599 0.61744 0
M  V30 4809 C 460.174 6.11521 -0.26619 0
M  V30 4810 N 459.311 6.99938 0.550571 0
M  V30 4811 H 464.151 2.80187 -1.01484 0
M  V30 4812 H 461.688 1.37902 -0.511997 0
M  V30 4813 H 463.646 4.0101 1.15094 0
M  V30 4814 H 462.276 2.9003 1.41713 0
M  V30 4815 H 461.328 3.70426 -0.865381 0
M  V30 4816 H 462.64 4.90243 -0.919985 0
M  V30 4817 H 461.794 5.94906 1.19045 0
M  V30 4818 H 460.533 4.69176 1.33137 0
M  V30 4819 H 459.538 5.43166 -0.851507 0
M  V30 4820 H 460.763 6.72022 -0.9779 0
M  V30 4821 H 458.709 6.44008 1.24856 0
M  V30 4822 H 458.626 7.55966 -0.071832 0
M  V30 4823 H 459.894 7.71599 1.10702 0
M  V30 4824 N 464.123 0.554532 1.47522 0
M  V30 4825 C 465.055 -0.232106 2.28022 0
M  V30 4826 C 466.068 -0.881865 1.36847 0
M  V30 4827 O 467.257 -0.756168 1.61692 0
M  V30 4828 C 464.357 -1.34604 3.11022 0
M  V30 4829 C 463.53 -0.793582 4.30141 0
M  V30 4830 C 462.589 -1.79168 4.94758 0
M  V30 4831 O 461.615 -1.33886 5.5323 0
M  V30 4832 N 462.817 -3.12495 4.89211 0
M  V30 4833 H 465.582 0.458407 2.96173 0
M  V30 4834 H 463.143 0.390433 1.57122 0
M  V30 4835 H 465.135 -2.01243 3.51118 0
M  V30 4836 H 463.705 -1.93983 2.45131 0
M  V30 4837 H 462.925 0.0495025 3.94169 0
M  V30 4838 H 464.213 -0.403776 5.07195 0
M  V30 4839 H 463.611 -3.51931 4.42901 0
M  V30 4840 H 462.168 -3.74698 5.33333 0
M  V30 4841 N 465.601 -1.54893 0.290851 0
M  V30 4842 C 467.017 -1.59476 -0.0628432 0
M  V30 4843 C 467.217 -1.30795 -1.5328 0
M  V30 4844 O 466.273 -1.07644 -2.28406 0
M  V30 4845 C 467.586 -2.98928 0.325962 0
M  V30 4846 C 469.134 -3.11799 0.273882 0
M  V30 4847 C 469.609 -4.53544 0.637359 0
M  V30 4848 N 471.1 -4.59433 0.589507 0
M  V30 4849 C 471.835 -5.67164 0.84335 0
M  V30 4850 N 471.331 -6.82975 1.16263 0
M  V30 4851 N 473.124 -5.56786 0.771091 0
M  V30 4852 H 465.275 -1.71798 1.24896 0
M  V30 4853 H 467.538 -0.801879 0.505663 0
M  V30 4854 H 467.244 -3.24805 1.34887 0
M  V30 4855 H 467.118 -3.75793 -0.325441 0
M  V30 4856 H 469.505 -2.85677 -0.739765 0
M  V30 4857 H 469.586 -2.37112 0.959766 0
M  V30 4858 H 469.23 -4.80394 1.64877 0
M  V30 4859 H 469.16 -5.26553 -0.0704866 0
M  V30 4860 H 471.651 -3.76245 0.353252 0
M  V30 4861 H 471.964 -7.61048 1.34257 0
M  V30 4862 H 470.309 -6.84552 1.20057 0
M  V30 4863 H 473.5 -4.65187 0.521383 0
M  V30 4864 H 473.673 -6.40664 0.972295 0
M  V30 4865 N 467.08 -0.0183926 -1.57589 0
M  V30 4866 C 468.329 0.66185 -1.90532 0
M  V30 4867 C 468.642 1.73904 -0.895366 0
M  V30 4868 O 469.848 2.47518 -1.11566 0
M  V30 4869 C 468.304 1.22844 -3.38286 0
M  V30 4870 C 467.912 0.185103 -4.47617 0
M  V30 4871 C 469.656 1.88581 -3.80312 0
M  V30 4872 C 467.563 0.762723 -5.86461 0
M  V30 4873 H 466.493 0.250972 -0.711006 0
M  V30 4874 H 469.144 -0.0819435 -1.83317 0
M  V30 4875 H 467.526 2.0235 -3.40398 0
M  V30 4876 H 468.7 -0.58671 -4.5705 0
M  V30 4877 H 467.015 -0.372889 -4.14727 0
M  V30 4878 H 469.612 2.32735 -4.81392 0
M  V30 4879 H 469.955 2.72408 -3.14801 0
M  V30 4880 H 470.488 1.15782 -3.80578 0
M  V30 4881 H 467.227 -0.0371713 -6.55489 0
M  V30 4882 H 466.747 1.50327 -5.80656 0
M  V30 4883 H 468.426 1.25576 -6.34697 0
M  V30 4884 N 468.558 1.5553 0.254621 0
M  V30 4885 C 469.49 1.86104 1.33783 0
M  V30 4886 C 470.503 0.746752 1.44663 0
M  V30 4887 O 471.692 1.0248 1.46151 0
M  V30 4888 C 468.792 2.02532 2.71724 0
M  V30 4889 C 467.965 3.33335 2.83208 0
M  V30 4890 C 467.024 3.396 4.01943 0
M  V30 4891 O 466.05 4.12862 3.91834 0
M  V30 4892 N 467.252 2.68332 5.1476 0
M  V30 4893 H 470.017 2.79605 1.07893 0
M  V30 4894 H 467.578 1.55672 0.444732 0
M  V30 4895 H 469.57 2.04074 3.4948 0
M  V30 4896 H 468.14 1.15811 2.90356 0
M  V30 4897 H 467.36 3.44176 1.92189 0
M  V30 4898 H 468.648 4.19565 2.87824 0
M  V30 4899 H 468.046 2.08528 5.25864 0
M  V30 4900 H 466.603 2.75575 5.90679 0
M  V30 4901 N 470.036 -0.519951 1.48776 0
M  V30 4902 C 471.313 -1.28123 1.47797 0
M  V30 4903 C 471.693 -2.10196 0.195157 0
M  V30 4904 O 471.041 -2.13167 -0.822925 0
M  V30 4905 C 471.251 -2.15413 2.74587 0
M  V30 4906 C 472.599 -2.75225 3.23321 0
M  V30 4907 O 473.623 -2.25694 2.75574 0
M  V30 4908 O 472.482 -3.65346 4.06429 0
M  V30 4909 H 469.576 -0.578793 0.590701 0
M  V30 4910 H 472.122 -0.535779 1.6102 0
M  V30 4911 H 470.894 -1.54617 3.59457 0
M  V30 4912 H 470.517 -2.97186 2.64132 0
M  V30 4913 N 471.514 -1.37532 -0.769588 0
M  V30 4914 C 472.446 -1.29347 -1.89214 0
M  V30 4915 C 473.459 -0.208842 -1.61455 0
M  V30 4916 O 474.648 -0.465158 -1.72333 0
M  V30 4917 C 471.748 -0.977649 -3.24492 0
M  V30 4918 C 470.921 -2.16817 -3.7988 0
M  V30 4919 C 469.98 -1.82229 -4.93639 0
M  V30 4920 O 469.006 -2.54548 -5.09111 0
M  V30 4921 N 470.208 -0.767696 -5.75401 0
M  V30 4922 H 472.973 -2.26073 -1.96751 0
M  V30 4923 H 470.534 -1.31185 -0.948795 0
M  V30 4924 H 472.526 -0.727065 -3.98115 0
M  V30 4925 H 471.096 -0.0988777 -3.12444 0
M  V30 4926 H 470.316 -2.58038 -2.9801 0
M  V30 4927 H 471.604 -2.96308 -4.13617 0
M  V30 4928 H 471.002 -0.167626 -5.65452 0
M  V30 4929 H 469.559 -0.576973 -6.49241 0
M  V30 4930 N 472.992 0.995999 -1.22138 0
M  V30 4931 C 473.939 2.08551 -0.988687 0
M  V30 4932 C 474.909 1.65864 0.0885021 0
M  V30 4933 O 476.094 1.90704 -0.0604589 0
M  V30 4934 C 473.234 3.40374 -0.569191 0
M  V30 4935 C 472.347 3.96421 -1.71681 0
M  V30 4936 C 471.482 5.1639 -1.2456 0
M  V30 4937 C 470.521 5.64567 -2.36497 0
M  V30 4938 N 469.658 6.75777 -1.90445 0
M  V30 4939 H 474.498 2.2779 -1.92135 0
M  V30 4940 H 472.035 1.1168 -0.957388 0
M  V30 4941 H 473.993 4.16068 -0.307166 0
M  V30 4942 H 472.623 3.21145 0.326462 0
M  V30 4943 H 471.675 3.17628 -2.09324 0
M  V30 4944 H 472.987 4.2816 -2.55891 0
M  V30 4945 H 472.141 5.99362 -0.940774 0
M  V30 4946 H 470.88 4.86266 -0.373662 0
M  V30 4947 H 469.885 4.80185 -2.67772 0
M  V30 4948 H 471.11 5.96716 -3.24202 0
M  V30 4949 H 469.056 6.47443 -1.05609 0
M  V30 4950 H 468.973 7.06818 -2.68223 0
M  V30 4951 H 470.241 7.62262 -1.63022 0
M  V30 4952 N 474.47 1.03057 1.19235 0
M  V30 4953 C 475.716 0.729098 1.89241 0
M  V30 4954 C 476.049 -0.740573 1.79525 0
M  V30 4955 O 475.324 -1.53946 1.18874 0
M  V30 4956 C 475.607 1.18304 3.40112 0
M  V30 4957 C 475.46 2.71406 3.5869 0
M  V30 4958 C 476.779 0.765161 4.33397 0
M  V30 4959 H 473.898 0.266338 0.687192 0
M  V30 4960 H 476.54 1.28079 1.40341 0
M  V30 4961 H 474.69 0.713672 3.81889 0
M  V30 4962 H 476.362 3.26303 3.26074 0
M  V30 4963 H 474.605 3.11717 3.01687 0
M  V30 4964 H 475.276 2.98225 4.64506 0
M  V30 4965 H 477.752 1.16889 3.99345 0
M  V30 4966 H 476.628 1.11065 5.37546 0
M  V30 4967 H 476.889 -0.332372 4.40849 0
M  V30 4968 N 475.948 -1.35272 0.808662 0
M  V30 4969 C 477.359 -1.81179 0.450688 0
M  V30 4970 C 477.71 -1.67143 -1.02751 0
M  V30 4971 O 476.835 -1.20325 -1.79864 0
M  V30 4972 C 477.43 -3.28943 0.811275 0
M  V30 4973 C 475.989 -3.72985 0.505871 0
M  V30 4974 C 475.136 -2.57229 1.03578 0
M  V30 4975 H 478.087 -1.2322 1.00012 0
M  V30 4976 H 478.108 -3.80342 0.109588 0
M  V30 4977 H 477.62 -3.39127 1.88718 0
M  V30 4978 H 475.721 -3.68349 -0.561209 0
M  V30 4979 H 475.834 -4.67677 1.03995 0
M  V30 4980 H 474.198 -2.50548 0.458005 0
M  V30 4981 H 474.981 -2.7019 2.11784 0
M  V30 4982 N 477.426 -0.562348 -1.47226 0
M  V30 4983 C 478.656 -0.0451619 -2.06551 0
M  V30 4984 C 479.064 1.25626 -1.41473 0
M  V30 4985 O 478.407 1.76563 -0.507061 0
M  V30 4986 C 478.469 0.216068 -3.5885 0
M  V30 4987 C 478.133 -0.996691 -4.45999 0
M  V30 4988 C 479.13 -1.90358 -4.83797 0
M  V30 4989 C 476.815 -1.21281 -4.87438 0
M  V30 4990 C 478.809 -3.01023 -5.6184 0
M  V30 4991 C 476.496 -2.32255 -5.65244 0
M  V30 4992 C 477.494 -3.21956 -6.02356 0
M  V30 4993 O 477.182 -4.31005 -6.78594 0
M  V30 4994 H 476.914 -0.0451646 -0.67449 0
M  V30 4995 H 479.468 -0.776842 -1.90143 0
M  V30 4996 H 477.698 1.00212 -3.7349 0
M  V30 4997 H 479.387 0.679264 -4.00176 0
M  V30 4998 H 480.153 -1.74868 -4.52378 0
M  V30 4999 H 476.032 -0.523767 -4.58015 0
M  V30 5000 H 479.576 -3.71064 -5.90726 0
M  V30 5001 H 475.473 -2.47715 -5.96077 0
M  V30 5002 H 476.241 -4.29118 -6.96994 0
M  V30 5003 N 478.904 1.54736 -0.299062 0
M  V30 5004 C 480.153 1.99279 0.311549 0
M  V30 5005 C 480.466 1.19107 1.55154 0
M  V30 5006 O 481.672 1.53908 2.23662 0
M  V30 5007 C 480.128 3.54768 0.605632 0
M  V30 5008 C 479.736 4.43746 -0.615914 0
M  V30 5009 C 481.48 4.07841 1.17754 0
M  V30 5010 C 479.387 5.90663 -0.29509 0
M  V30 5011 H 478.317 0.744359 0.120187 0
M  V30 5012 H 480.968 1.78919 -0.407464 0
M  V30 5013 H 479.35 3.71021 1.38419 0
M  V30 5014 H 480.524 4.39267 -1.39218 0
M  V30 5015 H 478.839 4.01434 -1.10633 0
M  V30 5016 H 481.436 5.15174 1.43179 0
M  V30 5017 H 481.779 3.58324 2.11918 0
M  V30 5018 H 482.312 3.95123 0.460739 0
M  V30 5019 H 479.051 6.44325 -1.20524 0
M  V30 5020 H 478.571 5.98155 0.44394 0
M  V30 5021 H 480.25 6.46916 0.104048 0
M  V30 5022 N 480.382 0.0267497 1.57577 0
M  V30 5023 C 481.629 -0.652404 1.91703 0
M  V30 5024 C 481.957 -1.72271 0.902936 0
M  V30 5025 O 481.212 -1.955 -0.0884843 0
M  V30 5026 C 481.511 -1.30914 3.3256 0
M  V30 5027 C 481.177 -0.369441 4.49384 0
M  V30 5028 C 479.839 -0.110791 4.81072 0
M  V30 5029 C 482.191 0.275971 5.20469 0
M  V30 5030 C 479.519 0.801116 5.81205 0
M  V30 5031 C 481.871 1.17592 6.21575 0
M  V30 5032 C 480.535 1.44348 6.51705 0
M  V30 5033 H 479.805 -0.238732 0.70149 0
M  V30 5034 H 482.452 0.0880091 1.91298 0
M  V30 5035 H 480.757 -2.12425 3.29216 0
M  V30 5036 H 482.454 -1.84115 3.56234 0
M  V30 5037 H 479.044 -0.581211 4.24641 0
M  V30 5038 H 483.228 0.0892 4.9622 0
M  V30 5039 H 478.484 1.01614 6.02897 0
M  V30 5040 H 482.658 1.68223 6.75777 0
M  V30 5041 H 480.285 2.15176 7.29111 0
M  V30 5042 N 481.861 -1.55662 -0.24637 0
M  V30 5043 C 483.277 -1.48098 -0.594907 0
M  V30 5044 C 483.477 -0.717044 -1.8831 0
M  V30 5045 O 482.533 -0.246618 -2.51293 0
M  V30 5046 C 483.846 -2.92507 -0.697146 0
M  V30 5047 C 485.394 -3.02881 -0.789436 0
M  V30 5048 C 485.869 -4.48598 -0.923232 0
M  V30 5049 N 487.36 -4.52538 -0.988088 0
M  V30 5050 C 488.095 -5.62536 -1.11089 0
M  V30 5051 N 487.591 -6.82342 -1.19919 0
M  V30 5052 N 489.384 -5.50334 -1.14408 0
M  V30 5053 H 481.535 -2.0377 0.599278 0
M  V30 5054 H 483.798 -0.925145 0.20691 0
M  V30 5055 H 483.504 -3.51242 0.179396 0
M  V30 5056 H 483.378 -3.43024 -1.5689 0
M  V30 5057 H 485.765 -2.44226 -1.65643 0
M  V30 5058 H 485.846 -2.55574 0.107482 0
M  V30 5059 H 485.49 -5.07864 -0.0607927 0
M  V30 5060 H 485.42 -4.93587 -1.8352 0
M  V30 5061 H 487.911 -3.66248 -0.931167 0
M  V30 5062 H 488.224 -7.61924 -1.29197 0
M  V30 5063 H 486.569 -6.85102 -1.16876 0
M  V30 5064 H 489.76 -4.5567 -1.07158 0
M  V30 5065 H 489.933 -6.36096 -1.23634 0
M  V30 5066 N 483.339 0.512053 -1.4905 0
M  V30 5067 C 484.616 1.27337 -1.48474 0
M  V30 5068 C 484.996 2.1009 -0.206301 0
M  V30 5069 O 484.344 2.136 0.811609 0
M  V30 5070 C 484.554 2.13954 -2.75726 0
M  V30 5071 C 485.902 2.73507 -3.24776 0
M  V30 5072 O 486.926 2.24229 -2.76767 0
M  V30 5073 O 485.785 3.63186 -4.08361 0
M  V30 5074 H 482.879 0.575652 -0.593762 0
M  V30 5075 H 485.425 0.527232 -1.61302 0
M  V30 5076 H 484.197 1.52709 -3.60272 0
M  V30 5077 H 483.82 2.95782 -2.65705 0
M  V30 5078 N 484.817 1.37938 0.762283 0
M  V30 5079 C 485.765 1.34569 1.89721 0
M  V30 5080 C 486.759 0.232929 1.67791 0
M  V30 5081 O 487.965 0.401485 1.75465 0
M  V30 5082 H 484.34 0.419594 0.624055 0
M  V30 5083 H 486.311 2.30357 1.8968 0
M  V30 5084 C 485.06 1.17898 3.27101 0
M  V30 5085 H 484.383 2.02781 3.44558 0
M  V30 5086 H 485.823 1.19593 4.06784 0
M  V30 5087 C 484.282 -0.114728 3.36705 0
M  V30 5088 O 484.812 -1.0949 3.8649 0
M  V30 5089 N 483.018 -0.16863 2.9011 0
M  V30 5090 H 482.565 0.62967 2.49786 0
M  V30 5091 H 482.523 -1.03383 2.96916 0
M  V30 5092 N 486.295 -0.989507 1.22664 0
M  V30 5093 C 487.227 -2.0824 0.957542 0
M  V30 5094 C 488.24 -1.6267 -0.0651098 0
M  V30 5095 O 489.429 -1.77695 0.169312 0
M  V30 5096 C 486.529 -3.36298 0.419145 0
M  V30 5097 C 485.702 -4.10882 1.49982 0
M  V30 5098 C 484.761 -5.17221 0.967904 0
M  V30 5099 O 483.787 -5.44613 1.65487 0
M  V30 5100 N 484.989 -5.80124 -0.20896 0
M  V30 5101 H 487.754 -2.31904 1.89843 0
M  V30 5102 H 485.315 -1.15552 1.13399 0
M  V30 5103 H 487.307 -4.04671 0.0485451 0
M  V30 5104 H 485.877 -3.09671 -0.426937 0
M  V30 5105 H 485.097 -3.37092 2.04359 0
M  V30 5106 H 486.385 -4.57482 2.22682 0
M  V30 5107 H 485.783 -5.60244 -0.783818 0
M  V30 5108 H 484.34 -6.49715 -0.520913 0
M  V30 5109 N 487.773 -1.03688 -1.18687 0
M  V30 5110 C 489.019 -0.74888 -1.89112 0
M  V30 5111 C 489.374 0.715345 -1.78607 0
M  V30 5112 O 488.667 1.51498 -1.17299 0
M  V30 5113 C 488.861 -1.14477 -3.3857 0
M  V30 5114 C 488.69 -2.64594 -3.63621 0
M  V30 5115 C 487.46 -3.31685 -3.812 0
M  V30 5116 C 489.658 -3.62811 -3.64517 0
M  V30 5117 N 487.64 -4.70822 -3.93955 0
M  V30 5118 C 489.011 -4.87603 -3.8294 0
M  V30 5119 C 491.066 -3.56495 -3.47585 0
M  V30 5120 C 489.769 -6.0684 -3.86184 0
M  V30 5121 C 491.795 -4.75155 -3.52111 0
M  V30 5122 C 491.157 -5.98765 -3.71026 0
M  V30 5123 H 487.256 -0.32603 -0.710794 0
M  V30 5124 H 489.84 -1.3258 -1.42586 0
M  V30 5125 H 488.011 -0.595974 -3.838 0
M  V30 5126 H 489.743 -0.808187 -3.96548 0
M  V30 5127 H 486.498 -2.82091 -3.80423 0
M  V30 5128 H 486.922 -5.43122 -4.04163 0
M  V30 5129 H 491.564 -2.61907 -3.31911 0
M  V30 5130 H 489.282 -7.01788 -4.00648 0
M  V30 5131 H 492.868 -4.71905 -3.40289 0
M  V30 5132 H 491.748 -6.89047 -3.74412 0
M  V30 5133 N 489.251 1.34841 -0.815825 0
M  V30 5134 C 490.497 1.98793 -0.401129 0
M  V30 5135 C 490.83 1.64548 1.03139 0
M  V30 5136 O 490.105 0.913487 1.71714 0
M  V30 5137 C 490.388 3.55143 -0.595409 0
M  V30 5138 C 490.241 3.99155 -2.07352 0
M  V30 5139 C 491.56 4.40092 -0.0268823 0
M  V30 5140 H 488.679 0.722146 -0.14722 0
M  V30 5141 H 491.321 1.59847 -1.02707 0
M  V30 5142 H 489.471 3.8845 -0.0625779 0
M  V30 5143 H 491.143 3.76216 -2.66945 0
M  V30 5144 H 489.386 3.49726 -2.56659 0
M  V30 5145 H 490.057 5.07971 -2.1603 0
M  V30 5146 H 492.533 4.13298 -0.482042 0
M  V30 5147 H 491.409 5.48562 -0.19267 0
M  V30 5148 H 491.67 4.29016 1.06759 0
M  V30 5149 N 490.729 0.570148 1.46925 0
M  V30 5150 C 491.977 0.0508523 2.02036 0
M  V30 5151 C 492.298 -1.30885 1.44548 0
M  V30 5152 O 491.568 -1.85647 0.625453 0
M  V30 5153 H 490.148 0.0158088 0.746833 0
M  V30 5154 H 492.81 0.743086 1.80178 0
M  V30 5155 H 491.906 -0.027575 3.12088 0
M  V30 5156 N 492.207 -1.54576 0.307264 0
M  V30 5157 C 493.454 -2.00263 -0.300167 0
M  V30 5158 C 493.782 -1.19561 -1.53413 0
M  V30 5159 O 493.037 -0.261487 -1.93945 0
M  V30 5160 C 493.336 -3.50572 -0.695253 0
M  V30 5161 C 493.002 -4.48771 0.437679 0
M  V30 5162 C 491.664 -4.7534 0.748681 0
M  V30 5163 C 494.016 -5.0721 1.19949 0
M  V30 5164 C 491.344 -5.5761 1.8245 0
M  V30 5165 C 493.696 -5.90651 2.26527 0
M  V30 5166 C 492.36 -6.15528 2.58227 0
M  V30 5167 H 491.63 -0.732814 -0.109839 0
M  V30 5168 H 494.277 -1.86664 0.427661 0
M  V30 5169 H 492.582 -3.61814 -1.50326 0
M  V30 5170 H 494.279 -3.83352 -1.17653 0
M  V30 5171 H 490.869 -4.282 0.185187 0
M  V30 5172 H 495.053 -4.86679 0.972474 0
M  V30 5173 H 490.309 -5.75121 2.07476 0
M  V30 5174 H 494.483 -6.34957 2.86011 0
M  V30 5175 H 492.11 -6.79066 3.4172 0
M  V30 5176 N 493.685 -0.035106 -1.57561 0
M  V30 5177 C 494.962 0.681212 -1.83354 0
M  V30 5178 C 495.342 1.89986 -0.920252 0
M  V30 5179 O 494.69 2.28489 0.0226815 0
M  V30 5180 C 494.9 1.05376 -3.32712 0
M  V30 5181 C 496.248 1.44286 -3.99333 0
M  V30 5182 O 497.272 1.14656 -3.37242 0
M  V30 5183 O 496.131 1.99518 -5.08778 0
M  V30 5184 H 493.225 0.334741 -0.756226 0
M  V30 5185 H 495.771 -0.0632448 -1.69582 0
M  V30 5186 H 494.543 0.186668 -3.90854 0
M  V30 5187 H 494.166 1.85619 -3.51613 0
M  V30 5188 N 495.163 1.55791 0.238111 0
M  V30 5189 C 496.44 1.68798 0.98826 0
M  V30 5190 C 496.82 0.577562 2.03045 0
M  V30 5191 O 496.168 -0.41778 2.24648 0
M  V30 5192 C 496.378 3.09454 1.61367 0
M  V30 5193 C 497.726 3.68335 2.11221 0
M  V30 5194 O 498.75 3.1231 1.71292 0
M  V30 5195 O 497.609 4.6657 2.84561 0
M  V30 5196 H 494.703 0.686881 0.460568 0
M  V30 5197 H 497.249 1.68118 0.231202 0
M  V30 5198 H 496.021 3.81726 0.860295 0
M  V30 5199 H 495.644 3.14182 2.4367 0
M  V30 5200 N 496.642 -0.504142 1.49319 0
M  V30 5201 C 497.888 -1.26033 1.58882 0
M  V30 5202 C 498.221 -1.92268 0.273274 0
M  V30 5203 O 497.496 -1.80567 -0.72291 0
M  V30 5204 C 497.779 -2.32976 2.7458 0
M  V30 5205 C 497.632 -1.71263 4.1592 0
M  V30 5206 C 498.951 -3.34561 2.85932 0
M  V30 5207 H 496.07 -0.456863 0.578312 0
M  V30 5208 H 498.712 -0.558965 1.81592 0
M  V30 5209 H 496.862 -2.92796 2.55348 0
M  V30 5210 H 498.534 -1.15294 4.4666 0
M  V30 5211 H 496.777 -1.01686 4.21714 0
M  V30 5212 H 497.448 -2.48816 4.92742 0
M  V30 5213 H 499.924 -2.84727 3.0343 0
M  V30 5214 H 498.8 -4.06754 3.68568 0
M  V30 5215 H 499.061 -3.96695 1.95154 0
M  V30 5216 N 498.12 -1.38341 -0.754957 0
M  V30 5217 C 499.03 -1.3769 -1.89944 0
M  V30 5218 C 500.046 -0.274194 -1.71826 0
M  V30 5219 O 501.222 -0.512391 -1.94773 0
M  V30 5220 C 498.287 -1.19938 -3.25293 0
M  V30 5221 C 497.348 -2.40001 -3.55946 0
M  V30 5222 C 496.581 -2.23087 -4.84838 0
M  V30 5223 O 496.804 -1.22386 -5.57116 0
M  V30 5224 O 495.738 -3.11646 -5.14937 0
M  V30 5225 H 499.564 -2.3412 -1.93446 0
M  V30 5226 H 497.149 -1.19246 -0.900044 0
M  V30 5227 H 499.031 -1.12093 -4.06218 0
M  V30 5228 H 497.706 -0.265919 -3.22606 0
M  V30 5229 H 496.613 -2.53421 -2.75188 0
M  V30 5230 H 497.946 -3.31973 -3.63394 0
M  V30 5231 N 499.598 0.982988 -1.23187 0
M  V30 5232 C 500.823 1.76455 -1.08988 0
M  V30 5233 C 501.248 1.84726 0.354691 0
M  V30 5234 O 500.606 1.30699 1.25649 0
M  V30 5235 C 500.654 3.17094 -1.71708 0
M  V30 5236 O 499.758 4.00648 -0.977477 0
M  V30 5237 H 499.099 0.542988 -0.382177 0
M  V30 5238 H 501.629 1.23413 -1.63188 0
M  V30 5239 H 501.639 3.67684 -1.76841 0
M  V30 5240 H 500.314 3.10389 -2.76823 0
M  V30 5241 H 498.891 3.59161 -1.0029 0
M  V30 5242 N 501.076 1.04316 1.18135 0
M  V30 5243 C 502.323 0.74802 1.88178 0
M  V30 5244 C 502.651 -0.72441 1.80506 0
M  V30 5245 O 501.906 -1.54463 1.20165 0
M  V30 5246 C 502.205 1.16271 3.37958 0
M  V30 5247 C 501.871 2.63585 3.65833 0
M  V30 5248 C 500.533 3.03829 3.73151 0
M  V30 5249 C 502.885 3.58822 3.78016 0
M  V30 5250 C 500.213 4.38194 3.90132 0
M  V30 5251 C 502.565 4.92909 3.96514 0
M  V30 5252 C 501.229 5.3282 4.02068 0
M  V30 5253 H 500.499 0.27372 0.688592 0
M  V30 5254 H 503.146 1.30863 1.39811 0
M  V30 5255 H 501.451 0.520938 3.88321 0
M  V30 5256 H 503.148 0.911672 3.90499 0
M  V30 5257 H 499.738 2.31414 3.60757 0
M  V30 5258 H 503.922 3.28875 3.71692 0
M  V30 5259 H 499.178 4.68631 3.92677 0
M  V30 5260 H 503.352 5.66606 4.04883 0
M  V30 5261 H 500.979 6.36943 4.14979 0
M  V30 5262 N 502.554 -1.34406 0.822964 0
M  V30 5263 C 503.501 -2.29519 0.24284 0
M  V30 5264 C 504.471 -1.5359 -0.632397 0
M  V30 5265 O 505.656 -1.8196 -0.57403 0
M  V30 5266 C 502.796 -3.40032 -0.58925 0
M  V30 5267 C 501.909 -4.30899 0.308236 0
M  V30 5268 C 501.044 -5.28515 -0.533425 0
M  V30 5269 C 500.083 -6.1102 0.363444 0
M  V30 5270 N 499.22 -7.00725 -0.439147 0
M  V30 5271 H 504.06 -2.78537 1.05929 0
M  V30 5272 H 501.597 -1.3707 0.533872 0
M  V30 5273 H 503.555 -4.0279 -1.087 0
M  V30 5274 H 502.185 -2.92248 -1.37081 0
M  V30 5275 H 501.237 -3.69002 0.924203 0
M  V30 5276 H 502.549 -4.88717 0.997862 0
M  V30 5277 H 501.703 -5.96725 -1.09565 0
M  V30 5278 H 500.442 -4.71235 -1.25656 0
M  V30 5279 H 499.447 -5.41743 0.937812 0
M  V30 5280 H 500.672 -6.70381 1.08469 0
M  V30 5281 H 498.618 -6.45913 -1.14595 0
M  V30 5282 H 498.535 -7.55756 0.19209 0
M  V30 5283 H 499.803 -7.73263 -0.984124 0
M  V30 5284 N 504.032 -0.577932 -1.46621 0
M  V30 5285 C 505.26 -0.0671642 -2.06791 0
M  V30 5286 C 505.675 1.23571 -1.42743 0
M  V30 5287 O 505.032 1.74602 -0.531062 0
M  V30 5288 C 505.083 0.110357 -3.61332 0
M  V30 5289 O 504.804 -1.14095 -4.22982 0
M  V30 5290 C 506.305 0.656025 -4.38419 0
M  V30 5291 H 503.525 -0.0552732 -0.66872 0
M  V30 5292 H 506.069 -0.797242 -1.8832 0
M  V30 5293 H 504.224 0.790637 -3.79246 0
M  V30 5294 H 504.638 -0.951742 -5.15793 0
M  V30 5295 H 506.112 0.729438 -5.47159 0
M  V30 5296 H 506.589 1.67195 -4.06131 0
M  V30 5297 H 507.195 0.0107692 -4.25299 0
M  V30 5298 N 505.51 1.54411 -0.315457 0
M  V30 5299 C 506.457 2.24048 0.554166 0
M  V30 5300 C 507.427 1.2283 1.11812 0
M  V30 5301 O 508.612 1.51491 1.15997 0
M  V30 5302 C 505.752 2.99574 1.71316 0
M  V30 5303 C 504.865 4.15594 1.17922 0
M  V30 5304 C 504 4.78669 2.30324 0
M  V30 5305 C 503.039 5.86807 1.74137 0
M  V30 5306 N 502.176 6.43777 2.8017 0
M  V30 5307 H 507.016 2.97964 -0.0462602 0
M  V30 5308 H 504.553 1.47059 -0.0346009 0
M  V30 5309 H 506.511 3.41604 2.39505 0
M  V30 5310 H 505.141 2.28008 2.285 0
M  V30 5311 H 504.193 3.78404 0.389136 0
M  V30 5312 H 505.505 4.93459 0.728012 0
M  V30 5313 H 504.659 5.23626 3.06433 0
M  V30 5314 H 503.398 4.00168 2.78778 0
M  V30 5315 H 502.403 5.41261 0.965236 0
M  V30 5316 H 503.628 6.67201 1.2657 0
M  V30 5317 H 501.574 5.68153 3.2793 0
M  V30 5318 H 501.491 7.17031 2.39588 0
M  V30 5319 H 502.759 6.9339 3.56132 0
M  V30 5320 N 506.988 0.0434614 1.5754 0
M  V30 5321 C 508.234 -0.632971 1.92669 0
M  V30 5322 C 508.567 -1.70947 0.921446 0
M  V30 5323 O 507.842 -1.94426 -0.0537202 0
M  V30 5324 C 508.125 -1.23619 3.38216 0
M  V30 5325 C 507.978 -0.168274 4.49485 0
M  V30 5326 C 509.297 -2.15008 3.84005 0
M  V30 5327 H 506.416 -0.228629 0.700641 0
M  V30 5328 H 509.058 0.103651 1.89717 0
M  V30 5329 H 507.208 -1.864 3.40863 0
M  V30 5330 H 508.88 0.463196 4.58969 0
M  V30 5331 H 507.123 0.504581 4.30855 0
M  V30 5332 H 507.794 -0.630218 5.48391 0
M  V30 5333 H 510.27 -1.62198 3.83185 0
M  V30 5334 H 509.146 -2.54161 4.86511 0
M  V30 5335 H 509.407 -3.04707 3.20322 0
M  V30 5336 N 508.466 -1.55915 -0.229846 0
M  V30 5337 C 509.691 -1.8296 -0.976743 0
M  V30 5338 C 510.116 -0.622735 -1.77493 0
M  V30 5339 O 509.474 0.428431 -1.76165 0
M  V30 5340 C 509.522 -3.07916 -1.8767 0
M  V30 5341 O 508.626 -2.86028 -2.97088 0
M  V30 5342 H 507.967 -0.603453 -0.277021 0
M  V30 5343 H 510.497 -2.0312 -0.245669 0
M  V30 5344 H 510.507 -3.37802 -2.2881 0
M  V30 5345 H 509.182 -3.95389 -1.28996 0
M  V30 5346 H 507.759 -2.67355 -2.59954 0
M  V30 5347 N 509.944 0.496216 -1.49584 0
M  V30 5348 C 511.174 1.27209 -1.62793 0
M  V30 5349 C 511.582 1.86799 -0.300476 0
M  V30 5350 O 510.925 1.68802 0.724674 0
M  V30 5351 C 510.987 2.43812 -2.64189 0
M  V30 5352 C 510.651 2.05055 -4.08414 0
M  V30 5353 C 511.648 1.58752 -4.9507 0
M  V30 5354 C 509.333 2.14543 -4.54177 0
M  V30 5355 C 511.327 1.22448 -6.25528 0
M  V30 5356 C 509.014 1.77851 -5.84647 0
M  V30 5357 C 510.012 1.31878 -6.70147 0
M  V30 5358 O 509.7 0.956834 -7.98185 0
M  V30 5359 H 509.432 0.391848 -0.550846 0
M  V30 5360 H 511.986 0.601712 -1.96389 0
M  V30 5361 H 510.216 3.13941 -2.25783 0
M  V30 5362 H 511.905 3.05829 -2.66877 0
M  V30 5363 H 512.671 1.50863 -4.60939 0
M  V30 5364 H 508.55 2.49277 -3.87791 0
M  V30 5365 H 512.094 0.864933 -6.92217 0
M  V30 5366 H 507.991 1.8539 -6.18305 0
M  V30 5367 H 508.759 1.08789 -8.11238 0
M  V30 5368 N 511.423 1.38739 0.74761 0
M  V30 5369 C 512.353 1.39173 1.87492 0
M  V30 5370 C 513.334 0.256794 1.6815 0
M  V30 5371 O 514.519 0.460762 1.88655 0
M  V30 5372 C 511.649 1.22197 3.25093 0
M  V30 5373 C 510.603 2.32957 3.59047 0
M  V30 5374 C 509.929 2.01082 4.95449 0
M  V30 5375 C 511.229 3.75237 3.6331 0
M  V30 5376 H 512.923 2.3351 1.87386 0
M  V30 5377 H 510.469 1.12399 0.900134 0
M  V30 5378 H 512.422 1.21124 4.03617 0
M  V30 5379 H 511.146 0.243241 3.25693 0
M  V30 5380 H 509.805 2.33226 2.82845 0
M  V30 5381 H 509.453 1.01678 4.92616 0
M  V30 5382 H 509.153 2.75267 5.19136 0
M  V30 5383 H 510.677 2.01638 5.76346 0
M  V30 5384 H 512.091 3.76966 4.31937 0
M  V30 5385 H 510.488 4.48677 3.98509 0
M  V30 5386 H 511.558 4.07122 2.634 0
M  V30 5387 N 512.901 -0.976442 1.23707 0
M  V30 5388 C 513.848 -2.06952 1.02174 0
M  V30 5389 C 514.818 -1.65984 -0.0621034 0
M  V30 5390 O 516.003 -1.90584 0.0907906 0
M  V30 5391 C 513.143 -3.39425 0.62327 0
M  V30 5392 C 512.256 -3.9364 1.77966 0
M  V30 5393 C 511.391 -5.14343 1.3276 0
M  V30 5394 C 510.43 -5.60733 2.45449 0
M  V30 5395 N 509.567 -6.72662 2.01172 0
M  V30 5396 H 514.407 -2.24704 1.95734 0
M  V30 5397 H 511.944 -1.10143 0.975034 0
M  V30 5398 H 513.902 -4.15526 0.37332 0
M  V30 5399 H 512.532 -3.21624 -0.275329 0
M  V30 5400 H 511.584 -3.14258 2.14351 0
M  V30 5401 H 512.896 -4.24035 2.62671 0
M  V30 5402 H 512.05 -5.97789 1.03601 0
M  V30 5403 H 510.789 -4.8561 0.450975 0
M  V30 5404 H 509.794 -4.75865 2.75378 0
M  V30 5405 H 511.019 -5.91483 3.33654 0
M  V30 5406 H 508.965 -6.45681 1.15895 0
M  V30 5407 H 508.882 -7.02462 2.79434 0
M  V30 5408 H 510.15 -7.59572 1.75129 0
M  V30 5409 N 514.379 -1.04941 -1.1758 0
M  V30 5410 C 515.311 -0.606174 -2.21039 0
M  V30 5411 C 516.324 0.328763 -1.59446 0
M  V30 5412 O 517.513 0.121895 -1.78083 0
M  V30 5413 C 514.613 0.133294 -3.38638 0
M  V30 5414 C 513.786 -0.811711 -4.29802 0
M  V30 5415 C 512.845 -0.113958 -5.26077 0
M  V30 5416 O 511.871 -0.747237 -5.64274 0
M  V30 5417 N 513.073 1.14953 -5.69004 0
M  V30 5418 H 515.838 -1.49606 -2.59689 0
M  V30 5419 H 513.399 -0.930997 -1.32454 0
M  V30 5420 H 515.391 0.610144 -4.00074 0
M  V30 5421 H 513.961 0.924816 -2.98607 0
M  V30 5422 H 513.181 -1.46824 -3.65837 0
M  V30 5423 H 514.469 -1.45326 -4.87604 0
M  V30 5424 H 513.867 1.68441 -5.40041 0
M  V30 5425 H 512.424 1.57049 -6.32597 0
M  V30 5426 N 515.857 1.33968 -0.830081 0
M  V30 5427 C 516.804 2.29387 -0.255008 0
M  V30 5428 C 517.774 1.53923 0.624243 0
M  V30 5429 O 518.959 1.82262 0.564372 0
M  V30 5430 C 516.099 3.4034 0.571209 0
M  V30 5431 C 515.212 4.30729 -0.331083 0
M  V30 5432 C 514.347 5.2879 0.505389 0
M  V30 5433 C 513.386 6.10819 -0.395843 0
M  V30 5434 N 512.523 7.00948 0.401979 0
M  V30 5435 H 517.363 2.77972 -1.07404 0
M  V30 5436 H 514.9 1.36785 -0.541133 0
M  V30 5437 H 516.858 4.03361 1.06562 0
M  V30 5438 H 515.488 2.9297 1.35529 0
M  V30 5439 H 514.54 3.68507 -0.943759 0
M  V30 5440 H 515.852 4.88181 -1.02377 0
M  V30 5441 H 515.006 5.97297 1.06399 0
M  V30 5442 H 513.745 4.71894 1.23155 0
M  V30 5443 H 512.75 5.41238 -0.966529 0
M  V30 5444 H 513.975 6.69797 -1.12023 0
M  V30 5445 H 511.921 6.46512 1.11168 0
M  V30 5446 H 511.838 7.55643 -0.232167 0
M  V30 5447 H 513.106 7.73774 0.943102 0
M  V30 5448 N 517.335 0.585699 1.46312 0
M  V30 5449 C 518.583 0.072278 2.01971 0
M  V30 5450 C 518.904 -1.29345 1.45928 0
M  V30 5451 O 518.174 -1.84973 0.645109 0
M  V30 5452 H 516.754 0.023729 0.746623 0
M  V30 5453 H 519.416 0.762155 1.7938 0
M  V30 5454 H 518.512 0.00552767 3.121 0
M  V30 5455 N 518.813 -1.54241 0.323641 0
M  V30 5456 C 519.743 -2.27289 -0.534993 0
M  V30 5457 C 520.724 -1.28087 -1.11927 0
M  V30 5458 O 521.909 -1.56899 -1.14439 0
M  V30 5459 C 519.039 -3.03075 -1.69596 0
M  V30 5460 C 517.993 -4.09614 -1.24098 0
M  V30 5461 C 517.319 -4.73242 -2.4889 0
M  V30 5462 C 518.619 -5.21087 -0.355789 0
M  V30 5463 H 520.313 -2.99308 0.0743257 0
M  V30 5464 H 517.859 -1.43952 0.0371874 0
M  V30 5465 H 519.812 -3.52907 -2.30293 0
M  V30 5466 H 518.536 -2.28673 -2.33187 0
M  V30 5467 H 517.195 -3.60666 -0.656945 0
M  V30 5468 H 516.843 -3.95455 -3.10845 0
M  V30 5469 H 516.543 -5.45209 -2.19138 0
M  V30 5470 H 518.067 -5.25848 -3.10348 0
M  V30 5471 H 519.481 -5.66675 -0.869042 0
M  V30 5472 H 517.878 -5.9991 -0.151045 0
M  V30 5473 H 518.948 -4.81005 0.613339 0
M  V30 5474 N 520.291 -0.0518155 -1.57515 0
M  V30 5475 C 521.539 0.620595 -1.92336 0
M  V30 5476 C 521.86 1.71345 -0.930907 0
M  V30 5477 O 521.13 1.95885 0.0241341 0
M  V30 5478 H 519.71 0.232226 -0.709986 0
M  V30 5479 H 522.372 -0.104969 -1.94617 0
M  V30 5480 H 521.468 1.05879 -2.93592 0
M  V30 5481 N 521.769 1.56035 0.221574 0
M  V30 5482 C 523.017 1.78693 0.944102 0
M  V30 5483 C 523.338 0.620317 1.8487 0
M  V30 5484 O 522.608 -0.362784 1.92512 0
M  V30 5485 H 521.188 0.659082 0.351597 0
M  V30 5486 H 523.85 1.93497 0.233435 0
M  V30 5487 H 522.946 2.70837 1.55093 0
M  V30 5488 N 523.247 -0.488276 1.49845 0
M  V30 5489 C 524.21 -1.57069 1.66919 0
M  V30 5490 C 525.21 -1.51445 0.540479 0
M  V30 5491 O 526.4 -1.5437 0.807188 0
M  V30 5492 C 523.532 -2.96718 1.67844 0
M  V30 5493 H 524.725 -1.43254 2.63474 0
M  V30 5494 H 522.278 -0.713435 1.39068 0
M  V30 5495 H 523.013 -3.15996 0.7292 0
M  V30 5496 H 522.798 -3.02208 2.49826 0
M  V30 5497 H 524.288 -3.75335 1.83066 0
M  V30 5498 N 524.725 -1.39134 -0.740242 0
M  V30 5499 C 525.658 -1.3182 -1.86276 0
M  V30 5500 C 526.636 -0.192794 -1.61453 0
M  V30 5501 O 527.82 -0.372365 -1.84786 0
M  V30 5502 C 524.947 -1.04564 -3.22155 0
M  V30 5503 C 523.993 -2.19224 -3.65846 0
M  V30 5504 S 524.826 -3.81466 -3.75824 0
M  V30 5505 C 525.982 -3.56425 -5.14502 0
M  V30 5506 H 526.215 -2.26822 -1.92195 0
M  V30 5507 H 523.748 -1.25127 -0.904576 0
M  V30 5508 H 525.706 -0.895228 -4.00619 0
M  V30 5509 H 524.367 -0.112578 -3.13898 0
M  V30 5510 H 523.56 -1.95732 -4.6444 0
M  V30 5511 H 523.162 -2.30441 -2.94572 0
M  V30 5512 H 525.454 -3.13366 -6.00673 0
M  V30 5513 H 526.397 -4.54462 -5.43019 0
M  V30 5514 H 526.805 -2.90641 -4.8393 0
M  V30 5515 N 526.204 0.969867 -1.24223 0
M  V30 5516 C 527.45 1.7151 -1.08223 0
M  V30 5517 C 527.783 1.90478 0.37838 0
M  V30 5518 O 527.058 1.4647 1.27971 0
M  V30 5519 C 527.341 3.10714 -1.82013 0
M  V30 5520 C 527.194 2.9925 -3.35811 0
M  V30 5521 C 528.513 4.10332 -1.59108 0
M  V30 5522 H 525.632 0.622499 -0.394543 0
M  V30 5523 H 528.274 1.1284 -1.52863 0
M  V30 5524 H 526.424 3.608 -1.44068 0
M  V30 5525 H 528.096 2.56608 -3.83341 0
M  V30 5526 H 526.339 2.35512 -3.64303 0
M  V30 5527 H 527.01 3.97857 -3.82641 0
M  V30 5528 H 529.486 3.69097 -1.92111 0
M  V30 5529 H 528.362 5.05804 -2.13198 0
M  V30 5530 H 528.623 4.38926 -0.528832 0
M  V30 5531 N 527.682 1.05563 1.17022 0
M  V30 5532 C 528.928 0.778872 1.87897 0
M  V30 5533 C 529.283 -0.686839 1.79723 0
M  V30 5534 O 528.576 -1.49612 1.19694 0
M  V30 5535 C 528.77 1.19849 3.36706 0
M  V30 5536 C 528.599 2.70345 3.59366 0
M  V30 5537 C 527.369 3.37707 3.75875 0
M  V30 5538 C 529.567 3.68564 3.58699 0
M  V30 5539 N 527.549 4.7703 3.86414 0
M  V30 5540 C 528.92 4.93634 3.75134 0
M  V30 5541 C 530.975 3.6198 3.4187 0
M  V30 5542 C 529.678 6.12907 3.76481 0
M  V30 5543 C 531.704 4.80697 3.44507 0
M  V30 5544 C 531.066 6.04592 3.61453 0
M  V30 5545 H 527.165 0.337297 0.705517 0
M  V30 5546 H 529.749 1.34832 1.40458 0
M  V30 5547 H 527.92 0.656958 3.82804 0
M  V30 5548 H 529.652 0.871172 3.95212 0
M  V30 5549 H 526.407 2.88108 3.75887 0
M  V30 5550 H 526.831 5.49483 3.95471 0
M  V30 5551 H 531.473 2.67154 3.27702 0
M  V30 5552 H 529.191 7.08073 3.89432 0
M  V30 5553 H 532.777 4.77259 3.32738 0
M  V30 5554 H 531.657 6.94916 3.63403 0
M  V30 5555 N 529.16 -1.33526 0.837174 0
M  V30 5556 C 530.123 -2.27551 0.274421 0
M  V30 5557 C 531.123 -1.50886 -0.555881 0
M  V30 5558 O 532.313 -1.70227 -0.369918 0
M  V30 5559 C 529.445 -3.35332 -0.613605 0
M  V30 5560 H 530.638 -2.78837 1.10408 0
M  V30 5561 H 528.191 -1.439 0.610126 0
M  V30 5562 H 528.926 -2.89285 -1.46577 0
M  V30 5563 H 528.711 -3.92095 -0.0195341 0
M  V30 5564 H 530.201 -4.05433 -1.00068 0
M  V30 5565 N 530.638 -0.59345 -1.46 0
M  V30 5566 C 531.568 0.121192 -2.33185 0
M  V30 5567 C 532.549 0.872977 -1.4599 0
M  V30 5568 O 533.734 0.846321 -1.74789 0
M  V30 5569 C 530.864 1.12844 -3.28456 0
M  V30 5570 C 529.818 0.4908 -4.25177 0
M  V30 5571 C 529.144 1.60529 -5.10034 0
M  V30 5572 C 530.444 -0.578949 -5.19081 0
M  V30 5573 H 532.138 -0.606767 -2.93187 0
M  V30 5574 H 529.684 -0.293242 -1.40983 0
M  V30 5575 H 531.637 1.63684 -3.88311 0
M  V30 5576 H 530.361 1.88681 -2.66584 0
M  V30 5577 H 529.02 0.00339328 -3.666 0
M  V30 5578 H 528.668 2.35359 -4.44539 0
M  V30 5579 H 528.368 1.18422 -5.75543 0
M  V30 5580 H 529.892 2.11623 -5.72755 0
M  V30 5581 H 531.306 -0.155199 -5.7309 0
M  V30 5582 H 529.703 -0.920947 -5.92991 0
M  V30 5583 H 530.773 -1.46109 -4.62364 0
M  V30 5584 N 532.116 1.54067 -0.331816 0
M  V30 5585 C 533.393 1.92915 0.322955 0
M  V30 5586 C 533.773 1.26225 1.69205 0
M  V30 5587 O 533.121 0.408919 2.24811 0
M  V30 5588 C 533.331 3.46619 0.406946 0
M  V30 5589 C 534.679 4.19386 0.663339 0
M  V30 5590 O 535.703 3.5282 0.489536 0
M  V30 5591 O 534.562 5.37288 0.999193 0
M  V30 5592 H 531.656 0.805808 0.186016 0
M  V30 5593 H 534.202 1.65342 -0.382135 0
M  V30 5594 H 532.974 3.87354 -0.554287 0
M  V30 5595 H 532.597 3.80324 1.15929 0
M  V30 5596 N 533.594 0.0601682 1.57485 0
M  V30 5597 C 534.524 -0.90889 2.15085 0
M  V30 5598 C 535.505 -1.31838 1.07484 0
M  V30 5599 O 536.69 -1.3915 1.35466 0
M  V30 5600 C 533.82 -2.18059 2.7031 0
M  V30 5601 C 532.774 -1.91088 3.82974 0
M  V30 5602 C 532.1 -3.24789 4.24754 0
M  V30 5603 C 533.4 -1.22535 5.07723 0
M  V30 5604 H 535.094 -0.429093 2.96309 0
M  V30 5605 H 532.64 -0.204952 1.42534 0
M  V30 5606 H 534.593 -2.86258 3.09248 0
M  V30 5607 H 533.317 -2.6826 1.8629 0
M  V30 5608 H 531.976 -1.25297 3.44523 0
M  V30 5609 H 531.624 -3.72809 3.37672 0
M  V30 5610 H 531.324 -3.07538 5.00694 0
M  V30 5611 H 532.848 -3.94205 4.66299 0
M  V30 5612 H 534.262 -1.80783 5.4405 0
M  V30 5613 H 532.659 -1.1558 5.88864 0
M  V30 5614 H 533.729 -0.202692 4.84476 0
M  V30 5615 N 535.072 -1.5615 -0.213296 0
M  V30 5616 C 536.349 -1.70349 -0.961281 0
M  V30 5617 C 536.729 -0.609791 -2.02101 0
M  V30 5618 O 536.077 0.381987 -2.25285 0
M  V30 5619 C 536.287 -3.11982 -1.56424 0
M  V30 5620 C 537.635 -3.71649 -2.05334 0
M  V30 5621 O 538.659 -3.14995 -1.66302 0
M  V30 5622 O 537.518 -4.71038 -2.77102 0
M  V30 5623 H 534.612 -0.694121 -0.449582 0
M  V30 5624 H 537.158 -1.68464 -0.204426 0
M  V30 5625 H 535.93 -3.83046 -0.799457 0
M  V30 5626 H 535.553 -3.18019 -2.38641 0
M  V30 5627 N 536.55 0.480323 -1.50102 0
M  V30 5628 C 537.827 1.24159 -1.51142 0
M  V30 5629 C 538.207 2.09605 -0.250818 0
M  V30 5630 O 537.555 2.15274 0.766118 0
M  V30 5631 C 537.765 2.08057 -2.80202 0
M  V30 5632 C 539.113 2.66556 -3.30504 0
M  V30 5633 O 540.137 2.18308 -2.81461 0
M  V30 5634 O 538.996 3.54442 -4.15973 0
M  V30 5635 H 536.09 0.562928 -0.605839 0
M  V30 5636 H 538.636 0.492899 -1.62384 0
M  V30 5637 H 537.408 1.45032 -3.6343 0
M  V30 5638 H 537.031 2.90079 -2.71919 0
M  V30 5639 N 538.028 1.39524 0.732853 0
M  V30 5640 C 539.275 1.36865 1.49246 0
M  V30 5641 C 539.603 -0.0347118 1.94469 0
M  V30 5642 O 538.858 -1.01596 1.67262 0
M  V30 5643 C 539.157 2.28916 2.74468 0
M  V30 5644 C 538.823 3.76506 2.481 0
M  V30 5645 C 537.485 4.16721 2.40619 0
M  V30 5646 C 539.837 4.69846 2.25598 0
M  V30 5647 C 537.165 5.48334 2.08679 0
M  V30 5648 C 539.517 6.01739 1.95174 0
M  V30 5649 C 538.181 6.41015 1.86163 0
M  V30 5650 H 537.451 0.500824 0.546129 0
M  V30 5651 H 540.098 1.72047 0.840958 0
M  V30 5652 H 538.403 1.86859 3.4437 0
M  V30 5653 H 540.1 2.2415 3.32502 0
M  V30 5654 H 536.69 3.44635 2.54803 0
M  V30 5655 H 540.874 4.39608 2.30344 0
M  V30 5656 H 536.13 5.77685 2.00226 0
M  V30 5657 H 540.304 6.73591 1.76771 0
M  V30 5658 H 537.931 7.42917 1.61179 0
M  V30 5659 N 539.506 -0.963266 1.24736 0
M  V30 5660 C 540.469 -2.04013 1.04457 0
M  V30 5661 C 541.469 -1.608 0.000335555 0
M  V30 5662 O 542.659 -1.72515 0.241719 0
M  V30 5663 C 539.791 -3.35858 0.584162 0
M  V30 5664 H 540.984 -2.23436 2.00041 0
M  V30 5665 H 538.537 -1.13914 1.07021 0
M  V30 5666 H 539.272 -3.22128 -0.374673 0
M  V30 5667 H 539.057 -3.68568 1.3379 0
M  V30 5668 H 540.547 -4.1502 0.463451 0
M  V30 5669 N 540.985 -1.06182 -1.16461 0
M  V30 5670 C 542.233 -0.776326 -1.86595 0
M  V30 5671 C 542.554 0.69921 -1.82033 0
M  V30 5672 O 541.824 1.50579 -1.2531 0
M  V30 5673 H 540.404 -0.284184 -0.690832 0
M  V30 5674 H 543.066 -1.34308 -1.41235 0
M  V30 5675 H 542.162 -1.10022 -2.92064 0
M  V30 5676 N 542.463 1.3308 -0.844243 0
M  V30 5677 C 543.71 1.97605 -0.44255 0
M  V30 5678 C 544.038 1.66856 0.999458 0
M  V30 5679 O 543.293 0.943586 1.7145 0
M  V30 5680 C 543.592 3.52045 -0.616354 0
M  V30 5681 C 543.258 4.02757 -2.02726 0
M  V30 5682 C 541.92 4.16316 -2.41317 0
M  V30 5683 C 544.272 4.29776 -2.9486 0
M  V30 5684 C 541.6 4.54232 -3.71335 0
M  V30 5685 C 543.952 4.69146 -4.24364 0
M  V30 5686 C 542.616 4.80911 -4.62904 0
M  V30 5687 H 541.886 0.723088 -0.161941 0
M  V30 5688 H 544.533 1.58663 -1.0723 0
M  V30 5689 H 542.838 3.91681 0.0966812 0
M  V30 5690 H 544.535 3.99981 -0.285756 0
M  V30 5691 H 541.125 3.9268 -1.71756 0
M  V30 5692 H 545.309 4.18818 -2.6628 0
M  V30 5693 H 540.565 4.61535 -4.00993 0
M  V30 5694 H 544.739 4.89008 -4.95827 0
M  V30 5695 H 542.366 5.10048 -5.63698 0
M  V30 5696 N 543.941 0.601185 1.45683 0
M  V30 5697 C 545.166 0.0982245 2.07167 0
M  V30 5698 C 545.591 -1.20546 1.44396 0
M  V30 5699 O 544.949 -1.73247 0.534347 0
M  V30 5700 C 544.997 -0.0346976 3.60583 0
M  V30 5701 O 544.101 -1.08657 3.97828 0
M  V30 5702 H 543.442 0.0711618 0.660176 0
M  V30 5703 H 545.972 0.829376 1.87036 0
M  V30 5704 H 545.982 -0.234969 4.07323 0
M  V30 5705 H 544.657 0.917265 4.05659 0
M  V30 5706 H 543.234 -0.863275 3.6277 0
M  V30 5707 N 545.419 -1.53889 0.339982 0
M  V30 5708 C 546.659 -2.02765 -0.258011 0
M  V30 5709 C 547.023 -1.22249 -1.48051 0
M  V30 5710 O 548.224 -1.61007 -2.15245 0
M  V30 5711 C 546.495 -3.5286 -0.567872 0
M  V30 5712 S 548.054 -4.23647 -1.14318 0
M  V30 5713 H 544.872 -0.706814 -0.0770389 0
M  V30 5714 H 547.474 -1.89594 0.476917 0
M  V30 5715 H 546.178 -4.09073 0.329745 0
M  V30 5716 H 545.709 -3.70144 -1.33256 0
M  V30 5717 H 547.724 -4.32676 -2.42911 0
M  V30 5718 N 546.897 -0.0685191 -1.57451 0
M  V30 5719 C 547.845 0.917577 -2.13736 0
M  V30 5720 C 548.839 1.31049 -1.07344 0
M  V30 5721 O 550.045 1.28811 -1.25728 0
M  V30 5722 H 546.42 0.313835 -0.683382 0
M  V30 5723 H 548.391 0.417903 -2.95459 0
M  V30 5724 C 547.14 2.17686 -2.71123 0
M  V30 5725 H 546.463 1.88336 -3.52661 0
M  V30 5726 H 547.903 2.84803 -3.14107 0
M  V30 5727 C 546.362 2.9332 -1.65726 0
M  V30 5728 O 546.892 3.86901 -1.08031 0
M  V30 5729 N 545.098 2.56367 -1.36837 0
M  V30 5730 H 544.645 1.80341 -1.83943 0
M  V30 5731 H 544.603 3.07276 -0.665501 0
M  V30 5732 N 548.375 1.56261 0.205012 0
M  V30 5733 C 549.307 1.90266 1.27795 0
M  V30 5734 C 550.32 0.792397 1.42214 0
M  V30 5735 O 551.509 1.07077 1.42817 0
M  V30 5736 C 548.609 2.11074 2.65143 0
M  V30 5737 C 547.782 3.42176 2.7246 0
M  V30 5738 C 546.841 3.52216 3.90936 0
M  V30 5739 O 545.867 4.25119 3.78501 0
M  V30 5740 N 547.069 2.84573 5.05963 0
M  V30 5741 H 549.834 2.82896 0.989434 0
M  V30 5742 H 547.395 1.57008 0.394981 0
M  V30 5743 H 549.387 2.15089 3.4281 0
M  V30 5744 H 547.957 1.2499 2.86524 0
M  V30 5745 H 547.177 3.50116 1.81142 0
M  V30 5746 H 548.465 4.28509 2.74331 0
M  V30 5747 H 547.863 2.25152 5.18963 0
M  V30 5748 H 546.42 2.94228 5.81613 0
M  V30 5749 N 549.853 -0.472356 1.50355 0
M  V30 5750 C 551.101 -1.22211 1.60962 0
M  V30 5751 C 551.422 -1.92497 0.311439 0
M  V30 5752 O 550.692 -1.8405 -0.671002 0
M  V30 5753 H 549.272 -0.454092 0.593135 0
M  V30 5754 H 551.934 -0.544977 1.87126 0
M  V30 5755 H 551.03 -1.9707 2.42012 0
M  V30 5756 N 551.331 -1.39911 -0.725443 0
M  V30 5757 C 552.747 -1.21725 -1.03224 0
M  V30 5758 C 552.947 -0.0855224 -2.01318 0
M  V30 5759 O 552.003 0.55976 -2.46217 0
M  V30 5760 C 553.316 -2.55511 -1.58539 0
M  V30 5761 C 554.864 -2.62439 -1.70572 0
M  V30 5762 C 555.339 -3.9647 -2.29294 0
M  V30 5763 N 556.83 -3.98159 -2.36692 0
M  V30 5764 C 557.565 -4.98647 -2.83088 0
M  V30 5765 N 557.061 -6.0953 -3.2931 0
M  V30 5766 N 558.854 -4.8602 -2.82384 0
M  V30 5767 H 551.005 -2.12267 -0.075048 0
M  V30 5768 H 553.268 -0.943136 -0.0959066 0
M  V30 5769 H 552.974 -3.38926 -0.939249 0
M  V30 5770 H 552.848 -2.75905 -2.57208 0
M  V30 5771 H 555.235 -1.79401 -2.34306 0
M  V30 5772 H 555.316 -2.45885 -0.705297 0
M  V30 5773 H 554.96 -4.79942 -1.66186 0
M  V30 5774 H 554.89 -4.10349 -3.30032 0
M  V30 5775 H 557.381 -3.18085 -2.04035 0
M  V30 5776 H 557.694 -6.82106 -3.6325 0
M  V30 5777 H 556.039 -6.1311 -3.27294 0
M  V30 5778 H 559.23 -3.98493 -2.45603 0
M  V30 5779 H 559.403 -5.64478 -3.18226 0
M  V30 5780 N 552.809 0.956637 -1.25245 0
M  V30 5781 C 554.039 1.7332 -1.12445 0
M  V30 5782 C 554.447 1.86392 0.324732 0
M  V30 5783 O 553.79 1.35967 1.23526 0
M  V30 5784 C 553.852 3.16603 -1.70303 0
M  V30 5785 C 553.516 3.26966 -3.19284 0
M  V30 5786 C 554.513 3.11434 -4.16299 0
M  V30 5787 C 552.198 3.50851 -3.59456 0
M  V30 5788 C 554.192 3.1963 -5.51467 0
M  V30 5789 C 551.879 3.58684 -4.94761 0
M  V30 5790 C 552.877 3.43087 -5.90576 0
M  V30 5791 O 552.565 3.50598 -7.2342 0
M  V30 5792 H 552.297 0.549981 -0.393061 0
M  V30 5793 H 554.851 1.20892 -1.66055 0
M  V30 5794 H 553.081 3.70385 -1.11138 0
M  V30 5795 H 554.77 3.76109 -1.52632 0
M  V30 5796 H 555.536 2.92853 -3.86604 0
M  V30 5797 H 551.415 3.62053 -2.85375 0
M  V30 5798 H 554.959 3.07373 -6.26233 0
M  V30 5799 H 550.856 3.76782 -5.24124 0
M  V30 5800 H 551.624 3.67242 -7.31489 0
M  V30 5801 N 554.287 1.06798 1.15896 0
M  V30 5802 C 555.698 0.811355 1.68149 0
M  V30 5803 C 556.049 -0.664339 1.8461 0
M  V30 5804 O 555.174 -1.51485 1.54535 0
M  V30 5805 C 555.769 1.46624 3.05429 0
M  V30 5806 C 554.328 1.25726 3.54781 0
M  V30 5807 C 553.475 1.53949 2.3064 0
M  V30 5808 H 556.426 1.23078 1.00187 0
M  V30 5809 H 556.447 0.88437 3.7008 0
M  V30 5810 H 555.959 2.54025 2.93416 0
M  V30 5811 H 554.06 0.20322 3.72045 0
M  V30 5812 H 554.173 1.97354 4.36564 0
M  V30 5813 H 552.537 0.96025 2.35905 0
M  V30 5814 H 553.32 2.6252 2.2122 0
M  V30 5815 N 555.766 -1.3263 0.851289 0
M  V30 5816 C 556.696 -2.31449 0.308771 0
M  V30 5817 C 557.677 -1.59531 -0.590255 0
M  V30 5818 O 558.862 -1.87351 -0.511205 0
M  V30 5819 C 555.992 -3.43586 -0.506548 0
M  V30 5820 C 554.946 -4.26963 0.297753 0
M  V30 5821 C 554.272 -5.30831 -0.642094 0
M  V30 5822 C 555.572 -4.99643 1.52166 0
M  V30 5823 H 557.266 -2.77074 1.13447 0
M  V30 5824 H 554.812 -1.33207 0.546971 0
M  V30 5825 H 556.765 -4.11754 -0.896474 0
M  V30 5826 H 555.489 -2.96681 -1.36558 0
M  V30 5827 H 554.148 -3.60437 0.669391 0
M  V30 5828 H 553.796 -4.8018 -1.49788 0
M  V30 5829 H 553.496 -5.87501 -0.107968 0
M  V30 5830 H 555.02 -6.01862 -1.02927 0
M  V30 5831 H 556.434 -5.6051 1.20421 0
M  V30 5832 H 554.831 -5.66022 1.99347 0
M  V30 5833 H 555.901 -4.27701 2.28474 0
M  V30 5834 N 557.244 -0.608902 -1.45362 0
M  V30 5835 C 558.493 -0.10218 -2.01441 0
M  V30 5836 C 558.806 1.27546 -1.48295 0
M  V30 5837 O 560.012 1.87498 -1.96359 0
M  V30 5838 C 558.468 -0.131985 -3.59658 0
M  V30 5839 C 558.076 -1.50956 -4.21801 0
M  V30 5840 C 559.82 0.319427 -4.23296 0
M  V30 5841 C 557.727 -1.49568 -5.72174 0
M  V30 5842 H 556.657 -0.0344314 -0.753213 0
M  V30 5843 H 559.308 -0.764426 -1.6682 0
M  V30 5844 H 557.69 0.596939 -3.91475 0
M  V30 5845 H 558.864 -2.26029 -4.01556 0
M  V30 5846 H 557.179 -1.90318 -3.70362 0
M  V30 5847 H 559.776 0.349013 -5.3356 0
M  V30 5848 H 560.119 1.34237 -3.94064 0
M  V30 5849 H 560.652 -0.356273 -3.96201 0
M  V30 5850 H 557.391 -2.49626 -6.06108 0
M  V30 5851 H 556.911 -0.787542 -5.94607 0
M  V30 5852 H 558.59 -1.21989 -6.35396 0
M  V30 5853 N 558.722 1.53707 -0.348139 0
M  V30 5854 C 559.654 2.22725 0.540946 0
M  V30 5855 C 560.667 1.2354 1.06027 0
M  V30 5856 O 561.856 1.49867 0.96964 0
M  V30 5857 C 558.956 2.89756 1.75768 0
M  V30 5858 C 558.129 4.15297 1.37285 0
M  V30 5859 C 557.188 4.65697 2.44976 0
M  V30 5860 O 556.214 5.29798 2.08092 0
M  V30 5861 N 557.416 4.42017 3.763 0
M  V30 5862 H 560.181 2.99658 -0.0501592 0
M  V30 5863 H 557.742 1.60979 -0.17248 0
M  V30 5864 H 559.734 3.20388 2.47252 0
M  V30 5865 H 558.304 2.16382 2.25605 0
M  V30 5866 H 557.524 3.9116 0.488584 0
M  V30 5867 H 558.812 4.96948 1.09179 0
M  V30 5868 H 558.21 3.9076 4.09051 0
M  V30 5869 H 556.767 4.77242 4.4394 0
M  V30 5870 N 560.2 0.0768682 1.57412 0
M  V30 5871 C 561.428 -0.59997 1.9801 0
M  V30 5872 C 561.843 -1.62842 0.955408 0
M  V30 5873 O 561.2 -1.8241 -0.057314 0
M  V30 5874 C 561.251 -1.26401 3.38681 0
M  V30 5875 O 560.972 -0.276723 4.37225 0
M  V30 5876 C 562.473 -2.0282 3.94182 0
M  V30 5877 H 559.693 -0.162239 0.651091 0
M  V30 5878 H 562.237 0.150771 2.03943 0
M  V30 5879 H 560.392 -1.96581 3.33819 0
M  V30 5880 H 560.806 -0.753744 5.19056 0
M  V30 5881 H 562.28 -2.44667 4.94815 0
M  V30 5882 H 562.757 -2.88678 3.31001 0
M  V30 5883 H 563.363 -1.37496 4.02461 0
M  V30 5884 N 561.678 -1.56367 -0.196722 0
M  V30 5885 C 562.608 -1.97442 -1.24655 0
M  V30 5886 C 563.589 -0.846147 -1.47561 0
M  V30 5887 O 564.774 -1.11035 -1.59326 0
M  V30 5888 C 561.904 -2.31253 -2.59112 0
M  V30 5889 C 560.858 -3.46804 -2.50821 0
M  V30 5890 C 560.184 -3.66286 -3.89536 0
M  V30 5891 C 561.484 -4.8104 -2.03465 0
M  V30 5892 H 563.178 -2.85388 -0.905216 0
M  V30 5893 H 560.724 -1.37304 -0.434002 0
M  V30 5894 H 562.677 -2.58583 -3.32736 0
M  V30 5895 H 561.401 -1.40188 -2.94983 0
M  V30 5896 H 560.06 -3.19563 -1.79653 0
M  V30 5897 H 559.708 -2.72555 -4.22756 0
M  V30 5898 H 559.408 -4.4402 -3.84864 0
M  V30 5899 H 560.932 -3.9599 -4.64784 0
M  V30 5900 H 562.346 -5.07411 -2.66846 0
M  V30 5901 H 560.743 -5.62232 -2.09798 0
M  V30 5902 H 561.813 -4.74732 -0.98781 0
M  V30 5903 N 563.156 0.464375 -1.50603 0
M  V30 5904 C 564.572 0.798684 -1.38178 0
M  V30 5905 C 564.772 1.96568 -0.44308 0
M  V30 5906 O 563.828 2.52252 0.111814 0
M  V30 5907 C 565.141 1.10444 -2.79683 0
M  V30 5908 C 566.689 1.2105 -2.88645 0
M  V30 5909 C 567.164 1.54934 -4.30998 0
M  V30 5910 N 568.655 1.61913 -4.3398 0
M  V30 5911 C 569.39 1.8965 -5.41129 0
M  V30 5912 N 568.886 2.15361 -6.58477 0
M  V30 5913 N 570.679 1.91207 -5.28579 0
M  V30 5914 H 562.83 -0.304603 -2.10204 0
M  V30 5915 H 565.093 -0.0737804 -0.945125 0
M  V30 5916 H 564.799 0.319934 -3.50242 0
M  V30 5917 H 564.673 2.03896 -3.17342 0
M  V30 5918 H 567.06 1.98567 -2.18301 0
M  V30 5919 H 567.141 0.255613 -2.5452 0
M  V30 5920 H 566.785 0.779549 -5.01882 0
M  V30 5921 H 566.715 2.51584 -4.62615 0
M  V30 5922 H 569.206 1.44055 -3.49366 0
M  V30 5923 H 569.519 2.35818 -7.35941 0
M  V30 5924 H 567.864 2.1274 -6.6164 0
M  V30 5925 H 571.055 1.70622 -4.35897 0
M  V30 5926 H 571.228 2.12488 -6.12171 0
M  V30 5927 N 564.634 1.40294 0.718013 0
M  V30 5928 C 565.566 1.36281 1.84283 0
M  V30 5929 C 566.579 0.268621 1.60569 0
M  V30 5930 O 567.768 0.528798 1.70487 0
M  V30 5931 C 564.868 1.09741 3.2064 0
M  V30 5932 C 564.041 2.30767 3.71571 0
M  V30 5933 C 563.1 2.00424 4.86535 0
M  V30 5934 O 562.126 2.73268 4.99313 0
M  V30 5935 N 563.328 0.980724 5.72156 0
M  V30 5936 H 566.093 2.3322 1.88225 0
M  V30 5937 H 563.654 1.34616 0.899453 0
M  V30 5938 H 565.646 0.874322 3.95143 0
M  V30 5939 H 564.216 0.214771 3.11861 0
M  V30 5940 H 563.436 2.68921 2.88228 0
M  V30 5941 H 564.724 3.11455 4.02335 0
M  V30 5942 H 564.122 0.377375 5.6444 0
M  V30 5943 H 562.679 0.817538 6.46653 0
M  V30 5944 N 566.112 -0.949982 1.2575 0
M  V30 5945 C 567.022 -2.08109 1.08295 0
M  V30 5946 C 568.038 -1.7399 0.0188181 0
M  V30 5947 O 569.214 -2.00187 0.220724 0
M  V30 5948 C 566.279 -3.39383 0.708534 0
M  V30 5949 C 565.34 -3.8734 1.85111 0
M  V30 5950 C 564.573 -5.12349 1.49447 0
M  V30 5951 O 564.796 -5.6905 0.392212 0
M  V30 5952 O 563.73 -5.5513 2.32624 0
M  V30 5953 H 567.556 -2.25738 2.03165 0
M  V30 5954 H 565.141 -1.06545 1.04731 0
M  V30 5955 H 567.023 -4.18277 0.512061 0
M  V30 5956 H 565.698 -3.23013 -0.210854 0
M  V30 5957 H 564.605 -3.09429 2.10248 0
M  V30 5958 H 565.938 -4.08216 2.74991 0
M  V30 5959 N 567.59 -1.07411 -1.15328 0
M  V30 5960 C 568.52 -0.716472 -2.22236 0
M  V30 5961 C 569.501 0.296373 -1.67498 0
M  V30 5962 O 570.686 0.168989 -1.93463 0
M  V30 5963 C 567.816 -0.114142 -3.47112 0
M  V30 5964 C 566.77 -1.05421 -4.14814 0
M  V30 5965 C 566.096 -0.314604 -5.33774 0
M  V30 5966 C 567.396 -2.38808 -4.64508 0
M  V30 5967 H 569.09 -1.61029 -2.52408 0
M  V30 5968 H 566.636 -0.775702 -1.21321 0
M  V30 5969 H 568.589 0.148001 -4.2114 0
M  V30 5970 H 567.313 0.814755 -3.16274 0
M  V30 5971 H 565.972 -1.30128 -3.42728 0
M  V30 5972 H 565.62 0.617772 -4.99192 0
M  V30 5973 H 565.32 -0.941209 -5.80013 0
M  V30 5974 H 566.844 -0.0602747 -6.1057 0
M  V30 5975 H 568.258 -2.18424 -5.3006 0
M  V30 5976 H 566.655 -2.97069 -5.21412 0
M  V30 5977 H 567.725 -3.01067 -3.80114 0
M  V30 5978 N 569.068 1.32177 -0.85831 0
M  V30 5979 C 570.293 2.01847 -0.476718 0
M  V30 5980 C 570.718 1.64065 0.920021 0
M  V30 5981 O 570.076 0.843189 1.60499 0
M  V30 5982 C 570.124 3.55097 -0.627578 0
M  V30 5983 O 569.228 4.11012 0.338086 0
M  V30 5984 H 568.569 0.635907 -0.191099 0
M  V30 5985 H 571.099 1.68641 -1.15851 0
M  V30 5986 H 571.109 4.04718 -0.516476 0
M  V30 5987 H 569.784 3.81938 -1.64609 0
M  V30 5988 H 568.361 3.72451 0.182917 0
M  V30 5989 N 570.547 0.616602 1.45037 0
M  V30 5990 C 571.477 -0.0840787 2.33349 0
M  V30 5991 C 572.458 -0.849641 1.4736 0
M  V30 5992 O 573.643 -0.818407 1.76113 0
M  V30 5993 C 570.773 -1.07604 3.3021 0
M  V30 5994 C 569.727 -0.423096 4.25904 0
M  V30 5995 C 569.053 -1.52394 5.12523 0
M  V30 5996 C 570.353 0.661457 5.18095 0
M  V30 5997 H 572.047 0.653333 2.92185 0
M  V30 5998 H 569.593 0.315634 1.40498 0
M  V30 5999 H 571.546 -1.57485 3.90866 0
M  V30 6000 H 570.27 -1.84416 2.69552 0
M  V30 6001 H 568.929 0.05493 3.66559 0
M  V30 6002 H 568.577 -2.28257 4.48227 0
M  V30 6003 H 568.277 -1.09251 5.77354 0
M  V30 6004 H 569.801 -2.02485 5.76049 0
M  V30 6005 H 571.215 0.246353 5.7277 0
M  V30 6006 H 569.612 1.01517 5.91451 0
M  V30 6007 H 570.682 1.53446 4.59981 0
M  V30 6008 N 572.025 -1.5352 0.356285 0
M  V30 6009 C 573.436 -1.86282 -0.12492 0
M  V30 6010 C 573.787 -1.27717 -1.48939 0
M  V30 6011 O 572.912 -0.595614 -2.08042 0
M  V30 6012 C 573.507 -3.37995 -0.23345 0
M  V30 6013 C 572.066 -3.70588 -0.658899 0
M  V30 6014 C 571.213 -2.76581 0.199596 0
M  V30 6015 H 574.164 -1.47901 0.575423 0
M  V30 6016 H 574.185 -3.65475 -1.0587 0
M  V30 6017 H 573.697 -3.8059 0.759776 0
M  V30 6018 H 571.798 -3.33544 -1.66069 0
M  V30 6019 H 571.911 -4.77076 -0.439957 0
M  V30 6020 H 570.275 -2.52552 -0.330076 0
M  V30 6021 H 571.058 -3.22008 1.19019 0
M  V30 6022 N 573.503 -0.0852151 -1.57369 0
M  V30 6023 C 574.733 0.588605 -1.98038 0
M  V30 6024 C 575.141 1.62869 -0.962817 0
M  V30 6025 O 574.484 1.83611 0.057134 0
M  V30 6026 C 574.546 1.30303 -3.35054 0
M  V30 6027 C 574.21 0.414855 -4.55113 0
M  V30 6028 C 575.207 -0.333011 -5.18832 0
M  V30 6029 C 572.892 0.335804 -5.01176 0
M  V30 6030 C 574.886 -1.14801 -6.26976 0
M  V30 6031 C 572.573 -0.482857 -6.09189 0
M  V30 6032 C 573.571 -1.22342 -6.71953 0
M  V30 6033 O 573.259 -2.02855 -7.77885 0
M  V30 6034 H 572.991 0.163249 -0.655992 0
M  V30 6035 H 575.545 -0.1582 -2.0479 0
M  V30 6036 H 573.775 2.0962 -3.24956 0
M  V30 6037 H 575.464 1.87041 -3.60237 0
M  V30 6038 H 576.23 -0.281611 -4.84182 0
M  V30 6039 H 572.109 0.901869 -4.52092 0
M  V30 6040 H 575.653 -1.72654 -6.75897 0
M  V30 6041 H 571.55 -0.535773 -6.43273 0
M  V30 6042 H 572.318 -1.95432 -7.94826 0
M  V30 6043 N 574.981 1.5647 0.188427 0
M  V30 6044 C 575.911 1.98101 1.23606 0
M  V30 6045 C 576.892 0.853961 1.47111 0
M  V30 6046 O 578.077 1.11879 1.58735 0
M  V30 6047 C 575.207 2.32624 2.57882 0
M  V30 6048 C 574.161 3.48129 2.48978 0
M  V30 6049 C 573.487 3.68347 3.87588 0
M  V30 6050 C 574.787 4.82112 2.00911 0
M  V30 6051 H 576.481 2.85864 0.890068 0
M  V30 6052 H 574.027 1.37532 0.426714 0
M  V30 6053 H 575.98 2.60343 3.3136 0
M  V30 6054 H 574.704 1.41751 2.94235 0
M  V30 6055 H 573.363 3.20511 1.77956 0
M  V30 6056 H 573.011 2.74793 4.21305 0
M  V30 6057 H 572.711 4.46055 3.82503 0
M  V30 6058 H 574.235 3.98449 4.62678 0
M  V30 6059 H 575.649 5.08819 2.64151 0
M  V30 6060 H 574.046 5.63337 2.06814 0
M  V30 6061 H 575.116 4.75249 0.96262 0
M  V30 6062 N 576.459 -0.456382 1.50847 0
M  V30 6063 C 577.87 -1.03685 1.55262 0
M  V30 6064 C 578.221 -1.92779 0.364771 0
M  V30 6065 O 577.346 -2.10043 -0.52068 0
M  V30 6066 C 577.941 -1.88718 2.81374 0
M  V30 6067 C 576.5 -2.41847 2.88422 0
M  V30 6068 C 575.647 -1.20564 2.49719 0
M  V30 6069 H 578.598 -0.238399 1.56899 0
M  V30 6070 H 578.619 -2.73957 2.6406 0
M  V30 6071 H 578.131 -1.23847 3.67809 0
M  V30 6072 H 576.232 -3.10228 2.06372 0
M  V30 6073 H 576.345 -2.75947 3.9165 0
M  V30 6074 H 574.709 -1.54504 2.02486 0
M  V30 6075 H 575.492 -0.573326 3.38479 0
M  V30 6076 N 577.937 -1.40673 -0.710563 0
M  V30 6077 C 579.162 -1.42741 -1.50465 0
M  V30 6078 C 579.587 -0.0302116 -1.88076 0
M  V30 6079 O 578.945 0.962945 -1.53613 0
M  V30 6080 C 578.993 -2.32873 -2.75322 0
M  V30 6081 O 578.097 -1.77544 -3.72226 0
M  V30 6082 H 577.438 -0.485056 -0.45345 0
M  V30 6083 H 579.968 -1.84961 -0.874681 0
M  V30 6084 H 579.978 -2.48233 -3.23797 0
M  V30 6085 H 578.653 -3.34401 -2.47283 0
M  V30 6086 H 577.23 -1.71556 -3.31093 0
M  V30 6087 N 579.415 0.9433 -1.26252 0
M  V30 6088 C 580.663 1.68592 -1.11451 0
M  V30 6089 C 580.984 1.91957 0.343123 0
M  V30 6090 O 580.254 1.51475 1.24226 0
M  V30 6091 H 578.834 0.624789 -0.409448 0
M  V30 6092 H 581.496 1.13351 -1.58548 0
M  V30 6093 H 580.592 2.66054 -1.63162 0
M  V30 6094 N 580.893 1.08022 1.14757 0
M  V30 6095 C 582.121 0.828847 1.89572 0
M  V30 6096 C 582.536 -0.618621 1.78377 0
M  V30 6097 O 581.893 -1.42482 1.1404 0
M  V30 6098 C 581.944 1.23677 3.39685 0
M  V30 6099 O 581.665 2.62746 3.50566 0
M  V30 6100 C 583.166 1.01569 4.31507 0
M  V30 6101 H 580.386 0.299196 0.600602 0
M  V30 6102 H 582.93 1.43846 1.45357 0
M  V30 6103 H 581.085 0.671347 3.81539 0
M  V30 6104 H 581.499 2.79573 4.43778 0
M  V30 6105 H 582.973 1.35055 5.35223 0
M  V30 6106 H 583.45 -0.0475433 4.39174 0
M  V30 6107 H 584.056 1.56636 3.95405 0
M  V30 6108 N 582.371 -1.3172 0.865308 0
M  V30 6109 C 583.782 -1.79104 0.527126 0
M  V30 6110 C 584.133 -1.7135 -0.955695 0
M  V30 6111 O 583.258 -1.27845 -1.74598 0
M  V30 6112 C 583.853 -3.25207 0.950061 0
M  V30 6113 C 582.412 -3.70504 0.663611 0
M  V30 6114 C 581.559 -2.52605 1.14395 0
M  V30 6115 H 584.51 -1.18868 1.05148 0
M  V30 6116 H 584.531 -3.79535 0.270805 0
M  V30 6117 H 584.043 -3.30818 2.02931 0
M  V30 6118 H 582.144 -3.70398 -0.404474 0
M  V30 6119 H 582.257 -4.62845 1.23737 0
M  V30 6120 H 580.621 -2.4838 0.563859 0
M  V30 6121 H 581.404 -2.60964 2.23053 0
M  V30 6122 N 583.85 -0.624285 -1.44708 0
M  V30 6123 C 584.76 0.0861083 -2.34442 0
M  V30 6124 C 585.776 0.84291 -1.5222 0
M  V30 6125 O 586.952 0.796723 -1.84971 0
M  V30 6126 C 584.017 1.05999 -3.30099 0
M  V30 6127 C 583.077 0.303316 -4.28227 0
M  V30 6128 C 582.311 1.23081 -5.19314 0
M  V30 6129 O 582.534 2.46929 -5.14181 0
M  V30 6130 O 581.468 0.71883 -5.97592 0
M  V30 6131 H 585.293 -0.651756 -2.96624 0
M  V30 6132 H 582.879 -0.384493 -1.44368 0
M  V30 6133 H 584.76 1.62046 -3.88997 0
M  V30 6134 H 583.436 1.77859 -2.70459 0
M  V30 6135 H 582.343 -0.300033 -3.72895 0
M  V30 6136 H 583.676 -0.375123 -4.90768 0
M  V30 6137 N 585.328 1.53329 -0.364422 0
M  V30 6138 C 586.258 2.28627 0.474543 0
M  V30 6139 C 587.239 1.31009 1.08492 0
M  V30 6140 O 588.424 1.59878 1.10239 0
M  V30 6141 C 585.554 3.07465 1.61501 0
M  V30 6142 C 584.508 4.1276 1.13194 0
M  V30 6143 C 583.834 4.79674 2.36255 0
M  V30 6144 C 585.134 5.21847 0.217507 0
M  V30 6145 H 586.828 2.99005 -0.153656 0
M  V30 6146 H 584.374 1.43803 -0.0753406 0
M  V30 6147 H 586.327 3.58889 2.20855 0
M  V30 6148 H 585.051 2.34775 2.27042 0
M  V30 6149 H 583.71 3.62281 0.56109 0
M  V30 6150 H 583.358 4.03557 3.00251 0
M  V30 6151 H 583.058 5.50827 2.04606 0
M  V30 6152 H 584.582 5.33892 2.96297 0
M  V30 6153 H 585.996 5.6878 0.718493 0
M  V30 6154 H 584.393 6.00099 -0.00806408 0
M  V30 6155 H 585.463 4.7921 -0.740653 0
M  V30 6156 N 586.806 0.0935595 1.57322 0
M  V30 6157 C 587.716 -0.880192 2.17462 0
M  V30 6158 C 588.732 -1.31135 1.14366 0
M  V30 6159 O 589.908 -1.37958 1.46729 0
M  V30 6160 C 586.973 -2.12184 2.74188 0
M  V30 6161 C 586.034 -1.74503 3.92234 0
M  V30 6162 C 585.267 -2.92748 4.46245 0
M  V30 6163 O 585.49 -4.07427 3.99198 0
M  V30 6164 O 584.424 -2.71303 5.37288 0
M  V30 6165 H 588.25 -0.398516 3.01074 0
M  V30 6166 H 585.835 -0.130707 1.48827 0
M  V30 6167 H 587.717 -2.84953 3.10451 0
M  V30 6168 H 586.392 -2.59407 1.93623 0
M  V30 6169 H 585.299 -0.989186 3.60785 0
M  V30 6170 H 586.632 -1.32044 4.74157 0
M  V30 6171 N 588.284 -1.56567 -0.180126 0
M  V30 6172 C 589.53 -1.81761 -0.899497 0
M  V30 6173 C 589.863 -0.670015 -1.82276 0
M  V30 6174 O 589.138 0.328575 -1.91705 0
M  V30 6175 C 589.421 -3.17296 -1.7028 0
M  V30 6176 C 589.274 -4.4257 -0.803255 0
M  V30 6177 C 590.593 -3.49678 -2.67233 0
M  V30 6178 H 587.712 -0.661192 -0.325567 0
M  V30 6179 H 590.354 -1.89272 -0.16612 0
M  V30 6180 H 588.504 -3.11023 -2.32802 0
M  V30 6181 H 590.176 -4.60902 -0.191585 0
M  V30 6182 H 588.419 -4.33658 -0.110796 0
M  V30 6183 H 589.09 -5.33935 -1.40064 0
M  V30 6184 H 591.566 -3.56347 -2.14839 0
M  V30 6185 H 590.442 -4.45605 -3.20511 0
M  V30 6186 H 590.703 -2.73932 -3.47007 0
M  V30 6187 N 589.762 0.448376 -1.51087 0
M  V30 6188 C 591.173 1.0286 -1.5581 0
M  V30 6189 C 591.524 1.92583 -0.374989 0
M  V30 6190 O 590.649 2.10316 0.509533 0
M  V30 6191 C 591.244 1.87223 -2.8237 0
M  V30 6192 C 589.803 2.40314 -2.897 0
M  V30 6193 C 588.95 1.19238 -2.50355 0
M  V30 6194 H 591.901 0.230075 -1.57023 0
M  V30 6195 H 591.922 2.72553 -2.6551 0
M  V30 6196 H 591.434 1.21894 -3.68461 0
M  V30 6197 H 589.535 3.09129 -2.08014 0
M  V30 6198 H 589.648 2.73866 -3.93108 0
M  V30 6199 H 588.012 1.53428 -2.03303 0
M  V30 6200 H 588.795 0.555367 -3.38778 0
M  V30 6201 N 591.24 1.41047 0.703093 0
M  V30 6202 C 592.187 1.42302 1.81711 0
M  V30 6203 C 593.157 0.278336 1.63751 0
M  V30 6204 O 594.342 0.478266 1.84709 0
M  V30 6205 C 591.482 1.30362 3.19531 0
M  V30 6206 C 590.595 2.54638 3.48975 0
M  V30 6207 C 589.73 2.35047 4.76368 0
M  V30 6208 C 588.769 3.54837 4.98756 0
M  V30 6209 N 587.906 3.34363 6.1737 0
M  V30 6210 H 592.746 2.37516 1.79973 0
M  V30 6211 H 590.283 1.1795 0.878983 0
M  V30 6212 H 592.241 1.21443 3.99134 0
M  V30 6213 H 590.871 0.387602 3.20464 0
M  V30 6214 H 589.923 2.74037 2.63833 0
M  V30 6215 H 591.235 3.43766 3.61423 0
M  V30 6216 H 590.389 2.23552 5.64012 0
M  V30 6217 H 589.128 1.43363 4.66153 0
M  V30 6218 H 588.133 3.66795 4.09563 0
M  V30 6219 H 589.358 4.47464 5.10835 0
M  V30 6220 H 587.304 2.45373 6.08382 0
M  V30 6221 H 587.221 4.17063 6.30551 0
M  V30 6222 H 588.489 3.26626 7.07768 0
M  V30 6223 N 592.718 -0.936591 1.26751 0
M  V30 6224 C 594.129 -1.49816 1.1141 0
M  V30 6225 C 594.48 -1.9383 -0.304015 0
M  V30 6226 O 593.605 -1.80346 -1.196 0
M  V30 6227 C 594.2 -2.72271 2.01629 0
M  V30 6228 C 592.759 -3.2468 1.9042 0
M  V30 6229 C 591.906 -1.97444 1.94708 0
M  V30 6230 H 594.857 -0.751604 1.39773 0
M  V30 6231 H 594.878 -3.46741 1.56688 0
M  V30 6232 H 594.39 -2.40205 3.04833 0
M  V30 6233 H 592.491 -3.61525 0.901674 0
M  V30 6234 H 592.604 -3.91476 2.76195 0
M  V30 6235 H 590.968 -2.13545 1.38818 0
M  V30 6236 H 591.751 -1.67703 2.9955 0
M  V30 6237 N 594.196 -1.08629 -1.14182 0
M  V30 6238 C 595.444 -0.815731 -1.84906 0
M  V30 6239 C 595.765 0.660441 -1.83475 0
M  V30 6240 O 595.035 1.47888 -1.28476 0
M  V30 6241 H 593.615 -0.298773 -0.684648 0
M  V30 6242 H 596.277 -1.37274 -1.38354 0
M  V30 6243 H 595.373 -1.16193 -2.89665 0
M  V30 6244 N 595.674 1.31259 -0.872281 0
M  V30 6245 C 596.606 2.27396 -0.28697 0
M  V30 6246 C 597.619 1.53181 0.551297 0
M  V30 6247 O 598.808 1.74561 0.372914 0
M  V30 6248 C 595.908 3.33335 0.611617 0
M  V30 6249 C 595.081 4.36966 -0.194729 0
M  V30 6250 C 594.14 5.22387 0.632358 0
M  V30 6251 O 593.166 5.69169 0.0595691 0
M  V30 6252 N 594.368 5.46985 1.94391 0
M  V30 6253 H 597.133 2.78261 -1.11314 0
M  V30 6254 H 594.694 1.44306 -0.733994 0
M  V30 6255 H 596.686 3.87398 1.17068 0
M  V30 6256 H 595.256 2.82496 1.33846 0
M  V30 6257 H 594.476 3.82945 -0.935241 0
M  V30 6258 H 595.764 5.03273 -0.747935 0
M  V30 6259 H 595.162 5.10737 2.43237 0
M  V30 6260 H 593.719 6.03973 2.45071 0
M  V30 6261 N 597.152 0.631951 1.44375 0
M  V30 6262 C 598.563 0.219036 1.85411 0
M  V30 6263 C 598.914 -1.22974 1.52879 0
M  V30 6264 O 598.039 -1.93579 0.967266 0
M  V30 6265 C 598.634 0.39075 3.36539 0
M  V30 6266 C 597.193 0.0323351 3.76386 0
M  V30 6267 C 596.34 0.703744 2.68221 0
M  V30 6268 H 599.291 0.837056 1.3483 0
M  V30 6269 H 599.312 -0.370056 3.78696 0
M  V30 6270 H 598.824 1.44527 3.60185 0
M  V30 6271 H 596.925 -1.02042 3.58355 0
M  V30 6272 H 597.038 0.442969 4.77048 0
M  V30 6273 H 595.402 0.138974 2.54321 0
M  V30 6274 H 596.185 1.76088 2.947 0
M  V30 6275 N 598.631 -1.53133 0.372548 0
M  V30 6276 C 599.856 -2.0625 -0.218098 0
M  V30 6277 C 600.281 -1.24375 -1.41111 0
M  V30 6278 O 599.639 -0.264554 -1.79359 0
M  V30 6279 C 599.687 -3.55858 -0.582876 0
M  V30 6280 O 598.791 -3.76667 -1.67917 0
M  V30 6281 H 598.132 -0.663317 -0.030104 0
M  V30 6282 H 600.662 -1.97477 0.535169 0
M  V30 6283 H 600.672 -3.99007 -0.851925 0
M  V30 6284 H 599.347 -4.14892 0.289428 0
M  V30 6285 H 597.924 -3.45413 -1.40513 0
M  V30 6286 N 600.109 -0.101901 -1.5727 0
M  V30 6287 C 601.019 0.868647 -2.17926 0
M  V30 6288 C 602.035 1.30527 -1.1506 0
M  V30 6289 O 603.211 1.37178 -1.47459 0
M  V30 6290 C 600.276 2.10727 -2.75309 0
M  V30 6291 C 599.337 1.7242 -3.93154 0
M  V30 6292 C 598.57 2.90377 -4.47791 0
M  V30 6293 O 598.793 4.05305 -4.01353 0
M  V30 6294 O 597.727 2.6845 -5.38719 0
M  V30 6295 H 601.553 0.382544 -3.01281 0
M  V30 6296 H 599.138 0.122812 -1.48894 0
M  V30 6297 H 601.02 2.83303 -3.11958 0
M  V30 6298 H 599.695 2.58376 -1.94996 0
M  V30 6299 H 598.602 0.970039 -3.61305 0
M  V30 6300 H 599.935 1.29528 -4.74851 0
M  V30 6301 N 601.587 1.56661 0.17182 0
M  V30 6302 C 602.998 1.71652 0.734329 0
M  V30 6303 C 603.349 0.712335 1.82812 0
M  V30 6304 O 602.474 -0.126401 2.16031 0
M  V30 6305 C 603.069 3.11226 1.3388 0
M  V30 6306 C 601.628 3.27904 1.84813 0
M  V30 6307 C 600.775 2.67603 0.726917 0
M  V30 6308 H 603.726 1.5861 -0.0535665 0
M  V30 6309 H 603.747 3.09849 2.20849 0
M  V30 6310 H 603.259 3.8429 0.54249 0
M  V30 6311 H 601.36 2.59796 2.6709 0
M  V30 6312 H 601.473 4.35637 1.99392 0
M  V30 6313 H 599.837 2.274 1.14723 0
M  V30 6314 H 600.62 3.43252 -0.0575334 0
M  V30 6315 N 603.065 -0.440357 1.51323 0
M  V30 6316 C 603.975 -1.55955 1.75258 0
M  V30 6317 C 604.991 -1.61933 0.636687 0
M  V30 6318 O 606.167 -1.79231 0.918593 0
M  V30 6319 C 603.232 -2.9196 1.86977 0
M  V30 6320 C 602.293 -2.96122 3.10822 0
M  V30 6321 C 601.526 -4.2564 3.21973 0
M  V30 6322 O 601.749 -5.17851 2.39137 0
M  V30 6323 O 600.683 -4.36025 4.14929 0
M  V30 6324 H 604.509 -1.38673 2.70191 0
M  V30 6325 H 602.094 -0.623055 1.35788 0
M  V30 6326 H 603.976 -3.72682 1.96688 0
M  V30 6327 H 602.651 -3.09375 0.952307 0
M  V30 6328 H 601.558 -2.14366 3.06591 0
M  V30 6329 H 602.891 -2.83651 4.02247 0
M  V30 6330 N 604.543 -1.41418 -0.695603 0
M  V30 6331 C 605.493 -1.39731 -1.80165 0
M  V30 6332 C 606.477 -0.271689 -1.5859 0
M  V30 6333 O 607.669 -0.512354 -1.69422 0
M  V30 6334 C 604.798 -1.28187 -3.1847 0
M  V30 6335 C 603.884 -2.45612 -3.45739 0
M  V30 6336 N 604.275 -3.71077 -3.43708 0
M  V30 6337 C 602.573 -2.39424 -3.76288 0
M  V30 6338 C 603.274 -4.48957 -3.69882 0
M  V30 6339 N 602.25 -3.7907 -3.89624 0
M  V30 6340 H 606.052 -2.34656 -1.76957 0
M  V30 6341 H 603.566 -1.35473 -0.89559 0
M  V30 6342 H 605.563 -1.2506 -3.977 0
M  V30 6343 H 604.223 -0.342468 -3.22889 0
M  V30 6344 H 605.234 -4.03963 -3.2409 0
M  V30 6345 H 601.911 -1.53955 -3.88077 0
M  V30 6346 H 603.301 -5.57887 -3.74448 0
M  V30 6347 N 606.021 0.929856 -1.27246 0
M  V30 6348 C 607.269 1.674 -1.13233 0
M  V30 6349 C 607.59 1.92311 0.322744 0
M  V30 6350 O 606.86 1.52784 1.22612 0
M  V30 6351 H 605.44 0.620411 -0.416052 0
M  V30 6352 H 608.102 1.11663 -1.59741 0
M  V30 6353 H 607.198 2.64308 -1.65975 0
M  V30 6354 N 607.499 1.09233 1.13605 0
M  V30 6355 C 608.91 0.846839 1.6639 0
M  V30 6356 C 609.261 -0.625031 1.85978 0
M  V30 6357 O 608.386 -1.48173 1.57714 0
M  V30 6358 C 608.981 1.5307 3.0225 0
M  V30 6359 C 607.54 1.33223 3.52035 0
M  V30 6360 C 606.687 1.58806 2.27323 0
M  V30 6361 H 609.638 1.25175 0.975541 0
M  V30 6362 H 609.659 0.96267 3.68121 0
M  V30 6363 H 609.171 2.60192 2.87961 0
M  V30 6364 H 607.272 0.282091 3.71531 0
M  V30 6365 H 607.385 2.0657 4.32279 0
M  V30 6366 H 605.749 1.01007 2.33815 0
M  V30 6367 H 606.532 2.67153 2.15602 0
M  V30 6368 N 608.977 -1.30795 0.87923 0
M  V30 6369 C 610.202 -2.01063 0.508769 0
M  V30 6370 C 610.627 -1.65508 -0.893803 0
M  V30 6371 O 609.985 -0.868616 -1.59138 0
M  V30 6372 C 610.033 -3.54054 0.683991 0
M  V30 6373 O 609.137 -4.11498 -0.272654 0
M  V30 6374 H 608.478 -0.632786 0.201191 0
M  V30 6375 H 611.008 -1.66776 1.18519 0
M  V30 6376 H 611.018 -4.03845 0.580798 0
M  V30 6377 H 609.693 -3.79271 1.70665 0
M  V30 6378 H 608.27 -3.72695 -0.12364 0
M  V30 6379 N 610.455 -0.639598 -1.44038 0
M  V30 6380 C 611.866 -0.228866 -1.85292 0
M  V30 6381 C 612.217 1.22161 -1.53529 0
M  V30 6382 O 611.342 1.93064 -0.977518 0
M  V30 6383 C 611.937 -0.408592 -3.36327 0
M  V30 6384 C 610.496 -0.0522953 -3.76364 0
M  V30 6385 C 609.643 -0.717959 -2.67844 0
M  V30 6386 H 612.594 -0.844194 -1.34384 0
M  V30 6387 H 612.615 0.349968 -3.78887 0
M  V30 6388 H 612.127 -1.46435 -3.59414 0
M  V30 6389 H 610.228 1.0014 -3.58891 0
M  V30 6390 H 610.341 -0.468261 -4.76806 0
M  V30 6391 H 608.705 -0.152459 -2.54243 0
M  V30 6392 H 609.488 -1.77648 -2.93762 0
M  V30 6393 N 611.933 1.52934 -0.380664 0
M  V30 6394 C 613.181 2.01069 0.203874 0
M  V30 6395 C 613.502 1.26922 1.4804 0
M  V30 6396 O 612.772 0.386787 1.92044 0
M  V30 6397 H 611.352 0.742882 0.0783279 0
M  V30 6398 H 614.014 1.88099 -0.510368 0
M  V30 6399 H 613.11 3.09258 0.42021 0
M  V30 6400 N 613.412 0.11024 1.57214 0
M  V30 6401 C 614.344 -0.873497 2.11902 0
M  V30 6402 C 615.357 -1.23588 1.05971 0
M  V30 6403 O 616.546 -1.18636 1.33371 0
M  V30 6404 C 613.646 -2.17805 2.59643 0
M  V30 6405 C 612.819 -1.98869 3.89576 0
M  V30 6406 C 611.878 -3.12974 4.23006 0
M  V30 6407 O 610.904 -2.86272 4.91973 0
M  V30 6408 N 612.106 -4.39167 3.79622 0
M  V30 6409 H 614.871 -0.406317 2.96933 0
M  V30 6410 H 612.432 -0.074437 1.61729 0
M  V30 6411 H 614.424 -2.93117 2.79042 0
M  V30 6412 H 612.994 -2.55899 1.7954 0
M  V30 6413 H 612.214 -1.078 3.79174 0
M  V30 6414 H 613.502 -1.83512 4.74553 0
M  V30 6415 H 612.9 -4.63739 3.2398 0
M  V30 6416 H 611.457 -5.11379 4.04147 0
M  V30 6417 N 614.89 -1.56749 -0.16351 0
M  V30 6418 C 616.167 -1.73321 -0.906599 0
M  V30 6419 C 616.547 -0.673779 -2.00059 0
M  V30 6420 O 615.895 0.310121 -2.26386 0
M  V30 6421 C 616.105 -3.168 -1.46419 0
M  V30 6422 C 617.453 -3.77993 -1.93407 0
M  V30 6423 O 618.477 -3.20127 -1.56196 0
M  V30 6424 O 617.336 -4.79615 -2.61976 0
M  V30 6425 H 614.43 -0.708073 -0.427272 0
M  V30 6426 H 616.976 -1.69029 -0.150727 0
M  V30 6427 H 615.748 -3.85396 -0.677189 0
M  V30 6428 H 615.371 -3.2545 -2.28403 0
M  V30 6429 N 616.368 0.432326 -1.51554 0
M  V30 6430 C 617.596 1.20364 -1.68286 0
M  V30 6431 C 618.011 1.84888 -0.38233 0
M  V30 6432 O 617.368 1.70924 0.639627 0
M  V30 6433 C 617.419 2.28398 -2.80208 0
M  V30 6434 O 617.14 1.66512 -4.05223 0
M  V30 6435 C 618.641 3.18584 -3.08251 0
M  V30 6436 H 615.861 0.36259 -0.564596 0
M  V30 6437 H 618.405 0.511647 -1.97996 0
M  V30 6438 H 616.56 2.93305 -2.53083 0
M  V30 6439 H 616.974 2.37951 -4.67418 0
M  V30 6440 H 618.448 3.90511 -3.90135 0
M  V30 6441 H 618.925 3.79628 -2.2086 0
M  V30 6442 H 619.531 2.59372 -3.37055 0
M  V30 6443 N 617.846 1.41785 0.688094 0
M  V30 6444 C 619.093 1.41544 1.44816 0
M  V30 6445 C 619.421 0.0271746 1.94481 0
M  V30 6446 O 618.676 -0.962235 1.7041 0
M  V30 6447 C 618.975 2.37532 2.67046 0
M  V30 6448 C 618.641 3.84209 2.35996 0
M  V30 6449 C 617.303 4.24165 2.27239 0
M  V30 6450 C 619.655 4.76785 2.10536 0
M  V30 6451 C 616.983 5.54695 1.91128 0
M  V30 6452 C 619.335 6.07644 1.75931 0
M  V30 6453 C 617.999 6.46613 1.65675 0
M  V30 6454 H 617.269 0.517945 0.529919 0
M  V30 6455 H 619.916 1.74635 0.785797 0
M  V30 6456 H 618.221 1.9772 3.38251 0
M  V30 6457 H 619.918 2.34615 3.25203 0
M  V30 6458 H 616.508 3.52567 2.4371 0
M  V30 6459 H 620.692 4.46714 2.16242 0
M  V30 6460 H 615.948 5.83762 1.81746 0
M  V30 6461 H 620.122 6.78874 1.55252 0
M  V30 6462 H 617.749 7.47668 1.37463 0
M  V30 6463 N 619.324 -0.923095 1.27737 0
M  V30 6464 C 620.564 -1.6858 1.15586 0
M  V30 6465 C 620.928 -1.89758 -0.292562 0
M  V30 6466 O 622.129 -2.6339 -0.536583 0
M  V30 6467 C 620.4 -3.01275 1.92271 0
M  V30 6468 S 621.959 -3.924 1.96387 0
M  V30 6469 H 618.777 -0.579069 0.412554 0
M  V30 6470 H 621.379 -1.09866 1.61709 0
M  V30 6471 H 620.083 -2.83556 2.96689 0
M  V30 6472 H 619.614 -3.6504 1.46661 0
M  V30 6473 H 621.629 -4.84667 1.06361 0
M  V30 6474 N 620.802 -1.09834 -1.13024 0
M  V30 6475 C 621.734 -0.699379 -2.18269 0
M  V30 6476 C 622.747 0.260841 -1.60697 0
M  V30 6477 O 623.936 0.0462538 -1.7844 0
M  V30 6478 C 621.036 -0.0104537 -3.38898 0
M  V30 6479 C 620.209 -0.993275 -4.25973 0
M  V30 6480 C 619.268 -0.336982 -5.2512 0
M  V30 6481 O 618.294 -0.985892 -5.60597 0
M  V30 6482 N 619.496 0.90716 -5.73368 0
M  V30 6483 H 622.261 -1.60486 -2.5311 0
M  V30 6484 H 619.822 -0.986337 -1.28386 0
M  V30 6485 H 621.814 0.43991 -4.02302 0
M  V30 6486 H 620.384 0.797335 -3.0226 0
M  V30 6487 H 619.604 -1.62208 -3.5928 0
M  V30 6488 H 620.892 -1.65876 -4.81002 0
M  V30 6489 H 620.29 1.45384 -5.46699 0
M  V30 6490 H 618.847 1.30077 -6.38689 0
M  V30 6491 N 622.28 1.30327 -0.886154 0
M  V30 6492 C 623.528 1.9571 -0.504195 0
M  V30 6493 C 623.849 1.70294 0.950003 0
M  V30 6494 O 623.119 1.02718 1.66811 0
M  V30 6495 H 621.699 0.72412 -0.183465 0
M  V30 6496 H 624.361 1.58835 -1.12949 0
M  V30 6497 H 623.457 3.04704 -0.675431 0
M  V30 6498 N 623.758 0.647228 1.43697 0
M  V30 6499 C 624.705 -0.0480092 2.3075 0
M  V30 6500 C 625.675 -0.820705 1.44408 0
M  V30 6501 O 626.86 -0.798515 1.73287 0
M  V30 6502 C 624 -1.01259 3.2991 0
M  V30 6503 C 623.113 -0.236629 4.31351 0
M  V30 6504 C 622.248 -1.19447 5.17596 0
M  V30 6505 C 621.287 -0.408595 6.10735 0
M  V30 6506 N 620.424 -1.31772 6.89623 0
M  V30 6507 H 625.264 0.700238 2.89656 0
M  V30 6508 H 622.801 0.357082 1.427 0
M  V30 6509 H 624.759 -1.58538 3.85903 0
M  V30 6510 H 623.389 -1.72778 2.72667 0
M  V30 6511 H 622.441 0.452353 3.77701 0
M  V30 6512 H 623.753 0.374731 4.9739 0
M  V30 6513 H 622.907 -1.83809 5.78186 0
M  V30 6514 H 621.646 -1.83975 4.51669 0
M  V30 6515 H 620.651 0.24841 5.49239 0
M  V30 6516 H 621.876 0.232188 6.78703 0
M  V30 6517 H 619.822 -1.94991 6.2635 0
M  V30 6518 H 619.739 -0.760779 7.52162 0
M  V30 6519 H 621.007 -1.94967 7.54724 0
M  V30 6520 N 625.236 -1.5273 0.388769 0
M  V30 6521 C 626.199 -2.25043 -0.434544 0
M  V30 6522 C 627.199 -1.26661 -0.990644 0
M  V30 6523 O 628.389 -1.50762 -0.872731 0
M  V30 6524 C 625.521 -3.00507 -1.60961 0
M  V30 6525 H 626.714 -2.99242 0.198549 0
M  V30 6526 H 624.267 -1.55664 0.140875 0
M  V30 6527 H 625.002 -2.30607 -2.28015 0
M  V30 6528 H 624.787 -3.72716 -1.21757 0
M  V30 6529 H 626.277 -3.55413 -2.19251 0
M  V30 6530 N 626.714 -0.118576 -1.57153 0
M  V30 6531 C 627.991 0.583062 -1.86708 0
M  V30 6532 C 628.371 1.84841 -1.01967 0
M  V30 6533 O 627.719 2.28288 -0.0984673 0
M  V30 6534 C 627.929 0.875912 -3.3783 0
M  V30 6535 C 629.277 1.22916 -4.0642 0
M  V30 6536 O 630.301 0.966188 -3.42846 0
M  V30 6537 O 629.16 1.72269 -5.18638 0
M  V30 6538 H 626.254 0.294185 -0.772906 0
M  V30 6539 H 628.8 -0.153048 -1.69008 0
M  V30 6540 H 627.572 -0.0207776 -3.91294 0
M  V30 6541 H 627.195 1.66719 -3.60958 0
M  V30 6542 N 628.193 1.56834 0.155195 0
M  V30 6543 C 629.441 1.82536 0.867462 0
M  V30 6544 C 629.762 0.698168 1.82073 0
M  V30 6545 O 629.032 -0.280807 1.93877 0
M  V30 6546 H 627.612 0.673401 0.323327 0
M  V30 6547 H 630.274 1.94313 0.151156 0
M  V30 6548 H 629.37 2.77171 1.43466 0
M  V30 6549 N 629.671 -0.424282 1.51781 0
M  V30 6550 C 630.601 -1.52305 1.7699 0
M  V30 6551 C 631.582 -1.5839 0.620209 0
M  V30 6552 O 632.767 -1.73908 0.864268 0
M  V30 6553 C 629.897 -2.90271 1.90683 0
M  V30 6554 C 628.851 -2.99043 3.06198 0
M  V30 6555 C 628.177 -4.39116 3.05092 0
M  V30 6556 C 629.477 -2.7192 4.45934 0
M  V30 6557 H 631.171 -1.31461 2.68995 0
M  V30 6558 H 628.717 -0.630985 1.29439 0
M  V30 6559 H 630.67 -3.6711 2.06901 0
M  V30 6560 H 629.394 -3.12376 0.953365 0
M  V30 6561 H 628.053 -2.24646 2.89706 0
M  V30 6562 H 627.701 -4.58207 2.07498 0
M  V30 6563 H 627.401 -4.45912 3.82669 0
M  V30 6564 H 628.925 -5.17911 3.2342 0
M  V30 6565 H 630.339 -3.38487 4.62709 0
M  V30 6566 H 628.736 -2.90111 5.25315 0
M  V30 6567 H 629.806 -1.67445 4.55072 0
M  V30 6568 N 631.149 -1.42148 -0.680565 0
M  V30 6569 C 632.379 -1.45485 -1.46689 0
M  V30 6570 C 632.787 -0.0629451 -1.89095 0
M  V30 6571 O 632.13 0.931397 -1.58337 0
M  V30 6572 C 632.192 -2.31397 -2.75129 0
M  V30 6573 C 631.856 -3.79353 -2.54834 0
M  V30 6574 C 632.853 -4.71148 -2.19808 0
M  V30 6575 C 630.538 -4.23557 -2.70008 0
M  V30 6576 C 632.532 -6.05139 -2.00215 0
M  V30 6577 C 630.219 -5.57609 -2.50031 0
M  V30 6578 C 631.217 -6.48216 -2.15187 0
M  V30 6579 O 630.905 -7.79792 -1.95397 0
M  V30 6580 H 630.637 -0.497139 -0.458071 0
M  V30 6581 H 633.191 -1.87252 -0.844139 0
M  V30 6582 H 631.421 -1.84468 -3.39865 0
M  V30 6583 H 633.11 -2.26257 -3.36991 0
M  V30 6584 H 633.876 -4.38282 -2.07686 0
M  V30 6585 H 629.755 -3.53327 -2.96109 0
M  V30 6586 H 633.299 -6.75823 -1.72941 0
M  V30 6587 H 629.196 -5.9005 -2.61748 0
M  V30 6588 H 629.964 -7.91091 -2.10042 0
M  V30 6589 N 632.627 0.916307 -1.28225 0
M  V30 6590 C 634.038 1.48024 -1.13779 0
M  V30 6591 C 634.389 1.94289 0.273139 0
M  V30 6592 O 633.514 1.82226 1.16716 0
M  V30 6593 C 634.109 2.69029 -2.05935 0
M  V30 6594 C 632.668 3.2161 -1.95561 0
M  V30 6595 C 631.815 1.94321 -1.97825 0
M  V30 6596 H 634.766 0.729272 -1.40951 0
M  V30 6597 H 634.787 3.44204 -1.62184 0
M  V30 6598 H 634.299 2.35325 -3.08616 0
M  V30 6599 H 632.4 3.60045 -0.959076 0
M  V30 6600 H 632.513 3.87032 -2.82388 0
M  V30 6601 H 630.877 2.1131 -1.42198 0
M  V30 6602 H 631.66 1.62917 -3.0218 0
M  V30 6603 N 634.105 1.10431 1.1244 0
M  V30 6604 C 635.053 0.747974 2.20246 0
M  V30 6605 C 636.047 -0.255848 1.67457 0
M  V30 6606 O 637.253 -0.116221 1.79624 0
M  V30 6607 H 633.628 0.223946 0.71788 0
M  V30 6608 H 635.599 1.6661 2.47556 0
M  V30 6609 C 634.348 0.195957 3.47147 0
M  V30 6610 H 633.671 0.959606 3.88113 0
M  V30 6611 H 635.111 -0.0153154 4.23997 0
M  V30 6612 C 633.57 -1.07132 3.19413 0
M  V30 6613 O 634.1 -2.15284 3.3914 0
M  V30 6614 N 632.306 -0.98994 2.73219 0
M  V30 6615 H 631.853 -0.109736 2.57366 0
M  V30 6616 H 631.811 -1.83856 2.55038 0
M  V30 6617 N 635.583 -1.29855 0.893053 0
M  V30 6618 C 636.994 -1.77946 0.564998 0
M  V30 6619 C 637.345 -1.73339 -0.919134 0
M  V30 6620 O 636.47 -1.3152 -1.71847 0
M  V30 6621 C 637.065 -3.23118 1.01883 0
M  V30 6622 C 635.624 -3.69013 0.742051 0
M  V30 6623 C 634.771 -2.50121 1.19727 0
M  V30 6624 H 637.722 -1.16611 1.07646 0
M  V30 6625 H 637.743 -3.78875 0.351249 0
M  V30 6626 H 637.255 -3.26439 2.09903 0
M  V30 6627 H 635.356 -3.71173 -0.325816 0
M  V30 6628 H 635.469 -4.60117 1.33527 0
M  V30 6629 H 633.833 -2.47128 0.616418 0
M  V30 6630 H 634.616 -2.56174 2.28538 0
M  V30 6631 N 637.061 -0.65484 -1.43351 0
M  V30 6632 C 638.477 -0.32255 -1.56307 0
M  V30 6633 C 638.677 1.17324 -1.63821 0
M  V30 6634 O 637.733 1.95813 -1.59417 0
M  V30 6635 C 639.046 -1.03533 -2.82314 0
M  V30 6636 C 640.594 -1.01574 -2.9606 0
M  V30 6637 C 641.069 -1.70945 -4.24902 0
M  V30 6638 N 642.56 -1.67716 -4.3177 0
M  V30 6639 C 643.295 -2.18265 -5.30234 0
M  V30 6640 N 642.791 -2.7711 -6.34966 0
M  V30 6641 N 644.584 -2.08756 -5.21898 0
M  V30 6642 H 636.735 -1.62549 -1.36717 0
M  V30 6643 H 638.998 -0.683676 -0.656727 0
M  V30 6644 H 638.704 -2.09045 -2.8283 0
M  V30 6645 H 638.578 -0.587913 -3.7259 0
M  V30 6646 H 640.965 0.0309834 -2.95084 0
M  V30 6647 H 641.046 -1.50186 -2.07069 0
M  V30 6648 H 640.69 -2.75574 -4.26639 0
M  V30 6649 H 640.62 -1.19797 -5.12793 0
M  V30 6650 H 643.111 -1.24777 -3.56706 0
M  V30 6651 H 643.424 -3.13353 -7.06421 0
M  V30 6652 H 641.769 -2.81171 -6.35585 0
M  V30 6653 H 644.96 -1.62488 -4.38994 0
M  V30 6654 H 645.133 -2.48459 -5.98475 0
M  V30 6655 N 638.539 1.52521 -0.396863 0
M  V30 6656 C 639.449 2.30403 0.44178 0
M  V30 6657 C 640.465 1.37625 1.06468 0
M  V30 6658 O 641.641 1.70697 1.06886 0
M  V30 6659 C 638.706 3.1013 1.54986 0
M  V30 6660 C 637.767 4.18628 0.951279 0
M  V30 6661 C 637 4.94543 2.00655 0
M  V30 6662 O 637.223 4.70629 3.22281 0
M  V30 6663 O 636.157 5.797 1.61962 0
M  V30 6664 H 639.983 3.03087 -0.192892 0
M  V30 6665 H 637.568 1.48537 -0.16038 0
M  V30 6666 H 639.45 3.59816 2.19341 0
M  V30 6667 H 638.125 2.40251 2.16935 0
M  V30 6668 H 637.032 3.73119 0.270773 0
M  V30 6669 H 638.365 4.90763 0.375887 0
M  V30 6670 N 640.017 0.126909 1.57088 0
M  V30 6671 C 641.433 -0.229641 1.57939 0
M  V30 6672 C 641.633 -1.66145 1.1401 0
M  V30 6673 O 640.689 -2.3843 0.831119 0
M  V30 6674 C 642.002 0.0108648 3.00698 0
M  V30 6675 C 643.55 -0.054418 3.12953 0
M  V30 6676 C 644.025 0.158497 4.57726 0
M  V30 6677 N 645.516 0.104735 4.63082 0
M  V30 6678 C 646.251 0.24427 5.72879 0
M  V30 6679 N 645.747 0.440415 6.91399 0
M  V30 6680 N 647.54 0.183286 5.61801 0
M  V30 6681 H 639.691 1.06203 1.83942 0
M  V30 6682 H 641.954 0.418834 0.85046 0
M  V30 6683 H 641.66 1.00102 3.37154 0
M  V30 6684 H 641.534 -0.717512 3.70313 0
M  V30 6685 H 643.921 -1.0351 2.7635 0
M  V30 6686 H 644.002 0.705967 2.45865 0
M  V30 6687 H 643.646 1.13619 4.95028 0
M  V30 6688 H 643.576 -0.62197 5.22914 0
M  V30 6689 H 646.067 -0.0430298 3.77876 0
M  V30 6690 H 646.38 0.537536 7.70928 0
M  V30 6691 H 644.725 0.476488 6.93365 0
M  V30 6692 H 647.916 0.0309561 4.6809 0
M  V30 6693 H 648.089 0.295471 6.47326 0
M  V30 6694 N 641.495 -1.56914 -0.146875 0
M  V30 6695 C 642.72 -1.87881 -0.878386 0
M  V30 6696 C 643.145 -0.715945 -1.73942 0
M  V30 6697 O 642.503 0.334447 -1.78189 0
M  V30 6698 C 642.551 -3.17431 -1.71084 0
M  V30 6699 O 641.655 -3.01374 -2.81509 0
M  V30 6700 H 640.996 -0.617289 -0.244644 0
M  V30 6701 H 643.526 -2.04136 -0.137654 0
M  V30 6702 H 643.536 -3.49455 -2.10582 0
M  V30 6703 H 642.211 -4.01671 -1.07856 0
M  V30 6704 H 640.788 -2.80758 -2.45416 0
M  V30 6705 N 642.974 0.416227 -1.52004 0
M  V30 6706 C 644.199 1.19029 -1.69843 0
M  V30 6707 C 644.624 1.83708 -0.404103 0
M  V30 6708 O 643.982 1.69711 0.637787 0
M  V30 6709 C 644.03 2.23439 -2.83032 0
M  V30 6710 O 643.134 3.29419 -2.48106 0
M  V30 6711 H 642.475 0.347785 -0.565634 0
M  V30 6712 H 645.005 0.488871 -1.98674 0
M  V30 6713 H 645.015 2.67884 -3.07737 0
M  V30 6714 H 643.69 1.75745 -3.76944 0
M  V30 6715 H 642.267 2.90303 -2.34048 0
M  V30 6716 N 644.452 1.42507 0.673017 0
M  V30 6717 C 645.699 1.43072 1.43306 0
M  V30 6718 C 646.027 0.0478004 1.94441 0
M  V30 6719 O 645.282 -0.944106 1.71421 0
M  V30 6720 C 645.581 2.40351 2.64511 0
M  V30 6721 C 645.247 3.8669 2.31908 0
M  V30 6722 C 643.909 4.26551 2.22728 0
M  V30 6723 C 646.261 4.78991 2.05467 0
M  V30 6724 C 643.589 5.56691 1.85234 0
M  V30 6725 C 645.941 6.09476 1.69477 0
M  V30 6726 C 644.605 6.48334 1.58808 0
M  V30 6727 H 643.875 0.523536 0.524395 0
M  V30 6728 H 646.522 1.75459 0.76723 0
M  V30 6729 H 644.827 2.01297 3.36135 0
M  V30 6730 H 646.524 2.38051 3.22696 0
M  V30 6731 H 643.114 3.55132 2.39956 0
M  V30 6732 H 647.298 4.48982 2.11492 0
M  V30 6733 H 642.554 5.85657 1.75545 0
M  V30 6734 H 646.728 6.80482 1.48043 0
M  V30 6735 H 644.355 7.49084 1.29525 0
M  V30 6736 N 645.93 -0.909495 1.28709 0
M  V30 6737 C 647.16 -1.69027 1.188 0
M  V30 6738 C 647.568 -1.87469 -0.255329 0
M  V30 6739 O 646.911 -1.40458 -1.18394 0
M  V30 6740 C 646.973 -3.10064 1.81936 0
M  V30 6741 C 646.637 -3.14891 3.31199 0
M  V30 6742 C 647.634 -2.95768 4.27571 0
M  V30 6743 C 645.319 -3.37269 3.7223 0
M  V30 6744 C 647.313 -2.98942 5.6295 0
M  V30 6745 C 645 -3.40074 5.07733 0
M  V30 6746 C 645.998 -3.20932 6.02903 0
M  V30 6747 O 645.686 -3.23507 7.35934 0
M  V30 6748 H 645.418 -0.535014 0.413203 0
M  V30 6749 H 647.972 -1.14645 1.70428 0
M  V30 6750 H 646.202 -3.66005 1.24808 0
M  V30 6751 H 647.891 -3.70185 1.66486 0
M  V30 6752 H 648.657 -2.78302 3.97206 0
M  V30 6753 H 644.536 -3.51212 2.98615 0
M  V30 6754 H 648.08 -2.83919 6.37209 0
M  V30 6755 H 643.977 -3.5707 5.37747 0
M  V30 6756 H 644.745 -3.3984 7.44615 0
M  V30 6757 N 647.408 -1.11026 -1.11852 0
M  V30 6758 C 648.633 -0.879064 -1.87849 0
M  V30 6759 C 649.058 0.565406 -1.79401 0
M  V30 6760 O 648.416 1.39886 -1.15333 0
M  V30 6761 C 648.464 -1.33985 -3.34784 0
M  V30 6762 O 647.568 -0.508803 -4.09249 0
M  V30 6763 H 646.909 -0.316992 -0.583448 0
M  V30 6764 H 649.439 -1.47863 -1.41413 0
M  V30 6765 H 649.449 -1.33248 -3.85628 0
M  V30 6766 H 648.124 -2.39172 -3.40249 0
M  V30 6767 H 646.701 -0.581913 -3.68332 0
M  V30 6768 N 648.886 1.2938 -0.899927 0
M  V30 6769 C 650.126 1.97332 -0.532871 0
M  V30 6770 C 650.49 1.69385 0.904029 0
M  V30 6771 O 651.691 2.30793 1.37797 0
M  V30 6772 C 649.962 3.47927 -0.817393 0
M  V30 6773 S 651.521 4.3528 -0.55468 0
M  V30 6774 H 648.339 0.682966 -0.197683 0
M  V30 6775 H 650.941 1.57189 -1.16241 0
M  V30 6776 H 649.645 3.65761 -1.86138 0
M  V30 6777 H 649.176 3.93006 -0.175978 0
M  V30 6778 H 651.191 4.92557 0.600182 0
M  V30 6779 N 650.364 0.662433 1.43002 0
M  V30 6780 C 651.327 -0.0142016 2.29196 0
M  V30 6781 C 652.327 -0.741394 1.42688 0
M  V30 6782 O 653.517 -0.581257 1.64216 0
M  V30 6783 C 650.649 -1.03084 3.24941 0
M  V30 6784 H 651.842 0.7443 2.90517 0
M  V30 6785 H 649.395 0.424133 1.50435 0
M  V30 6786 H 650.13 -1.81826 2.68533 0
M  V30 6787 H 649.915 -0.512946 3.8873 0
M  V30 6788 H 651.405 -1.50308 3.89612 0
M  V30 6789 N 651.842 -1.52309 0.404946 0
M  V30 6790 C 652.805 -2.25491 -0.410651 0
M  V30 6791 C 653.805 -1.27704 -0.977154 0
M  V30 6792 O 654.995 -1.51679 -0.856691 0
M  V30 6793 C 652.127 -3.02197 -1.57765 0
M  V30 6794 H 653.32 -2.99015 0.230277 0
M  V30 6795 H 650.873 -1.55506 0.157377 0
M  V30 6796 H 651.608 -2.33013 -2.25556 0
M  V30 6797 H 651.393 -3.73987 -1.17797 0
M  V30 6798 H 652.883 -3.57719 -2.15469 0
M  V30 6799 N 653.32 -0.135238 -1.57019 0
M  V30 6800 C 654.568 0.51777 -1.95355 0
M  V30 6801 C 654.889 1.6617 -1.02042 0
M  V30 6802 O 654.159 1.95738 -0.0797343 0
M  V30 6803 H 652.739 0.194264 -0.721298 0
M  V30 6804 H 655.401 -0.207983 -1.93787 0
M  V30 6805 H 654.497 0.901675 -2.98791 0
M  V30 6806 N 654.798 1.5699 0.138552 0
M  V30 6807 C 656.214 1.51844 0.491472 0
M  V30 6808 C 656.414 0.845063 1.82923 0
M  V30 6809 O 655.47 0.419143 2.48997 0
M  V30 6810 C 656.783 2.96615 0.493987 0
M  V30 6811 C 658.331 3.076 0.578913 0
M  V30 6812 C 658.806 4.53893 0.612009 0
M  V30 6813 N 660.297 4.5827 0.673997 0
M  V30 6814 C 661.032 5.68852 0.720729 0
M  V30 6815 N 660.528 6.88982 0.726292 0
M  V30 6816 N 662.321 5.56908 0.762253 0
M  V30 6817 H 654.472 1.99158 -0.738228 0
M  V30 6818 H 656.735 0.908693 -0.270149 0
M  V30 6819 H 656.441 3.49172 -0.420933 0
M  V30 6820 H 656.315 3.53017 1.32887 0
M  V30 6821 H 658.702 2.55057 1.48425 0
M  V30 6822 H 658.783 2.54227 -0.283286 0
M  V30 6823 H 658.427 5.07076 -0.289208 0
M  V30 6824 H 658.357 5.05057 1.49082 0
M  V30 6825 H 660.848 3.71793 0.676654 0
M  V30 6826 H 661.161 7.69014 0.764032 0
M  V30 6827 H 659.506 6.91526 0.69403 0
M  V30 6828 H 662.697 4.61969 0.755135 0
M  V30 6829 H 662.87 6.43102 0.795207 0
M  V30 6830 N 656.276 -0.40816 1.52223 0
M  V30 6831 C 657.206 -1.5042 1.78595 0
M  V30 6832 C 658.187 -1.57723 0.636974 0
M  V30 6833 O 659.372 -1.72982 0.882664 0
M  V30 6834 C 656.502 -2.88232 1.93751 0
M  V30 6835 C 655.456 -2.95779 3.09352 0
M  V30 6836 C 654.782 -4.35855 3.09732 0
M  V30 6837 C 656.082 -2.67175 4.48793 0
M  V30 6838 H 657.776 -1.28601 2.70374 0
M  V30 6839 H 655.322 -0.617221 1.30101 0
M  V30 6840 H 657.275 -3.64895 2.10783 0
M  V30 6841 H 655.999 -3.11347 0.986443 0
M  V30 6842 H 654.658 -2.21561 2.92072 0
M  V30 6843 H 654.306 -4.55981 2.12346 0
M  V30 6844 H 654.006 -4.41829 3.87377 0
M  V30 6845 H 655.53 -5.14451 3.28895 0
M  V30 6846 H 656.944 -3.3356 4.66273 0
M  V30 6847 H 655.341 -2.84523 5.28362 0
M  V30 6848 H 656.411 -1.62609 4.56822 0
M  V30 6849 N 657.755 -1.42862 -0.66545 0
M  V30 6850 C 659.002 -1.4383 -1.42546 0
M  V30 6851 C 659.33 -0.0581114 -1.94413 0
M  V30 6852 O 658.585 0.935002 -1.71919 0
M  V30 6853 C 658.884 -2.4175 -2.63233 0
M  V30 6854 C 658.55 -3.87915 -2.29854 0
M  V30 6855 C 657.212 -4.27726 -2.20463 0
M  V30 6856 C 659.564 -4.80074 -2.02924 0
M  V30 6857 C 656.892 -5.57666 -1.82279 0
M  V30 6858 C 659.244 -6.10366 -1.66242 0
M  V30 6859 C 657.908 -6.49167 -1.55367 0
M  V30 6860 H 657.178 -0.52631 -0.521612 0
M  V30 6861 H 659.825 -1.75863 -0.757914 0
M  V30 6862 H 658.13 -2.03077 -3.35063 0
M  V30 6863 H 659.827 -2.39759 -3.21429 0
M  V30 6864 H 656.417 -3.564 -2.3807 0
M  V30 6865 H 660.601 -4.50097 -2.09108 0
M  V30 6866 H 655.857 -5.8658 -1.72436 0
M  V30 6867 H 660.031 -6.81258 -1.44432 0
M  V30 6868 H 657.658 -7.49761 -1.2555 0
M  V30 6869 N 659.233 0.902656 -1.29189 0
M  V30 6870 C 660.165 2.01149 -1.09872 0
M  V30 6871 C 661.178 1.62732 -0.0471046 0
M  V30 6872 O 662.367 1.76107 -0.29132 0
M  V30 6873 C 659.467 3.32612 -0.649818 0
M  V30 6874 C 658.64 3.99574 -1.7793 0
M  V30 6875 C 657.699 5.09325 -1.32191 0
M  V30 6876 O 656.725 5.31919 -2.02611 0
M  V30 6877 N 657.927 5.80185 -0.191171 0
M  V30 6878 H 660.692 2.18276 -2.05368 0
M  V30 6879 H 658.253 1.07466 -1.2109 0
M  V30 6880 H 660.245 4.03375 -0.327199 0
M  V30 6881 H 658.815 3.11876 0.212597 0
M  V30 6882 H 658.035 3.22213 -2.27095 0
M  V30 6883 H 659.323 4.41056 -2.53668 0
M  V30 6884 H 658.721 5.64312 0.396016 0
M  V30 6885 H 657.278 6.5176 0.0721001 0
M  V30 6886 N 660.711 1.11618 1.11262 0
M  V30 6887 C 661.643 0.734015 2.17129 0
M  V30 6888 C 662.656 -0.235243 1.61091 0
M  V30 6889 O 663.845 -0.0178597 1.78491 0
M  V30 6890 C 660.945 0.0643682 3.38839 0
M  V30 6891 C 660.118 1.06092 4.24339 0
M  V30 6892 C 659.177 0.420482 5.24517 0
M  V30 6893 O 658.203 1.07495 5.58957 0
M  V30 6894 N 659.405 -0.815828 5.74739 0
M  V30 6895 H 662.17 1.64492 2.50524 0
M  V30 6896 H 659.731 1.00664 1.26801 0
M  V30 6897 H 661.723 -0.375851 4.02951 0
M  V30 6898 H 660.293 -0.749147 3.03491 0
M  V30 6899 H 659.513 1.67903 3.56654 0
M  V30 6900 H 660.801 1.73507 4.78302 0
M  V30 6901 H 660.199 -1.36668 5.48943 0
M  V30 6902 H 658.756 -1.199 6.40677 0
M  V30 6903 N 662.189 -1.289 0.906776 0
M  V30 6904 C 663.414 -1.99939 0.551303 0
M  V30 6905 C 663.839 -1.67366 -0.858496 0
M  V30 6906 O 663.197 -0.902176 -1.57259 0
M  V30 6907 C 663.245 -3.52523 0.758937 0
M  V30 6908 O 662.349 -4.11983 -0.185308 0
M  V30 6909 H 661.69 -0.628376 0.214568 0
M  V30 6910 H 664.22 -1.64225 1.2203 0
M  V30 6911 H 664.23 -4.02522 0.666329 0
M  V30 6912 H 662.905 -3.75566 1.78671 0
M  V30 6913 H 661.482 -3.72873 -0.0445577 0
M  V30 6914 N 663.667 -0.670007 -1.42649 0
M  V30 6915 C 664.907 -0.194106 -2.03476 0
M  V30 6916 C 665.271 1.1755 -1.51809 0
M  V30 6917 O 666.472 1.74579 -2.04391 0
M  V30 6918 C 664.743 -0.221828 -3.56711 0
M  V30 6919 S 666.302 0.183772 -4.38415 0
M  V30 6920 H 663.12 -0.0802478 -0.706457 0
M  V30 6921 H 665.722 -0.882092 -1.74469 0
M  V30 6922 H 664.426 -1.22107 -3.91814 0
M  V30 6923 H 663.957 0.486149 -3.90385 0
M  V30 6924 H 665.972 1.41839 -4.75496 0
M  V30 6925 N 665.145 1.52092 -0.413018 0
M  V30 6926 C 666.556 1.86617 0.0556967 0
M  V30 6927 C 666.907 1.33156 1.44097 0
M  V30 6928 O 666.032 0.672417 2.05688 0
M  V30 6929 C 666.627 3.38628 0.107844 0
M  V30 6930 C 665.186 3.72778 0.520904 0
M  V30 6931 C 664.333 2.75649 -0.302109 0
M  V30 6932 H 667.284 1.45663 -0.629919 0
M  V30 6933 H 667.305 3.69152 0.922324 0
M  V30 6934 H 666.817 3.77508 -0.900506 0
M  V30 6935 H 664.918 3.39478 1.53575 0
M  V30 6936 H 665.031 4.7838 0.262591 0
M  V30 6937 H 663.395 2.53603 0.236115 0
M  V30 6938 H 664.178 3.17369 -1.30888 0
M  V30 6939 N 666.623 0.143563 1.56945 0
M  V30 6940 C 667.851 -0.515447 2.00377 0
M  V30 6941 C 668.266 -1.58643 1.02361 0
M  V30 6942 O 667.623 -1.82489 0.0201039 0
M  V30 6943 C 667.674 -1.11923 3.43737 0
M  V30 6944 O 667.395 -0.0910318 4.38005 0
M  V30 6945 C 668.896 -1.85918 4.02429 0
M  V30 6946 H 666.116 -0.134478 0.657386 0
M  V30 6947 H 668.66 0.237135 2.0312 0
M  V30 6948 H 666.815 -1.82245 3.41856 0
M  V30 6949 H 667.229 -0.532916 5.21786 0
M  V30 6950 H 668.703 -2.2346 5.04747 0
M  V30 6951 H 669.18 -2.7438 3.42947 0
M  V30 6952 H 669.786 -1.20303 4.07931 0
M  V30 6953 N 668.101 -1.57061 -0.130224 0
M  V30 6954 C 669.349 -1.83893 -0.838313 0
M  V30 6955 C 669.67 -0.727046 -1.80939 0
M  V30 6956 O 668.94 0.249927 -1.94299 0
M  V30 6957 H 667.52 -0.67846 -0.312573 0
M  V30 6958 H 670.182 -1.94529 -0.120224 0
M  V30 6959 H 669.278 -2.79419 -1.39038 0
M  V30 6960 N 669.579 0.400081 -1.52437 0
M  V30 6961 C 670.509 1.4947 -1.7939 0
M  V30 6962 C 671.49 1.57383 -0.645329 0
M  V30 6963 O 672.675 1.72511 -0.891826 0
M  V30 6964 C 669.805 2.87201 -1.95276 0
M  V30 6965 C 668.759 2.94134 -3.10917 0
M  V30 6966 C 668.085 4.34207 -3.1204 0
M  V30 6967 C 669.385 2.64791 -4.50203 0
M  V30 6968 H 671.079 1.27165 -2.71052 0
M  V30 6969 H 668.625 0.610312 -1.30427 0
M  V30 6970 H 670.578 3.63772 -2.12715 0
M  V30 6971 H 669.302 3.10819 -1.00294 0
M  V30 6972 H 667.961 2.20009 -2.93243 0
M  V30 6973 H 667.609 4.54848 -2.14761 0
M  V30 6974 H 667.309 4.39768 -3.89715 0
M  V30 6975 H 668.833 5.127 -3.31619 0
M  V30 6976 H 670.247 3.31083 -4.68035 0
M  V30 6977 H 668.644 2.81717 -5.29864 0
M  V30 6978 H 669.714 1.60184 -4.57678 0
M  V30 6979 N 671.057 1.43213 0.657864 0
M  V30 6980 C 672.303 1.44798 1.41991 0
M  V30 6981 C 672.636 0.070256 1.94073 0
M  V30 6982 O 671.911 -0.908177 1.71995 0
M  V30 6983 C 672.194 2.4865 2.60471 0
M  V30 6984 C 672.047 3.95679 2.13911 0
M  V30 6985 C 673.366 2.49292 3.62686 0
M  V30 6986 H 670.485 0.527244 0.514959 0
M  V30 6987 H 673.127 1.74733 0.74621 0
M  V30 6988 H 671.277 2.23254 3.17946 0
M  V30 6989 H 672.949 4.32116 1.61472 0
M  V30 6990 H 671.192 4.08733 1.45325 0
M  V30 6991 H 671.863 4.6395 2.99089 0
M  V30 6992 H 674.339 2.71917 3.14961 0
M  V30 6993 H 673.215 3.23907 4.43143 0
M  V30 6994 H 673.476 1.52502 4.14964 0
M  V30 6995 N 672.536 -0.895792 1.29666 0
M  V30 6996 C 673.783 -1.64664 1.17864 0
M  V30 6997 C 674.111 -1.92631 -0.26902 0
M  V30 6998 O 673.366 -1.53787 -1.21029 0
M  V30 6999 C 673.665 -3.00075 1.94139 0
M  V30 7000 C 673.331 -2.91702 3.43833 0
M  V30 7001 C 671.993 -2.89126 3.84656 0
M  V30 7002 C 674.345 -2.80622 4.39205 0
M  V30 7003 C 671.673 -2.73293 5.1916 0
M  V30 7004 C 674.025 -2.66329 5.73805 0
M  V30 7005 C 672.689 -2.62121 6.1388 0
M  V30 7006 H 671.959 -0.602549 0.431295 0
M  V30 7007 H 674.606 -1.04234 1.60648 0
M  V30 7008 H 672.911 -3.64394 1.43958 0
M  V30 7009 H 674.608 -3.57111 1.82408 0
M  V30 7010 H 671.198 -2.94511 3.11386 0
M  V30 7011 H 675.382 -2.81686 4.08615 0
M  V30 7012 H 670.638 -2.68443 5.49316 0
M  V30 7013 H 674.812 -2.56727 6.47352 0
M  V30 7014 H 672.439 -2.49611 7.18052 0
M  V30 7015 N 674.014 -1.12206 -1.10668 0
M  V30 7016 C 675.239 -0.898938 -1.86906 0
M  V30 7017 C 675.664 0.546346 -1.79991 0
M  V30 7018 O 675.022 1.38655 -1.1681 0
M  V30 7019 C 675.07 -1.37529 -3.33344 0
M  V30 7020 O 674.174 -0.55218 -4.08687 0
M  V30 7021 H 673.515 -0.323163 -0.580053 0
M  V30 7022 H 676.045 -1.49355 -1.39837 0
M  V30 7023 H 676.055 -1.3733 -3.84193 0
M  V30 7024 H 674.73 -2.42767 -3.37693 0
M  V30 7025 H 673.307 -0.620947 -3.67694 0
M  V30 7026 N 675.492 1.28418 -0.913599 0
M  V30 7027 C 676.44 2.29272 -0.392037 0
M  V30 7028 C 677.434 1.61344 0.516198 0
M  V30 7029 O 678.64 1.75557 0.39746 0
M  V30 7030 H 675.015 0.744178 -0.108178 0
M  V30 7031 H 676.986 2.70691 -1.25574 0
M  V30 7032 C 675.735 3.45905 0.352815 0
M  V30 7033 H 675.058 3.98378 -0.336848 0
M  V30 7034 H 676.498 4.18473 0.682398 0
M  V30 7035 C 674.957 2.98572 1.56065 0
M  V30 7036 O 675.487 3.01033 2.65974 0
M  V30 7037 N 673.693 2.54235 1.40759 0
M  V30 7038 H 673.24 2.52432 0.513403 0
M  V30 7039 H 673.198 2.22925 2.21702 0
M  V30 7040 N 676.97 0.677563 1.42291 0
M  V30 7041 C 678.195 0.207901 2.06355 0
M  V30 7042 C 678.62 -1.12723 1.50583 0
M  V30 7043 O 677.978 -1.70171 0.62543 0
M  V30 7044 C 678.026 0.156489 3.6026 0
M  V30 7045 O 677.13 -0.874162 4.03029 0
M  V30 7046 H 676.471 0.106056 0.655475 0
M  V30 7047 H 679.001 0.927354 1.82377 0
M  V30 7048 H 679.011 -0.0187258 4.07996 0
M  V30 7049 H 677.686 1.13101 4.00226 0
M  V30 7050 H 676.263 -0.669764 3.66836 0
M  V30 7051 N 678.448 -1.51871 0.421078 0
M  V30 7052 C 679.688 -2.03848 -0.150167 0
M  V30 7053 C 680.052 -1.29925 -1.41363 0
M  V30 7054 O 681.253 -1.7219 -2.06408 0
M  V30 7055 C 679.524 -3.55374 -0.38003 0
M  V30 7056 S 681.083 -4.29111 -0.917011 0
M  V30 7057 H 677.901 -0.709904 -0.0394639 0
M  V30 7058 H 680.503 -1.86799 0.576746 0
M  V30 7059 H 679.207 -4.0675 0.546122 0
M  V30 7060 H 678.738 -3.76687 -1.13448 0
M  V30 7061 H 680.753 -4.44944 -2.19635 0
M  V30 7062 N 679.926 -0.151884 -1.56866 0
M  V30 7063 C 680.873 0.785936 -2.17006 0
M  V30 7064 C 681.843 1.2407 -1.10435 0
M  V30 7065 O 683.028 1.31235 -1.38499 0
M  V30 7066 C 680.168 2.01771 -2.79969 0
M  V30 7067 C 679.281 1.6083 -4.00946 0
M  V30 7068 C 678.416 2.79224 -4.51893 0
M  V30 7069 C 677.455 2.3468 -5.65324 0
M  V30 7070 N 676.592 3.461 -6.10867 0
M  V30 7071 H 681.432 0.266286 -2.96808 0
M  V30 7072 H 678.969 0.11972 -1.46612 0
M  V30 7073 H 680.927 2.73989 -3.14621 0
M  V30 7074 H 679.557 2.51139 -2.02803 0
M  V30 7075 H 678.609 0.783592 -3.72242 0
M  V30 7076 H 679.921 1.24119 -4.83111 0
M  V30 7077 H 679.075 3.59625 -4.88625 0
M  V30 7078 H 677.814 3.19183 -3.68746 0
M  V30 7079 H 676.819 1.52721 -5.28163 0
M  V30 7080 H 678.044 1.95801 -6.5026 0
M  V30 7081 H 675.99 3.85671 -5.30654 0
M  V30 7082 H 675.907 3.1342 -6.87971 0
M  V30 7083 H 677.175 4.26844 -6.52246 0
M  V30 7084 N 681.404 1.57128 0.121893 0
M  V30 7085 C 682.644 1.86517 0.836113 0
M  V30 7086 C 683.008 0.739497 1.77188 0
M  V30 7087 O 684.209 0.91508 2.52744 0
M  V30 7088 C 682.48 3.21129 1.56878 0
M  V30 7089 S 684.039 3.72143 2.32497 0
M  V30 7090 H 680.857 0.653923 0.279115 0
M  V30 7091 H 683.459 1.95271 0.0946254 0
M  V30 7092 H 682.163 4.01002 0.873255 0
M  V30 7093 H 681.694 3.15446 2.35069 0
M  V30 7094 H 683.709 3.43413 3.58164 0
M  V30 7095 N 682.882 -0.391992 1.52647 0
M  V30 7096 C 684.122 -1.1463 1.69232 0
M  V30 7097 C 684.486 -1.87312 0.421684 0
M  V30 7098 O 685.687 -2.64768 0.463852 0
M  V30 7099 C 683.958 -2.10088 2.89133 0
M  V30 7100 S 685.517 -2.93395 3.2629 0
M  V30 7101 H 682.335 -0.388076 0.59575 0
M  V30 7102 H 684.937 -0.431149 1.90687 0
M  V30 7103 H 683.641 -1.55408 3.79837 0
M  V30 7104 H 683.172 -2.86116 2.70003 0
M  V30 7105 H 685.187 -4.12193 2.76244 0
M  V30 7106 N 684.36 -1.4356 -0.65026 0
M  V30 7107 C 685.588 -1.48779 -1.43779 0
M  V30 7108 C 686.003 -0.106593 -1.88499 0
M  V30 7109 O 685.36 0.883766 -1.59674 0
M  V30 7110 C 685.411 -2.43618 -2.67081 0
M  V30 7111 O 685.132 -3.76367 -2.24231 0
M  V30 7112 C 686.633 -2.5811 -3.60409 0
M  V30 7113 H 683.853 -0.50521 -0.441593 0
M  V30 7114 H 686.397 -1.88332 -0.796941 0
M  V30 7115 H 684.552 -2.07253 -3.273 0
M  V30 7116 H 684.966 -4.27394 -3.0403 0
M  V30 7117 H 686.44 -3.28539 -4.43583 0
M  V30 7118 H 686.917 -1.627 -4.07953 0
M  V30 7119 H 687.523 -2.95298 -3.0607 0
M  V30 7120 N 685.838 0.888903 -1.30139 0
M  V30 7121 C 687.084 1.64288 -1.19922 0
M  V30 7122 C 687.439 1.90839 0.244561 0
M  V30 7123 O 686.732 1.51544 1.17239 0
M  V30 7124 C 686.926 2.99041 -1.95728 0
M  V30 7125 C 686.755 2.85644 -3.47329 0
M  V30 7126 C 685.525 2.85836 -4.16685 0
M  V30 7127 C 687.723 2.6188 -4.42632 0
M  V30 7128 N 685.705 2.63289 -5.54574 0
M  V30 7129 C 687.076 2.48418 -5.68057 0
M  V30 7130 C 689.131 2.47073 -4.32272 0
M  V30 7131 C 687.834 2.21655 -6.84296 0
M  V30 7132 C 689.86 2.21695 -5.48275 0
M  V30 7133 C 689.222 2.09007 -6.72678 0
M  V30 7134 H 685.321 0.606315 -0.493868 0
M  V30 7135 H 687.905 1.0478 -1.64102 0
M  V30 7136 H 686.076 3.56589 -1.53945 0
M  V30 7137 H 687.808 3.63607 -1.77685 0
M  V30 7138 H 684.563 2.97521 -3.68481 0
M  V30 7139 H 684.987 2.55039 -6.27124 0
M  V30 7140 H 689.629 2.55621 -3.36776 0
M  V30 7141 H 687.347 2.11845 -7.79838 0
M  V30 7142 H 690.933 2.11067 -5.42164 0
M  V30 7143 H 689.813 1.89643 -7.60924 0
M  V30 7144 N 687.317 1.12792 1.10072 0
M  V30 7145 C 688.265 0.794523 2.18609 0
M  V30 7146 C 689.259 -0.220271 1.67962 0
M  V30 7147 O 690.465 -0.0780938 1.79831 0
M  V30 7148 H 686.84 0.239123 0.712969 0
M  V30 7149 H 688.811 1.71823 2.43966 0
M  V30 7150 C 687.56 0.269548 3.46654 0
M  V30 7151 H 686.883 1.04171 3.8599 0
M  V30 7152 H 688.323 0.0746242 4.23934 0
M  V30 7153 C 686.782 -1.00333 3.21613 0
M  V30 7154 O 687.312 -2.08042 3.4363 0
M  V30 7155 N 685.518 -0.931763 2.75257 0
M  V30 7156 H 685.065 -0.0551197 2.57541 0
M  V30 7157 H 685.023 -1.78405 2.58881 0
M  V30 7158 O 688.834 -1.22539 1.05197 0
M  V30 7159 H 689.525 -1.79492 0.728171 0
M  V30 END ATOM
M  V30 BEGIN BOND
M  V30 END BOND
M  V30 END CTAB
M  END
$$$$
