drugbank_target|P01574 Interferon beta (DB02379)
 OpenBabel12092119433D

  0  0  0     0  0            999 V3000
M  V30 BEGIN CTAB
M  V30 COUNTS 3154 3185 0 0 0
M  V30 BEGIN ATOM
M  V30 1 H -0.908 1.98254 -0.117106 0
M  V30 2 N 0 1.576 0 0
M  V30 3 C 0.933 2.03868 1.02534 0
M  V30 4 C 1.911 0.928543 1.3348 0
M  V30 5 O 3.095 1.19667 1.45644 0
M  V30 6 C 0.222 2.43627 2.35294 0
M  V30 7 C -0.732 3.65373 2.2001 0
M  V30 8 S 0.101 5.13292 1.52614 0
M  V30 9 C 1.257 5.56322 2.86805 0
M  V30 10 H 1.49 2.90518 0.631377 0
M  V30 11 H -0.977 1.52953 0.210867 0
M  V30 12 H 0.981 2.67203 3.11629 0
M  V30 13 H -0.358 1.57376 2.7183 0
M  V30 14 H -1.165 3.90944 3.18086 0
M  V30 15 H -1.563 3.418 1.51819 0
M  V30 16 H 0.729 5.58782 3.83104 0
M  V30 17 H 1.672 6.56266 2.65933 0
M  V30 18 H 2.08 4.83886 2.90714 0
M  V30 19 N 1.4781 -0.272755 1.55222 0
M  V30 20 C 2.7061 -1.02255 1.79865 0
M  V30 21 C 3.1211 -1.79924 0.572088 0
M  V30 22 O 2.4781 -1.76638 -0.458842 0
M  V30 23 C 2.5291 -1.98094 3.02392 0
M  V30 24 O 2.2501 -1.23572 4.20311 0
M  V30 25 C 3.7511 -2.84884 3.39641 0
M  V30 26 H 0.9711 -0.302057 0.599168 0
M  V30 27 H 3.5151 -0.303465 2.02236 0
M  V30 28 H 1.6701 -2.65465 2.82147 0
M  V30 29 H 2.0841 -1.88172 4.89583 0
M  V30 30 H 3.5581 -3.47927 4.28545 0
M  V30 31 H 4.0351 -3.54665 2.59055 0
M  V30 32 H 4.6411 -2.23003 3.62146 0
M  V30 33 N 2.9562 -1.48159 -0.537278 0
M  V30 34 C 3.9042 -1.62573 -1.66352 0
M  V30 35 C 4.8982 -0.492366 -1.62087 0
M  V30 36 O 6.1042 -0.670847 -1.67032 0
M  V30 37 H 2.4792 -0.511992 -0.550789 0
M  V30 38 H 4.4502 -2.57176 -1.51337 0
M  V30 39 C 3.1992 -1.67583 -3.04649 0
M  V30 40 H 2.5222 -2.54151 -3.08622 0
M  V30 41 H 3.9622 -1.81713 -3.83088 0
M  V30 42 C 2.4212 -0.413039 -3.34358 0
M  V30 43 O 2.9512 0.477259 -3.98855 0
M  V30 44 N 1.1572 -0.286961 -2.8918 0
M  V30 45 H 0.7042 -1.01241 -2.36871 0
M  V30 46 H 0.6622 0.556963 -3.09427 0
M  V30 47 N 4.4343 0.785586 -1.36625 0
M  V30 48 C 5.3813 1.89838 -1.31264 0
M  V30 49 C 6.3513 1.65115 -0.180633 0
M  V30 50 O 7.5363 1.87222 -0.36777 0
M  V30 51 C 4.6763 3.26706 -1.11163 0
M  V30 52 C 3.7893 3.63476 -2.33472 0
M  V30 53 C 2.9243 4.89481 -2.06353 0
M  V30 54 C 1.9633 5.18941 -3.24602 0
M  V30 55 N 1.1003 6.36131 -2.97123 0
M  V30 56 H 5.9403 1.93756 -2.26413 0
M  V30 57 H 3.4773 0.947454 -1.12524 0
M  V30 58 H 5.4353 4.05639 -0.975337 0
M  V30 59 H 4.0653 3.222 -0.196674 0
M  V30 60 H 3.1173 2.79636 -2.57891 0
M  V30 61 H 4.4293 3.81193 -3.21704 0
M  V30 62 H 3.5833 5.76288 -1.89675 0
M  V30 63 H 2.3223 4.73841 -1.15437 0
M  V30 64 H 1.3273 4.30615 -3.41834 0
M  V30 65 H 2.5523 5.36498 -4.16349 0
M  V30 66 H 0.4983 6.21875 -2.08823 0
M  V30 67 H 0.4153 6.54198 -3.78894 0
M  V30 68 H 1.6833 7.2591 -2.84033 0
M  V30 69 N 5.9124 1.20967 1.01018 0
M  V30 70 C 7.1524 1.03511 1.76252 0
M  V30 71 C 7.5164 -0.42458 1.87247 0
M  V30 72 O 8.7174 -0.719508 2.58991 0
M  V30 73 C 6.9884 1.70726 3.13986 0
M  V30 74 S 8.5474 1.68458 4.05176 0
M  V30 75 H 5.3654 0.371037 0.606508 0
M  V30 76 H 7.9674 1.53628 1.20908 0
M  V30 77 H 6.6714 2.76128 3.03614 0
M  V30 78 H 6.2024 1.20767 3.74405 0
M  V30 79 H 8.2174 0.721987 4.90919 0
M  V30 80 N 7.3905 -1.2043 1.01659 0
M  V30 81 C 8.3205 -2.25466 0.607226 0
M  V30 82 C 9.3015 -1.65853 -0.377716 0
M  V30 83 O 10.4865 -1.92409 -0.263149 0
M  V30 84 C 7.6165 -3.47256 -0.0552949 0
M  V30 85 C 6.5705 -4.19462 0.850632 0
M  V30 86 C 5.8965 -5.34673 0.0538859 0
M  V30 87 C 7.1965 -4.75603 2.15868 0
M  V30 88 H 8.8905 -2.59962 1.48526 0
M  V30 89 H 6.4365 -1.2496 0.715605 0
M  V30 90 H 8.3895 -4.19917 -0.353233 0
M  V30 91 H 7.1135 -3.11924 -0.968045 0
M  V30 92 H 5.7725 -3.48667 1.13257 0
M  V30 93 H 5.4205 -4.95585 -0.860514 0
M  V30 94 H 5.1205 -5.83913 0.657192 0
M  V30 95 H 6.6445 -6.10138 -0.237598 0
M  V30 96 H 8.0585 -5.40083 1.92311 0
M  V30 97 H 6.4555 -5.3528 2.71284 0
M  V30 98 H 7.5255 -3.94346 2.82169 0
M  V30 99 N 8.8686 -0.792821 -1.36206 0
M  V30 100 C 9.7986 -0.207853 -2.32573 0
M  V30 101 C 10.7796 0.659055 -1.56813 0
M  V30 102 O 11.9646 0.592176 -1.84951 0
M  V30 103 C 9.0946 0.655449 -3.41059 0
M  V30 104 C 8.0486 -0.111842 -4.27854 0
M  V30 105 C 7.3746 0.872274 -5.27537 0
M  V30 106 C 8.6746 -1.30299 -5.05786 0
M  V30 107 H 10.3686 -1.01294 -2.81744 0
M  V30 108 H 7.9146 -0.48854 -1.3546 0
M  V30 109 H 9.8676 1.07464 -4.07467 0
M  V30 110 H 8.5916 1.49328 -2.90463 0
M  V30 111 H 7.2506 -0.512053 -3.63006 0
M  V30 112 H 6.8986 1.70523 -4.73214 0
M  V30 113 H 6.5986 0.363291 -5.86476 0
M  V30 114 H 8.1226 1.28996 -5.96818 0
M  V30 115 H 9.5366 -0.959379 -5.65216 0
M  V30 116 H 7.9336 -1.7455 -5.74154 0
M  V30 117 H 9.0036 -2.09663 -4.37229 0
M  V30 118 N 10.3467 1.47872 -0.545128 0
M  V30 119 C 11.2787 2.27869 0.246621 0
M  V30 120 C 12.2917 1.36282 0.890561 0
M  V30 121 O 13.4807 1.61207 0.766449 0
M  V30 122 C 10.5807 3.10159 1.36582 0
M  V30 123 C 9.7537 4.29627 0.820954 0
M  V30 124 C 8.8127 4.93607 1.82314 0
M  V30 125 O 7.8387 5.52366 1.37406 0
M  V30 126 N 9.0407 4.87211 3.15603 0
M  V30 127 H 11.8057 2.96459 -0.439539 0
M  V30 128 H 9.3667 1.57367 -0.380421 0
M  V30 129 H 11.3587 3.49829 2.03474 0
M  V30 130 H 9.9287 2.43891 1.9554 0
M  V30 131 H 9.1487 3.94192 -0.0244032 0
M  V30 132 H 10.4367 5.06928 0.436063 0
M  V30 133 H 9.8347 4.40651 3.54744 0
M  V30 134 H 8.3917 5.30937 3.78087 0
M  V30 135 N 11.8248 0.280983 1.55075 0
M  V30 136 C 13.0738 -0.334784 1.98902 0
M  V30 137 C 13.3868 -1.56534 1.17288 0
M  V30 138 O 14.5928 -2.25443 1.51287 0
M  V30 139 C 13.0488 -0.646994 3.54037 0
M  V30 140 C 12.6568 0.564085 4.44435 0
M  V30 141 C 14.4008 -1.22506 4.06439 0
M  V30 142 C 12.3078 0.226137 5.90967 0
M  V30 143 H 11.2378 -0.128866 0.742906 0
M  V30 144 H 13.8888 0.386556 1.79382 0
M  V30 145 H 12.2708 -1.42739 3.6938 0
M  V30 146 H 13.4448 1.34082 4.40861 0
M  V30 147 H 11.7598 1.0594 4.02698 0
M  V30 148 H 14.3568 -1.49182 5.13468 0
M  V30 149 H 14.6998 -2.16085 3.55827 0
M  V30 150 H 15.2328 -0.50682 3.94558 0
M  V30 151 H 11.9718 1.12996 6.45687 0
M  V30 152 H 11.4918 -0.513717 5.97596 0
M  V30 153 H 13.1708 -0.179539 6.46751 0
M  V30 154 N 13.3029 -1.57598 0.00835791 0
M  V30 155 C 14.2659 -2.07884 -0.965242 0
M  V30 156 C 15.2659 -0.989825 -1.26725 0
M  V30 157 O 16.4559 -1.25218 -1.21104 0
M  V30 158 C 13.5879 -2.52731 -2.28779 0
M  V30 159 H 14.7809 -2.95178 -0.530112 0
M  V30 160 H 12.3339 -1.54458 -0.239283 0
M  V30 161 H 13.0689 -1.68705 -2.76964 0
M  V30 162 H 12.8539 -3.32272 -2.08177 0
M  V30 163 H 14.3439 -2.91933 -2.98605 0
M  V30 164 N 14.781 0.264519 -1.55364 0
M  V30 165 C 15.711 1.33121 -1.91836 0
M  V30 166 C 16.692 1.51101 -0.781192 0
M  V30 167 O 17.877 1.64003 -1.04003 0
M  V30 168 C 15.007 2.68921 -2.19769 0
M  V30 169 C 13.961 2.65661 -3.35571 0
M  V30 170 C 13.287 4.05093 -3.49004 0
M  V30 171 C 14.587 2.24187 -4.71739 0
M  V30 172 H 16.281 1.02844 -2.81182 0
M  V30 173 H 13.827 0.493286 -1.35287 0
M  V30 174 H 15.78 3.43663 -2.43872 0
M  V30 175 H 14.504 3.00799 -1.27231 0
M  V30 176 H 13.163 1.93377 -3.1145 0
M  V30 177 H 12.811 4.34206 -2.53917 0
M  V30 178 H 12.511 4.03804 -4.26868 0
M  V30 179 H 14.035 4.81561 -3.75408 0
M  V30 180 H 15.449 2.88654 -4.9533 0
M  V30 181 H 13.846 2.34044 -5.52579 0
M  V30 182 H 14.916 1.19327 -4.69988 0
M  V30 183 N 16.2591 1.48442 0.529413 0
M  V30 184 C 17.1891 1.65902 1.64313 0
M  V30 185 C 18.1701 0.507897 1.6234 0
M  V30 186 O 19.3551 0.740503 1.79528 0
M  V30 187 C 16.4851 1.69911 3.02898 0
M  V30 188 C 15.4391 2.8453 3.19729 0
M  V30 189 C 14.7651 2.73629 4.59381 0
M  V30 190 C 16.0651 4.25821 3.02447 0
M  V30 191 H 17.7591 2.5914 1.49955 0
M  V30 192 H 15.3051 1.24709 0.719982 0
M  V30 193 H 17.2581 1.80715 3.80684 0
M  V30 194 H 15.9821 0.732524 3.18279 0
M  V30 195 H 14.6411 2.73283 2.44361 0
M  V30 196 H 14.2891 1.74938 4.71599 0
M  V30 197 H 13.9891 3.50541 4.71588 0
M  V30 198 H 15.5131 2.86401 5.39265 0
M  V30 199 H 16.9271 4.37898 3.70024 0
M  V30 200 H 15.3241 5.03735 3.26146 0
M  V30 201 H 16.3941 4.42244 1.98867 0
M  V30 202 N 17.7372 -0.778329 1.37039 0
M  V30 203 C 18.6672 -1.90546 1.34962 0
M  V30 204 C 19.6482 -1.68681 0.219274 0
M  V30 205 O 20.8332 -1.89634 0.418624 0
M  V30 206 C 17.9632 -3.27734 1.14925 0
M  V30 207 C 16.9172 -3.64147 2.24902 0
M  V30 208 C 16.2432 -4.99806 1.89996 0
M  V30 209 C 17.5432 -3.71579 3.67051 0
M  V30 210 H 19.2372 -1.92541 2.29277 0
M  V30 211 H 16.7832 -0.924948 1.10366 0
M  V30 212 H 18.7362 -4.06215 1.12104 0
M  V30 213 H 17.4602 -3.26154 0.170631 0
M  V30 214 H 16.1192 -2.8797 2.26868 0
M  V30 215 H 15.7672 -4.94759 0.906796 0
M  V30 216 H 15.4672 -5.25139 2.63634 0
M  V30 217 H 16.9912 -5.80694 1.88749 0
M  V30 218 H 18.4052 -4.40227 3.67251 0
M  V30 219 H 16.8022 -4.08405 4.39688 0
M  V30 220 H 17.8722 -2.72404 4.01154 0
M  V30 221 N 19.2153 -1.21501 -1.00376 0
M  V30 222 C 20.4553 -1.04444 -1.75701 0
M  V30 223 C 20.8193 0.414644 -1.87469 0
M  V30 224 O 22.0203 0.705763 -2.59369 0
M  V30 225 C 20.2913 -1.72389 -3.13077 0
M  V30 226 S 21.8503 -1.70604 -4.04277 0
M  V30 227 H 18.6683 -0.374249 -0.604532 0
M  V30 228 H 21.2703 -1.54267 -1.20091 0
M  V30 229 H 19.9743 -2.77734 -3.02146 0
M  V30 230 H 19.5053 -1.22751 -3.73759 0
M  V30 231 H 21.5203 -0.748012 -4.9053 0
M  V30 232 N 20.6934 1.19889 -1.02296 0
M  V30 233 C 21.9404 1.8942 -0.715972 0
M  V30 234 C 22.2684 1.79251 0.754944 0
M  V30 235 O 21.5234 1.17526 1.56481 0
M  V30 236 C 21.8224 3.39883 -1.10518 0
M  V30 237 C 21.4884 3.70254 -2.57337 0
M  V30 238 C 20.1504 3.78254 -2.97452 0
M  V30 239 C 22.5024 3.84052 -3.52354 0
M  V30 240 C 19.8304 3.97514 -4.31509 0
M  V30 241 C 22.1824 4.04824 -4.86108 0
M  V30 242 C 20.8464 4.11054 -5.25919 0
M  V30 243 H 20.1164 0.693138 -0.261993 0
M  V30 244 H 22.7634 1.42012 -1.28472 0
M  V30 245 H 21.0684 3.8915 -0.454953 0
M  V30 246 H 22.7654 3.9199 -0.845261 0
M  V30 247 H 19.3554 3.64632 -2.25258 0
M  V30 248 H 23.5394 3.77221 -3.22518 0
M  V30 249 H 18.7954 4.00574 -4.61898 0
M  V30 250 H 22.9694 4.14442 -5.59653 0
M  V30 251 H 20.5964 4.2573 -6.29808 0
M  V30 252 N 22.1715 0.800033 1.35784 0
M  V30 253 C 23.3965 0.388511 2.03729 0
M  V30 254 C 23.8215 -0.990481 1.5991 0
M  V30 255 O 23.1795 -1.64013 0.772612 0
M  V30 256 C 23.2275 0.4726 3.5749 0
M  V30 257 O 22.3315 -0.51646 4.09153 0
M  V30 258 H 21.6725 0.163271 0.643614 0
M  V30 259 H 24.2025 1.0841 1.73518 0
M  V30 260 H 24.2125 0.34003 4.06581 0
M  V30 261 H 22.8875 1.47848 3.88734 0
M  V30 262 H 21.4645 -0.344673 3.71304 0
M  V30 263 N 23.6496 -1.47581 0.552962 0
M  V30 264 C 24.8776 -2.06875 0.0320556 0
M  V30 265 C 25.2926 -1.40625 -1.25976 0
M  V30 266 O 24.6496 -0.501349 -1.75479 0
M  V30 267 C 24.7006 -3.61092 -0.17167 0
M  V30 268 O 24.4216 -4.24858 1.06899 0
M  V30 269 C 25.9226 -4.37242 -0.730344 0
M  V30 270 H 23.1426 -0.669561 0.043915 0
M  V30 271 H 25.6866 -1.89646 0.765163 0
M  V30 272 H 23.8416 -3.7785 -0.854894 0
M  V30 273 H 24.2556 -5.17334 0.864059 0
M  V30 274 H 25.7296 -5.45842 -0.822203 0
M  V30 275 H 26.2066 -4.03235 -1.74064 0
M  V30 276 H 26.8126 -4.25219 -0.0829543 0
M  V30 277 N 25.1277 -0.289203 -1.54924 0
M  V30 278 C 26.3557 0.326463 -2.04308 0
M  V30 279 C 26.7707 1.48413 -1.16701 0
M  V30 280 O 26.1277 1.81507 -0.190087 0
M  V30 281 C 26.1787 0.794014 -3.52672 0
M  V30 282 O 25.8997 -0.317564 -4.36948 0
M  V30 283 C 27.4007 1.47605 -4.18004 0
M  V30 284 H 24.6207 0.0726272 -0.667058 0
M  V30 285 H 27.1647 -0.425401 -2.00026 0
M  V30 286 H 25.3197 1.49593 -3.57352 0
M  V30 287 H 25.7337 0.0443186 -5.24481 0
M  V30 288 H 27.2077 1.75447 -5.23376 0
M  V30 289 H 27.6847 2.41224 -3.67025 0
M  V30 290 H 28.2907 0.81762 -4.17367 0
M  V30 291 N 26.6058 1.57591 -0.0167156 0
M  V30 292 C 27.5688 2.08393 0.954204 0
M  V30 293 C 28.5688 0.996531 1.26198 0
M  V30 294 O 29.7588 1.25858 1.20438 0
M  V30 295 C 26.8908 2.5394 2.27436 0
M  V30 296 H 28.0838 2.95455 0.514451 0
M  V30 297 H 25.6368 1.54582 0.231089 0
M  V30 298 H 26.3718 1.70171 2.76066 0
M  V30 299 H 26.1568 3.33371 2.06412 0
M  V30 300 H 27.6468 2.93512 2.97053 0
M  V30 301 N 28.0839 -0.256276 1.55502 0
M  V30 302 C 29.0139 -1.32102 1.92539 0
M  V30 303 C 29.9949 -1.50684 0.789194 0
M  V30 304 O 31.1799 -1.63449 1.04872 0
M  V30 305 C 28.3099 -2.67752 2.21192 0
M  V30 306 C 27.2639 -2.63878 3.36975 0
M  V30 307 C 26.5899 -4.03236 3.51147 0
M  V30 308 C 27.8899 -2.21682 4.72921 0
M  V30 309 H 29.5839 -1.01351 2.81724 0
M  V30 310 H 27.1299 -0.486105 1.35547 0
M  V30 311 H 29.0829 -3.42365 2.45691 0
M  V30 312 H 27.8069 -3.0012 1.28824 0
M  V30 313 H 26.4659 -1.91722 3.12471 0
M  V30 314 H 26.1139 -4.32854 2.56216 0
M  V30 315 H 25.8139 -4.01535 4.29003 0
M  V30 316 H 27.3379 -4.79563 3.77957 0
M  V30 317 H 28.7519 -2.86023 4.96854 0
M  V30 318 H 27.1489 -2.3111 5.53812 0
M  V30 319 H 28.2189 -1.16833 4.70615 0
M  V30 320 N 29.562 -1.4872 -0.521534 0
M  V30 321 C 30.787 -1.61101 -1.30618 0
M  V30 322 C 31.212 -0.274611 -1.86085 0
M  V30 323 O 30.57 0.754937 -1.64834 0
M  V30 324 C 30.618 -2.66709 -2.4269 0
M  V30 325 O 29.722 -2.24456 -3.45967 0
M  V30 326 H 29.063 -0.539921 -0.386499 0
M  V30 327 H 31.593 -1.94767 -0.626645 0
M  V30 328 H 31.603 -2.88245 -2.88754 0
M  V30 329 H 30.278 -3.63727 -2.01682 0
M  V30 330 H 28.855 -2.13168 -3.05964 0
M  V30 331 N 31.0401 0.771051 -1.3745 0
M  V30 332 C 31.9731 1.89166 -1.27638 0
M  V30 333 C 32.9511 1.61842 -0.156782 0
M  V30 334 O 34.1351 1.85569 -0.331111 0
M  V30 335 C 31.2621 3.24405 -0.973621 0
M  V30 336 C 30.3081 3.70638 -2.1102 0
M  V30 337 S 31.1411 3.84228 -3.73 0
M  V30 338 C 32.2971 5.22313 -3.44876 0
M  V30 339 H 32.5301 1.972 -2.22485 0
M  V30 340 H 30.0631 0.932224 -1.23081 0
M  V30 341 H 32.0211 4.02514 -0.805766 0
M  V30 342 H 30.6821 3.14071 -0.0426279 0
M  V30 343 H 29.8751 4.68685 -1.85338 0
M  V30 344 H 29.4771 2.99632 -2.23822 0
M  V30 345 H 31.7691 6.07505 -2.99908 0
M  V30 346 H 32.7121 5.53008 -4.42253 0
M  V30 347 H 33.1201 4.90284 -2.79789 0
M  V30 348 N 32.5182 1.22032 0.997298 0
M  V30 349 C 33.7432 1.06921 1.77715 0
M  V30 350 C 34.1682 -0.376226 1.84299 0
M  V30 351 O 33.5262 -1.27165 1.29223 0
M  V30 352 C 33.5742 1.67996 3.19076 0
M  V30 353 O 32.6782 0.930653 4.01762 0
M  V30 354 H 32.0192 0.375814 0.547412 0
M  V30 355 H 34.5492 1.61737 1.25309 0
M  V30 356 H 34.5592 1.72538 3.69723 0
M  V30 357 H 33.2342 2.73182 3.13599 0
M  V30 358 H 31.8112 0.960917 3.60307 0
M  V30 359 N 33.9963 -1.19345 1.0293 0
M  V30 360 C 35.2263 -1.92717 0.744563 0
M  V30 361 C 35.6343 -1.75751 -0.700579 0
M  V30 362 O 34.9773 -1.07703 -1.48815 0
M  V30 363 C 35.0393 -3.44828 1.01657 0
M  V30 364 C 34.7033 -3.85564 2.45335 0
M  V30 365 C 35.7003 -3.90286 3.43472 0
M  V30 366 C 33.3853 -4.1719 2.79746 0
M  V30 367 C 35.3793 -4.26065 4.74075 0
M  V30 368 C 33.0663 -4.52642 4.10559 0
M  V30 369 C 34.0643 -4.57054 5.07534 0
M  V30 370 O 33.7523 -4.91685 6.36004 0
M  V30 371 H 33.4843 -0.618977 0.271742 0
M  V30 372 H 36.0383 -1.52415 1.37691 0
M  V30 373 H 34.2683 -3.85314 0.327084 0
M  V30 374 H 35.9573 -3.99437 0.721427 0
M  V30 375 H 36.7233 -3.66002 3.18225 0
M  V30 376 H 32.6023 -4.1294 2.04943 0
M  V30 377 H 36.1463 -4.29423 5.49765 0
M  V30 378 H 32.0433 -4.76383 4.35579 0
M  V30 379 H 32.8113 -5.09631 6.40483 0
M  V30 380 N 35.4744 -0.807222 -1.35358 0
M  V30 381 C 36.4224 -0.20614 -2.31685 0
M  V30 382 C 37.4164 0.644445 -1.56663 0
M  V30 383 O 38.6224 0.537538 -1.71786 0
M  V30 384 H 34.9974 -0.0479006 -0.750473 0
M  V30 385 H 36.9684 -1.03369 -2.79924 0
M  V30 386 C 35.7174 0.630212 -3.41941 0
M  V30 387 H 35.0404 -0.0149558 -3.99797 0
M  V30 388 H 36.4804 1.01716 -4.11619 0
M  V30 389 C 34.9394 1.79601 -2.85035 0
M  V30 390 O 35.4694 2.89351 -2.78637 0
M  V30 391 N 33.6754 1.60774 -2.42074 0
M  V30 392 H 33.2224 0.715009 -2.47478 0
M  V30 393 H 33.1804 2.38933 -2.04349 0
M  V30 394 N 36.9525 1.47285 -0.560781 0
M  V30 395 C 37.8825 2.32857 0.173105 0
M  V30 396 C 38.8635 1.44009 0.905281 0
M  V30 397 O 40.0485 1.7286 0.885046 0
M  V30 398 C 37.1785 3.25861 1.20133 0
M  V30 399 C 36.1325 4.23978 0.585388 0
M  V30 400 C 35.4585 5.06332 1.7185 0
M  V30 401 C 36.7585 5.20242 -0.463178 0
M  V30 402 H 38.4525 2.94466 -0.541307 0
M  V30 403 H 35.9985 1.41601 -0.261764 0
M  V30 404 H 37.9515 3.84569 1.72293 0
M  V30 405 H 36.6755 2.62315 1.94573 0
M  V30 406 H 35.3345 3.66501 0.085054 0
M  V30 407 H 34.9825 4.39186 2.45203 0
M  V30 408 H 34.6825 5.72762 1.31213 0
M  V30 409 H 36.2065 5.67899 2.24329 0
M  V30 410 H 37.6205 5.73293 -0.027502 0
M  V30 411 H 36.0175 5.94896 -0.788627 0
M  V30 412 H 37.0875 4.65504 -1.35773 0
M  V30 413 N 38.4306 0.297415 1.54768 0
M  V30 414 C 39.3606 -0.573494 2.26348 0
M  V30 415 C 40.3416 -1.14085 1.26169 0
M  V30 416 O 41.5266 -1.17086 1.54934 0
M  V30 417 C 38.6566 -1.74716 3.00153 0
M  V30 418 C 37.6106 -1.31032 4.07449 0
M  V30 419 C 36.9366 -2.56887 4.68949 0
M  V30 420 C 38.2366 -0.444183 5.20408 0
M  V30 421 H 39.9306 0.0235131 2.99391 0
M  V30 422 H 37.4766 0.0127488 1.43994 0
M  V30 423 H 39.4296 -2.3625 3.48947 0
M  V30 424 H 38.1536 -2.37035 2.24682 0
M  V30 425 H 36.8126 -0.718066 3.59499 0
M  V30 426 H 36.4606 -3.17512 3.90122 0
M  V30 427 H 36.1606 -2.2836 5.41411 0
M  V30 428 H 37.6846 -3.19229 5.20505 0
M  V30 429 H 39.0986 -0.9651 5.65118 0
M  V30 430 H 37.4956 -0.252846 5.99567 0
M  V30 431 H 38.5656 0.531609 4.81977 0
M  V30 432 N 39.9087 -1.5758 0.0250728 0
M  V30 433 C 41.1567 -1.91255 -0.653151 0
M  V30 434 C 41.4777 -0.901691 -1.729 0
M  V30 435 O 40.7477 0.0573785 -1.95816 0
M  V30 436 H 39.3277 -0.705942 -0.244243 0
M  V30 437 H 41.9897 -1.94767 0.0719209 0
M  V30 438 H 41.0857 -2.91752 -1.10847 0
M  V30 439 N 41.3868 0.248026 -1.55636 0
M  V30 440 C 42.6338 0.976224 -1.77415 0
M  V30 441 C 42.9618 1.85361 -0.589193 0
M  V30 442 O 42.2168 1.90973 0.427529 0
M  V30 443 C 42.5158 1.86819 -3.04686 0
M  V30 444 C 42.1818 1.14625 -4.36087 0
M  V30 445 C 40.8438 0.946723 -4.71795 0
M  V30 446 C 43.1958 0.634463 -5.17324 0
M  V30 447 C 40.5238 0.223091 -5.86276 0
M  V30 448 C 42.8758 -0.0756959 -6.32555 0
M  V30 449 C 41.5398 -0.286711 -6.66884 0
M  V30 450 H 40.8098 0.357226 -0.649208 0
M  V30 451 H 43.4568 0.246415 -1.89908 0
M  V30 452 H 41.7618 2.66502 -2.872 0
M  V30 453 H 43.4588 2.43329 -3.18735 0
M  V30 454 H 40.0488 1.3117 -4.08035 0
M  V30 455 H 44.2328 0.77616 -4.90193 0
M  V30 456 H 39.4888 0.0491185 -6.1138 0
M  V30 457 H 43.6628 -0.479899 -6.94745 0
M  V30 458 H 41.2898 -0.849389 -7.5544 0
M  V30 459 N 42.8649 1.48995 0.513639 0
M  V30 460 C 43.7949 1.67636 1.62544 0
M  V30 461 C 44.7759 0.525087 1.61793 0
M  V30 462 O 45.9609 0.759502 1.78732 0
M  V30 463 C 43.0909 1.73114 3.01079 0
M  V30 464 C 42.0449 2.87905 3.16693 0
M  V30 465 C 41.3709 2.78486 4.56453 0
M  V30 466 C 42.6709 4.29005 2.97913 0
M  V30 467 H 44.3649 2.60716 1.47198 0
M  V30 468 H 41.9109 1.25465 0.706714 0
M  V30 469 H 43.8639 1.84742 3.78746 0
M  V30 470 H 42.5879 0.766241 3.17484 0
M  V30 471 H 41.2469 2.75859 2.41448 0
M  V30 472 H 40.8949 1.7993 4.69717 0
M  V30 473 H 40.5949 3.55523 4.67843 0
M  V30 474 H 42.1189 2.92104 5.36197 0
M  V30 475 H 43.5329 4.41798 3.65359 0
M  V30 476 H 41.9299 5.07166 3.20785 0
M  V30 477 H 42.9999 4.44329 1.94165 0
M  V30 478 N 44.343 -0.763751 1.37857 0
M  V30 479 C 45.275 -1.88664 1.30148 0
M  V30 480 C 46.288 -1.61365 0.215685 0
M  V30 481 O 47.477 -1.72134 0.472459 0
M  V30 482 C 44.577 -3.24075 0.991396 0
M  V30 483 C 43.75 -3.78958 2.18426 0
M  V30 484 C 42.809 -4.92862 1.8432 0
M  V30 485 O 41.835 -5.08027 2.56704 0
M  V30 486 N 43.037 -5.75071 0.792081 0
M  V30 487 H 45.802 -1.95791 2.26905 0
M  V30 488 H 43.363 -0.943226 1.31586 0
M  V30 489 H 45.355 -3.97804 0.743935 0
M  V30 490 H 43.925 -3.12399 0.112122 0
M  V30 491 H 43.145 -2.96913 2.59299 0
M  V30 492 H 44.433 -4.12357 2.98058 0
M  V30 493 H 43.831 -5.65375 0.191595 0
M  V30 494 H 42.388 -6.48991 0.60449 0
M  V30 495 N 45.8211 -1.22559 -0.990812 0
M  V30 496 C 47.2371 -0.985996 -1.255 0
M  V30 497 C 47.4371 0.319173 -1.98956 0
M  V30 498 O 46.4931 1.04127 -2.3003 0
M  V30 499 C 47.8061 -2.18607 -2.06474 0
M  V30 500 C 49.3541 -2.22985 -2.19651 0
M  V30 501 C 49.8291 -3.4255 -3.04012 0
M  V30 502 N 51.3201 -3.42725 -3.11599 0
M  V30 503 C 52.0551 -4.31892 -3.7717 0
M  V30 504 N 51.5511 -5.31279 -4.44651 0
M  V30 505 N 53.3441 -4.19662 -3.73952 0
M  V30 506 H 45.4951 -2.06469 -0.49841 0
M  V30 507 H 47.7581 -0.904853 -0.282747 0
M  V30 508 H 47.4641 -3.13267 -1.59865 0
M  V30 509 H 47.3381 -2.18838 -3.07229 0
M  V30 510 H 49.7251 -1.28871 -2.65474 0
M  V30 511 H 49.8061 -2.26791 -1.18319 0
M  V30 512 H 49.4501 -4.36965 -2.58889 0
M  V30 513 H 49.3801 -3.35984 -4.0549 0
M  V30 514 H 51.8711 -2.70807 -2.63575 0
M  V30 515 H 52.1841 -5.95593 -4.92431 0
M  V30 516 H 50.5291 -5.3519 -4.43392 0
M  V30 517 H 53.7201 -3.41268 -3.20396 0
M  V30 518 H 53.8931 -4.89358 -4.24774 0
M  V30 519 N 47.2992 1.18797 -1.03562 0
M  V30 520 C 48.5242 1.9314 -0.755764 0
M  V30 521 C 48.9492 1.7537 0.68022 0
M  V30 522 O 48.3072 1.06046 1.47051 0
M  V30 523 C 48.3552 3.42747 -1.12058 0
M  V30 524 O 47.4592 4.11683 -0.243124 0
M  V30 525 H 46.8002 0.602724 -0.278604 0
M  V30 526 H 49.3302 1.50678 -1.3841 0
M  V30 527 H 49.3402 3.93437 -1.08035 0
M  V30 528 H 48.0152 3.55002 -2.16672 0
M  V30 529 H 46.5922 3.71323 -0.342539 0
M  V30 530 N 48.7773 0.814389 1.34928 0
M  V30 531 C 50.0023 0.410097 2.03305 0
M  V30 532 C 50.4273 -0.973464 1.60951 0
M  V30 533 O 49.7853 -1.63185 0.789964 0
M  V30 534 C 49.8333 0.51049 3.56968 0
M  V30 535 O 48.9373 -0.473035 4.09678 0
M  V30 536 H 48.2783 0.170088 0.641846 0
M  V30 537 H 50.8083 1.10244 1.72358 0
M  V30 538 H 50.8183 0.383135 4.06197 0
M  V30 539 H 49.4933 1.51963 3.87144 0
M  V30 540 H 48.0703 -0.305272 3.71648 0
M  V30 541 N 50.2554 -1.46986 0.568584 0
M  V30 542 C 51.2034 -2.31858 -0.185649 0
M  V30 543 C 52.1974 -1.43624 -0.898249 0
M  V30 544 O 53.4034 -1.60327 -0.818242 0
M  V30 545 H 49.7784 -0.747866 -0.0787399 0
M  V30 546 H 51.7494 -2.93303 0.549191 0
M  V30 547 C 50.4984 -3.26513 -1.19519 0
M  V30 548 H 49.8214 -3.94377 -0.656285 0
M  V30 549 H 51.2614 -3.88707 -1.6936 0
M  V30 550 C 49.7204 -2.50847 -2.24894 0
M  V30 551 O 50.2504 -2.26119 -3.32014 0
M  V30 552 N 48.4564 -2.11656 -1.99124 0
M  V30 553 H 48.0034 -2.31966 -1.12024 0
M  V30 554 H 47.9614 -1.61347 -2.69842 0
M  V30 555 N 51.7335 -0.305618 -1.54608 0
M  V30 556 C 52.9805 0.302298 -2.00231 0
M  V30 557 C 53.3085 1.5354 -1.19398 0
M  V30 558 O 52.5635 1.93973 -0.259423 0
M  V30 559 C 52.8625 0.698983 -3.50498 0
M  V30 560 C 52.5285 -0.432903 -4.48817 0
M  V30 561 C 51.1905 -0.743622 -4.75419 0
M  V30 562 C 53.5425 -1.19409 -5.07337 0
M  V30 563 C 50.8705 -1.81857 -5.57804 0
M  V30 564 C 53.2225 -2.25899 -5.90891 0
M  V30 565 C 51.8865 -2.57572 -6.15803 0
M  V30 566 H 51.1565 0.110619 -0.732697 0
M  V30 567 H 53.8035 -0.425674 -1.86709 0
M  V30 568 H 52.1085 1.50711 -3.61654 0
M  V30 569 H 53.8055 1.1806 -3.83227 0
M  V30 570 H 50.3955 -0.18063 -4.28219 0
M  V30 571 H 54.5795 -0.967295 -4.86782 0
M  V30 572 H 49.8355 -2.06864 -5.75341 0
M  V30 573 H 54.0095 -2.85335 -6.35261 0
M  V30 574 H 51.6365 -3.40998 -6.7943 0
M  V30 575 N 53.2116 1.57565 -0.0334293 0
M  V30 576 C 54.1436 2.0739 0.975811 0
M  V30 577 C 55.1566 0.998166 1.2861 0
M  V30 578 O 56.3456 1.27426 1.25 0
M  V30 579 C 53.4456 2.4871 2.30209 0
M  V30 580 C 52.6186 3.79413 2.17634 0
M  V30 581 C 51.6776 4.07237 3.33233 0
M  V30 582 O 50.7036 4.77425 3.09927 0
M  V30 583 N 51.9056 3.5775 4.5716 0
M  V30 584 H 54.6706 2.94598 0.55066 0
M  V30 585 H 52.2316 1.61173 0.15323 0
M  V30 586 H 54.2236 2.64413 3.06378 0
M  V30 587 H 52.7936 1.66845 2.64351 0
M  V30 588 H 52.0136 3.73465 1.26165 0
M  V30 589 H 53.3016 4.65038 2.0644 0
M  V30 590 H 52.6996 3.00976 4.78989 0
M  V30 591 H 51.2566 3.78724 5.30482 0
M  V30 592 N 54.6897 -0.239769 1.55765 0
M  V30 593 C 55.9297 -0.974076 1.79697 0
M  V30 594 C 56.2937 -1.82249 0.604088 0
M  V30 595 O 57.4947 -2.58913 0.722324 0
M  V30 596 C 55.7657 -1.80595 3.08416 0
M  V30 597 S 57.3247 -2.59838 3.53596 0
M  V30 598 H 54.1427 -0.327524 0.63107 0
M  V30 599 H 56.7447 -0.241277 1.94005 0
M  V30 600 H 55.4487 -1.17249 3.93295 0
M  V30 601 H 54.9797 -2.58137 2.96865 0
M  V30 602 H 56.9947 -3.82987 3.15492 0
M  V30 603 N 56.1678 -1.49265 -0.50573 0
M  V30 604 C 57.0998 -1.617 -1.62437 0
M  V30 605 C 58.1128 -0.499924 -1.54934 0
M  V30 606 O 59.3018 -0.771785 -1.60953 0
M  V30 607 C 56.4018 -1.5533 -3.01207 0
M  V30 608 C 55.5748 -2.8249 -3.33943 0
M  V30 609 C 54.6338 -2.69238 -4.52103 0
M  V30 610 O 53.6598 -3.43167 -4.5412 0
M  V30 611 N 54.8618 -1.80468 -5.51735 0
M  V30 612 H 57.6268 -2.58177 -1.52199 0
M  V30 613 H 55.1878 -1.46294 -0.693511 0
M  V30 614 H 57.1798 -1.44125 -3.78167 0
M  V30 615 H 55.7498 -0.667297 -3.05395 0
M  V30 616 H 54.9698 -3.08081 -2.45926 0
M  V30 617 H 56.2578 -3.66802 -3.5261 0
M  V30 618 H 55.6558 -1.19653 -5.52901 0
M  V30 619 H 54.2128 -1.75188 -6.27816 0
M  V30 620 N 57.6459 0.756429 -1.3826 0
M  V30 621 C 58.5929 1.87011 -1.35261 0
M  V30 622 C 59.5629 1.64695 -0.215616 0
M  V30 623 O 60.7479 1.864 -0.407399 0
M  V30 624 C 57.8879 3.24275 -1.18068 0
M  V30 625 C 57.0009 3.58442 -2.41129 0
M  V30 626 C 56.1359 4.84994 -2.16689 0
M  V30 627 C 55.1749 5.11939 -3.35537 0
M  V30 628 N 54.3119 6.29685 -3.10549 0
M  V30 629 H 59.1519 1.8891 -2.30472 0
M  V30 630 H 56.6889 0.923373 -1.14509 0
M  V30 631 H 58.6469 4.03479 -1.06116 0
M  V30 632 H 57.2769 3.21711 -0.264973 0
M  V30 633 H 56.3289 2.74103 -2.63764 0
M  V30 634 H 57.6409 3.74283 -3.29717 0
M  V30 635 H 56.7949 5.72135 -2.01857 0
M  V30 636 H 55.5339 4.71286 -1.25462 0
M  V30 637 H 54.5389 4.23268 -3.50891 0
M  V30 638 H 55.7639 5.27546 -4.27635 0
M  V30 639 H 53.7099 6.17306 -2.21967 0
M  V30 640 H 53.6269 6.46014 -3.92686 0
M  V30 641 H 54.8949 7.19722 -2.99367 0
M  V30 642 N 59.124 1.23083 0.984299 0
M  V30 643 C 60.054 1.03292 2.09411 0
M  V30 644 C 61.035 -0.048923 1.7003 0
M  V30 645 O 62.22 0.114967 1.93859 0
M  V30 646 C 59.35 0.619155 3.41736 0
M  V30 647 C 58.304 1.64791 3.95004 0
M  V30 648 C 57.63 1.0897 5.23478 0
M  V30 649 C 58.93 3.03999 4.24714 0
M  V30 650 H 60.624 1.96119 2.26225 0
M  V30 651 H 58.17 0.944344 1.08711 0
M  V30 652 H 60.123 0.467777 4.18796 0
M  V30 653 H 58.847 -0.344786 3.24775 0
M  V30 654 H 57.506 1.78721 3.20085 0
M  V30 655 H 57.154 0.11686 5.02864 0
M  V30 656 H 56.854 1.77704 5.60085 0
M  V30 657 H 58.378 0.950093 6.03163 0
M  V30 658 H 59.792 2.93393 4.92538 0
M  V30 659 H 58.189 3.69936 4.72512 0
M  V30 660 H 59.259 3.53285 3.32142 0
M  V30 661 N 60.6021 -1.18246 1.0419 0
M  V30 662 C 61.5321 -2.24127 0.654914 0
M  V30 663 C 62.5131 -1.66617 -0.342451 0
M  V30 664 O 63.6981 -1.92924 -0.222277 0
M  V30 665 C 60.8281 -3.47295 0.0183757 0
M  V30 666 C 59.7821 -4.17563 0.939414 0
M  V30 667 C 59.1081 -5.34438 0.167286 0
M  V30 668 C 60.4081 -4.70917 2.25908 0
M  V30 669 H 62.1021 -2.56753 1.54007 0
M  V30 670 H 59.6481 -1.23414 0.74195 0
M  V30 671 H 61.6011 -4.20572 -0.264082 0
M  V30 672 H 60.3251 -3.13907 -0.901664 0
M  V30 673 H 58.9841 -3.46186 1.20628 0
M  V30 674 H 58.6321 -4.97298 -0.7552 0
M  V30 675 H 58.3321 -5.82388 0.780901 0
M  V30 676 H 59.8561 -6.10504 -0.108125 0
M  V30 677 H 61.2701 -5.35882 2.03724 0
M  V30 678 H 59.6671 -5.29406 2.82577 0
M  V30 679 H 60.7371 -3.88272 2.9047 0
M  V30 680 N 62.0802 -0.821533 -1.34494 0
M  V30 681 C 63.3262 -0.418729 -1.99043 0
M  V30 682 C 63.6812 1.00672 -1.6396 0
M  V30 683 O 62.9742 1.69132 -0.900271 0
M  V30 684 C 63.1682 -0.556512 -3.53041 0
M  V30 685 C 62.9972 -1.9938 -4.03085 0
M  V30 686 C 61.7672 -2.62539 -4.31742 0
M  V30 687 C 63.9652 -2.96035 -4.20556 0
M  V30 688 N 61.9472 -3.97523 -4.67813 0
M  V30 689 C 63.3182 -4.15924 -4.59791 0
M  V30 690 C 65.3732 -2.9267 -4.02801 0
M  V30 691 C 64.0762 -5.32899 -4.83126 0
M  V30 692 C 66.1022 -4.08861 -4.27302 0
M  V30 693 C 65.4642 -5.275 -4.66822 0
M  V30 694 H 61.5632 -0.201299 -0.755647 0
M  V30 695 H 64.1472 -1.06594 -1.62929 0
M  V30 696 H 62.3182 0.0607924 -3.88352 0
M  V30 697 H 64.0502 -0.126842 -4.04501 0
M  V30 698 H 60.8052 -2.13789 -4.22601 0
M  V30 699 H 61.2292 -4.67061 -4.90085 0
M  V30 700 H 65.8712 -2.02088 -3.71376 0
M  V30 701 H 63.5892 -6.24041 -5.13418 0
M  V30 702 H 67.1752 -4.07654 -4.15101 0
M  V30 703 H 66.0552 -6.15913 -4.85408 0
M  V30 704 N 63.5583 1.46682 -0.576371 0
M  V30 705 C 64.4903 2.28341 0.198231 0
M  V30 706 C 65.5033 1.38141 0.861453 0
M  V30 707 O 66.6923 1.62797 0.732082 0
M  V30 708 C 63.7923 3.12986 1.29972 0
M  V30 709 C 62.9653 4.31271 0.729639 0
M  V30 710 C 62.0243 4.97363 1.71803 0
M  V30 711 O 61.0503 5.55156 1.25658 0
M  V30 712 N 62.2523 4.93796 3.05198 0
M  V30 713 H 65.0173 2.9546 -0.502324 0
M  V30 714 H 62.5783 1.56525 -0.413715 0
M  V30 715 H 64.5703 3.54066 1.96008 0
M  V30 716 H 63.1403 2.47984 1.90323 0
M  V30 717 H 62.3603 3.94052 -0.108012 0
M  V30 718 H 63.6483 5.07739 0.328438 0
M  V30 719 H 63.0463 4.48077 3.45317 0
M  V30 720 H 61.6033 5.38837 3.6674 0
M  V30 721 N 65.0364 0.313813 1.54444 0
M  V30 722 C 65.9664 -0.549454 2.26943 0
M  V30 723 C 66.9474 -1.12741 1.27372 0
M  V30 724 O 68.1324 -1.15436 1.56167 0
M  V30 725 C 65.2624 -1.71523 3.01989 0
M  V30 726 C 64.2164 -1.26703 4.08816 0
M  V30 727 C 63.5424 -2.51898 4.71647 0
M  V30 728 C 64.8424 -0.388962 5.2085 0
M  V30 729 H 66.5364 0.0552661 2.99349 0
M  V30 730 H 64.0824 0.0280207 1.43973 0
M  V30 731 H 66.0354 -2.32535 3.51433 0
M  V30 732 H 64.7594 -2.34639 2.27183 0
M  V30 733 H 63.4184 -0.679896 3.6024 0
M  V30 734 H 63.0664 -3.13356 3.93468 0
M  V30 735 H 62.7664 -2.22605 5.43802 0
M  V30 736 H 64.2904 -3.1369 5.23861 0
M  V30 737 H 65.7044 -0.905107 5.6611 0
M  V30 738 H 64.1014 -0.18924 5.99802 0
M  V30 739 H 65.1714 0.582699 4.81386 0
M  V30 740 N 66.5145 -1.57545 0.0417849 0
M  V30 741 C 67.4625 -2.12148 -0.953723 0
M  V30 742 C 68.4565 -1.05104 -1.32852 0
M  V30 743 O 69.6625 -1.23524 -1.30927 0
M  V30 744 H 66.0375 -0.677957 -0.325389 0
M  V30 745 H 68.0085 -2.94707 -0.467991 0
M  V30 746 C 66.7575 -2.6739 -2.22257 0
M  V30 747 H 66.0805 -3.49413 -1.94295 0
M  V30 748 H 67.5205 -3.09227 -2.90094 0
M  V30 749 C 65.9795 -1.60723 -2.96091 0
M  V30 750 O 66.5095 -1.01449 -3.88679 0
M  V30 751 N 64.7155 -1.32466 -2.58652 0
M  V30 752 H 64.2625 -1.80856 -1.83437 0
M  V30 753 H 64.2205 -0.61325 -3.08361 0
M  V30 754 N 67.9926 0.231505 -1.5589 0
M  V30 755 C 69.2406 0.955461 -1.78088 0
M  V30 756 C 69.5616 1.85262 -0.608533 0
M  V30 757 O 68.8316 1.92277 0.375035 0
M  V30 758 H 67.4116 0.355787 -0.656829 0
M  V30 759 H 70.0736 0.245751 -1.93344 0
M  V30 760 H 69.1696 1.56814 -2.69844 0
M  V30 761 N 69.4707 1.49531 0.497807 0
M  V30 762 C 70.8867 1.36365 0.829266 0
M  V30 763 C 71.0867 0.399184 1.97506 0
M  V30 764 O 70.1427 -0.167977 2.51941 0
M  V30 765 C 71.4557 2.77153 1.16647 0
M  V30 766 C 73.0037 2.85877 1.27449 0
M  V30 767 C 73.4787 4.2744 1.64497 0
M  V30 768 N 74.9697 4.30265 1.7154 0
M  V30 769 C 75.7047 5.3677 2.01656 0
M  V30 770 N 75.2007 6.53516 2.29976 0
M  V30 771 N 76.9937 5.24189 2.02934 0
M  V30 772 H 69.1447 2.10831 -0.257703 0
M  V30 773 H 71.4077 0.946534 -0.0527091 0
M  V30 774 H 71.1137 3.49442 0.397872 0
M  V30 775 H 70.9877 3.12722 2.10915 0
M  V30 776 H 73.3747 2.13824 2.0338 0
M  V30 777 H 73.4557 2.53887 0.312244 0
M  V30 778 H 73.0997 5.00021 0.891151 0
M  V30 779 H 73.0297 4.56896 2.61827 0
M  V30 780 H 75.5207 3.4607 1.51802 0
M  V30 781 H 75.8337 7.30506 2.52153 0
M  V30 782 H 74.1787 6.56737 2.27425 0
M  V30 783 H 77.3697 4.31988 1.80289 0
M  V30 784 H 77.5427 6.07286 2.26071 0
M  V30 785 N 70.9488 -0.749086 1.3866 0
M  V30 786 C 71.8788 -1.8764 1.38973 0
M  V30 787 C 72.8598 -1.68178 0.255004 0
M  V30 788 O 74.0448 -1.88704 0.458754 0
M  V30 789 C 71.1748 -3.25222 1.21851 0
M  V30 790 C 70.1288 -3.59295 2.32575 0
M  V30 791 C 69.4548 -4.95663 2.00555 0
M  V30 792 C 70.7548 -3.63709 3.7485 0
M  V30 793 H 72.4488 -1.87635 2.3331 0
M  V30 794 H 69.9948 -0.901329 1.12303 0
M  V30 795 H 71.9478 -4.03746 1.20695 0
M  V30 796 H 70.6718 -3.25719 0.239775 0
M  V30 797 H 69.3308 -2.83093 2.32925 0
M  V30 798 H 68.9788 -4.92724 1.01154 0
M  V30 799 H 68.6788 -5.19429 2.74714 0
M  V30 800 H 70.2028 -5.7656 2.01024 0
M  V30 801 H 71.6168 -4.32338 3.76506 0
M  V30 802 H 70.0138 -3.98986 4.48252 0
M  V30 803 H 71.0838 -2.63834 4.06841 0
M  V30 804 N 72.4269 -1.23603 -0.977757 0
M  V30 805 C 73.3369 -1.03632 -2.1047 0
M  V30 806 C 74.3529 0.0199435 -1.73989 0
M  V30 807 O 75.5289 -0.176076 -2.00629 0
M  V30 808 C 72.5939 -0.63276 -3.40877 0
M  V30 809 C 71.6549 -1.76437 -3.91367 0
M  V30 810 C 70.8879 -1.37997 -5.15551 0
M  V30 811 O 71.1109 -0.265357 -5.69782 0
M  V30 812 O 70.0449 -2.20201 -5.60174 0
M  V30 813 H 73.8709 -1.98086 -2.30208 0
M  V30 814 H 71.4559 -1.02332 -1.08851 0
M  V30 815 H 73.3379 -0.418761 -4.19314 0
M  V30 816 H 72.0129 0.282754 -3.22463 0
M  V30 817 H 70.9199 -2.03304 -3.14036 0
M  V30 818 H 72.2529 -2.6583 -4.14241 0
M  V30 819 N 73.905 1.17692 -1.04816 0
M  V30 820 C 75.135 1.91508 -0.775128 0
M  V30 821 C 75.543 1.76844 0.67253 0
M  V30 822 O 74.886 1.10057 1.47082 0
M  V30 823 C 74.948 3.43167 -1.0713 0
M  V30 824 C 74.612 3.81612 -2.51438 0
M  V30 825 C 75.609 3.84772 -3.49638 0
M  V30 826 C 73.294 4.12687 -2.86348 0
M  V30 827 C 75.288 4.18469 -4.80794 0
M  V30 828 C 72.975 4.46053 -4.17708 0
M  V30 829 C 73.973 4.48921 -5.14741 0
M  V30 830 O 73.661 4.81504 -6.43746 0
M  V30 831 H 73.393 0.614575 -0.281555 0
M  V30 832 H 75.947 1.50206 -1.40098 0
M  V30 833 H 74.177 3.84745 -0.388342 0
M  V30 834 H 75.866 3.98239 -0.784883 0
M  V30 835 H 76.632 3.60893 -3.24008 0
M  V30 836 H 72.511 4.09627 -2.11486 0
M  V30 837 H 76.055 4.20623 -5.56527 0
M  V30 838 H 71.952 4.69393 -4.43103 0
M  V30 839 H 72.72 4.99377 -6.4851 0
M  V30 840 N 75.3831 0.828654 1.34056 0
M  V30 841 C 76.6231 0.425394 1.99924 0
M  V30 842 C 76.9871 -0.994294 1.64249 0
M  V30 843 O 78.1881 -1.50074 2.23005 0
M  V30 844 C 76.4591 0.628071 3.51838 0
M  V30 845 S 78.0181 0.318511 4.37642 0
M  V30 846 H 74.8361 0.160465 0.692656 0
M  V30 847 H 77.4381 1.07572 1.63244 0
M  V30 848 H 76.1421 1.66089 3.7529 0
M  V30 849 H 75.6731 -0.0367799 3.93383 0
M  V30 850 H 77.6881 -0.865632 4.88591 0
M  V30 851 N 76.8612 -1.46375 0.584142 0
M  V30 852 C 77.7912 -2.33103 -0.136037 0
M  V30 853 C 78.7722 -1.45431 -0.882255 0
M  V30 854 O 79.9572 -1.74246 -0.857434 0
M  V30 855 C 77.0872 -3.27731 -1.14933 0
M  V30 856 C 76.0412 -4.24855 -0.517862 0
M  V30 857 C 75.3672 -5.09001 -1.63773 0
M  V30 858 C 76.6672 -5.19439 0.545886 0
M  V30 859 H 78.3612 -2.93568 0.588086 0
M  V30 860 H 75.9072 -1.41166 0.284259 0
M  V30 861 H 77.8602 -3.87261 -1.66153 0
M  V30 862 H 76.5842 -2.65377 -1.90375 0
M  V30 863 H 75.2432 -3.6659 -0.0267361 0
M  V30 864 H 74.8912 -4.43031 -2.38185 0
M  V30 865 H 74.5912 -5.74777 -1.22085 0
M  V30 866 H 76.1152 -5.71396 -2.15266 0
M  V30 867 H 77.5292 -5.73177 0.118704 0
M  V30 868 H 75.9262 -5.93566 0.88317 0
M  V30 869 H 76.9962 -4.63285 1.43162 0
M  V30 870 N 78.3393 -0.321999 -1.54275 0
M  V30 871 C 79.2863 0.544664 -2.24281 0
M  V30 872 C 80.2563 1.1129 -1.23303 0
M  V30 873 O 81.4413 1.15354 -1.51981 0
M  V30 874 C 78.5813 1.70045 -3.00298 0
M  V30 875 C 77.6943 1.16159 -4.1609 0
M  V30 876 C 76.8293 2.28293 -4.79641 0
M  V30 877 C 75.8683 1.71648 -5.8754 0
M  V30 878 N 75.0053 2.77438 -6.44959 0
M  V30 879 H 79.8453 -0.0588907 -2.97942 0
M  V30 880 H 77.3823 -0.0408345 -1.47043 0
M  V30 881 H 79.3403 2.38054 -3.42616 0
M  V30 882 H 77.9703 2.27531 -2.28975 0
M  V30 883 H 77.0223 0.373092 -3.78566 0
M  V30 884 H 78.3343 0.707087 -4.93763 0
M  V30 885 H 77.4883 3.0421 -5.2492 0
M  V30 886 H 76.2273 2.77079 -4.01346 0
M  V30 887 H 75.2323 0.942282 -5.41665 0
M  V30 888 H 76.4573 1.23741 -6.67731 0
M  V30 889 H 74.4033 3.25519 -5.69538 0
M  V30 890 H 74.3203 2.36547 -7.1804 0
M  V30 891 H 75.5883 3.53189 -6.94894 0
M  V30 892 N 79.8174 1.5752 -0.0501392 0
M  V30 893 C 81.0944 1.83996 0.663685 0
M  V30 894 C 81.4744 0.938339 1.89099 0
M  V30 895 O 80.8224 -0.00087759 2.285 0
M  V30 896 C 81.0324 3.33702 1.02196 0
M  V30 897 C 82.3804 4.00691 1.40469 0
M  V30 898 O 83.4044 3.38321 1.11433 0
M  V30 899 O 82.2634 5.10658 1.94654 0
M  V30 900 H 79.3574 0.759385 0.32751 0
M  V30 901 H 81.9034 1.69514 -0.0794238 0
M  V30 902 H 80.6754 3.91015 0.149364 0
M  V30 903 H 80.2984 3.53368 1.82255 0
M  V30 904 N 81.2955 -0.223234 1.56011 0
M  V30 905 C 82.7115 -0.572856 1.48965 0
M  V30 906 C 82.9115 -1.87225 0.74492 0
M  V30 907 O 81.9675 -2.50899 0.283896 0
M  V30 908 C 83.2805 -0.653646 2.9351 0
M  V30 909 C 84.8285 -0.744386 3.0402 0
M  V30 910 C 85.3035 -0.856535 4.49919 0
M  V30 911 N 86.7945 -0.9208 4.53955 0
M  V30 912 C 87.5295 -1.02726 5.64123 0
M  V30 913 N 87.0255 -1.09777 6.84047 0
M  V30 914 N 88.8185 -1.06226 5.51971 0
M  V30 915 H 80.9695 0.629462 2.02858 0
M  V30 916 H 83.2325 0.220621 0.921971 0
M  V30 917 H 82.9385 0.231518 3.50937 0
M  V30 918 H 82.8125 -1.51781 3.45315 0
M  V30 919 H 85.1995 -1.61999 2.46658 0
M  V30 920 H 85.2805 0.14541 2.55386 0
M  V30 921 H 84.9245 0.0146069 5.07898 0
M  V30 922 H 84.8545 -1.76172 4.96257 0
M  V30 923 H 87.3455 -0.876694 3.6759 0
M  V30 924 H 87.6585 -1.17872 7.63758 0
M  V30 925 H 86.0035 -1.06693 6.86762 0
M  V30 926 H 89.1945 -1.00382 4.5721 0
M  V30 927 H 89.3675 -1.14177 6.37862 0
M  V30 928 N 82.7736 -1.49793 -0.48987 0
M  V30 929 C 83.7066 -1.61898 -1.60823 0
M  V30 930 C 84.6846 -0.467651 -1.5573 0
M  V30 931 O 85.8686 -0.684682 -1.75626 0
M  V30 932 C 82.9956 -1.58422 -2.99366 0
M  V30 933 C 82.0416 -2.78889 -3.22682 0
M  V30 934 S 82.8746 -4.40429 -3.04602 0
M  V30 935 C 84.0306 -4.39617 -4.4552 0
M  V30 936 H 84.2636 -2.56502 -1.50312 0
M  V30 937 H 81.7966 -1.38822 -0.675849 0
M  V30 938 H 83.7546 -1.57103 -3.79248 0
M  V30 939 H 82.4156 -0.650866 -3.07283 0
M  V30 940 H 81.6086 -2.72708 -4.23847 0
M  V30 941 H 81.2106 -2.77678 -2.50541 0
M  V30 942 H 83.5026 -4.12022 -5.37814 0
M  V30 943 H 84.4456 -5.41097 -4.56749 0
M  V30 944 H 84.8536 -3.69554 -4.2672 0
M  V30 945 N 84.2517 0.741722 -1.39055 0
M  V30 946 C 85.1997 1.87702 -1.3737 0
M  V30 947 C 86.1937 1.67427 -0.257812 0
M  V30 948 O 87.3997 1.7485 -0.427489 0
M  V30 949 H 83.7747 0.617757 -0.428812 0
M  V30 950 H 85.7457 1.86239 -2.33147 0
M  V30 951 C 84.4947 3.25315 -1.22741 0
M  V30 952 H 83.8177 3.41509 -2.07873 0
M  V30 953 H 85.2577 4.04964 -1.25618 0
M  V30 954 C 83.7167 3.36838 0.0647316 0
M  V30 955 O 84.2467 3.88073 1.03741 0
M  V30 956 N 82.4527 2.90329 0.125544 0
M  V30 957 H 81.9997 2.48823 -0.666682 0
M  V30 958 H 81.9577 2.98418 0.989639 0
M  V30 959 N 85.7298 1.2412 0.971189 0
M  V30 960 C 86.9768 1.07881 1.71371 0
M  V30 961 C 87.3048 -0.382901 1.90694 0
M  V30 962 O 86.5598 -1.29945 1.46331 0
M  V30 963 C 86.8588 1.75983 3.11071 0
M  V30 964 C 86.5248 3.25909 3.11599 0
M  V30 965 C 85.1868 3.66813 3.11451 0
M  V30 966 C 87.5388 4.21771 3.062 0
M  V30 967 C 84.8668 5.02021 3.03631 0
M  V30 968 C 87.2188 5.56982 2.99923 0
M  V30 969 C 85.8828 5.97237 2.98102 0
M  V30 970 H 85.1528 0.394764 0.62709 0
M  V30 971 H 87.7998 1.54176 1.13587 0
M  V30 972 H 86.1048 1.22072 3.72298 0
M  V30 973 H 87.8018 1.60887 3.6731 0
M  V30 974 H 84.3918 2.93353 3.12477 0
M  V30 975 H 88.5758 3.91172 3.05447 0
M  V30 976 H 83.8318 5.32411 3.0058 0
M  V30 977 H 88.0058 6.30969 2.94704 0
M  V30 978 H 85.6328 7.01967 2.91798 0
M  V30 979 N 87.2079 -1.17134 1.05439 0
M  V30 980 C 88.4849 -1.83411 0.679699 0
M  V30 981 C 88.8649 -1.9368 -0.839726 0
M  V30 982 O 88.2129 -1.47325 -1.74664 0
M  V30 983 C 88.4229 -3.20918 1.37159 0
M  V30 984 C 89.7709 -3.96796 1.51123 0
M  V30 985 O 90.7949 -3.30406 1.3308 0
M  V30 986 O 89.6539 -5.15778 1.80651 0
M  V30 987 H 86.7479 -0.79154 0.239569 0
M  V30 988 H 89.2939 -1.24411 1.15413 0
M  V30 989 H 88.0659 -3.08428 2.40807 0
M  V30 990 H 87.6889 -3.87587 0.886674 0
M  V30 991 N 88.686 -0.835752 -1.33615 0
M  V30 992 C 89.935 -0.426289 -1.97144 0
M  V30 993 C 90.248 1.01912 -1.66953 0
M  V30 994 O 91.454 1.53311 -2.24072 0
M  V30 995 C 89.91 -0.711321 -3.52801 0
M  V30 996 C 89.518 -2.1712 -3.91871 0
M  V30 997 C 91.262 -0.368654 -4.22896 0
M  V30 998 C 89.169 -2.40044 -5.40493 0
M  V30 999 H 88.099 -0.15567 -0.737755 0
M  V30 1000 H 90.75 -1.0239 -1.52278 0
M  V30 1001 H 89.132 -0.0433766 -3.95976 0
M  V30 1002 H 90.306 -2.87936 -3.59763 0
M  V30 1003 H 88.621 -2.47654 -3.34749 0
M  V30 1004 H 91.218 -0.517601 -5.32189 0
M  V30 1005 H 91.561 0.688078 -4.10574 0
M  V30 1006 H 92.094 -0.991702 -3.8524 0
M  V30 1007 H 88.833 -3.44271 -5.57815 0
M  V30 1008 H 88.353 -1.73785 -5.74072 0
M  V30 1009 H 90.032 -2.23042 -6.0734 0
M  V30 1010 N 90.1641 1.46063 -0.591896 0
M  V30 1011 C 91.5751 1.85944 -0.167822 0
M  V30 1012 C 91.9261 1.49429 1.27143 0
M  V30 1013 O 91.0511 0.913515 1.96173 0
M  V30 1014 C 91.6461 3.37489 -0.297794 0
M  V30 1015 C 90.2051 3.76332 0.0714732 0
M  V30 1016 C 89.3521 2.7006 -0.629509 0
M  V30 1017 H 92.3031 1.37087 -0.799555 0
M  V30 1018 H 92.3241 3.77532 0.474349 0
M  V30 1019 H 91.8361 3.64034 -1.3454 0
M  V30 1020 H 89.9371 3.55405 1.11886 0
M  V30 1021 H 90.0501 4.78088 -0.311245 0
M  V30 1022 H 88.4141 2.54607 -0.0687867 0
M  V30 1023 H 89.1971 2.99444 -1.67894 0
M  V30 1024 N 91.6422 0.330177 1.54103 0
M  V30 1025 C 92.5522 -0.541534 2.28264 0
M  V30 1026 C 93.5682 -1.12351 1.32866 0
M  V30 1027 O 94.7442 -1.14206 1.65888 0
M  V30 1028 C 91.8092 -1.68322 3.03098 0
M  V30 1029 C 90.8702 -1.13238 4.14096 0
M  V30 1030 C 90.1032 -2.21966 4.85352 0
M  V30 1031 O 90.3262 -3.42437 4.56172 0
M  V30 1032 O 89.2602 -1.87013 5.7211 0
M  V30 1033 H 93.0862 0.060938 3.03639 0
M  V30 1034 H 90.6712 0.09565 1.49093 0
M  V30 1035 H 92.5532 -2.34777 3.49939 0
M  V30 1036 H 91.2282 -2.27176 2.30593 0
M  V30 1037 H 90.1352 -0.432736 3.71589 0
M  V30 1038 H 91.4682 -0.588898 4.88664 0
M  V30 1039 N 93.1203 -1.57491 0.0584922 0
M  V30 1040 C 94.0303 -2.15448 -0.928414 0
M  V30 1041 C 95.0463 -1.11416 -1.3365 0
M  V30 1042 O 96.2223 -1.4362 -1.41193 0
M  V30 1043 C 93.2873 -2.69393 -2.18239 0
M  V30 1044 C 92.3483 -3.88249 -1.83196 0
M  V30 1045 C 91.5813 -4.39613 -3.02616 0
M  V30 1046 O 91.8043 -3.90023 -4.16219 0
M  V30 1047 O 90.7383 -5.31111 -2.83204 0
M  V30 1048 H 94.5643 -3.00112 -0.465483 0
M  V30 1049 H 92.1493 -1.48499 -0.163826 0
M  V30 1050 H 94.0313 -3.04026 -2.91798 0
M  V30 1051 H 92.7063 -1.87796 -2.63656 0
M  V30 1052 H 91.6133 -3.58492 -1.06931 0
M  V30 1053 H 92.9463 -4.71098 -1.42573 0
M  V30 1054 N 94.5984 0.214957 -1.56127 0
M  V30 1055 C 95.8474 0.936451 -1.78643 0
M  V30 1056 C 96.1604 1.85237 -0.628229 0
M  V30 1057 O 97.3664 2.613 -0.737186 0
M  V30 1058 C 95.8224 1.7154 -3.16389 0
M  V30 1059 C 95.4304 0.845299 -4.39953 0
M  V30 1060 C 97.1744 2.42772 -3.48227 0
M  V30 1061 C 95.0814 1.62198 -5.68723 0
M  V30 1062 H 94.0114 0.353401 -0.666051 0
M  V30 1063 H 96.6624 0.190169 -1.82512 0
M  V30 1064 H 95.0444 2.50484 -3.06715 0
M  V30 1065 H 96.2184 0.0959353 -4.607 0
M  V30 1066 H 94.5334 0.244789 -4.1568 0
M  V30 1067 H 97.1304 3.01394 -4.41663 0
M  V30 1068 H 97.4734 3.15984 -2.71035 0
M  V30 1069 H 98.0064 1.70813 -3.5926 0
M  V30 1070 H 94.7454 0.933011 -6.48826 0
M  V30 1071 H 94.2654 2.34579 -5.52026 0
M  V30 1072 H 95.9444 2.18095 -6.09133 0
M  V30 1073 N 96.0765 1.50051 0.48192 0
M  V30 1074 C 97.0235 1.68122 1.58125 0
M  V30 1075 C 97.9935 0.522545 1.57666 0
M  V30 1076 O 99.1785 0.751844 1.75362 0
M  V30 1077 C 96.3185 1.77142 2.96167 0
M  V30 1078 C 95.4315 3.0444 3.06497 0
M  V30 1079 C 94.5665 3.04321 4.35387 0
M  V30 1080 C 93.6055 4.26118 4.3942 0
M  V30 1081 N 92.7425 4.238 5.59766 0
M  V30 1082 H 97.5825 2.6198 1.42022 0
M  V30 1083 H 95.1195 1.29877 0.690687 0
M  V30 1084 H 97.0775 1.80352 3.76203 0
M  V30 1085 H 95.7075 0.867329 3.1093 0
M  V30 1086 H 94.7595 3.10752 2.19402 0
M  V30 1087 H 96.0715 3.94426 3.05336 0
M  V30 1088 H 95.2255 3.062 5.23762 0
M  V30 1089 H 93.9645 2.12147 4.39141 0
M  V30 1090 H 92.9695 4.24463 3.49444 0
M  V30 1091 H 94.1945 5.19507 4.37366 0
M  V30 1092 H 92.1405 3.34474 5.64326 0
M  V30 1093 H 92.0575 5.07542 5.60301 0
M  V30 1094 H 93.3255 4.2981 6.50295 0
M  V30 1095 N 97.5546 -0.734337 1.39446 0
M  V30 1096 C 98.4866 -1.85861 1.34121 0
M  V30 1097 C 99.4996 -1.60871 0.249864 0
M  V30 1098 O 100.689 -1.71093 0.508865 0
M  V30 1099 C 97.7886 -3.21899 1.05991 0
M  V30 1100 C 96.9616 -3.74239 2.26415 0
M  V30 1101 C 96.0206 -4.88841 1.94733 0
M  V30 1102 O 95.0466 -5.02468 2.67422 0
M  V30 1103 N 96.2486 -5.73261 0.913884 0
M  V30 1104 H 99.0136 -1.90934 2.31007 0
M  V30 1105 H 96.5746 -0.915102 1.33557 0
M  V30 1106 H 98.5666 -3.96136 0.828147 0
M  V30 1107 H 97.1366 -3.12091 0.178361 0
M  V30 1108 H 96.3566 -2.91347 2.65539 0
M  V30 1109 H 97.6446 -4.05942 3.06738 0
M  V30 1110 H 97.0426 -5.64842 0.311476 0
M  V30 1111 H 95.5996 -6.47563 0.742015 0
M  V30 1112 N 99.0327 -1.24633 -0.964593 0
M  V30 1113 C 99.9627 -1.06611 -2.07741 0
M  V30 1114 C 100.944 0.0218666 -1.70086 0
M  V30 1115 O 102.129 -0.145793 -1.93652 0
M  V30 1116 C 99.2587 -0.673444 -3.40708 0
M  V30 1117 C 98.2127 -1.71054 -3.92332 0
M  V30 1118 C 97.5387 -1.17285 -5.21678 0
M  V30 1119 C 98.8387 -3.10718 -4.19824 0
M  V30 1120 H 100.533 -1.99693 -2.23076 0
M  V30 1121 H 98.0787 -0.96152 -1.07195 0
M  V30 1122 H 100.032 -0.534345 -4.17998 0
M  V30 1123 H 98.7557 0.293073 -3.25282 0
M  V30 1124 H 97.4147 -1.83791 -3.17201 0
M  V30 1125 H 97.0627 -0.196847 -5.02615 0
M  V30 1126 H 96.7627 -1.86592 -5.57187 0
M  V30 1127 H 98.2867 -1.04593 -6.01575 0
M  V30 1128 H 99.7007 -3.01192 -4.87808 0
M  V30 1129 H 98.0977 -3.77406 -4.66567 0
M  V30 1130 H 99.1677 -3.58524 -3.26479 0
M  V30 1131 N 100.511 1.16574 -1.06058 0
M  V30 1132 C 101.443 2.2045 -0.627239 0
M  V30 1133 C 102.456 1.59752 0.313534 0
M  V30 1134 O 103.645 1.78192 0.104896 0
M  V30 1135 C 100.745 3.3875 0.100974 0
M  V30 1136 C 99.9178 4.29008 -0.852687 0
M  V30 1137 C 98.9768 5.25944 -0.164152 0
M  V30 1138 O 98.0028 5.63535 -0.801047 0
M  V30 1139 N 99.2048 5.70075 1.09518 0
M  V30 1140 H 101.97 2.58249 -1.52077 0
M  V30 1141 H 99.5308 1.3156 -0.943594 0
M  V30 1142 H 101.523 4.00638 0.57194 0
M  V30 1143 H 100.093 2.99476 0.89628 0
M  V30 1144 H 99.3128 3.64419 -1.50308 0
M  V30 1145 H 100.601 4.86195 -1.49972 0
M  V30 1146 H 99.9988 5.41624 1.6328 0
M  V30 1147 H 98.5558 6.34067 1.51006 0
M  V30 1148 N 101.989 0.842826 1.3317 0
M  V30 1149 C 102.921 0.236245 2.27979 0
M  V30 1150 C 103.934 -0.585282 1.51915 0
M  V30 1151 O 105.123 -0.411705 1.73687 0
M  V30 1152 C 102.223 -0.685717 3.3189 0
M  V30 1153 C 101.396 0.0973448 4.37292 0
M  V30 1154 C 100.455 -0.748565 5.20848 0
M  V30 1155 O 99.4809 -0.186339 5.68895 0
M  V30 1156 N 100.683 -2.06527 5.42519 0
M  V30 1157 H 103.448 1.05088 2.80672 0
M  V30 1158 H 101.009 0.701667 1.45905 0
M  V30 1159 H 103.001 -1.25669 3.84694 0
M  V30 1160 H 101.571 -1.40105 2.79445 0
M  V30 1161 H 100.791 0.849706 3.84933 0
M  V30 1162 H 102.079 0.635643 5.04814 0
M  V30 1163 H 101.477 -2.54554 5.05192 0
M  V30 1164 H 100.034 -2.58464 5.98364 0
M  V30 1165 N 103.467 -1.45747 0.599634 0
M  V30 1166 C 104.714 -2.02292 0.0917284 0
M  V30 1167 C 105.042 -1.46906 -1.27472 0
M  V30 1168 O 104.297 -0.630652 -1.8526 0
M  V30 1169 C 104.596 -3.57399 -0.00602758 0
M  V30 1170 C 104.262 -4.31902 1.29503 0
M  V30 1171 C 102.924 -4.51974 1.65144 0
M  V30 1172 C 105.276 -4.74551 2.15525 0
M  V30 1173 C 102.604 -5.11949 2.86574 0
M  V30 1174 C 104.956 -5.35868 3.36196 0
M  V30 1175 C 103.62 -5.54165 3.72099 0
M  V30 1176 H 102.89 -0.740239 0.0335658 0
M  V30 1177 H 105.537 -1.7491 0.779661 0
M  V30 1178 H 103.842 -3.84014 -0.777183 0
M  V30 1179 H 105.539 -3.98846 -0.415038 0
M  V30 1180 H 102.129 -4.16588 1.00761 0
M  V30 1181 H 106.313 -4.58784 1.8929 0
M  V30 1182 H 101.569 -5.24305 3.14507 0
M  V30 1183 H 105.743 -5.6787 4.03109 0
M  V30 1184 H 103.37 -6.00406 4.6628 0
M  V30 1185 N 104.945 -0.338344 -1.53925 0
M  V30 1186 C 105.877 0.555117 -2.22376 0
M  V30 1187 C 106.89 1.06812 -1.22862 0
M  V30 1188 O 108.079 0.979163 -1.49247 0
M  V30 1189 C 105.179 1.77609 -2.88631 0
M  V30 1190 C 104.352 1.39927 -4.14414 0
M  V30 1191 C 103.411 2.47936 -4.64127 0
M  V30 1192 O 102.437 2.11461 -5.28463 0
M  V30 1193 N 103.639 3.79107 -4.39612 0
M  V30 1194 H 106.404 -0.0310778 -2.99684 0
M  V30 1195 H 103.965 -0.162226 -1.61085 0
M  V30 1196 H 105.957 2.49287 -3.18807 0
M  V30 1197 H 104.527 2.26978 -2.14941 0
M  V30 1198 H 103.747 0.513481 -3.90841 0
M  V30 1199 H 105.035 1.12341 -4.96243 0
M  V30 1200 H 104.433 4.11531 -3.88148 0
M  V30 1201 H 102.99 4.4697 -4.74406 0
M  V30 1202 N 106.423 1.57458 -0.0668435 0
M  V30 1203 C 107.37 2.12439 0.902122 0
M  V30 1204 C 108.34 1.03565 1.2986 0
M  V30 1205 O 109.525 1.312 1.38532 0
M  V30 1206 C 106.665 2.6865 2.16614 0
M  V30 1207 C 105.778 3.91663 1.82274 0
M  V30 1208 C 104.913 4.36134 3.0325 0
M  V30 1209 C 103.952 5.51808 2.64904 0
M  V30 1210 N 103.089 5.9126 3.78624 0
M  V30 1211 H 107.929 2.94934 0.426382 0
M  V30 1212 H 105.466 1.4575 0.198819 0
M  V30 1213 H 107.424 2.99346 2.90599 0
M  V30 1214 H 106.054 1.88928 2.61737 0
M  V30 1215 H 105.106 3.6746 0.983719 0
M  V30 1216 H 106.418 4.75693 1.50059 0
M  V30 1217 H 105.572 4.68465 3.85519 0
M  V30 1218 H 104.311 3.50948 3.38655 0
M  V30 1219 H 103.316 5.19133 1.81055 0
M  V30 1220 H 104.541 6.38722 2.30675 0
M  V30 1221 H 102.487 5.09024 4.138 0
M  V30 1222 H 102.404 6.70018 3.5016 0
M  V30 1223 H 103.672 6.28212 4.61486 0
M  V30 1224 N 107.901 -0.206675 1.56239 0
M  V30 1225 C 108.811 -1.27686 1.96808 0
M  V30 1226 C 109.827 -1.50455 0.874035 0
M  V30 1227 O 111.003 -1.63295 1.17884 0
M  V30 1228 C 108.068 -2.60358 2.28942 0
M  V30 1229 C 107.129 -2.45762 3.51994 0
M  V30 1230 C 106.362 -3.72108 3.82585 0
M  V30 1231 O 106.585 -4.75776 3.14631 0
M  V30 1232 O 105.519 -3.6833 4.76043 0
M  V30 1233 H 109.345 -0.962593 2.88041 0
M  V30 1234 H 106.93 -0.410746 1.43643 0
M  V30 1235 H 108.812 -3.38687 2.50737 0
M  V30 1236 H 107.487 -2.91435 1.4088 0
M  V30 1237 H 106.394 -1.65584 3.35459 0
M  V30 1238 H 107.727 -2.19621 4.40486 0
M  V30 1239 N 109.379 -1.50304 -0.473955 0
M  V30 1240 C 110.656 -1.51667 -1.23518 0
M  V30 1241 C 111.036 -0.259701 -2.09496 0
M  V30 1242 O 110.384 0.756986 -2.15597 0
M  V30 1243 C 110.594 -2.81082 -2.06868 0
M  V30 1244 C 111.942 -3.31631 -2.65153 0
M  V30 1245 O 112.966 -2.82384 -2.17113 0
M  V30 1246 O 111.825 -4.17471 -3.52675 0
M  V30 1247 H 108.919 -0.60822 -0.560355 0
M  V30 1248 H 111.465 -1.62592 -0.486011 0
M  V30 1249 H 110.237 -3.64041 -1.4349 0
M  V30 1250 H 109.86 -2.73146 -2.88924 0
M  V30 1251 N 110.857 0.726932 -1.39834 0
M  V30 1252 C 111.82 1.82269 -1.38962 0
M  V30 1253 C 112.82 1.58248 -0.285334 0
M  V30 1254 O 114.01 1.65499 -0.54366 0
M  V30 1255 C 111.142 3.20186 -1.17019 0
M  V30 1256 H 112.335 1.84443 -2.36476 0
M  V30 1257 H 109.888 0.931416 -1.25516 0
M  V30 1258 H 110.623 3.23669 -0.202204 0
M  V30 1259 H 110.408 3.3902 -1.96998 0
M  V30 1260 H 111.898 4.00235 -1.1917 0
M  V30 1261 N 112.336 1.25143 0.95797 0
M  V30 1262 C 113.299 1.05321 2.03569 0
M  V30 1263 C 114.299 0.007152 1.60798 0
M  V30 1264 O 115.489 0.24903 1.72411 0
M  V30 1265 C 112.621 0.598394 3.35607 0
M  V30 1266 H 113.814 2.00986 2.22586 0
M  V30 1267 H 111.367 1.07502 1.13459 0
M  V30 1268 H 112.102 -0.361014 3.22284 0
M  V30 1269 H 111.887 1.35351 3.67998 0
M  V30 1270 H 113.377 0.48104 4.1482 0
M  V30 1271 N 113.814 -1.1601 1.06675 0
M  V30 1272 C 114.744 -2.22688 0.702307 0
M  V30 1273 C 115.725 -1.67306 -0.307032 0
M  V30 1274 O 116.91 -1.93352 -0.181305 0
M  V30 1275 C 114.04 -3.47178 0.092038 0
M  V30 1276 C 112.994 -4.15477 1.02777 0
M  V30 1277 C 112.32 -5.33963 0.28061 0
M  V30 1278 C 113.62 -4.66019 2.35846 0
M  V30 1279 H 115.314 -2.53429 1.59419 0
M  V30 1280 H 112.86 -1.21813 0.767961 0
M  V30 1281 H 114.813 -4.21037 -0.174814 0
M  V30 1282 H 113.537 -3.15749 -0.834877 0
M  V30 1283 H 112.196 -3.43549 1.27944 0
M  V30 1284 H 111.844 -4.98788 -0.649545 0
M  V30 1285 H 111.544 -5.806 0.904258 0
M  V30 1286 H 113.068 -6.10596 0.021396 0
M  V30 1287 H 114.482 -5.3144 2.15045 0
M  V30 1288 H 112.879 -5.23293 2.93743 0
M  V30 1289 H 113.949 -3.82023 2.98641 0
M  V30 1290 N 115.292 -0.849877 -1.32721 0
M  V30 1291 C 116.52 -0.464754 -2.01613 0
M  V30 1292 C 116.935 0.937191 -1.63897 0
M  V30 1293 O 116.292 1.61081 -0.857856 0
M  V30 1294 C 116.343 -0.588638 -3.56675 0
M  V30 1295 O 116.064 -1.93535 -3.93034 0
M  V30 1296 C 117.565 -0.2019 -4.4284 0
M  V30 1297 H 114.785 -0.183215 -0.645502 0
M  V30 1298 H 117.329 -1.1455 -1.69407 0
M  V30 1299 H 115.484 0.0443159 -3.87375 0
M  V30 1300 H 115.898 -1.92871 -4.87751 0
M  V30 1301 H 117.372 -0.339599 -5.50954 0
M  V30 1302 H 117.849 0.857224 -4.30753 0
M  V30 1303 H 118.455 -0.809733 -4.17521 0
M  V30 1304 N 116.77 1.45427 -0.607355 0
M  V30 1305 C 118.019 2.01452 -0.100036 0
M  V30 1306 C 118.332 1.48159 1.27704 0
M  V30 1307 O 119.538 1.96159 1.87707 0
M  V30 1308 C 117.994 3.59672 -0.128158 0
M  V30 1309 C 117.602 4.21962 -1.50507 0
M  V30 1310 C 119.346 4.23262 0.323932 0
M  V30 1311 C 117.253 5.72333 -1.48959 0
M  V30 1312 H 116.183 0.75325 -0.0336299 0
M  V30 1313 H 118.834 1.66901 -0.76265 0
M  V30 1314 H 117.216 3.91411 0.601105 0
M  V30 1315 H 118.39 4.01796 -2.25602 0
M  V30 1316 H 116.705 3.70565 -1.89923 0
M  V30 1317 H 119.302 5.33522 0.354691 0
M  V30 1318 H 119.645 3.93921 1.34656 0
M  V30 1319 H 120.178 3.96239 -0.352056 0
M  V30 1320 H 116.917 6.06373 -2.48981 0
M  V30 1321 H 116.437 5.94691 -0.781214 0
M  V30 1322 H 118.116 6.35525 -1.21313 0
M  V30 1323 N 118.248 0.346503 1.53744 0
M  V30 1324 C 119.478 -0.250047 2.05081 0
M  V30 1325 C 119.886 -1.44529 1.22098 0
M  V30 1326 O 119.229 -1.81992 0.249917 0
M  V30 1327 C 119.291 -0.725934 3.52094 0
M  V30 1328 C 118.955 0.350053 4.55657 0
M  V30 1329 C 119.952 1.19372 5.0601 0
M  V30 1330 C 117.637 0.504827 4.99757 0
M  V30 1331 C 119.631 2.17768 5.99046 0
M  V30 1332 C 117.318 1.49218 5.92602 0
M  V30 1333 C 118.316 2.32706 6.42135 0
M  V30 1334 O 118.004 3.2976 7.33153 0
M  V30 1335 H 117.736 -0.0515469 0.674032 0
M  V30 1336 H 120.29 0.497559 1.99282 0
M  V30 1337 H 118.52 -1.52483 3.55367 0
M  V30 1338 H 120.209 -1.24336 3.86388 0
M  V30 1339 H 120.975 1.08525 4.72702 0
M  V30 1340 H 116.854 -0.135178 4.60802 0
M  V30 1341 H 120.398 2.82971 6.37631 0
M  V30 1342 H 116.295 1.6012 6.25325 0
M  V30 1343 H 117.063 3.25265 7.51096 0
M  V30 1344 N 119.726 -1.57421 0.075193 0
M  V30 1345 C 120.636 -2.1642 -0.905511 0
M  V30 1346 C 121.652 -1.12828 -1.32461 0
M  V30 1347 O 122.828 -1.45109 -1.39661 0
M  V30 1348 C 119.893 -2.71693 -2.15369 0
M  V30 1349 C 118.954 -3.90171 -1.79068 0
M  V30 1350 C 118.187 -4.42798 -2.97936 0
M  V30 1351 O 118.41 -3.94416 -4.12058 0
M  V30 1352 O 117.344 -5.34085 -2.77555 0
M  V30 1353 H 121.17 -3.00588 -0.433626 0
M  V30 1354 H 118.755 -1.48664 -0.148067 0
M  V30 1355 H 120.637 -3.07104 -2.88557 0
M  V30 1356 H 119.312 -1.90582 -2.61649 0
M  V30 1357 H 118.219 -3.59606 -1.03122 0
M  V30 1358 H 119.552 -4.72584 -1.37569 0
M  V30 1359 N 121.204 0.198386 -1.56346 0
M  V30 1360 C 122.137 1.27381 -1.89339 0
M  V30 1361 C 123.115 1.44106 -0.753134 0
M  V30 1362 O 124.299 1.59549 -1.00381 0
M  V30 1363 C 121.426 2.6409 -2.12071 0
M  V30 1364 C 120.472 2.64253 -3.34772 0
M  V30 1365 S 121.305 2.16013 -4.89999 0
M  V30 1366 C 122.461 3.54553 -5.15794 0
M  V30 1367 H 122.694 0.992058 -2.8026 0
M  V30 1368 H 120.227 0.401726 -1.49082 0
M  V30 1369 H 122.185 3.42786 -2.2585 0
M  V30 1370 H 120.846 2.89478 -1.21906 0
M  V30 1371 H 120.039 3.64768 -3.47794 0
M  V30 1372 H 119.641 1.93637 -3.1997 0
M  V30 1373 H 121.933 4.50396 -5.06112 0
M  V30 1374 H 122.876 3.46428 -6.1757 0
M  V30 1375 H 123.284 3.49313 -4.43442 0
M  V30 1376 N 122.682 1.50554 0.465978 0
M  V30 1377 C 123.612 1.72722 1.57128 0
M  V30 1378 C 124.593 0.576294 1.6004 0
M  V30 1379 O 125.778 0.81598 1.76225 0
M  V30 1380 C 122.908 1.82605 2.95419 0
M  V30 1381 C 121.862 2.97835 3.07373 0
M  V30 1382 C 121.188 2.92867 4.47363 0
M  V30 1383 C 122.488 4.38265 2.84114 0
M  V30 1384 H 124.182 2.65267 1.38829 0
M  V30 1385 H 121.728 1.2765 0.666441 0
M  V30 1386 H 123.681 1.96698 3.72677 0
M  V30 1387 H 122.405 0.866858 3.14886 0
M  V30 1388 H 121.064 2.83401 2.3255 0
M  V30 1389 H 120.712 1.94783 4.63755 0
M  V30 1390 H 120.412 3.70227 4.56296 0
M  V30 1391 H 121.936 3.09015 5.26633 0
M  V30 1392 H 123.35 4.53198 3.51118 0
M  V30 1393 H 121.747 5.17115 3.04487 0
M  V30 1394 H 122.817 4.50281 1.7993 0
M  V30 1395 N 124.16 -0.719506 1.40217 0
M  V30 1396 C 125.092 -1.84428 1.36084 0
M  V30 1397 C 126.105 -1.60597 0.266913 0
M  V30 1398 O 127.294 -1.70544 0.526983 0
M  V30 1399 C 124.394 -3.20757 1.094 0
M  V30 1400 C 123.567 -3.71817 2.30372 0
M  V30 1401 C 122.626 -4.86748 1.99907 0
M  V30 1402 O 121.652 -4.99603 2.72737 0
M  V30 1403 N 122.854 -5.7226 0.974635 0
M  V30 1404 H 125.619 -1.88473 2.33019 0
M  V30 1405 H 123.18 -0.900885 1.3452 0
M  V30 1406 H 125.172 -3.95235 0.870116 0
M  V30 1407 H 123.742 -3.11884 0.211452 0
M  V30 1408 H 122.962 -2.88514 2.68614 0
M  V30 1409 H 124.25 -4.02666 3.11026 0
M  V30 1410 H 123.648 -5.6448 0.371368 0
M  V30 1411 H 122.205 -6.46739 0.810656 0
M  V30 1412 N 125.638 -1.25649 -0.95132 0
M  V30 1413 C 126.586 -1.06118 -2.06982 0
M  V30 1414 C 127.58 0.00889169 -1.69398 0
M  V30 1415 O 128.786 -0.146988 -1.79399 0
M  V30 1416 H 125.161 -0.326248 -0.677544 0
M  V30 1417 H 127.132 -2.00932 -2.2061 0
M  V30 1418 C 125.881 -0.700145 -3.40578 0
M  V30 1419 H 125.204 -1.51537 -3.69968 0
M  V30 1420 H 126.644 -0.603211 -4.19687 0
M  V30 1421 C 125.103 0.59403 -3.31622 0
M  V30 1422 O 125.633 1.63522 -3.66911 0
M  V30 1423 N 123.839 0.58089 -2.84735 0
M  V30 1424 H 123.386 -0.266783 -2.56215 0
M  V30 1425 H 123.344 1.44695 -2.79125 0
M  V30 1426 N 127.117 1.15442 -1.07289 0
M  V30 1427 C 128.366 1.85557 -0.790669 0
M  V30 1428 C 128.679 1.83186 0.685739 0
M  V30 1429 O 129.885 2.48977 1.0827 0
M  V30 1430 C 128.341 3.33038 -1.36433 0
M  V30 1431 C 127.949 3.43856 -2.8717 0
M  V30 1432 C 129.693 4.0834 -1.1601 0
M  V30 1433 C 127.6 4.85482 -3.3773 0
M  V30 1434 H 126.53 0.695122 -0.292098 0
M  V30 1435 H 129.181 1.30219 -1.29287 0
M  V30 1436 H 127.563 3.88043 -0.789864 0
M  V30 1437 H 128.737 2.98961 -3.50655 0
M  V30 1438 H 127.052 2.81998 -3.06376 0
M  V30 1439 H 129.649 5.12859 -1.51262 0
M  V30 1440 H 129.992 4.16182 -0.0991007 0
M  V30 1441 H 130.525 3.59603 -1.70089 0
M  V30 1442 H 127.264 4.82823 -4.43353 0
M  V30 1443 H 126.784 5.30961 -2.78999 0
M  V30 1444 H 128.463 5.54335 -3.33648 0
M  V30 1445 N 128.595 0.856903 1.32268 0
M  V30 1446 C 129.842 0.461386 1.97174 0
M  V30 1447 C 130.17 -0.983491 1.67803 0
M  V30 1448 O 129.425 -1.70541 0.959903 0
M  V30 1449 C 129.724 0.649919 3.51441 0
M  V30 1450 C 129.39 2.0656 4.00804 0
M  V30 1451 C 128.052 2.45279 4.13995 0
M  V30 1452 C 130.404 2.98947 4.26943 0
M  V30 1453 C 127.732 3.75653 4.50668 0
M  V30 1454 C 130.084 4.28822 4.65075 0
M  V30 1455 C 128.748 4.67472 4.76472 0
M  V30 1456 H 128.018 0.168833 0.72151 0
M  V30 1457 H 130.665 1.08739 1.57633 0
M  V30 1458 H 128.97 -0.0593018 3.91755 0
M  V30 1459 H 130.667 0.32391 3.9969 0
M  V30 1460 H 127.257 1.75495 3.91024 0
M  V30 1461 H 131.441 2.70265 4.16258 0
M  V30 1462 H 126.697 4.05379 4.57688 0
M  V30 1463 H 130.871 5.0047 4.84255 0
M  V30 1464 H 128.498 5.68539 5.04646 0
M  V30 1465 N 130.073 -1.45103 0.615059 0
M  V30 1466 C 131.036 -2.29025 -0.0895485 0
M  V30 1467 C 132.036 -1.40174 -0.787906 0
M  V30 1468 O 133.226 -1.62217 -0.634933 0
M  V30 1469 C 130.358 -3.21376 -1.13711 0
M  V30 1470 H 131.551 -2.92807 0.648382 0
M  V30 1471 H 129.104 -1.51749 0.374444 0
M  V30 1472 H 129.839 -2.6241 -1.90556 0
M  V30 1473 H 129.624 -3.86834 -0.640475 0
M  V30 1474 H 131.114 -3.84459 -1.63036 0
M  V30 1475 N 131.551 -0.354651 -1.53558 0
M  V30 1476 C 132.8 0.239504 -2.00273 0
M  V30 1477 C 133.113 1.50759 -1.24623 0
M  V30 1478 O 134.319 2.17968 -1.61871 0
M  V30 1479 C 132.775 0.477341 -3.5672 0
M  V30 1480 C 132.383 -0.775488 -4.41237 0
M  V30 1481 C 134.127 1.02975 -4.11821 0
M  V30 1482 C 132.034 -0.507838 -5.89216 0
M  V30 1483 H 130.964 0.0932743 -0.748208 0
M  V30 1484 H 133.615 -0.471701 -1.77334 0
M  V30 1485 H 131.997 1.24953 -3.7577 0
M  V30 1486 H 133.171 -1.54963 -4.33962 0
M  V30 1487 H 131.486 -1.25033 -3.97185 0
M  V30 1488 H 134.083 1.24513 -5.2 0
M  V30 1489 H 134.426 1.98862 -3.65731 0
M  V30 1490 H 134.959 0.317994 -3.96527 0
M  V30 1491 H 131.698 -1.43674 -6.39561 0
M  V30 1492 H 131.218 0.228011 -5.99366 0
M  V30 1493 H 132.897 -0.129238 -6.46871 0
M  V30 1494 N 133.029 1.57378 -0.0835403 0
M  V30 1495 C 134.276 1.9393 0.58287 0
M  V30 1496 C 134.604 0.964455 1.68904 0
M  V30 1497 O 133.859 -0.0179474 1.95692 0
M  V30 1498 C 134.158 3.37063 1.1884 0
M  V30 1499 C 133.824 4.50424 0.207194 0
M  V30 1500 C 132.486 4.81159 -0.0627115 0
M  V30 1501 C 134.838 5.19136 -0.463426 0
M  V30 1502 C 132.166 5.77939 -1.01012 0
M  V30 1503 C 134.518 6.16931 -1.39924 0
M  V30 1504 C 133.182 6.46078 -1.67749 0
M  V30 1505 H 132.452 0.70964 0.213287 0
M  V30 1506 H 135.099 1.90856 -0.156916 0
M  V30 1507 H 133.404 3.3666 2.00418 0
M  V30 1508 H 135.101 3.6264 1.71153 0
M  V30 1509 H 131.691 4.2646 0.427747 0
M  V30 1510 H 135.875 4.95576 -0.268034 0
M  V30 1511 H 131.131 5.98842 -1.23283 0
M  V30 1512 H 135.305 6.69273 -1.92476 0
M  V30 1513 H 132.932 7.2088 -2.41321 0
M  V30 1514 N 134.507 -0.190092 1.56449 0
M  V30 1515 C 135.923 -0.54113 1.50146 0
M  V30 1516 C 136.123 -1.85603 0.784465 0
M  V30 1517 O 135.179 -2.5024 0.337051 0
M  V30 1518 C 136.492 -0.591241 2.9483 0
M  V30 1519 C 138.04 -0.679732 3.0553 0
M  V30 1520 C 138.515 -0.760908 4.51635 0
M  V30 1521 N 140.006 -0.824302 4.55806 0
M  V30 1522 C 140.741 -0.907365 5.66175 0
M  V30 1523 N 140.237 -0.952422 6.86222 0
M  V30 1524 N 142.03 -0.94494 5.541 0
M  V30 1525 H 134.181 0.67235 2.01478 0
M  V30 1526 H 136.444 0.240127 0.917084 0
M  V30 1527 H 136.15 0.305905 3.50367 0
M  V30 1528 H 136.024 -1.44422 3.48457 0
M  V30 1529 H 138.411 -1.56731 2.50039 0
M  V30 1530 H 138.492 0.199549 2.5502 0
M  V30 1531 H 138.136 0.122336 5.07753 0
M  V30 1532 H 138.066 -1.65606 4.99882 0
M  V30 1533 H 140.557 -0.798526 3.69367 0
M  V30 1534 H 140.87 -1.01645 7.66086 0
M  V30 1535 H 139.215 -0.921014 6.8887 0
M  V30 1536 H 142.406 -0.906612 4.59236 0
M  V30 1537 H 142.579 -1.00622 6.4014 0
M  V30 1538 N 135.985 -1.50799 -0.457987 0
M  V30 1539 C 136.917 -1.66786 -1.57211 0
M  V30 1540 C 137.93 -0.548962 -1.53265 0
M  V30 1541 O 139.119 -0.8226 -1.58416 0
M  V30 1542 C 136.219 -1.64834 -2.96113 0
M  V30 1543 C 135.392 -2.92971 -3.24787 0
M  V30 1544 C 134.451 -2.83485 -4.43309 0
M  V30 1545 O 133.477 -3.5744 -4.42973 0
M  V30 1546 N 134.679 -1.97929 -5.45714 0
M  V30 1547 H 137.444 -2.62889 -1.43909 0
M  V30 1548 H 135.005 -1.48427 -0.646617 0
M  V30 1549 H 136.997 -1.56084 -3.7339 0
M  V30 1550 H 135.567 -0.764118 -3.03117 0
M  V30 1551 H 134.787 -3.15749 -2.36 0
M  V30 1552 H 136.075 -3.77834 -3.40762 0
M  V30 1553 H 135.473 -1.37182 -5.48815 0
M  V30 1554 H 134.03 -1.95073 -6.21924 0
M  V30 1555 N 137.463 0.71206 -1.40597 0
M  V30 1556 C 138.74 1.46536 -1.29563 0
M  V30 1557 C 139.12 2.10931 0.0844217 0
M  V30 1558 O 138.468 2.00418 1.0975 0
M  V30 1559 C 138.678 2.49821 -2.43701 0
M  V30 1560 C 140.026 3.15551 -2.841 0
M  V30 1561 O 141.05 2.60142 -2.4332 0
M  V30 1562 O 139.909 4.15867 -3.54566 0
M  V30 1563 H 137.003 0.651801 -0.509004 0
M  V30 1564 H 139.549 0.743935 -1.52524 0
M  V30 1565 H 138.321 2.00778 -3.35863 0
M  V30 1566 H 137.944 3.29495 -2.22528 0
M  V30 1567 N 138.941 1.26152 0.944643 0
M  V30 1568 C 140.166 1.14363 1.7302 0
M  V30 1569 C 140.591 -0.29772 1.85729 0
M  V30 1570 O 139.949 -1.2157 1.34501 0
M  V30 1571 C 139.997 1.81378 3.11664 0
M  V30 1572 O 139.101 1.10022 3.97453 0
M  V30 1573 H 138.442 0.398694 0.53098 0
M  V30 1574 H 140.972 1.66906 1.18337 0
M  V30 1575 H 140.982 1.88064 3.62072 0
M  V30 1576 H 139.657 2.86237 3.0173 0
M  V30 1577 H 138.234 1.11287 3.55907 0
M  V30 1578 N 140.419 -1.14872 1.07899 0
M  V30 1579 C 141.644 -1.90202 0.826926 0
M  V30 1580 C 142.069 -1.77774 -0.614664 0
M  V30 1581 O 141.427 -1.11431 -1.43013 0
M  V30 1582 C 141.475 -3.38352 1.24702 0
M  V30 1583 O 140.579 -4.10497 0.39575 0
M  V30 1584 H 139.92 -0.591968 0.300782 0
M  V30 1585 H 142.45 -1.45437 1.43907 0
M  V30 1586 H 142.46 -3.89156 1.22563 0
M  V30 1587 H 141.135 -3.46715 2.29698 0
M  V30 1588 H 139.712 -3.69796 0.480117 0
M  V30 1589 N 141.898 -0.863906 -1.31812 0
M  V30 1590 C 143.123 -0.48527 -2.01643 0
M  V30 1591 C 143.548 0.913058 -1.64453 0
M  V30 1592 O 142.906 1.6014 -0.849985 0
M  V30 1593 C 142.954 -0.642625 -3.54828 0
M  V30 1594 O 142.058 0.320659 -4.11151 0
M  V30 1595 H 141.399 -0.193793 -0.635091 0
M  V30 1596 H 143.929 -1.16565 -1.68148 0
M  V30 1597 H 143.939 -0.533628 -4.04495 0
M  V30 1598 H 142.614 -1.66227 -3.81237 0
M  V30 1599 H 141.191 0.167126 -3.72525 0
M  V30 1600 N 143.376 1.44774 -0.622745 0
M  V30 1601 C 144.604 2.06487 -0.130722 0
M  V30 1602 C 145.019 1.46476 1.19123 0
M  V30 1603 O 144.376 0.584502 1.72887 0
M  V30 1604 C 144.427 3.615 -0.000807207 0
M  V30 1605 O 144.148 4.19274 -1.27048 0
M  V30 1606 C 145.649 4.40229 0.520898 0
M  V30 1607 H 142.869 0.666704 -0.0758106 0
M  V30 1608 H 145.413 1.85779 -0.854774 0
M  V30 1609 H 143.568 3.81498 0.673643 0
M  V30 1610 H 143.982 5.12622 -1.1099 0
M  V30 1611 H 145.456 5.49144 0.560838 0
M  V30 1612 H 145.933 4.1108 1.54627 0
M  V30 1613 H 146.539 4.25131 -0.120018 0
M  V30 1614 N 144.854 0.36279 1.53368 0
M  V30 1615 C 146.102 -0.227326 2.00817 0
M  V30 1616 C 146.423 -1.49511 1.25186 0
M  V30 1617 O 145.693 -1.92482 0.364348 0
M  V30 1618 H 144.273 -0.0869923 0.741917 0
M  V30 1619 H 146.935 0.488381 1.88682 0
M  V30 1620 H 146.031 -0.456273 3.08747 0
M  V30 1621 N 146.332 -1.57332 0.0918853 0
M  V30 1622 C 147.578 -1.95328 -0.567313 0
M  V30 1623 C 147.933 -0.972866 -1.65991 0
M  V30 1624 O 147.226 0.00166256 -1.916 0
M  V30 1625 C 147.42 -3.37689 -1.17051 0
M  V30 1626 C 147.249 -4.49489 -0.137875 0
M  V30 1627 C 146.019 -5.04498 0.284515 0
M  V30 1628 C 148.217 -5.10393 0.63271 0
M  V30 1629 N 146.199 -5.99853 1.30576 0
M  V30 1630 C 147.57 -6.01435 1.50587 0
M  V30 1631 C 149.625 -4.93143 0.68658 0
M  V30 1632 C 148.328 -6.77077 2.42815 0
M  V30 1633 C 150.354 -5.69445 1.59645 0
M  V30 1634 C 149.716 -6.60151 2.45725 0
M  V30 1635 H 145.815 -0.761467 -0.178023 0
M  V30 1636 H 148.399 -1.93924 0.173706 0
M  V30 1637 H 146.57 -3.39793 -1.88136 0
M  V30 1638 H 148.302 -3.62872 -1.79181 0
M  V30 1639 H 145.057 -4.73489 -0.102593 0
M  V30 1640 H 145.481 -6.52231 1.81449 0
M  V30 1641 H 150.123 -4.22785 0.035244 0
M  V30 1642 H 147.841 -7.46699 3.08975 0
M  V30 1643 H 151.427 -5.58112 1.64323 0
M  V30 1644 H 150.307 -7.18159 3.14987 0
M  V30 1645 N 147.81 0.181792 -1.56548 0
M  V30 1646 C 148.758 1.24461 -1.965 0
M  V30 1647 C 149.752 1.464 -0.852261 0
M  V30 1648 O 150.958 1.47103 -1.03733 0
M  V30 1649 H 147.333 0.418138 -0.625031 0
M  V30 1650 H 149.304 0.880714 -2.85107 0
M  V30 1651 C 148.053 2.57891 -2.33212 0
M  V30 1652 H 147.376 2.41829 -3.18369 0
M  V30 1653 H 148.816 3.3097 -2.65019 0
M  V30 1654 C 147.275 3.15871 -1.17163 0
M  V30 1655 O 147.805 3.9913 -0.453708 0
M  V30 1656 N 146.011 2.74808 -0.944936 0
M  V30 1657 H 145.558 2.07205 -1.53049 0
M  V30 1658 H 145.516 3.13939 -0.170286 0
M  V30 1659 N 149.288 1.51039 0.449983 0
M  V30 1660 C 150.198 1.74261 1.57067 0
M  V30 1661 C 151.214 0.626363 1.62335 0
M  V30 1662 O 152.39 0.907162 1.79812 0
M  V30 1663 C 149.455 1.85114 2.93144 0
M  V30 1664 C 148.516 3.0893 2.98095 0
M  V30 1665 C 147.749 3.19256 4.27681 0
M  V30 1666 O 147.972 2.35835 5.19363 0
M  V30 1667 O 146.906 4.12144 4.38658 0
M  V30 1668 H 150.732 2.69303 1.40391 0
M  V30 1669 H 148.317 1.35389 0.631688 0
M  V30 1670 H 150.199 1.94311 3.73926 0
M  V30 1671 H 148.874 0.932588 3.09975 0
M  V30 1672 H 147.781 3.0522 2.16314 0
M  V30 1673 H 149.114 4.00433 2.86206 0
M  V30 1674 N 150.766 -0.704594 1.40972 0
M  V30 1675 C 151.994 -1.49354 1.43182 0
M  V30 1676 C 152.409 -1.88768 0.0345508 0
M  V30 1677 O 151.766 -1.56184 -0.944081 0
M  V30 1678 C 151.817 -2.76187 2.33244 0
M  V30 1679 O 151.538 -2.38436 3.67532 0
M  V30 1680 C 153.039 -3.7 2.44162 0
M  V30 1681 H 150.259 -0.460559 0.487982 0
M  V30 1682 H 152.803 -0.868261 1.85153 0
M  V30 1683 H 150.958 -3.34974 1.94606 0
M  V30 1684 H 151.372 -3.20126 4.15475 0
M  V30 1685 H 152.846 -4.55803 3.11364 0
M  V30 1686 H 153.323 -4.13867 1.47006 0
M  V30 1687 H 153.929 -3.17121 2.83398 0
M  V30 1688 N 152.244 -1.26651 -0.937939 0
M  V30 1689 C 153.493 -1.11775 -1.67897 0
M  V30 1690 C 153.806 0.33794 -1.92659 0
M  V30 1691 O 155.012 0.607434 -2.64618 0
M  V30 1692 C 153.468 -1.9523 -3.02346 0
M  V30 1693 C 153.076 -3.45393 -2.8532 0
M  V30 1694 C 154.82 -1.88972 -3.80118 0
M  V30 1695 C 152.727 -4.21083 -4.15263 0
M  V30 1696 H 151.657 -0.414696 -0.629717 0
M  V30 1697 H 154.308 -1.50988 -1.04283 0
M  V30 1698 H 152.69 -1.48853 -3.66959 0
M  V30 1699 H 153.864 -3.99561 -2.29537 0
M  V30 1700 H 152.179 -3.52921 -2.20988 0
M  V30 1701 H 154.776 -2.42805 -4.76392 0
M  V30 1702 H 155.119 -0.86113 -4.07296 0
M  V30 1703 H 155.652 -2.33189 -3.22285 0
M  V30 1704 H 152.391 -5.24425 -3.93267 0
M  V30 1705 H 151.911 -3.71695 -4.70747 0
M  V30 1706 H 153.59 -4.29706 -4.83696 0
M  V30 1707 N 153.722 1.14298 -1.08507 0
M  V30 1708 C 154.968 1.85633 -0.816581 0
M  V30 1709 C 155.301 1.82784 0.656021 0
M  V30 1710 O 154.576 1.25926 1.48233 0
M  V30 1711 C 154.859 3.34223 -1.34041 0
M  V30 1712 C 154.712 3.45639 -2.87843 0
M  V30 1713 C 156.031 4.29356 -0.9665 0
M  V30 1714 H 153.15 0.67402 -0.298104 0
M  V30 1715 H 155.792 1.34214 -1.34487 0
M  V30 1716 H 153.942 3.78144 -0.89104 0
M  V30 1717 H 155.614 3.10498 -3.41158 0
M  V30 1718 H 153.857 2.86817 -3.25451 0
M  V30 1719 H 154.528 4.50089 -3.19569 0
M  V30 1720 H 157.004 3.93457 -1.35391 0
M  V30 1721 H 155.88 5.3178 -1.3602 0
M  V30 1722 H 156.141 4.41919 0.126362 0
M  V30 1723 N 155.201 0.870884 1.31352 0
M  V30 1724 C 156.111 0.330783 2.32256 0
M  V30 1725 C 157.127 -0.559767 1.6475 0
M  V30 1726 O 158.303 -0.456263 1.96164 0
M  V30 1727 C 155.368 -0.458137 3.4366 0
M  V30 1728 C 154.429 0.460482 4.26823 0
M  V30 1729 C 153.662 -0.290881 5.32907 0
M  V30 1730 O 153.885 -1.51885 5.49806 0
M  V30 1731 O 152.819 0.351732 6.00871 0
M  V30 1732 H 156.645 1.16718 2.80376 0
M  V30 1733 H 154.23 0.634285 1.35267 0
M  V30 1734 H 156.112 -0.905343 4.1156 0
M  V30 1735 H 154.787 -1.27106 2.97701 0
M  V30 1736 H 153.694 0.956207 3.61673 0
M  V30 1737 H 155.027 1.23903 4.7635 0
M  V30 1738 N 156.679 -1.44442 0.630414 0
M  V30 1739 C 157.627 -2.32437 -0.0871428 0
M  V30 1740 C 158.621 -1.47304 -0.836525 0
M  V30 1741 O 159.827 -1.63653 -0.749506 0
M  V30 1742 H 156.202 -0.750533 -0.0469495 0
M  V30 1743 H 158.173 -2.90709 0.673096 0
M  V30 1744 C 156.922 -3.31288 -1.05563 0
M  V30 1745 H 156.245 -3.96805 -0.488426 0
M  V30 1746 H 157.685 -3.9554 -1.52721 0
M  V30 1747 C 156.144 -2.6016 -2.14052 0
M  V30 1748 O 156.674 -2.39997 -3.22124 0
M  V30 1749 N 154.88 -2.19911 -1.89967 0
M  V30 1750 H 154.427 -2.36509 -1.02085 0
M  V30 1751 H 154.385 -1.72646 -2.62756 0
M  V30 1752 N 158.157 -0.370918 -1.53173 0
M  V30 1753 C 159.087 0.464847 -2.28826 0
M  V30 1754 C 160.068 1.07936 -1.31468 0
M  V30 1755 O 161.253 1.0956 -1.60344 0
M  V30 1756 C 158.383 1.60196 -3.08147 0
M  V30 1757 C 157.337 1.11443 -4.13237 0
M  V30 1758 C 156.663 2.3422 -4.80672 0
M  V30 1759 C 157.963 0.195384 -5.21934 0
M  V30 1760 H 159.657 -0.166329 -2.98938 0
M  V30 1761 H 157.203 -0.0814359 -1.4377 0
M  V30 1762 H 159.156 2.19332 -3.59822 0
M  V30 1763 H 157.88 2.26045 -2.35735 0
M  V30 1764 H 156.539 0.545727 -3.62515 0
M  V30 1765 H 156.187 2.98537 -4.04827 0
M  V30 1766 H 155.887 2.02269 -5.51689 0
M  V30 1767 H 157.411 2.94032 -5.35143 0
M  V30 1768 H 158.825 0.694375 -5.69079 0
M  V30 1769 H 157.222 -0.0335027 -6.00091 0
M  V30 1770 H 158.292 -0.760961 -4.78892 0
M  V30 1771 N 159.635 1.57281 -0.100228 0
M  V30 1772 C 160.565 2.17328 0.853857 0
M  V30 1773 C 161.546 1.10804 1.2906 0
M  V30 1774 O 162.731 1.38963 1.35657 0
M  V30 1775 C 159.861 2.75772 2.11109 0
M  V30 1776 C 158.815 3.87713 1.81279 0
M  V30 1777 C 158.141 4.32882 3.13874 0
M  V30 1778 C 159.441 5.10677 1.09574 0
M  V30 1779 H 161.135 2.97305 0.353545 0
M  V30 1780 H 158.681 1.43009 0.168612 0
M  V30 1781 H 160.634 3.16433 2.78296 0
M  V30 1782 H 159.358 1.93057 2.63432 0
M  V30 1783 H 158.017 3.476 1.16489 0
M  V30 1784 H 157.665 3.47051 3.64095 0
M  V30 1785 H 157.365 5.08358 2.94696 0
M  V30 1786 H 158.889 4.7618 3.82211 0
M  V30 1787 H 160.303 5.48474 1.66879 0
M  V30 1788 H 158.7 5.91615 1.00557 0
M  V30 1789 H 159.77 4.84835 0.0793299 0
M  V30 1790 N 161.113 -0.173488 1.56642 0
M  V30 1791 C 162.076 -1.19859 1.95362 0
M  V30 1792 C 163.076 -1.37296 0.83704 0
M  V30 1793 O 164.266 -1.34739 1.10413 0
M  V30 1794 C 161.398 -2.56405 2.24654 0
M  V30 1795 H 162.591 -0.867062 2.87092 0
M  V30 1796 H 160.144 -0.415853 1.50666 0
M  V30 1797 H 160.879 -2.94576 1.35631 0
M  V30 1798 H 160.664 -2.45115 3.06041 0
M  V30 1799 H 162.154 -3.30287 2.5554 0
M  V30 1800 N 162.591 -1.51276 -0.441967 0
M  V30 1801 C 163.539 -1.72823 -1.55676 0
M  V30 1802 C 164.533 -0.59445 -1.58627 0
M  V30 1803 O 165.739 -0.775715 -1.62427 0
M  V30 1804 H 162.114 -0.545983 -0.517113 0
M  V30 1805 H 164.085 -2.6628 -1.34675 0
M  V30 1806 C 162.834 -1.86619 -2.93375 0
M  V30 1807 H 162.157 -2.73264 -2.91834 0
M  V30 1808 H 163.597 -2.05709 -3.70756 0
M  V30 1809 C 162.056 -0.624842 -3.31055 0
M  V30 1810 O 162.586 0.222636 -4.01083 0
M  V30 1811 N 160.792 -0.470288 -2.86769 0
M  V30 1812 H 160.339 -1.161 -2.29953 0
M  V30 1813 H 160.297 0.359051 -3.12343 0
M  V30 1814 N 164.069 0.697108 -1.41344 0
M  V30 1815 C 165.315 1.4593 -1.40827 0
M  V30 1816 C 165.648 1.94193 -0.0167098 0
M  V30 1817 O 164.923 1.69425 0.955263 0
M  V30 1818 C 165.206 2.67229 -2.41373 0
M  V30 1819 C 165.059 2.24741 -3.8963 0
M  V30 1820 C 166.378 3.69423 -2.39196 0
M  V30 1821 H 163.497 0.529303 -0.512842 0
M  V30 1822 H 166.139 0.794112 -1.72609 0
M  V30 1823 H 164.289 3.23982 -2.14401 0
M  V30 1824 H 165.961 1.73327 -4.27499 0
M  V30 1825 H 164.204 1.56542 -4.0457 0
M  V30 1826 H 164.875 3.1177 -4.55525 0
M  V30 1827 H 167.351 3.2234 -2.63128 0
M  V30 1828 H 166.227 4.51907 -3.11563 0
M  V30 1829 H 166.488 4.19012 -1.41001 0
M  V30 1830 N 165.547 1.27147 0.931209 0
M  V30 1831 C 166.777 1.15914 1.71019 0
M  V30 1832 C 167.185 -0.287112 1.87009 0
M  V30 1833 O 166.528 -1.20761 1.38429 0
M  V30 1834 C 166.59 1.76647 3.13107 0
M  V30 1835 C 166.254 3.25807 3.20467 0
M  V30 1836 C 167.251 4.22489 3.02983 0
M  V30 1837 C 164.936 3.66452 3.43538 0
M  V30 1838 C 166.93 5.57794 3.08454 0
M  V30 1839 C 164.617 5.01888 3.48643 0
M  V30 1840 C 165.615 5.97369 3.31119 0
M  V30 1841 O 165.303 7.30337 3.35952 0
M  V30 1842 H 165.035 0.404062 0.54195 0
M  V30 1843 H 167.589 1.68457 1.17521 0
M  V30 1844 H 165.819 1.18578 3.68071 0
M  V30 1845 H 167.508 1.60179 3.72958 0
M  V30 1846 H 168.274 3.92425 2.85004 0
M  V30 1847 H 164.153 2.92611 3.5623 0
M  V30 1848 H 167.697 6.32298 2.94694 0
M  V30 1849 H 163.594 5.31609 3.66145 0
M  V30 1850 H 164.362 7.38739 3.5243 0
M  V30 1851 N 167.025 -1.13721 1.09112 0
M  V30 1852 C 167.975 -2.17082 0.697091 0
M  V30 1853 C 168.959 -1.58321 -0.286923 0
M  V30 1854 O 170.151 -1.7673 -0.0978008 0
M  V30 1855 C 167.28 -3.43105 0.115729 0
M  V30 1856 C 166.366 -4.0888 1.12596 0
M  V30 1857 N 166.757 -4.4987 2.31195 0
M  V30 1858 C 165.055 -4.35471 0.963366 0
M  V30 1859 C 165.756 -5.01094 2.95431 0
M  V30 1860 N 164.732 -4.95751 2.23006 0
M  V30 1861 H 168.534 -2.46524 1.6001 0
M  V30 1862 H 166.048 -1.30481 0.966869 0
M  V30 1863 H 168.045 -4.16491 -0.184555 0
M  V30 1864 H 166.705 -3.15138 -0.78217 0
M  V30 1865 H 167.716 -4.42678 2.68806 0
M  V30 1866 H 164.393 -4.17328 0.119878 0
M  V30 1867 H 165.783 -5.4263 3.96236 0
M  V30 1868 N 168.503 -0.877838 -1.30888 0
M  V30 1869 C 169.435 -0.296607 -2.27273 0
M  V30 1870 C 170.448 0.544799 -1.53414 0
M  V30 1871 O 171.637 0.365511 -1.74718 0
M  V30 1872 C 168.737 0.597481 -3.33592 0
M  V30 1873 C 167.91 -0.213251 -4.3688 0
M  V30 1874 C 166.969 0.610208 -5.2265 0
M  V30 1875 O 165.995 0.035441 -5.69189 0
M  V30 1876 N 167.197 1.92071 -5.47804 0
M  V30 1877 H 169.962 -1.12492 -2.77787 0
M  V30 1878 H 167.523 -0.740105 -1.43993 0
M  V30 1879 H 169.515 1.15425 -3.87891 0
M  V30 1880 H 168.085 1.32647 -2.83061 0
M  V30 1881 H 167.305 -0.951466 -3.82545 0
M  V30 1882 H 168.593 -0.769262 -5.02951 0
M  V30 1883 H 167.991 2.4107 -5.11763 0
M  V30 1884 H 166.548 2.42508 -6.05007 0
M  V30 1885 N 169.982 1.44106 -0.638065 0
M  V30 1886 C 171.231 2.01194 -0.142744 0
M  V30 1887 C 171.544 1.50835 1.24532 0
M  V30 1888 O 172.75 2.00096 1.83504 0
M  V30 1889 C 171.206 3.59319 -0.20442 0
M  V30 1890 C 170.814 4.18674 -1.59423 0
M  V30 1891 C 172.558 4.23854 0.234079 0
M  V30 1892 C 170.465 5.69045 -1.61065 0
M  V30 1893 H 169.395 0.752367 -0.0495998 0
M  V30 1894 H 172.046 1.65246 -0.797881 0
M  V30 1895 H 170.428 3.92598 0.517946 0
M  V30 1896 H 171.602 3.96921 -2.34074 0
M  V30 1897 H 169.917 3.66453 -1.97741 0
M  V30 1898 H 172.514 5.34155 0.241443 0
M  V30 1899 H 172.857 3.96688 1.2627 0
M  V30 1900 H 173.39 3.95403 -0.436025 0
M  V30 1901 H 170.129 6.00956 -2.61787 0
M  V30 1902 H 169.649 5.929 -0.90718 0
M  V30 1903 H 171.328 6.32809 -1.34766 0
M  V30 1904 N 171.46 0.379036 1.52974 0
M  V30 1905 C 172.408 -0.476033 2.27677 0
M  V30 1906 C 173.402 -1.0719 1.31174 0
M  V30 1907 O 174.608 -1.01355 1.48752 0
M  V30 1908 H 170.983 -0.172255 0.732006 0
M  V30 1909 H 172.954 0.175615 2.97883 0
M  V30 1910 C 171.703 -1.5967 3.0887 0
M  V30 1911 H 171.026 -1.1475 3.82978 0
M  V30 1912 H 172.466 -2.16943 3.64296 0
M  V30 1913 C 170.925 -2.54682 2.20542 0
M  V30 1914 O 171.455 -3.57836 1.82527 0
M  V30 1915 N 169.661 -2.24183 1.84907 0
M  V30 1916 H 169.208 -1.40333 2.1602 0
M  V30 1917 H 169.166 -2.88006 1.26096 0
M  V30 1918 N 172.938 -1.57226 0.108567 0
M  V30 1919 C 173.888 -2.11305 -0.856396 0
M  V30 1920 C 174.872 -1.03129 -1.23504 0
M  V30 1921 O 176.064 -1.29381 -1.20787 0
M  V30 1922 C 173.193 -2.70771 -2.11041 0
M  V30 1923 C 172.279 -3.86011 -1.7566 0
M  V30 1924 N 172.67 -4.93492 -1.10902 0
M  V30 1925 C 170.968 -3.95999 -2.05185 0
M  V30 1926 C 171.669 -5.73984 -0.944308 0
M  V30 1927 N 170.645 -5.2346 -1.46596 0
M  V30 1928 H 174.447 -2.91784 -0.352002 0
M  V30 1929 H 171.961 -1.62126 -0.0942324 0
M  V30 1930 H 173.958 -3.07851 -2.81128 0
M  V30 1931 H 172.618 -1.91751 -2.62034 0
M  V30 1932 H 173.629 -5.1208 -0.774235 0
M  V30 1933 H 170.306 -3.28007 -2.58298 0
M  V30 1934 H 171.696 -6.70479 -0.436813 0
M  V30 1935 N 174.416 0.165178 -1.56732 0
M  V30 1936 C 175.346 1.20651 -1.99914 0
M  V30 1937 C 176.327 1.45827 -0.875705 0
M  V30 1938 O 177.512 1.57057 -1.14223 0
M  V30 1939 C 174.642 2.54401 -2.36427 0
M  V30 1940 C 173.596 2.43782 -3.51787 0
M  V30 1941 C 172.922 3.82078 -3.7406 0
M  V30 1942 C 174.222 1.93732 -4.85041 0
M  V30 1943 H 175.916 0.847534 -2.87154 0
M  V30 1944 H 173.462 0.40625 -1.38151 0
M  V30 1945 H 175.415 3.27458 -2.65234 0
M  V30 1946 H 174.139 2.92098 -1.46103 0
M  V30 1947 H 172.798 1.73178 -3.23117 0
M  V30 1948 H 172.446 4.17179 -2.81017 0
M  V30 1949 H 172.146 3.7584 -4.51684 0
M  V30 1950 H 173.67 4.56712 -4.05274 0
M  V30 1951 H 175.084 2.56569 -5.12684 0
M  V30 1952 H 173.481 1.98428 -5.66345 0
M  V30 1953 H 174.551 0.891962 -4.76626 0
M  V30 1954 N 175.894 1.51508 0.433938 0
M  V30 1955 C 176.841 1.73068 1.52696 0
M  V30 1956 C 177.811 0.572441 1.55924 0
M  V30 1957 O 178.996 0.807253 1.72882 0
M  V30 1958 C 176.136 1.86474 2.90381 0
M  V30 1959 C 175.249 3.14037 2.96656 0
M  V30 1960 C 174.384 3.18019 4.25485 0
M  V30 1961 C 173.423 4.39882 4.2564 0
M  V30 1962 N 172.56 4.41394 5.45999 0
M  V30 1963 H 177.4 2.66366 1.33615 0
M  V30 1964 H 174.937 1.32008 0.649018 0
M  V30 1965 H 176.895 1.92229 3.70275 0
M  V30 1966 H 175.525 0.965809 3.08013 0
M  V30 1967 H 174.577 3.17575 2.09404 0
M  V30 1968 H 175.889 4.0394 2.92633 0
M  V30 1969 H 175.043 3.22708 5.13755 0
M  V30 1970 H 173.782 2.2601 4.3217 0
M  V30 1971 H 172.787 4.35366 3.35763 0
M  V30 1972 H 174.012 5.33159 4.20617 0
M  V30 1973 H 171.958 3.52258 5.53399 0
M  V30 1974 H 171.875 5.25111 5.4387 0
M  V30 1975 H 173.143 4.50281 6.36292 0
M  V30 1976 N 177.372 -0.689602 1.41712 0
M  V30 1977 C 178.6 -1.47827 1.44758 0
M  V30 1978 C 179.015 -1.88721 0.0545703 0
M  V30 1979 O 178.372 -1.57176 -0.927463 0
M  V30 1980 C 178.423 -2.73698 2.3616 0
M  V30 1981 O 178.144 -2.34524 3.7004 0
M  V30 1982 C 179.645 -3.67389 2.48072 0
M  V30 1983 H 176.865 -0.455357 0.49284 0
M  V30 1984 H 179.409 -0.848574 1.86063 0
M  V30 1985 H 177.564 -3.32891 1.98148 0
M  V30 1986 H 177.978 -3.15701 4.18847 0
M  V30 1987 H 179.452 -4.52475 3.16181 0
M  V30 1988 H 179.929 -4.12284 1.51388 0
M  V30 1989 H 180.535 -3.14097 2.86746 0
M  V30 1990 N 178.85 -1.27639 -0.924453 0
M  V30 1991 C 180.096 -1.14336 -1.67497 0
M  V30 1992 C 180.429 0.309465 -1.91718 0
M  V30 1993 O 179.704 1.22608 -1.50989 0
M  V30 1994 C 179.987 -1.93096 -3.0395 0
M  V30 1995 C 179.84 -3.46381 -2.8695 0
M  V30 1996 C 181.159 -1.73798 -4.0433 0
M  V30 1997 H 178.278 -0.416728 -0.607871 0
M  V30 1998 H 180.92 -1.56832 -1.07256 0
M  V30 1999 H 179.07 -1.56982 -3.55372 0
M  V30 2000 H 180.742 -3.92343 -2.42621 0
M  V30 2001 H 178.985 -3.72557 -2.22225 0
M  V30 2002 H 179.656 -3.96735 -3.83804 0
M  V30 2003 H 182.132 -2.05293 -3.61931 0
M  V30 2004 H 181.008 -2.31294 -4.97789 0
M  V30 2005 H 181.269 -0.686725 -4.36734 0
M  V30 2006 N 180.328 1.1314 -1.09713 0
M  V30 2007 C 181.258 2.20748 -0.761102 0
M  V30 2008 C 182.239 1.68061 0.262566 0
M  V30 2009 O 183.424 1.93765 0.129977 0
M  V30 2010 C 180.554 3.46812 -0.184054 0
M  V30 2011 C 179.508 4.12606 -1.13757 0
M  V30 2012 C 178.834 5.33031 -0.422083 0
M  V30 2013 C 180.134 4.59603 -2.48118 0
M  V30 2014 H 181.828 2.49113 -1.66082 0
M  V30 2015 H 179.374 1.19734 -0.799987 0
M  V30 2016 H 181.327 4.21353 0.0631215 0
M  V30 2017 H 180.051 3.17851 0.750868 0
M  V30 2018 H 178.71 3.40036 -1.37007 0
M  V30 2019 H 178.358 5.00335 0.517072 0
M  V30 2020 H 178.058 5.77999 -1.05788 0
M  V30 2021 H 179.582 6.10325 -0.183277 0
M  V30 2022 H 180.996 5.25552 -2.29059 0
M  V30 2023 H 179.393 5.15321 -3.07514 0
M  V30 2024 H 180.463 3.73971 -3.08665 0
M  V30 2025 N 181.806 0.884767 1.30421 0
M  V30 2026 C 182.716 0.355398 2.31892 0
M  V30 2027 C 183.732 -0.542261 1.65335 0
M  V30 2028 O 184.908 -0.435432 1.96637 0
M  V30 2029 C 181.973 -0.421661 3.44126 0
M  V30 2030 C 181.034 0.505727 4.26311 0
M  V30 2031 C 180.267 -0.234343 5.33185 0
M  V30 2032 O 180.49 -1.46045 5.51386 0
M  V30 2033 O 179.424 0.415443 6.00465 0
M  V30 2034 H 183.25 1.19685 2.79122 0
M  V30 2035 H 180.835 0.648596 1.34587 0
M  V30 2036 H 182.717 -0.861641 4.12497 0
M  V30 2037 H 181.392 -1.23942 2.99032 0
M  V30 2038 H 180.299 0.994513 3.60639 0
M  V30 2039 H 181.632 1.28948 4.75009 0
M  V30 2040 N 183.284 -1.43765 0.645699 0
M  V30 2041 C 184.194 -2.34544 -0.0512957 0
M  V30 2042 C 185.21 -1.53455 -0.82022 0
M  V30 2043 O 186.386 -1.86133 -0.769176 0
M  V30 2044 C 183.451 -3.31636 -1.01087 0
M  V30 2045 C 182.512 -4.2863 -0.239712 0
M  V30 2046 C 181.745 -5.21084 -1.15358 0
M  V30 2047 O 181.968 -5.1779 -2.39269 0
M  V30 2048 O 180.902 -5.98593 -0.630038 0
M  V30 2049 H 184.728 -2.95624 0.695718 0
M  V30 2050 H 182.313 -1.43781 0.405882 0
M  V30 2051 H 184.195 -3.9136 -1.56254 0
M  V30 2052 H 182.87 -2.73069 -1.73824 0
M  V30 2053 H 181.777 -3.72408 0.355356 0
M  V30 2054 H 183.11 -4.90157 0.447936 0
M  V30 2055 N 184.763 -0.387143 -1.52771 0
M  V30 2056 C 185.71 0.449048 -2.26389 0
M  V30 2057 C 186.68 1.05961 -1.27912 0
M  V30 2058 O 187.865 1.08804 -1.56737 0
M  V30 2059 C 185.005 1.57155 -3.0724 0
M  V30 2060 C 184.118 0.984066 -4.20643 0
M  V30 2061 C 183.253 2.07745 -4.88892 0
M  V30 2062 C 182.292 1.46574 -5.94292 0
M  V30 2063 N 181.429 2.49834 -6.56146 0
M  V30 2064 H 186.269 -0.185205 -2.97424 0
M  V30 2065 H 183.806 -0.103164 -1.46738 0
M  V30 2066 H 185.764 2.23309 -3.52405 0
M  V30 2067 H 184.394 2.17615 -2.38419 0
M  V30 2068 H 183.446 0.212193 -3.79808 0
M  V30 2069 H 184.758 0.497029 -4.96318 0
M  V30 2070 H 183.912 2.81673 -5.3735 0
M  V30 2071 H 182.651 2.59807 -4.12737 0
M  V30 2072 H 181.656 0.711696 -5.45174 0
M  V30 2073 H 182.881 0.953088 -6.72379 0
M  V30 2074 H 180.827 3.0107 -5.82832 0
M  V30 2075 H 180.744 2.05879 -7.27427 0
M  V30 2076 H 182.012 3.23399 -7.09249 0
M  V30 2077 N 186.241 1.57166 -0.116904 0
M  V30 2078 C 187.171 2.18222 0.830759 0
M  V30 2079 C 188.152 1.12167 1.27877 0
M  V30 2080 O 189.337 1.40394 1.34176 0
M  V30 2081 C 186.467 2.77996 2.08172 0
M  V30 2082 C 185.421 3.89614 1.77157 0
M  V30 2083 C 184.747 4.36187 3.09265 0
M  V30 2084 C 186.047 5.1181 1.04151 0
M  V30 2085 H 187.741 2.97664 0.321992 0
M  V30 2086 H 185.287 1.4318 0.153434 0
M  V30 2087 H 187.24 3.19366 2.74924 0
M  V30 2088 H 185.964 1.9584 2.6137 0
M  V30 2089 H 184.623 3.48816 1.12796 0
M  V30 2090 H 184.271 3.50893 3.60393 0
M  V30 2091 H 183.971 5.11455 2.89288 0
M  V30 2092 H 185.495 4.80207 3.77139 0
M  V30 2093 H 186.909 5.50214 1.61052 0
M  V30 2094 H 185.306 5.92648 0.942762 0
M  V30 2095 H 186.376 4.84892 0.0279022 0
M  V30 2096 N 187.719 -0.156864 1.56817 0
M  V30 2097 C 188.629 -1.2136 2.00771 0
M  V30 2098 C 189.645 -1.47598 0.921459 0
M  V30 2099 O 190.821 -1.59462 1.2302 0
M  V30 2100 C 187.886 -2.52943 2.37109 0
M  V30 2101 C 186.947 -2.34439 3.59634 0
M  V30 2102 C 186.18 -3.59748 3.94229 0
M  V30 2103 O 186.403 -4.65526 3.29609 0
M  V30 2104 O 185.337 -3.52998 4.8752 0
M  V30 2105 H 189.163 -0.870468 2.90958 0
M  V30 2106 H 186.748 -0.36484 1.44877 0
M  V30 2107 H 188.63 -3.30538 2.61386 0
M  V30 2108 H 187.305 -2.86806 1.5008 0
M  V30 2109 H 186.212 -1.54828 3.40557 0
M  V30 2110 H 187.545 -2.05496 4.4725 0
M  V30 2111 N 189.197 -1.51736 -0.425897 0
M  V30 2112 C 190.144 -1.73875 -1.51776 0
M  V30 2113 C 191.114 -0.580702 -1.55618 0
M  V30 2114 O 192.299 -0.81641 -1.72451 0
M  V30 2115 C 189.439 -1.88012 -2.89388 0
M  V30 2116 C 188.552 -3.15606 -2.94986 0
M  V30 2117 C 187.687 -3.20271 -4.23793 0
M  V30 2118 C 186.726 -4.42134 -4.23302 0
M  V30 2119 N 185.863 -4.44284 -5.43651 0
M  V30 2120 H 190.703 -2.67071 -1.32201 0
M  V30 2121 H 188.24 -1.32351 -0.642008 0
M  V30 2122 H 190.198 -1.9419 -3.69251 0
M  V30 2123 H 188.828 -0.98213 -3.07496 0
M  V30 2124 H 187.88 -3.18681 -2.07717 0
M  V30 2125 H 189.192 -4.05486 -2.90486 0
M  V30 2126 H 188.346 -3.25428 -5.12036 0
M  V30 2127 H 187.085 -2.28299 -4.30965 0
M  V30 2128 H 186.09 -4.3714 -3.3345 0
M  V30 2129 H 187.315 -5.35382 -4.17783 0
M  V30 2130 H 185.261 -3.55188 -5.51523 0
M  V30 2131 H 185.178 -5.27988 -5.41078 0
M  V30 2132 H 186.446 -4.53649 -6.33895 0
M  V30 2133 N 190.675 0.682077 -1.42076 0
M  V30 2134 C 191.585 1.82535 -1.47371 0
M  V30 2135 C 192.601 1.7017 -0.363079 0
M  V30 2136 O 193.777 1.91848 -0.612875 0
M  V30 2137 C 190.842 3.18624 -1.36674 0
M  V30 2138 C 189.903 3.42999 -2.58167 0
M  V30 2139 C 189.136 4.72595 -2.4797 0
M  V30 2140 O 189.359 5.50006 -1.5116 0
M  V30 2141 O 188.293 4.98054 -3.37974 0
M  V30 2142 H 192.119 1.81023 -2.43853 0
M  V30 2143 H 189.704 0.836887 -1.2376 0
M  V30 2144 H 191.586 3.99847 -1.33043 0
M  V30 2145 H 190.261 3.20789 -0.433138 0
M  V30 2146 H 189.168 2.61653 -2.67373 0
M  V30 2147 H 190.501 3.45659 -3.50401 0
M  V30 2148 N 192.153 1.28127 0.917671 0
M  V30 2149 C 193.43 1.05761 1.64542 0
M  V30 2150 C 193.81 -0.404344 2.07191 0
M  V30 2151 O 193.158 -1.38963 1.81388 0
M  V30 2152 C 193.368 2.02857 2.83989 0
M  V30 2153 C 194.716 2.32786 3.551 0
M  V30 2154 O 195.74 2.0091 2.94132 0
M  V30 2155 O 194.599 2.87169 4.64969 0
M  V30 2156 H 191.693 0.403916 0.721652 0
M  V30 2157 H 194.239 1.39431 0.967322 0
M  V30 2158 H 193.011 3.01407 2.49538 0
M  V30 2159 H 192.634 1.69809 3.59514 0
M  V30 2160 N 193.631 -1.12557 1.10312 0
M  V30 2161 C 194.878 -1.84038 0.844759 0
M  V30 2162 C 195.206 -1.84026 -0.629668 0
M  V30 2163 O 194.461 -1.28026 -1.48013 0
M  V30 2164 C 194.76 -3.31462 1.33669 0
M  V30 2165 C 194.426 -3.51647 2.82232 0
M  V30 2166 C 193.088 -3.56864 3.22802 0
M  V30 2167 C 195.44 -3.58867 3.77974 0
M  V30 2168 C 192.768 -3.66844 4.57867 0
M  V30 2169 C 195.12 -3.70375 5.1284 0
M  V30 2170 C 193.784 -3.73848 5.52986 0
M  V30 2171 H 193.054 -0.673444 0.309119 0
M  V30 2172 H 195.701 -1.32824 1.37949 0
M  V30 2173 H 194.006 -3.85091 0.721949 0
M  V30 2174 H 195.703 -3.85236 1.11329 0
M  V30 2175 H 192.293 -3.48249 2.49842 0
M  V30 2176 H 196.477 -3.54107 3.47738 0
M  V30 2177 H 191.733 -3.67804 4.88396 0
M  V30 2178 H 195.907 -3.74904 5.86873 0
M  V30 2179 H 193.534 -3.81333 6.57639 0
M  V30 2180 N 195.109 -0.891671 -1.2995 0
M  V30 2181 C 196.337 -0.52866 -2.00032 0
M  V30 2182 C 196.752 0.884574 -1.66795 0
M  V30 2183 O 196.109 1.5827 -0.908669 0
M  V30 2184 C 196.16 -0.701814 -3.54622 0
M  V30 2185 O 195.881 -2.05942 -3.86678 0
M  V30 2186 C 197.382 -0.342683 -4.41973 0
M  V30 2187 H 194.602 -0.203659 -0.639347 0
M  V30 2188 H 197.146 -1.19881 -1.65677 0
M  V30 2189 H 195.301 -0.0789468 -3.8732 0
M  V30 2190 H 195.715 -2.08291 -4.81368 0
M  V30 2191 H 197.189 -0.514709 -5.49595 0
M  V30 2192 H 197.666 0.71975 -4.33262 0
M  V30 2193 H 198.272 -0.942154 -4.14733 0
M  V30 2194 N 196.587 1.43421 -0.653314 0
M  V30 2195 C 198.003 1.56341 -0.320886 0
M  V30 2196 C 198.203 1.63696 1.17499 0
M  V30 2197 O 197.259 1.59208 1.95982 0
M  V30 2198 C 198.572 2.82424 -1.03233 0
M  V30 2199 C 200.12 2.96168 -1.01259 0
M  V30 2200 C 200.595 4.25084 -1.70492 0
M  V30 2201 N 202.086 4.31948 -1.67257 0
M  V30 2202 C 202.821 5.30466 -2.17701 0
M  V30 2203 N 202.317 6.35261 -2.76434 0
M  V30 2204 N 204.11 5.2212 -2.082 0
M  V30 2205 H 196.261 1.3689 -1.62403 0
M  V30 2206 H 198.524 0.657455 -0.682977 0
M  V30 2207 H 198.23 2.83053 -2.08744 0
M  V30 2208 H 198.104 3.72653 -0.583948 0
M  V30 2209 H 200.491 2.9508 0.0341235 0
M  V30 2210 H 200.572 2.07229 -1.49966 0
M  V30 2211 H 200.216 4.26932 -2.7512 0
M  V30 2212 H 200.146 5.1292 -1.19251 0
M  V30 2213 H 202.637 3.56838 -1.24398 0
M  V30 2214 H 202.95 7.06754 -3.12601 0
M  V30 2215 H 201.295 6.35884 -2.80495 0
M  V30 2216 H 204.486 4.39166 -1.62021 0
M  V30 2217 H 204.659 5.98739 -2.47822 0
M  V30 2218 N 198.065 0.39524 1.52563 0
M  V30 2219 C 199.313 -0.184678 2.01254 0
M  V30 2220 C 199.634 -1.46822 1.28329 0
M  V30 2221 O 198.904 -1.91666 0.405094 0
M  V30 2222 H 197.484 -0.0712355 0.743596 0
M  V30 2223 H 200.146 0.528293 1.87603 0
M  V30 2224 H 199.242 -0.390681 3.09645 0
M  V30 2225 N 199.544 -1.57102 0.125237 0
M  V30 2226 C 200.491 -2.15641 -0.822655 0
M  V30 2227 C 201.461 -1.08313 -1.25927 0
M  V30 2228 O 202.646 -1.36251 -1.33567 0
M  V30 2229 C 199.786 -2.76504 -2.06494 0
M  V30 2230 C 198.899 -3.98158 -1.67612 0
M  V30 2231 C 198.034 -4.47088 -2.86854 0
M  V30 2232 C 197.073 -5.6126 -2.44242 0
M  V30 2233 N 196.21 -6.04905 -3.56419 0
M  V30 2234 H 201.05 -2.96313 -0.316625 0
M  V30 2235 H 198.587 -1.46388 -0.144588 0
M  V30 2236 H 200.545 -3.09925 -2.79289 0
M  V30 2237 H 199.175 -1.98512 -2.54545 0
M  V30 2238 H 198.227 -3.70858 -0.846661 0
M  V30 2239 H 199.539 -4.80934 -1.32301 0
M  V30 2240 H 198.693 -4.82451 -3.67867 0
M  V30 2241 H 197.432 -3.63275 -3.25396 0
M  V30 2242 H 196.437 -5.25495 -1.61663 0
M  V30 2243 H 197.662 -6.46843 -2.0681 0
M  V30 2244 H 195.608 -5.24032 -3.94623 0
M  V30 2245 H 195.525 -6.82552 -3.25051 0
M  V30 2246 H 196.793 -6.44907 -4.37853 0
M  V30 2247 N 201.022 0.148545 -1.56898 0
M  V30 2248 C 201.952 1.18524 -2.01182 0
M  V30 2249 C 202.933 1.4489 -0.891123 0
M  V30 2250 O 204.118 1.55836 -1.15882 0
M  V30 2251 C 201.248 2.51879 -2.39112 0
M  V30 2252 C 200.202 2.40038 -3.54353 0
M  V30 2253 C 199.528 3.78089 -3.78091 0
M  V30 2254 C 200.828 1.88577 -4.87069 0
M  V30 2255 H 202.522 0.817029 -2.88036 0
M  V30 2256 H 200.068 0.391575 -1.38574 0
M  V30 2257 H 202.021 3.24627 -2.68692 0
M  V30 2258 H 200.745 2.90532 -1.49193 0
M  V30 2259 H 199.404 1.69742 -3.24936 0
M  V30 2260 H 199.052 4.14175 -2.85426 0
M  V30 2261 H 198.752 3.71028 -4.55645 0
M  V30 2262 H 200.276 4.52387 -4.10095 0
M  V30 2263 H 201.69 2.51117 -5.15377 0
M  V30 2264 H 200.087 1.9241 -5.68417 0
M  V30 2265 H 201.157 0.84136 -4.77545 0
M  V30 2266 N 202.5 1.5196 0.417844 0
M  V30 2267 C 203.433 1.69387 1.52916 0
M  V30 2268 C 204.411 0.541419 1.53321 0
M  V30 2269 O 205.595 0.767695 1.72159 0
M  V30 2270 C 202.722 1.72525 2.91467 0
M  V30 2271 C 201.768 2.93967 3.09008 0
M  V30 2272 S 202.601 4.54461 2.83242 0
M  V30 2273 C 203.757 4.60372 4.24038 0
M  V30 2274 H 203.99 2.63382 1.37903 0
M  V30 2275 H 201.523 1.41889 0.608845 0
M  V30 2276 H 203.481 1.75018 3.7132 0
M  V30 2277 H 202.142 0.796733 3.03827 0
M  V30 2278 H 201.335 2.92619 4.10353 0
M  V30 2279 H 200.937 2.89316 2.37007 0
M  V30 2280 H 203.229 4.37213 5.17544 0
M  V30 2281 H 204.172 5.62273 4.30412 0
M  V30 2282 H 204.58 3.89492 4.08602 0
M  V30 2283 N 203.978 -0.674533 1.42435 0
M  V30 2284 C 205.203 -1.46784 1.46524 0
M  V30 2285 C 205.628 -1.87938 0.078066 0
M  V30 2286 O 204.986 -1.56014 -0.92354 0
M  V30 2287 C 205.034 -2.69307 2.39805 0
M  V30 2288 O 204.138 -3.67587 1.86959 0
M  V30 2289 H 203.479 -0.440959 0.496439 0
M  V30 2290 H 206.009 -0.827326 1.87127 0
M  V30 2291 H 206.019 -3.17374 2.56393 0
M  V30 2292 H 204.694 -2.38692 3.40586 0
M  V30 2293 H 203.271 -3.2662 1.79927 0
M  V30 2294 N 205.456 -1.28612 -0.910864 0
M  V30 2295 C 206.681 -1.1891 -1.69927 0
M  V30 2296 C 207.106 0.248372 -1.86453 0
M  V30 2297 O 206.464 1.17961 -1.37676 0
M  V30 2298 C 206.512 -1.89578 -3.06745 0
M  V30 2299 O 205.616 -1.20521 -3.94396 0
M  V30 2300 H 204.957 -0.412632 -0.520222 0
M  V30 2301 H 207.487 -1.69985 -1.1387 0
M  V30 2302 H 207.497 -1.97597 -3.56958 0
M  V30 2303 H 206.172 -2.94136 -2.94035 0
M  V30 2304 H 204.749 -1.20684 -3.52831 0
M  V30 2305 N 206.934 1.1197 -1.10907 0
M  V30 2306 C 207.864 2.19928 -0.784473 0
M  V30 2307 C 208.845 1.6833 0.244726 0
M  V30 2308 O 210.03 1.93892 0.109418 0
M  V30 2309 C 207.16 3.46597 -0.220827 0
M  V30 2310 C 206.114 4.11376 -1.18127 0
M  V30 2311 C 205.44 5.32554 -0.478594 0
M  V30 2312 C 206.74 4.56945 -2.52979 0
M  V30 2313 H 208.434 2.47337 -1.68715 0
M  V30 2314 H 205.98 1.18879 -0.812642 0
M  V30 2315 H 207.933 4.21396 0.0184278 0
M  V30 2316 H 206.657 3.1863 0.717113 0
M  V30 2317 H 205.316 3.38564 -1.40606 0
M  V30 2318 H 204.964 5.00856 0.463976 0
M  V30 2319 H 204.664 5.76844 -1.11912 0
M  V30 2320 H 206.188 6.10096 -0.248 0
M  V30 2321 H 207.602 5.23093 -2.3462 0
M  V30 2322 H 205.999 5.1203 -3.12962 0
M  V30 2323 H 207.069 3.70676 -3.12614 0
M  V30 2324 N 208.412 0.89855 1.29475 0
M  V30 2325 C 209.362 0.346767 2.25348 0
M  V30 2326 C 210.346 -0.532509 1.51833 0
M  V30 2327 O 211.538 -0.374714 1.72988 0
M  V30 2328 C 208.667 -0.425681 3.40651 0
M  V30 2329 C 207.753 0.46845 4.21505 0
M  V30 2330 N 208.144 1.57514 4.80648 0
M  V30 2331 C 206.442 0.26603 4.45206 0
M  V30 2332 C 207.143 2.12889 5.41344 0
M  V30 2333 N 206.119 1.42208 5.24669 0
M  V30 2334 H 209.921 1.19219 2.68634 0
M  V30 2335 H 207.435 0.749473 1.44072 0
M  V30 2336 H 209.432 -0.837716 4.08397 0
M  V30 2337 H 208.092 -1.26838 2.98902 0
M  V30 2338 H 209.103 1.95789 4.79465 0
M  V30 2339 H 205.78 -0.538394 4.14014 0
M  V30 2340 H 207.17 3.05901 5.98226 0
M  V30 2341 N 209.89 -1.43072 0.660911 0
M  V30 2342 C 210.82 -2.33497 -0.0122829 0
M  V30 2343 C 211.801 -1.49903 -0.803925 0
M  V30 2344 O 212.986 -1.78546 -0.763864 0
M  V30 2345 C 210.116 -3.33363 -0.973994 0
M  V30 2346 C 209.07 -4.27003 -0.291928 0
M  V30 2347 C 208.396 -5.16967 -1.36562 0
M  V30 2348 C 209.696 -5.15816 0.820462 0
M  V30 2349 H 211.39 -2.90038 0.742873 0
M  V30 2350 H 208.936 -1.39461 0.358688 0
M  V30 2351 H 210.889 -3.95524 -1.45392 0
M  V30 2352 H 209.613 -2.75095 -1.7604 0
M  V30 2353 H 208.272 -3.66217 0.167623 0
M  V30 2354 H 207.92 -4.55034 -2.14366 0
M  V30 2355 H 207.62 -5.80441 -0.914454 0
M  V30 2356 H 209.144 -5.82003 -1.84675 0
M  V30 2357 H 210.558 -5.71742 0.422366 0
M  V30 2358 H 208.955 -5.8805 1.19656 0
M  V30 2359 H 210.025 -4.55045 1.67518 0
M  V30 2360 N 211.368 -0.403325 -1.52352 0
M  V30 2361 C 212.315 0.425011 -2.26853 0
M  V30 2362 C 213.285 1.04598 -1.29029 0
M  V30 2363 O 214.47 1.07135 -1.57882 0
M  V30 2364 C 211.61 1.53888 -3.08889 0
M  V30 2365 C 210.723 0.939396 -4.21663 0
M  V30 2366 C 209.858 2.02547 -4.91068 0
M  V30 2367 C 208.897 1.40263 -5.95813 0
M  V30 2368 N 208.034 2.4286 -6.58759 0
M  V30 2369 H 212.874 -0.21674 -2.97211 0
M  V30 2370 H 210.411 -0.118722 -1.4662 0
M  V30 2371 H 212.369 2.19558 -3.54753 0
M  V30 2372 H 210.999 2.15074 -2.40714 0
M  V30 2373 H 210.051 0.171898 -3.80011 0
M  V30 2374 H 211.363 0.44436 -4.96817 0
M  V30 2375 H 210.517 2.75958 -5.40308 0
M  V30 2376 H 209.256 2.55415 -4.15469 0
M  V30 2377 H 208.261 0.653833 -5.45898 0
M  V30 2378 H 209.486 0.881719 -6.73352 0
M  V30 2379 H 207.432 2.94871 -5.85992 0
M  V30 2380 H 207.349 1.98152 -7.2957 0
M  V30 2381 H 208.617 3.15858 -7.12639 0
M  V30 2382 N 212.846 1.57033 -0.133567 0
M  V30 2383 C 214.262 1.58035 0.222944 0
M  V30 2384 C 214.462 1.14713 1.6566 0
M  V30 2385 O 213.518 0.841218 2.38075 0
M  V30 2386 C 214.831 3.00691 -0.0236116 0
M  V30 2387 C 216.379 3.12973 0.0411512 0
M  V30 2388 C 216.854 4.57654 -0.177899 0
M  V30 2389 N 218.345 4.63033 -0.124365 0
M  V30 2390 C 219.08 5.72771 -0.268553 0
M  V30 2391 N 218.576 6.91206 -0.46972 0
M  V30 2392 N 220.369 5.61718 -0.2071 0
M  V30 2393 H 212.52 1.8349 -1.06981 0
M  V30 2394 H 214.783 0.848677 -0.422436 0
M  V30 2395 H 214.489 3.36726 -1.0153 0
M  V30 2396 H 214.363 3.70614 0.701808 0
M  V30 2397 H 216.75 2.76787 1.02338 0
M  V30 2398 H 216.831 2.45564 -0.716383 0
M  V30 2399 H 216.475 4.94542 -1.15717 0
M  V30 2400 H 216.405 5.23173 0.599797 0
M  V30 2401 H 218.896 3.7789 0.027011 0
M  V30 2402 H 219.209 7.70693 -0.570212 0
M  V30 2403 H 217.554 6.93156 -0.505876 0
M  V30 2404 H 220.745 4.68072 -0.0507986 0
M  V30 2405 H 220.918 6.47195 -0.322909 0
M  V30 2406 N 214.325 -0.140222 1.56975 0
M  V30 2407 C 215.555 -0.865181 1.87612 0
M  V30 2408 C 215.963 -1.74942 0.72055 0
M  V30 2409 O 215.306 -1.80917 -0.318561 0
M  V30 2410 C 215.368 -1.76782 3.13031 0
M  V30 2411 C 215.032 -1.06005 4.44536 0
M  V30 2412 C 216.029 -0.410768 5.18275 0
M  V30 2413 C 213.714 -1.04754 4.91255 0
M  V30 2414 C 215.708 0.241572 6.36942 0
M  V30 2415 C 213.395 -0.391394 6.09845 0
M  V30 2416 C 214.393 0.252029 6.82535 0
M  V30 2417 O 214.081 0.897757 7.98871 0
M  V30 2418 H 213.813 -0.255188 0.625983 0
M  V30 2419 H 216.367 -0.135653 2.04952 0
M  V30 2420 H 214.597 -2.53846 2.91718 0
M  V30 2421 H 216.286 -2.36533 3.29859 0
M  V30 2422 H 217.052 -0.412195 4.83245 0
M  V30 2423 H 212.931 -1.53777 4.34596 0
M  V30 2424 H 216.475 0.744375 6.93617 0
M  V30 2425 H 212.372 -0.387656 6.44335 0
M  V30 2426 H 213.14 0.800102 8.1458 0
M  V30 2427 N 215.803 -1.52179 -0.40978 0
M  V30 2428 C 217.033 -1.69807 -1.17682 0
M  V30 2429 C 217.441 -0.406908 -1.84773 0
M  V30 2430 O 216.784 0.626863 -1.72673 0
M  V30 2431 C 216.846 -2.77712 -2.2829 0
M  V30 2432 C 216.51 -4.19481 -1.81341 0
M  V30 2433 C 217.507 -5.03345 -1.30154 0
M  V30 2434 C 215.192 -4.65713 -1.88194 0
M  V30 2435 C 217.186 -6.31511 -0.864416 0
M  V30 2436 C 214.873 -5.93869 -1.44093 0
M  V30 2437 C 215.871 -6.76597 -0.933023 0
M  V30 2438 O 215.559 -8.02354 -0.49838 0
M  V30 2439 H 215.291 -0.572372 -0.359675 0
M  V30 2440 H 217.845 -1.99511 -0.488311 0
M  V30 2441 H 216.075 -2.43383 -3.00502 0
M  V30 2442 H 217.764 -2.83946 -2.90051 0
M  V30 2443 H 218.53 -4.68819 -1.24232 0
M  V30 2444 H 214.409 -4.01424 -2.26671 0
M  V30 2445 H 217.953 -6.96033 -0.467286 0
M  V30 2446 H 213.85 -6.27903 -1.49694 0
M  V30 2447 H 214.618 -8.16135 -0.621747 0
M  V30 2448 N 217.281 0.66697 -1.42791 0
M  V30 2449 C 218.529 1.42417 -1.43394 0
M  V30 2450 C 218.85 1.94925 -0.0542373 0
M  V30 2451 O 218.12 1.73564 0.908415 0
M  V30 2452 H 216.7 0.528515 -0.527902 0
M  V30 2453 H 219.362 0.787562 -1.78279 0
M  V30 2454 H 218.458 2.27333 -2.13837 0
M  V30 2455 N 218.759 1.29093 0.90403 0
M  V30 2456 C 220.175 1.07011 1.1841 0
M  V30 2457 C 220.375 -0.181358 2.00682 0
M  V30 2458 O 219.431 -0.880331 2.36657 0
M  V30 2459 C 220.744 2.32311 1.90924 0
M  V30 2460 C 222.292 2.37587 2.03768 0
M  V30 2461 C 222.767 3.62679 2.79693 0
M  V30 2462 N 224.258 3.63376 2.87249 0
M  V30 2463 C 224.993 4.56848 3.46522 0
M  V30 2464 N 224.489 5.60648 4.06996 0
M  V30 2465 N 226.282 4.44426 3.44154 0
M  V30 2466 H 218.433 2.09412 0.354993 0
M  V30 2467 H 220.696 0.922181 0.219742 0
M  V30 2468 H 220.402 3.23536 1.37905 0
M  V30 2469 H 220.276 2.39483 2.91424 0
M  V30 2470 H 222.663 1.46853 2.55965 0
M  V30 2471 H 222.744 2.34403 1.02415 0
M  V30 2472 H 222.388 4.53762 2.28173 0
M  V30 2473 H 222.318 3.63119 3.81381 0
M  V30 2474 H 224.809 2.88321 2.44293 0
M  V30 2475 H 225.122 6.28101 4.50232 0
M  V30 2476 H 223.467 5.64463 4.05471 0
M  V30 2477 H 226.658 3.62529 2.96126 0
M  V30 2478 H 226.831 5.17457 3.90054 0
M  V30 2479 N 220.237 -1.11381 1.11499 0
M  V30 2480 C 221.486 -1.82494 0.858993 0
M  V30 2481 C 221.799 -1.85605 -0.617278 0
M  V30 2482 O 223.005 -2.52824 -0.989552 0
M  V30 2483 C 221.461 -3.27745 1.48699 0
M  V30 2484 C 221.069 -3.32961 2.99735 0
M  V30 2485 C 222.813 -4.03754 1.31085 0
M  V30 2486 C 220.72 -4.72612 3.55516 0
M  V30 2487 H 219.65 -0.683802 0.317696 0
M  V30 2488 H 222.301 -1.25331 1.34031 0
M  V30 2489 H 220.683 -3.84844 0.933339 0
M  V30 2490 H 221.857 -2.85741 3.61509 0
M  V30 2491 H 220.172 -2.70433 3.16631 0
M  V30 2492 H 222.769 -5.06891 1.70192 0
M  V30 2493 H 223.112 -4.15527 0.253496 0
M  V30 2494 H 223.645 -3.53043 1.83318 0
M  V30 2495 H 220.384 -4.66036 4.60967 0
M  V30 2496 H 219.904 -5.2024 2.98513 0
M  V30 2497 H 221.583 -5.4157 3.53992 0
M  V30 2498 N 221.715 -0.905404 -1.28997 0
M  V30 2499 C 222.645 -0.404212 -2.29975 0
M  V30 2500 C 223.626 0.523784 -1.61835 0
M  V30 2501 O 224.811 0.433298 -1.89304 0
M  V30 2502 C 221.941 0.364042 -3.45387 0
M  V30 2503 C 220.895 -0.474048 -4.25367 0
M  V30 2504 C 220.221 0.422045 -5.33032 0
M  V30 2505 C 221.521 -1.72696 -4.92923 0
M  V30 2506 H 223.215 -1.24807 -2.72146 0
M  V30 2507 H 220.761 -0.601585 -1.30832 0
M  V30 2508 H 222.714 0.725447 -4.15109 0
M  V30 2509 H 221.438 1.24174 -3.02074 0
M  V30 2510 H 220.097 -0.81786 -3.57361 0
M  V30 2511 H 219.745 1.29804 -4.85963 0
M  V30 2512 H 219.445 -0.135057 -5.87445 0
M  V30 2513 H 220.969 0.779517 -6.05604 0
M  V30 2514 H 222.383 -1.43495 -5.55051 0
M  V30 2515 H 220.78 -2.22582 -5.57295 0
M  V30 2516 H 221.85 -2.45964 -4.17887 0
M  V30 2517 N 223.193 1.4272 -0.668489 0
M  V30 2518 C 224.143 2.27971 0.0363806 0
M  V30 2519 C 225.127 1.40741 0.779794 0
M  V30 2520 O 226.319 1.64245 0.659745 0
M  V30 2521 C 223.448 3.28673 0.991398 0
M  V30 2522 C 222.534 4.23388 0.245658 0
M  V30 2523 N 222.925 5.00267 -0.746069 0
M  V30 2524 C 221.223 4.43355 0.484988 0
M  V30 2525 C 221.924 5.69396 -1.19009 0
M  V30 2526 N 220.9 5.41095 -0.521287 0
M  V30 2527 H 224.702 2.84833 -0.724394 0
M  V30 2528 H 222.216 1.54607 -0.497028 0
M  V30 2529 H 224.213 3.88543 1.51129 0
M  V30 2530 H 222.873 2.73373 1.75207 0
M  V30 2531 H 223.884 5.05525 -1.12537 0
M  V30 2532 H 220.561 3.99104 1.22565 0
M  V30 2533 H 221.951 6.41083 -2.01153 0
M  V30 2534 N 224.671 0.411399 1.52136 0
M  V30 2535 C 225.901 -0.16284 2.05957 0
M  V30 2536 C 226.309 -1.3922 1.28119 0
M  V30 2537 O 225.652 -1.80768 0.326881 0
M  V30 2538 C 225.714 -0.575946 3.54856 0
M  V30 2539 C 225.378 0.542998 4.53763 0
M  V30 2540 C 226.375 1.40726 5.00492 0
M  V30 2541 C 224.06 0.716337 4.97166 0
M  V30 2542 C 226.054 2.4298 5.8927 0
M  V30 2543 C 223.741 1.74218 5.8574 0
M  V30 2544 C 224.739 2.59731 6.31687 0
M  V30 2545 O 224.427 3.60558 7.18507 0
M  V30 2546 H 224.159 -0.0229125 0.675612 0
M  V30 2547 H 226.713 0.581634 1.96993 0
M  V30 2548 H 224.943 -1.37274 3.61515 0
M  V30 2549 H 226.632 -1.07836 3.91313 0
M  V30 2550 H 227.398 1.28476 4.67674 0
M  V30 2551 H 223.277 0.0603857 4.6096 0
M  V30 2552 H 226.821 3.0976 6.25055 0
M  V30 2553 H 222.718 1.86498 6.17971 0
M  V30 2554 H 223.486 3.56829 7.36624 0
M  V30 2555 N 226.149 -1.5696 0.141893 0
M  V30 2556 C 227.079 -2.19516 -0.795936 0
M  V30 2557 C 228.06 -1.14187 -1.26077 0
M  V30 2558 O 229.245 -1.42511 -1.31925 0
M  V30 2559 C 226.375 -2.81272 -2.03723 0
M  V30 2560 C 225.329 -3.92384 -1.70936 0
M  V30 2561 C 224.655 -4.41052 -3.02287 0
M  V30 2562 C 225.955 -5.13403 -0.959954 0
M  V30 2563 H 227.649 -2.98138 -0.274596 0
M  V30 2564 H 225.195 -1.43406 -0.130636 0
M  V30 2565 H 227.148 -3.237 -2.69808 0
M  V30 2566 H 225.872 -1.99973 -2.58221 0
M  V30 2567 H 224.531 -3.50566 -1.07232 0
M  V30 2568 H 224.179 -3.56582 -3.54765 0
M  V30 2569 H 223.879 -5.15993 -2.81114 0
M  V30 2570 H 225.403 -4.86146 -3.69451 0
M  V30 2571 H 226.817 -5.52706 -1.52279 0
M  V30 2572 H 225.214 -5.94073 -0.848357 0
M  V30 2573 H 226.284 -4.84875 0.0492434 0
M  V30 2574 N 227.627 0.131896 -1.57047 0
M  V30 2575 C 228.574 1.16236 -1.99393 0
M  V30 2576 C 229.544 1.41863 -0.863943 0
M  V30 2577 O 230.729 1.53946 -1.12718 0
M  V30 2578 C 227.869 2.48708 -2.39245 0
M  V30 2579 C 226.982 2.30127 -3.65603 0
M  V30 2580 C 226.117 3.55738 -3.94492 0
M  V30 2581 C 225.156 3.32259 -5.14073 0
M  V30 2582 N 224.293 4.50039 -5.38896 0
M  V30 2583 H 229.133 0.794251 -2.87221 0
M  V30 2584 H 226.67 0.380707 -1.42088 0
M  V30 2585 H 228.628 3.25969 -2.60384 0
M  V30 2586 H 227.258 2.83437 -1.54478 0
M  V30 2587 H 226.31 1.43845 -3.52154 0
M  V30 2588 H 227.622 2.08746 -4.5302 0
M  V30 2589 H 226.776 4.41423 -4.1621 0
M  V30 2590 H 225.515 3.80138 -3.05526 0
M  V30 2591 H 224.52 2.44963 -4.92212 0
M  V30 2592 H 225.745 3.09242 -6.04604 0
M  V30 2593 H 223.691 4.74584 -4.52886 0
M  V30 2594 H 223.608 4.31716 -6.2061 0
M  V30 2595 H 224.876 5.36895 -5.65123 0
M  V30 2596 N 229.106 1.52395 0.401703 0
M  V30 2597 C 230.069 1.75636 1.47257 0
M  V30 2598 C 231.069 0.62628 1.48103 0
M  V30 2599 O 232.259 0.894227 1.49497 0
M  V30 2600 C 229.391 1.84553 2.86624 0
M  V30 2601 H 230.584 2.71241 1.27938 0
M  V30 2602 H 228.137 1.42923 0.632662 0
M  V30 2603 H 228.872 0.908882 3.11303 0
M  V30 2604 H 228.657 2.66715 2.87412 0
M  V30 2605 H 230.147 2.04251 3.64241 0
M  V30 2606 N 230.584 -0.659388 1.43143 0
M  V30 2607 C 231.531 -1.77249 1.47822 0
M  V30 2608 C 232.501 -1.62818 0.328558 0
M  V30 2609 O 233.686 -1.83151 0.534838 0
M  V30 2610 C 230.826 -3.15371 1.40126 0
M  V30 2611 C 229.939 -3.4098 2.65249 0
M  V30 2612 C 229.074 -4.68915 2.49584 0
M  V30 2613 C 228.113 -4.87608 3.70006 0
M  V30 2614 N 227.25 -6.06796 3.53189 0
M  V30 2615 H 232.09 -1.72584 2.42938 0
M  V30 2616 H 229.627 -0.842297 1.20598 0
M  V30 2617 H 231.585 -3.9521 1.33659 0
M  V30 2618 H 230.215 -3.19121 0.485964 0
M  V30 2619 H 229.267 -2.55282 2.8202 0
M  V30 2620 H 230.579 -3.50681 3.54717 0
M  V30 2621 H 229.733 -5.56871 2.4079 0
M  V30 2622 H 228.472 -4.61524 1.5763 0
M  V30 2623 H 227.477 -3.9809 3.79215 0
M  V30 2624 H 228.702 -4.96834 4.62961 0
M  V30 2625 H 226.648 -6.00549 2.63965 0
M  V30 2626 H 226.565 -6.17428 4.36255 0
M  V30 2627 H 227.833 -6.9739 3.48236 0
M  V30 2628 N 232.062 -1.29571 -0.897171 0
M  V30 2629 C 232.972 -1.16808 -2.03453 0
M  V30 2630 C 233.988 -0.0907471 -1.73763 0
M  V30 2631 O 235.164 -0.303312 -1.99103 0
M  V30 2632 C 232.229 -0.848264 -3.36163 0
M  V30 2633 C 231.29 -2.0097 -3.79354 0
M  V30 2634 C 230.523 -1.70505 -5.05731 0
M  V30 2635 O 230.746 -0.62718 -5.66941 0
M  V30 2636 O 229.68 -2.5538 -5.45036 0
M  V30 2637 H 233.506 -2.12325 -2.17144 0
M  V30 2638 H 231.091 -1.09047 -1.02123 0
M  V30 2639 H 232.973 -0.684581 -4.15802 0
M  V30 2640 H 231.648 0.0771071 -3.23608 0
M  V30 2641 H 230.555 -2.22863 -3.00471 0
M  V30 2642 H 231.888 -2.91636 -3.96496 0
M  V30 2643 N 233.54 1.10788 -1.12088 0
M  V30 2644 C 234.77 1.86191 -0.895351 0
M  V30 2645 C 235.178 1.80763 0.558702 0
M  V30 2646 O 234.521 1.19188 1.39785 0
M  V30 2647 C 234.583 3.35659 -1.28737 0
M  V30 2648 C 234.247 3.64849 -2.75198 0
M  V30 2649 C 235.244 3.61757 -3.734 0
M  V30 2650 C 232.929 3.93641 -3.12013 0
M  V30 2651 C 234.923 3.87045 -5.06434 0
M  V30 2652 C 232.61 4.18585 -4.4523 0
M  V30 2653 C 233.608 4.15277 -5.42249 0
M  V30 2654 O 233.296 4.3959 -6.73065 0
M  V30 2655 H 233.028 0.595425 -0.32007 0
M  V30 2656 H 235.582 1.40992 -1.49367 0
M  V30 2657 H 233.812 3.81497 -0.63224 0
M  V30 2658 H 235.501 3.92441 -1.03656 0
M  V30 2659 H 236.267 3.39557 -3.46303 0
M  V30 2660 H 232.146 3.95348 -2.37109 0
M  V30 2661 H 235.69 3.84378 -5.82151 0
M  V30 2662 H 231.587 4.40264 -4.72057 0
M  V30 2663 H 232.355 4.57123 -6.78956 0
M  V30 2664 N 235.018 0.912232 1.28515 0
M  V30 2665 C 236.243 0.559774 1.99703 0
M  V30 2666 C 236.668 -0.851393 1.67729 0
M  V30 2667 O 236.026 -1.56875 0.908834 0
M  V30 2668 C 236.074 0.773874 3.52198 0
M  V30 2669 O 235.178 -0.167842 4.12058 0
M  V30 2670 H 234.519 0.21723 0.627461 0
M  V30 2671 H 237.049 1.22725 1.63706 0
M  V30 2672 H 237.059 0.683386 4.02236 0
M  V30 2673 H 235.734 1.80261 3.74805 0
M  V30 2674 H 234.311 -0.0287509 3.72889 0
M  V30 2675 N 236.496 -1.42363 0.676048 0
M  V30 2676 C 237.446 -2.27987 -0.0242903 0
M  V30 2677 C 238.43 -1.41153 -0.772319 0
M  V30 2678 O 239.622 -1.64592 -0.651025 0
M  V30 2679 C 236.751 -3.29195 -0.973953 0
M  V30 2680 C 235.837 -4.23512 -0.223202 0
M  V30 2681 N 236.228 -4.99865 0.772589 0
M  V30 2682 C 234.526 -4.43606 -0.461469 0
M  V30 2683 C 235.227 -5.68757 1.22027 0
M  V30 2684 N 234.203 -5.40811 0.549975 0
M  V30 2685 H 238.005 -2.84445 0.73949 0
M  V30 2686 H 235.519 -1.54341 0.50522 0
M  V30 2687 H 237.516 -3.89339 -1.49067 0
M  V30 2688 H 236.176 -2.74298 -1.73755 0
M  V30 2689 H 237.187 -5.04921 1.15217 0
M  V30 2690 H 233.864 -3.99749 -1.20446 0
M  V30 2691 H 235.254 -6.40007 2.0455 0
M  V30 2692 N 237.974 -0.419461 -1.51915 0
M  V30 2693 C 239.214 0.152336 -2.03832 0
M  V30 2694 C 239.578 1.41501 -1.29775 0
M  V30 2695 O 240.779 2.06591 -1.7197 0
M  V30 2696 C 239.05 0.383812 -3.55333 0
M  V30 2697 S 240.609 0.921577 -4.29013 0
M  V30 2698 H 237.427 0.0402193 -0.709862 0
M  V30 2699 H 240.029 -0.574758 -1.8686 0
M  V30 2700 H 238.733 -0.541794 -4.06808 0
M  V30 2701 H 238.264 1.13849 -3.76566 0
M  V30 2702 H 240.279 2.20108 -4.4471 0
M  V30 2703 N 239.452 1.56882 -0.150215 0
M  V30 2704 C 240.415 2.1573 0.774157 0
M  V30 2705 C 241.415 1.0999 1.17298 0
M  V30 2706 O 242.605 1.35613 1.09338 0
M  V30 2707 C 239.737 2.72302 2.05096 0
M  V30 2708 H 240.93 2.98752 0.262201 0
M  V30 2709 H 238.483 1.55985 0.099248 0
M  V30 2710 H 239.218 1.92956 2.6065 0
M  V30 2711 H 239.003 3.49665 1.77416 0
M  V30 2712 H 240.493 3.17632 2.71109 0
M  V30 2713 N 240.93 -0.123565 1.57115 0
M  V30 2714 C 242.176 -0.828428 1.85765 0
M  V30 2715 C 242.531 -1.77709 0.737371 0
M  V30 2716 O 241.824 -1.89787 -0.262978 0
M  V30 2717 C 242.018 -1.62016 3.18568 0
M  V30 2718 C 241.847 -0.749663 4.43407 0
M  V30 2719 C 240.617 -0.406251 5.03664 0
M  V30 2720 C 242.815 -0.0693505 5.14253 0
M  V30 2721 N 240.797 0.475389 6.12057 0
M  V30 2722 C 242.168 0.671474 6.16353 0
M  V30 2723 C 244.223 0.00754393 4.97899 0
M  V30 2724 C 242.926 1.48197 7.03868 0
M  V30 2725 C 244.952 0.804845 5.85898 0
M  V30 2726 C 244.314 1.53388 6.87497 0
M  V30 2727 H 240.413 -0.280219 0.73007 0
M  V30 2728 H 242.997 -0.0924183 1.94481 0
M  V30 2729 H 241.168 -2.32724 3.10957 0
M  V30 2730 H 242.9 -2.27 3.35042 0
M  V30 2731 H 239.655 -0.747446 4.67665 0
M  V30 2732 H 240.079 0.907924 6.70884 0
M  V30 2733 H 244.721 -0.541741 4.19315 0
M  V30 2734 H 242.439 2.04242 7.81864 0
M  V30 2735 H 246.025 0.866642 5.75309 0
M  V30 2736 H 244.905 2.1409 7.5441 0
M  V30 2737 N 242.408 -1.52605 -0.393616 0
M  V30 2738 C 243.636 -1.71294 -1.16043 0
M  V30 2739 C 244.051 -0.429259 -1.83855 0
M  V30 2740 O 243.408 0.595921 -1.72496 0
M  V30 2741 C 243.459 -2.8593 -2.21193 0
M  V30 2742 O 243.18 -4.09329 -1.56146 0
M  V30 2743 C 244.681 -3.16259 -3.10636 0
M  V30 2744 H 241.901 -0.573641 -0.348104 0
M  V30 2745 H 244.445 -1.99234 -0.461092 0
M  V30 2746 H 242.6 -2.60465 -2.86769 0
M  V30 2747 H 243.014 -4.73323 -2.25978 0
M  V30 2748 H 244.488 -3.99946 -3.80456 0
M  V30 2749 H 244.965 -2.3045 -3.73884 0
M  V30 2750 H 245.571 -3.43547 -2.50711 0
M  V30 2751 N 243.887 0.651787 -1.4349 0
M  V30 2752 C 245.136 1.40754 -1.44469 0
M  V30 2753 C 245.449 1.95463 -0.0731845 0
M  V30 2754 O 246.655 2.71471 0.0395721 0
M  V30 2755 C 245.111 2.54735 -2.5424 0
M  V30 2756 C 244.719 2.06628 -3.97504 0
M  V30 2757 C 246.463 3.32092 -2.64414 0
M  V30 2758 C 244.37 3.17829 -4.98737 0
M  V30 2759 H 243.3 0.528862 -0.53742 0
M  V30 2760 H 245.951 0.703365 -1.69485 0
M  V30 2761 H 244.333 3.2763 -2.22428 0
M  V30 2762 H 245.507 1.40734 -4.38783 0
M  V30 2763 H 243.822 1.42146 -3.91387 0
M  V30 2764 H 246.419 4.14952 -3.37223 0
M  V30 2765 H 246.762 3.80217 -1.69532 0
M  V30 2766 H 247.295 2.66279 -2.95534 0
M  V30 2767 H 244.034 2.74671 -5.95177 0
M  V30 2768 H 243.554 3.82429 -4.62069 0
M  V30 2769 H 245.233 3.82937 -5.21505 0
M  V30 2770 N 245.365 1.30045 0.890287 0
M  V30 2771 C 246.611 1.18737 1.64406 0
M  V30 2772 C 246.944 -0.258525 1.92472 0
M  V30 2773 O 246.219 -1.18562 1.54186 0
M  V30 2774 C 246.502 2.01087 2.98724 0
M  V30 2775 C 246.355 3.53867 2.77665 0
M  V30 2776 C 247.674 1.84457 3.9958 0
M  V30 2777 H 244.793 0.432698 0.596608 0
M  V30 2778 H 247.435 1.5962 1.0306 0
M  V30 2779 H 245.585 1.66349 3.51084 0
M  V30 2780 H 247.257 3.98637 2.32133 0
M  V30 2781 H 245.5 3.78318 2.12269 0
M  V30 2782 H 246.171 4.06772 3.7315 0
M  V30 2783 H 248.647 2.14817 3.56361 0
M  V30 2784 H 247.523 2.44411 4.91482 0
M  V30 2785 H 247.784 0.802276 4.3476 0
M  V30 2786 N 246.843 -1.10192 1.12674 0
M  V30 2787 C 248.259 -1.34235 0.863317 0
M  V30 2788 C 248.459 -1.95062 -0.505277 0
M  V30 2789 O 247.515 -2.19192 -1.25345 0
M  V30 2790 C 248.828 -2.2616 1.98172 0
M  V30 2791 C 250.376 -2.3969 2.0129 0
M  V30 2792 C 250.851 -3.34946 3.1237 0
M  V30 2793 N 252.342 -3.42515 3.11829 0
M  V30 2794 C 253.077 -4.16199 3.94419 0
M  V30 2795 N 252.573 -4.92747 4.87004 0
M  V30 2796 N 254.366 -4.11843 3.82547 0
M  V30 2797 H 246.517 -0.690798 2.00853 0
M  V30 2798 H 248.78 -0.366774 0.874174 0
M  V30 2799 H 248.486 -1.8868 2.96804 0
M  V30 2800 H 248.36 -3.26488 1.88906 0
M  V30 2801 H 250.747 -2.76438 1.03276 0
M  V30 2802 H 250.828 -1.39169 2.14629 0
M  V30 2803 H 250.472 -2.98923 4.10619 0
M  V30 2804 H 250.402 -4.35353 2.96269 0
M  V30 2805 H 252.893 -2.87926 2.44759 0
M  V30 2806 H 253.206 -5.46376 5.46528 0
M  V30 2807 H 251.551 -4.91862 4.91016 0
M  V30 2808 H 254.742 -3.51136 3.0955 0
M  V30 2809 H 254.915 -4.69007 4.47142 0
M  V30 2810 N 248.321 -0.919034 -1.28029 0
M  V30 2811 C 249.567 -0.555757 -1.95036 0
M  V30 2812 C 249.9 0.899198 -1.72128 0
M  V30 2813 O 249.175 1.64023 -1.04531 0
M  V30 2814 C 249.458 -0.872024 -3.49382 0
M  V30 2815 C 249.311 -2.3801 -3.81669 0
M  V30 2816 C 250.63 -0.37185 -4.38526 0
M  V30 2817 H 247.749 -0.203386 -0.708381 0
M  V30 2818 H 250.391 -1.14924 -1.51303 0
M  V30 2819 H 248.541 -0.366946 -3.86763 0
M  V30 2820 H 250.213 -2.9562 -3.54128 0
M  V30 2821 H 248.456 -2.83289 -3.28526 0
M  V30 2822 H 249.127 -2.55192 -4.8947 0
M  V30 2823 H 251.603 -0.804602 -4.08247 0
M  V30 2824 H 250.479 -0.622173 -5.45362 0
M  V30 2825 H 250.74 0.727934 -4.36066 0
M  V30 2826 N 249.799 1.42003 -0.683588 0
M  V30 2827 C 250.709 2.34597 -0.0109075 0
M  V30 2828 C 251.725 1.55576 0.779245 0
M  V30 2829 O 252.901 1.88107 0.719555 0
M  V30 2830 C 249.966 3.34199 0.922588 0
M  V30 2831 C 249.027 4.29115 0.125984 0
M  V30 2832 C 248.26 5.23959 1.01502 0
M  V30 2833 O 248.483 5.23952 2.25456 0
M  V30 2834 O 247.417 6.00053 0.47111 0
M  V30 2835 H 251.243 2.93675 -0.773853 0
M  V30 2836 H 248.828 1.42654 -0.443861 0
M  V30 2837 H 250.71 3.95365 1.45823 0
M  V30 2838 H 249.385 2.77582 1.66523 0
M  V30 2839 H 248.292 3.71335 -0.453969 0
M  V30 2840 H 249.625 4.88798 -0.577736 0
M  V30 2841 N 251.277 0.427512 1.51691 0
M  V30 2842 C 252.526 -0.143679 2.01188 0
M  V30 2843 C 252.839 -1.44642 1.31674 0
M  V30 2844 O 254.045 -2.09997 1.72086 0
M  V30 2845 C 252.501 -0.306602 3.58592 0
M  V30 2846 C 252.109 0.985125 4.37035 0
M  V30 2847 C 253.853 -0.832091 4.16265 0
M  V30 2848 C 251.76 0.788382 5.86122 0
M  V30 2849 H 250.69 -0.0574701 0.751807 0
M  V30 2850 H 253.341 0.555772 1.74881 0
M  V30 2851 H 251.723 -1.06882 3.81303 0
M  V30 2852 H 252.897 1.75492 4.26074 0
M  V30 2853 H 251.212 1.4384 3.90767 0
M  V30 2854 H 253.809 -0.995617 5.25349 0
M  V30 2855 H 254.152 -1.81186 3.74803 0
M  V30 2856 H 254.685 -0.128444 3.97593 0
M  V30 2857 H 251.424 1.74025 6.31978 0
M  V30 2858 H 250.944 0.0582143 5.99772 0
M  V30 2859 H 252.623 0.437722 6.45518 0
M  V30 2860 N 252.755 -1.56801 0.158532 0
M  V30 2861 C 253.685 -2.20347 -0.772609 0
M  V30 2862 C 254.666 -1.15518 -1.24859 0
M  V30 2863 O 255.851 -1.43902 -1.30406 0
M  V30 2864 C 252.981 -2.83417 -2.00729 0
M  V30 2865 C 251.935 -3.94174 -1.66765 0
M  V30 2866 C 251.261 -4.44233 -2.97592 0
M  V30 2867 C 252.561 -5.14392 -0.905447 0
M  V30 2868 H 254.255 -2.98413 -0.242959 0
M  V30 2869 H 251.801 -1.43537 -0.115419 0
M  V30 2870 H 253.754 -3.26543 -2.6636 0
M  V30 2871 H 252.478 -2.02701 -2.56086 0
M  V30 2872 H 251.137 -3.51684 -1.03508 0
M  V30 2873 H 250.785 -3.60325 -3.50963 0
M  V30 2874 H 250.485 -5.18945 -2.75626 0
M  V30 2875 H 252.009 -4.90037 -3.64274 0
M  V30 2876 H 253.423 -5.5429 -1.46408 0
M  V30 2877 H 251.82 -5.9494 -0.7853 0
M  V30 2878 H 252.89 -4.84795 0.100668 0
M  V30 2879 N 254.233 0.115231 -1.57178 0
M  V30 2880 C 255.649 0.468877 -1.52557 0
M  V30 2881 C 255.849 1.81649 -0.872125 0
M  V30 2882 O 254.905 2.48347 -0.45606 0
M  V30 2883 C 256.218 0.4499 -2.97315 0
M  V30 2884 C 257.766 0.533185 -3.08425 0
M  V30 2885 C 258.241 0.54456 -4.54751 0
M  V30 2886 N 259.732 0.605892 -4.5922 0
M  V30 2887 C 260.467 0.636203 -5.6986 0
M  V30 2888 N 259.963 0.623931 -6.89985 0
M  V30 2889 N 261.756 0.679496 -5.57978 0
M  V30 2890 H 253.907 -0.767712 -1.9804 0
M  V30 2891 H 256.17 -0.283609 -0.904583 0
M  V30 2892 H 255.876 -0.472721 -3.48509 0
M  V30 2893 H 255.75 1.27632 -3.5495 0
M  V30 2894 H 258.137 1.44623 -2.57232 0
M  V30 2895 H 258.218 -0.320995 -2.53778 0
M  V30 2896 H 257.862 -0.364452 -5.06591 0
M  V30 2897 H 257.792 1.41568 -5.07214 0
M  V30 2898 H 260.283 0.621386 -3.72756 0
M  V30 2899 H 260.596 0.649787 -7.70063 0
M  V30 2900 H 258.941 0.591296 -6.9248 0
M  V30 2901 H 262.132 0.686472 -4.63039 0
M  V30 2902 H 262.305 0.69965 -6.44212 0
M  V30 2903 N 255.711 1.52812 0.385517 0
M  V30 2904 C 256.659 1.78482 1.49155 0
M  V30 2905 C 257.653 0.652914 1.56312 0
M  V30 2906 O 258.859 0.835464 1.59436 0
M  V30 2907 H 255.234 0.5648 0.496493 0
M  V30 2908 H 257.205 2.71095 1.24699 0
M  V30 2909 C 255.954 1.97378 2.86247 0
M  V30 2910 H 255.277 2.83907 2.81491 0
M  V30 2911 H 256.717 2.19327 3.62866 0
M  V30 2912 C 255.176 0.74728 3.28508 0
M  V30 2913 O 255.706 -0.0736232 4.01633 0
M  V30 2914 N 253.912 0.576396 2.84826 0
M  V30 2915 H 253.459 1.24555 2.25486 0
M  V30 2916 H 253.417 -0.24288 3.1346 0
M  V30 2917 N 257.189 -0.644168 1.43834 0
M  V30 2918 C 258.436 -1.40395 1.4593 0
M  V30 2919 C 258.764 -1.94305 0.0869658 0
M  V30 2920 O 258.019 -1.73288 -0.909378 0
M  V30 2921 C 258.318 -2.59615 2.45631 0
M  V30 2922 C 257.984 -2.2407 3.91284 0
M  V30 2923 C 256.646 -2.14089 4.30952 0
M  V30 2924 C 258.998 -1.95775 4.83034 0
M  V30 2925 C 256.326 -1.73981 5.6031 0
M  V30 2926 C 258.678 -1.57163 6.12766 0
M  V30 2927 C 257.342 -1.45713 6.51402 0
M  V30 2928 H 256.612 -0.513741 0.533995 0
M  V30 2929 H 259.259 -0.731724 1.76969 0
M  V30 2930 H 257.564 -3.32011 2.08028 0
M  V30 2931 H 259.261 -3.17834 2.44504 0
M  V30 2932 H 255.851 -2.32753 3.59895 0
M  V30 2933 H 260.035 -2.02403 4.53152 0
M  V30 2934 H 255.291 -1.63709 5.89075 0
M  V30 2935 H 259.465 -1.34303 6.83327 0
M  V30 2936 H 257.092 -1.14406 7.51542 0
M  V30 2937 N 258.668 -1.30515 -0.883378 0
M  V30 2938 C 259.898 -1.22182 -1.66599 0
M  V30 2939 C 260.306 0.217507 -1.87946 0
M  V30 2940 O 259.649 1.1554 -1.42815 0
M  V30 2941 C 259.711 -1.88146 -3.06335 0
M  V30 2942 C 259.375 -3.37476 -3.08154 0
M  V30 2943 C 260.372 -4.33443 -2.87094 0
M  V30 2944 C 258.057 -3.7895 -3.29701 0
M  V30 2945 C 260.051 -5.68858 -2.8754 0
M  V30 2946 C 257.738 -5.14482 -3.29776 0
M  V30 2947 C 258.736 -6.09246 -3.0872 0
M  V30 2948 O 258.424 -7.42302 -3.08615 0
M  V30 2949 H 258.156 -0.423898 -0.52658 0
M  V30 2950 H 260.71 -1.72703 -1.11188 0
M  V30 2951 H 258.94 -1.32157 -3.63416 0
M  V30 2952 H 260.629 -1.7391 -3.66756 0
M  V30 2953 H 261.395 -4.02733 -2.70243 0
M  V30 2954 H 257.274 -3.05631 -3.45124 0
M  V30 2955 H 260.818 -6.428 -2.71024 0
M  V30 2956 H 256.715 -5.44832 -3.46163 0
M  V30 2957 H 257.483 -7.5131 -3.24769 0
M  V30 2958 N 260.146 1.09593 -1.13257 0
M  V30 2959 C 261.393 1.81734 -0.893257 0
M  V30 2960 C 261.721 1.8563 0.580656 0
M  V30 2961 O 260.976 1.31906 1.44566 0
M  V30 2962 C 261.275 3.27802 -1.42411 0
M  V30 2963 C 260.941 3.44041 -2.91456 0
M  V30 2964 C 259.603 3.48181 -3.3215 0
M  V30 2965 C 261.955 3.48719 -3.87356 0
M  V30 2966 C 259.283 3.54575 -4.67433 0
M  V30 2967 C 261.635 3.56648 -5.2248 0
M  V30 2968 C 260.299 3.59055 -5.62704 0
M  V30 2969 H 259.569 0.665011 -0.326866 0
M  V30 2970 H 262.216 1.2912 -1.41422 0
M  V30 2971 H 260.521 3.83042 -0.823795 0
M  V30 2972 H 262.218 3.82149 -1.21503 0
M  V30 2973 H 258.808 3.41502 -2.58987 0
M  V30 2974 H 262.992 3.44763 -3.57004 0
M  V30 2975 H 258.248 3.54725 -4.97976 0
M  V30 2976 H 262.422 3.59212 -5.96607 0
M  V30 2977 H 260.049 3.63763 -6.67518 0
M  V30 2978 N 261.624 0.925811 1.2754 0
M  V30 2979 C 262.873 0.561084 1.93739 0
M  V30 2980 C 263.186 -0.901685 1.73577 0
M  V30 2981 O 264.392 -1.37511 2.34101 0
M  V30 2982 C 262.848 0.952668 3.47062 0
M  V30 2983 C 262.456 2.43599 3.75983 0
M  V30 2984 C 264.2 0.659103 4.19352 0
M  V30 2985 C 262.107 2.76707 5.22673 0
M  V30 2986 H 261.037 0.206122 0.725279 0
M  V30 2987 H 263.688 1.12637 1.44863 0
M  V30 2988 H 262.07 0.316053 3.94737 0
M  V30 2989 H 263.244 3.12035 3.39073 0
M  V30 2990 H 261.559 2.70125 3.16893 0
M  V30 2991 H 264.156 0.882985 5.27359 0
M  V30 2992 H 264.499 -0.403607 4.14339 0
M  V30 2993 H 265.032 1.25473 3.77494 0
M  V30 2994 H 261.771 3.8188 5.32774 0
M  V30 2995 H 261.291 2.12919 5.60737 0
M  V30 2996 H 262.97 2.6435 5.90532 0
M  V30 2997 N 263.102 -1.41638 0.69111 0
M  V30 2998 C 264.05 -2.32597 0.0115199 0
M  V30 2999 C 265.044 -1.5072 -0.773296 0
M  V30 3000 O 266.25 -1.66685 -0.67942 0
M  V30 3001 H 262.625 -0.751849 -0.0150746 0
M  V30 3002 H 264.596 -2.87593 0.795791 0
M  V30 3003 C 263.345 -3.35467 -0.914172 0
M  V30 3004 H 262.668 -3.9852 -0.319687 0
M  V30 3005 H 264.108 -4.01662 -1.35808 0
M  V30 3006 C 262.567 -2.69004 -2.02826 0
M  V30 3007 O 263.097 -2.53444 -3.11655 0
M  V30 3008 N 261.303 -2.2777 -1.80469 0
M  V30 3009 H 260.85 -2.40626 -0.919615 0
M  V30 3010 H 260.808 -1.83635 -2.55197 0
M  V30 3011 N 264.58 -0.43555 -1.51462 0
M  V30 3012 C 265.996 -0.0877501 -1.59359 0
M  V30 3013 C 266.196 1.4027 -1.4466 0
M  V30 3014 O 265.252 2.17243 -1.28693 0
M  V30 3015 C 266.565 -0.606264 -2.94525 0
M  V30 3016 C 268.113 -0.566548 -3.0783 0
M  V30 3017 C 268.588 -1.06201 -4.45517 0
M  V30 3018 N 270.079 -1.01992 -4.51832 0
M  V30 3019 C 270.814 -1.37417 -5.5669 0
M  V30 3020 N 270.31 -1.80119 -6.68976 0
M  V30 3021 N 272.103 -1.29245 -5.47039 0
M  V30 3022 H 264.254 -1.40533 -1.59261 0
M  V30 3023 H 266.517 -0.578992 -0.750648 0
M  V30 3024 H 266.223 -1.64901 -3.10645 0
M  V30 3025 H 266.097 -0.0302097 -3.77188 0
M  V30 3026 H 268.484 0.467208 -2.91378 0
M  V30 3027 H 268.565 -1.17898 -2.2701 0
M  V30 3028 H 268.209 -2.09422 -4.62715 0
M  V30 3029 H 268.139 -0.426127 -5.24873 0
M  V30 3030 H 270.63 -0.706308 -3.71241 0
M  V30 3031 H 270.943 -2.05392 -7.45006 0
M  V30 3032 H 269.288 -1.84044 -6.70189 0
M  V30 3033 H 272.479 -0.957522 -4.58202 0
M  V30 3034 H 272.652 -1.57182 -6.28648 0
M  V30 3035 N 266.058 1.56714 -0.166846 0
M  V30 3036 C 266.988 2.20754 0.760913 0
M  V30 3037 C 267.969 1.16178 1.24244 0
M  V30 3038 O 269.154 1.44592 1.29641 0
M  V30 3039 C 266.284 2.84478 1.99223 0
M  V30 3040 C 265.238 3.95053 1.64672 0
M  V30 3041 C 264.564 4.45805 2.95232 0
M  V30 3042 C 265.864 5.14865 0.878155 0
M  V30 3043 H 267.558 2.98537 0.22713 0
M  V30 3044 H 265.104 1.43596 0.107805 0
M  V30 3045 H 267.057 3.27951 2.64624 0
M  V30 3046 H 265.781 2.04056 2.55007 0
M  V30 3047 H 264.44 3.52228 1.01641 0
M  V30 3048 H 264.088 3.62181 3.49047 0
M  V30 3049 H 263.788 5.204 2.7287 0
M  V30 3050 H 265.312 4.91962 3.6167 0
M  V30 3051 H 266.726 5.55059 1.43466 0
M  V30 3052 H 265.123 5.95348 0.753738 0
M  V30 3053 H 266.193 4.84735 -0.126377 0
M  V30 3054 N 267.536 -0.106894 1.57237 0
M  V30 3055 C 268.764 -0.826389 1.8968 0
M  V30 3056 C 269.179 -1.72856 0.759353 0
M  V30 3057 O 268.536 -1.80503 -0.269263 0
M  V30 3058 C 268.587 -1.64967 3.21665 0
M  V30 3059 O 268.308 -0.783804 4.31031 0
M  V30 3060 C 269.809 -2.47326 3.67892 0
M  V30 3061 H 267.029 -0.236927 0.627779 0
M  V30 3062 H 269.573 -0.0876593 2.04312 0
M  V30 3063 H 267.728 -2.34103 3.08666 0
M  V30 3064 H 268.142 -1.35284 5.06753 0
M  V30 3065 H 269.616 -3.00604 4.6297 0
M  V30 3066 H 270.093 -3.25247 2.95146 0
M  V30 3067 H 270.699 -1.83411 3.83719 0
M  V30 3068 N 269.014 -1.53014 -0.377408 0
M  V30 3069 C 270.262 -1.6829 -1.11906 0
M  V30 3070 C 270.583 -0.431206 -1.90173 0
M  V30 3071 O 269.853 0.554595 -1.87886 0
M  V30 3072 H 268.433 -0.620371 -0.416112 0
M  V30 3073 H 271.095 -1.90167 -0.426893 0
M  V30 3074 H 270.191 -2.53862 -1.8155 0
M  V30 3075 N 270.492 0.636531 -1.44174 0
M  V30 3076 C 271.722 1.42146 -1.49927 0
M  V30 3077 C 272.13 1.88812 -0.121063 0
M  V30 3078 O 271.473 1.61126 0.882267 0
M  V30 3079 C 271.535 2.67883 -2.39748 0
M  V30 3080 C 271.199 2.43048 -3.8701 0
M  V30 3081 C 272.196 2.05216 -4.77684 0
M  V30 3082 C 269.881 2.56856 -4.3166 0
M  V30 3083 C 271.875 1.81512 -6.11009 0
M  V30 3084 C 269.562 2.32766 -5.65034 0
M  V30 3085 C 270.56 1.95152 -6.54526 0
M  V30 3086 O 270.248 1.71326 -7.85431 0
M  V30 3087 H 269.98 0.442567 -0.51099 0
M  V30 3088 H 272.534 0.786158 -1.8976 0
M  V30 3089 H 270.764 3.34032 -1.94832 0
M  V30 3090 H 272.453 3.29874 -2.36513 0
M  V30 3091 H 273.219 1.94111 -4.44462 0
M  V30 3092 H 269.098 2.85104 -3.62266 0
M  V30 3093 H 272.642 1.52077 -6.80822 0
M  V30 3094 H 268.539 2.43479 -5.97819 0
M  V30 3095 H 269.307 1.85616 -7.97176 0
M  V30 3096 N 271.97 1.30982 0.876444 0
M  V30 3097 C 272.9 1.20668 1.99903 0
M  V30 3098 C 273.881 0.095354 1.69833 0
M  V30 3099 O 275.066 0.27885 1.92188 0
M  V30 3100 C 272.196 0.90655 3.3526 0
M  V30 3101 C 271.15 1.97675 3.79617 0
M  V30 3102 C 270.476 1.52943 5.1236 0
M  V30 3103 C 271.776 3.389 3.97422 0
M  V30 3104 H 273.47 2.14586 2.0879 0
M  V30 3105 H 271.016 1.03308 1.00317 0
M  V30 3106 H 272.969 0.821025 4.13324 0
M  V30 3107 H 271.693 -0.0682969 3.26529 0
M  V30 3108 H 270.352 2.05205 3.03787 0
M  V30 3109 H 270 0.54262 5.00065 0
M  V30 3110 H 269.7 2.24532 5.43009 0
M  V30 3111 H 271.224 1.45786 5.92941 0
M  V30 3112 H 272.638 3.34081 4.659 0
M  V30 3113 H 271.035 4.0865 4.3946 0
M  V30 3114 H 272.105 3.80163 3.01006 0
M  V30 3115 N 273.449 -1.08991 1.13837 0
M  V30 3116 C 274.865 -1.33312 0.877506 0
M  V30 3117 C 275.065 -1.95587 -0.48456 0
M  V30 3118 O 274.121 -2.20509 -1.23013 0
M  V30 3119 C 275.434 -2.24045 2.0056 0
M  V30 3120 C 276.982 -2.37542 2.03821 0
M  V30 3121 C 277.457 -3.31614 3.15905 0
M  V30 3122 N 278.948 -3.39189 3.15445 0
M  V30 3123 C 279.683 -4.11992 3.98811 0
M  V30 3124 N 279.179 -4.87553 4.92203 0
M  V30 3125 N 280.972 -4.07762 3.86894 0
M  V30 3126 H 273.123 -0.669456 2.01574 0
M  V30 3127 H 275.386 -0.357482 0.878015 0
M  V30 3128 H 275.092 -1.85521 2.98789 0
M  V30 3129 H 274.966 -3.24466 1.92359 0
M  V30 3130 H 277.353 -2.75327 1.06202 0
M  V30 3131 H 277.434 -1.36884 2.16093 0
M  V30 3132 H 277.078 -2.94551 4.13766 0
M  V30 3133 H 277.008 -4.32186 3.0087 0
M  V30 3134 H 279.499 -2.85314 2.47799 0
M  V30 3135 H 279.812 -5.40549 5.52292 0
M  V30 3136 H 278.157 -4.86627 4.96205 0
M  V30 3137 H 281.348 -3.47833 3.13257 0
M  V30 3138 H 281.521 -4.64238 4.52092 0
M  V30 3139 N 274.927 -0.932562 -1.27047 0
M  V30 3140 C 275.875 -0.42603 -2.28665 0
M  V30 3141 C 276.869 0.49219 -1.62092 0
M  V30 3142 O 278.075 0.371355 -1.76128 0
M  V30 3143 H 274.45 -0.119213 -0.742491 0
M  V30 3144 H 276.421 -1.29579 -2.68797 0
M  V30 3145 C 275.17 0.301426 -3.46391 0
M  V30 3146 H 274.493 -0.39595 -3.97834 0
M  V30 3147 H 275.933 0.6202 -4.1944 0
M  V30 3148 C 274.392 1.51616 -3.00856 0
M  V30 3149 O 274.922 2.61476 -3.04948 0
M  V30 3150 N 273.128 1.36969 -2.56296 0
M  V30 3151 H 272.675 0.475873 -2.53166 0
M  V30 3152 H 272.633 2.18368 -2.26192 0
M  V30 3153 O 276.444 1.38103 -0.83724 0
M  V30 3154 H 277.135 1.88989 -0.424593 0
M  V30 END ATOM
M  V30 BEGIN BOND
M  V30 END BOND
M  V30 END CTAB
M  END
$$$$
