drugbank_target|Q9LCC8 D-Amino acid amidase (DB04029)
 OpenBabel12092120503D

  0  0  0     0  0            999 V3000
M  V30 BEGIN CTAB
M  V30 COUNTS 5543 5615 0 0 0
M  V30 BEGIN ATOM
M  V30 1 H -0.908 1.98254 -0.117106 0
M  V30 2 N 0 1.576 0 0
M  V30 3 C 0.933 2.03868 1.02534 0
M  V30 4 C 1.911 0.928543 1.3348 0
M  V30 5 O 3.095 1.19667 1.45644 0
M  V30 6 C 0.222 2.43627 2.35294 0
M  V30 7 C -0.732 3.65373 2.2001 0
M  V30 8 S 0.101 5.13292 1.52614 0
M  V30 9 C 1.257 5.56322 2.86805 0
M  V30 10 H 1.49 2.90518 0.631377 0
M  V30 11 H -0.977 1.52953 0.210867 0
M  V30 12 H 0.981 2.67203 3.11629 0
M  V30 13 H -0.358 1.57376 2.7183 0
M  V30 14 H -1.165 3.90944 3.18086 0
M  V30 15 H -1.563 3.418 1.51819 0
M  V30 16 H 0.729 5.58782 3.83104 0
M  V30 17 H 1.672 6.56266 2.65933 0
M  V30 18 H 2.08 4.83886 2.90714 0
M  V30 19 N 1.4781 -0.272755 1.55222 0
M  V30 20 C 2.7031 -1.02683 1.80197 0
M  V30 21 C 3.1281 -1.79142 0.573551 0
M  V30 22 O 2.4861 -1.74917 -0.476849 0
M  V30 23 C 2.5341 -1.9609 3.02624 0
M  V30 24 O 1.6381 -3.04863 2.77727 0
M  V30 25 H 0.9791 -0.293557 0.595584 0
M  V30 26 H 3.5091 -0.30159 2.02365 0
M  V30 27 H 3.5191 -2.38039 3.31363 0
M  V30 28 H 2.1941 -1.39851 3.91682 0
M  V30 29 H 0.7711 -2.67228 2.60084 0
M  V30 30 N 2.9562 -1.48159 -0.537278 0
M  V30 31 C 4.2332 -1.46291 -1.29839 0
M  V30 32 C 4.6132 -0.170613 -2.10409 0
M  V30 33 O 3.9612 0.847746 -2.12192 0
M  V30 34 C 4.1712 -2.72055 -2.18603 0
M  V30 35 C 5.5192 -3.20087 -2.7898 0
M  V30 36 O 6.5432 -2.72921 -2.28894 0
M  V30 37 O 5.4022 -4.02138 -3.70064 0
M  V30 38 H 2.4962 -0.583906 -0.585647 0
M  V30 39 H 5.0422 -1.60384 -0.554534 0
M  V30 40 H 3.8142 -3.57628 -1.58801 0
M  V30 41 H 3.4372 -2.60646 -3.00249 0
M  V30 42 N 4.4343 0.785586 -1.36625 0
M  V30 43 C 5.3643 1.91259 -1.33949 0
M  V30 44 C 6.3453 1.68795 -0.210325 0
M  V30 45 O 7.5303 1.89854 -0.408561 0
M  V30 46 C 4.6603 3.28339 -1.13186 0
M  V30 47 C 3.6143 3.65335 -2.22967 0
M  V30 48 C 2.9403 5.00806 -1.87342 0
M  V30 49 C 4.2403 3.7352 -3.65075 0
M  V30 50 H 5.9343 1.93755 -2.28253 0
M  V30 51 H 3.4803 0.930788 -1.09874 0
M  V30 52 H 5.4333 4.06804 -1.09948 0
M  V30 53 H 4.1573 3.2624 -0.153332 0
M  V30 54 H 2.8163 2.89169 -2.25337 0
M  V30 55 H 2.4643 4.95233 -0.880545 0
M  V30 56 H 2.1643 5.26529 -2.60846 0
M  V30 57 H 3.6883 5.81687 -1.85667 0
M  V30 58 H 5.1023 4.42168 -3.64911 0
M  V30 59 H 3.4993 4.10731 -4.37516 0
M  V30 60 H 4.5693 2.74527 -3.99703 0
M  V30 61 N 5.9124 1.20967 1.01018 0
M  V30 62 C 6.8604 0.961223 2.1181 0
M  V30 63 C 7.8544 -0.0897034 1.69162 0
M  V30 64 O 9.0604 0.0612271 1.79896 0
M  V30 65 H 5.4354 0.29355 0.692338 0
M  V30 66 H 7.4064 1.90178 2.29946 0
M  V30 67 C 6.1554 0.536854 3.4353 0
M  V30 68 H 5.4784 1.33713 3.76777 0
M  V30 69 H 6.9184 0.402286 4.22087 0
M  V30 70 C 5.3774 -0.751574 3.2841 0
M  V30 71 O 5.9074 -1.80841 3.58691 0
M  V30 72 N 4.1134 -0.716079 2.81639 0
M  V30 73 H 3.6604 0.144236 2.57196 0
M  V30 74 H 3.6184 -1.57847 2.71904 0
M  V30 75 N 7.3905 -1.2043 1.01659 0
M  V30 76 C 8.3385 -2.25249 0.580143 0
M  V30 77 C 9.3325 -1.65057 -0.381115 0
M  V30 78 O 10.5385 -1.78241 -0.251039 0
M  V30 79 H 6.9135 -0.732695 0.169299 0
M  V30 80 H 8.8845 -2.59389 1.47512 0
M  V30 81 C 7.6335 -3.47638 -0.065788 0
M  V30 82 H 6.9565 -3.94233 0.664874 0
M  V30 83 H 8.3965 -4.2268 -0.334282 0
M  V30 84 C 6.8555 -3.10447 -1.3086 0
M  V30 85 O 7.3855 -3.21981 -2.4019 0
M  V30 86 N 5.5915 -2.64996 -1.1927 0
M  V30 87 H 5.1385 -2.55811 -0.303064 0
M  V30 88 H 5.0965 -2.40482 -2.02523 0
M  V30 89 N 8.8686 -0.792821 -1.36206 0
M  V30 90 C 9.8316 -0.199459 -2.2833 0
M  V30 91 C 10.8316 0.605189 -1.48977 0
M  V30 92 O 12.0216 0.425685 -1.68919 0
M  V30 93 C 9.1536 0.723523 -3.33134 0
M  V30 94 H 10.3466 -1.01181 -2.82316 0
M  V30 95 H 7.8996 -0.562485 -1.45828 0
M  V30 96 H 8.6346 1.56008 -2.84309 0
M  V30 97 H 8.4196 0.148436 -3.91819 0
M  V30 98 H 9.9096 1.13344 -4.01924 0
M  V30 99 N 10.3467 1.47872 -0.545128 0
M  V30 100 C 11.5957 2.01695 -0.0145033 0
M  V30 101 C 11.9087 1.42609 1.33873 0
M  V30 102 O 13.1147 1.88021 1.95858 0
M  V30 103 C 11.5707 3.59892 0.0245068 0
M  V30 104 C 11.1787 4.27966 -1.32475 0
M  V30 105 C 12.9227 4.21507 0.50316 0
M  V30 106 C 10.8297 5.78136 -1.2455 0
M  V30 107 H 9.7597 0.753998 -0.00165172 0
M  V30 108 H 12.4107 1.69985 -0.691175 0
M  V30 109 H 10.7927 3.88509 0.766575 0
M  V30 110 H 11.9667 4.11003 -2.08357 0
M  V30 111 H 10.2817 3.78286 -1.74036 0
M  V30 112 H 12.8787 5.31538 0.580656 0
M  V30 113 H 13.2217 3.87855 1.51243 0
M  V30 114 H 13.7547 3.97376 -0.183681 0
M  V30 115 H 10.4937 6.16388 -2.23039 0
M  V30 116 H 10.0137 5.97469 -0.528282 0
M  V30 117 H 11.6927 6.40099 -0.942488 0
M  V30 118 N 11.8248 0.280983 1.55075 0
M  V30 119 C 12.7568 -0.637268 2.20163 0
M  V30 120 C 13.7698 -1.11298 1.18813 0
M  V30 121 O 14.9588 -1.03388 1.4551 0
M  V30 122 C 12.0588 -1.88199 2.81841 0
M  V30 123 C 11.2318 -1.55211 4.08936 0
M  V30 124 C 10.2908 -2.64991 4.54606 0
M  V30 125 O 9.3168 -2.30929 5.2025 0
M  V30 126 N 10.5188 -3.95161 4.25238 0
M  V30 127 H 13.2838 -0.0801694 2.99593 0
M  V30 128 H 10.8448 0.102329 1.61576 0
M  V30 129 H 12.8368 -2.60948 3.09335 0
M  V30 130 H 11.4068 -2.34799 2.06369 0
M  V30 131 H 10.6268 -0.658185 3.88666 0
M  V30 132 H 11.9148 -1.30681 4.91732 0
M  V30 133 H 11.3128 -4.25653 3.72607 0
M  V30 134 H 9.8698 -4.6427 4.5749 0
M  V30 135 N 13.3029 -1.57598 0.00835791 0
M  V30 136 C 14.5509 -1.90551 -0.6734 0
M  V30 137 C 14.8719 -0.883301 -1.73847 0
M  V30 138 O 14.1419 0.0781442 -1.95744 0
M  V30 139 H 12.7219 -0.703312 -0.251717 0
M  V30 140 H 15.3839 -1.94833 0.0512592 0
M  V30 141 H 14.4799 -2.9056 -1.13935 0
M  V30 142 N 14.781 0.264519 -1.55364 0
M  V30 143 C 16.03 0.992812 -1.75574 0
M  V30 144 C 16.343 1.87142 -0.568979 0
M  V30 145 O 17.549 2.63513 -0.653682 0
M  V30 146 C 16.005 1.81519 -3.10771 0
M  V30 147 C 15.613 0.984839 -4.37041 0
M  V30 148 C 17.357 2.53727 -3.40327 0
M  V30 149 C 15.264 1.80209 -5.63275 0
M  V30 150 H 14.194 0.374412 -0.65447 0
M  V30 151 H 16.845 0.248138 -1.81815 0
M  V30 152 H 15.227 2.60115 -2.98591 0
M  V30 153 H 16.401 0.242455 -4.60162 0
M  V30 154 H 14.716 0.37691 -4.14691 0
M  V30 155 H 17.313 3.15292 -4.3185 0
M  V30 156 H 17.656 3.24447 -2.60845 0
M  V30 157 H 18.189 1.82156 -3.53644 0
M  V30 158 H 14.928 1.13896 -6.45529 0
M  V30 159 H 14.448 2.52022 -5.44284 0
M  V30 160 H 16.127 2.37364 -6.01887 0
M  V30 161 N 16.2591 1.48442 0.529413 0
M  V30 162 C 17.1891 1.65902 1.64313 0
M  V30 163 C 18.1701 0.507897 1.6234 0
M  V30 164 O 19.3551 0.740503 1.79528 0
M  V30 165 C 16.4851 1.69911 3.02898 0
M  V30 166 C 15.4391 2.8453 3.19729 0
M  V30 167 C 14.7651 2.73629 4.59381 0
M  V30 168 C 16.0651 4.25821 3.02447 0
M  V30 169 H 17.7591 2.5914 1.49955 0
M  V30 170 H 15.3051 1.24709 0.719982 0
M  V30 171 H 17.2581 1.80715 3.80684 0
M  V30 172 H 15.9821 0.732524 3.18279 0
M  V30 173 H 14.6411 2.73283 2.44361 0
M  V30 174 H 14.2891 1.74938 4.71599 0
M  V30 175 H 13.9891 3.50541 4.71588 0
M  V30 176 H 15.5131 2.86401 5.39265 0
M  V30 177 H 16.9271 4.37898 3.70024 0
M  V30 178 H 15.3241 5.03735 3.26146 0
M  V30 179 H 16.3941 4.42244 1.98867 0
M  V30 180 N 17.7372 -0.778329 1.37039 0
M  V30 181 C 19.0142 -1.52551 1.22424 0
M  V30 182 C 19.3942 -2.10288 -0.184964 0
M  V30 183 O 18.7422 -1.94953 -1.19187 0
M  V30 184 C 18.9522 -2.61164 2.31504 0
M  V30 185 C 20.3002 -3.28746 2.68721 0
M  V30 186 O 21.3242 -2.71455 2.30631 0
M  V30 187 O 20.1832 -4.3231 3.3432 0
M  V30 188 H 17.2772 -0.675343 0.477326 0
M  V30 189 H 19.8232 -0.815859 1.48801 0
M  V30 190 H 18.5952 -2.16574 3.25901 0
M  V30 191 H 18.2182 -3.39737 2.06554 0
M  V30 192 N 19.2153 -1.21501 -1.00376 0
M  V30 193 C 20.4923 -0.941745 -1.71437 0
M  V30 194 C 20.8723 0.546114 -2.03914 0
M  V30 195 O 20.2203 1.51128 -1.71384 0
M  V30 196 C 20.4303 -1.82812 -2.97289 0
M  V30 197 C 21.7783 -2.07771 -3.70292 0
M  V30 198 O 22.8023 -1.80171 -3.07273 0
M  V30 199 O 21.6613 -2.54456 -4.83647 0
M  V30 200 H 18.7553 -0.353243 -0.747762 0
M  V30 201 H 21.3013 -1.32436 -1.06108 0
M  V30 202 H 20.0733 -2.83501 -2.69709 0
M  V30 203 H 19.6963 -1.4464 -3.70358 0
M  V30 204 N 20.6934 1.19889 -1.02296 0
M  V30 205 C 21.6434 2.20777 -0.56934 0
M  V30 206 C 22.6274 1.56379 0.378741 0
M  V30 207 O 23.8194 1.75859 0.200673 0
M  V30 208 C 20.9484 3.43196 0.0845077 0
M  V30 209 C 20.0344 4.14749 -0.88566 0
M  V30 210 N 20.4254 4.62584 -2.04573 0
M  V30 211 C 18.7234 4.40347 -0.707835 0
M  V30 212 C 19.4244 5.17466 -2.65714 0
M  V30 213 N 18.4004 5.0791 -1.93723 0
M  V30 214 H 22.2024 2.55434 -1.45365 0
M  V30 215 H 19.7164 1.35897 -0.88915 0
M  V30 216 H 21.7134 4.14707 0.427067 0
M  V30 217 H 20.3734 3.10042 0.964574 0
M  V30 218 H 21.3844 4.57597 -2.4254 0
M  V30 219 H 18.0614 4.17317 0.12364 0
M  V30 220 H 19.4514 5.64808 -3.63925 0
M  V30 221 N 22.1715 0.800033 1.35784 0
M  V30 222 C 23.4175 0.377901 1.99248 0
M  V30 223 C 23.7505 -1.05052 1.63333 0
M  V30 224 O 23.0255 -1.72768 0.893385 0
M  V30 225 C 23.3085 0.553922 3.55814 0
M  V30 226 C 23.1615 2.0268 4.01548 0
M  V30 227 C 24.4805 -0.0244802 4.40093 0
M  V30 228 H 21.5995 0.138782 0.723815 0
M  V30 229 H 24.2415 1.00835 1.61035 0
M  V30 230 H 22.3915 0.0172398 3.88496 0
M  V30 231 H 24.0635 2.62536 3.79305 0
M  V30 232 H 22.3065 2.5256 3.52698 0
M  V30 233 H 22.9775 2.10087 5.10458 0
M  V30 234 H 25.4535 0.433775 4.13833 0
M  V30 235 H 24.3295 0.128637 5.48749 0
M  V30 236 H 24.5905 -1.11758 4.27741 0
M  V30 237 N 23.6496 -1.47581 0.552962 0
M  V30 238 C 24.6126 -2.28439 -0.186605 0
M  V30 239 C 25.6126 -1.36706 -0.84665 0
M  V30 240 O 26.8026 -1.59378 -0.703164 0
M  V30 241 C 23.9346 -3.16264 -1.2724 0
M  V30 242 H 25.1276 -2.95294 0.523609 0
M  V30 243 H 22.6806 -1.532 0.309745 0
M  V30 244 H 23.4156 -2.54091 -2.01514 0
M  V30 245 H 23.2006 -3.83769 -0.803968 0
M  V30 246 H 24.6906 -3.77198 -1.79196 0
M  V30 247 N 25.1277 -0.289203 -1.54924 0
M  V30 248 C 26.5437 0.0645403 -1.59469 0
M  V30 249 C 26.7437 1.53419 -1.30632 0
M  V30 250 O 25.7997 2.2852 -1.074 0
M  V30 251 C 27.1127 -0.32278 -2.98963 0
M  V30 252 C 28.6607 -0.270564 -3.11828 0
M  V30 253 C 29.1357 -0.632532 -4.53611 0
M  V30 254 N 30.6267 -0.584617 -4.59496 0
M  V30 255 C 31.3617 -0.837314 -5.67254 0
M  V30 256 N 30.8577 -1.15536 -6.83098 0
M  V30 257 N 32.6507 -0.765166 -5.56868 0
M  V30 258 H 24.8017 -1.24714 -1.71931 0
M  V30 259 H 27.0647 -0.504809 -0.802416 0
M  V30 260 H 26.7707 -1.34541 -3.24948 0
M  V30 261 H 26.6447 0.32944 -3.75759 0
M  V30 262 H 29.0317 0.742805 -2.85598 0
M  V30 263 H 29.1127 -0.957242 -2.37214 0
M  V30 264 H 28.7567 -1.64365 -4.80569 0
M  V30 265 H 28.6867 0.07609 -5.26545 0
M  V30 266 H 31.1777 -0.349248 -3.76283 0
M  V30 267 H 31.4907 -1.33447 -7.61191 0
M  V30 268 H 29.8357 -1.19328 -6.84679 0
M  V30 269 H 33.0267 -0.516432 -4.65243 0
M  V30 270 H 33.1997 -0.965477 -6.40767 0
M  V30 271 N 26.6058 1.57591 -0.0167156 0
M  V30 272 C 27.8538 1.90906 0.663285 0
M  V30 273 C 28.1748 0.892509 1.73376 0
M  V30 274 O 27.4448 -0.0677623 1.95783 0
M  V30 275 H 26.0248 0.704637 0.247983 0
M  V30 276 H 28.6868 1.94803 -0.0615909 0
M  V30 277 H 27.7828 2.9116 1.12393 0
M  V30 278 N 28.0839 -0.256276 1.55502 0
M  V30 279 C 29.3299 -0.987079 1.77157 0
M  V30 280 C 29.6629 -1.85327 0.580315 0
M  V30 281 O 28.9379 -1.89874 -0.421686 0
M  V30 282 C 29.2209 -1.85553 3.08613 0
M  V30 283 C 29.0739 -1.01816 4.38125 0
M  V30 284 C 30.3929 -2.8397 3.36228 0
M  V30 285 H 27.5119 -0.357428 0.644526 0
M  V30 286 H 30.1539 -0.258239 1.88237 0
M  V30 287 H 28.3039 -2.47695 2.99298 0
M  V30 288 H 29.9759 -0.416159 4.59419 0
M  V30 289 H 28.2189 -0.322178 4.32602 0
M  V30 290 H 28.8899 -1.65939 5.26468 0
M  V30 291 H 31.3659 -2.31964 3.45445 0
M  V30 292 H 30.2419 -3.41864 4.29442 0
M  V30 293 H 30.5029 -3.59955 2.56681 0
M  V30 294 N 29.562 -1.4872 -0.521534 0
M  V30 295 C 30.808 -1.574 -1.27879 0
M  V30 296 C 31.141 -0.250817 -1.92573 0
M  V30 297 O 30.416 0.743934 -1.79711 0
M  V30 298 C 30.699 -2.71843 -2.36164 0
M  V30 299 C 30.552 -4.13893 -1.76105 0
M  V30 300 C 31.871 -2.82008 -3.37875 0
M  V30 301 H 28.99 -0.572941 -0.463581 0
M  V30 302 H 31.632 -1.80927 -0.580119 0
M  V30 303 H 29.782 -2.51914 -2.95756 0
M  V30 304 H 31.454 -4.45284 -1.20499 0
M  V30 305 H 29.697 -4.20498 -1.06601 0
M  V30 306 H 30.368 -4.89804 -2.5455 0
M  V30 307 H 32.844 -3.00086 -2.88249 0
M  V30 308 H 31.72 -3.63796 -4.11028 0
M  V30 309 H 31.981 -1.90511 -3.98946 0
M  V30 310 N 31.0401 0.771051 -1.3745 0
M  V30 311 C 32.2881 1.52661 -1.32435 0
M  V30 312 C 32.6091 1.9479 0.0905024 0
M  V30 313 O 31.8791 1.66348 1.03466 0
M  V30 314 H 30.4591 0.566218 -0.487244 0
M  V30 315 H 33.1211 0.917636 -1.71946 0
M  V30 316 H 32.2171 2.42568 -1.96385 0
M  V30 317 N 32.5182 1.22032 0.997298 0
M  V30 318 C 33.7642 1.04376 1.73878 0
M  V30 319 C 34.0972 -0.420716 1.89588 0
M  V30 320 O 33.3722 -1.31202 1.43583 0
M  V30 321 C 33.6552 1.75047 3.14691 0
M  V30 322 C 33.5082 3.29062 3.06656 0
M  V30 323 C 34.8272 1.49928 4.13775 0
M  V30 324 H 31.9462 0.380578 0.631133 0
M  V30 325 H 34.5882 1.50312 1.16217 0
M  V30 326 H 32.7382 1.35996 3.63919 0
M  V30 327 H 34.4102 3.7753 2.65083 0
M  V30 328 H 32.6532 3.58967 2.43568 0
M  V30 329 H 33.3242 3.73683 4.06282 0
M  V30 330 H 35.8002 1.83842 3.73285 0
M  V30 331 H 34.6762 2.01878 5.10428 0
M  V30 332 H 34.9372 0.430929 4.39995 0
M  V30 333 N 33.9963 -1.19345 1.0293 0
M  V30 334 C 35.2213 -1.93538 0.745511 0
M  V30 335 C 35.6463 -1.75007 -0.689511 0
M  V30 336 O 35.0043 -1.05265 -1.47611 0
M  V30 337 C 35.0523 -3.43336 1.10239 0
M  V30 338 O 34.1563 -4.11806 0.221289 0
M  V30 339 H 33.4973 -0.604193 0.275404 0
M  V30 340 H 36.0273 -1.5141 1.37609 0
M  V30 341 H 36.0373 -3.94004 1.05947 0
M  V30 342 H 34.7123 -3.56146 2.14786 0
M  V30 343 H 33.2893 -3.715 0.322842 0
M  V30 344 N 35.4744 -0.807222 -1.35358 0
M  V30 345 C 36.4044 -0.232509 -2.3234 0
M  V30 346 C 37.3854 0.642386 -1.57504 0
M  V30 347 O 38.5704 0.572526 -1.85569 0
M  V30 348 C 35.7004 0.619238 -3.41735 0
M  V30 349 C 34.6544 -0.157215 -4.27711 0
M  V30 350 C 33.9804 0.816273 -5.28433 0
M  V30 351 C 35.2804 -1.35656 -5.04376 0
M  V30 352 H 36.9744 -1.04276 -2.80654 0
M  V30 353 H 34.5204 -0.50288 -1.34934 0
M  V30 354 H 36.4734 1.03137 -4.08584 0
M  V30 355 H 35.1974 1.46239 -2.92031 0
M  V30 356 H 33.8564 -0.550525 -3.62443 0
M  V30 357 H 33.5044 1.65494 -4.74996 0
M  V30 358 H 33.2044 0.301067 -5.86828 0
M  V30 359 H 34.7284 1.22659 -5.98153 0
M  V30 360 H 36.1424 -1.01927 -5.64166 0
M  V30 361 H 34.5394 -1.8063 -5.7227 0
M  V30 362 H 35.6094 -2.14288 -4.34981 0
M  V30 363 N 36.9525 1.47285 -0.560781 0
M  V30 364 C 37.9155 2.28535 0.174488 0
M  V30 365 C 38.9155 1.37153 0.839388 0
M  V30 366 O 40.1055 1.59748 0.694702 0
M  V30 367 C 37.2375 3.16934 1.25561 0
M  V30 368 H 38.4305 2.95012 -0.539262 0
M  V30 369 H 35.9835 1.53034 -0.317865 0
M  V30 370 H 36.7185 2.55157 2.00164 0
M  V30 371 H 36.5035 3.8419 0.783604 0
M  V30 372 H 37.9935 3.78143 1.77193 0
M  V30 373 N 38.4306 0.297415 1.54768 0
M  V30 374 C 39.3606 -0.573494 2.26348 0
M  V30 375 C 40.3416 -1.14085 1.26169 0
M  V30 376 O 41.5266 -1.17086 1.54934 0
M  V30 377 C 38.6566 -1.74716 3.00153 0
M  V30 378 C 37.6106 -1.31032 4.07449 0
M  V30 379 C 36.9366 -2.56887 4.68949 0
M  V30 380 C 38.2366 -0.444183 5.20408 0
M  V30 381 H 39.9306 0.0235131 2.99391 0
M  V30 382 H 37.4766 0.0127488 1.43994 0
M  V30 383 H 39.4296 -2.3625 3.48947 0
M  V30 384 H 38.1536 -2.37035 2.24682 0
M  V30 385 H 36.8126 -0.718066 3.59499 0
M  V30 386 H 36.4606 -3.17512 3.90122 0
M  V30 387 H 36.1606 -2.2836 5.41411 0
M  V30 388 H 37.6846 -3.19229 5.20505 0
M  V30 389 H 39.0986 -0.9651 5.65118 0
M  V30 390 H 37.4956 -0.252846 5.99567 0
M  V30 391 H 38.5656 0.531609 4.81977 0
M  V30 392 N 39.9087 -1.5758 0.0250728 0
M  V30 393 C 41.1487 -1.93497 -0.65865 0
M  V30 394 C 41.5127 -0.901409 -1.69525 0
M  V30 395 O 42.7137 -1.14664 -2.43116 0
M  V30 396 C 40.9847 -3.34352 -1.26267 0
M  V30 397 S 42.5437 -3.92191 -1.96803 0
M  V30 398 H 39.3617 -0.67709 -0.216958 0
M  V30 399 H 41.9637 -1.95303 0.0877692 0
M  V30 400 H 40.6677 -4.07395 -0.495741 0
M  V30 401 H 40.1987 -3.3598 -2.04648 0
M  V30 402 H 42.2137 -3.75298 -3.24601 0
M  V30 403 N 41.3868 0.248026 -1.55636 0
M  V30 404 C 42.3168 1.31079 -1.93237 0
M  V30 405 C 43.2978 1.50264 -0.797174 0
M  V30 406 O 44.4828 1.62891 -1.05737 0
M  V30 407 C 41.6128 2.66575 -2.22609 0
M  V30 408 C 40.5668 2.62087 -3.3837 0
M  V30 409 C 39.8928 4.01369 -3.53281 0
M  V30 410 C 41.1928 2.19171 -4.7409 0
M  V30 411 H 42.8868 0.998556 -2.82257 0
M  V30 412 H 40.4328 0.47891 -1.35803 0
M  V30 413 H 42.3858 3.41057 -2.47503 0
M  V30 414 H 41.1098 2.99432 -1.30414 0
M  V30 415 H 39.7688 1.90063 -3.13483 0
M  V30 416 H 39.4168 4.31489 -2.58508 0
M  V30 417 H 39.1168 3.99254 -4.31127 0
M  V30 418 H 40.6408 4.77552 -3.80495 0
M  V30 419 H 42.0548 2.83384 -4.98363 0
M  V30 420 H 40.4518 2.2817 -5.5503 0
M  V30 421 H 41.5218 1.14336 -4.71227 0
M  V30 422 N 42.8649 1.48995 0.513639 0
M  V30 423 C 44.2759 1.5119 1.09537 0
M  V30 424 C 44.6269 0.290906 1.94031 0
M  V30 425 O 43.7519 -0.60049 2.07902 0
M  V30 426 C 44.3469 2.73964 1.99322 0
M  V30 427 C 42.9059 2.78978 2.52682 0
M  V30 428 C 42.0529 2.44934 1.30009 0
M  V30 429 H 45.0039 1.55875 0.298125 0
M  V30 430 H 45.0249 2.53409 2.83838 0
M  V30 431 H 44.5369 3.62813 1.37799 0
M  V30 432 H 42.6379 1.94378 3.1788 0
M  V30 433 H 42.7509 3.8083 2.90698 0
M  V30 434 H 41.1149 1.9644 1.62122 0
M  V30 435 H 41.8979 3.36043 0.702131 0
M  V30 436 N 44.343 -0.763751 1.37857 0
M  V30 437 C 45.591 -1.51957 1.33243 0
M  V30 438 C 45.912 -1.94835 -0.0801709 0
M  V30 439 O 45.182 -1.66894 -1.02582 0
M  V30 440 H 43.762 -0.563626 0.49024 0
M  V30 441 H 46.424 -0.908504 1.7243 0
M  V30 442 H 45.52 -2.41523 1.97669 0
M  V30 443 N 45.8211 -1.22559 -0.990812 0
M  V30 444 C 46.7311 -1.01394 -2.11557 0
M  V30 445 C 47.7471 0.0383962 -1.73958 0
M  V30 446 O 48.9231 -0.154787 -2.00804 0
M  V30 447 C 45.9881 -0.596569 -3.41529 0
M  V30 448 C 45.0491 -1.72276 -3.93217 0
M  V30 449 C 44.2821 -1.32521 -5.16985 0
M  V30 450 O 44.5051 -0.204909 -5.70032 0
M  V30 451 O 43.4391 -2.14247 -5.62478 0
M  V30 452 H 47.2651 -1.95633 -2.32296 0
M  V30 453 H 44.8501 -1.01172 -1.0993 0
M  V30 454 H 46.7321 -0.374263 -4.19735 0
M  V30 455 H 45.4071 0.316939 -3.22145 0
M  V30 456 H 44.3141 -1.99961 -3.16174 0
M  V30 457 H 45.6471 -2.61421 -4.17037 0
M  V30 458 N 47.2992 1.18797 -1.03562 0
M  V30 459 C 48.2092 2.25913 -0.632505 0
M  V30 460 C 49.2252 1.70668 0.338882 0
M  V30 461 O 50.4012 2.00453 0.195076 0
M  V30 462 C 47.4662 3.467 0.00350942 0
M  V30 463 C 46.5272 4.17098 -1.01624 0
M  V30 464 C 45.7602 5.32119 -0.410478 0
M  V30 465 O 45.9832 5.64976 0.784725 0
M  V30 466 O 44.9172 5.9107 -1.13667 0
M  V30 467 H 48.7432 2.62648 -1.52478 0
M  V30 468 H 46.3282 1.25781 -0.806195 0
M  V30 469 H 48.2102 4.19878 0.35781 0
M  V30 470 H 46.8852 3.11798 0.869686 0
M  V30 471 H 45.7922 3.4601 -1.42224 0
M  V30 472 H 47.1252 4.55987 -1.85301 0
M  V30 473 N 48.7773 0.814389 1.34928 0
M  V30 474 C 50.0053 0.411136 2.02774 0
M  V30 475 C 50.4203 -0.980316 1.61354 0
M  V30 476 O 49.7773 -1.63299 0.814847 0
M  V30 477 C 49.8283 0.493865 3.58111 0
M  V30 478 O 49.5493 1.83047 3.98027 0
M  V30 479 C 51.0503 0.0844174 4.4322 0
M  V30 480 H 48.2703 0.166037 0.650133 0
M  V30 481 H 50.8143 1.10018 1.72384 0
M  V30 482 H 48.9693 -0.147006 3.87121 0
M  V30 483 H 49.3833 1.79872 4.92693 0
M  V30 484 H 50.8573 0.193404 5.51661 0
M  V30 485 H 51.3343 -0.97113 4.28329 0
M  V30 486 H 51.9403 0.69875 4.19521 0
M  V30 487 N 50.2554 -1.46986 0.568584 0
M  V30 488 C 51.4804 -2.07335 0.0520528 0
M  V30 489 C 51.9054 -1.41675 -1.23733 0
M  V30 490 O 51.2634 -0.495623 -1.74394 0
M  V30 491 C 51.3114 -3.60417 -0.11501 0
M  V30 492 O 50.4154 -3.95309 -1.17492 0
M  V30 493 H 49.7564 -0.661597 0.0564385 0
M  V30 494 H 52.2864 -1.88837 0.787507 0
M  V30 495 H 52.2964 -4.06698 -0.325644 0
M  V30 496 H 50.9714 -4.07601 0.826675 0
M  V30 497 H 49.5484 -3.60757 -0.943869 0
M  V30 498 N 51.7335 -0.305618 -1.54608 0
M  V30 499 C 52.6635 0.561482 -2.26649 0
M  V30 500 C 53.6445 1.13415 -1.26772 0
M  V30 501 O 54.8295 1.16262 -1.55553 0
M  V30 502 C 51.9595 1.73122 -3.01075 0
M  V30 503 C 50.9135 1.2887 -4.08138 0
M  V30 504 C 50.2395 2.54396 -4.70305 0
M  V30 505 C 51.5395 0.416578 -5.20636 0
M  V30 506 H 53.2335 -0.0393902 -2.99374 0
M  V30 507 H 50.7795 -0.020385 -1.43986 0
M  V30 508 H 52.7325 2.34396 -3.50195 0
M  V30 509 H 51.4565 2.3584 -2.25936 0
M  V30 510 H 50.1155 0.698991 -3.59875 0
M  V30 511 H 49.7635 3.15439 -3.918 0
M  V30 512 H 49.4635 2.25486 -5.42614 0
M  V30 513 H 50.9875 3.16464 -5.2219 0
M  V30 514 H 52.4015 0.935116 -5.65622 0
M  V30 515 H 50.7985 0.221046 -5.99693 0
M  V30 516 H 51.8685 -0.557162 -4.81688 0
M  V30 517 N 53.2116 1.57565 -0.0334293 0
M  V30 518 C 54.4416 1.95996 0.653398 0
M  V30 519 C 54.8496 0.908749 1.65947 0
M  V30 520 O 54.1926 -0.117471 1.83324 0
M  V30 521 C 54.2546 3.30589 1.41249 0
M  V30 522 C 53.9186 4.53503 0.564263 0
M  V30 523 C 54.9156 5.19647 -0.16225 0
M  V30 524 C 52.6006 4.99801 0.500398 0
M  V30 525 C 54.5946 6.30412 -0.941255 0
M  V30 526 C 52.2816 6.10448 -0.282308 0
M  V30 527 C 53.2796 6.75612 -1.00184 0
M  V30 528 O 52.9676 7.84134 -1.77171 0
M  V30 529 H 52.6996 0.65027 0.184728 0
M  V30 530 H 55.2536 2.05199 -0.0907841 0
M  V30 531 H 53.4836 3.17888 2.20191 0
M  V30 532 H 55.1726 3.53892 1.98784 0
M  V30 533 H 55.9386 4.84846 -0.12227 0
M  V30 534 H 51.8176 4.48883 1.05002 0
M  V30 535 H 55.3616 6.81208 -1.50339 0
M  V30 536 H 51.2586 6.44686 -0.323989 0
M  V30 537 H 52.0266 8.00822 -1.69194 0
M  V30 538 N 54.6897 -0.239769 1.55765 0
M  V30 539 C 55.6217 -1.32001 1.87372 0
M  V30 540 C 56.6347 -1.43944 0.760522 0
M  V30 541 O 57.8237 -1.45167 1.0387 0
M  V30 542 C 54.9237 -2.69779 2.05115 0
M  V30 543 C 54.0967 -2.80014 3.36022 0
M  V30 544 C 53.1557 -3.98684 3.4342 0
M  V30 545 O 52.1817 -3.87877 4.16582 0
M  V30 546 N 53.3837 -5.12176 2.73232 0
M  V30 547 H 56.1487 -1.0522 2.80622 0
M  V30 548 H 53.7097 -0.429857 1.56089 0
M  V30 549 H 55.7017 -3.47517 2.07399 0
M  V30 550 H 54.2717 -2.89237 1.18577 0
M  V30 551 H 53.4917 -1.88896 3.45994 0
M  V30 552 H 54.7797 -2.83808 4.22292 0
M  V30 553 H 54.1777 -5.2385 2.13536 0
M  V30 554 H 52.7347 -5.88022 2.81199 0
M  V30 555 N 56.1678 -1.49265 -0.50573 0
M  V30 556 C 57.3928 -1.62478 -1.28902 0
M  V30 557 C 57.8178 -0.294332 -1.85783 0
M  V30 558 O 57.1758 0.737412 -1.65626 0
M  V30 559 C 57.2238 -2.69268 -2.39848 0
M  V30 560 O 56.3278 -2.28113 -3.43567 0
M  V30 561 H 55.6688 -0.54399 -0.380751 0
M  V30 562 H 58.1988 -1.95421 -0.605952 0
M  V30 563 H 58.2088 -2.91291 -2.85681 0
M  V30 564 H 56.8838 -3.65846 -1.97812 0
M  V30 565 H 55.4608 -2.16401 -3.03685 0
M  V30 566 N 57.6459 0.756429 -1.3826 0
M  V30 567 C 58.8939 1.51248 -1.34047 0
M  V30 568 C 59.2149 1.94875 0.0698372 0
M  V30 569 O 58.4849 1.67436 1.01696 0
M  V30 570 H 57.0649 0.561018 -0.493222 0
M  V30 571 H 59.7269 0.899347 -1.7291 0
M  V30 572 H 58.8229 2.40472 -1.98947 0
M  V30 573 N 59.124 1.23083 0.984299 0
M  V30 574 C 60.354 1.08556 1.75781 0
M  V30 575 C 60.762 -0.366171 1.85623 0
M  V30 576 O 60.105 -1.26524 1.33182 0
M  V30 577 C 60.167 1.63208 3.20318 0
M  V30 578 C 59.831 3.11922 3.33997 0
M  V30 579 C 60.828 4.09259 3.2063 0
M  V30 580 C 58.513 3.51552 3.58771 0
M  V30 581 C 60.507 5.4421 3.31835 0
M  V30 582 C 58.194 4.86649 3.69616 0
M  V30 583 C 59.192 5.82787 3.56157 0
M  V30 584 O 58.88 7.15431 3.66626 0
M  V30 585 H 58.612 0.380713 0.5586 0
M  V30 586 H 61.166 1.63321 1.2456 0
M  V30 587 H 59.396 1.0286 3.72769 0
M  V30 588 H 61.085 1.44216 3.79416 0
M  V30 589 H 61.851 3.79984 3.01392 0
M  V30 590 H 57.73 2.77239 3.6832 0
M  V30 591 H 61.274 6.1923 3.21247 0
M  V30 592 H 57.171 5.15601 3.88363 0
M  V30 593 H 57.939 7.23127 3.83445 0
M  V30 594 N 60.6021 -1.18246 1.0419 0
M  V30 595 C 61.5651 -2.20128 0.638452 0
M  V30 596 C 62.5651 -1.57885 -0.304805 0
M  V30 597 O 63.7551 -1.73967 -0.0900369 0
M  V30 598 C 60.8871 -3.4084 -0.0637751 0
M  V30 599 H 62.0801 -2.57336 1.54007 0
M  V30 600 H 59.6331 -1.32152 0.834598 0
M  V30 601 H 60.3681 -3.09166 -0.979136 0
M  V30 602 H 60.1531 -3.8726 0.614198 0
M  V30 603 H 61.6431 -4.16274 -0.332512 0
M  V30 604 N 62.0802 -0.821533 -1.34494 0
M  V30 605 C 63.3572 -0.33159 -1.92769 0
M  V30 606 C 63.7372 1.18088 -1.74981 0
M  V30 607 O 63.0852 1.98733 -1.12772 0
M  V30 608 C 63.2952 -0.759398 -3.40638 0
M  V30 609 C 64.6432 -0.757433 -4.1779 0
M  V30 610 O 65.6672 -0.70189 -3.49216 0
M  V30 611 O 64.5262 -0.829361 -5.4017 0
M  V30 612 H 61.6202 -0.0902502 -0.822061 0
M  V30 613 H 64.1662 -0.906231 -1.43477 0
M  V30 614 H 62.9382 -1.8012 -3.47379 0
M  V30 615 H 62.5612 -0.160378 -3.97276 0
M  V30 616 N 63.5583 1.46682 -0.576371 0
M  V30 617 C 64.5053 2.30241 0.160499 0
M  V30 618 C 65.4753 1.40233 0.890162 0
M  V30 619 O 66.6603 1.69186 0.882084 0
M  V30 620 C 63.8003 3.24578 1.1723 0
M  V30 621 C 62.9133 4.29684 0.446736 0
M  V30 622 C 62.0483 5.11154 1.44551 0
M  V30 623 C 61.0873 6.08015 0.70599 0
M  V30 624 N 60.2243 6.82376 1.65251 0
M  V30 625 H 65.0643 2.92727 -0.558127 0
M  V30 626 H 62.6013 1.44272 -0.287056 0
M  V30 627 H 64.5593 3.77711 1.77172 0
M  V30 628 H 63.1893 2.63916 1.85872 0
M  V30 629 H 62.2413 3.79458 -0.267594 0
M  V30 630 H 63.5533 4.98626 -0.131686 0
M  V30 631 H 62.7073 5.68533 2.11791 0
M  V30 632 H 61.4463 4.42158 2.05786 0
M  V30 633 H 60.4513 5.49796 0.0197725 0
M  V30 634 H 61.6763 6.79028 0.09912 0
M  V30 635 H 59.6223 6.16094 2.25308 0
M  V30 636 H 59.5393 7.47556 1.12673 0
M  V30 637 H 60.8073 7.44316 2.31546 0
M  V30 638 N 65.0364 0.313813 1.54444 0
M  V30 639 C 66.2834 -0.291675 2.00388 0
M  V30 640 C 66.6114 -1.52904 1.2021 0
M  V30 641 O 65.8664 -1.93833 0.269707 0
M  V30 642 C 66.1654 -0.680386 3.50864 0
M  V30 643 C 65.8314 0.456699 4.48581 0
M  V30 644 C 64.4934 0.768824 4.75018 0
M  V30 645 C 66.8454 1.22098 5.06697 0
M  V30 646 C 64.1734 1.84812 5.56831 0
M  V30 647 C 66.5254 2.29029 5.89685 0
M  V30 648 C 65.1894 2.60834 6.14428 0
M  V30 649 H 64.4594 -0.106732 0.733273 0
M  V30 650 H 67.1064 0.43557 1.86481 0
M  V30 651 H 65.4114 -1.48791 3.62448 0
M  V30 652 H 67.1084 -1.16026 3.83847 0
M  V30 653 H 63.6984 0.203337 4.28117 0
M  V30 654 H 67.8824 0.993096 4.86263 0
M  V30 655 H 63.1384 2.09912 5.74236 0
M  V30 656 H 67.3124 2.887 6.33739 0
M  V30 657 H 64.9394 3.44596 6.77612 0
M  V30 658 N 66.5145 -1.57545 0.0417849 0
M  V30 659 C 67.4625 -2.12148 -0.953723 0
M  V30 660 C 68.4565 -1.05104 -1.32852 0
M  V30 661 O 69.6625 -1.23524 -1.30927 0
M  V30 662 H 66.0375 -0.677957 -0.325389 0
M  V30 663 H 68.0085 -2.94707 -0.467991 0
M  V30 664 C 66.7575 -2.6739 -2.22257 0
M  V30 665 H 66.0805 -3.49413 -1.94295 0
M  V30 666 H 67.5205 -3.09227 -2.90094 0
M  V30 667 C 65.9795 -1.60723 -2.96091 0
M  V30 668 O 66.5095 -1.01449 -3.88679 0
M  V30 669 N 64.7155 -1.32466 -2.58652 0
M  V30 670 H 64.2625 -1.80856 -1.83437 0
M  V30 671 H 64.2205 -0.61325 -3.08361 0
M  V30 672 N 67.9926 0.231505 -1.5589 0
M  V30 673 C 68.9396 1.28682 -1.91598 0
M  V30 674 C 69.9096 1.47071 -0.771974 0
M  V30 675 O 71.0946 1.60802 -1.027 0
M  V30 676 C 68.2346 2.6342 -2.22944 0
M  V30 677 C 67.3476 2.52912 -3.50228 0
M  V30 678 C 66.4826 3.80106 -3.7107 0
M  V30 679 C 65.5216 3.64279 -4.91902 0
M  V30 680 N 64.6586 4.834 -5.09184 0
M  V30 681 H 69.4986 0.975305 -2.81588 0
M  V30 682 H 67.0356 0.470299 -1.39379 0
M  V30 683 H 68.9936 3.41869 -2.39126 0
M  V30 684 H 67.6236 2.92687 -1.36139 0
M  V30 685 H 66.6756 1.6595 -3.42294 0
M  V30 686 H 67.9876 2.37133 -4.38827 0
M  V30 687 H 67.1416 4.66999 -3.87295 0
M  V30 688 H 65.8806 3.98799 -2.80733 0
M  V30 689 H 64.8856 2.7577 -4.75637 0
M  V30 690 H 66.1106 3.47067 -5.83714 0
M  V30 691 H 64.0566 5.02425 -4.21788 0
M  V30 692 H 63.9736 4.70311 -5.91898 0
M  V30 693 H 65.2416 5.71747 -5.29835 0
M  V30 694 N 69.4707 1.49531 0.497807 0
M  V30 695 C 70.4037 1.61043 1.6168 0
M  V30 696 C 71.3817 0.459386 1.55976 0
M  V30 697 O 72.5657 0.675358 1.75986 0
M  V30 698 C 69.6927 1.56833 3.00202 0
M  V30 699 C 68.7387 2.77173 3.24156 0
M  V30 700 S 69.5717 4.38808 3.06933 0
M  V30 701 C 70.7277 4.37248 4.47845 0
M  V30 702 H 70.9607 2.55702 1.51671 0
M  V30 703 H 68.4937 1.38462 0.683201 0
M  V30 704 H 70.4517 1.55089 3.80076 0
M  V30 705 H 69.1127 0.634561 3.07623 0
M  V30 706 H 68.3057 2.70456 4.25288 0
M  V30 707 H 67.9077 2.76346 2.5201 0
M  V30 708 H 70.1997 4.09164 5.39992 0
M  V30 709 H 71.1427 5.38668 4.59612 0
M  V30 710 H 71.5507 3.67286 4.28674 0
M  V30 711 N 70.9488 -0.749086 1.3866 0
M  V30 712 C 72.3598 -1.32664 1.31366 0
M  V30 713 C 72.7108 -1.96179 -0.028484 0
M  V30 714 O 71.8358 -1.9537 -0.93057 0
M  V30 715 C 72.4308 -2.41219 2.37905 0
M  V30 716 C 70.9898 -2.94684 2.34176 0
M  V30 717 C 70.1368 -1.68108 2.20533 0
M  V30 718 H 73.0878 -0.547628 1.48952 0
M  V30 719 H 73.1088 -3.21268 2.0388 0
M  V30 720 H 72.6208 -1.94962 3.35576 0
M  V30 721 H 70.7218 -3.45258 1.401 0
M  V30 722 H 70.8348 -3.48757 3.2849 0
M  V30 723 H 69.1988 -1.91907 1.67463 0
M  V30 724 H 69.9818 -1.23923 3.20153 0
M  V30 725 N 72.4269 -1.23603 -0.977757 0
M  V30 726 C 73.3599 -0.962772 -2.06896 0
M  V30 727 C 74.3379 0.0998743 -1.62293 0
M  V30 728 O 75.5219 -0.0349421 -1.88468 0
M  V30 729 C 72.6489 -0.45095 -3.35685 0
M  V30 730 C 71.6949 -1.50061 -3.99229 0
M  V30 731 S 72.5279 -3.07884 -4.38142 0
M  V30 732 C 73.6839 -2.58378 -5.7008 0
M  V30 733 H 73.9169 -1.88677 -2.29757 0
M  V30 734 H 71.4499 -1.06876 -1.11431 0
M  V30 735 H 73.4079 -0.162261 -4.10179 0
M  V30 736 H 72.0689 0.452179 -3.10828 0
M  V30 737 H 71.2619 -1.09269 -4.92013 0
M  V30 738 H 70.8639 -1.73878 -3.31123 0
M  V30 739 H 73.1559 -2.00563 -6.47133 0
M  V30 740 H 74.0989 -3.49711 -6.15717 0
M  V30 741 H 74.5069 -1.99143 -5.28207 0
M  V30 742 N 73.905 1.17692 -1.04816 0
M  V30 743 C 75.133 1.91786 -0.776254 0
M  V30 744 C 75.548 1.76604 0.667577 0
M  V30 745 O 74.905 1.10067 1.45573 0
M  V30 746 C 74.956 3.42967 -1.14263 0
M  V30 747 O 74.677 3.57678 -2.52978 0
M  V30 748 C 76.178 4.34144 -0.896311 0
M  V30 749 H 73.398 0.608624 -0.282519 0
M  V30 750 H 75.942 1.49268 -1.39783 0
M  V30 751 H 74.097 3.83245 -0.565874 0
M  V30 752 H 74.511 4.51319 -2.67229 0
M  V30 753 H 75.985 5.38744 -1.20244 0
M  V30 754 H 76.462 4.38876 0.168636 0
M  V30 755 H 77.068 3.99574 -1.45672 0
M  V30 756 N 75.3831 0.828654 1.34056 0
M  V30 757 C 76.6311 0.41863 1.97717 0
M  V30 758 C 76.9521 -1.02314 1.66002 0
M  V30 759 O 76.2221 -1.71119 0.953683 0
M  V30 760 H 74.8021 0.151809 0.731412 0
M  V30 761 H 77.4641 1.05936 1.63596 0
M  V30 762 H 76.5601 0.542318 3.07352 0
M  V30 763 N 76.8612 -1.46375 0.584142 0
M  V30 764 C 78.1382 -1.956 0.0033388 0
M  V30 765 C 78.5182 -1.52679 -1.45782 0
M  V30 766 O 77.8662 -0.77816 -2.14842 0
M  V30 767 C 78.0762 -3.48551 0.176891 0
M  V30 768 C 79.4242 -4.24576 0.0454609 0
M  V30 769 O 80.4482 -3.56043 0.105801 0
M  V30 770 O 79.3072 -5.46427 -0.0890376 0
M  V30 771 H 76.4012 -0.825547 -0.0490066 0
M  V30 772 H 78.9472 -1.56652 0.65256 0
M  V30 773 H 77.7192 -3.72683 1.1926 0
M  V30 774 H 77.3422 -3.94332 -0.508695 0
M  V30 775 N 78.3393 -0.321999 -1.54275 0
M  V30 776 C 79.2893 0.560185 -2.21011 0
M  V30 777 C 80.2733 1.08283 -1.19011 0
M  V30 778 O 81.4653 1.02011 -1.44647 0
M  V30 779 C 78.5943 1.72137 -2.97025 0
M  V30 780 C 77.6803 1.21369 -4.06363 0
M  V30 781 N 78.0713 0.425566 -5.04007 0
M  V30 782 C 76.3693 1.49255 -4.20284 0
M  V30 783 C 77.0703 0.152601 -5.815 0
M  V30 784 N 76.0463 0.738294 -5.38563 0
M  V30 785 H 79.8483 -0.049265 -2.93859 0
M  V30 786 H 77.3623 -0.127779 -1.61897 0
M  V30 787 H 79.3593 2.36512 -3.43319 0
M  V30 788 H 78.0193 2.33431 -2.25699 0
M  V30 789 H 79.0303 0.068551 -5.17855 0
M  V30 790 H 75.7073 2.11145 -3.60172 0
M  V30 791 H 77.0973 -0.481764 -6.70171 0
M  V30 792 N 79.8174 1.5752 -0.0501392 0
M  V30 793 C 80.7474 2.14502 0.922566 0
M  V30 794 C 81.7284 1.06642 1.3252 0
M  V30 795 O 82.9134 1.34577 1.4001 0
M  V30 796 C 80.0434 2.68916 2.19776 0
M  V30 797 C 78.9974 3.8175 1.93523 0
M  V30 798 C 78.3234 4.22677 3.27487 0
M  V30 799 C 79.6234 5.06932 1.25765 0
M  V30 800 H 81.3174 2.9603 0.447952 0
M  V30 801 H 78.8634 1.42401 0.214024 0
M  V30 802 H 80.8164 3.07419 2.88222 0
M  V30 803 H 79.5404 1.84578 2.69441 0
M  V30 804 H 78.1994 3.43718 1.27489 0
M  V30 805 H 77.8474 3.35291 3.74952 0
M  V30 806 H 77.5474 4.98725 3.1072 0
M  V30 807 H 79.0714 4.63779 3.97166 0
M  V30 808 H 80.4854 5.42888 1.84244 0
M  V30 809 H 78.8824 5.88116 1.19328 0
M  V30 810 H 79.9524 4.84337 0.233536 0
M  V30 811 N 81.2955 -0.223234 1.56011 0
M  V30 812 C 82.5425 -0.947875 1.78946 0
M  V30 813 C 82.8705 -1.844 0.618608 0
M  V30 814 O 82.1255 -1.91629 -0.397093 0
M  V30 815 C 82.4245 -1.81948 3.0762 0
M  V30 816 C 82.0905 -1.07672 4.37856 0
M  V30 817 C 80.7525 -0.871544 4.73242 0
M  V30 818 C 83.1045 -0.552081 5.18268 0
M  V30 819 C 80.4325 -0.129791 5.86556 0
M  V30 820 C 82.7845 0.17632 6.32354 0
M  V30 821 C 81.4485 0.39277 6.66343 0
M  V30 822 H 80.7185 -0.346852 0.654809 0
M  V30 823 H 83.3655 -0.216171 1.90276 0
M  V30 824 H 81.6705 -2.61899 2.91404 0
M  V30 825 H 83.3675 -2.38227 3.22566 0
M  V30 826 H 79.9575 -1.24662 4.1007 0
M  V30 827 H 84.1415 -0.698076 4.91366 0
M  V30 828 H 79.3975 0.048153 6.11381 0
M  V30 829 H 83.5715 0.590367 6.93893 0
M  V30 830 H 81.1985 0.969466 7.53993 0
M  V30 831 N 82.7736 -1.49793 -0.48987 0
M  V30 832 C 84.1896 -1.36803 -0.822022 0
M  V30 833 C 84.3896 -0.409652 -1.97292 0
M  V30 834 O 83.4456 0.154614 -2.52026 0
M  V30 835 C 84.7586 -2.77768 -1.15175 0
M  V30 836 C 86.3066 -2.86549 -1.25931 0
M  V30 837 C 86.7816 -4.28306 -1.62228 0
M  V30 838 N 88.2726 -4.31169 -1.69256 0
M  V30 839 C 89.0076 -5.37832 -1.98807 0
M  V30 840 N 88.5036 -6.54726 -2.26507 0
M  V30 841 N 90.2966 -5.25258 -2.00152 0
M  V30 842 H 82.4476 -2.10691 0.268881 0
M  V30 843 H 84.7106 -0.946241 0.057728 0
M  V30 844 H 84.4166 -3.49648 -0.379335 0
M  V30 845 H 84.2906 -3.13836 -2.09253 0
M  V30 846 H 86.6776 -2.14899 -2.02243 0
M  V30 847 H 86.7586 -2.54049 -0.298776 0
M  V30 848 H 86.4026 -5.00486 -0.864622 0
M  V30 849 H 86.3326 -4.58279 -2.594 0
M  V30 850 H 88.8236 -3.4687 -1.49965 0
M  V30 851 H 89.1366 -7.31833 -2.48276 0
M  V30 852 H 87.4816 -6.57933 -2.23939 0
M  V30 853 H 90.6726 -4.32938 -1.77996 0
M  V30 854 H 90.8456 -6.08476 -2.22848 0
M  V30 855 N 84.2517 0.741722 -1.39055 0
M  V30 856 C 85.5007 1.49656 -1.35225 0
M  V30 857 C 85.8137 1.95533 0.0512708 0
M  V30 858 O 87.0197 2.7067 0.212138 0
M  V30 859 C 85.4757 2.70389 -2.37525 0
M  V30 860 C 85.0837 2.31489 -3.83558 0
M  V30 861 C 86.8277 3.48236 -2.42759 0
M  V30 862 C 84.7347 3.48903 -4.77515 0
M  V30 863 H 83.6647 0.56197 -0.502699 0
M  V30 864 H 86.3157 0.809727 -1.64668 0
M  V30 865 H 84.6977 3.41113 -2.01142 0
M  V30 866 H 85.8717 1.68354 -4.28945 0
M  V30 867 H 84.1867 1.66749 -3.81554 0
M  V30 868 H 86.7837 4.35558 -3.1015 0
M  V30 869 H 87.1267 3.90229 -1.45008 0
M  V30 870 H 87.6597 2.84535 -2.78002 0
M  V30 871 H 84.3987 3.11966 -5.76504 0
M  V30 872 H 83.9187 4.11041 -4.36813 0
M  V30 873 H 85.5977 4.15328 -4.96096 0
M  V30 874 N 85.7298 1.2412 0.971189 0
M  V30 875 C 86.6928 1.03156 2.04674 0
M  V30 876 C 87.6928 -0.00990322 1.60797 0
M  V30 877 O 88.8828 0.230729 1.72665 0
M  V30 878 C 86.0148 0.562765 3.36223 0
M  V30 879 H 87.2078 1.98614 2.24705 0
M  V30 880 H 84.7608 1.06293 1.14593 0
M  V30 881 H 85.4958 -0.395176 3.21883 0
M  V30 882 H 85.2808 1.31441 3.69413 0
M  V30 883 H 86.7708 0.437015 4.15307 0
M  V30 884 N 87.2079 -1.17134 1.05439 0
M  V30 885 C 88.4329 -1.91913 0.786396 0
M  V30 886 C 88.8579 -1.7643 -0.652234 0
M  V30 887 O 88.2159 -1.08372 -1.45345 0
M  V30 888 C 88.2639 -3.40921 1.17497 0
M  V30 889 O 87.3679 -4.11244 0.308589 0
M  V30 890 H 86.7089 -0.598215 0.288158 0
M  V30 891 H 89.2389 -1.48457 1.4079 0
M  V30 892 H 89.2489 -3.91668 1.14281 0
M  V30 893 H 87.9239 -3.5151 2.22292 0
M  V30 894 H 86.5009 -3.70731 0.40157 0
M  V30 895 N 88.686 -0.835752 -1.33615 0
M  V30 896 C 89.926 -0.43599 -1.99696 0
M  V30 897 C 90.29 0.98557 -1.64774 0
M  V30 898 O 91.491 1.48889 -2.23798 0
M  V30 899 C 89.762 -0.646721 -3.515 0
M  V30 900 S 91.321 -0.341715 -4.37467 0
M  V30 901 H 88.139 -0.164136 -0.691795 0
M  V30 902 H 90.741 -1.08436 -1.62671 0
M  V30 903 H 89.445 -1.68077 -3.74404 0
M  V30 904 H 88.976 0.0159173 -3.93397 0
M  V30 905 H 90.991 0.839708 -4.89043 0
M  V30 906 N 90.1641 1.46063 -0.591896 0
M  V30 907 C 91.3921 2.06717 -0.0868936 0
M  V30 908 C 91.8071 1.43916 1.22203 0
M  V30 909 O 91.1641 0.547698 1.74088 0
M  V30 910 C 91.2151 3.6142 0.0758725 0
M  V30 911 O 90.9361 4.21874 -1.18126 0
M  V30 912 C 92.4371 4.39025 0.61416 0
M  V30 913 H 89.6571 0.668162 -0.0616518 0
M  V30 914 H 92.2011 1.8755 -0.815175 0
M  V30 915 H 90.3561 3.79983 0.754413 0
M  V30 916 H 90.7701 5.14861 -1.00092 0
M  V30 917 H 92.2441 5.4783 0.677193 0
M  V30 918 H 92.7211 4.07708 1.63312 0
M  V30 919 H 93.3271 4.2529 -0.0298142 0
M  V30 920 N 91.6422 0.330177 1.54103 0
M  V30 921 C 92.5892 -0.532762 2.24567 0
M  V30 922 C 93.5592 -1.10635 1.23892 0
M  V30 923 O 94.7442 -1.14546 1.5259 0
M  V30 924 C 91.8842 -1.6845 3.01195 0
M  V30 925 C 90.9972 -1.13951 4.167 0
M  V30 926 C 90.1322 -2.25746 4.80845 0
M  V30 927 C 89.1712 -1.6853 5.88442 0
M  V30 928 N 88.3082 -2.74014 6.46421 0
M  V30 929 H 93.1482 0.0746905 2.97906 0
M  V30 930 H 90.6852 0.048632 1.4702 0
M  V30 931 H 92.6432 -2.36234 3.43874 0
M  V30 932 H 91.2732 -2.26314 2.30178 0
M  V30 933 H 90.3252 -0.35301 3.78758 0
M  V30 934 H 91.6372 -0.680892 4.94131 0
M  V30 935 H 90.7912 -3.01422 5.26526 0
M  V30 936 H 89.5302 -2.74947 4.0281 0
M  V30 937 H 88.5352 -0.913543 5.42157 0
M  V30 938 H 89.7602 -1.20198 6.68378 0
M  V30 939 H 87.7062 -3.22494 5.71256 0
M  V30 940 H 87.6232 -2.32735 7.19285 0
M  V30 941 H 88.8912 -3.49499 6.96757 0
M  V30 942 N 93.1203 -1.57491 0.0584922 0
M  V30 943 C 94.3453 -1.97711 -0.62652 0
M  V30 944 C 94.7703 -0.936132 -1.63151 0
M  V30 945 O 94.1283 0.099811 -1.81025 0
M  V30 946 C 94.1763 -3.36989 -1.28338 0
M  V30 947 O 93.2803 -3.35433 -2.39913 0
M  V30 948 H 92.6213 -0.643868 -0.162266 0
M  V30 949 H 95.1513 -2.04193 0.129064 0
M  V30 950 H 95.1613 -3.73879 -1.63335 0
M  V30 951 H 93.8363 -4.12289 -0.546889 0
M  V30 952 H 92.4133 -3.10298 -2.06809 0
M  V30 953 N 94.5984 0.214957 -1.56127 0
M  V30 954 C 95.8454 0.938372 -1.79446 0
M  V30 955 C 96.1734 1.8407 -0.628378 0
M  V30 956 O 95.4284 1.91837 0.386925 0
M  V30 957 C 95.7274 1.80314 -3.0858 0
M  V30 958 C 95.3934 1.05349 -4.3842 0
M  V30 959 C 94.0554 0.846435 -4.73697 0
M  V30 960 C 96.4074 0.524588 -5.18553 0
M  V30 961 C 93.7354 0.098683 -5.86617 0
M  V30 962 C 96.0874 -0.209853 -6.32252 0
M  V30 963 C 94.7514 -0.428102 -6.66126 0
M  V30 964 H 94.0214 0.343375 -0.656639 0
M  V30 965 H 96.6684 0.206077 -1.90388 0
M  V30 966 H 94.9734 2.6035 -2.92789 0
M  V30 967 H 96.6704 2.36513 -3.23825 0
M  V30 968 H 93.2604 1.22486 -4.10725 0
M  V30 969 H 97.4444 0.672008 -4.91729 0
M  V30 970 H 92.7004 -0.0805753 -6.11347 0
M  V30 971 H 96.8744 -0.627157 -6.9357 0
M  V30 972 H 94.5014 -1.00944 -7.53468 0
M  V30 973 N 96.0765 1.50051 0.48192 0
M  V30 974 C 97.3255 1.59741 1.23149 0
M  V30 975 C 97.6385 0.298163 1.93314 0
M  V30 976 O 98.8445 0.273835 2.70116 0
M  V30 977 C 97.3005 2.81926 2.23708 0
M  V30 978 C 96.9085 4.18685 1.59396 0
M  V30 979 C 98.6525 3.00956 2.99375 0
M  V30 980 C 96.5595 5.3207 2.58178 0
M  V30 981 H 95.4895 0.594838 0.46334 0
M  V30 982 H 98.1405 1.76467 0.503169 0
M  V30 983 H 96.5225 2.58736 2.99786 0
M  V30 984 H 97.6965 4.52088 0.891811 0
M  V30 985 H 96.0115 4.05171 0.960503 0
M  V30 986 H 98.6085 3.82836 3.73283 0
M  V30 987 H 98.9515 2.12258 3.58123 0
M  V30 988 H 99.4845 3.24277 2.30411 0
M  V30 989 H 96.2235 6.22888 2.04184 0
M  V30 990 H 95.7435 5.03098 3.26577 0
M  V30 991 H 97.4225 5.62196 3.20225 0
M  V30 992 N 97.5546 -0.734337 1.39446 0
M  V30 993 C 98.5176 -1.83004 1.37994 0
M  V30 994 C 99.5176 -1.58397 0.276938 0
M  V30 995 O 100.708 -1.65785 0.534875 0
M  V30 996 C 97.8396 -3.20802 1.1532 0
M  V30 997 H 99.0326 -1.85694 2.35494 0
M  V30 998 H 96.5856 -0.938059 1.25021 0
M  V30 999 H 97.3206 -3.23772 0.185036 0
M  V30 1000 H 97.1056 -3.4006 1.95197 0
M  V30 1001 H 98.5956 -4.00862 1.17046 0
M  V30 1002 N 99.0327 -1.24633 -0.964593 0
M  V30 1003 C 100.261 -1.11501 -1.74285 0
M  V30 1004 C 100.676 0.332165 -1.85855 0
M  V30 1005 O 100.033 1.22903 -1.34911 0
M  V30 1006 C 100.084 -1.75258 -3.16175 0
M  V30 1007 O 99.8047 -3.14318 -3.05182 0
M  V30 1008 C 101.306 -1.67776 -4.10324 0
M  V30 1009 H 98.5257 -0.389407 -0.546446 0
M  V30 1010 H 101.07 -1.64801 -1.21083 0
M  V30 1011 H 99.2247 -1.25954 -3.66353 0
M  V30 1012 H 99.6387 -3.4551 -3.94618 0
M  V30 1013 H 101.113 -2.17064 -5.0753 0
M  V30 1014 H 101.59 -0.639584 -4.34518 0
M  V30 1015 H 102.196 -2.16522 -3.66058 0
M  V30 1016 N 100.511 1.16574 -1.06058 0
M  V30 1017 C 101.759 1.86677 -0.77434 0
M  V30 1018 C 102.08 1.81959 0.701147 0
M  V30 1019 O 101.35 1.2515 1.50713 0
M  V30 1020 H 99.9298 0.691134 -0.283449 0
M  V30 1021 H 102.592 1.41378 -1.34158 0
M  V30 1022 H 101.688 2.92181 -1.09711 0
M  V30 1023 N 101.989 0.842826 1.3317 0
M  V30 1024 C 102.919 0.294028 2.31641 0
M  V30 1025 C 103.9 -0.600401 1.59151 0
M  V30 1026 O 105.085 -0.523124 1.87022 0
M  V30 1027 C 102.215 -0.528416 3.43257 0
M  V30 1028 C 101.169 0.27056 4.27144 0
M  V30 1029 C 100.495 -0.675881 5.30411 0
M  V30 1030 C 101.795 1.48981 5.00602 0
M  V30 1031 H 103.489 1.11681 2.77791 0
M  V30 1032 H 101.035 0.538478 1.33553 0
M  V30 1033 H 102.988 -0.922674 4.11175 0
M  V30 1034 H 101.712 -1.38445 2.95805 0
M  V30 1035 H 100.371 0.646427 3.60856 0
M  V30 1036 H 100.019 -1.52842 4.79216 0
M  V30 1037 H 99.7189 -0.145374 5.8742 0
M  V30 1038 H 101.243 -1.06757 6.01195 0
M  V30 1039 H 102.657 1.16849 5.61266 0
M  V30 1040 H 101.054 1.95739 5.6728 0
M  V30 1041 H 102.124 2.25746 4.29147 0
M  V30 1042 N 103.467 -1.45747 0.599634 0
M  V30 1043 C 104.417 -2.27538 -0.145107 0
M  V30 1044 C 105.401 -1.3686 -0.846055 0
M  V30 1045 O 106.593 -1.6091 -0.737357 0
M  V30 1046 C 103.722 -3.23569 -1.14708 0
M  V30 1047 C 102.808 -4.21734 -0.447383 0
M  V30 1048 N 103.199 -5.03257 0.506535 0
M  V30 1049 C 101.497 -4.40536 -0.695966 0
M  V30 1050 C 102.198 -5.74426 0.917068 0
M  V30 1051 N 101.174 -5.42966 0.26253 0
M  V30 1052 H 104.976 -2.87965 0.587672 0
M  V30 1053 H 102.49 -1.56803 0.422697 0
M  V30 1054 H 104.487 -3.8089 -1.69495 0
M  V30 1055 H 103.147 -2.64702 -1.8805 0
M  V30 1056 H 104.158 -5.10319 0.882899 0
M  V30 1057 H 100.835 -3.92802 -1.41467 0
M  V30 1058 H 102.225 -6.4995 1.70338 0
M  V30 1059 N 104.945 -0.338344 -1.53925 0
M  V30 1060 C 105.875 0.51328 -2.27789 0
M  V30 1061 C 106.856 1.107 -1.29149 0
M  V30 1062 O 108.041 1.12937 -1.57984 0
M  V30 1063 C 105.171 1.66697 -3.04679 0
M  V30 1064 C 104.125 1.20183 -4.1078 0
M  V30 1065 C 103.451 2.44363 -4.75595 0
M  V30 1066 C 104.751 0.30605 -5.21403 0
M  V30 1067 H 106.445 -0.102883 -2.99223 0
M  V30 1068 H 103.991 -0.0509219 -1.4391 0
M  V30 1069 H 105.944 2.26915 -3.55088 0
M  V30 1070 H 104.668 2.30995 -2.30887 0
M  V30 1071 H 103.327 0.622499 -3.61276 0
M  V30 1072 H 102.975 3.07057 -3.98403 0
M  V30 1073 H 102.675 2.13925 -5.47275 0
M  V30 1074 H 104.199 3.05317 -5.28786 0
M  V30 1075 H 105.613 0.814929 -5.67478 0
M  V30 1076 H 104.01 0.0937929 -6.00027 0
M  V30 1077 H 105.08 -0.65921 -4.80398 0
M  V30 1078 N 106.423 1.57458 -0.0668435 0
M  V30 1079 C 107.353 2.15468 0.899764 0
M  V30 1080 C 108.334 1.08042 1.31381 0
M  V30 1081 O 109.519 1.36054 1.38574 0
M  V30 1082 C 106.649 2.71232 2.16911 0
M  V30 1083 C 105.603 3.83781 1.89463 0
M  V30 1084 C 104.929 4.26127 3.22986 0
M  V30 1085 C 106.229 5.08238 1.20381 0
M  V30 1086 H 107.923 2.96488 0.416529 0
M  V30 1087 H 105.469 1.4262 0.198908 0
M  V30 1088 H 107.422 3.10458 2.84945 0
M  V30 1089 H 106.146 1.87426 2.67468 0
M  V30 1090 H 104.805 3.45051 1.23836 0
M  V30 1091 H 104.453 3.39249 3.71374 0
M  V30 1092 H 104.153 5.01993 3.05413 0
M  V30 1093 H 105.677 4.67966 3.92225 0
M  V30 1094 H 107.091 5.44811 1.78475 0
M  V30 1095 H 105.488 5.89349 1.13083 0
M  V30 1096 H 106.558 4.84558 0.182153 0
M  V30 1097 N 107.901 -0.206675 1.56239 0
M  V30 1098 C 109.147 -0.930218 1.80208 0
M  V30 1099 C 109.48 -1.83387 0.638981 0
M  V30 1100 O 108.755 -1.91119 -0.361066 0
M  V30 1101 C 109.038 -1.75641 3.1436 0
M  V30 1102 C 108.891 -0.878257 4.41142 0
M  V30 1103 C 110.21 -2.73129 3.45092 0
M  V30 1104 H 107.329 -0.336742 0.655571 0
M  V30 1105 H 109.971 -0.198222 1.88963 0
M  V30 1106 H 108.121 -2.38048 3.07027 0
M  V30 1107 H 109.793 -0.269787 4.6051 0
M  V30 1108 H 108.036 -0.184385 4.33408 0
M  V30 1109 H 108.707 -1.49106 5.3148 0
M  V30 1110 H 111.183 -2.20856 3.52649 0
M  V30 1111 H 110.059 -3.28028 4.40101 0
M  V30 1112 H 110.32 -3.51606 2.68003 0
M  V30 1113 N 109.379 -1.50304 -0.473955 0
M  V30 1114 C 110.311 -1.65109 -1.58971 0
M  V30 1115 C 111.324 -0.532676 -1.53839 0
M  V30 1116 O 112.513 -0.805751 -1.59279 0
M  V30 1117 C 109.613 -1.61684 -2.97845 0
M  V30 1118 C 108.786 -2.8951 -3.27876 0
M  V30 1119 C 107.845 -2.78768 -4.4629 0
M  V30 1120 O 106.871 -3.52722 -4.46739 0
M  V30 1121 N 108.073 -1.9213 -5.47783 0
M  V30 1122 H 110.838 -2.61347 -1.46689 0
M  V30 1123 H 108.399 -1.47732 -0.662324 0
M  V30 1124 H 110.391 -1.52114 -3.75024 0
M  V30 1125 H 108.961 -0.731925 -3.03911 0
M  V30 1126 H 108.181 -3.13228 -2.39336 0
M  V30 1127 H 109.469 -3.74199 -3.4475 0
M  V30 1128 H 108.867 -1.31353 -5.50239 0
M  V30 1129 H 107.424 -1.88466 -6.23958 0
M  V30 1130 N 110.857 0.726932 -1.39834 0
M  V30 1131 C 112.134 1.47902 -1.28001 0
M  V30 1132 C 112.514 2.1083 0.106789 0
M  V30 1133 O 111.862 1.99242 1.11869 0
M  V30 1134 C 112.072 2.52392 -2.41038 0
M  V30 1135 C 113.42 3.18546 -2.80737 0
M  V30 1136 O 114.444 2.62708 -2.40547 0
M  V30 1137 O 113.303 4.19604 -3.50135 0
M  V30 1138 H 110.397 0.657163 -0.502062 0
M  V30 1139 H 112.943 0.760071 -1.51727 0
M  V30 1140 H 111.715 2.04329 -3.33715 0
M  V30 1141 H 111.338 3.31837 -2.19021 0
M  V30 1142 N 112.336 1.25143 0.95797 0
M  V30 1143 C 113.584 1.09476 1.69881 0
M  V30 1144 C 113.905 -0.365502 1.91544 0
M  V30 1145 O 113.175 -1.25985 1.50015 0
M  V30 1146 H 111.755 0.402128 0.629525 0
M  V30 1147 H 114.417 1.57214 1.15194 0
M  V30 1148 H 113.513 1.60046 2.6794 0
M  V30 1149 N 113.814 -1.1601 1.06675 0
M  V30 1150 C 115.042 -1.90527 0.806667 0
M  V30 1151 C 115.457 -1.77643 -0.639396 0
M  V30 1152 O 114.814 -1.12369 -1.43803 0
M  V30 1153 C 114.865 -3.41106 1.19705 0
M  V30 1154 O 114.586 -3.53608 2.58636 0
M  V30 1155 C 116.087 -4.32663 0.965266 0
M  V30 1156 H 113.307 -0.604053 0.292166 0
M  V30 1157 H 115.851 -1.47026 1.4214 0
M  V30 1158 H 114.006 -3.82296 0.626774 0
M  V30 1159 H 114.42 -4.47011 2.74375 0
M  V30 1160 H 115.894 -5.36763 1.288 0
M  V30 1161 H 116.371 -4.39089 -0.0987936 0
M  V30 1162 H 116.977 -3.97206 1.52011 0
M  V30 1163 N 115.292 -0.849877 -1.32721 0
M  V30 1164 C 116.538 -0.451591 -1.97708 0
M  V30 1165 C 116.871 0.989175 -1.6712 0
M  V30 1166 O 116.146 1.69334 -0.956891 0
M  V30 1167 C 116.429 -0.685598 -3.53513 0
M  V30 1168 C 116.282 -2.17444 -3.93749 0
M  V30 1169 C 117.601 -0.138874 -4.39881 0
M  V30 1170 H 114.72 -0.16555 -0.718166 0
M  V30 1171 H 117.362 -1.06742 -1.57182 0
M  V30 1172 H 115.512 -0.161416 -3.88165 0
M  V30 1173 H 117.184 -2.76433 -3.693 0
M  V30 1174 H 115.427 -2.65476 -3.43081 0
M  V30 1175 H 116.098 -2.28888 -5.02309 0
M  V30 1176 H 118.574 -0.587068 -4.11938 0
M  V30 1177 H 117.45 -0.332213 -5.47894 0
M  V30 1178 H 117.711 0.95806 -4.31594 0
M  V30 1179 N 116.77 1.45427 -0.607355 0
M  V30 1180 C 118.047 1.9557 -0.0344566 0
M  V30 1181 C 118.427 1.54979 1.43334 0
M  V30 1182 O 117.775 0.812241 2.13576 0
M  V30 1183 C 117.985 3.48226 -0.232321 0
M  V30 1184 C 119.333 4.2445 -0.113001 0
M  V30 1185 O 120.357 3.55829 -0.162431 0
M  V30 1186 O 119.216 5.465 0.00209442 0
M  V30 1187 H 116.31 0.826222 0.0358667 0
M  V30 1188 H 118.856 1.55594 -0.6774 0
M  V30 1189 H 117.628 3.70739 -1.25174 0
M  V30 1190 H 117.251 3.95092 0.445896 0
M  V30 1191 N 118.248 0.346503 1.53744 0
M  V30 1192 C 119.178 -0.501193 2.28058 0
M  V30 1193 C 120.159 -1.10014 1.29734 0
M  V30 1194 O 121.344 -1.12097 1.58581 0
M  V30 1195 C 118.474 -1.65078 3.05559 0
M  V30 1196 C 117.428 -1.18003 4.11411 0
M  V30 1197 C 116.754 -2.41837 4.76884 0
M  V30 1198 C 118.054 -0.278394 5.21558 0
M  V30 1199 H 119.748 0.11875 2.99164 0
M  V30 1200 H 117.294 0.0585531 1.43881 0
M  V30 1201 H 119.247 -2.25028 3.56287 0
M  V30 1202 H 117.971 -2.29767 2.32109 0
M  V30 1203 H 116.63 -0.603331 3.61601 0
M  V30 1204 H 116.278 -3.0494 4.00026 0
M  V30 1205 H 115.978 -2.1102 5.48402 0
M  V30 1206 H 117.502 -3.02508 5.30397 0
M  V30 1207 H 118.916 -0.784823 5.67903 0
M  V30 1208 H 117.313 -0.0619707 6.00068 0
M  V30 1209 H 118.383 0.684677 4.80042 0
M  V30 1210 N 119.726 -1.57421 0.075193 0
M  V30 1211 C 121.003 -1.85029 -0.634329 0
M  V30 1212 C 121.383 -0.968305 -1.87582 0
M  V30 1213 O 120.731 -0.0354749 -2.28472 0
M  V30 1214 C 120.941 -3.35286 -0.968742 0
M  V30 1215 C 122.289 -4.02875 -1.34077 0
M  V30 1216 O 123.313 -3.40051 -1.06037 0
M  V30 1217 O 122.172 -5.13691 -1.86506 0
M  V30 1218 H 119.266 -0.7645 -0.315387 0
M  V30 1219 H 121.812 -1.69366 0.106382 0
M  V30 1220 H 120.584 -3.91203 -0.0871376 0
M  V30 1221 H 120.207 -3.56223 -1.7661 0
M  V30 1222 N 121.204 0.198386 -1.56346 0
M  V30 1223 C 122.114 1.2664 -1.97483 0
M  V30 1224 C 123.13 1.49989 -0.882002 0
M  V30 1225 O 124.306 1.62668 -1.18748 0
M  V30 1226 C 121.371 2.59141 -2.30319 0
M  V30 1227 C 120.432 2.43892 -3.53292 0
M  V30 1228 C 119.665 3.70074 -3.84553 0
M  V30 1229 O 119.888 4.74101 -3.1715 0
M  V30 1230 O 118.822 3.658 -4.7799 0
M  V30 1231 H 122.648 0.947304 -2.88548 0
M  V30 1232 H 120.233 0.403123 -1.43859 0
M  V30 1233 H 122.115 3.37352 -2.5253 0
M  V30 1234 H 120.79 2.90684 -1.42423 0
M  V30 1235 H 119.697 1.63803 -3.36332 0
M  V30 1236 H 121.03 2.17282 -4.41644 0
M  V30 1237 N 122.682 1.50554 0.465978 0
M  V30 1238 C 124.093 1.54599 1.04671 0
M  V30 1239 C 124.444 0.352488 1.93008 0
M  V30 1240 O 123.569 -0.534044 2.09707 0
M  V30 1241 C 124.164 2.80166 1.90505 0
M  V30 1242 C 122.723 2.86876 2.43678 0
M  V30 1243 C 121.87 2.48947 1.22151 0
M  V30 1244 H 124.821 1.56744 0.248384 0
M  V30 1245 H 124.842 2.62311 2.75633 0
M  V30 1246 H 124.354 3.67013 1.26186 0
M  V30 1247 H 122.455 2.04393 3.11536 0
M  V30 1248 H 122.568 3.89885 2.78436 0
M  V30 1249 H 120.932 2.01498 1.5579 0
M  V30 1250 H 121.715 3.38107 0.594866 0
M  V30 1251 N 124.16 -0.719506 1.40217 0
M  V30 1252 C 125.409 -1.47486 1.37589 0
M  V30 1253 C 125.722 -1.9559 -0.0201568 0
M  V30 1254 O 126.928 -2.70973 -0.169049 0
M  V30 1255 C 125.384 -2.66575 2.41796 0
M  V30 1256 C 124.992 -2.25358 3.87192 0
M  V30 1257 C 126.736 -3.4433 2.48269 0
M  V30 1258 C 124.643 -3.41262 4.83005 0
M  V30 1259 H 123.573 -0.553901 0.511576 0
M  V30 1260 H 126.224 -0.783427 1.65936 0
M  V30 1261 H 124.606 -3.3787 2.06543 0
M  V30 1262 H 125.78 -1.61509 4.31569 0
M  V30 1263 H 124.095 -1.60657 3.84159 0
M  V30 1264 H 126.692 -4.30569 3.17041 0
M  V30 1265 H 127.035 -3.87872 1.51198 0
M  V30 1266 H 127.568 -2.80076 2.82493 0
M  V30 1267 H 124.307 -3.02755 5.81394 0
M  V30 1268 H 123.827 -4.0404 4.43297 0
M  V30 1269 H 125.506 -4.07383 5.02641 0
M  V30 1270 N 125.638 -1.25649 -0.95132 0
M  V30 1271 C 126.866 -1.13343 -1.73092 0
M  V30 1272 C 127.281 0.312434 -1.86197 0
M  V30 1273 O 126.638 1.21465 -1.36207 0
M  V30 1274 C 126.689 -1.78602 -3.14299 0
M  V30 1275 O 126.41 -3.17537 -3.01831 0
M  V30 1276 C 127.911 -1.72119 -4.08522 0
M  V30 1277 H 125.131 -0.395181 -0.542285 0
M  V30 1278 H 127.675 -1.66076 -1.19328 0
M  V30 1279 H 125.83 -1.29832 -3.64996 0
M  V30 1280 H 126.244 -3.49676 -3.90931 0
M  V30 1281 H 127.718 -2.22435 -5.052 0
M  V30 1282 H 128.195 -0.685635 -4.33815 0
M  V30 1283 H 128.801 -2.20393 -3.63741 0
M  V30 1284 N 127.117 1.15442 -1.07289 0
M  V30 1285 C 128.533 1.38201 -0.798288 0
M  V30 1286 C 128.733 1.92429 0.597769 0
M  V30 1287 O 127.789 2.12962 1.3566 0
M  V30 1288 C 129.102 2.35357 -1.87156 0
M  V30 1289 C 130.65 2.49021 -1.89624 0
M  V30 1290 C 131.125 3.49468 -2.96034 0
M  V30 1291 N 132.616 3.57003 -2.95132 0
M  V30 1292 C 133.351 4.34543 -3.74112 0
M  V30 1293 N 132.847 5.15421 -4.6294 0
M  V30 1294 N 134.64 4.29625 -3.62462 0
M  V30 1295 H 126.791 0.78584 -1.97328 0
M  V30 1296 H 129.054 0.408065 -0.855679 0
M  V30 1297 H 128.76 2.02626 -2.87464 0
M  V30 1298 H 128.634 3.35129 -1.73114 0
M  V30 1299 H 131.021 2.81051 -0.899687 0
M  V30 1300 H 131.102 1.4925 -2.07745 0
M  V30 1301 H 130.746 3.18173 -3.95889 0
M  V30 1302 H 130.676 4.48992 -2.75161 0
M  V30 1303 H 133.167 2.99276 -2.30743 0
M  V30 1304 H 133.48 5.7183 -5.19837 0
M  V30 1305 H 131.825 5.14729 -4.66989 0
M  V30 1306 H 135.016 3.65505 -2.92444 0
M  V30 1307 H 135.189 4.89807 -4.24256 0
M  V30 1308 N 128.595 0.856903 1.32268 0
M  V30 1309 C 129.841 0.471355 1.97863 0
M  V30 1310 C 130.196 -0.962896 1.66572 0
M  V30 1311 O 129.489 -1.66686 0.944797 0
M  V30 1312 C 129.683 0.649919 3.51441 0
M  V30 1313 C 129.512 2.09997 3.97657 0
M  V30 1314 C 128.282 2.73893 4.2463 0
M  V30 1315 C 130.48 3.07081 4.1256 0
M  V30 1316 N 128.462 4.09786 4.57109 0
M  V30 1317 C 129.833 4.27968 4.48602 0
M  V30 1318 C 131.888 3.03247 3.949 0
M  V30 1319 C 130.591 5.45521 4.68827 0
M  V30 1320 C 132.617 4.20046 4.16311 0
M  V30 1321 C 131.979 5.39692 4.52672 0
M  V30 1322 H 128.078 0.221263 0.750044 0
M  V30 1323 H 130.662 1.10876 1.60045 0
M  V30 1324 H 128.833 0.0421938 3.88377 0
M  V30 1325 H 130.565 0.234044 4.04023 0
M  V30 1326 H 127.32 2.24918 4.16784 0
M  V30 1327 H 127.744 4.7989 4.7753 0
M  V30 1328 H 132.386 2.11863 3.65888 0
M  V30 1329 H 130.104 6.37434 4.96693 0
M  V30 1330 H 133.69 4.18517 4.04147 0
M  V30 1331 H 132.57 6.28566 4.68907 0
M  V30 1332 N 130.073 -1.45103 0.615059 0
M  V30 1333 C 131.32 -2.02183 0.113179 0
M  V30 1334 C 131.648 -1.48249 -1.25906 0
M  V30 1335 O 130.903 -0.650265 -1.84581 0
M  V30 1336 C 131.202 -3.57386 0.0318797 0
M  V30 1337 C 130.868 -4.30505 1.34077 0
M  V30 1338 C 129.53 -4.50197 1.69929 0
M  V30 1339 C 131.882 -4.72238 2.20546 0
M  V30 1340 C 129.21 -5.08881 2.91988 0
M  V30 1341 C 131.562 -5.32272 3.41861 0
M  V30 1342 C 130.226 -5.50187 3.77956 0
M  V30 1343 H 129.496 -0.739842 0.0414151 0
M  V30 1344 H 132.143 -1.74073 0.798168 0
M  V30 1345 H 130.448 -3.84817 -0.736409 0
M  V30 1346 H 132.145 -3.99264 -0.372712 0
M  V30 1347 H 128.735 -4.15496 1.05173 0
M  V30 1348 H 132.919 -4.56751 1.94146 0
M  V30 1349 H 128.175 -5.20939 3.2005 0
M  V30 1350 H 132.349 -5.63563 4.09109 0
M  V30 1351 H 129.976 -5.95427 4.72622 0
M  V30 1352 N 131.551 -0.354651 -1.53558 0
M  V30 1353 C 132.962 0.126902 -1.86268 0
M  V30 1354 C 133.313 1.49075 -1.27558 0
M  V30 1355 O 132.438 2.08105 -0.5934 0
M  V30 1356 C 133.033 0.237046 -3.3797 0
M  V30 1357 C 131.592 0.662842 -3.70518 0
M  V30 1358 C 130.739 -0.196652 -2.76602 0
M  V30 1359 H 133.69 -0.573849 -1.47962 0
M  V30 1360 H 133.711 1.06259 -3.65362 0
M  V30 1361 H 133.223 -0.755725 -3.80671 0
M  V30 1362 H 131.324 1.66424 -3.33367 0
M  V30 1363 H 131.437 0.445034 -4.77029 0
M  V30 1364 H 129.801 0.332763 -2.52517 0
M  V30 1365 H 130.584 -1.18676 -3.22135 0
M  V30 1366 N 133.029 1.57378 -0.0835403 0
M  V30 1367 C 134.306 1.85363 0.624507 0
M  V30 1368 C 134.686 0.978239 1.87066 0
M  V30 1369 O 134.034 0.0475908 2.2845 0
M  V30 1370 C 134.244 3.35795 0.950947 0
M  V30 1371 C 135.592 4.03581 1.31939 0
M  V30 1372 O 136.616 3.40609 1.04232 0
M  V30 1373 O 135.475 5.14672 1.83779 0
M  V30 1374 H 132.569 0.766162 0.311329 0
M  V30 1375 H 135.115 1.69307 -0.115362 0
M  V30 1376 H 133.887 3.91244 0.0663899 0
M  V30 1377 H 133.51 3.57154 1.74719 0
M  V30 1378 N 134.507 -0.190092 1.56449 0
M  V30 1379 C 135.437 -1.23816 1.97969 0
M  V30 1380 C 136.418 -1.47201 0.852395 0
M  V30 1381 O 137.603 -1.58854 1.1171 0
M  V30 1382 C 134.733 -2.5813 2.3235 0
M  V30 1383 C 133.687 -2.49348 3.47864 0
M  V30 1384 C 133.013 -3.8798 3.67934 0
M  V30 1385 C 134.313 -2.01424 4.81898 0
M  V30 1386 H 136.007 -0.89311 2.85769 0
M  V30 1387 H 133.553 -0.428177 1.37487 0
M  V30 1388 H 135.506 -3.31637 2.59991 0
M  V30 1389 H 134.23 -2.94386 1.41438 0
M  V30 1390 H 132.889 -1.78297 3.20321 0
M  V30 1391 H 132.537 -4.21597 2.74344 0
M  V30 1392 H 132.237 -3.82978 4.45648 0
M  V30 1393 H 133.761 -4.63101 3.97957 0
M  V30 1394 H 135.175 -2.64693 5.08538 0
M  V30 1395 H 133.572 -2.07413 5.63116 0
M  V30 1396 H 134.642 -0.967677 4.75146 0
M  V30 1397 N 135.985 -1.50799 -0.457987 0
M  V30 1398 C 137.396 -1.55152 -1.0385 0
M  V30 1399 C 137.747 -0.362719 -1.92818 0
M  V30 1400 O 136.872 0.522915 -2.09987 0
M  V30 1401 C 137.467 -2.81173 -1.89017 0
M  V30 1402 C 136.026 -2.88164 -2.42154 0
M  V30 1403 C 135.173 -2.49591 -1.20829 0
M  V30 1404 H 138.124 -1.56874 -0.240068 0
M  V30 1405 H 138.145 -2.63769 -2.74238 0
M  V30 1406 H 137.657 -3.67677 -1.24238 0
M  V30 1407 H 135.758 -2.06042 -3.10447 0
M  V30 1408 H 135.871 -3.91356 -2.76364 0
M  V30 1409 H 134.235 -2.02322 -1.54719 0
M  V30 1410 H 135.018 -3.38418 -0.576927 0
M  V30 1411 N 137.463 0.71206 -1.40597 0
M  V30 1412 C 138.41 1.82613 -1.41142 0
M  V30 1413 C 139.38 1.63925 -0.267903 0
M  V30 1414 O 140.565 1.85009 -0.466495 0
M  V30 1415 C 137.705 3.20354 -1.28324 0
M  V30 1416 C 136.818 3.50589 -2.52411 0
M  V30 1417 C 135.953 4.77855 -2.32009 0
M  V30 1418 C 134.992 5.01005 -3.51654 0
M  V30 1419 N 134.129 6.19487 -3.30425 0
M  V30 1420 H 138.969 1.81482 -2.36365 0
M  V30 1421 H 136.506 0.886475 -1.17388 0
M  V30 1422 H 138.464 3.99899 -1.18899 0
M  V30 1423 H 137.094 3.20705 -0.367189 0
M  V30 1424 H 136.146 2.65573 -2.72351 0
M  V30 1425 H 137.458 3.63604 -3.41458 0
M  V30 1426 H 136.612 5.65424 -2.19956 0
M  V30 1427 H 135.351 4.67056 -1.40392 0
M  V30 1428 H 134.356 4.1189 -3.64179 0
M  V30 1429 H 135.581 5.13674 -4.44202 0
M  V30 1430 H 133.527 6.09932 -2.41494 0
M  V30 1431 H 133.444 6.33194 -4.13039 0
M  V30 1432 H 134.712 7.09834 -3.22113 0
M  V30 1433 N 138.941 1.26152 0.944643 0
M  V30 1434 C 139.904 1.07474 2.0244 0
M  V30 1435 C 140.904 0.0242064 1.60782 0
M  V30 1436 O 142.094 0.267302 1.72137 0
M  V30 1437 C 139.226 0.633956 3.34953 0
M  V30 1438 H 140.419 2.03336 2.20442 0
M  V30 1439 H 137.972 1.087 1.12312 0
M  V30 1440 H 138.707 -0.326811 3.22649 0
M  V30 1441 H 138.492 1.39247 3.66542 0
M  V30 1442 H 139.982 0.52501 4.14287 0
M  V30 1443 N 140.419 -1.14872 1.07899 0
M  V30 1444 C 141.382 -2.17986 0.708161 0
M  V30 1445 C 142.382 -1.58775 -0.25442 0
M  V30 1446 O 143.572 -1.74166 -0.034645 0
M  V30 1447 C 140.704 -3.40871 0.0446929 0
M  V30 1448 H 141.897 -2.52306 1.62116 0
M  V30 1449 H 139.45 -1.2943 0.876218 0
M  V30 1450 H 140.185 -3.12124 -0.880281 0
M  V30 1451 H 139.97 -3.8511 0.737091 0
M  V30 1452 H 141.46 -4.17121 -0.19991 0
M  V30 1453 N 141.898 -0.863906 -1.31812 0
M  V30 1454 C 142.83 -0.272485 -2.27575 0
M  V30 1455 C 143.843 0.56104 -1.52827 0
M  V30 1456 O 145.032 0.384021 -1.7432 0
M  V30 1457 C 142.132 0.63283 -3.32939 0
M  V30 1458 C 141.305 -0.166902 -4.37081 0
M  V30 1459 C 140.364 0.665608 -5.21973 0
M  V30 1460 O 139.39 0.0958091 -5.69119 0
M  V30 1461 N 140.592 1.9787 -5.45736 0
M  V30 1462 H 143.357 -1.0954 -2.78964 0
M  V30 1463 H 140.918 -0.724791 -1.4477 0
M  V30 1464 H 142.91 1.19532 -3.86645 0
M  V30 1465 H 141.48 1.35642 -2.81638 0
M  V30 1466 H 140.7 -0.910838 -3.83533 0
M  V30 1467 H 141.988 -0.715874 -5.03739 0
M  V30 1468 H 141.386 2.46484 -5.09178 0
M  V30 1469 H 139.943 2.48911 -6.024 0
M  V30 1470 N 143.376 1.44774 -0.622745 0
M  V30 1471 C 144.309 2.27792 0.136329 0
M  V30 1472 C 145.287 1.38041 0.859264 0
M  V30 1473 O 146.471 1.67478 0.86506 0
M  V30 1474 C 143.598 3.16776 1.19878 0
M  V30 1475 C 142.644 4.22575 0.57731 0
M  V30 1476 S 143.477 5.31825 -0.626294 0
M  V30 1477 C 144.633 6.24377 0.436378 0
M  V30 1478 H 144.866 2.91824 -0.567967 0
M  V30 1479 H 142.399 1.48838 -0.410677 0
M  V30 1480 H 144.357 3.68596 1.80686 0
M  V30 1481 H 143.018 2.5198 1.87523 0
M  V30 1482 H 142.211 4.84818 1.37721 0
M  V30 1483 H 141.813 3.73974 0.0440439 0
M  V30 1484 H 144.105 6.64689 1.31128 0
M  V30 1485 H 145.048 7.07941 -0.150271 0
M  V30 1486 H 145.456 5.59381 0.758513 0
M  V30 1487 N 144.854 0.36279 1.53368 0
M  V30 1488 C 146.265 -0.117022 1.86333 0
M  V30 1489 C 146.616 -1.48397 1.28347 0
M  V30 1490 O 145.741 -2.07787 0.604428 0
M  V30 1491 C 146.336 -0.21912 3.38091 0
M  V30 1492 C 144.895 -0.643184 3.70864 0
M  V30 1493 C 144.042 0.211318 2.76494 0
M  V30 1494 H 146.993 0.581687 1.47655 0
M  V30 1495 H 147.014 -1.04319 3.6592 0
M  V30 1496 H 146.526 0.775902 3.80265 0
M  V30 1497 H 144.627 -1.64654 3.34245 0
M  V30 1498 H 144.74 -0.41973 4.77258 0
M  V30 1499 H 143.104 -0.319367 2.5269 0
M  V30 1500 H 143.887 1.20383 3.21501 0
M  V30 1501 N 146.332 -1.57332 0.0918853 0
M  V30 1502 C 147.578 -1.94524 -0.573425 0
M  V30 1503 C 147.911 -0.973578 -1.68033 0
M  V30 1504 O 147.186 -0.00609226 -1.94499 0
M  V30 1505 C 147.469 -3.41858 -1.13161 0
M  V30 1506 C 147.322 -4.4979 -0.0299747 0
M  V30 1507 C 148.641 -3.90435 -2.03098 0
M  V30 1508 H 145.76 -0.70734 -0.206975 0
M  V30 1509 H 148.402 -1.89309 0.161942 0
M  V30 1510 H 146.552 -3.46433 -1.7583 0
M  V30 1511 H 148.224 -4.57327 0.604112 0
M  V30 1512 H 146.467 -4.291 0.636833 0
M  V30 1513 H 147.138 -5.50069 -0.461287 0
M  V30 1514 H 149.614 -3.87992 -1.50338 0
M  V30 1515 H 148.49 -4.94097 -2.39081 0
M  V30 1516 H 148.751 -3.29541 -2.94712 0
M  V30 1517 N 147.81 0.181792 -1.56548 0
M  V30 1518 C 149.226 0.53316 -1.50431 0
M  V30 1519 C 149.426 1.85184 -0.794297 0
M  V30 1520 O 148.482 2.50058 -0.350318 0
M  V30 1521 C 149.795 0.575597 -2.9514 0
M  V30 1522 C 151.343 0.663519 -3.05886 0
M  V30 1523 C 151.818 0.736946 -4.52032 0
M  V30 1524 N 153.309 0.800118 -4.56237 0
M  V30 1525 C 154.044 0.877327 -5.66649 0
M  V30 1526 N 153.54 0.916016 -6.86718 0
M  V30 1527 N 155.333 0.915542 -5.54594 0
M  V30 1528 H 147.484 -0.683025 -2.01118 0
M  V30 1529 H 149.747 -0.244988 -0.915797 0
M  V30 1530 H 149.453 -0.324482 -3.502 0
M  V30 1531 H 149.327 1.42572 -3.49218 0
M  V30 1532 H 151.714 1.55403 -2.50867 0
M  V30 1533 H 151.795 -0.21307 -2.54911 0
M  V30 1534 H 151.439 -0.149262 -5.07681 0
M  V30 1535 H 151.369 1.62953 -5.00753 0
M  V30 1536 H 153.86 0.778926 -3.69785 0
M  V30 1537 H 154.173 0.975813 -7.66614 0
M  V30 1538 H 152.518 0.884469 -6.89349 0
M  V30 1539 H 155.709 0.882245 -4.59711 0
M  V30 1540 H 155.882 0.972253 -6.40665 0
M  V30 1541 N 149.288 1.51039 0.449983 0
M  V30 1542 C 150.537 1.62317 1.19733 0
M  V30 1543 C 150.85 0.339101 1.92638 0
M  V30 1544 O 152.056 0.331069 2.69474 0
M  V30 1545 C 150.512 2.86608 2.17678 0
M  V30 1546 C 150.12 4.21972 1.50479 0
M  V30 1547 C 151.864 3.07239 2.92924 0
M  V30 1548 C 149.771 5.37426 2.46834 0
M  V30 1549 H 148.701 0.604532 0.450619 0
M  V30 1550 H 151.352 1.77494 0.465625 0
M  V30 1551 H 149.734 2.65037 2.94231 0
M  V30 1552 H 150.908 4.53878 0.795716 0
M  V30 1553 H 149.223 4.07117 0.874344 0
M  V30 1554 H 151.82 3.90668 3.65079 0
M  V30 1555 H 152.163 2.19807 3.5354 0
M  V30 1556 H 152.696 3.29091 2.23481 0
M  V30 1557 H 149.435 6.27079 1.90926 0
M  V30 1558 H 148.955 5.09912 3.15832 0
M  V30 1559 H 150.634 5.68862 3.08228 0
M  V30 1560 N 150.766 -0.704594 1.40972 0
M  V30 1561 C 151.696 -1.83124 1.44872 0
M  V30 1562 C 152.677 -1.67281 0.30838 0
M  V30 1563 O 153.862 -1.87149 0.518556 0
M  V30 1564 C 150.992 -3.21181 1.32136 0
M  V30 1565 C 149.946 -3.51714 2.43888 0
M  V30 1566 C 149.272 -4.89032 2.16222 0
M  V30 1567 C 150.572 -3.516 3.86232 0
M  V30 1568 H 152.266 -1.80117 2.39161 0
M  V30 1569 H 149.812 -0.865145 1.15114 0
M  V30 1570 H 151.765 -3.99702 1.33479 0
M  V30 1571 H 150.489 -3.24791 0.343279 0
M  V30 1572 H 149.148 -2.75539 2.41813 0
M  V30 1573 H 148.796 -4.89256 1.16778 0
M  V30 1574 H 148.496 -5.10426 2.911 0
M  V30 1575 H 150.02 -5.69873 2.19265 0
M  V30 1576 H 151.434 -4.2014 3.9007 0
M  V30 1577 H 149.831 -3.84523 4.60719 0
M  V30 1578 H 150.901 -2.50757 4.15029 0
M  V30 1579 N 152.244 -1.26651 -0.937939 0
M  V30 1580 C 153.174 -1.10993 -2.05433 0
M  V30 1581 C 154.155 -0.0142161 -1.70094 0
M  V30 1582 O 155.34 -0.186837 -1.93299 0
M  V30 1583 C 152.47 -0.745561 -3.39203 0
M  V30 1584 C 151.424 -1.79337 -3.88616 0
M  V30 1585 C 150.75 -1.28324 -5.19073 0
M  V30 1586 C 152.05 -3.19553 -4.13138 0
M  V30 1587 H 153.744 -2.0438 -2.1879 0
M  V30 1588 H 151.29 -0.984041 -1.05131 0
M  V30 1589 H 153.243 -0.622888 -4.16771 0
M  V30 1590 H 151.967 0.22401 -3.25831 0
M  V30 1591 H 150.626 -1.90477 -3.13231 0
M  V30 1592 H 150.274 -0.303414 -5.02084 0
M  V30 1593 H 149.974 -1.98369 -5.53103 0
M  V30 1594 H 151.498 -1.1733 -5.99221 0
M  V30 1595 H 152.912 -3.11471 -4.81309 0
M  V30 1596 H 151.309 -3.87218 -4.58457 0
M  V30 1597 H 152.379 -3.65368 -3.18801 0
M  V30 1598 N 153.722 1.14298 -1.08507 0
M  V30 1599 C 154.67 2.21483 -0.710483 0
M  V30 1600 C 155.664 1.66998 0.284234 0
M  V30 1601 O 156.87 1.79401 0.146692 0
M  V30 1602 H 153.245 0.721578 -0.211729 0
M  V30 1603 H 155.216 2.50348 -1.62384 0
M  V30 1604 C 153.965 3.4743 -0.137007 0
M  V30 1605 H 153.288 3.89686 -0.893592 0
M  V30 1606 H 154.728 4.2391 0.0872789 0
M  V30 1607 C 153.187 3.17548 1.12538 0
M  V30 1608 O 153.717 3.35437 2.21009 0
M  V30 1609 N 151.923 2.71499 1.03617 0
M  V30 1610 H 151.47 2.57143 0.153403 0
M  V30 1611 H 151.428 2.51881 1.88158 0
M  V30 1612 N 155.201 0.870884 1.31352 0
M  V30 1613 C 156.151 0.298889 2.26032 0
M  V30 1614 C 157.135 -0.564595 1.50669 0
M  V30 1615 O 158.327 -0.411323 1.72154 0
M  V30 1616 C 155.456 -0.497842 3.39671 0
M  V30 1617 C 154.542 0.378937 4.22404 0
M  V30 1618 N 154.933 1.47284 4.83881 0
M  V30 1619 C 153.231 0.171535 4.4567 0
M  V30 1620 C 153.932 2.01359 5.45738 0
M  V30 1621 N 152.908 1.31047 5.27568 0
M  V30 1622 H 156.71 1.13494 2.71102 0
M  V30 1623 H 154.224 0.718745 1.45629 0
M  V30 1624 H 156.221 -0.924155 4.06528 0
M  V30 1625 H 154.881 -1.33149 2.96144 0
M  V30 1626 H 155.892 1.85575 4.8351 0
M  V30 1627 H 152.569 -0.626091 4.12779 0
M  V30 1628 H 153.959 2.93143 6.0458 0
M  V30 1629 N 156.679 -1.44442 0.630414 0
M  V30 1630 C 158.095 -1.56832 0.295973 0
M  V30 1631 C 158.295 -1.61806 -1.20088 0
M  V30 1632 O 157.351 -1.5607 -1.9849 0
M  V30 1633 C 158.664 -2.84031 0.987264 0
M  V30 1634 C 160.212 -2.97742 0.96534 0
M  V30 1635 C 160.687 -4.27743 1.63708 0
M  V30 1636 N 162.178 -4.34555 1.60364 0
M  V30 1637 C 162.913 -5.33862 2.09234 0
M  V30 1638 N 162.409 -6.39578 2.66292 0
M  V30 1639 N 164.202 -5.25366 1.99867 0
M  V30 1640 H 156.353 -1.39457 1.60205 0
M  V30 1641 H 158.616 -0.668237 0.672431 0
M  V30 1642 H 158.322 -2.86338 2.04215 0
M  V30 1643 H 158.196 -3.73534 0.524588 0
M  V30 1644 H 160.583 -2.94989 -0.0810639 0
M  V30 1645 H 160.664 -2.09589 1.4665 0
M  V30 1646 H 160.308 -4.31255 2.68293 0
M  V30 1647 H 160.238 -5.14752 1.11076 0
M  V30 1648 H 162.729 -3.58772 1.18705 0
M  V30 1649 H 163.042 -7.11637 3.01317 0
M  V30 1650 H 161.387 -6.40265 2.70343 0
M  V30 1651 H 164.578 -4.41688 1.55013 0
M  V30 1652 H 164.751 -6.02606 2.38265 0
M  V30 1653 N 158.157 -0.370918 -1.53173 0
M  V30 1654 C 159.382 0.220293 -2.06227 0
M  V30 1655 C 159.807 1.41243 -1.24225 0
M  V30 1656 O 159.165 1.79387 -0.262645 0
M  V30 1657 C 159.213 0.586663 -3.55796 0
M  V30 1658 O 158.317 1.68317 -3.76488 0
M  V30 1659 H 157.658 0.0308099 -0.663285 0
M  V30 1660 H 160.188 -0.533068 -1.97534 0
M  V30 1661 H 160.198 0.85617 -3.98916 0
M  V30 1662 H 158.873 -0.285013 -4.14922 0
M  V30 1663 H 157.45 1.40881 -3.45264 0
M  V30 1664 N 159.635 1.57281 -0.100228 0
M  V30 1665 C 160.883 1.94153 0.561157 0
M  V30 1666 C 161.204 0.983157 1.68401 0
M  V30 1667 O 160.474 0.0361132 1.95867 0
M  V30 1668 H 159.054 0.716791 0.210283 0
M  V30 1669 H 161.716 1.94202 -0.164765 0
M  V30 1670 H 160.812 2.96709 0.968008 0
M  V30 1671 N 161.113 -0.173488 1.56642 0
M  V30 1672 C 162.043 -1.2171 1.99271 0
M  V30 1673 C 163.024 -1.46289 0.867959 0
M  V30 1674 O 164.209 -1.5766 1.13388 0
M  V30 1675 C 161.339 -2.55651 2.35074 0
M  V30 1676 C 160.293 -2.45645 3.50489 0
M  V30 1677 C 159.619 -3.84056 3.72028 0
M  V30 1678 C 160.919 -1.96302 4.84007 0
M  V30 1679 H 162.613 -0.86275 2.867 0
M  V30 1680 H 160.159 -0.413571 1.37933 0
M  V30 1681 H 162.112 -3.2886 2.63494 0
M  V30 1682 H 160.836 -2.92869 1.44552 0
M  V30 1683 H 159.495 -1.7489 3.22194 0
M  V30 1684 H 159.143 -4.18664 2.788 0
M  V30 1685 H 158.843 -3.7823 4.49684 0
M  V30 1686 H 160.367 -4.58854 4.02846 0
M  V30 1687 H 161.781 -2.59284 5.11317 0
M  V30 1688 H 160.178 -2.01429 5.65284 0
M  V30 1689 H 161.248 -0.917226 4.76146 0
M  V30 1690 N 162.591 -1.51276 -0.441967 0
M  V30 1691 C 164.002 -1.56244 -1.02199 0
M  V30 1692 C 164.353 -0.383149 -1.92422 0
M  V30 1693 O 163.478 0.500613 -2.1053 0
M  V30 1694 C 164.073 -2.83162 -1.86024 0
M  V30 1695 C 162.632 -2.90716 -2.39084 0
M  V30 1696 C 161.779 -2.50858 -1.18175 0
M  V30 1697 H 164.73 -1.5712 -0.223416 0
M  V30 1698 H 164.751 -2.66663 -2.71425 0
M  V30 1699 H 164.263 -3.68974 -1.20331 0
M  V30 1700 H 162.364 -2.09323 -3.08244 0
M  V30 1701 H 162.477 -3.94266 -2.72198 0
M  V30 1702 H 160.841 -2.03951 -1.52565 0
M  V30 1703 H 161.624 -3.3901 -0.541001 0
M  V30 1704 N 164.069 0.697108 -1.41344 0
M  V30 1705 C 165.346 1.45154 -1.31109 0
M  V30 1706 C 165.726 2.11009 0.0620449 0
M  V30 1707 O 165.074 2.01571 1.07618 0
M  V30 1708 C 165.284 2.47223 -2.46337 0
M  V30 1709 C 166.632 3.1252 -2.87431 0
M  V30 1710 O 167.656 2.57547 -2.46065 0
M  V30 1711 O 166.515 4.12083 -3.58957 0
M  V30 1712 H 163.609 0.646365 -0.515889 0
M  V30 1713 H 166.155 0.727716 -1.53305 0
M  V30 1714 H 164.927 1.97204 -3.37974 0
M  V30 1715 H 164.55 3.27116 -2.2601 0
M  V30 1716 N 165.547 1.27147 0.931209 0
M  V30 1717 C 166.794 1.13278 1.67852 0
M  V30 1718 C 167.122 -0.32204 1.91815 0
M  V30 1719 O 166.377 -1.25224 1.50391 0
M  V30 1720 C 166.676 1.8579 3.05314 0
M  V30 1721 C 166.342 3.35657 3.01073 0
M  V30 1722 C 165.004 3.76536 2.99623 0
M  V30 1723 C 167.356 4.31299 2.92627 0
M  V30 1724 C 164.684 5.11426 2.87506 0
M  V30 1725 C 167.036 5.66242 2.82051 0
M  V30 1726 C 165.7 6.06418 2.7895 0
M  V30 1727 H 164.97 0.414515 0.614214 0
M  V30 1728 H 167.617 1.57712 1.08624 0
M  V30 1729 H 165.922 1.33854 3.68226 0
M  V30 1730 H 167.619 1.72491 3.62005 0
M  V30 1731 H 164.209 3.03146 3.02986 0
M  V30 1732 H 168.393 4.00692 2.92848 0
M  V30 1733 H 163.649 5.41705 2.83489 0
M  V30 1734 H 167.823 6.40026 2.74481 0
M  V30 1735 H 165.45 7.10895 2.69318 0
M  V30 1736 N 167.025 -1.13721 1.09112 0
M  V30 1737 C 167.935 -2.22638 0.73957 0
M  V30 1738 C 168.951 -1.72091 -0.257068 0
M  V30 1739 O 170.127 -2.01155 -0.0992154 0
M  V30 1740 C 167.192 -3.46322 0.16191 0
M  V30 1741 C 166.253 -4.11775 1.21408 0
M  V30 1742 C 165.486 -5.29555 0.663891 0
M  V30 1743 O 165.709 -5.68077 -0.514274 0
M  V30 1744 O 164.643 -5.84973 1.41738 0
M  V30 1745 H 168.469 -2.55074 1.64836 0
M  V30 1746 H 166.054 -1.21791 0.865289 0
M  V30 1747 H 167.936 -4.21107 -0.157073 0
M  V30 1748 H 166.611 -3.15593 -0.719932 0
M  V30 1749 H 165.518 -3.3883 1.58571 0
M  V30 1750 H 166.851 -4.46627 2.06845 0
M  V30 1751 N 168.503 -0.877838 -1.30888 0
M  V30 1752 C 169.731 -0.507414 -2.00581 0
M  V30 1753 C 170.146 0.902216 -1.65848 0
M  V30 1754 O 169.503 1.59225 -0.891831 0
M  V30 1755 C 169.554 -0.664162 -3.55347 0
M  V30 1756 O 169.275 -2.01829 -3.8884 0
M  V30 1757 C 170.776 -0.295787 -4.42312 0
M  V30 1758 H 167.996 -0.196866 -0.641471 0
M  V30 1759 H 170.54 -1.18117 -1.66939 0
M  V30 1760 H 168.695 -0.0378619 -3.87381 0
M  V30 1761 H 169.109 -2.03174 -4.8355 0
M  V30 1762 H 170.583 -0.456388 -5.5011 0
M  V30 1763 H 171.06 0.765663 -4.32475 0
M  V30 1764 H 171.666 -0.898113 -4.15709 0
M  V30 1765 N 169.982 1.44106 -0.638065 0
M  V30 1766 C 171.207 2.0685 -0.150916 0
M  V30 1767 C 171.632 1.47417 1.16833 0
M  V30 1768 O 170.99 0.578264 1.71831 0
M  V30 1769 C 171.038 3.60555 -0.05708 0
M  V30 1770 O 170.142 4.00465 0.984972 0
M  V30 1771 H 169.483 0.658151 -0.0879399 0
M  V30 1772 H 172.013 1.84865 -0.876707 0
M  V30 1773 H 172.023 4.07789 0.131232 0
M  V30 1774 H 170.698 4.03193 -1.02021 0
M  V30 1775 H 169.275 3.64849 0.770672 0
M  V30 1776 N 171.46 0.379036 1.52974 0
M  V30 1777 C 172.393 -0.504932 2.22544 0
M  V30 1778 C 173.371 -1.0723 1.22231 0
M  V30 1779 O 174.555 -1.12589 1.51182 0
M  V30 1780 C 171.682 -1.69794 2.93066 0
M  V30 1781 C 170.728 -1.25678 4.07563 0
M  V30 1782 S 171.561 -0.246852 5.34931 0
M  V30 1783 C 172.717 -1.44588 6.08971 0
M  V30 1784 H 172.95 0.0858666 2.97176 0
M  V30 1785 H 170.483 0.163183 1.53535 0
M  V30 1786 H 172.441 -2.38219 3.34308 0
M  V30 1787 H 171.102 -2.26002 2.18133 0
M  V30 1788 H 170.295 -2.14725 4.5597 0
M  V30 1789 H 169.897 -0.651584 3.6828 0
M  V30 1790 H 172.189 -2.37469 6.34519 0
M  V30 1791 H 173.132 -1.00292 7.00962 0
M  V30 1792 H 173.54 -1.65804 5.39601 0
M  V30 1793 N 172.938 -1.57226 0.108567 0
M  V30 1794 C 174.349 -1.8195 -0.418464 0
M  V30 1795 C 174.7 -1.02508 -1.67292 0
M  V30 1796 O 173.825 -0.258496 -2.14851 0
M  V30 1797 C 174.42 -3.30028 -0.765979 0
M  V30 1798 C 172.979 -3.55469 -1.23769 0
M  V30 1799 C 172.126 -2.7625 -0.241106 0
M  V30 1800 H 175.077 -1.55149 0.33384 0
M  V30 1801 H 175.098 -3.44086 -1.62434 0
M  V30 1802 H 174.61 -3.87821 0.147219 0
M  V30 1803 H 172.711 -3.03022 -2.16814 0
M  V30 1804 H 172.824 -4.6408 -1.19022 0
M  V30 1805 H 171.188 -2.44133 -0.72602 0
M  V30 1806 H 171.971 -3.36797 0.665007 0
M  V30 1807 N 174.416 0.165178 -1.56732 0
M  V30 1808 C 175.349 1.23336 -1.91998 0
M  V30 1809 C 176.327 1.42476 -0.783531 0
M  V30 1810 O 177.511 1.57384 -1.03743 0
M  V30 1811 C 174.638 2.59533 -2.17625 0
M  V30 1812 C 173.684 2.57093 -3.40302 0
M  V30 1813 S 174.517 2.05571 -4.9447 0
M  V30 1814 C 175.673 3.43532 -5.23198 0
M  V30 1815 H 175.906 0.932387 -2.82301 0
M  V30 1816 H 173.439 0.370013 -1.49901 0
M  V30 1817 H 175.397 3.37918 -2.3307 0
M  V30 1818 H 174.058 2.86827 -1.28019 0
M  V30 1819 H 173.251 3.57308 -3.55453 0
M  V30 1820 H 172.853 1.86806 -3.24005 0
M  V30 1821 H 175.145 4.39559 -5.15552 0
M  V30 1822 H 176.088 3.33251 -6.2478 0
M  V30 1823 H 176.496 3.39828 -4.50752 0
M  V30 1824 N 175.894 1.51508 0.433938 0
M  V30 1825 C 177.143 1.63578 1.18005 0
M  V30 1826 C 177.456 0.359514 1.92268 0
M  V30 1827 O 178.662 0.359632 2.69108 0
M  V30 1828 C 177.118 2.88901 2.14626 0
M  V30 1829 C 176.726 4.23544 1.45995 0
M  V30 1830 C 178.47 3.10328 2.89649 0
M  V30 1831 C 176.377 5.40014 2.4112 0
M  V30 1832 H 175.307 0.609277 0.444182 0
M  V30 1833 H 177.958 1.77978 0.446773 0
M  V30 1834 H 176.34 2.68142 2.91403 0
M  V30 1835 H 177.514 4.54696 0.747532 0
M  V30 1836 H 175.829 4.08021 0.831115 0
M  V30 1837 H 178.426 3.94518 3.60915 0
M  V30 1838 H 178.769 2.23544 3.51189 0
M  V30 1839 H 179.302 3.31443 2.19978 0
M  V30 1840 H 176.041 6.29068 1.84264 0
M  V30 1841 H 175.561 5.13233 3.10406 0
M  V30 1842 H 177.24 5.72099 3.02177 0
M  V30 1843 N 177.372 -0.689602 1.41712 0
M  V30 1844 C 178.597 -1.48329 1.44959 0
M  V30 1845 C 179.022 -1.8801 0.0581283 0
M  V30 1846 O 178.38 -1.55026 -0.940035 0
M  V30 1847 C 178.428 -2.71835 2.36935 0
M  V30 1848 O 177.532 -3.69549 1.8305 0
M  V30 1849 H 176.873 -0.446199 0.491734 0
M  V30 1850 H 179.403 -0.847127 1.86239 0
M  V30 1851 H 179.413 -3.20076 2.53013 0
M  V30 1852 H 178.088 -2.42291 3.38035 0
M  V30 1853 H 176.665 -3.2851 1.76452 0
M  V30 1854 N 178.85 -1.27639 -0.924453 0
M  V30 1855 C 180.127 -1.04887 -1.651 0
M  V30 1856 C 180.507 0.415327 -2.06974 0
M  V30 1857 O 179.855 1.39923 -1.80648 0
M  V30 1858 C 180.065 -2.01348 -2.85061 0
M  V30 1859 C 181.413 -2.30899 -3.56329 0
M  V30 1860 O 182.437 -1.99348 -2.95193 0
M  V30 1861 O 181.296 -2.84699 -4.66485 0
M  V30 1862 H 178.39 -0.400083 -0.723784 0
M  V30 1863 H 180.936 -1.38916 -0.974703 0
M  V30 1864 H 179.708 -3.0008 -2.51133 0
M  V30 1865 H 179.331 -1.679 -3.6041 0
M  V30 1866 N 180.328 1.1314 -1.09713 0
M  V30 1867 C 181.275 2.18642 -0.739196 0
M  V30 1868 C 182.245 1.63706 0.280978 0
M  V30 1869 O 183.43 1.90111 0.161946 0
M  V30 1870 C 180.57 3.44685 -0.169102 0
M  V30 1871 C 179.683 4.13711 -1.24367 0
M  V30 1872 C 178.818 5.27379 -0.636019 0
M  V30 1873 C 177.857 5.88259 -1.69169 0
M  V30 1874 N 176.994 6.93352 -1.10485 0
M  V30 1875 H 181.834 2.48607 -1.64312 0
M  V30 1876 H 179.371 1.22066 -0.820875 0
M  V30 1877 H 181.329 4.16815 0.179256 0
M  V30 1878 H 179.959 3.15161 0.698079 0
M  V30 1879 H 179.011 3.39835 -1.70927 0
M  V30 1880 H 180.323 4.55037 -2.04311 0
M  V30 1881 H 179.477 6.06238 -0.236677 0
M  V30 1882 H 178.216 4.8731 0.194928 0
M  V30 1883 H 177.221 5.08092 -2.10055 0
M  V30 1884 H 178.446 6.30399 -2.52536 0
M  V30 1885 H 176.392 6.55335 -0.295234 0
M  V30 1886 H 176.309 7.33236 -1.84121 0
M  V30 1887 H 177.577 7.76057 -0.73181 0
M  V30 1888 N 181.806 0.884767 1.30421 0
M  V30 1889 C 183.031 0.517288 2.00845 0
M  V30 1890 C 183.456 -0.886779 1.65885 0
M  V30 1891 O 182.814 -1.58768 0.875354 0
M  V30 1892 C 182.862 0.698994 3.5376 0
M  V30 1893 O 181.966 -0.255208 4.1161 0
M  V30 1894 H 181.307 0.203872 0.631927 0
M  V30 1895 H 183.837 1.19225 1.66272 0
M  V30 1896 H 183.847 0.597912 4.03595 0
M  V30 1897 H 182.522 1.72271 3.78544 0
M  V30 1898 H 181.099 -0.10784 3.72744 0
M  V30 1899 N 183.284 -1.43765 0.645699 0
M  V30 1900 C 184.53 -2.02731 0.164844 0
M  V30 1901 C 184.885 -1.49983 -1.2051 0
M  V30 1902 O 184.178 -0.680208 -1.79119 0
M  V30 1903 C 184.372 -3.57238 0.107679 0
M  V30 1904 C 184.201 -4.24977 1.47054 0
M  V30 1905 C 182.971 -4.61356 2.06103 0
M  V30 1906 C 185.169 -4.54476 2.40741 0
M  V30 1907 N 183.151 -5.14132 3.35473 0
M  V30 1908 C 184.522 -5.08489 3.54737 0
M  V30 1909 C 186.577 -4.36438 2.39637 0
M  V30 1910 C 185.28 -5.46364 4.67845 0
M  V30 1911 C 187.306 -4.7537 3.5182 0
M  V30 1912 C 186.668 -5.2951 4.64541 0
M  V30 1913 H 182.767 -0.774976 0.104578 0
M  V30 1914 H 185.351 -1.75051 0.852367 0
M  V30 1915 H 183.522 -3.84498 -0.549165 0
M  V30 1916 H 185.254 -4.0288 -0.383351 0
M  V30 1917 H 182.009 -4.46151 1.58892 0
M  V30 1918 H 182.433 -5.4498 4.01654 0
M  V30 1919 H 187.075 -3.93861 1.53731 0
M  V30 1920 H 184.793 -5.87888 5.54448 0
M  V30 1921 H 188.379 -4.63115 3.52159 0
M  V30 1922 H 187.259 -5.59077 5.49911 0
M  V30 1923 N 184.763 -0.387143 -1.52771 0
M  V30 1924 C 185.991 0.195869 -2.05971 0
M  V30 1925 C 186.406 1.40691 -1.25903 0
M  V30 1926 O 185.763 1.79931 -0.305134 0
M  V30 1927 C 185.814 0.56812 -3.57008 0
M  V30 1928 O 185.535 -0.594803 -4.34043 0
M  V30 1929 C 187.036 1.20723 -4.26545 0
M  V30 1930 H 184.256 0.0300578 -0.670326 0
M  V30 1931 H 186.8 -0.551749 -1.96916 0
M  V30 1932 H 184.955 1.26564 -3.66143 0
M  V30 1933 H 185.369 -0.289322 -5.23701 0
M  V30 1934 H 186.843 1.41807 -5.33474 0
M  V30 1935 H 187.32 2.17395 -3.81623 0
M  V30 1936 H 187.926 0.550535 -4.21722 0
M  V30 1937 N 186.241 1.57166 -0.116904 0
M  V30 1938 C 187.204 2.14039 0.819742 0
M  V30 1939 C 188.204 1.07477 1.19605 0
M  V30 1940 O 189.394 1.33263 1.1219 0
M  V30 1941 C 186.526 2.67891 2.10826 0
M  V30 1942 H 187.719 2.98128 0.325511 0
M  V30 1943 H 185.272 1.55739 0.132312 0
M  V30 1944 H 186.007 1.87384 2.64685 0
M  V30 1945 H 185.792 3.45823 1.84793 0
M  V30 1946 H 187.282 3.11809 2.77785 0
M  V30 1947 N 187.719 -0.156864 1.56817 0
M  V30 1948 C 188.651 -1.21883 1.94106 0
M  V30 1949 C 189.664 -1.3971 0.835754 0
M  V30 1950 O 190.853 -1.39457 1.11418 0
M  V30 1951 C 187.953 -2.58527 2.19127 0
M  V30 1952 C 187.126 -2.61809 3.50393 0
M  V30 1953 C 186.185 -3.7992 3.64071 0
M  V30 1954 O 185.211 -3.65249 4.36557 0
M  V30 1955 N 186.413 -4.96973 2.99997 0
M  V30 1956 H 189.178 -0.901974 2.85805 0
M  V30 1957 H 186.739 -0.346513 1.58148 0
M  V30 1958 H 188.731 -3.36034 2.25529 0
M  V30 1959 H 187.301 -2.82545 1.33742 0
M  V30 1960 H 186.521 -1.7029 3.5552 0
M  V30 1961 H 187.809 -2.61024 4.36742 0
M  V30 1962 H 187.207 -5.11794 2.41004 0
M  V30 1963 H 185.764 -5.7229 3.11974 0
M  V30 1964 N 189.197 -1.51736 -0.425897 0
M  V30 1965 C 190.107 -1.76738 -1.54275 0
M  V30 1966 C 191.123 -0.65211 -1.61318 0
M  V30 1967 O 192.299 -0.935654 -1.78346 0
M  V30 1968 C 189.364 -1.89755 -2.90162 0
M  V30 1969 C 188.425 -3.13633 -2.93143 0
M  V30 1970 C 187.658 -3.2602 -4.22548 0
M  V30 1971 O 187.881 -2.44067 -5.15546 0
M  V30 1972 O 186.815 -4.19071 -4.32046 0
M  V30 1973 H 190.641 -2.71502 -1.36089 0
M  V30 1974 H 188.226 -1.36376 -0.610069 0
M  V30 1975 H 190.108 -2.00236 -3.70788 0
M  V30 1976 H 188.783 -0.981785 -3.08452 0
M  V30 1977 H 187.69 -3.08622 -2.11431 0
M  V30 1978 H 189.023 -4.04936 -2.798 0
M  V30 1979 N 190.675 0.682077 -1.42076 0
M  V30 1980 C 191.924 1.43786 -1.41451 0
M  V30 1981 C 192.237 1.95574 -0.0317074 0
M  V30 1982 O 193.443 2.71326 0.0971462 0
M  V30 1983 C 191.899 2.60071 -2.48779 0
M  V30 1984 C 191.507 2.15013 -3.93031 0
M  V30 1985 C 193.251 3.37626 -2.57311 0
M  V30 1986 C 191.158 3.28336 -4.91883 0
M  V30 1987 H 190.088 0.540143 -0.526082 0
M  V30 1988 H 192.739 0.739157 -1.67955 0
M  V30 1989 H 191.121 3.32275 -2.15429 0
M  V30 1990 H 192.295 1.5001 -4.35699 0
M  V30 1991 H 190.61 1.50416 -3.88284 0
M  V30 1992 H 193.207 4.22012 -3.28345 0
M  V30 1993 H 193.55 3.83727 -1.61429 0
M  V30 1994 H 194.083 2.72488 -2.89819 0
M  V30 1995 H 190.822 2.87234 -5.89217 0
M  V30 1996 H 190.342 3.92145 -4.53853 0
M  V30 1997 H 192.021 3.93913 -5.13265 0
M  V30 1998 N 192.153 1.28127 0.917671 0
M  V30 1999 C 193.399 1.15223 1.66888 0
M  V30 2000 C 193.732 -0.299293 1.9188 0
M  V30 2001 O 193.007 -1.21805 1.51637 0
M  V30 2002 C 193.29 1.94706 3.02922 0
M  V30 2003 C 193.143 3.47898 2.85109 0
M  V30 2004 C 194.462 1.75939 4.03402 0
M  V30 2005 H 191.581 0.419946 0.605652 0
M  V30 2006 H 194.223 1.57398 1.06423 0
M  V30 2007 H 192.373 1.58864 3.54534 0
M  V30 2008 H 194.045 3.93624 2.40537 0
M  V30 2009 H 192.288 3.7373 2.20246 0
M  V30 2010 H 192.959 3.98765 3.81694 0
M  V30 2011 H 195.435 2.07209 3.60837 0
M  V30 2012 H 194.311 2.33931 4.96556 0
M  V30 2013 H 194.572 0.709877 4.36364 0
M  V30 2014 N 193.631 -1.12557 1.10312 0
M  V30 2015 C 194.908 -1.80363 0.756878 0
M  V30 2016 C 195.288 -1.97067 -0.756824 0
M  V30 2017 O 194.636 -1.54601 -1.68259 0
M  V30 2018 C 194.846 -3.14812 1.50647 0
M  V30 2019 C 196.194 -3.90029 1.67817 0
M  V30 2020 O 197.218 -3.24464 1.46974 0
M  V30 2021 O 196.077 -5.07652 2.02365 0
M  V30 2022 H 193.171 -0.780667 0.272926 0
M  V30 2023 H 195.717 -1.19404 1.20586 0
M  V30 2024 H 194.489 -2.97936 2.53672 0
M  V30 2025 H 194.112 -3.83478 1.05026 0
M  V30 2026 N 195.109 -0.891671 -1.2995 0
M  V30 2027 C 196.356 -0.513501 -1.95881 0
M  V30 2028 C 196.684 0.938655 -1.70351 0
M  V30 2029 O 195.939 1.67936 -1.00478 0
M  V30 2030 C 196.238 -0.742868 -3.49594 0
M  V30 2031 C 195.904 -2.17114 -3.95186 0
M  V30 2032 C 194.566 -2.56169 -4.07346 0
M  V30 2033 C 196.918 -3.10162 -4.18866 0
M  V30 2034 C 194.246 -3.87469 -4.4055 0
M  V30 2035 C 196.598 -4.41001 -4.53542 0
M  V30 2036 C 195.262 -4.79941 -4.63911 0
M  V30 2037 H 194.532 -0.187903 -0.71678 0
M  V30 2038 H 197.179 -1.1288 -1.54694 0
M  V30 2039 H 195.484 -0.044586 -3.91775 0
M  V30 2040 H 197.181 -0.429767 -3.9869 0
M  V30 2041 H 193.771 -1.85801 -3.86233 0
M  V30 2042 H 197.955 -2.81206 -4.08946 0
M  V30 2043 H 193.211 -4.17371 -4.46779 0
M  V30 2044 H 197.385 -5.13133 -4.70815 0
M  V30 2045 H 195.012 -5.81719 -4.89395 0
M  V30 2046 N 196.587 1.43421 -0.653314 0
M  V30 2047 C 197.812 2.06678 -0.172846 0
M  V30 2048 C 198.237 1.48648 1.15262 0
M  V30 2049 O 197.595 0.596457 1.71208 0
M  V30 2050 C 197.643 3.60474 -0.0953184 0
M  V30 2051 O 196.747 4.01487 0.942442 0
M  V30 2052 H 196.088 0.657181 -0.0949155 0
M  V30 2053 H 198.618 1.83925 -0.896265 0
M  V30 2054 H 198.628 4.07905 0.0879728 0
M  V30 2055 H 197.303 4.02088 -1.06291 0
M  V30 2056 H 195.88 3.65646 0.731932 0
M  V30 2057 N 198.065 0.39524 1.52563 0
M  V30 2058 C 199.312 -0.185044 2.01653 0
M  V30 2059 C 199.64 -1.46317 1.28146 0
M  V30 2060 O 198.895 -1.9213 0.372074 0
M  V30 2061 C 199.194 -0.493444 3.53977 0
M  V30 2062 C 198.86 0.69384 4.4553 0
M  V30 2063 C 197.522 1.01954 4.70275 0
M  V30 2064 C 199.874 1.48785 4.99512 0
M  V30 2065 C 197.202 2.14069 5.46252 0
M  V30 2066 C 199.554 2.59965 5.76716 0
M  V30 2067 C 198.218 2.93037 5.99738 0
M  V30 2068 H 197.488 -0.0677123 0.7379 0
M  V30 2069 H 200.135 0.533807 1.8391 0
M  V30 2070 H 198.44 -1.29369 3.69825 0
M  V30 2071 H 200.137 -0.955163 3.89458 0
M  V30 2072 H 196.727 0.429987 4.26438 0
M  V30 2073 H 200.911 1.24946 4.80315 0
M  V30 2074 H 196.167 2.40056 5.62302 0
M  V30 2075 H 200.341 3.21887 6.17545 0
M  V30 2076 H 197.968 3.8003 6.58393 0
M  V30 2077 N 199.544 -1.57102 0.125237 0
M  V30 2078 C 200.96 -1.57915 -0.231322 0
M  V30 2079 C 201.16 -1.13833 -1.66266 0
M  V30 2080 O 200.216 -0.828581 -2.38518 0
M  V30 2081 C 201.529 -3.00699 0.00766489 0
M  V30 2082 C 203.077 -3.12947 -0.0577483 0
M  V30 2083 C 203.552 -4.57742 0.153626 0
M  V30 2084 N 205.043 -4.63092 0.0998073 0
M  V30 2085 C 205.778 -5.72905 0.238174 0
M  V30 2086 N 205.274 -6.91445 0.433057 0
M  V30 2087 N 207.067 -5.6182 0.177308 0
M  V30 2088 H 199.218 -1.84055 1.06007 0
M  V30 2089 H 201.481 -0.850905 0.417929 0
M  V30 2090 H 201.187 -3.3726 0.997431 0
M  V30 2091 H 201.061 -3.70236 -0.721452 0
M  V30 2092 H 203.448 -2.7624 -1.03804 0
M  V30 2093 H 203.529 -2.4594 0.70335 0
M  V30 2094 H 203.173 -4.95149 1.13092 0
M  V30 2095 H 203.103 -5.22848 -0.627534 0
M  V30 2096 H 205.594 -3.77871 -0.047051 0
M  V30 2097 H 205.907 -7.70985 0.529332 0
M  V30 2098 H 204.252 -6.93415 0.469109 0
M  V30 2099 H 207.443 -4.68093 0.0259748 0
M  V30 2100 H 207.616 -6.47357 0.288582 0
M  V30 2101 N 201.022 0.148545 -1.56898 0
M  V30 2102 C 201.972 1.1886 -1.94567 0
M  V30 2103 C 202.956 1.3863 -0.816735 0
M  V30 2104 O 204.148 1.40218 -1.08018 0
M  V30 2105 C 201.277 2.52262 -2.32849 0
M  V30 2106 C 200.363 2.36092 -3.52309 0
M  V30 2107 N 200.754 1.89674 -4.6889 0
M  V30 2108 C 199.052 2.66848 -3.57363 0
M  V30 2109 C 199.753 1.86511 -5.50989 0
M  V30 2110 N 198.729 2.29766 -4.92655 0
M  V30 2111 H 202.531 0.821793 -2.82177 0
M  V30 2112 H 200.045 0.356615 -1.58436 0
M  V30 2113 H 202.042 3.27447 -2.58039 0
M  V30 2114 H 200.702 2.89727 -1.46589 0
M  V30 2115 H 201.713 1.59663 -4.92674 0
M  V30 2116 H 198.39 3.08198 -2.81639 0
M  V30 2117 H 199.78 1.52128 -6.54452 0
M  V30 2118 N 202.5 1.5196 0.417844 0
M  V30 2119 C 203.748 1.65263 1.16329 0
M  V30 2120 C 204.069 0.380634 1.91249 0
M  V30 2121 O 203.339 -0.604214 1.86349 0
M  V30 2122 H 201.919 0.60912 0.432414 0
M  V30 2123 H 204.581 1.88969 0.477162 0
M  V30 2124 H 203.677 2.4896 1.88217 0
M  V30 2125 N 203.978 -0.674533 1.42435 0
M  V30 2126 C 205.224 -1.43671 1.43131 0
M  V30 2127 C 205.557 -1.94142 0.0476021 0
M  V30 2128 O 204.832 -1.70924 -0.928188 0
M  V30 2129 C 205.115 -2.63355 2.45594 0
M  V30 2130 C 204.968 -2.18514 3.93156 0
M  V30 2131 C 206.287 -3.65571 2.45043 0
M  V30 2132 H 203.406 -0.521077 0.521198 0
M  V30 2133 H 206.048 -0.766551 1.7385 0
M  V30 2134 H 204.198 -3.2053 2.19528 0
M  V30 2135 H 205.87 -1.66504 4.30202 0
M  V30 2136 H 204.113 -1.50086 4.07009 0
M  V30 2137 H 204.784 -3.04484 4.60428 0
M  V30 2138 H 207.26 -3.18113 2.68223 0
M  V30 2139 H 206.136 -4.46893 3.18713 0
M  V30 2140 H 206.397 -4.16716 1.47649 0
M  V30 2141 N 205.456 -1.28612 -0.910864 0
M  V30 2142 C 206.388 -1.08589 -2.01844 0
M  V30 2143 C 207.401 -0.0367419 -1.62759 0
M  V30 2144 O 208.59 -0.280101 -1.76289 0
M  V30 2145 C 205.69 -0.628626 -3.33019 0
M  V30 2146 C 204.863 -1.75382 -4.00699 0
M  V30 2147 C 203.922 -1.28945 -5.10156 0
M  V30 2148 O 202.948 -1.9922 -5.33198 0
M  V30 2149 N 204.15 -0.154224 -5.80295 0
M  V30 2150 H 206.915 -2.03973 -2.19579 0
M  V30 2151 H 204.476 -1.20403 -1.08234 0
M  V30 2152 H 206.468 -0.301508 -4.03575 0
M  V30 2153 H 205.038 0.232451 -3.11735 0
M  V30 2154 H 204.258 -2.25039 -3.23653 0
M  V30 2155 H 205.546 -2.50854 -4.42662 0
M  V30 2156 H 204.944 0.43194 -5.64049 0
M  V30 2157 H 203.501 0.113599 -6.51701 0
M  V30 2158 N 206.934 1.1197 -1.10907 0
M  V30 2159 C 207.881 2.17846 -0.762345 0
M  V30 2160 C 208.851 1.63995 0.263599 0
M  V30 2161 O 210.036 1.90273 0.141773 0
M  V30 2162 C 207.176 3.44487 -0.205651 0
M  V30 2163 C 206.289 4.12369 -1.28748 0
M  V30 2164 C 205.424 5.26674 -0.691919 0
M  V30 2165 C 204.463 5.86431 -1.75399 0
M  V30 2166 N 203.6 6.92142 -1.17833 0
M  V30 2167 H 208.44 2.46851 -1.6694 0
M  V30 2168 H 205.977 1.21188 -0.833776 0
M  V30 2169 H 207.935 4.16981 0.135037 0
M  V30 2170 H 206.565 3.15884 0.664613 0
M  V30 2171 H 205.617 3.38003 -1.74522 0
M  V30 2172 H 206.929 4.52844 -2.09125 0
M  V30 2173 H 206.083 6.05953 -0.300963 0
M  V30 2174 H 204.822 4.8749 0.143232 0
M  V30 2175 H 203.827 5.05835 -2.15432 0
M  V30 2176 H 205.052 6.27685 -2.59208 0
M  V30 2177 H 202.998 6.54985 -0.364725 0
M  V30 2178 H 202.915 7.31242 -1.91887 0
M  V30 2179 H 204.183 7.75237 -0.81408 0
M  V30 2180 N 208.412 0.89855 1.29475 0
M  V30 2181 C 209.322 0.379974 2.31502 0
M  V30 2182 C 210.338 -0.524695 1.659 0
M  V30 2183 O 211.514 -0.414551 1.97087 0
M  V30 2184 C 208.579 -0.385138 3.44554 0
M  V30 2185 C 207.64 0.550914 4.2575 0
M  V30 2186 C 206.873 -0.177778 5.33404 0
M  V30 2187 O 207.096 -1.40189 5.52904 0
M  V30 2188 O 206.03 0.479106 5.9999 0
M  V30 2189 H 209.856 1.22639 2.77837 0
M  V30 2190 H 207.441 0.662834 1.33891 0
M  V30 2191 H 209.323 -0.817841 4.13388 0
M  V30 2192 H 207.998 -1.20763 3.0033 0
M  V30 2193 H 206.905 1.03271 3.59564 0
M  V30 2194 H 208.238 1.33979 4.73614 0
M  V30 2195 N 209.89 -1.43072 0.660911 0
M  V30 2196 C 211.301 -1.84932 0.256348 0
M  V30 2197 C 211.652 -1.55325 -1.19868 0
M  V30 2198 O 210.777 -1.00607 -1.91591 0
M  V30 2199 C 211.372 -3.35684 0.458475 0
M  V30 2200 C 209.931 -3.76245 0.108161 0
M  V30 2201 C 209.078 -2.66749 0.757641 0
M  V30 2202 H 212.029 -1.33116 0.864051 0
M  V30 2203 H 212.05 -3.79365 -0.293683 0
M  V30 2204 H 211.562 -3.572 1.51755 0
M  V30 2205 H 209.663 -3.60338 -0.948014 0
M  V30 2206 H 209.776 -4.76058 0.538992 0
M  V30 2207 H 208.14 -2.53989 0.190185 0
M  V30 2208 H 208.923 -2.91092 1.81989 0
M  V30 2209 N 211.368 -0.403325 -1.52352 0
M  V30 2210 C 212.614 0.167015 -2.02713 0
M  V30 2211 C 212.969 1.43296 -1.28391 0
M  V30 2212 O 212.262 1.87796 -0.379885 0
M  V30 2213 C 212.456 0.474665 -3.54234 0
M  V30 2214 C 212.285 -0.759909 -4.43233 0
M  V30 2215 C 211.055 -1.28338 -4.88731 0
M  V30 2216 C 213.253 -1.63634 -4.87574 0
M  V30 2217 N 211.235 -2.47404 -5.6184 0
M  V30 2218 C 212.606 -2.67329 -5.59406 0
M  V30 2219 C 214.661 -1.65478 -4.69597 0
M  V30 2220 C 213.364 -3.72773 -6.15169 0
M  V30 2221 C 215.39 -2.69837 -5.26253 0
M  V30 2222 C 214.752 -3.72253 -5.98002 0
M  V30 2223 H 210.851 0.0228343 -0.781667 0
M  V30 2224 H 213.435 -0.556368 -1.86581 0
M  V30 2225 H 211.606 1.16709 -3.7045 0
M  V30 2226 H 213.338 1.03338 -3.91284 0
M  V30 2227 H 210.093 -0.842273 -4.6605 0
M  V30 2228 H 210.517 -3.07688 -6.0304 0
M  V30 2229 H 215.159 -0.876389 -4.13617 0
M  V30 2230 H 212.877 -4.51471 -6.70223 0
M  V30 2231 H 216.463 -2.72164 -5.14216 0
M  V30 2232 H 215.343 -4.51679 -6.41058 0
M  V30 2233 N 212.846 1.57033 -0.133567 0
M  V30 2234 C 213.796 2.12641 0.822671 0
M  V30 2235 C 214.78 1.05081 1.21847 0
M  V30 2236 O 215.972 1.31287 1.18713 0
M  V30 2237 C 213.101 2.74094 2.06706 0
M  V30 2238 C 212.187 3.88757 1.69497 0
M  V30 2239 N 212.578 4.95194 1.03037 0
M  V30 2240 C 210.876 3.99213 1.98859 0
M  V30 2241 C 211.577 5.75414 0.852873 0
M  V30 2242 N 210.553 5.25726 1.3825 0
M  V30 2243 H 214.355 2.92308 0.305537 0
M  V30 2244 H 211.869 1.62256 0.0684276 0
M  V30 2245 H 213.866 3.12285 2.76195 0
M  V30 2246 H 212.526 1.95896 2.5895 0
M  V30 2247 H 213.537 5.13247 0.692669 0
M  V30 2248 H 210.214 3.32075 2.53047 0
M  V30 2249 H 211.604 6.71089 0.330091 0
M  V30 2250 N 214.325 -0.140222 1.56975 0
M  V30 2251 C 215.573 -0.850005 1.83356 0
M  V30 2252 C 215.894 -1.81399 0.71551 0
M  V30 2253 O 215.164 -1.94136 -0.262294 0
M  V30 2254 H 213.744 -0.316886 0.676456 0
M  V30 2255 H 216.406 -0.132608 1.94448 0
M  V30 2256 H 215.502 -1.40814 2.78528 0
M  V30 2257 N 215.803 -1.52179 -0.40978 0
M  V30 2258 C 216.736 -1.70196 -1.52015 0
M  V30 2259 C 217.714 -0.549542 -1.53032 0
M  V30 2260 O 218.898 -0.776815 -1.71749 0
M  V30 2261 C 216.025 -1.74069 -2.90547 0
M  V30 2262 C 215.071 -2.95601 -3.07445 0
M  V30 2263 S 215.904 -4.55956 -2.80827 0
M  V30 2264 C 217.06 -4.62614 -4.21591 0
M  V30 2265 H 217.293 -2.64109 -1.36504 0
M  V30 2266 H 214.826 -1.4221 -0.601312 0
M  V30 2267 H 216.784 -1.76985 -3.70387 0
M  V30 2268 H 215.445 -0.812835 -3.034 0
M  V30 2269 H 214.638 -2.94791 -4.08796 0
M  V30 2270 H 214.24 -2.90569 -2.35469 0
M  V30 2271 H 216.532 -4.39951 -5.15218 0
M  V30 2272 H 217.475 -5.64548 -4.27424 0
M  V30 2273 H 217.883 -3.91654 -4.06531 0
M  V30 2274 N 217.281 0.66697 -1.42791 0
M  V30 2275 C 218.191 1.80962 -1.49299 0
M  V30 2276 C 219.207 1.69775 -0.381108 0
M  V30 2277 O 220.383 1.91188 -0.633188 0
M  V30 2278 C 217.448 3.17156 -1.40045 0
M  V30 2279 C 216.509 3.40242 -2.6179 0
M  V30 2280 C 215.742 4.69939 -2.52969 0
M  V30 2281 O 215.965 5.48372 -1.56985 0
M  V30 2282 O 214.899 4.94441 -3.43237 0
M  V30 2283 H 218.725 1.78427 -2.45759 0
M  V30 2284 H 216.31 0.823713 -1.24641 0
M  V30 2285 H 218.192 3.98413 -1.37276 0
M  V30 2286 H 216.867 3.20312 -0.467138 0
M  V30 2287 H 215.774 2.58802 -2.70134 0
M  V30 2288 H 217.107 3.41923 -3.54047 0
M  V30 2289 N 218.759 1.29093 0.90403 0
M  V30 2290 C 219.989 1.19516 1.68522 0
M  V30 2291 C 220.397 -0.24738 1.87576 0
M  V30 2292 O 219.74 -1.17798 1.40959 0
M  V30 2293 C 219.802 1.83249 3.0929 0
M  V30 2294 C 219.466 3.32531 3.13484 0
M  V30 2295 C 220.463 4.28821 2.93953 0
M  V30 2296 C 218.148 3.73656 3.35688 0
M  V30 2297 C 220.142 5.64212 2.96553 0
M  V30 2298 C 217.829 5.0917 3.37919 0
M  V30 2299 C 218.827 6.04258 3.18373 0
M  V30 2300 O 218.515 7.37298 3.20385 0
M  V30 2301 H 218.247 0.415467 0.533257 0
M  V30 2302 H 220.801 1.70912 1.13922 0
M  V30 2303 H 219.031 1.26358 3.65473 0
M  V30 2304 H 220.72 1.68054 3.69476 0
M  V30 2305 H 221.486 3.98382 2.76616 0
M  V30 2306 H 217.365 3.00101 3.49943 0
M  V30 2307 H 220.909 6.38407 2.81216 0
M  V30 2308 H 216.806 5.39256 3.54787 0
M  V30 2309 H 217.574 7.46048 3.36681 0
M  V30 2310 N 220.237 -1.11381 1.11499 0
M  V30 2311 C 221.462 -1.87475 0.887019 0
M  V30 2312 C 221.887 -1.79639 -0.557796 0
M  V30 2313 O 221.245 -1.15924 -1.39396 0
M  V30 2314 C 221.293 -3.34213 1.35403 0
M  V30 2315 O 220.397 -4.0903 0.526146 0
M  V30 2316 H 219.738 -0.582099 0.319463 0
M  V30 2317 H 222.268 -1.40785 1.48461 0
M  V30 2318 H 222.278 -3.8506 1.34881 0
M  V30 2319 H 220.953 -3.39232 2.40612 0
M  V30 2320 H 219.53 -3.68082 0.597522 0
M  V30 2321 N 221.715 -0.905404 -1.28997 0
M  V30 2322 C 222.663 -0.377431 -2.29517 0
M  V30 2323 C 223.657 0.526461 -1.61012 0
M  V30 2324 O 224.863 0.40863 -1.753 0
M  V30 2325 H 221.238 -0.103437 -0.744852 0
M  V30 2326 H 223.209 -1.23848 -2.71485 0
M  V30 2327 C 221.958 0.374833 -3.45674 0
M  V30 2328 H 221.281 -0.311474 -3.98585 0
M  V30 2329 H 222.721 0.70903 -4.1803 0
M  V30 2330 C 221.18 1.57963 -2.97572 0
M  V30 2331 O 221.71 2.67886 -2.99333 0
M  V30 2332 N 219.916 1.42375 -2.53333 0
M  V30 2333 H 219.463 0.529466 -2.521 0
M  V30 2334 H 219.421 2.23117 -2.21509 0
M  V30 2335 N 223.193 1.4272 -0.668489 0
M  V30 2336 C 224.421 2.05966 -0.196348 0
M  V30 2337 C 224.836 1.50191 1.14403 0
M  V30 2338 O 224.193 0.639208 1.7094 0
M  V30 2339 C 224.244 3.61314 -0.115815 0
M  V30 2340 O 223.965 4.1502 -1.40322 0
M  V30 2341 C 225.466 4.41663 0.380579 0
M  V30 2342 H 222.686 0.663954 -0.0969829 0
M  V30 2343 H 225.23 1.82966 -0.913446 0
M  V30 2344 H 223.385 3.83448 0.551931 0
M  V30 2345 H 223.799 5.08832 -1.27243 0
M  V30 2346 H 225.273 5.5065 0.385848 0
M  V30 2347 H 225.75 4.15792 1.41471 0
M  V30 2348 H 226.356 4.24534 -0.255209 0
M  V30 2349 N 224.671 0.411399 1.52136 0
M  V30 2350 C 225.919 -0.163322 2.01439 0
M  V30 2351 C 226.24 -1.45453 1.29879 0
M  V30 2352 O 225.51 -1.91225 0.4254 0
M  V30 2353 H 224.09 -0.0633447 0.744309 0
M  V30 2354 H 226.752 0.548161 1.87033 0
M  V30 2355 H 225.848 -0.357817 3.10042 0
M  V30 2356 N 226.149 -1.5696 0.141893 0
M  V30 2357 C 227.379 -2.00031 -0.516828 0
M  V30 2358 C 227.787 -1.02091 -1.59293 0
M  V30 2359 O 227.13 -0.00909657 -1.83698 0
M  V30 2360 C 227.192 -3.39534 -1.1814 0
M  V30 2361 C 226.856 -4.56313 -0.250513 0
M  V30 2362 C 227.853 -5.17295 0.519839 0
M  V30 2363 C 225.538 -5.02061 -0.154907 0
M  V30 2364 C 227.532 -6.2243 1.3733 0
M  V30 2365 C 225.219 -6.07053 0.702161 0
M  V30 2366 C 226.217 -6.67106 1.46487 0
M  V30 2367 O 225.905 -7.70066 2.30767 0
M  V30 2368 H 225.637 -0.661451 -0.139493 0
M  V30 2369 H 228.191 -2.04086 0.231926 0
M  V30 2370 H 226.421 -3.32302 -1.97769 0
M  V30 2371 H 228.11 -3.66745 -1.73933 0
M  V30 2372 H 228.876 -4.82852 0.45598 0
M  V30 2373 H 224.755 -4.5505 -0.7383 0
M  V30 2374 H 228.299 -6.69233 1.96909 0
M  V30 2375 H 224.196 -6.40923 0.76733 0
M  V30 2376 H 224.964 -7.87264 2.23959 0
M  V30 2377 N 227.627 0.131896 -1.57047 0
M  V30 2378 C 228.873 0.843179 -1.84441 0
M  V30 2379 C 229.206 1.80129 -0.725749 0
M  V30 2380 O 228.481 1.92624 0.269469 0
M  V30 2381 C 228.764 1.60442 -3.22382 0
M  V30 2382 C 228.617 0.666782 -4.4483 0
M  V30 2383 C 229.936 2.56354 -3.5773 0
M  V30 2384 H 227.055 0.305081 -0.670891 0
M  V30 2385 H 229.697 0.107839 -1.89694 0
M  V30 2386 H 227.847 2.23128 -3.18035 0
M  V30 2387 H 229.519 0.0497646 -4.61273 0
M  V30 2388 H 227.762 -0.022609 -4.33794 0
M  V30 2389 H 228.433 1.23579 -5.37989 0
M  V30 2390 H 230.909 2.0378 -3.62785 0
M  V30 2391 H 229.785 3.06657 -4.5525 0
M  V30 2392 H 230.046 3.38419 -2.84473 0
M  V30 2393 N 229.106 1.52395 0.401703 0
M  V30 2394 C 230.036 1.79231 1.49661 0
M  V30 2395 C 231.017 0.643654 1.57452 0
M  V30 2396 O 232.202 0.889989 1.72606 0
M  V30 2397 C 229.332 1.94971 2.87409 0
M  V30 2398 C 228.286 3.10604 2.94465 0
M  V30 2399 C 227.612 3.11577 4.34538 0
M  V30 2400 C 228.912 4.49921 2.6527 0
M  V30 2401 H 230.606 2.70917 1.27454 0
M  V30 2402 H 228.152 1.30362 0.6117 0
M  V30 2403 H 230.105 2.12328 3.63999 0
M  V30 2404 H 228.829 0.999632 3.10926 0
M  V30 2405 H 227.488 2.93009 2.20321 0
M  V30 2406 H 227.136 2.14277 4.55076 0
M  V30 2407 H 226.836 3.89247 4.40183 0
M  V30 2408 H 228.36 3.31073 5.13053 0
M  V30 2409 H 229.774 4.67683 3.31581 0
M  V30 2410 H 228.171 5.29564 2.82281 0
M  V30 2411 H 229.241 4.57507 1.60671 0
M  V30 2412 N 230.584 -0.659388 1.43143 0
M  V30 2413 C 231.547 -1.75432 1.47501 0
M  V30 2414 C 232.547 -1.56707 0.360512 0
M  V30 2415 O 233.737 -1.62717 0.622002 0
M  V30 2416 C 230.869 -3.14239 1.32162 0
M  V30 2417 H 232.062 -1.7295 2.45006 0
M  V30 2418 H 229.615 -0.870469 1.29817 0
M  V30 2419 H 230.35 -3.22336 0.356401 0
M  V30 2420 H 230.135 -3.29235 2.12948 0
M  V30 2421 H 231.625 -3.94094 1.3813 0
M  V30 2422 N 232.062 -1.29571 -0.897171 0
M  V30 2423 C 233.31 -1.17456 -1.64464 0
M  V30 2424 C 233.631 0.273698 -1.9307 0
M  V30 2425 O 232.901 1.18684 -1.55855 0
M  V30 2426 H 231.481 -0.431706 -0.609622 0
M  V30 2427 H 234.143 -1.62531 -1.07562 0
M  V30 2428 H 233.239 -1.72648 -2.59998 0
M  V30 2429 N 233.54 1.10788 -1.12088 0
M  V30 2430 C 234.473 2.16237 -0.729168 0
M  V30 2431 C 235.451 1.60207 0.277921 0
M  V30 2432 O 236.635 1.87707 0.172737 0
M  V30 2433 C 233.762 3.38609 -0.0786848 0
M  V30 2434 C 232.808 4.13322 -1.05201 0
M  V30 2435 S 233.641 4.69371 -2.57781 0
M  V30 2436 C 234.797 5.95058 -1.94053 0
M  V30 2437 H 235.03 2.4913 -1.62239 0
M  V30 2438 H 232.563 1.22519 -0.939603 0
M  V30 2439 H 234.521 4.09473 0.290254 0
M  V30 2440 H 233.182 3.03962 0.791593 0
M  V30 2441 H 232.375 5.01051 -0.544433 0
M  V30 2442 H 231.977 3.48251 -1.36371 0
M  V30 2443 H 234.269 6.65278 -1.28107 0
M  V30 2444 H 235.212 6.50472 -2.79807 0
M  V30 2445 H 235.62 5.46918 -1.39787 0
M  V30 2446 N 235.018 0.912232 1.28515 0
M  V30 2447 C 236.267 0.540504 1.94323 0
M  V30 2448 C 236.58 -0.920044 1.72611 0
M  V30 2449 O 237.786 -1.39986 2.32629 0
M  V30 2450 C 236.242 0.915803 3.48053 0
M  V30 2451 C 235.85 2.39598 3.78546 0
M  V30 2452 C 237.594 0.614588 4.20027 0
M  V30 2453 C 235.501 2.71148 5.25578 0
M  V30 2454 H 234.431 0.198418 0.727424 0
M  V30 2455 H 237.082 1.11094 1.46049 0
M  V30 2456 H 235.464 0.274168 3.9505 0
M  V30 2457 H 236.638 3.08422 3.42364 0
M  V30 2458 H 234.953 2.66749 3.1974 0
M  V30 2459 H 237.55 0.827002 5.28266 0
M  V30 2460 H 237.893 -0.447531 4.13887 0
M  V30 2461 H 238.426 1.21462 3.78803 0
M  V30 2462 H 235.165 3.76207 5.36794 0
M  V30 2463 H 234.685 2.0696 5.62963 0
M  V30 2464 H 236.364 2.58072 5.93302 0
M  V30 2465 N 236.496 -1.42363 0.676048 0
M  V30 2466 C 237.745 -2.00745 0.196037 0
M  V30 2467 C 238.058 -1.54083 -1.20489 0
M  V30 2468 O 239.264 -2.04891 -1.78134 0
M  V30 2469 C 237.72 -3.58651 0.299616 0
M  V30 2470 C 237.328 -4.143 1.70468 0
M  V30 2471 C 239.072 -4.24326 -0.121619 0
M  V30 2472 C 236.979 -5.64574 1.76096 0
M  V30 2473 H 235.909 -0.750787 0.0695301 0
M  V30 2474 H 238.56 -1.63072 0.841412 0
M  V30 2475 H 236.942 -3.93833 -0.413673 0
M  V30 2476 H 238.116 -3.90575 2.44515 0
M  V30 2477 H 236.431 -3.61081 2.07387 0
M  V30 2478 H 239.028 -5.34607 -0.0997362 0
M  V30 2479 H 239.371 -3.99897 -1.15708 0
M  V30 2480 H 239.904 -3.94108 0.540706 0
M  V30 2481 H 236.643 -5.93804 2.77628 0
M  V30 2482 H 236.163 -5.90286 1.06406 0
M  V30 2483 H 237.842 -6.29013 1.51496 0
M  V30 2484 N 237.974 -0.419461 -1.51915 0
M  V30 2485 C 238.937 0.389116 -2.25873 0
M  V30 2486 C 239.937 0.964924 -1.28631 0
M  V30 2487 O 241.127 0.842179 -1.52489 0
M  V30 2488 C 238.259 1.54874 -3.03689 0
M  V30 2489 H 239.452 -0.258799 -2.98781 0
M  V30 2490 H 237.005 -0.172209 -1.55348 0
M  V30 2491 H 237.74 2.23323 -2.35154 0
M  V30 2492 H 237.525 1.14223 -3.75094 0
M  V30 2493 H 239.015 2.12046 -3.59759 0
M  V30 2494 N 239.452 1.56882 -0.150215 0
M  V30 2495 C 240.402 2.13501 0.800071 0
M  V30 2496 C 241.386 1.06368 1.20726 0
M  V30 2497 O 242.578 1.32538 1.17314 0
M  V30 2498 C 239.707 2.76271 2.03787 0
M  V30 2499 C 238.793 3.90533 1.65364 0
M  V30 2500 N 239.184 4.96259 0.977794 0
M  V30 2501 C 237.482 4.013 1.94613 0
M  V30 2502 C 238.183 5.76286 0.791794 0
M  V30 2503 N 237.159 5.27163 1.32666 0
M  V30 2504 H 240.961 2.92615 0.274517 0
M  V30 2505 H 238.475 1.62319 0.0512144 0
M  V30 2506 H 240.472 3.15197 2.72867 0
M  V30 2507 H 239.132 1.98631 2.56857 0
M  V30 2508 H 240.143 5.13953 0.638193 0
M  V30 2509 H 236.82 3.3474 2.4951 0
M  V30 2510 H 238.21 6.71401 0.258894 0
M  V30 2511 N 240.93 -0.123565 1.57115 0
M  V30 2512 C 241.84 -1.17074 2.033 0
M  V30 2513 C 242.856 -1.4561 0.952559 0
M  V30 2514 O 244.032 -1.56817 1.26374 0
M  V30 2515 C 241.097 -2.47857 2.42421 0
M  V30 2516 C 240.158 -2.26758 3.64526 0
M  V30 2517 C 239.391 -3.51305 4.01771 0
M  V30 2518 O 239.614 -4.5843 3.39409 0
M  V30 2519 O 238.548 -3.42578 4.94898 0
M  V30 2520 H 242.374 -0.808555 2.92739 0
M  V30 2521 H 239.959 -0.334027 1.45618 0
M  V30 2522 H 241.841 -3.2492 2.68338 0
M  V30 2523 H 240.516 -2.83558 1.5613 0
M  V30 2524 H 239.423 -1.47569 3.43765 0
M  V30 2525 H 240.756 -1.95963 4.51508 0
M  V30 2526 N 242.408 -1.52605 -0.393616 0
M  V30 2527 C 243.636 -1.71294 -1.16043 0
M  V30 2528 C 244.051 -0.429259 -1.83855 0
M  V30 2529 O 243.408 0.595921 -1.72496 0
M  V30 2530 C 243.459 -2.8593 -2.21193 0
M  V30 2531 O 243.18 -4.09329 -1.56146 0
M  V30 2532 C 244.681 -3.16259 -3.10636 0
M  V30 2533 H 241.901 -0.573641 -0.348104 0
M  V30 2534 H 244.445 -1.99234 -0.461092 0
M  V30 2535 H 242.6 -2.60465 -2.86769 0
M  V30 2536 H 243.014 -4.73323 -2.25978 0
M  V30 2537 H 244.488 -3.99946 -3.80456 0
M  V30 2538 H 244.965 -2.3045 -3.73884 0
M  V30 2539 H 245.571 -3.43547 -2.50711 0
M  V30 2540 N 243.887 0.651787 -1.4349 0
M  V30 2541 C 245.135 1.40888 -1.44897 0
M  V30 2542 C 245.456 1.94856 -0.0749086 0
M  V30 2543 O 244.726 1.74518 0.889956 0
M  V30 2544 H 243.306 0.522887 -0.533478 0
M  V30 2545 H 245.968 0.768609 -1.79104 0
M  V30 2546 H 245.064 2.25052 -2.16236 0
M  V30 2547 N 245.365 1.30045 0.890287 0
M  V30 2548 C 246.312 1.15976 1.99545 0
M  V30 2549 C 247.282 0.0506202 1.66023 0
M  V30 2550 O 248.467 0.219847 1.89529 0
M  V30 2551 C 245.607 0.852054 3.34416 0
M  V30 2552 C 244.72 2.04255 3.80662 0
M  V30 2553 C 243.855 1.6734 5.04154 0
M  V30 2554 C 242.894 2.82916 5.42794 0
M  V30 2555 N 242.031 2.46333 6.57468 0
M  V30 2556 H 246.871 2.10524 2.10911 0
M  V30 2557 H 244.408 1.04749 1.03276 0
M  V30 2558 H 246.366 0.654296 4.12037 0
M  V30 2559 H 244.996 -0.0565502 3.2275 0
M  V30 2560 H 244.048 2.35172 2.98995 0
M  V30 2561 H 245.36 2.90826 4.05242 0
M  V30 2562 H 244.514 1.43908 5.89386 0
M  V30 2563 H 243.253 0.779308 4.81433 0
M  V30 2564 H 242.258 3.0702 4.56091 0
M  V30 2565 H 243.483 3.73004 5.6749 0
M  V30 2566 H 241.429 1.59423 6.36334 0
M  V30 2567 H 241.346 3.26436 6.81891 0
M  V30 2568 H 242.614 2.26244 7.45945 0
M  V30 2569 N 246.843 -1.10192 1.12674 0
M  V30 2570 C 248.254 -1.63707 0.897604 0
M  V30 2571 C 248.605 -1.87812 -0.567546 0
M  V30 2572 O 247.73 -1.62196 -1.43253 0
M  V30 2573 C 248.325 -2.974 1.62292 0
M  V30 2574 C 246.884 -3.47772 1.43986 0
M  V30 2575 C 246.031 -2.22332 1.65722 0
M  V30 2576 H 248.982 -0.936587 1.28116 0
M  V30 2577 H 249.003 -3.64986 1.07541 0
M  V30 2578 H 248.515 -2.79824 2.68924 0
M  V30 2579 H 246.616 -3.70487 0.396206 0
M  V30 2580 H 246.729 -4.25723 2.19765 0
M  V30 2581 H 245.093 -2.30599 1.08149 0
M  V30 2582 H 245.876 -2.07285 2.73657 0
M  V30 2583 N 248.321 -0.919034 -1.28029 0
M  V30 2584 C 249.551 -0.570143 -1.98577 0
M  V30 2585 C 249.959 0.854172 -1.68821 0
M  V30 2586 O 249.302 1.57807 -0.940351 0
M  V30 2587 C 249.364 -0.705734 -3.52505 0
M  V30 2588 C 249.028 -2.10057 -4.05863 0
M  V30 2589 C 250.025 -3.07385 -4.19298 0
M  V30 2590 C 247.71 -2.41517 -4.40426 0
M  V30 2591 C 249.704 -4.34287 -4.66555 0
M  V30 2592 C 247.391 -3.68657 -4.87376 0
M  V30 2593 C 248.389 -4.64856 -5.00398 0
M  V30 2594 O 248.077 -5.89735 -5.46322 0
M  V30 2595 H 247.809 -0.215592 -0.6407 0
M  V30 2596 H 250.363 -1.23583 -1.64062 0
M  V30 2597 H 248.593 0.0170414 -3.86696 0
M  V30 2598 H 250.282 -0.363172 -4.04272 0
M  V30 2599 H 251.048 -2.84398 -3.92865 0
M  V30 2600 H 246.927 -1.67389 -4.29537 0
M  V30 2601 H 250.471 -5.09377 -4.76635 0
M  V30 2602 H 246.368 -3.91466 -5.13249 0
M  V30 2603 H 247.136 -5.92599 -5.64596 0
M  V30 2604 N 249.799 1.42003 -0.683588 0
M  V30 2605 C 251.024 2.06265 -0.216647 0
M  V30 2606 C 251.449 1.51059 1.12083 0
M  V30 2607 O 250.807 0.632638 1.69904 0
M  V30 2608 C 250.855 3.60191 -0.171759 0
M  V30 2609 O 249.959 4.03396 0.857069 0
M  V30 2610 H 249.3 0.65502 -0.108834 0
M  V30 2611 H 251.83 1.81982 -0.935077 0
M  V30 2612 H 251.84 4.08 0.0014303 0
M  V30 2613 H 250.515 3.99743 -1.14796 0
M  V30 2614 H 249.092 3.67117 0.654208 0
M  V30 2615 N 251.277 0.427512 1.51691 0
M  V30 2616 C 252.554 -0.201684 1.94557 0
M  V30 2617 C 252.934 -1.60981 1.36559 0
M  V30 2618 O 252.282 -2.21814 0.548702 0
M  V30 2619 C 252.492 -0.189394 3.48486 0
M  V30 2620 C 253.84 -0.39978 4.22714 0
M  V30 2621 O 254.864 -0.267945 3.55191 0
M  V30 2622 O 253.723 -0.661249 5.42485 0
M  V30 2623 H 250.817 -0.135261 0.815864 0
M  V30 2624 H 253.363 0.484782 1.62628 0
M  V30 2625 H 252.135 0.795431 3.8313 0
M  V30 2626 H 251.758 -0.919187 3.86829 0
M  V30 2627 N 252.755 -1.56801 0.158532 0
M  V30 2628 C 253.705 -2.13923 -0.788738 0
M  V30 2629 C 254.689 -1.07006 -1.2016 0
M  V30 2630 O 255.881 -1.33159 -1.1661 0
M  V30 2631 C 253.01 -2.77348 -2.02319 0
M  V30 2632 C 252.096 -3.91404 -1.6329 0
M  V30 2633 N 252.487 -4.9677 -0.951463 0
M  V30 2634 C 250.785 -4.02326 -1.92482 0
M  V30 2635 C 251.486 -5.76698 -0.761221 0
M  V30 2636 N 250.462 -5.27859 -1.29869 0
M  V30 2637 H 254.264 -2.92757 -0.258995 0
M  V30 2638 H 251.778 -1.62344 -0.0426055 0
M  V30 2639 H 253.775 -3.16639 -2.71192 0
M  V30 2640 H 252.435 -1.99991 -2.558 0
M  V30 2641 H 253.446 -5.14284 -0.610928 0
M  V30 2642 H 250.123 -3.36059 -2.47732 0
M  V30 2643 H 251.513 -6.71529 -0.223284 0
M  V30 2644 N 254.233 0.115231 -1.57178 0
M  V30 2645 C 255.163 1.1423 -2.03651 0
M  V30 2646 C 256.144 1.42967 -0.921655 0
M  V30 2647 O 257.329 1.53343 -1.19162 0
M  V30 2648 C 254.459 2.4675 -2.44401 0
M  V30 2649 C 253.413 2.32467 -3.59365 0
M  V30 2650 C 252.739 3.69984 -3.86026 0
M  V30 2651 C 254.039 1.78203 -4.90959 0
M  V30 2652 H 255.733 0.755749 -2.89705 0
M  V30 2653 H 253.279 0.362093 -1.39373 0
M  V30 2654 H 255.232 3.18854 -2.75517 0
M  V30 2655 H 253.956 2.87302 -1.55322 0
M  V30 2656 H 252.615 1.62811 -3.28463 0
M  V30 2657 H 252.263 4.08028 -2.94147 0
M  V30 2658 H 251.963 3.61279 -4.63412 0
M  V30 2659 H 253.487 4.43587 -4.19599 0
M  V30 2660 H 254.901 2.40128 -5.20587 0
M  V30 2661 H 253.298 1.8031 -5.72371 0
M  V30 2662 H 254.368 0.739876 -4.79222 0
M  V30 2663 N 255.711 1.52812 0.385517 0
M  V30 2664 C 257.127 1.4214 0.725829 0
M  V30 2665 C 257.327 0.544589 1.94001 0
M  V30 2666 O 256.383 0.0193693 2.52493 0
M  V30 2667 C 257.696 2.85042 0.957668 0
M  V30 2668 C 259.244 2.94543 1.05892 0
M  V30 2669 C 259.719 4.38464 1.32337 0
M  V30 2670 N 261.21 4.41804 1.39151 0
M  V30 2671 C 261.945 5.5025 1.61285 0
M  V30 2672 N 261.441 6.68775 1.80866 0
M  V30 2673 N 263.234 5.37798 1.63492 0
M  V30 2674 H 255.385 2.08338 -0.413383 0
M  V30 2675 H 257.648 0.940016 -0.122775 0
M  V30 2676 H 257.354 3.51431 0.137568 0
M  V30 2677 H 257.228 3.27505 1.87137 0
M  V30 2678 H 259.615 2.28321 1.86959 0
M  V30 2679 H 259.696 2.55504 0.123057 0
M  V30 2680 H 259.34 5.05254 0.517793 0
M  V30 2681 H 259.27 4.75059 2.27214 0
M  V30 2682 H 261.761 3.56377 1.25713 0
M  V30 2683 H 262.074 7.47197 1.97271 0
M  V30 2684 H 260.419 6.71797 1.78083 0
M  V30 2685 H 263.61 4.44171 1.47749 0
M  V30 2686 H 263.783 6.22382 1.80402 0
M  V30 2687 N 257.189 -0.644168 1.43834 0
M  V30 2688 C 258.414 -1.43642 1.49605 0
M  V30 2689 C 258.839 -1.8773 0.117913 0
M  V30 2690 O 258.197 -1.57938 -0.890239 0
M  V30 2691 C 258.245 -2.6416 2.45463 0
M  V30 2692 O 257.349 -3.63538 1.94714 0
M  V30 2693 H 256.69 -0.430329 0.50568 0
M  V30 2694 H 259.22 -0.787448 1.8884 0
M  V30 2695 H 259.23 -3.11864 2.63068 0
M  V30 2696 H 257.905 -2.31414 3.45572 0
M  V30 2697 H 256.482 -3.2273 1.86814 0
M  V30 2698 N 258.668 -1.30515 -0.883378 0
M  V30 2699 C 260.084 -1.08881 -1.16692 0
M  V30 2700 C 260.284 0.149409 -2.00945 0
M  V30 2701 O 259.34 0.84257 -2.38027 0
M  V30 2702 C 260.653 -2.35319 -1.87204 0
M  V30 2703 C 262.201 -2.40799 -1.99962 0
M  V30 2704 C 262.676 -3.67083 -2.73887 0
M  V30 2705 N 264.167 -3.679 -2.81432 0
M  V30 2706 C 264.902 -4.62303 -3.3921 0
M  V30 2707 N 264.398 -5.67052 -3.98025 0
M  V30 2708 N 266.191 -4.49845 -3.3704 0
M  V30 2709 H 258.342 -2.09951 -0.321633 0
M  V30 2710 H 260.605 -0.92556 -0.205043 0
M  V30 2711 H 260.311 -3.25689 -1.3274 0
M  V30 2712 H 260.185 -2.44089 -2.87577 0
M  V30 2713 H 262.572 -1.50907 -2.53597 0
M  V30 2714 H 262.653 -2.36003 -0.98673 0
M  V30 2715 H 262.297 -4.57334 -2.20925 0
M  V30 2716 H 262.227 -3.69141 -3.75556 0
M  V30 2717 H 264.718 -2.92171 -2.39676 0
M  V30 2718 H 265.031 -6.35184 -4.40183 0
M  V30 2719 H 263.376 -5.70842 -3.96439 0
M  V30 2720 H 266.567 -3.67194 -2.90321 0
M  V30 2721 H 266.74 -5.23597 -3.81772 0
M  V30 2722 N 260.146 1.09593 -1.13257 0
M  V30 2723 C 261.395 1.81105 -0.887917 0
M  V30 2724 C 261.708 1.86563 0.587672 0
M  V30 2725 O 262.914 2.54367 0.949204 0
M  V30 2726 C 261.37 3.25338 -1.53895 0
M  V30 2727 C 260.978 3.28151 -3.04994 0
M  V30 2728 C 262.722 4.01617 -1.37492 0
M  V30 2729 C 260.629 4.66897 -3.6299 0
M  V30 2730 H 259.559 0.678661 -0.328534 0
M  V30 2731 H 262.21 1.23183 -1.36008 0
M  V30 2732 H 260.592 3.8331 -0.994446 0
M  V30 2733 H 261.766 2.79953 -3.66009 0
M  V30 2734 H 260.081 2.65361 -3.20893 0
M  V30 2735 H 262.678 5.04119 -1.78235 0
M  V30 2736 H 263.021 4.15072 -0.31957 0
M  V30 2737 H 263.554 3.50082 -1.88912 0
M  V30 2738 H 260.293 4.58643 -4.68323 0
M  V30 2739 H 259.813 5.15426 -3.06752 0
M  V30 2740 H 261.492 5.3587 -3.62563 0
M  V30 2741 N 261.624 0.925811 1.2754 0
M  V30 2742 C 262.871 0.565255 1.94451 0
M  V30 2743 C 263.199 -0.89316 1.7278 0
M  V30 2744 O 262.454 -1.65213 1.04895 0
M  V30 2745 C 262.753 0.835296 3.47502 0
M  V30 2746 C 262.419 2.27515 3.89291 0
M  V30 2747 C 261.081 2.66879 4.00411 0
M  V30 2748 C 263.433 3.21158 4.10496 0
M  V30 2749 C 260.761 3.99014 4.30122 0
M  V30 2750 C 263.113 4.52871 4.4169 0
M  V30 2751 C 261.777 4.92072 4.51023 0
M  V30 2752 H 261.047 0.206841 0.711546 0
M  V30 2753 H 263.694 1.16942 1.51647 0
M  V30 2754 H 261.999 0.148442 3.91519 0
M  V30 2755 H 263.696 0.535322 3.97411 0
M  V30 2756 H 260.286 1.95976 3.81171 0
M  V30 2757 H 264.47 2.9195 4.01346 0
M  V30 2758 H 259.726 4.2907 4.35556 0
M  V30 2759 H 263.9 5.25436 4.57045 0
M  V30 2760 H 261.527 5.9449 4.738 0
M  V30 2761 N 263.102 -1.41638 0.69111 0
M  V30 2762 C 264.065 -2.29178 0.0319786 0
M  V30 2763 C 265.065 -1.44153 -0.712496 0
M  V30 2764 O 266.255 -1.65354 -0.548053 0
M  V30 2765 C 263.387 -3.26952 -0.965161 0
M  V30 2766 H 264.58 -2.88959 0.802681 0
M  V30 2767 H 262.133 -1.4955 0.454356 0
M  V30 2768 H 262.868 -2.72142 -1.76378 0
M  V30 2769 H 262.653 -3.89685 -0.434522 0
M  V30 2770 H 264.143 -3.92561 -1.42428 0
M  V30 2771 N 264.58 -0.43555 -1.51462 0
M  V30 2772 C 265.991 0.0279871 -1.86679 0
M  V30 2773 C 266.342 1.42104 -1.35281 0
M  V30 2774 O 265.467 2.04667 -0.702878 0
M  V30 2775 C 266.062 0.0575626 -3.38751 0
M  V30 2776 C 264.621 0.465507 -3.7351 0
M  V30 2777 C 263.768 -0.342996 -2.75171 0
M  V30 2778 H 266.719 -0.651473 -1.44712 0
M  V30 2779 H 266.74 0.867421 -3.70481 0
M  V30 2780 H 266.252 -0.956448 -3.7613 0
M  V30 2781 H 264.353 1.48519 -3.41721 0
M  V30 2782 H 264.466 0.191546 -4.78717 0
M  V30 2783 H 262.83 0.198442 -2.53926 0
M  V30 2784 H 263.613 -1.35585 -3.15391 0
M  V30 2785 N 266.058 1.56714 -0.166846 0
M  V30 2786 C 266.988 2.20754 0.760913 0
M  V30 2787 C 267.969 1.16178 1.24244 0
M  V30 2788 O 269.154 1.44592 1.29641 0
M  V30 2789 C 266.284 2.84478 1.99223 0
M  V30 2790 C 265.238 3.95053 1.64672 0
M  V30 2791 C 264.564 4.45805 2.95232 0
M  V30 2792 C 265.864 5.14865 0.878155 0
M  V30 2793 H 267.558 2.98537 0.22713 0
M  V30 2794 H 265.104 1.43596 0.107805 0
M  V30 2795 H 267.057 3.27951 2.64624 0
M  V30 2796 H 265.781 2.04056 2.55007 0
M  V30 2797 H 264.44 3.52228 1.01641 0
M  V30 2798 H 264.088 3.62181 3.49047 0
M  V30 2799 H 263.788 5.204 2.7287 0
M  V30 2800 H 265.312 4.91962 3.6167 0
M  V30 2801 H 266.726 5.55059 1.43466 0
M  V30 2802 H 265.123 5.95348 0.753738 0
M  V30 2803 H 266.193 4.84735 -0.126377 0
M  V30 2804 N 267.536 -0.106894 1.57237 0
M  V30 2805 C 268.784 -0.810921 1.85117 0
M  V30 2806 C 269.105 -1.7984 0.753827 0
M  V30 2807 O 268.375 -1.94649 -0.221056 0
M  V30 2808 H 266.955 -0.302466 0.683025 0
M  V30 2809 H 269.617 -0.0913324 1.94686 0
M  V30 2810 H 268.713 -1.34875 2.81452 0
M  V30 2811 N 269.014 -1.53014 -0.377408 0
M  V30 2812 C 269.947 -1.73382 -1.48371 0
M  V30 2813 C 270.925 -0.581879 -1.51832 0
M  V30 2814 O 272.109 -0.81307 -1.70063 0
M  V30 2815 C 269.236 -1.80192 -2.8679 0
M  V30 2816 C 268.282 -3.02056 -3.01105 0
M  V30 2817 S 269.115 -4.61811 -2.71093 0
M  V30 2818 C 270.271 -4.71453 -4.11683 0
M  V30 2819 H 270.504 -2.66946 -1.30872 0
M  V30 2820 H 268.037 -1.43453 -0.571012 0
M  V30 2821 H 269.995 -1.84802 -3.6655 0
M  V30 2822 H 268.656 -0.877008 -3.01608 0
M  V30 2823 H 267.849 -3.03396 -4.02451 0
M  V30 2824 H 267.451 -2.95498 -2.29253 0
M  V30 2825 H 269.743 -4.50781 -5.0577 0
M  V30 2826 H 270.686 -5.73487 -4.15353 0
M  V30 2827 H 271.094 -4.00189 -3.98132 0
M  V30 2828 N 270.492 0.636531 -1.44174 0
M  V30 2829 C 271.439 1.74875 -1.50624 0
M  V30 2830 C 272.409 1.62275 -0.35442 0
M  V30 2831 O 273.594 1.82276 -0.563908 0
M  V30 2832 C 270.734 3.13102 -1.45125 0
M  V30 2833 C 269.847 3.36717 -2.7064 0
M  V30 2834 C 268.982 4.64885 -2.57013 0
M  V30 2835 C 268.021 4.8166 -3.77717 0
M  V30 2836 N 267.158 6.01101 -3.62798 0
M  V30 2837 H 271.998 1.68697 -2.45653 0
M  V30 2838 H 269.535 0.823004 -1.21922 0
M  V30 2839 H 271.493 3.93034 -1.39929 0
M  V30 2840 H 270.123 3.18308 -0.536671 0
M  V30 2841 H 269.175 2.50763 -2.86046 0
M  V30 2842 H 270.487 3.44993 -3.60252 0
M  V30 2843 H 269.641 5.52969 -2.49619 0
M  V30 2844 H 268.38 4.58957 -1.64953 0
M  V30 2845 H 267.385 3.92007 -3.85501 0
M  V30 2846 H 268.61 4.89406 -4.70807 0
M  V30 2847 H 266.556 5.96273 -2.73486 0
M  V30 2848 H 266.473 6.10409 -4.46023 0
M  V30 2849 H 267.741 6.91761 -3.59286 0
M  V30 2850 N 271.97 1.30982 0.876444 0
M  V30 2851 C 273.247 1.10942 1.61094 0
M  V30 2852 C 273.627 -0.338223 2.08373 0
M  V30 2853 O 272.975 -1.33122 1.85717 0
M  V30 2854 C 273.185 2.11789 2.77392 0
M  V30 2855 C 274.533 2.43965 3.47514 0
M  V30 2856 O 275.557 2.10166 2.87591 0
M  V30 2857 O 274.416 3.01817 4.55597 0
M  V30 2858 H 271.51 0.42667 0.708436 0
M  V30 2859 H 274.056 1.42438 0.922474 0
M  V30 2860 H 272.828 3.09194 2.39823 0
M  V30 2861 H 272.451 1.81161 3.5393 0
M  V30 2862 N 273.449 -1.08991 1.13837 0
M  V30 2863 C 274.677 -1.85011 0.926202 0
M  V30 2864 C 275.092 -1.8135 -0.525127 0
M  V30 2865 O 274.449 -1.21287 -1.36366 0
M  V30 2866 C 274.5 -3.32802 1.41155 0
M  V30 2867 O 274.221 -3.36444 2.80601 0
M  V30 2868 C 275.722 -4.25649 1.23847 0
M  V30 2869 H 272.942 -0.584249 0.32999 0
M  V30 2870 H 275.486 -1.37688 1.51202 0
M  V30 2871 H 273.641 -3.77536 0.868631 0
M  V30 2872 H 274.055 -4.28657 3.02248 0
M  V30 2873 H 275.529 -5.27485 1.62675 0
M  V30 2874 H 276.006 -4.38828 0.18065 0
M  V30 2875 H 276.612 -3.86735 1.76964 0
M  V30 2876 N 274.927 -0.932562 -1.27047 0
M  V30 2877 C 276.173 -0.585913 -1.94778 0
M  V30 2878 C 276.528 0.864142 -1.71902 0
M  V30 2879 O 275.821 1.60894 -1.04037 0
M  V30 2880 C 276.015 -0.853713 -3.47054 0
M  V30 2881 C 275.844 -2.32825 -3.84737 0
M  V30 2882 C 274.614 -2.98184 -4.07939 0
M  V30 2883 C 276.812 -3.30612 -3.93954 0
M  V30 2884 N 274.794 -4.3574 -4.3244 0
M  V30 2885 C 276.165 -4.53395 -4.22887 0
M  V30 2886 C 278.22 -3.25755 -3.76548 0
M  V30 2887 C 276.923 -5.71927 -4.36224 0
M  V30 2888 C 278.949 -4.43604 -3.91113 0
M  V30 2889 C 278.311 -5.65166 -4.20437 0
M  V30 2890 H 274.41 -0.264617 -0.735868 0
M  V30 2891 H 276.994 -1.20019 -1.53309 0
M  V30 2892 H 275.165 -0.268557 -3.8747 0
M  V30 2893 H 276.897 -0.469202 -4.01971 0
M  V30 2894 H 273.652 -2.48835 -4.02961 0
M  V30 2895 H 274.076 -5.06915 -4.48738 0
M  V30 2896 H 278.718 -2.32835 -3.52913 0
M  V30 2897 H 276.436 -6.65308 -4.58683 0
M  V30 2898 H 280.022 -4.41368 -3.79059 0
M  V30 2899 H 278.902 -6.54836 -4.31462 0
M  V30 2900 N 276.405 1.4127 -0.698611 0
M  V30 2901 C 277.651 2.01478 -0.231207 0
M  V30 2902 C 277.984 1.55215 1.16713 0
M  V30 2903 O 277.259 0.764672 1.78838 0
M  V30 2904 C 277.542 3.58912 -0.292281 0
M  V30 2905 C 277.395 4.15293 -1.72778 0
M  V30 2906 C 278.714 4.38736 0.346194 0
M  V30 2907 H 275.833 0.732025 -0.0854878 0
M  V30 2908 H 278.475 1.67977 -0.887906 0
M  V30 2909 H 276.625 3.87582 0.26686 0
M  V30 2910 H 278.297 3.97486 -2.341 0
M  V30 2911 H 276.54 3.7022 -2.26096 0
M  V30 2912 H 277.211 5.24452 -1.72202 0
M  V30 2913 H 279.687 4.15897 -0.130035 0
M  V30 2914 H 278.563 5.48221 0.272932 0
M  V30 2915 H 278.824 4.18425 1.42734 0
M  V30 2916 N 277.883 0.443576 1.51229 0
M  V30 2917 C 279.131 -0.120557 2.0174 0
M  V30 2918 C 279.452 -1.42665 1.32935 0
M  V30 2919 O 278.722 -1.9028 0.465866 0
M  V30 2920 H 277.302 -0.0475426 0.745486 0
M  V30 2921 H 279.964 0.587711 1.85828 0
M  V30 2922 H 279.06 -0.291972 3.10731 0
M  V30 2923 N 279.361 -1.56624 0.175154 0
M  V30 2924 C 280.589 -2.01374 -0.474971 0
M  V30 2925 C 281.004 -1.05537 -1.56548 0
M  V30 2926 O 280.361 -0.0568668 -1.82411 0
M  V30 2927 C 280.412 -3.45923 -1.04975 0
M  V30 2928 O 280.133 -4.381 -0.00276605 0
M  V30 2929 C 281.634 -4.06093 -1.77773 0
M  V30 2930 H 278.854 -0.659962 -0.121206 0
M  V30 2931 H 281.398 -2.02601 0.27801 0
M  V30 2932 H 279.553 -3.45458 -1.75321 0
M  V30 2933 H 279.967 -5.22753 -0.427681 0
M  V30 2934 H 281.441 -5.09147 -2.13245 0
M  V30 2935 H 281.918 -3.48405 -2.67414 0
M  V30 2936 H 282.524 -4.10272 -1.12059 0
M  V30 2937 N 280.839 0.0985539 -1.57292 0
M  V30 2938 C 281.789 1.1261 -1.9825 0
M  V30 2939 C 282.773 1.35961 -0.860426 0
M  V30 2940 O 283.965 1.36711 -1.12424 0
M  V30 2941 C 281.094 2.44727 -2.40757 0
M  V30 2942 C 280.18 2.24764 -3.59642 0
M  V30 2943 N 280.571 1.74661 -4.74687 0
M  V30 2944 C 278.869 2.55344 -3.65672 0
M  V30 2945 C 279.57 1.68887 -5.56644 0
M  V30 2946 N 278.546 2.13976 -4.99715 0
M  V30 2947 H 282.348 0.731604 -2.84648 0
M  V30 2948 H 279.862 0.306029 -1.59491 0
M  V30 2949 H 281.859 3.19072 -2.68326 0
M  V30 2950 H 280.519 2.84917 -1.55733 0
M  V30 2951 H 281.53 1.43908 -4.97505 0
M  V30 2952 H 278.207 2.99081 -2.91302 0
M  V30 2953 H 279.597 1.3123 -6.5896 0
M  V30 2954 N 282.317 1.53212 0.369288 0
M  V30 2955 C 283.227 1.82342 1.47609 0
M  V30 2956 C 284.243 0.711532 1.58787 0
M  V30 2957 O 285.419 1.0012 1.74751 0
M  V30 2958 C 282.484 2.00393 2.8292 0
M  V30 2959 C 281.545 3.24297 2.81301 0
M  V30 2960 C 280.778 3.41478 4.10157 0
M  V30 2961 O 281.001 2.63033 5.06132 0
M  V30 2962 O 279.935 4.34817 4.16194 0
M  V30 2963 H 283.761 2.76366 1.25918 0
M  V30 2964 H 281.346 1.38547 0.559034 0
M  V30 2965 H 283.228 2.13859 3.63101 0
M  V30 2966 H 281.903 1.09559 3.04596 0
M  V30 2967 H 280.81 3.16257 1.99831 0
M  V30 2968 H 282.143 4.15041 2.64578 0
M  V30 2969 N 283.795 -0.628877 1.44509 0
M  V30 2970 C 285.023 -1.41554 1.50897 0
M  V30 2971 C 285.438 -1.8832 0.134564 0
M  V30 2972 O 284.795 -1.60969 -0.859965 0
M  V30 2973 C 284.846 -2.63435 2.47556 0
M  V30 2974 O 284.567 -2.18619 3.79654 0
M  V30 2975 C 286.068 -3.56537 2.63431 0
M  V30 2976 H 283.288 -0.434044 0.511709 0
M  V30 2977 H 285.832 -0.768895 1.89495 0
M  V30 2978 H 283.987 -3.24187 2.12089 0
M  V30 2979 H 284.401 -2.97652 4.31861 0
M  V30 2980 H 285.875 -4.38657 3.35088 0
M  V30 2981 H 286.352 -4.05493 1.68738 0
M  V30 2982 H 286.958 -3.01653 2.9981 0
M  V30 2983 N 285.273 -1.31445 -0.869486 0
M  V30 2984 C 286.52 -1.21158 -1.62256 0
M  V30 2985 C 286.848 0.230155 -1.93133 0
M  V30 2986 O 286.103 1.17906 -1.56194 0
M  V30 2987 C 286.402 -2.00145 -2.96102 0
M  V30 2988 C 286.068 -3.4964 -2.84715 0
M  V30 2989 C 284.73 -3.90403 -2.81317 0
M  V30 2990 C 287.082 -4.44769 -2.71716 0
M  V30 2991 C 284.41 -5.24561 -2.62778 0
M  V30 2992 C 286.762 -5.79054 -2.54714 0
M  V30 2993 C 285.426 -6.19037 -2.49699 0
M  V30 2994 H 284.696 -0.443348 -0.593737 0
M  V30 2995 H 287.343 -1.62715 -1.00976 0
M  V30 2996 H 285.648 -1.5127 -3.6142 0
M  V30 2997 H 287.345 -1.89566 -3.53363 0
M  V30 2998 H 283.935 -3.17256 -2.88178 0
M  V30 2999 H 288.119 -4.14208 -2.73397 0
M  V30 3000 H 283.375 -5.54613 -2.57321 0
M  V30 3001 H 287.549 -6.52393 -2.43632 0
M  V30 3002 H 285.176 -7.22935 -2.35093 0
M  V30 3003 N 286.751 1.08385 -1.14413 0
M  V30 3004 C 288.162 1.62258 -0.923535 0
M  V30 3005 C 288.513 1.88691 0.537595 0
M  V30 3006 O 287.638 1.64454 1.40655 0
M  V30 3007 C 288.233 2.94781 -1.67002 0
M  V30 3008 C 286.792 3.45437 -1.495 0
M  V30 3009 C 285.939 2.19668 -1.69238 0
M  V30 3010 H 288.89 0.916086 -1.2959 0
M  V30 3011 H 288.911 3.63229 -1.13334 0
M  V30 3012 H 288.423 2.7551 -2.73342 0
M  V30 3013 H 286.524 3.6981 -0.455097 0
M  V30 3014 H 286.637 4.22173 -2.2651 0
M  V30 3015 H 285.001 2.28849 -1.11804 0
M  V30 3016 H 285.784 2.02905 -2.7692 0
M  V30 3017 N 288.23 0.939286 1.26551 0
M  V30 3018 C 289.479 0.581601 1.93133 0
M  V30 3019 C 289.792 -0.883224 1.74524 0
M  V30 3020 O 290.998 -1.3502 2.35546 0
M  V30 3021 C 289.454 0.989425 3.46032 0
M  V30 3022 C 289.062 2.47573 3.73379 0
M  V30 3023 C 290.806 0.703544 4.18629 0
M  V30 3024 C 288.713 2.82235 5.19709 0
M  V30 3025 H 287.643 0.213803 0.723052 0
M  V30 3026 H 290.294 1.14167 1.4366 0
M  V30 3027 H 288.676 0.357902 3.94379 0
M  V30 3028 H 289.85 3.15614 3.35744 0
M  V30 3029 H 288.165 2.73471 3.1401 0
M  V30 3030 H 290.762 0.938869 5.26393 0
M  V30 3031 H 291.105 -0.359639 4.14744 0
M  V30 3032 H 291.638 1.2947 3.76141 0
M  V30 3033 H 288.377 3.87509 5.28694 0
M  V30 3034 H 287.897 2.18854 5.58447 0
M  V30 3035 H 289.576 2.70599 5.87695 0
M  V30 3036 N 289.708 -1.40897 0.706093 0
M  V30 3037 C 290.618 -2.3455 0.0482286 0
M  V30 3038 C 291.634 -1.56796 -0.754396 0
M  V30 3039 O 292.81 -1.89228 -0.689538 0
M  V30 3040 C 289.875 -3.35625 -0.869303 0
M  V30 3041 C 288.936 -4.29261 -0.0576994 0
M  V30 3042 C 288.169 -5.25508 -0.931531 0
M  V30 3043 O 288.392 -5.27472 -2.17092 0
M  V30 3044 O 287.326 -6.00727 -0.375587 0
M  V30 3045 H 291.152 -2.92407 0.820476 0
M  V30 3046 H 288.737 -1.4193 0.4665 0
M  V30 3047 H 290.619 -3.97635 -1.39514 0
M  V30 3048 H 289.294 -2.80196 -1.62086 0
M  V30 3049 H 288.201 -3.70566 0.512988 0
M  V30 3050 H 289.534 -4.87817 0.655426 0
M  V30 3051 N 291.186 -0.45159 -1.50991 0
M  V30 3052 C 292.602 -0.104647 -1.59257 0
M  V30 3053 C 292.802 1.38728 -1.4614 0
M  V30 3054 O 291.858 2.15866 -1.30989 0
M  V30 3055 C 293.171 -0.637468 -2.93865 0
M  V30 3056 C 294.719 -0.599166 -3.07212 0
M  V30 3057 C 295.194 -1.1092 -4.44366 0
M  V30 3058 N 296.685 -1.06778 -4.50725 0
M  V30 3059 C 297.42 -1.43314 -5.55201 0
M  V30 3060 N 296.916 -1.87204 -6.67028 0
M  V30 3061 N 298.709 -1.3504 -5.45638 0
M  V30 3062 H 290.86 -1.42214 -1.57762 0
M  V30 3063 H 293.123 -0.586921 -0.744465 0
M  V30 3064 H 292.829 -1.68187 -3.08879 0
M  V30 3065 H 292.703 -0.0702139 -3.77135 0
M  V30 3066 H 295.09 0.436277 -2.91857 0
M  V30 3067 H 295.171 -1.20299 -2.25747 0
M  V30 3068 H 294.815 -2.14318 -4.60467 0
M  V30 3069 H 294.745 -0.481773 -5.24392 0
M  V30 3070 H 297.236 -0.745643 -3.70471 0
M  V30 3071 H 297.549 -2.13282 -7.42786 0
M  V30 3072 H 295.894 -1.91142 -6.68199 0
M  V30 3073 H 299.085 -1.00607 -4.57161 0
M  V30 3074 H 299.258 -1.63841 -6.26945 0
M  V30 3075 N 292.664 1.56529 -0.183458 0
M  V30 3076 C 293.574 2.22144 0.754272 0
M  V30 3077 C 294.59 1.21684 1.24374 0
M  V30 3078 O 295.766 1.54385 1.29333 0
M  V30 3079 C 292.831 2.85884 1.96141 0
M  V30 3080 C 291.892 4.01579 1.51765 0
M  V30 3081 C 291.125 4.6227 2.66725 0
M  V30 3082 O 291.348 4.21865 3.83909 0
M  V30 3083 O 290.282 5.51936 2.40104 0
M  V30 3084 H 294.108 3.02861 0.225527 0
M  V30 3085 H 291.693 1.49331 0.0453032 0
M  V30 3086 H 293.575 3.26253 2.66715 0
M  V30 3087 H 292.25 2.08154 2.47899 0
M  V30 3088 H 291.157 3.65856 0.781049 0
M  V30 3089 H 292.49 4.80938 1.04686 0
M  V30 3090 N 294.142 -0.090211 1.57342 0
M  V30 3091 C 295.105 -1.09335 2.01441 0
M  V30 3092 C 296.105 -1.32666 0.908641 0
M  V30 3093 O 297.295 -1.28697 1.174 0
M  V30 3094 C 294.427 -2.44136 2.3793 0
M  V30 3095 H 295.62 -0.713662 2.91285 0
M  V30 3096 H 293.173 -0.335404 1.52659 0
M  V30 3097 H 293.908 -2.86972 1.51055 0
M  V30 3098 H 293.693 -2.28548 3.18603 0
M  V30 3099 H 295.183 -3.16277 2.72688 0
M  V30 3100 N 295.62 -1.53406 -0.361157 0
M  V30 3101 C 297.036 -1.43277 -0.703124 0
M  V30 3102 C 297.236 -0.575384 -1.9311 0
M  V30 3103 O 296.292 -0.0595362 -2.5243 0
M  V30 3104 C 297.605 -2.8653 -0.9122 0
M  V30 3105 C 299.153 -2.96191 -1.01193 0
M  V30 3106 C 299.628 -4.40514 -1.25345 0
M  V30 3107 N 301.119 -4.43962 -1.32105 0
M  V30 3108 C 301.854 -5.52746 -1.5251 0
M  V30 3109 N 301.35 -6.71567 -1.70203 0
M  V30 3110 N 303.143 -5.40331 -1.54916 0
M  V30 3111 H 295.294 -2.07654 0.446475 0
M  V30 3112 H 297.557 -0.937944 0.137715 0
M  V30 3113 H 297.263 -3.51605 -0.0816414 0
M  V30 3114 H 297.137 -3.30441 -1.81903 0
M  V30 3115 H 299.524 -2.31266 -1.83303 0
M  V30 3116 H 299.605 -2.55667 -0.0823929 0
M  V30 3117 H 299.249 -5.06014 -0.437346 0
M  V30 3118 H 299.179 -4.78614 -2.19627 0
M  V30 3119 H 301.67 -3.58332 -1.20028 0
M  V30 3120 H 301.983 -7.50241 -1.85359 0
M  V30 3121 H 300.328 -6.74545 -1.67373 0
M  V30 3122 H 303.519 -4.46465 -1.40663 0
M  V30 3123 H 303.692 -6.25173 -1.70477 0
M  V30 3124 N 297.098 0.621204 -1.44841 0
M  V30 3125 C 298.346 1.37783 -1.47852 0
M  V30 3126 C 298.667 1.94653 -0.116224 0
M  V30 3127 O 297.937 1.76367 0.852737 0
M  V30 3128 H 296.517 0.511453 -0.544449 0
M  V30 3129 H 299.179 0.730446 -1.80694 0
M  V30 3130 H 298.275 2.20414 -2.20961 0
M  V30 3131 N 298.576 1.31904 0.862503 0
M  V30 3132 C 299.806 1.24817 1.64634 0
M  V30 3133 C 300.214 -0.187579 1.88268 0
M  V30 3134 O 299.557 -1.13253 1.44635 0
M  V30 3135 C 299.619 1.92996 3.03303 0
M  V30 3136 C 299.283 3.42336 3.02746 0
M  V30 3137 C 300.28 4.37956 2.80162 0
M  V30 3138 C 297.965 3.84147 3.2363 0
M  V30 3139 C 299.959 5.73361 2.78453 0
M  V30 3140 C 297.646 5.19663 3.21549 0
M  V30 3141 C 298.644 6.14081 2.98988 0
M  V30 3142 O 298.332 7.47118 2.96766 0
M  V30 3143 H 298.064 0.432222 0.519769 0
M  V30 3144 H 300.618 1.7445 1.08427 0
M  V30 3145 H 298.848 1.37922 3.61268 0
M  V30 3146 H 300.537 1.79723 3.63943 0
M  V30 3147 H 301.303 4.06981 2.63802 0
M  V30 3148 H 297.182 3.11083 3.40218 0
M  V30 3149 H 300.726 6.4703 2.60763 0
M  V30 3150 H 296.623 5.5027 3.37451 0
M  V30 3151 H 297.391 7.56382 3.12775 0
M  V30 3152 N 300.054 -1.07777 1.14986 0
M  V30 3153 C 300.987 -2.14228 0.786243 0
M  V30 3154 C 301.965 -1.60888 -0.235347 0
M  V30 3155 O 303.149 -1.88099 -0.122909 0
M  V30 3156 C 300.276 -3.38281 0.168433 0
M  V30 3157 C 299.322 -4.10387 1.16123 0
M  V30 3158 S 300.155 -4.62371 2.70135 0
M  V30 3159 C 301.311 -5.89704 2.09762 0
M  V30 3160 H 301.544 -2.44741 1.68787 0
M  V30 3161 H 299.077 -1.19984 0.971756 0
M  V30 3162 H 301.035 -4.10098 -0.181588 0
M  V30 3163 H 299.696 -3.05953 -0.710725 0
M  V30 3164 H 298.889 -4.99431 0.677086 0
M  V30 3165 H 298.491 -3.44513 1.45556 0
M  V30 3166 H 300.783 -6.61648 1.45701 0
M  V30 3167 H 301.726 -6.42824 2.96955 0
M  V30 3168 H 302.134 -5.4302 1.54239 0
M  V30 3169 N 301.532 -0.945985 -1.26051 0
M  V30 3170 C 302.482 -0.430164 -2.23905 0
M  V30 3171 C 303.466 0.47579 -1.53704 0
M  V30 3172 O 304.658 0.310252 -1.7426 0
M  V30 3173 C 301.787 0.298957 -3.41996 0
M  V30 3174 C 300.873 -0.624566 -4.19476 0
M  V30 3175 N 301.264 -1.75245 -4.74471 0
M  V30 3176 C 299.562 -0.431082 -4.43912 0
M  V30 3177 C 300.263 -2.32834 -5.3307 0
M  V30 3178 N 299.239 -1.61583 -5.1903 0
M  V30 3179 H 303.041 -1.29107 -2.64024 0
M  V30 3180 H 300.555 -0.802428 -1.41191 0
M  V30 3181 H 302.552 0.685565 -4.11225 0
M  V30 3182 H 301.212 1.15657 -3.03403 0
M  V30 3183 H 302.223 -2.13449 -4.71868 0
M  V30 3184 H 298.9 0.384364 -4.15727 0
M  V30 3185 H 300.29 -3.27893 -5.86461 0
M  V30 3186 N 303.011 1.40521 -0.713556 0
M  V30 3187 C 303.974 2.29098 -0.0684347 0
M  V30 3188 C 304.974 1.45268 0.689472 0
M  V30 3189 O 306.164 1.66205 0.521677 0
M  V30 3190 C 303.296 3.28446 0.913024 0
M  V30 3191 H 304.489 2.87645 -0.84855 0
M  V30 3192 H 302.042 1.48809 -0.47809 0
M  V30 3193 H 302.777 2.74913 1.72027 0
M  V30 3194 H 302.562 3.90327 0.372472 0
M  V30 3195 H 304.052 3.94777 1.36165 0
M  V30 3196 N 304.489 0.459591 1.5075 0
M  V30 3197 C 305.452 -0.329093 2.26825 0
M  V30 3198 C 306.452 -0.930481 1.31144 0
M  V30 3199 O 307.642 -0.801453 1.54669 0
M  V30 3200 C 304.774 -1.46768 3.07688 0
M  V30 3201 H 305.967 0.337924 2.9799 0
M  V30 3202 H 303.52 0.213336 1.54837 0
M  V30 3203 H 304.255 -2.17009 2.40993 0
M  V30 3204 H 304.04 -1.04238 3.77991 0
M  V30 3205 H 305.53 -2.02433 3.65254 0
M  V30 3206 N 305.967 -1.56429 0.191757 0
M  V30 3207 C 306.93 -2.17707 -0.716688 0
M  V30 3208 C 307.93 -1.13061 -1.14341 0
M  V30 3209 O 309.12 -1.38464 -1.05704 0
M  V30 3210 C 306.252 -2.77644 -1.97804 0
M  V30 3211 H 307.445 -2.99342 -0.1829 0
M  V30 3212 H 304.998 -1.56193 -0.0578566 0
M  V30 3213 H 305.733 -1.99799 -2.55443 0
M  V30 3214 H 305.518 -3.54246 -1.68083 0
M  V30 3215 H 307.008 -3.24708 -2.62592 0
M  V30 3216 N 307.445 0.0818655 -1.57387 0
M  V30 3217 C 308.722 0.815343 -1.77796 0
M  V30 3218 C 309.102 1.96289 -0.77679 0
M  V30 3219 O 308.45 2.27691 0.192106 0
M  V30 3220 C 308.66 1.29765 -3.23978 0
M  V30 3221 C 310.008 1.7351 -3.8753 0
M  V30 3222 O 311.032 1.39356 -3.27808 0
M  V30 3223 O 309.891 2.36708 -4.92576 0
M  V30 3224 H 306.985 0.389914 -0.729312 0
M  V30 3225 H 309.531 0.0627213 -1.69584 0
M  V30 3226 H 308.303 0.47608 -3.88393 0
M  V30 3227 H 307.926 2.11189 -3.36875 0
M  V30 3228 N 308.923 1.53595 0.353017 0
M  V30 3229 C 310.2 1.61002 1.11075 0
M  V30 3230 C 310.58 0.425356 2.0677 0
M  V30 3231 O 309.928 -0.583267 2.2093 0
M  V30 3232 C 310.138 2.96631 1.83877 0
M  V30 3233 C 311.486 3.51653 2.37961 0
M  V30 3234 O 312.51 2.98743 1.93987 0
M  V30 3235 O 311.369 4.44177 3.18386 0
M  V30 3236 H 308.463 0.650825 0.510251 0
M  V30 3237 H 311.009 1.6594 0.35527 0
M  V30 3238 H 309.781 3.74293 1.14108 0
M  V30 3239 H 309.404 2.95242 2.66304 0
M  V30 3240 N 310.401 -0.613514 1.45168 0
M  V30 3241 C 311.311 -1.75296 1.55912 0
M  V30 3242 C 312.327 -1.68244 0.443856 0
M  V30 3243 O 313.503 -1.88706 0.70371 0
M  V30 3244 C 310.568 -3.1174 1.5172 0
M  V30 3245 C 309.629 -3.30291 2.74238 0
M  V30 3246 C 308.862 -4.60226 2.70236 0
M  V30 3247 O 309.085 -5.42168 1.77229 0
M  V30 3248 O 308.019 -4.81361 3.61352 0
M  V30 3249 H 311.845 -1.69183 2.52212 0
M  V30 3250 H 309.43 -0.776886 1.27612 0
M  V30 3251 H 311.312 -3.93044 1.51968 0
M  V30 3252 H 309.987 -3.18357 0.585697 0
M  V30 3253 H 308.894 -2.48598 2.79553 0
M  V30 3254 H 310.227 -3.28547 3.66494 0
M  V30 3255 N 311.879 -1.3236 -0.855495 0
M  V30 3256 C 312.827 -1.2118 -1.9854 0
M  V30 3257 C 313.821 -0.116788 -1.68997 0
M  V30 3258 O 315.027 -0.279657 -1.77814 0
M  V30 3259 H 311.402 -0.375608 -0.651477 0
M  V30 3260 H 313.373 -2.16743 -2.05098 0
M  V30 3261 C 312.122 -0.950849 -3.34446 0
M  V30 3262 H 311.445 -1.78563 -3.57708 0
M  V30 3263 H 312.885 -0.912863 -4.14057 0
M  V30 3264 C 311.344 0.346404 -3.35114 0
M  V30 3265 O 311.874 1.35855 -3.7803 0
M  V30 3266 N 310.08 0.36808 -2.88259 0
M  V30 3267 H 309.627 -0.456102 -2.5353 0
M  V30 3268 H 309.585 1.23591 -2.89089 0
M  V30 3269 N 313.357 1.07166 -1.15556 0
M  V30 3270 C 314.768 1.6127 -0.940693 0
M  V30 3271 C 315.119 1.89251 0.517551 0
M  V30 3272 O 314.244 1.65937 1.38903 0
M  V30 3273 C 314.839 2.92993 -1.7012 0
M  V30 3274 C 313.398 3.43832 -1.53156 0
M  V30 3275 C 312.545 2.1786 -1.71558 0
M  V30 3276 H 315.496 0.90229 -1.30554 0
M  V30 3277 H 315.517 3.62007 -1.17181 0
M  V30 3278 H 315.029 2.72596 -2.76248 0
M  V30 3279 H 313.13 3.69307 -0.494294 0
M  V30 3280 H 313.243 4.19747 -2.30975 0
M  V30 3281 H 311.607 2.2765 -1.14225 0
M  V30 3282 H 312.39 1.99956 -2.79056 0
M  V30 3283 N 314.835 0.952656 1.25548 0
M  V30 3284 C 315.767 0.428609 2.25157 0
M  V30 3285 C 316.78 -0.454428 1.56329 0
M  V30 3286 O 317.969 -0.263023 1.76552 0
M  V30 3287 C 315.069 -0.401972 3.36508 0
M  V30 3288 C 314.242 0.467601 4.34893 0
M  V30 3289 C 313.301 -0.30445 5.25319 0
M  V30 3290 O 312.327 0.296473 5.68427 0
M  V30 3291 N 313.529 -1.59805 5.5807 0
M  V30 3292 H 316.294 1.28497 2.70756 0
M  V30 3293 H 313.855 0.822798 1.39433 0
M  V30 3294 H 315.847 -0.926134 3.9396 0
M  V30 3295 H 314.417 -1.15918 2.90313 0
M  V30 3296 H 313.637 1.17288 3.76347 0
M  V30 3297 H 314.925 1.06119 4.97611 0
M  V30 3298 H 314.323 -2.10823 5.24948 0
M  V30 3299 H 312.88 -2.06822 6.18116 0
M  V30 3300 N 316.313 -1.40141 0.720998 0
M  V30 3301 C 317.559 -2.01572 0.272075 0
M  V30 3302 C 317.914 -1.5616 -1.12391 0
M  V30 3303 O 317.207 -0.774198 -1.75262 0
M  V30 3304 C 317.401 -3.56165 0.296892 0
M  V30 3305 C 317.23 -4.16584 1.69375 0
M  V30 3306 C 316 -4.49783 2.30269 0
M  V30 3307 C 318.198 -4.41076 2.64493 0
M  V30 3308 N 316.18 -4.95626 3.62254 0
M  V30 3309 C 317.551 -4.88971 3.81192 0
M  V30 3310 C 319.606 -4.23122 2.62435 0
M  V30 3311 C 318.309 -5.20796 4.96149 0
M  V30 3312 C 320.335 -4.56052 3.76524 0
M  V30 3313 C 319.697 -5.04141 4.91956 0
M  V30 3314 H 315.796 -0.768343 0.145511 0
M  V30 3315 H 318.38 -1.70287 0.943959 0
M  V30 3316 H 316.551 -3.86868 -0.344578 0
M  V30 3317 H 318.283 -4.04346 -0.169254 0
M  V30 3318 H 315.038 -4.37101 1.82318 0
M  V30 3319 H 315.462 -5.22923 4.29977 0
M  V30 3320 H 320.104 -3.85158 1.74393 0
M  V30 3321 H 317.822 -5.57672 5.84831 0
M  V30 3322 H 321.408 -4.43796 3.76213 0
M  V30 3323 H 320.288 -5.29142 5.78774 0
M  V30 3324 N 317.792 -0.46758 -1.50504 0
M  V30 3325 C 319.069 0.15003 -1.95024 0
M  V30 3326 C 319.449 1.57304 -1.40779 0
M  V30 3327 O 318.797 2.20281 -0.607319 0
M  V30 3328 C 319.007 0.0969324 -3.48865 0
M  V30 3329 C 320.355 0.287565 -4.23625 0
M  V30 3330 O 321.379 0.173678 -3.55776 0
M  V30 3331 O 320.238 0.517186 -5.44047 0
M  V30 3332 H 317.332 0.113582 -0.819163 0
M  V30 3333 H 319.878 -0.52773 -1.61286 0
M  V30 3334 H 318.65 -0.896732 -3.80886 0
M  V30 3335 H 318.273 0.816303 -3.8913 0
M  V30 3336 N 319.27 1.56325 -0.20005 0
M  V30 3337 C 320.516 1.98012 0.438059 0
M  V30 3338 C 320.849 1.08702 1.60927 0
M  V30 3339 O 320.124 0.140064 1.93995 0
M  V30 3340 C 320.407 3.48841 0.893419 0
M  V30 3341 C 320.26 4.48928 -0.279947 0
M  V30 3342 C 321.579 4.03498 1.75719 0
M  V30 3343 H 318.698 0.719918 0.157757 0
M  V30 3344 H 321.34 1.87743 -0.291968 0
M  V30 3345 H 319.49 3.57723 1.51547 0
M  V30 3346 H 321.162 4.52079 -0.91772 0
M  V30 3347 H 319.405 4.23694 -0.930919 0
M  V30 3348 H 320.076 5.5194 0.0812601 0
M  V30 3349 H 322.552 3.97427 1.23253 0
M  V30 3350 H 321.428 5.09393 2.04476 0
M  V30 3351 H 321.689 3.4906 2.71311 0
M  V30 3352 N 320.748 -0.0735177 1.57428 0
M  V30 3353 C 321.973 -0.789787 1.91774 0
M  V30 3354 C 322.398 -1.70413 0.796306 0
M  V30 3355 O 321.756 -1.79555 -0.250961 0
M  V30 3356 C 321.804 -1.5609 3.25067 0
M  V30 3357 O 320.908 -2.67144 3.14178 0
M  V30 3358 H 320.249 -0.215582 0.628029 0
M  V30 3359 H 322.779 -0.0422781 2.04556 0
M  V30 3360 H 322.789 -1.94052 3.58898 0
M  V30 3361 H 321.464 -0.890015 4.06265 0
M  V30 3362 H 320.041 -2.32052 2.91901 0
M  V30 3363 N 322.226 -1.5378 -0.344866 0
M  V30 3364 C 323.474 -1.70625 -1.08311 0
M  V30 3365 C 323.795 -0.471447 -1.89215 0
M  V30 3366 O 323.065 0.514616 -1.8902 0
M  V30 3367 H 321.645 -0.629058 -0.402859 0
M  V30 3368 H 324.307 -1.9103 -0.386459 0
M  V30 3369 H 323.403 -2.57656 -1.76124 0
M  V30 3370 N 323.704 0.605807 -1.45491 0
M  V30 3371 C 324.667 1.69836 -1.5391 0
M  V30 3372 C 325.667 1.55261 -0.418424 0
M  V30 3373 O 326.857 1.60296 -0.681965 0
M  V30 3374 C 323.989 3.09117 -1.43734 0
M  V30 3375 H 325.182 1.63738 -2.51257 0
M  V30 3376 H 322.735 0.821689 -1.32959 0
M  V30 3377 H 323.47 3.20791 -0.475788 0
M  V30 3378 H 323.255 3.21104 -2.25021 0
M  V30 3379 H 324.745 3.88696 -1.52661 0
M  V30 3380 N 325.182 1.32811 0.848464 0
M  V30 3381 C 326.43 1.23479 1.59991 0
M  V30 3382 C 326.751 -0.201853 1.93952 0
M  V30 3383 O 326.021 -1.12818 1.60153 0
M  V30 3384 H 324.601 0.454034 0.593179 0
M  V30 3385 H 327.263 1.66412 1.01455 0
M  V30 3386 H 326.359 1.82178 2.53412 0
M  V30 3387 N 326.66 -1.06551 1.16123 0
M  V30 3388 C 327.937 -1.76097 0.85142 0
M  V30 3389 C 328.317 -2.00802 -0.6513 0
M  V30 3390 O 327.665 -1.63302 -1.59827 0
M  V30 3391 C 327.875 -3.06384 1.67122 0
M  V30 3392 C 329.223 -3.80585 1.88255 0
M  V30 3393 O 330.247 -3.16218 1.63966 0
M  V30 3394 O 329.106 -4.96212 2.2899 0
M  V30 3395 H 326.2 -0.765102 0.313923 0
M  V30 3396 H 328.746 -1.12844 1.26745 0
M  V30 3397 H 327.518 -2.84071 2.69108 0
M  V30 3398 H 327.141 -3.77371 1.25206 0
M  V30 3399 N 328.138 -0.959301 -1.25041 0
M  V30 3400 C 329.549 -0.65667 -1.74771 0
M  V30 3401 C 329.9 0.827852 -1.77879 0
M  V30 3402 O 329.025 1.64783 -1.40269 0
M  V30 3403 C 329.62 -1.1853 -3.1739 0
M  V30 3404 C 328.179 -0.932734 -3.6466 0
M  V30 3405 C 327.326 -1.32558 -2.43564 0
M  V30 3406 H 330.277 -1.13558 -1.10862 0
M  V30 3407 H 330.298 -0.547582 -3.76539 0
M  V30 3408 H 329.81 -2.26576 -3.15095 0
M  V30 3409 H 327.911 0.13257 -3.72364 0
M  V30 3410 H 328.024 -1.57248 -4.52559 0
M  V30 3411 H 326.388 -0.743956 -2.43593 0
M  V30 3412 H 327.171 -2.41537 -2.43957 0
M  V30 3413 N 329.616 1.39756 -0.72842 0
M  V30 3414 C 330.862 2.00942 -0.273892 0
M  V30 3415 C 331.195 1.57656 1.13394 0
M  V30 3416 O 330.47 0.802434 1.77176 0
M  V30 3417 C 330.753 3.58211 -0.368346 0
M  V30 3418 C 330.606 4.11534 -1.81548 0
M  V30 3419 C 331.925 4.39372 0.253054 0
M  V30 3420 H 329.044 0.730047 -0.100996 0
M  V30 3421 H 331.686 1.66056 -0.923337 0
M  V30 3422 H 329.836 3.88061 0.184588 0
M  V30 3423 H 331.508 3.92431 -2.42478 0
M  V30 3424 H 329.751 3.65341 -2.33898 0
M  V30 3425 H 330.422 5.20682 -1.83288 0
M  V30 3426 H 332.898 4.15527 -0.218224 0
M  V30 3427 H 331.774 5.48677 0.156585 0
M  V30 3428 H 332.035 4.21358 1.33826 0
M  V30 3429 N 331.094 0.475555 1.50254 0
M  V30 3430 C 332.371 -0.139685 1.95101 0
M  V30 3431 C 332.751 -1.56555 1.41611 0
M  V30 3432 O 332.099 -2.19956 0.618993 0
M  V30 3433 C 332.309 -0.0784298 3.48912 0
M  V30 3434 C 333.657 -0.265095 4.23772 0
M  V30 3435 O 334.681 -0.154808 3.55863 0
M  V30 3436 O 333.54 -0.488327 5.44314 0
M  V30 3437 H 330.634 -0.109236 0.819754 0
M  V30 3438 H 333.18 0.536276 1.61004 0
M  V30 3439 H 331.952 0.916918 3.80405 0
M  V30 3440 H 331.575 -0.795655 3.89558 0
M  V30 3441 N 332.573 -1.56217 0.208337 0
M  V30 3442 C 333.821 -1.97558 -0.426076 0
M  V30 3443 C 334.142 -1.09683 -1.61229 0
M  V30 3444 O 333.412 -0.170956 -1.95153 0
M  V30 3445 H 331.992 -0.729575 -0.160405 0
M  V30 3446 H 334.654 -1.92606 0.298155 0
M  V30 3447 H 333.75 -3.02672 -0.761312 0
M  V30 3448 N 334.051 0.0651679 -1.57465 0
M  V30 3449 C 335.297 0.764193 -1.87851 0
M  V30 3450 C 335.63 1.76889 -0.801495 0
M  V30 3451 O 334.905 1.93594 0.187528 0
M  V30 3452 C 335.188 1.46625 -3.28897 0
M  V30 3453 C 335.041 0.477515 -4.47258 0
M  V30 3454 C 336.36 2.4095 -3.68281 0
M  V30 3455 H 333.479 0.276351 -0.683227 0
M  V30 3456 H 336.121 0.0272868 -1.8998 0
M  V30 3457 H 334.271 2.09438 -3.27212 0
M  V30 3458 H 335.943 -0.145922 -4.61069 0
M  V30 3459 H 334.186 -0.206576 -4.33308 0
M  V30 3460 H 334.857 1.0065 -5.42746 0
M  V30 3461 H 337.333 1.88209 -3.71102 0
M  V30 3462 H 336.209 2.87072 -4.67847 0
M  V30 3463 H 336.47 3.26049 -2.98571 0
M  V30 3464 N 335.529 1.53961 0.336706 0
M  V30 3465 C 336.775 1.7273 1.07406 0
M  V30 3466 C 337.13 0.488095 1.86106 0
M  V30 3467 O 336.423 -0.519379 1.84426 0
M  V30 3468 C 336.617 2.93493 2.03953 0
M  V30 3469 C 336.446 4.29039 1.34744 0
M  V30 3470 C 335.216 4.93416 1.08942 0
M  V30 3471 C 337.414 5.08501 0.770115 0
M  V30 3472 N 335.396 6.12821 0.363864 0
M  V30 3473 C 336.767 6.19752 0.175472 0
M  V30 3474 C 338.822 4.93349 0.671633 0
M  V30 3475 C 337.525 7.17503 -0.508081 0
M  V30 3476 C 339.551 5.914 0.0018076 0
M  V30 3477 C 338.913 7.01993 -0.581835 0
M  V30 3478 H 335.012 0.685026 0.377177 0
M  V30 3479 H 337.596 1.91403 0.356815 0
M  V30 3480 H 335.767 2.76308 2.72962 0
M  V30 3481 H 337.499 3.00949 2.70577 0
M  V30 3482 H 334.254 4.53099 1.37833 0
M  V30 3483 H 334.678 6.76998 0.0156092 0
M  V30 3484 H 339.32 4.08007 1.1086 0
M  V30 3485 H 337.038 8.02414 -0.956918 0
M  V30 3486 H 340.624 5.81753 -0.0738538 0
M  V30 3487 H 339.504 7.76561 -1.09192 0
M  V30 3488 N 337.007 -0.598083 1.45811 0
M  V30 3489 C 338.284 -1.35777 1.40797 0
M  V30 3490 C 338.664 -2.10935 0.083462 0
M  V30 3491 O 338.012 -2.08505 -0.934763 0
M  V30 3492 C 338.222 -2.29666 2.62783 0
M  V30 3493 C 339.57 -2.91977 3.08277 0
M  V30 3494 O 340.594 -2.39984 2.63223 0
M  V30 3495 O 339.453 -3.86376 3.86491 0
M  V30 3496 H 336.547 -0.609291 0.55919 0
M  V30 3497 H 339.093 -0.620379 1.57954 0
M  V30 3498 H 337.865 -1.73454 3.50756 0
M  V30 3499 H 337.488 -3.1077 2.48008 0
M  V30 3500 N 338.485 -1.33259 -0.841409 0
M  V30 3501 C 339.71 -1.2775 -1.63385 0
M  V30 3502 C 340.135 0.149188 -1.87507 0
M  V30 3503 O 339.493 1.10498 -1.43736 0
M  V30 3504 C 339.541 -2.05571 -2.96265 0
M  V30 3505 O 338.645 -1.41257 -3.87453 0
M  V30 3506 H 337.986 -0.439627 -0.497618 0
M  V30 3507 H 340.516 -1.75782 -1.04699 0
M  V30 3508 H 340.526 -2.16241 -3.45982 0
M  V30 3509 H 339.201 -3.09309 -2.7803 0
M  V30 3510 H 337.778 -1.39217 -3.45938 0
M  V30 3511 N 339.963 1.05934 -1.16686 0
M  V30 3512 C 341.191 1.8249 -0.974929 0
M  V30 3513 C 341.606 1.82679 0.476861 0
M  V30 3514 O 340.963 1.2486 1.33103 0
M  V30 3515 C 341.014 3.28943 -1.49929 0
M  V30 3516 O 340.735 3.28886 -2.89423 0
M  V30 3517 C 342.236 4.22215 -1.35089 0
M  V30 3518 H 339.456 0.575295 -0.345365 0
M  V30 3519 H 342 1.33631 -1.548 0
M  V30 3520 H 340.155 3.751 -0.968423 0
M  V30 3521 H 340.569 4.20493 -3.13506 0
M  V30 3522 H 342.043 5.22987 -1.76603 0
M  V30 3523 H 342.52 4.38195 -0.296935 0
M  V30 3524 H 343.126 3.81907 -1.87155 0
M  V30 3525 N 341.441 0.965919 1.2453 0
M  V30 3526 C 342.351 0.502154 2.29163 0
M  V30 3527 C 343.367 -0.436017 1.68448 0
M  V30 3528 O 344.543 -0.309497 1.99008 0
M  V30 3529 C 341.608 -0.201956 3.46111 0
M  V30 3530 C 340.669 0.775821 4.22232 0
M  V30 3531 C 339.902 0.105217 5.33596 0
M  V30 3532 O 340.125 -1.10683 5.59558 0
M  V30 3533 O 339.059 0.796475 5.96607 0
M  V30 3534 H 342.885 1.37194 2.70946 0
M  V30 3535 H 340.47 0.732875 1.30189 0
M  V30 3536 H 342.352 -0.597564 4.17142 0
M  V30 3537 H 341.027 -1.04673 3.06309 0
M  V30 3538 H 339.934 1.22185 3.53584 0
M  V30 3539 H 341.267 1.58896 4.65846 0
M  V30 3540 N 342.919 -1.39368 0.735821 0
M  V30 3541 C 344.165 -2.01272 0.293439 0
M  V30 3542 C 344.52 -1.57344 -1.10728 0
M  V30 3543 O 343.813 -0.792744 -1.74431 0
M  V30 3544 C 344.007 -3.5583 0.334651 0
M  V30 3545 C 343.836 -4.14764 1.73784 0
M  V30 3546 C 342.606 -4.47315 2.35026 0
M  V30 3547 C 344.804 -4.38246 2.69157 0
M  V30 3548 N 342.786 -4.91756 3.6749 0
M  V30 3549 C 344.157 -4.849 3.86357 0
M  V30 3550 C 346.212 -4.20315 2.66908 0
M  V30 3551 C 344.915 -5.15505 5.01645 0
M  V30 3552 C 346.941 -4.52033 3.8134 0
M  V30 3553 C 346.303 -4.98895 4.97276 0
M  V30 3554 H 342.402 -0.766756 0.153652 0
M  V30 3555 H 344.986 -1.69276 0.961967 0
M  V30 3556 H 343.157 -3.87212 -0.303527 0
M  V30 3557 H 344.889 -4.04503 -0.126358 0
M  V30 3558 H 341.644 -4.35143 1.86943 0
M  V30 3559 H 342.068 -5.18333 4.35499 0
M  V30 3560 H 346.71 -3.83287 1.78468 0
M  V30 3561 H 344.428 -5.51437 5.90713 0
M  V30 3562 H 348.014 -4.39781 3.80899 0
M  V30 3563 H 346.894 -5.22973 5.84353 0
M  V30 3564 N 344.397 -0.483516 -1.5 0
M  V30 3565 C 345.644 0.0671597 -2.02389 0
M  V30 3566 C 345.972 1.38597 -1.36459 0
M  V30 3567 O 345.227 1.89634 -0.483458 0
M  V30 3568 C 345.526 0.286226 -3.56252 0
M  V30 3569 C 345.192 -0.952416 -4.40726 0
M  V30 3570 C 343.854 -1.29199 -4.63531 0
M  V30 3571 C 346.206 -1.77655 -4.89988 0
M  V30 3572 C 343.534 -2.45553 -5.32842 0
M  V30 3573 C 345.886 -2.93147 -5.60578 0
M  V30 3574 C 344.55 -3.27505 -5.81633 0
M  V30 3575 H 343.82 0.0245755 -0.740592 0
M  V30 3576 H 346.467 -0.640124 -1.80485 0
M  V30 3577 H 344.772 1.07587 -3.76739 0
M  V30 3578 H 346.469 0.726473 -3.94365 0
M  V30 3579 H 343.059 -0.677881 -4.23205 0
M  V30 3580 H 347.243 -1.52737 -4.72213 0
M  V30 3581 H 342.499 -2.72431 -5.47349 0
M  V30 3582 H 346.673 -3.57344 -5.97727 0
M  V30 3583 H 344.3 -4.1777 -6.35116 0
M  V30 3584 N 345.875 1.56104 -0.216619 0
M  V30 3585 C 347.286 1.844 0.292128 0
M  V30 3586 C 347.637 1.13788 1.59833 0
M  V30 3587 O 346.762 0.405888 2.12559 0
M  V30 3588 C 347.357 3.3452 0.53681 0
M  V30 3589 C 345.916 3.63151 0.989876 0
M  V30 3590 C 345.063 2.77255 0.0502302 0
M  V30 3591 H 348.014 1.52481 -0.439926 0
M  V30 3592 H 348.035 3.54459 1.38345 0
M  V30 3593 H 347.547 3.85885 -0.414031 0
M  V30 3594 H 345.648 3.17238 1.95425 0
M  V30 3595 H 345.761 4.71177 0.867698 0
M  V30 3596 H 344.125 2.48555 0.556117 0
M  V30 3597 H 344.908 3.31416 -0.89544 0
M  V30 3598 N 347.353 -0.0568162 1.57498 0
M  V30 3599 C 348.283 -1.06593 2.0775 0
M  V30 3600 C 349.264 -1.39448 0.974082 0
M  V30 3601 O 350.449 -1.48815 1.24771 0
M  V30 3602 C 347.579 -2.37509 2.5339 0
M  V30 3603 C 346.533 -2.1897 3.67745 0
M  V30 3604 C 345.859 -3.55402 3.99492 0
M  V30 3605 C 347.159 -1.59859 4.97235 0
M  V30 3606 H 348.853 -0.647706 2.9231 0
M  V30 3607 H 346.399 -0.310116 1.40621 0
M  V30 3608 H 348.352 -3.08409 2.87162 0
M  V30 3609 H 347.076 -2.8134 1.65878 0
M  V30 3610 H 345.735 -1.50508 3.3428 0
M  V30 3611 H 345.383 -3.9683 3.09088 0
M  V30 3612 H 345.083 -3.43831 4.76502 0
M  V30 3613 H 346.607 -4.27708 4.35773 0
M  V30 3614 H 348.021 -2.20642 5.29141 0
M  V30 3615 H 346.418 -1.58942 5.78669 0
M  V30 3616 H 347.488 -0.561506 4.81638 0
M  V30 3617 N 348.832 -1.54138 -0.328536 0
M  V30 3618 C 350.057 -1.76378 -1.09112 0
M  V30 3619 C 350.482 -0.508596 -1.81094 0
M  V30 3620 O 349.84 0.539598 -1.73084 0
M  V30 3621 C 349.888 -2.95358 -2.06872 0
M  V30 3622 O 348.992 -2.66556 -3.14677 0
M  V30 3623 H 348.333 -0.584614 -0.314838 0
M  V30 3624 H 350.863 -2.01146 -0.374348 0
M  V30 3625 H 350.873 -3.22566 -2.4983 0
M  V30 3626 H 349.548 -3.86385 -1.5388 0
M  V30 3627 H 348.125 -2.50282 -2.7643 0
M  V30 3628 N 350.31 0.590341 -1.46126 0
M  V30 3629 C 351.558 1.34616 -1.50742 0
M  V30 3630 C 351.879 1.94363 -0.157486 0
M  V30 3631 O 351.149 1.78136 0.815136 0
M  V30 3632 H 349.729 0.499789 -0.555175 0
M  V30 3633 H 352.391 0.691953 -1.82203 0
M  V30 3634 H 351.487 2.15678 -2.25587 0
M  V30 3635 N 351.788 1.33704 0.83433 0
M  V30 3636 C 352.751 1.24244 1.92603 0
M  V30 3637 C 353.751 0.160383 1.59998 0
M  V30 3638 O 354.941 0.412228 1.69252 0
M  V30 3639 C 352.073 0.91555 3.28376 0
M  V30 3640 H 353.266 2.21287 2.02416 0
M  V30 3641 H 350.819 1.17827 1.02696 0
M  V30 3642 H 351.554 -0.0521886 3.24258 0
M  V30 3643 H 351.339 1.69811 3.53422 0
M  V30 3644 H 352.829 0.874231 4.08347 0
M  V30 3645 N 353.266 -1.05314 1.17247 0
M  V30 3646 C 354.214 -2.15137 0.884238 0
M  V30 3647 C 355.208 -1.68729 -0.15063 0
M  V30 3648 O 356.414 -1.8 -0.00366673 0
M  V30 3649 H 352.789 -0.702471 0.2684 0
M  V30 3650 H 354.76 -2.36652 1.81764 0
M  V30 3651 C 353.509 -3.45243 0.412659 0
M  V30 3652 H 352.832 -3.81352 1.20043 0
M  V30 3653 H 354.272 -4.23263 0.249858 0
M  V30 3654 C 352.731 -3.25487 -0.86948 0
M  V30 3655 O 353.261 -3.51938 -1.93655 0
M  V30 3656 N 351.467 -2.78875 -0.817147 0
M  V30 3657 H 351.014 -2.57549 0.0514211 0
M  V30 3658 H 350.972 -2.66036 -1.67547 0
M  V30 3659 N 354.744 -0.972509 -1.24016 0
M  V30 3660 C 355.707 -0.511403 -2.23422 0
M  V30 3661 C 356.707 0.394679 -1.55881 0
M  V30 3662 O 357.897 0.189469 -1.73167 0
M  V30 3663 C 355.029 0.258769 -3.39916 0
M  V30 3664 H 356.222 -1.39024 -2.6573 0
M  V30 3665 H 353.775 -0.757585 -1.36713 0
M  V30 3666 H 354.51 1.1545 -3.03054 0
M  V30 3667 H 354.295 -0.391522 -3.9014 0
M  V30 3668 H 355.785 0.570244 -4.13688 0
M  V30 3669 N 356.222 1.38976 -0.743202 0
M  V30 3670 C 357.185 2.28901 -0.117014 0
M  V30 3671 C 358.185 1.46698 0.658503 0
M  V30 3672 O 359.375 1.67274 0.486305 0
M  V30 3673 C 356.507 3.30309 0.84315 0
M  V30 3674 H 357.7 2.8578 -0.909373 0
M  V30 3675 H 355.253 1.47761 -0.509547 0
M  V30 3676 H 355.988 2.785 1.66157 0
M  V30 3677 H 355.773 3.91029 0.289594 0
M  V30 3678 H 357.263 3.97577 1.2776 0
M  V30 3679 N 357.7 0.491464 1.49741 0
M  V30 3680 C 358.948 -0.0563141 2.02022 0
M  V30 3681 C 359.269 -1.38363 1.37407 0
M  V30 3682 O 358.539 -1.88702 0.526166 0
M  V30 3683 H 357.119 -0.0238014 0.746621 0
M  V30 3684 H 359.781 0.646533 1.83864 0
M  V30 3685 H 358.877 -0.192967 3.11503 0
M  V30 3686 N 359.178 -1.55987 0.224894 0
M  V30 3687 C 360.455 -1.90232 -0.455083 0
M  V30 3688 C 360.835 -1.14269 -1.77499 0
M  V30 3689 O 360.183 -0.253079 -2.27094 0
M  V30 3690 C 360.393 -3.42993 -0.644758 0
M  V30 3691 C 361.741 -4.13821 -0.950669 0
M  V30 3692 O 362.765 -3.4861 -0.731423 0
M  V30 3693 O 361.624 -5.29128 -1.36695 0
M  V30 3694 H 358.718 -0.79108 -0.241084 0
M  V30 3695 H 361.264 -1.67581 0.267327 0
M  V30 3696 H 360.036 -3.90252 0.28613 0
M  V30 3697 H 359.659 -3.71434 -1.41853 0
M  V30 3698 N 360.656 0.0484629 -1.57525 0
M  V30 3699 C 361.589 1.08755 -2.00618 0
M  V30 3700 C 362.567 1.36272 -0.887058 0
M  V30 3701 O 363.751 1.49255 -1.15131 0
M  V30 3702 C 360.878 2.42675 -2.36277 0
M  V30 3703 C 359.924 2.31142 -3.58435 0
M  V30 3704 S 360.757 1.68326 -5.08357 0
M  V30 3705 C 361.913 3.03776 -5.47239 0
M  V30 3706 H 362.146 0.720415 -2.88439 0
M  V30 3707 H 359.679 0.257801 -1.52233 0
M  V30 3708 H 361.637 3.19699 -2.57494 0
M  V30 3709 H 360.298 2.76541 -1.48942 0
M  V30 3710 H 359.491 3.29957 -3.80978 0
M  V30 3711 H 359.093 1.62258 -3.36969 0
M  V30 3712 H 361.385 4.00106 -5.46737 0
M  V30 3713 H 362.328 2.85988 -6.47778 0
M  V30 3714 H 362.736 3.05456 -4.74718 0
M  V30 3715 N 362.134 1.5431 0.320358 0
M  V30 3716 C 363.38 1.72924 1.05949 0
M  V30 3717 C 363.713 0.503185 1.87568 0
M  V30 3718 O 362.988 -0.499839 1.87968 0
M  V30 3719 C 363.271 3.00676 1.98156 0
M  V30 3720 C 363.124 4.3354 1.19845 0
M  V30 3721 C 364.443 3.24198 2.9763 0
M  V30 3722 H 361.562 0.629195 0.383774 0
M  V30 3723 H 364.204 1.87008 0.335854 0
M  V30 3724 H 362.354 2.888 2.59859 0
M  V30 3725 H 364.026 4.57305 0.605773 0
M  V30 3726 H 362.269 4.309 0.500784 0
M  V30 3727 H 362.94 5.19156 1.87567 0
M  V30 3728 H 365.416 3.35557 2.4605 0
M  V30 3729 H 364.292 4.14938 3.59329 0
M  V30 3730 H 364.553 2.41577 3.7026 0
M  V30 3731 N 363.613 -0.582584 1.46437 0
M  V30 3732 C 364.838 -1.37168 1.55563 0
M  V30 3733 C 365.263 -1.87061 0.19743 0
M  V30 3734 O 364.621 -1.61572 -0.822451 0
M  V30 3735 C 364.669 -2.53511 2.56446 0
M  V30 3736 O 363.773 -3.54953 2.09958 0
M  V30 3737 H 363.114 -0.408494 0.523477 0
M  V30 3738 H 365.644 -0.706646 1.9201 0
M  V30 3739 H 365.654 -3.00426 2.76058 0
M  V30 3740 H 364.329 -2.16549 3.55076 0
M  V30 3741 H 362.906 -3.14516 2.00334 0
M  V30 3742 N 365.091 -1.34144 -0.827227 0
M  V30 3743 C 366.319 -1.29325 -1.61501 0
M  V30 3744 C 366.734 0.13354 -1.88327 0
M  V30 3745 O 366.091 1.0793 -1.47164 0
M  V30 3746 C 366.142 -2.07746 -2.95844 0
M  V30 3747 O 365.863 -3.4486 -2.70191 0
M  V30 3748 C 367.364 -2.10273 -3.90256 0
M  V30 3749 H 364.584 -0.445069 -0.50215 0
M  V30 3750 H 367.128 -1.76693 -1.02955 0
M  V30 3751 H 365.283 -1.6403 -3.5096 0
M  V30 3752 H 365.697 -3.85345 -3.55822 0
M  V30 3753 H 367.171 -2.69575 -4.81698 0
M  V30 3754 H 367.648 -1.096 -4.25305 0
M  V30 3755 H 368.254 -2.54059 -3.41078 0
M  V30 3756 N 366.569 1.04691 -1.17803 0
M  V30 3757 C 367.98 1.59238 -0.974689 0
M  V30 3758 C 368.331 1.90306 0.477292 0
M  V30 3759 O 367.456 1.68846 1.35352 0
M  V30 3760 C 368.051 2.89318 -1.76296 0
M  V30 3761 C 366.61 3.40506 -1.60414 0
M  V30 3762 C 365.757 2.14172 -1.76141 0
M  V30 3763 H 368.708 0.874395 -1.32439 0
M  V30 3764 H 368.729 3.5944 -1.24833 0
M  V30 3765 H 368.241 2.66675 -2.81968 0
M  V30 3766 H 366.342 3.68175 -0.572519 0
M  V30 3767 H 366.455 4.14753 -2.39827 0
M  V30 3768 H 364.819 2.25176 -1.19028 0
M  V30 3769 H 365.602 1.93992 -2.83235 0
M  V30 3770 N 368.047 0.979072 1.23499 0
M  V30 3771 C 369.463 0.687475 1.44034 0
M  V30 3772 C 369.663 -0.746801 1.8715 0
M  V30 3773 O 368.719 -1.51939 2.0167 0
M  V30 3774 C 370.032 1.68127 2.49307 0
M  V30 3775 C 371.58 1.69516 2.63122 0
M  V30 3776 C 372.055 2.67723 3.71603 0
M  V30 3777 N 373.546 2.66233 3.79044 0
M  V30 3778 C 374.281 3.38891 4.62537 0
M  V30 3779 N 373.777 4.21103 5.50131 0
M  V30 3780 N 375.57 3.27661 4.56721 0
M  V30 3781 H 367.721 1.90559 0.938135 0
M  V30 3782 H 369.984 0.821051 0.473897 0
M  V30 3783 H 369.69 2.70693 2.2454 0
M  V30 3784 H 369.564 1.46306 3.4767 0
M  V30 3785 H 371.951 0.676561 2.8724 0
M  V30 3786 H 372.032 1.95404 1.65079 0
M  V30 3787 H 371.676 3.69724 3.48233 0
M  V30 3788 H 371.606 2.39111 4.69184 0
M  V30 3789 H 374.097 2.06568 3.16446 0
M  V30 3790 H 374.41 4.73403 6.10827 0
M  V30 3791 H 372.755 4.25195 5.49759 0
M  V30 3792 H 375.946 2.62887 3.87309 0
M  V30 3793 H 376.119 3.84547 5.21562 0
M  V30 3794 N 369.525 -1.3858 0.750561 0
M  V30 3795 C 370.802 -1.94231 0.231009 0
M  V30 3796 C 371.182 -1.68611 -1.27018 0
M  V30 3797 O 370.53 -1.02296 -2.04323 0
M  V30 3798 C 370.74 -3.44123 0.581428 0
M  V30 3799 C 372.088 -4.2116 0.539389 0
M  V30 3800 O 373.112 -3.52391 0.519541 0
M  V30 3801 O 371.971 -5.43749 0.54765 0
M  V30 3802 H 369.065 -0.825639 0.0474263 0
M  V30 3803 H 371.611 -1.4799 0.830478 0
M  V30 3804 H 370.383 -3.56267 1.61833 0
M  V30 3805 H 370.006 -3.97573 -0.0462047 0
M  V30 3806 N 371.003 -0.499398 -1.49478 0
M  V30 3807 C 372.252 0.0475259 -2.01644 0
M  V30 3808 C 372.565 1.38195 -1.38425 0
M  V30 3809 O 373.771 2.01547 -1.8191 0
M  V30 3810 C 372.227 0.135164 -3.59646 0
M  V30 3811 C 371.835 -1.19252 -4.31837 0
M  V30 3812 C 373.579 0.632538 -4.19761 0
M  V30 3813 C 371.486 -1.06713 -5.81693 0
M  V30 3814 H 370.416 0.0215349 -0.753692 0
M  V30 3815 H 373.067 -0.638577 -1.7203 0
M  V30 3816 H 371.449 0.885681 -3.85969 0
M  V30 3817 H 372.623 -1.9562 -4.17216 0
M  V30 3818 H 370.938 -1.62321 -3.83459 0
M  V30 3819 H 373.535 0.743833 -5.29501 0
M  V30 3820 H 373.878 1.63098 -3.83021 0
M  V30 3821 H 374.411 -0.0613987 -3.97753 0
M  V30 3822 H 371.15 -2.03979 -6.22955 0
M  V30 3823 H 370.67 -0.344307 -5.98811 0
M  V30 3824 H 372.349 -0.745208 -6.42694 0
M  V30 3825 N 372.481 1.55866 -0.233164 0
M  V30 3826 C 373.727 1.98897 0.395959 0
M  V30 3827 C 374.06 1.12091 1.58585 0
M  V30 3828 O 373.335 0.181182 1.93654 0
M  V30 3829 C 373.618 3.50658 0.819224 0
M  V30 3830 C 373.471 4.48233 -0.375109 0
M  V30 3831 C 374.79 4.07135 1.67121 0
M  V30 3832 H 371.909 0.723102 0.142451 0
M  V30 3833 H 374.551 1.87082 -0.331725 0
M  V30 3834 H 372.701 3.60857 1.43925 0
M  V30 3835 H 374.373 4.50031 -1.01341 0
M  V30 3836 H 372.616 4.21624 -1.02058 0
M  V30 3837 H 373.287 5.51988 -0.0358328 0
M  V30 3838 H 375.763 3.99952 1.14795 0
M  V30 3839 H 374.639 5.13615 1.93625 0
M  V30 3840 H 374.9 3.54736 2.63846 0
M  V30 3841 N 373.959 -0.0401083 1.57549 0
M  V30 3842 C 374.906 -1.04413 2.05831 0
M  V30 3843 C 375.876 -1.36585 0.945184 0
M  V30 3844 O 377.061 -1.47112 1.21502 0
M  V30 3845 C 374.201 -2.34336 2.53339 0
M  V30 3846 C 373.314 -2.08419 3.78398 0
M  V30 3847 C 372.449 -3.32133 4.14561 0
M  V30 3848 C 371.488 -3.01721 5.3257 0
M  V30 3849 N 370.625 -4.17855 5.64218 0
M  V30 3850 H 375.465 -0.625442 2.91363 0
M  V30 3851 H 373.002 -0.297218 1.44066 0
M  V30 3852 H 374.96 -3.10234 2.78946 0
M  V30 3853 H 373.59 -2.73948 1.7074 0
M  V30 3854 H 372.642 -1.23069 3.59942 0
M  V30 3855 H 373.954 -1.81978 4.64419 0
M  V30 3856 H 373.108 -4.16406 4.41238 0
M  V30 3857 H 371.847 -3.61678 3.2717 0
M  V30 3858 H 370.852 -2.15849 5.05657 0
M  V30 3859 H 372.077 -2.73466 6.21605 0
M  V30 3860 H 370.023 -4.47372 4.79786 0
M  V30 3861 H 369.94 -3.94798 6.44725 0
M  V30 3862 H 371.208 -5.03033 5.95465 0
M  V30 3863 N 375.437 -1.54477 -0.31217 0
M  V30 3864 C 376.684 -1.73227 -1.04875 0
M  V30 3865 C 377.012 -0.512042 -1.87639 0
M  V30 3866 O 376.267 0.506131 -1.89042 0
M  V30 3867 C 376.566 -2.967 -1.99258 0
M  V30 3868 C 376.232 -4.30974 -1.32559 0
M  V30 3869 C 374.894 -4.67477 -1.141 0
M  V30 3870 C 377.246 -5.14258 -0.847835 0
M  V30 3871 C 374.574 -5.84852 -0.465326 0
M  V30 3872 C 376.926 -6.32327 -0.185931 0
M  V30 3873 C 375.59 -6.67499 0.0107077 0
M  V30 3874 H 374.86 -0.633881 -0.383765 0
M  V30 3875 H 377.507 -1.88727 -0.324731 0
M  V30 3876 H 375.812 -2.75935 -2.7815 0
M  V30 3877 H 377.509 -3.08401 -2.563 0
M  V30 3878 H 374.099 -4.02262 -1.4793 0
M  V30 3879 H 378.283 -4.86565 -0.978192 0
M  V30 3880 H 373.539 -6.10654 -0.301883 0
M  V30 3881 H 377.713 -6.96135 0.192211 0
M  V30 3882 H 375.34 -7.58306 0.536287 0
M  V30 3883 N 376.915 0.57481 -1.46744 0
M  V30 3884 C 377.845 1.69337 -1.60771 0
M  V30 3885 C 378.826 1.63825 -0.457736 0
M  V30 3886 O 380.011 1.8172 -0.684947 0
M  V30 3887 C 377.141 3.0798 -1.60517 0
M  V30 3888 C 376.095 3.28327 -2.74564 0
M  V30 3889 C 375.421 4.67578 -2.59373 0
M  V30 3890 C 376.721 3.15398 -4.16319 0
M  V30 3891 H 378.415 1.57853 -2.54407 0
M  V30 3892 H 375.961 0.75799 -1.22436 0
M  V30 3893 H 377.914 3.86061 -1.68923 0
M  V30 3894 H 376.638 3.20381 -0.634305 0
M  V30 3895 H 375.297 2.52649 -2.65639 0
M  V30 3896 H 374.945 4.76755 -1.60353 0
M  V30 3897 H 374.645 4.82144 -3.35873 0
M  V30 3898 H 376.169 5.47817 -2.69682 0
M  V30 3899 H 377.583 3.83315 -4.26313 0
M  V30 3900 H 375.98 3.41482 -4.93468 0
M  V30 3901 H 377.05 2.12372 -4.3592 0
M  V30 3902 N 378.394 1.34581 0.820102 0
M  V30 3903 C 379.342 1.26401 1.95258 0
M  V30 3904 C 380.336 0.161553 1.68628 0
M  V30 3905 O 381.542 0.326703 1.7701 0
M  V30 3906 H 377.917 0.392749 0.64129 0
M  V30 3907 H 379.888 2.22105 1.99279 0
M  V30 3908 C 378.637 1.03919 3.31807 0
M  V30 3909 H 377.96 1.87984 3.52848 0
M  V30 3910 H 379.4 1.02232 4.11491 0
M  V30 3911 C 377.859 -0.257433 3.35915 0
M  V30 3912 O 378.389 -1.25784 3.81499 0
M  V30 3913 N 376.595 -0.291524 2.89134 0
M  V30 3914 H 376.142 0.523161 2.52232 0
M  V30 3915 H 376.1 -1.15883 2.92264 0
M  V30 3916 N 379.872 -1.04064 1.18357 0
M  V30 3917 C 380.835 -2.10243 0.912707 0
M  V30 3918 C 381.835 -1.60477 -0.101928 0
M  V30 3919 O 383.025 -1.73703 0.131517 0
M  V30 3920 C 380.157 -3.38893 0.369387 0
M  V30 3921 H 381.35 -2.35706 1.85426 0
M  V30 3922 H 378.903 -1.20489 0.995594 0
M  V30 3923 H 379.638 -3.19094 -0.578776 0
M  V30 3924 H 379.423 -3.76331 1.1008 0
M  V30 3925 H 380.913 -4.17128 0.198575 0
M  V30 3926 N 381.35 -0.985608 -1.22978 0
M  V30 3927 C 382.28 -0.549649 -2.26939 0
M  V30 3928 C 383.261 0.419803 -1.64838 0
M  V30 3929 O 384.446 0.31203 -1.91677 0
M  V30 3930 C 381.576 0.143652 -3.47003 0
M  V30 3931 C 380.53 -0.743606 -4.21491 0
M  V30 3932 C 379.856 0.0822027 -5.34637 0
M  V30 3933 C 381.156 -2.03694 -4.80943 0
M  V30 3934 H 382.85 -1.41862 -2.63658 0
M  V30 3935 H 380.396 -0.683571 -1.26741 0
M  V30 3936 H 382.349 0.459985 -4.18882 0
M  V30 3937 H 381.073 1.04711 -3.09359 0
M  V30 3938 H 379.732 -1.04347 -3.51436 0
M  V30 3939 H 379.38 0.986359 -4.93234 0
M  V30 3940 H 379.08 -0.508377 -5.85397 0
M  V30 3941 H 380.604 0.392797 -6.09335 0
M  V30 3942 H 382.018 -1.78504 -5.44802 0
M  V30 3943 H 380.415 -2.57573 -5.42011 0
M  V30 3944 H 381.485 -2.72042 -4.01399 0
M  V30 3945 N 382.828 1.3818 -0.7579 0
M  V30 3946 C 384.075 2.00019 -0.315985 0
M  V30 3947 C 384.403 1.60163 1.10355 0
M  V30 3948 O 383.658 0.83264 1.77103 0
M  V30 3949 C 383.957 3.55252 -0.391218 0
M  V30 3950 C 383.623 4.14834 -1.76702 0
M  V30 3951 C 382.285 4.30821 -2.14353 0
M  V30 3952 C 384.637 4.47658 -2.66931 0
M  V30 3953 C 381.965 4.76928 -3.41696 0
M  V30 3954 C 384.317 4.95184 -3.93669 0
M  V30 3955 C 382.981 5.09377 -4.31383 0
M  V30 3956 H 382.251 0.731923 -0.115627 0
M  V30 3957 H 384.898 1.65161 -0.969223 0
M  V30 3958 H 383.203 3.90273 0.34558 0
M  V30 3959 H 384.9 4.00988 -0.030805 0
M  V30 3960 H 381.49 4.02808 -1.46435 0
M  V30 3961 H 385.674 4.34904 -2.39106 0
M  V30 3962 H 380.93 4.86103 -3.70829 0
M  V30 3963 H 385.104 5.19551 -4.63724 0
M  V30 3964 H 382.731 5.44865 -5.30119 0
M  V30 3965 N 384.306 0.507319 1.49211 0
M  V30 3966 C 385.583 -0.0982702 1.95353 0
M  V30 3967 C 385.963 -1.53516 1.449 0
M  V30 3968 O 385.311 -2.18594 0.66551 0
M  V30 3969 C 385.521 -0.00440283 3.49 0
M  V30 3970 C 386.869 -0.175147 4.24239 0
M  V30 3971 O 387.893 -0.0792891 3.56112 0
M  V30 3972 O 386.752 -0.37276 5.45227 0
M  V30 3973 H 383.846 -0.0918236 0.821887 0
M  V30 3974 H 386.392 0.570307 1.5983 0
M  V30 3975 H 385.164 0.997402 3.78375 0
M  V30 3976 H 384.787 -0.712845 3.91158 0
M  V30 3977 N 385.784 -1.5574 0.241426 0
M  V30 3978 C 387.032 -1.98417 -0.384075 0
M  V30 3979 C 387.353 -1.13078 -1.58866 0
M  V30 3980 O 386.623 -0.212312 -1.94746 0
M  V30 3981 H 385.203 -0.732813 -0.144894 0
M  V30 3982 H 387.865 -1.9193 0.338943 0
M  V30 3983 H 386.961 -3.04219 -0.696939 0
M  V30 3984 N 387.262 0.0317525 -1.57568 0
M  V30 3985 C 388.678 0.38735 -1.54828 0
M  V30 3986 C 388.878 1.7677 -0.967187 0
M  V30 3987 O 387.934 2.45581 -0.587063 0
M  V30 3988 C 389.247 0.291667 -2.99282 0
M  V30 3989 C 390.795 0.368946 -3.10818 0
M  V30 3990 C 391.27 0.302741 -4.56998 0
M  V30 3991 N 392.761 0.361617 -4.61786 0
M  V30 3992 C 393.496 0.333238 -5.72431 0
M  V30 3993 N 392.992 0.257308 -6.92322 0
M  V30 3994 N 394.785 0.382769 -5.60795 0
M  V30 3995 H 386.936 -0.871609 -1.93692 0
M  V30 3996 H 389.199 -0.331161 -0.888277 0
M  V30 3997 H 388.905 -0.656794 -3.45513 0
M  V30 3998 H 388.779 1.08638 -3.61217 0
M  V30 3999 H 391.166 1.30784 -2.64536 0
M  V30 4000 H 391.247 -0.455066 -2.5172 0
M  V30 4001 H 390.891 -0.632473 -5.03947 0
M  V30 4002 H 390.821 1.14482 -5.14005 0
M  V30 4003 H 393.312 0.422923 -3.75526 0
M  V30 4004 H 393.625 0.24068 -7.72425 0
M  V30 4005 H 391.97 0.223396 -6.94641 0
M  V30 4006 H 395.161 0.44006 -4.66027 0
M  V30 4007 H 395.334 0.357184 -6.47015 0
M  V30 4008 N 388.74 1.54641 0.303973 0
M  V30 4009 C 389.989 1.7299 1.03717 0
M  V30 4010 C 390.302 0.521168 1.88529 0
M  V30 4011 O 391.508 0.586408 2.65092 0
M  V30 4012 C 389.964 3.06051 1.89369 0
M  V30 4013 C 389.572 4.34393 1.09574 0
M  V30 4014 C 391.316 3.3376 2.62306 0
M  V30 4015 C 389.223 5.58506 1.94486 0
M  V30 4016 H 388.153 0.64473 0.390947 0
M  V30 4017 H 390.804 1.81124 0.294328 0
M  V30 4018 H 389.186 2.91874 2.67629 0
M  V30 4019 H 390.36 4.59396 0.359485 0
M  V30 4020 H 388.675 4.13597 0.482324 0
M  V30 4021 H 391.272 4.23687 3.26181 0
M  V30 4022 H 391.615 2.52503 3.3098 0
M  V30 4023 H 392.148 3.48894 1.91097 0
M  V30 4024 H 388.887 6.42422 1.30287 0
M  V30 4025 H 388.407 5.37694 2.65792 0
M  V30 4026 H 390.086 5.95651 2.52605 0
M  V30 4027 N 390.218 -0.567019 1.47046 0
M  V30 4028 C 391.148 -1.68482 1.61667 0
M  V30 4029 C 392.129 -1.6358 0.466418 0
M  V30 4030 O 393.314 -1.81354 0.694574 0
M  V30 4031 C 390.444 -3.07124 1.62148 0
M  V30 4032 C 389.398 -3.26867 2.76301 0
M  V30 4033 C 388.724 -4.66196 2.61849 0
M  V30 4034 C 390.024 -3.13186 4.17986 0
M  V30 4035 H 391.718 -1.56502 2.5524 0
M  V30 4036 H 389.264 -0.751486 1.22836 0
M  V30 4037 H 391.217 -3.8516 1.70968 0
M  V30 4038 H 389.941 -3.2004 0.651287 0
M  V30 4039 H 388.6 -2.51237 2.66975 0
M  V30 4040 H 388.248 -4.75898 1.62879 0
M  V30 4041 H 387.948 -4.80356 3.38425 0
M  V30 4042 H 389.472 -5.46379 2.72584 0
M  V30 4043 H 390.886 -3.81049 4.2834 0
M  V30 4044 H 389.283 -3.3886 4.95272 0
M  V30 4045 H 390.353 -2.10057 4.3704 0
M  V30 4046 N 391.696 -1.35014 -0.812953 0
M  V30 4047 C 392.973 -1.18502 -1.55617 0
M  V30 4048 C 393.353 0.238421 -2.09749 0
M  V30 4049 O 392.701 1.2411 -1.91857 0
M  V30 4050 C 392.911 -2.24783 -2.66971 0
M  V30 4051 C 394.259 -2.60268 -3.35478 0
M  V30 4052 O 395.283 -2.23648 -2.77236 0
M  V30 4053 O 394.142 -3.2321 -4.40678 0
M  V30 4054 H 391.236 -0.459984 -0.687272 0
M  V30 4055 H 393.782 -1.46677 -0.853464 0
M  V30 4056 H 392.554 -3.20284 -2.24798 0
M  V30 4057 H 392.177 -1.97841 -3.44884 0
M  V30 4058 N 393.175 1.03435 -1.18907 0
M  V30 4059 C 394.107 2.1165 -0.879595 0
M  V30 4060 C 395.12 1.62316 0.125439 0
M  V30 4061 O 396.309 1.78201 -0.103245 0
M  V30 4062 C 393.409 3.37622 -0.294042 0
M  V30 4063 C 392.582 4.16166 -1.34629 0
M  V30 4064 C 391.641 5.20457 -0.775274 0
M  V30 4065 O 390.667 5.50379 -1.4516 0
M  V30 4066 N 391.869 5.78949 0.424126 0
M  V30 4067 H 394.634 2.38791 -1.81105 0
M  V30 4068 H 392.195 1.19681 -1.09032 0
M  V30 4069 H 394.187 4.04572 0.101679 0
M  V30 4070 H 392.757 3.07873 0.541575 0
M  V30 4071 H 391.977 3.44444 -1.91707 0
M  V30 4072 H 393.265 4.65432 -2.05549 0
M  V30 4073 H 392.663 5.56948 0.991209 0
M  V30 4074 H 391.22 6.47334 0.761691 0
M  V30 4075 N 394.653 0.992116 1.22453 0
M  V30 4076 C 395.6 0.541731 2.24352 0
M  V30 4077 C 396.57 -0.425519 1.60557 0
M  V30 4078 O 397.755 -0.330453 1.87917 0
M  V30 4079 C 394.895 -0.138248 3.44823 0
M  V30 4080 C 394.008 0.870649 4.23136 0
M  V30 4081 C 393.143 0.164269 5.30946 0
M  V30 4082 C 392.182 1.16159 6.00977 0
M  V30 4083 N 391.319 0.483568 7.00433 0
M  V30 4084 H 396.159 1.41541 2.62241 0
M  V30 4085 H 393.696 0.709013 1.28885 0
M  V30 4086 H 395.654 -0.5494 4.13567 0
M  V30 4087 H 394.284 -0.975721 3.077 0
M  V30 4088 H 393.336 1.40013 3.53696 0
M  V30 4089 H 394.648 1.63014 4.7141 0
M  V30 4090 H 393.802 -0.303653 6.0594 0
M  V30 4091 H 392.541 -0.627733 4.83643 0
M  V30 4092 H 391.546 1.64015 5.24766 0
M  V30 4093 H 392.771 1.95445 6.50368 0
M  V30 4094 H 390.717 -0.289012 6.55363 0
M  V30 4095 H 390.634 1.18152 7.4671 0
M  V30 4096 H 391.902 0.0384219 7.79491 0
M  V30 4097 N 396.131 -1.37776 0.765217 0
M  V30 4098 C 397.547 -1.53297 0.444108 0
M  V30 4099 C 397.747 -1.72515 -1.04119 0
M  V30 4100 O 396.803 -1.74278 -1.82711 0
M  V30 4101 C 398.116 -2.73328 1.25349 0
M  V30 4102 C 399.664 -2.87185 1.24473 0
M  V30 4103 C 400.139 -4.10191 2.03733 0
M  V30 4104 N 401.63 -4.17291 2.01053 0
M  V30 4105 C 402.365 -5.11488 2.59166 0
M  V30 4106 N 401.861 -6.11285 3.26041 0
M  V30 4107 N 403.654 -5.03924 2.49032 0
M  V30 4108 H 395.805 -1.23552 1.72768 0
M  V30 4109 H 398.068 -0.601103 0.733062 0
M  V30 4110 H 397.774 -2.6557 2.30577 0
M  V30 4111 H 397.648 -3.66834 0.87823 0
M  V30 4112 H 400.035 -2.94418 0.20047 0
M  V30 4113 H 400.116 -1.94657 1.65959 0
M  V30 4114 H 399.76 -4.0372 3.08176 0
M  V30 4115 H 399.69 -5.01821 1.59633 0
M  V30 4116 H 402.181 -3.45825 1.5236 0
M  V30 4117 H 402.494 -6.79678 3.67774 0
M  V30 4118 H 400.839 -6.11583 3.30138 0
M  V30 4119 H 404.03 -4.24902 1.96407 0
M  V30 4120 H 404.203 -5.77152 2.94617 0
M  V30 4121 N 397.609 -0.515225 -1.4894 0
M  V30 4122 C 398.539 0.244628 -2.32215 0
M  V30 4123 C 399.52 0.949136 -1.41157 0
M  V30 4124 O 400.705 0.937783 -1.70057 0
M  V30 4125 C 397.835 1.30096 -3.22013 0
M  V30 4126 C 396.789 0.715486 -4.21977 0
M  V30 4127 C 396.115 1.87339 -5.00808 0
M  V30 4128 C 397.415 -0.302982 -5.2142 0
M  V30 4129 H 399.109 -0.450501 -2.95991 0
M  V30 4130 H 396.655 -0.218098 -1.42339 0
M  V30 4131 H 398.608 1.84037 -3.79089 0
M  V30 4132 H 397.332 2.02547 -2.56207 0
M  V30 4133 H 395.991 0.197715 -3.66066 0
M  V30 4134 H 395.639 2.58592 -4.31438 0
M  V30 4135 H 395.339 1.48764 -5.68457 0
M  V30 4136 H 396.863 2.41686 -5.60732 0
M  V30 4137 H 398.277 0.148802 -5.73107 0
M  V30 4138 H 396.674 -0.60532 -5.97039 0
M  V30 4139 H 397.744 -1.21395 -4.69459 0
M  V30 4140 N 399.087 1.5561 -0.249682 0
M  V30 4141 C 400.333 2.00044 0.367952 0
M  V30 4142 C 400.688 1.1349 1.55363 0
M  V30 4143 O 399.981 0.191079 1.90645 0
M  V30 4144 C 400.175 3.4775 0.824887 0
M  V30 4145 C 400.004 4.48596 -0.314973 0
M  V30 4146 C 398.774 4.99077 -0.790555 0
M  V30 4147 C 400.972 5.0144 -1.14291 0
M  V30 4148 N 398.954 5.83675 -1.90254 0
M  V30 4149 C 400.325 5.83236 -2.10322 0
M  V30 4150 C 402.38 4.83736 -1.17916 0
M  V30 4151 C 401.083 6.49217 -3.09692 0
M  V30 4152 C 403.109 5.50497 -2.16117 0
M  V30 4153 C 402.471 6.32084 -3.10884 0
M  V30 4154 H 398.57 0.775512 0.100522 0
M  V30 4155 H 401.154 1.91193 -0.367896 0
M  V30 4156 H 399.325 3.56994 1.53002 0
M  V30 4157 H 401.057 3.79056 1.4177 0
M  V30 4158 H 397.812 4.72119 -0.374218 0
M  V30 4159 H 398.236 6.30671 -2.46137 0
M  V30 4160 H 402.878 4.20286 -0.460352 0
M  V30 4161 H 400.596 7.11832 -3.8252 0
M  V30 4162 H 404.182 5.38752 -2.19631 0
M  V30 4163 H 403.062 6.82832 -3.8563 0
M  V30 4164 N 400.565 -0.0233959 1.57583 0
M  V30 4165 C 401.475 -1.03907 2.10334 0
M  V30 4166 C 402.491 -1.39257 1.04323 0
M  V30 4167 O 403.667 -1.48462 1.36091 0
M  V30 4168 C 400.732 -2.31938 2.57693 0
M  V30 4169 C 399.793 -2.03117 3.78209 0
M  V30 4170 C 399.026 -3.25043 4.233 0
M  V30 4171 O 399.249 -4.35916 3.67876 0
M  V30 4172 O 398.183 -3.10411 5.15683 0
M  V30 4173 H 402.009 -0.620748 2.97288 0
M  V30 4174 H 399.594 -0.240743 1.47448 0
M  V30 4175 H 401.476 -3.07196 2.88458 0
M  V30 4176 H 400.151 -2.73055 1.73847 0
M  V30 4177 H 399.058 -1.25408 3.52454 0
M  V30 4178 H 400.391 -1.66852 4.63056 0
M  V30 4179 N 402.043 -1.548 -0.295768 0
M  V30 4180 C 402.976 -1.81003 -1.38972 0
M  V30 4181 C 403.954 -0.661544 -1.48534 0
M  V30 4182 O 405.138 -0.902074 -1.65514 0
M  V30 4183 C 402.265 -1.95141 -2.76835 0
M  V30 4184 C 401.311 -3.17592 -2.84671 0
M  V30 4185 S 402.144 -4.75531 -2.46232 0
M  V30 4186 C 403.3 -4.92613 -3.86114 0
M  V30 4187 H 403.533 -2.73507 -1.16537 0
M  V30 4188 H 401.066 -1.46278 -0.494168 0
M  V30 4189 H 403.024 -2.03972 -3.56238 0
M  V30 4190 H 401.685 -1.03565 -2.96535 0
M  V30 4191 H 400.878 -3.24303 -3.85803 0
M  V30 4192 H 400.48 -3.07235 -2.13267 0
M  V30 4193 H 402.772 -4.76957 -4.81164 0
M  V30 4194 H 403.715 -5.94698 -3.8437 0
M  V30 4195 H 404.123 -4.2073 -3.76359 0
M  V30 4196 N 403.521 0.559213 -1.47345 0
M  V30 4197 C 404.468 1.66645 -1.59682 0
M  V30 4198 C 405.438 1.60168 -0.43994 0
M  V30 4199 O 406.623 1.79031 -0.659736 0
M  V30 4200 C 403.763 3.04969 -1.61518 0
M  V30 4201 C 402.876 3.21897 -2.88108 0
M  V30 4202 C 402.011 4.50608 -2.81294 0
M  V30 4203 C 401.05 4.60961 -4.02717 0
M  V30 4204 N 400.187 5.81024 -3.94151 0
M  V30 4205 H 405.027 1.55439 -2.54249 0
M  V30 4206 H 402.564 0.757219 -1.26113 0
M  V30 4207 H 404.522 3.85064 -1.60566 0
M  V30 4208 H 403.152 3.15015 -0.704645 0
M  V30 4209 H 402.204 2.35248 -2.98936 0
M  V30 4210 H 403.516 3.25412 -3.78032 0
M  V30 4211 H 402.67 5.3896 -2.7858 0
M  V30 4212 H 401.409 4.49568 -1.89049 0
M  V30 4213 H 400.414 3.71021 -4.05738 0
M  V30 4214 H 401.639 4.63761 -4.96087 0
M  V30 4215 H 399.585 5.80938 -3.04708 0
M  V30 4216 H 399.502 5.85909 -4.77752 0
M  V30 4217 H 400.77 6.71744 -3.9545 0
M  V30 4218 N 404.999 1.35443 0.805782 0
M  V30 4219 C 406.276 1.19325 1.54987 0
M  V30 4220 C 406.656 -0.227294 2.09873 0
M  V30 4221 O 406.004 -1.2309 1.92512 0
M  V30 4222 C 406.214 2.26196 2.65775 0
M  V30 4223 C 407.562 2.62043 3.34094 0
M  V30 4224 O 408.586 2.25115 2.76046 0
M  V30 4225 O 407.445 3.25542 4.38958 0
M  V30 4226 H 404.539 0.463623 0.684823 0
M  V30 4227 H 407.085 1.47127 0.845674 0
M  V30 4228 H 405.857 3.21471 2.23096 0
M  V30 4229 H 405.48 1.99667 3.43829 0
M  V30 4230 N 406.477 -1.02803 1.19454 0
M  V30 4231 C 407.425 -2.13213 0.929673 0
M  V30 4232 C 408.419 -1.69011 -0.114806 0
M  V30 4233 O 409.625 -1.79967 0.0345147 0
M  V30 4234 H 406 -0.69662 0.28324 0
M  V30 4235 H 407.971 -2.32744 1.86743 0
M  V30 4236 C 406.72 -3.4429 0.485797 0
M  V30 4237 H 406.043 -3.7872 1.28105 0
M  V30 4238 H 407.483 -4.22638 0.339582 0
M  V30 4239 C 405.942 -3.27258 -0.800244 0
M  V30 4240 O 406.472 -3.55967 -1.86146 0
M  V30 4241 N 404.678 -2.80545 -0.75781 0
M  V30 4242 H 404.225 -2.57382 0.106039 0
M  V30 4243 H 404.183 -2.6953 -1.61867 0
M  V30 4244 N 407.956 -0.998596 -1.21925 0
M  V30 4245 C 409.205 -0.673085 -1.90138 0
M  V30 4246 C 409.518 0.79895 -1.78539 0
M  V30 4247 O 410.724 1.23628 -2.4172 0
M  V30 4248 C 409.18 -1.15339 -3.40918 0
M  V30 4249 C 408.788 -2.65106 -3.61141 0
M  V30 4250 C 410.532 -0.902476 -4.14796 0
M  V30 4251 C 408.439 -3.0671 -5.05651 0
M  V30 4252 H 407.369 -0.248057 -0.712028 0
M  V30 4253 H 410.02 -1.20891 -1.38049 0
M  V30 4254 H 408.402 -0.545658 -3.92223 0
M  V30 4255 H 409.576 -3.31274 -3.20304 0
M  V30 4256 H 407.891 -2.88142 -3.00605 0
M  V30 4257 H 410.488 -1.18895 -5.21314 0
M  V30 4258 H 410.831 0.161349 -4.15987 0
M  V30 4259 H 411.364 -1.47269 -3.69536 0
M  V30 4260 H 408.103 -4.12292 -5.09603 0
M  V30 4261 H 407.623 -2.45249 -5.47369 0
M  V30 4262 H 409.302 -2.9833 -5.74115 0
M  V30 4263 N 409.434 1.37368 -0.772513 0
M  V30 4264 C 410.381 2.30262 -0.157488 0
M  V30 4265 C 411.351 1.51137 0.688965 0
M  V30 4266 O 412.536 1.79704 0.641168 0
M  V30 4267 C 409.676 3.37611 0.715045 0
M  V30 4268 C 408.789 4.31746 -0.148098 0
M  V30 4269 C 407.924 5.26171 0.729213 0
M  V30 4270 C 406.963 6.11948 -0.136418 0
M  V30 4271 N 406.1 6.98613 0.698914 0
M  V30 4272 H 410.94 2.82277 -0.955179 0
M  V30 4273 H 408.477 1.38957 -0.482631 0
M  V30 4274 H 410.435 3.98479 1.23575 0
M  V30 4275 H 409.065 2.86959 1.47833 0
M  V30 4276 H 408.117 3.72178 -0.786613 0
M  V30 4277 H 409.429 4.92084 -0.81579 0
M  V30 4278 H 408.583 5.92247 1.31637 0
M  V30 4279 H 407.322 4.66246 1.43059 0
M  V30 4280 H 406.327 5.4485 -0.736102 0
M  V30 4281 H 407.552 6.73945 -0.835134 0
M  V30 4282 H 405.498 6.41215 1.38489 0
M  V30 4283 H 405.415 7.55948 0.0885358 0
M  V30 4284 H 406.683 7.69077 1.27044 0
M  V30 4285 N 410.912 0.523116 1.48665 0
M  V30 4286 C 412.323 0.0808997 1.86525 0
M  V30 4287 C 412.674 -1.33975 1.43336 0
M  V30 4288 O 411.799 -2.00221 0.821009 0
M  V30 4289 C 412.394 0.140037 3.3851 0
M  V30 4290 C 410.953 -0.246948 3.75589 0
M  V30 4291 C 410.1 0.502845 2.72703 0
M  V30 4292 H 413.051 0.734736 1.40667 0
M  V30 4293 H 413.072 -0.649945 3.74908 0
M  V30 4294 H 412.584 1.17412 3.69914 0
M  V30 4295 H 410.685 -1.28343 3.49798 0
M  V30 4296 H 410.798 0.0878859 4.79019 0
M  V30 4297 H 409.162 -0.0500581 2.54651 0
M  V30 4298 H 409.945 1.53743 3.0695 0
M  V30 4299 N 412.39 -1.55475 0.257931 0
M  V30 4300 C 413.353 -2.20551 -0.623706 0
M  V30 4301 C 414.353 -1.17809 -1.09443 0
M  V30 4302 O 415.543 -1.42823 -0.997362 0
M  V30 4303 C 412.675 -2.85784 -1.8585 0
M  V30 4304 H 413.868 -2.99848 -0.0557743 0
M  V30 4305 H 411.421 -1.56298 0.0084422 0
M  V30 4306 H 412.156 -2.10453 -2.46739 0
M  V30 4307 H 411.941 -3.61057 -1.52907 0
M  V30 4308 H 413.431 -3.35553 -2.48584 0
M  V30 4309 N 413.868 0.0150385 -1.57593 0
M  V30 4310 C 415.115 0.703001 -1.89906 0
M  V30 4311 C 415.443 1.74604 -0.856944 0
M  V30 4312 O 414.698 1.95197 0.140287 0
M  V30 4313 C 414.997 1.39686 -3.28972 0
M  V30 4314 C 414.663 0.488457 -4.48246 0
M  V30 4315 C 413.325 0.2383 -4.8061 0
M  V30 4316 C 415.677 -0.137881 -5.21018 0
M  V30 4317 C 413.005 -0.646738 -5.83125 0
M  V30 4318 C 415.357 -1.0107 -6.24474 0
M  V30 4319 C 414.021 -1.27019 -6.55303 0
M  V30 4320 H 413.291 0.257246 -0.694914 0
M  V30 4321 H 415.938 -0.037259 -1.91464 0
M  V30 4322 H 414.243 2.21079 -3.23468 0
M  V30 4323 H 415.94 1.93495 -3.51227 0
M  V30 4324 H 412.53 0.693593 -4.22951 0
M  V30 4325 H 416.714 0.0423953 -4.96282 0
M  V30 4326 H 411.97 -0.855937 -6.05379 0
M  V30 4327 H 416.144 -1.50247 -6.79999 0
M  V30 4328 H 413.771 -1.95769 -7.3456 0
M  V30 4329 N 415.346 1.54954 0.287554 0
M  V30 4330 C 416.593 1.74873 1.02106 0
M  V30 4331 C 416.921 0.541829 1.86801 0
M  V30 4332 O 416.176 -0.475992 1.89823 0
M  V30 4333 C 416.475 2.99833 1.94512 0
M  V30 4334 C 416.141 4.33029 1.25686 0
M  V30 4335 C 414.803 4.69233 1.06649 0
M  V30 4336 C 417.155 5.15542 0.765913 0
M  V30 4337 C 414.483 5.85518 0.372222 0
M  V30 4338 C 416.835 6.32542 0.0853101 0
M  V30 4339 C 415.499 6.67398 -0.1169 0
M  V30 4340 H 414.769 0.639906 0.373632 0
M  V30 4341 H 417.416 1.89219 0.294665 0
M  V30 4342 H 415.721 2.80325 2.73725 0
M  V30 4343 H 417.418 3.1244 2.51361 0
M  V30 4344 H 414.008 4.04564 1.41512 0
M  V30 4345 H 418.192 4.88059 0.90066 0
M  V30 4346 H 413.448 6.11057 0.204695 0
M  V30 4347 H 417.622 6.95741 -0.302936 0
M  V30 4348 H 415.249 7.57357 -0.656859 0
M  V30 4349 N 416.824 -0.551391 1.4764 0
M  V30 4350 C 418.235 -1.13349 1.48354 0
M  V30 4351 C 418.586 -1.94709 0.241432 0
M  V30 4352 O 417.711 -2.06306 -0.653205 0
M  V30 4353 C 418.306 -2.0623 2.68802 0
M  V30 4354 C 416.865 -2.597 2.72457 0
M  V30 4355 C 416.012 -1.36201 2.41546 0
M  V30 4356 H 418.963 -0.337698 1.55065 0
M  V30 4357 H 418.984 -2.90196 2.46103 0
M  V30 4358 H 418.496 -1.46987 3.59188 0
M  V30 4359 H 416.597 -3.22724 1.86225 0
M  V30 4360 H 416.71 -3.00296 3.73308 0
M  V30 4361 H 415.074 -1.67068 1.9225 0
M  V30 4362 H 415.857 -0.787425 3.34147 0
M  V30 4363 N 418.302 -1.35869 -0.798587 0
M  V30 4364 C 419.55 -1.29332 -1.55298 0
M  V30 4365 C 419.871 0.129729 -1.94568 0
M  V30 4366 O 419.141 1.06796 -1.6423 0
M  V30 4367 H 417.721 -0.475737 -0.57592 0
M  V30 4368 H 420.383 -1.70062 -0.952093 0
M  V30 4369 H 419.479 -1.91458 -2.46476 0
M  V30 4370 N 419.78 1.02168 -1.19998 0
M  V30 4371 C 421.005 1.79833 -1.03319 0
M  V30 4372 C 421.43 1.83504 0.413281 0
M  V30 4373 O 420.788 1.26635 1.29743 0
M  V30 4374 C 420.836 3.22396 -1.61533 0
M  V30 4375 O 419.94 4.03555 -0.849519 0
M  V30 4376 H 419.281 0.554872 -0.364709 0
M  V30 4377 H 421.811 1.28542 -1.59179 0
M  V30 4378 H 421.821 3.73124 -1.65054 0
M  V30 4379 H 420.496 3.19039 -2.66809 0
M  V30 4380 H 419.073 3.62169 -0.888129 0
M  V30 4381 N 421.258 1.00505 1.21394 0
M  V30 4382 C 422.206 0.558623 2.25792 0
M  V30 4383 C 423.2 -0.396848 1.64686 0
M  V30 4384 O 424.406 -0.268035 1.77993 0
M  V30 4385 H 420.781 0.1623 0.734277 0
M  V30 4386 H 422.752 1.4503 2.60785 0
M  V30 4387 C 421.501 -0.0989574 3.47559 0
M  V30 4388 H 420.824 0.627225 3.94849 0
M  V30 4389 H 422.264 -0.3746 4.22342 0
M  V30 4390 C 420.723 -1.33817 3.09184 0
M  V30 4391 O 421.253 -2.43252 3.19674 0
M  V30 4392 N 419.459 -1.21793 2.63846 0
M  V30 4393 H 419.006 -0.32746 2.5551 0
M  V30 4394 H 418.964 -2.04809 2.38539 0
M  V30 4395 N 422.737 -1.36956 0.779787 0
M  V30 4396 C 423.965 -2.03755 0.359398 0
M  V30 4397 C 424.38 -1.58807 -1.02106 0
M  V30 4398 O 423.737 -0.773024 -1.6532 0
M  V30 4399 C 423.788 -3.59251 0.402568 0
M  V30 4400 O 423.509 -4.02557 1.72858 0
M  V30 4401 C 425.01 -4.43291 -0.0284068 0
M  V30 4402 H 422.23 -0.654148 0.149437 0
M  V30 4403 H 424.774 -1.75128 1.05595 0
M  V30 4404 H 422.929 -3.86621 -0.245478 0
M  V30 4405 H 423.343 -4.97111 1.67275 0
M  V30 4406 H 424.817 -5.51975 0.0529466 0
M  V30 4407 H 425.294 -4.25719 -1.07982 0
M  V30 4408 H 425.9 -4.21163 0.591758 0
M  V30 4409 N 424.215 -0.530993 -1.48385 0
M  V30 4410 C 425.461 0.00274135 -2.028 0
M  V30 4411 C 425.794 1.33838 -1.40716 0
M  V30 4412 O 425.069 1.86465 -0.553277 0
M  V30 4413 C 425.352 0.123676 -3.59888 0
M  V30 4414 C 425.205 -1.2372 -4.3245 0
M  V30 4415 C 426.524 0.849967 -4.31814 0
M  V30 4416 H 423.643 -0.000477758 -0.737 0
M  V30 4417 H 426.285 -0.688217 -1.77098 0
M  V30 4418 H 424.435 0.712157 -3.81917 0
M  V30 4419 H 426.107 -1.86687 -4.21836 0
M  V30 4420 H 424.35 -1.81882 -3.93829 0
M  V30 4421 H 425.021 -1.10557 -5.40815 0
M  V30 4422 H 427.497 0.350572 -4.14621 0
M  V30 4423 H 426.373 0.903486 -5.41413 0
M  V30 4424 H 426.634 1.90047 -3.99167 0
M  V30 4425 N 425.693 1.55336 -0.266172 0
M  V30 4426 C 426.656 2.20878 0.612001 0
M  V30 4427 C 427.656 1.18388 1.08816 0
M  V30 4428 O 428.846 1.4335 0.989774 0
M  V30 4429 C 425.978 2.86765 1.84332 0
M  V30 4430 H 427.171 2.99873 0.0398718 0
M  V30 4431 H 424.724 1.56291 -0.0167309 0
M  V30 4432 H 425.459 2.11759 2.45619 0
M  V30 4433 H 425.244 3.61862 1.5099 0
M  V30 4434 H 426.734 3.36867 2.46801 0
M  V30 4435 N 427.171 -0.0066808 1.57599 0
M  V30 4436 C 428.119 -1.01851 2.09115 0
M  V30 4437 C 429.113 -1.36021 1.00969 0
M  V30 4438 O 430.319 -1.34663 1.19439 0
M  V30 4439 H 426.694 -0.346083 0.667631 0
M  V30 4440 H 428.665 -0.558394 2.93129 0
M  V30 4441 C 427.414 -2.30374 2.60429 0
M  V30 4442 H 426.737 -2.04947 3.43273 0
M  V30 4443 H 428.177 -2.99466 3.00161 0
M  V30 4444 C 426.636 -3.00893 1.51542 0
M  V30 4445 O 427.166 -3.91614 0.894484 0
M  V30 4446 N 425.372 -2.62603 1.2445 0
M  V30 4447 H 424.919 -1.88911 1.75129 0
M  V30 4448 H 424.877 -3.10101 0.518137 0
M  V30 4449 N 428.649 -1.55105 -0.279332 0
M  V30 4450 C 429.897 -1.75066 -1.00977 0
M  V30 4451 C 430.218 -0.551276 -1.87045 0
M  V30 4452 O 429.488 0.433984 -1.91032 0
M  V30 4453 H 428.068 -0.645578 -0.375816 0
M  V30 4454 H 430.73 -1.92497 -0.305089 0
M  V30 4455 H 429.826 -2.64894 -1.65038 0
M  V30 4456 N 430.127 0.543554 -1.4793 0
M  V30 4457 C 431.077 1.64527 -1.57844 0
M  V30 4458 C 432.061 1.54869 -0.436408 0
M  V30 4459 O 433.253 1.63119 -0.687101 0
M  V30 4460 C 430.382 3.03281 -1.6086 0
M  V30 4461 C 429.468 3.18093 -2.80495 0
M  V30 4462 N 429.859 3.02923 -4.05057 0
M  V30 4463 C 428.157 3.49121 -2.77543 0
M  V30 4464 C 428.858 3.20791 -4.85251 0
M  V30 4465 N 427.834 3.47749 -4.17818 0
M  V30 4466 H 431.636 1.51388 -2.5191 0
M  V30 4467 H 429.15 0.748671 -1.44113 0
M  V30 4468 H 431.147 3.82403 -1.66054 0
M  V30 4469 H 429.807 3.17521 -0.678996 0
M  V30 4470 H 430.818 2.79966 -4.35705 0
M  V30 4471 H 427.495 3.69804 -1.93781 0
M  V30 4472 H 428.885 3.13915 -5.9406 0
M  V30 4473 N 431.605 1.3629 0.791371 0
M  V30 4474 C 432.853 1.30154 1.5461 0
M  V30 4475 C 433.174 -0.119409 1.94634 0
M  V30 4476 O 432.444 -1.05924 1.64794 0
M  V30 4477 H 431.024 0.478784 0.573389 0
M  V30 4478 H 433.686 1.70565 0.94306 0
M  V30 4479 H 432.782 1.92762 2.45457 0
M  V30 4480 N 433.083 -1.0153 1.20538 0
M  V30 4481 C 434.013 -2.11972 0.979295 0
M  V30 4482 C 434.994 -1.6985 -0.0921787 0
M  V30 4483 O 436.179 -1.94089 0.0655932 0
M  V30 4484 C 433.309 -3.43201 0.531984 0
M  V30 4485 C 432.263 -3.9907 1.54685 0
M  V30 4486 C 431.589 -5.26082 0.956127 0
M  V30 4487 C 432.889 -4.32313 2.93092 0
M  V30 4488 H 434.583 -2.31143 1.90298 0
M  V30 4489 H 432.129 -1.11079 0.916372 0
M  V30 4490 H 434.082 -4.1985 0.361044 0
M  V30 4491 H 432.806 -3.23792 -0.427327 0
M  V30 4492 H 431.465 -3.2453 1.70517 0
M  V30 4493 H 431.113 -5.02999 -0.0111538 0
M  V30 4494 H 430.813 -5.64426 1.63393 0
M  V30 4495 H 432.337 -6.05386 0.796284 0
M  V30 4496 H 433.751 -4.99845 2.80763 0
M  V30 4497 H 432.148 -4.81774 3.57791 0
M  V30 4498 H 433.218 -3.41025 3.44717 0
M  V30 4499 N 434.561 -1.01147 -1.20859 0
M  V30 4500 C 435.491 -0.597663 -2.25722 0
M  V30 4501 C 436.472 0.384744 -1.65692 0
M  V30 4502 O 437.657 0.271303 -1.92296 0
M  V30 4503 C 434.787 0.0700149 -3.47229 0
M  V30 4504 C 433.741 -0.832843 -4.19819 0
M  V30 4505 C 433.067 -0.0312202 -5.34691 0
M  V30 4506 C 434.367 -2.1385 -4.76514 0
M  V30 4507 H 436.061 -1.47423 -2.60589 0
M  V30 4508 H 433.607 -0.710301 -1.25263 0
M  V30 4509 H 435.56 0.37103 -4.19763 0
M  V30 4510 H 434.284 0.981259 -3.11511 0
M  V30 4511 H 432.943 -1.11778 -3.49144 0
M  V30 4512 H 432.591 0.881515 -4.95215 0
M  V30 4513 H 432.291 -0.632434 -5.84187 0
M  V30 4514 H 433.815 0.26346 -6.10031 0
M  V30 4515 H 435.229 -1.9002 -5.40893 0
M  V30 4516 H 433.626 -2.69012 -5.36426 0
M  V30 4517 H 434.696 -2.80495 -3.95538 0
M  V30 4518 N 436.039 1.36541 -0.78704 0
M  V30 4519 C 436.969 2.32659 -0.197992 0
M  V30 4520 C 437.95 1.56533 0.665697 0
M  V30 4521 O 439.135 1.84698 0.60001 0
M  V30 4522 C 436.265 3.40778 0.669901 0
M  V30 4523 C 435.219 4.27897 -0.0937039 0
M  V30 4524 C 434.545 5.27163 0.894629 0
M  V30 4525 C 435.845 5.06334 -1.28154 0
M  V30 4526 H 437.539 2.82171 -1.00099 0
M  V30 4527 H 435.085 1.35665 -0.482793 0
M  V30 4528 H 437.038 4.07008 1.09191 0
M  V30 4529 H 435.762 2.89827 1.50558 0
M  V30 4530 H 434.421 3.6322 -0.49666 0
M  V30 4531 H 434.069 4.72486 1.72527 0
M  V30 4532 H 433.769 5.86317 0.388149 0
M  V30 4533 H 435.293 5.96266 1.31525 0
M  V30 4534 H 436.707 5.65617 -0.93541 0
M  V30 4535 H 435.104 5.74888 -1.72115 0
M  V30 4536 H 436.174 4.38114 -2.07807 0
M  V30 4537 N 437.518 0.538854 1.48102 0
M  V30 4538 C 438.451 -0.266495 2.26639 0
M  V30 4539 C 439.429 -0.93687 1.32897 0
M  V30 4540 O 440.613 -0.959507 1.62252 0
M  V30 4541 C 437.74 -1.37814 3.09394 0
M  V30 4542 C 436.786 -0.818247 4.18577 0
M  V30 4543 S 437.619 0.320848 5.34538 0
M  V30 4544 C 438.775 -0.793059 6.20855 0
M  V30 4545 H 439.008 0.399994 2.94597 0
M  V30 4546 H 436.541 0.324808 1.50945 0
M  V30 4547 H 438.499 -2.01488 3.57649 0
M  V30 4548 H 437.16 -2.01639 2.40833 0
M  V30 4549 H 436.353 -1.65247 4.7614 0
M  V30 4550 H 435.955 -0.258036 3.73109 0
M  V30 4551 H 438.247 -1.68961 6.56093 0
M  V30 4552 H 439.19 -0.255204 7.0764 0
M  V30 4553 H 439.598 -1.07746 5.54122 0
M  V30 4554 N 438.996 -1.55193 0.274407 0
M  V30 4555 C 440.412 -1.59401 -0.0797543 0
M  V30 4556 C 440.612 -1.29162 -1.54659 0
M  V30 4557 O 439.668 -1.05215 -2.29534 0
M  V30 4558 C 440.981 -2.99257 0.294238 0
M  V30 4559 C 442.529 -3.12072 0.240796 0
M  V30 4560 C 443.004 -4.54194 0.589218 0
M  V30 4561 N 444.495 -4.60033 0.540744 0
M  V30 4562 C 445.23 -5.68027 0.783147 0
M  V30 4563 N 444.726 -6.8417 1.09013 0
M  V30 4564 N 446.519 -5.57572 0.711993 0
M  V30 4565 H 438.67 -1.73113 1.23067 0
M  V30 4566 H 440.933 -0.807197 0.497129 0
M  V30 4567 H 440.639 -3.26217 1.31435 0
M  V30 4568 H 440.513 -3.75427 -0.365281 0
M  V30 4569 H 442.9 -2.84877 -0.770024 0
M  V30 4570 H 442.981 -2.38117 0.934563 0
M  V30 4571 H 442.625 -4.82115 1.59772 0
M  V30 4572 H 442.555 -5.26448 -0.126331 0
M  V30 4573 H 445.046 -3.76599 0.313327 0
M  V30 4574 H 445.359 -7.6243 1.26178 0
M  V30 4575 H 443.704 -6.85787 1.12789 0
M  V30 4576 H 446.895 -4.65714 0.472014 0
M  V30 4577 H 447.068 -6.41659 0.90429 0
M  V30 4578 N 440.474 -0.00167713 -1.576 0
M  V30 4579 C 441.704 0.692754 -1.94639 0
M  V30 4580 C 442.112 1.67744 -0.87513 0
M  V30 4581 O 441.455 1.8305 0.154382 0
M  V30 4582 C 441.517 1.47881 -3.27676 0
M  V30 4583 C 441.181 0.655518 -4.52274 0
M  V30 4584 C 442.178 -0.0575214 -5.19868 0
M  V30 4585 C 439.863 0.600994 -4.98692 0
M  V30 4586 C 441.857 -0.814052 -6.3218 0
M  V30 4587 C 439.544 -0.15926 -6.10892 0
M  V30 4588 C 440.542 -0.865515 -6.77494 0
M  V30 4589 O 440.23 -1.61336 -7.87544 0
M  V30 4590 H 439.962 0.197792 -0.646417 0
M  V30 4591 H 442.516 -0.049423 -2.05341 0
M  V30 4592 H 440.746 2.2655 -3.13388 0
M  V30 4593 H 442.435 2.05874 -3.49816 0
M  V30 4594 H 443.201 -0.0245611 -4.84994 0
M  V30 4595 H 439.08 1.14025 -4.46676 0
M  V30 4596 H 442.624 -1.36584 -6.84098 0
M  V30 4597 H 438.521 -0.194035 -6.45208 0
M  V30 4598 H 439.289 -1.53025 -8.04068 0
M  V30 4599 N 441.952 1.55251 0.271103 0
M  V30 4600 C 443.2 1.75599 1.00047 0
M  V30 4601 C 443.521 0.561188 1.8675 0
M  V30 4602 O 442.791 -0.423846 1.9126 0
M  V30 4603 H 441.371 0.647562 0.372387 0
M  V30 4604 H 444.033 1.92656 0.294876 0
M  V30 4605 H 443.129 2.65766 1.6363 0
M  V30 4606 N 443.43 -0.535701 1.48216 0
M  V30 4607 C 444.655 -1.32149 1.59848 0
M  V30 4608 C 445.08 -1.86338 0.256842 0
M  V30 4609 O 444.438 -1.64107 -0.770632 0
M  V30 4610 C 444.486 -2.45224 2.64381 0
M  V30 4611 O 443.59 -3.48093 2.21144 0
M  V30 4612 H 442.931 -0.391634 0.536208 0
M  V30 4613 H 445.461 -0.645202 1.94161 0
M  V30 4614 H 445.471 -2.91491 2.85476 0
M  V30 4615 H 444.146 -2.05143 3.61786 0
M  V30 4616 H 442.723 -3.07984 2.10239 0
M  V30 4617 N 444.908 -1.36708 -0.784132 0
M  V30 4618 C 446.133 -1.34565 -1.5782 0
M  V30 4619 C 446.558 0.0695257 -1.87971 0
M  V30 4620 O 445.916 1.04302 -1.48293 0
M  V30 4621 C 445.964 -2.17952 -2.87279 0
M  V30 4622 O 445.068 -1.57563 -3.81114 0
M  V30 4623 H 444.409 -0.460337 -0.478524 0
M  V30 4624 H 446.939 -1.80064 -0.971495 0
M  V30 4625 H 446.949 -2.30721 -3.365 0
M  V30 4626 H 445.624 -3.20823 -2.64661 0
M  V30 4627 H 444.201 -1.53764 -3.39722 0
M  V30 4628 N 446.386 1.0089 -1.21074 0
M  V30 4629 C 447.296 2.13039 -0.982425 0
M  V30 4630 C 448.312 1.73881 0.0642161 0
M  V30 4631 O 449.488 2.01012 -0.12496 0
M  V30 4632 C 446.553 3.42377 -0.545803 0
M  V30 4633 C 445.614 3.95731 -1.6642 0
M  V30 4634 C 444.847 5.18896 -1.24832 0
M  V30 4635 O 445.07 5.70273 -0.120265 0
M  V30 4636 O 444.004 5.65597 -2.05873 0
M  V30 4637 H 447.83 2.35175 -1.92163 0
M  V30 4638 H 445.415 1.1142 -0.995285 0
M  V30 4639 H 447.297 4.20244 -0.311912 0
M  V30 4640 H 445.972 3.21639 0.364727 0
M  V30 4641 H 444.879 3.19108 -1.95246 0
M  V30 4642 H 446.212 4.20872 -2.55201 0
M  V30 4643 N 447.864 1.01787 1.20321 0
M  V30 4644 C 448.794 0.609625 2.25401 0
M  V30 4645 C 449.775 -0.375951 1.65893 0
M  V30 4646 O 450.96 -0.261101 1.92437 0
M  V30 4647 C 448.09 -0.0515995 3.47262 0
M  V30 4648 C 447.044 0.855095 4.19371 0
M  V30 4649 C 446.37 0.0595757 5.34667 0
M  V30 4650 C 447.67 2.16374 4.75373 0
M  V30 4651 H 449.364 1.48803 2.59804 0
M  V30 4652 H 446.91 0.716934 1.24884 0
M  V30 4653 H 448.863 -0.348764 4.19954 0
M  V30 4654 H 447.587 -0.964726 3.12027 0
M  V30 4655 H 446.246 1.13628 3.48546 0
M  V30 4656 H 445.894 -0.85524 4.95676 0
M  V30 4657 H 445.594 0.663406 5.83843 0
M  V30 4658 H 447.118 -0.231105 6.10162 0
M  V30 4659 H 448.532 1.92885 5.39878 0
M  V30 4660 H 446.929 2.71853 5.34991 0
M  V30 4661 H 447.999 2.82589 3.94045 0
M  V30 4662 N 449.342 -1.36122 0.79427 0
M  V30 4663 C 450.289 -2.29982 0.194101 0
M  V30 4664 C 451.259 -1.52214 -0.664833 0
M  V30 4665 O 452.444 -1.80702 -0.612498 0
M  V30 4666 C 449.584 -3.38706 -0.661244 0
M  V30 4667 C 448.697 -4.31456 0.216766 0
M  V30 4668 C 447.832 -5.27265 -0.645411 0
M  V30 4669 C 446.871 -6.11653 0.233756 0
M  V30 4670 N 446.008 -6.99636 -0.587682 0
M  V30 4671 H 450.848 -2.80722 0.999965 0
M  V30 4672 H 448.385 -1.38172 0.504677 0
M  V30 4673 H 450.343 -4.00394 -1.17219 0
M  V30 4674 H 448.973 -2.89274 -1.43249 0
M  V30 4675 H 448.025 -3.7088 0.845724 0
M  V30 4676 H 449.337 -4.90724 0.893973 0
M  V30 4677 H 448.491 -5.94266 -1.22198 0
M  V30 4678 H 447.23 -4.68463 -1.35623 0
M  V30 4679 H 446.235 -5.4361 0.82269 0
M  V30 4680 H 447.46 -6.72531 0.942247 0
M  V30 4681 H 445.406 -6.43337 -1.2827 0
M  V30 4682 H 445.323 -7.55993 0.0317402 0
M  V30 4683 H 446.591 -7.71001 -1.14792 0
M  V30 4684 N 450.82 -0.546701 -1.47814 0
M  V30 4685 C 452.068 -0.0187037 -2.02091 0
M  V30 4686 C 452.389 1.33168 -1.42447 0
M  V30 4687 O 451.659 1.86619 -0.595839 0
M  V30 4688 H 450.239 -0.00392531 -0.74699 0
M  V30 4689 H 452.901 -0.714327 -1.81338 0
M  V30 4690 H 451.997 0.0772219 -3.12004 0
M  V30 4691 N 452.299 1.55045 -0.282633 0
M  V30 4692 C 453.249 2.19514 0.616249 0
M  V30 4693 C 454.233 1.16216 1.11277 0
M  V30 4694 O 455.425 1.42004 1.05659 0
M  V30 4695 C 452.554 2.92548 1.7964 0
M  V30 4696 C 451.64 4.03142 1.31671 0
M  V30 4697 N 452.031 5.0276 0.553695 0
M  V30 4698 C 450.329 4.1635 1.59903 0
M  V30 4699 C 451.03 5.80923 0.30054 0
M  V30 4700 N 450.006 5.3651 0.875116 0
M  V30 4701 H 453.808 2.93889 0.0255363 0
M  V30 4702 H 451.322 1.62169 -0.0865362 0
M  V30 4703 H 453.319 3.37188 2.45173 0
M  V30 4704 H 451.979 2.19685 2.39099 0
M  V30 4705 H 452.99 5.17512 0.20032 0
M  V30 4706 H 449.667 3.54682 2.20243 0
M  V30 4707 H 451.057 6.7118 -0.311053 0
M  V30 4708 N 453.777 0.010035 1.57597 0
M  V30 4709 C 454.707 -0.976857 2.12084 0
M  V30 4710 C 455.688 -1.35191 1.03235 0
M  V30 4711 O 456.873 -1.43389 1.3097 0
M  V30 4712 C 454.003 -2.26548 2.63236 0
M  V30 4713 C 452.957 -2.03175 3.76701 0
M  V30 4714 C 452.283 -3.38138 4.14206 0
M  V30 4715 C 453.583 -1.38625 5.03568 0
M  V30 4716 H 455.277 -0.523145 2.94794 0
M  V30 4717 H 452.823 -0.250195 1.4181 0
M  V30 4718 H 454.776 -2.95952 2.99984 0
M  V30 4719 H 453.5 -2.74051 1.77661 0
M  V30 4720 H 452.159 -1.36195 3.40362 0
M  V30 4721 H 451.807 -3.83363 3.25641 0
M  V30 4722 H 451.507 -3.23312 4.90656 0
M  V30 4723 H 453.031 -4.08841 4.53521 0
M  V30 4724 H 454.445 -1.98 5.38023 0
M  V30 4725 H 452.842 -1.34256 5.84889 0
M  V30 4726 H 453.912 -0.356722 4.83586 0
M  V30 4727 N 455.255 -1.55392 -0.262866 0
M  V30 4728 C 456.503 -1.76127 -0.991147 0
M  V30 4729 C 456.824 -0.571083 -1.8645 0
M  V30 4730 O 456.094 0.413698 -1.91482 0
M  V30 4731 H 454.674 -0.649528 -0.368948 0
M  V30 4732 H 457.336 -1.9281 -0.284655 0
M  V30 4733 H 456.432 -2.6663 -1.62219 0
M  V30 4734 N 456.733 0.527833 -1.48498 0
M  V30 4735 C 457.665 1.6482 -1.5927 0
M  V30 4736 C 458.678 1.55659 -0.476869 0
M  V30 4737 O 459.867 1.62081 -0.747806 0
M  V30 4738 C 456.967 3.0348 -1.50842 0
M  V30 4739 C 456.14 3.381 -2.77502 0
M  V30 4740 C 455.199 4.5605 -2.62497 0
M  V30 4741 O 454.225 4.59165 -3.36387 0
M  V30 4742 N 455.427 5.54353 -1.72257 0
M  V30 4743 H 458.192 1.56015 -2.55889 0
M  V30 4744 H 455.753 0.715152 -1.45249 0
M  V30 4745 H 457.745 3.80264 -1.38496 0
M  V30 4746 H 456.315 3.06352 -0.621887 0
M  V30 4747 H 455.535 2.50473 -3.04396 0
M  V30 4748 H 456.823 3.58017 -3.61527 0
M  V30 4749 H 456.221 5.54617 -1.11431 0
M  V30 4750 H 454.778 6.30347 -1.65849 0
M  V30 4751 N 458.211 1.37122 0.776871 0
M  V30 4752 C 459.46 1.31373 1.53049 0
M  V30 4753 C 459.773 -0.101016 1.95339 0
M  V30 4754 O 460.979 -0.280953 2.70042 0
M  V30 4755 C 459.435 2.30567 2.76346 0
M  V30 4756 C 459.043 3.77543 2.41175 0
M  V30 4757 C 460.787 2.33818 3.54301 0
M  V30 4758 C 458.694 4.68481 3.60943 0
M  V30 4759 H 457.624 0.488234 0.574581 0
M  V30 4760 H 460.275 1.62554 0.851372 0
M  V30 4761 H 458.657 1.92396 3.46121 0
M  V30 4762 H 459.831 4.24521 1.79216 0
M  V30 4763 H 458.146 3.77187 1.76405 0
M  V30 4764 H 460.743 2.98965 4.4331 0
M  V30 4765 H 461.086 1.3503 3.93793 0
M  V30 4766 H 461.619 2.7067 2.91518 0
M  V30 4767 H 458.358 5.68378 3.26537 0
M  V30 4768 H 457.878 4.2621 4.22025 0
M  V30 4769 H 459.557 4.85366 4.27819 0
M  V30 4770 N 459.689 -1.00246 1.21608 0
M  V30 4771 C 461.1 -1.55511 1.03312 0
M  V30 4772 C 461.451 -1.91946 -0.406332 0
M  V30 4773 O 460.576 -1.73753 -1.28992 0
M  V30 4774 C 461.171 -2.82576 1.86913 0
M  V30 4775 C 459.73 -3.34318 1.72941 0
M  V30 4776 C 458.877 -2.07487 1.83968 0
M  V30 4777 H 461.828 -0.824638 1.35593 0
M  V30 4778 H 461.849 -3.54559 1.38087 0
M  V30 4779 H 461.361 -2.56026 2.91672 0
M  V30 4780 H 459.462 -3.65797 0.70877 0
M  V30 4781 H 459.575 -4.05566 2.55055 0
M  V30 4782 H 457.939 -2.20603 1.27304 0
M  V30 4783 H 458.722 -1.83346 2.9024 0
M  V30 4784 N 461.167 -1.02423 -1.1978 0
M  V30 4785 C 462.415 -0.716569 -1.8897 0
M  V30 4786 C 462.736 0.756769 -1.79716 0
M  V30 4787 O 462.006 1.5449 -1.20456 0
M  V30 4788 H 460.586 -0.262062 -0.699523 0
M  V30 4789 H 463.248 -1.29747 -1.45436 0
M  V30 4790 H 462.344 -1.00675 -2.95417 0
M  V30 4791 N 462.645 1.35699 -0.801477 0
M  V30 4792 C 463.595 2.2728 -0.181073 0
M  V30 4793 C 464.579 1.47533 0.642098 0
M  V30 4794 O 465.771 1.69785 0.500193 0
M  V30 4795 C 462.9 3.36626 0.673612 0
M  V30 4796 C 461.986 4.23802 -0.159008 0
M  V30 4797 N 462.377 4.90879 -1.2195 0
M  V30 4798 C 460.675 4.45959 0.0602005 0
M  V30 4799 C 461.376 5.5546 -1.72738 0
M  V30 4800 N 460.352 5.33663 -1.03465 0
M  V30 4801 H 464.154 2.76632 -0.992582 0
M  V30 4802 H 461.668 1.49166 -0.642127 0
M  V30 4803 H 463.665 4.01179 1.13408 0
M  V30 4804 H 462.325 2.88828 1.48353 0
M  V30 4805 H 463.336 4.92497 -1.60209 0
M  V30 4806 H 460.013 4.08969 0.839664 0
M  V30 4807 H 461.403 6.18991 -2.61342 0
M  V30 4808 N 464.123 0.554532 1.47522 0
M  V30 4809 C 465.351 0.034257 2.06872 0
M  V30 4810 C 465.766 -1.25826 1.40759 0
M  V30 4811 O 465.123 -1.75425 0.503217 0
M  V30 4812 C 465.174 -0.167827 3.6111 0
M  V30 4813 O 464.895 1.07351 4.24744 0
M  V30 4814 C 466.396 -0.72569 4.3732 0
M  V30 4815 H 463.616 0.0446275 0.669514 0
M  V30 4816 H 466.16 0.767181 1.89564 0
M  V30 4817 H 464.315 -0.850872 3.7794 0
M  V30 4818 H 464.729 0.869563 5.17242 0
M  V30 4819 H 466.203 -0.816394 5.45929 0
M  V30 4820 H 466.68 -1.73635 4.0342 0
M  V30 4821 H 467.286 -0.0784292 4.25228 0
M  V30 4822 N 465.601 -1.54893 0.290851 0
M  V30 4823 C 466.826 -2.04804 -0.32712 0
M  V30 4824 C 467.251 -1.16721 -1.47506 0
M  V30 4825 O 466.609 -0.169107 -1.8051 0
M  V30 4826 C 466.657 -3.52268 -0.770689 0
M  V30 4827 O 465.761 -3.67236 -1.87647 0
M  V30 4828 H 465.102 -0.660789 -0.0652227 0
M  V30 4829 H 467.632 -2.00036 0.429739 0
M  V30 4830 H 467.642 -3.9393 -1.06223 0
M  V30 4831 H 466.317 -4.15843 0.069096 0
M  V30 4832 H 464.894 -3.37479 -1.58626 0
M  V30 4833 N 467.08 -0.0183926 -1.57589 0
M  V30 4834 C 468.329 0.66185 -1.90532 0
M  V30 4835 C 468.642 1.73904 -0.895366 0
M  V30 4836 O 469.848 2.47518 -1.11566 0
M  V30 4837 C 468.304 1.22844 -3.38286 0
M  V30 4838 C 467.912 0.185103 -4.47617 0
M  V30 4839 C 469.656 1.88581 -3.80312 0
M  V30 4840 C 467.563 0.762723 -5.86461 0
M  V30 4841 H 466.493 0.250972 -0.711006 0
M  V30 4842 H 469.144 -0.0819435 -1.83317 0
M  V30 4843 H 467.526 2.0235 -3.40398 0
M  V30 4844 H 468.7 -0.58671 -4.5705 0
M  V30 4845 H 467.015 -0.372889 -4.14727 0
M  V30 4846 H 469.612 2.32735 -4.81392 0
M  V30 4847 H 469.955 2.72408 -3.14801 0
M  V30 4848 H 470.488 1.15782 -3.80578 0
M  V30 4849 H 467.227 -0.0371713 -6.55489 0
M  V30 4850 H 466.747 1.50327 -5.80656 0
M  V30 4851 H 468.426 1.25576 -6.34697 0
M  V30 4852 N 468.558 1.5553 0.254621 0
M  V30 4853 C 469.491 1.84624 1.34124 0
M  V30 4854 C 470.469 0.700693 1.46728 0
M  V30 4855 O 471.653 0.94564 1.63064 0
M  V30 4856 C 468.78 2.02412 2.71564 0
M  V30 4857 C 467.826 3.25028 2.7615 0
M  V30 4858 S 468.659 4.81893 2.33538 0
M  V30 4859 C 469.815 5.02677 3.72917 0
M  V30 4860 H 470.048 2.76501 1.09245 0
M  V30 4861 H 467.581 1.47537 0.455211 0
M  V30 4862 H 469.539 2.13345 3.50705 0
M  V30 4863 H 468.2 1.11391 2.93685 0
M  V30 4864 H 467.393 3.34418 3.77069 0
M  V30 4865 H 466.995 3.12781 2.05046 0
M  V30 4866 H 469.287 4.89546 4.68349 0
M  V30 4867 H 470.23 6.0468 3.68467 0
M  V30 4868 H 470.638 4.30561 3.65072 0
M  V30 4869 N 470.036 -0.519951 1.48776 0
M  V30 4870 C 471.284 -1.2727 1.56993 0
M  V30 4871 C 471.605 -1.9339 0.25004 0
M  V30 4872 O 470.875 -1.81822 -0.729216 0
M  V30 4873 H 469.455 -0.472732 0.578389 0
M  V30 4874 H 472.117 -0.604234 1.85297 0
M  V30 4875 H 471.213 -2.04669 2.3562 0
M  V30 4876 N 471.514 -1.37532 -0.769588 0
M  V30 4877 C 472.93 -1.18379 -1.07045 0
M  V30 4878 C 473.13 -0.0214312 -2.01489 0
M  V30 4879 O 472.186 0.637809 -2.44312 0
M  V30 4880 C 473.499 -2.50338 -1.66588 0
M  V30 4881 C 475.047 -2.56879 -1.78835 0
M  V30 4882 C 475.522 -3.88974 -2.41792 0
M  V30 4883 N 477.013 -3.90428 -2.4924 0
M  V30 4884 C 477.748 -4.89388 -2.98809 0
M  V30 4885 N 477.244 -5.98745 -3.48535 0
M  V30 4886 N 479.037 -4.76791 -2.97703 0
M  V30 4887 H 471.188 -2.11921 -0.142541 0
M  V30 4888 H 473.451 -0.939608 -0.125863 0
M  V30 4889 H 473.157 -3.35767 -1.0466 0
M  V30 4890 H 473.031 -2.67583 -2.65856 0
M  V30 4891 H 475.418 -1.71856 -2.39895 0
M  V30 4892 H 475.499 -2.43516 -0.783166 0
M  V30 4893 H 475.143 -4.74412 -1.81371 0
M  V30 4894 H 475.073 -3.99641 -3.4292 0
M  V30 4895 H 477.564 -3.11433 -2.14052 0
M  V30 4896 H 477.877 -6.70205 -3.84767 0
M  V30 4897 H 476.222 -6.02387 -3.46634 0
M  V30 4898 H 479.413 -3.90478 -2.58157 0
M  V30 4899 H 479.586 -5.54069 -3.36024 0
M  V30 4900 N 472.992 0.995999 -1.22138 0
M  V30 4901 C 474.269 1.70834 -0.952642 0
M  V30 4902 C 474.649 2.04257 0.533119 0
M  V30 4903 O 473.997 1.72343 1.50034 0
M  V30 4904 C 474.207 2.96119 -1.84701 0
M  V30 4905 C 475.555 3.68962 -2.10124 0
M  V30 4906 O 476.579 3.0612 -1.82124 0
M  V30 4907 O 475.438 4.82017 -2.57531 0
M  V30 4908 H 472.532 0.745498 -0.357997 0
M  V30 4909 H 475.078 1.05262 -1.33109 0
M  V30 4910 H 473.85 2.67898 -2.85213 0
M  V30 4911 H 473.473 3.6943 -1.46995 0
M  V30 4912 N 474.47 1.03057 1.19235 0
M  V30 4913 C 475.38 0.622922 2.26179 0
M  V30 4914 C 476.396 -0.346113 1.70523 0
M  V30 4915 O 477.572 -0.203572 2.00369 0
M  V30 4916 C 474.637 -0.0182063 3.46695 0
M  V30 4917 C 473.698 0.998546 4.17526 0
M  V30 4918 C 472.931 0.387917 5.32288 0
M  V30 4919 O 473.154 -0.808668 5.64639 0
M  V30 4920 O 472.088 1.1116 5.91546 0
M  V30 4921 H 475.914 1.51363 2.63292 0
M  V30 4922 H 473.499 0.800856 1.26122 0
M  V30 4923 H 475.381 -0.375606 4.19723 0
M  V30 4924 H 474.056 -0.882895 3.11427 0
M  V30 4925 H 472.963 1.40756 3.4661 0
M  V30 4926 H 474.296 1.83366 4.56769 0
M  V30 4927 N 475.948 -1.35272 0.808662 0
M  V30 4928 C 476.858 -2.33546 0.222079 0
M  V30 4929 C 477.874 -1.6196 -0.636011 0
M  V30 4930 O 479.05 -1.93822 -0.547274 0
M  V30 4931 C 476.115 -3.41148 -0.61795 0
M  V30 4932 C 475.176 -4.28507 0.260875 0
M  V30 4933 C 474.409 -5.3097 -0.539156 0
M  V30 4934 O 474.632 -5.42123 -1.77367 0
M  V30 4935 O 473.566 -6.01858 0.0710526 0
M  V30 4936 H 477.392 -2.85515 1.03512 0
M  V30 4937 H 474.977 -1.38079 0.570495 0
M  V30 4938 H 476.859 -4.06889 -1.09634 0
M  V30 4939 H 475.534 -2.91447 -1.40855 0
M  V30 4940 H 474.441 -3.6574 0.786451 0
M  V30 4941 H 475.774 -4.81611 1.01547 0
M  V30 4942 N 477.426 -0.562348 -1.47226 0
M  V30 4943 C 478.654 -0.0452275 -2.06851 0
M  V30 4944 C 479.069 1.25078 -1.41424 0
M  V30 4945 O 478.426 1.75156 -0.512513 0
M  V30 4946 C 478.477 0.148674 -3.61194 0
M  V30 4947 O 478.198 -1.09602 -4.24169 0
M  V30 4948 C 479.699 0.702488 -4.37699 0
M  V30 4949 H 476.919 -0.0481775 -0.669268 0
M  V30 4950 H 479.463 -0.777223 -1.89155 0
M  V30 4951 H 477.618 0.830817 -3.78386 0
M  V30 4952 H 478.032 -0.896982 -5.16773 0
M  V30 4953 H 479.506 0.78743 -5.46355 0
M  V30 4954 H 479.983 1.71493 -4.04335 0
M  V30 4955 H 480.589 0.0558772 -4.25263 0
M  V30 4956 N 478.904 1.54736 -0.299062 0
M  V30 4957 C 480.152 1.99706 0.31017 0
M  V30 4958 C 480.473 1.18896 1.54559 0
M  V30 4959 O 479.743 0.284445 1.93824 0
M  V30 4960 H 478.323 0.737686 0.117596 0
M  V30 4961 H 480.985 1.9054 -0.409943 0
M  V30 4962 H 480.081 3.06596 0.58355 0
M  V30 4963 N 480.382 0.0267497 1.57577 0
M  V30 4964 C 481.345 -0.940916 2.08996 0
M  V30 4965 C 482.345 -1.25561 1.00455 0
M  V30 4966 O 483.535 -1.19634 1.26623 0
M  V30 4967 C 480.667 -2.25814 2.55384 0
M  V30 4968 H 481.86 -0.495628 2.95776 0
M  V30 4969 H 479.413 -0.221241 1.54726 0
M  V30 4970 H 480.148 -2.74976 1.71926 0
M  V30 4971 H 479.933 -2.04285 3.34679 0
M  V30 4972 H 481.423 -2.95178 2.95398 0
M  V30 4973 N 481.861 -1.55662 -0.24637 0
M  V30 4974 C 482.824 -1.89558 -1.28842 0
M  V30 4975 C 483.824 -0.772082 -1.41052 0
M  V30 4976 O 485.014 -1.04007 -1.39743 0
M  V30 4977 C 482.146 -2.12449 -2.66605 0
M  V30 4978 H 483.339 -2.82735 -1.00004 0
M  V30 4979 H 480.892 -1.48562 -0.485684 0
M  V30 4980 H 481.627 -1.21742 -3.00582 0
M  V30 4981 H 481.412 -2.94273 -2.59125 0
M  V30 4982 H 482.902 -2.39854 -3.41847 0
M  V30 4983 N 483.339 0.512053 -1.4905 0
M  V30 4984 C 484.269 1.62365 -1.67809 0
M  V30 4985 C 485.25 1.61737 -0.526809 0
M  V30 4986 O 486.435 1.78651 -0.761404 0
M  V30 4987 C 483.565 3.00895 -1.73435 0
M  V30 4988 C 482.519 3.16387 -2.88242 0
M  V30 4989 C 481.845 4.56157 -2.78971 0
M  V30 4990 C 483.145 2.97457 -4.29321 0
M  V30 4991 H 484.839 1.46921 -2.60873 0
M  V30 4992 H 482.385 0.705379 -1.2554 0
M  V30 4993 H 484.338 3.78549 -1.85145 0
M  V30 4994 H 483.062 3.17403 -0.769619 0
M  V30 4995 H 481.721 2.41155 -2.76116 0
M  V30 4996 H 481.369 4.69525 -1.8043 0
M  V30 4997 H 481.069 4.67465 -3.5602 0
M  V30 4998 H 482.593 5.35886 -2.92675 0
M  V30 4999 H 484.007 3.64888 -4.42187 0
M  V30 5000 H 482.404 3.20245 -5.07507 0
M  V30 5001 H 483.474 1.93692 -4.44535 0
M  V30 5002 N 484.817 1.37938 0.762283 0
M  V30 5003 C 485.75 1.2884 1.88349 0
M  V30 5004 C 486.728 0.167084 1.61739 0
M  V30 5005 O 487.912 0.34292 1.85355 0
M  V30 5006 C 485.039 0.994257 3.23778 0
M  V30 5007 C 484.085 2.13376 3.69287 0
M  V30 5008 S 484.918 3.75439 3.81845 0
M  V30 5009 C 486.074 3.48195 5.20107 0
M  V30 5010 H 486.307 2.23736 1.95779 0
M  V30 5011 H 483.84 1.23672 0.924368 0
M  V30 5012 H 485.798 0.83138 4.01993 0
M  V30 5013 H 484.459 0.0626251 3.14038 0
M  V30 5014 H 483.652 1.88319 4.67495 0
M  V30 5015 H 483.254 2.25726 2.98201 0
M  V30 5016 H 485.546 3.0377 6.05583 0
M  V30 5017 H 486.489 4.45765 5.50181 0
M  V30 5018 H 486.897 2.82905 4.88493 0
M  V30 5019 N 486.295 -0.989507 1.22664 0
M  V30 5020 C 487.225 -2.09847 1.02404 0
M  V30 5021 C 488.206 -1.70007 -0.0561303 0
M  V30 5022 O 489.391 -1.93906 0.106748 0
M  V30 5023 C 486.521 -3.41996 0.604663 0
M  V30 5024 C 485.475 -3.95699 1.63115 0
M  V30 5025 C 484.801 -5.23936 1.0675 0
M  V30 5026 C 486.101 -4.25999 3.02196 0
M  V30 5027 H 487.795 -2.27054 1.95158 0
M  V30 5028 H 485.341 -1.09111 0.939727 0
M  V30 5029 H 487.294 -4.1899 0.45002 0
M  V30 5030 H 486.018 -3.24626 -0.35855 0
M  V30 5031 H 484.677 -3.2084 1.77362 0
M  V30 5032 H 484.325 -5.02909 0.0955422 0
M  V30 5033 H 484.025 -5.60833 1.75328 0
M  V30 5034 H 485.549 -6.0356 0.924516 0
M  V30 5035 H 486.963 -4.93777 2.91303 0
M  V30 5036 H 485.36 -4.74076 3.67929 0
M  V30 5037 H 486.43 -3.33636 3.51873 0
M  V30 5038 N 487.773 -1.03688 -1.18687 0
M  V30 5039 C 489.022 -0.733235 -1.879 0
M  V30 5040 C 489.335 0.741745 -1.8099 0
M  V30 5041 O 490.541 1.15875 -2.4553 0
M  V30 5042 C 488.997 -1.26127 -3.37076 0
M  V30 5043 C 488.605 -2.76461 -3.52524 0
M  V30 5044 C 490.349 -1.03398 -4.11715 0
M  V30 5045 C 488.256 -3.22642 -4.95637 0
M  V30 5046 H 487.186 -0.270584 -0.703776 0
M  V30 5047 H 489.837 -1.25222 -1.34133 0
M  V30 5048 H 488.219 -0.670165 -3.90288 0
M  V30 5049 H 489.393 -3.41296 -3.09602 0
M  V30 5050 H 487.708 -2.97559 -2.91286 0
M  V30 5051 H 490.305 -1.3542 -5.17267 0
M  V30 5052 H 490.648 0.0289246 -4.1629 0
M  V30 5053 H 491.181 -1.5895 -3.64664 0
M  V30 5054 H 487.92 -4.28296 -4.96228 0
M  V30 5055 H 487.44 -2.62539 -5.39289 0
M  V30 5056 H 489.119 -3.16444 -5.64333 0
M  V30 5057 N 489.251 1.34841 -0.815825 0
M  V30 5058 C 490.183 2.28409 -0.190265 0
M  V30 5059 C 491.196 1.50705 0.615771 0
M  V30 5060 O 492.385 1.72822 0.446616 0
M  V30 5061 C 489.485 3.30441 0.752446 0
M  V30 5062 C 488.658 4.37399 -0.00922152 0
M  V30 5063 C 487.717 5.19234 0.853351 0
M  V30 5064 O 486.743 5.68404 0.300919 0
M  V30 5065 N 487.945 5.38248 2.17416 0
M  V30 5066 H 490.71 2.82732 -0.994114 0
M  V30 5067 H 488.271 1.47289 -0.672129 0
M  V30 5068 H 490.263 3.82084 1.33394 0
M  V30 5069 H 488.833 2.76565 1.45707 0
M  V30 5070 H 488.053 3.86567 -0.771979 0
M  V30 5071 H 489.341 5.05992 -0.533807 0
M  V30 5072 H 488.739 4.99961 2.6468 0
M  V30 5073 H 487.296 5.93035 2.70467 0
M  V30 5074 N 490.729 0.570148 1.46925 0
M  V30 5075 C 491.677 -0.183181 2.31878 0
M  V30 5076 C 492.671 -0.896721 1.43719 0
M  V30 5077 O 493.877 -0.816536 1.60414 0
M  V30 5078 H 490.252 -0.077944 0.74795 0
M  V30 5079 H 492.223 0.552312 2.93244 0
M  V30 5080 C 490.972 -1.19172 3.2664 0
M  V30 5081 H 490.295 -0.652088 3.94446 0
M  V30 5082 H 491.735 -1.68946 3.88887 0
M  V30 5083 C 490.194 -2.24627 2.51086 0
M  V30 5084 O 490.724 -3.31773 2.26472 0
M  V30 5085 N 488.93 -1.98898 2.11867 0
M  V30 5086 H 488.477 -1.11777 2.32086 0
M  V30 5087 H 488.435 -2.6967 1.61634 0
M  V30 5088 N 492.207 -1.54576 0.307264 0
M  V30 5089 C 493.432 -2.05139 -0.305379 0
M  V30 5090 C 493.857 -1.18278 -1.46259 0
M  V30 5091 O 493.215 -0.188243 -1.8032 0
M  V30 5092 C 493.263 -3.53066 -0.733283 0
M  V30 5093 O 492.367 -3.69206 -1.83741 0
M  V30 5094 H 491.708 -0.661444 -0.0582105 0
M  V30 5095 H 494.238 -1.99569 0.450931 0
M  V30 5096 H 494.248 -3.95034 -1.02039 0
M  V30 5097 H 492.923 -4.15746 0.113198 0
M  V30 5098 H 491.5 -3.39143 -1.55037 0
M  V30 5099 N 493.685 -0.035106 -1.57561 0
M  V30 5100 C 494.933 0.64096 -1.91667 0
M  V30 5101 C 495.254 1.72323 -0.912681 0
M  V30 5102 O 494.524 1.95849 0.0449089 0
M  V30 5103 H 493.104 0.239743 -0.707483 0
M  V30 5104 H 495.766 -0.084321 -1.94718 0
M  V30 5105 H 494.862 1.08987 -2.92452 0
M  V30 5106 N 495.163 1.55791 0.238111 0
M  V30 5107 C 496.126 1.90239 1.27835 0
M  V30 5108 C 497.126 0.779552 1.4064 0
M  V30 5109 O 498.316 1.04747 1.3919 0
M  V30 5110 C 495.448 2.13859 2.65475 0
M  V30 5111 H 496.641 2.83262 0.985034 0
M  V30 5112 H 494.194 1.48818 0.477799 0
M  V30 5113 H 494.929 1.23334 2.99932 0
M  V30 5114 H 494.714 2.95643 2.57561 0
M  V30 5115 H 496.204 2.41664 3.40571 0
M  V30 5116 N 496.642 -0.504142 1.49319 0
M  V30 5117 C 497.89 -1.25598 1.58334 0
M  V30 5118 C 498.211 -1.93114 0.270538 0
M  V30 5119 O 497.481 -1.82585 -0.709891 0
M  V30 5120 H 496.061 -0.466571 0.58337 0
M  V30 5121 H 498.723 -0.584547 1.85928 0
M  V30 5122 H 497.819 -2.02159 2.37778 0
M  V30 5123 N 498.12 -1.38341 -0.754957 0
M  V30 5124 C 499.397 -1.24995 -1.50451 0
M  V30 5125 C 499.777 0.149244 -2.10572 0
M  V30 5126 O 499.125 1.15861 -1.96948 0
M  V30 5127 C 499.335 -2.35904 -2.57197 0
M  V30 5128 C 500.683 -2.74262 -3.24138 0
M  V30 5129 O 501.707 -2.35205 -2.67501 0
M  V30 5130 O 500.566 -3.4161 -4.26574 0
M  V30 5131 H 497.66 -0.48872 -0.667144 0
M  V30 5132 H 500.206 -1.50165 -0.790486 0
M  V30 5133 H 498.978 -3.2953 -2.11011 0
M  V30 5134 H 498.601 -2.12291 -3.36182 0
M  V30 5135 N 499.598 0.982988 -1.23187 0
M  V30 5136 C 500.845 1.72392 -1.06241 0
M  V30 5137 C 501.173 1.9032 0.40108 0
M  V30 5138 O 500.428 1.45084 1.31336 0
M  V30 5139 C 500.727 3.12736 -1.73006 0
M  V30 5140 C 500.393 3.14695 -3.22921 0
M  V30 5141 C 499.055 3.14937 -3.63824 0
M  V30 5142 C 501.407 3.10211 -4.1883 0
M  V30 5143 C 498.735 3.08408 -4.99101 0
M  V30 5144 C 501.087 3.05224 -5.54095 0
M  V30 5145 C 499.751 3.03787 -5.94365 0
M  V30 5146 H 499.021 0.630829 -0.388762 0
M  V30 5147 H 501.668 1.15053 -1.53085 0
M  V30 5148 H 499.973 3.73446 -1.18514 0
M  V30 5149 H 501.67 3.68828 -1.57374 0
M  V30 5150 H 498.26 3.15262 -2.90358 0
M  V30 5151 H 502.444 3.09166 -3.8824 0
M  V30 5152 H 497.7 3.05646 -5.29519 0
M  V30 5153 H 501.874 3.00712 -6.28128 0
M  V30 5154 H 499.501 2.98483 -6.99151 0
M  V30 5155 N 501.076 1.04316 1.18135 0
M  V30 5156 C 501.986 0.646876 2.25505 0
M  V30 5157 C 503.002 -0.328008 1.7088 0
M  V30 5158 O 504.178 -0.182309 2.00573 0
M  V30 5159 C 501.243 0.0185664 3.46695 0
M  V30 5160 C 500.304 1.04277 4.16443 0
M  V30 5161 C 499.537 0.444352 5.31847 0
M  V30 5162 O 499.76 -0.748735 5.65465 0
M  V30 5163 O 498.694 1.17428 5.90334 0
M  V30 5164 H 502.52 1.54147 2.61672 0
M  V30 5165 H 500.105 0.814188 1.25265 0
M  V30 5166 H 501.987 -0.331068 4.20097 0
M  V30 5167 H 500.662 -0.849814 3.12346 0
M  V30 5168 H 499.569 1.44425 3.45098 0
M  V30 5169 H 500.902 1.882 4.54798 0
M  V30 5170 N 502.554 -1.34406 0.822964 0
M  V30 5171 C 503.779 -2.0304 0.423034 0
M  V30 5172 C 504.204 -1.61568 -0.963196 0
M  V30 5173 O 503.562 -0.800339 -1.62678 0
M  V30 5174 C 503.61 -3.56636 0.53321 0
M  V30 5175 O 502.714 -4.09971 -0.446939 0
M  V30 5176 H 502.055 -0.64075 0.174171 0
M  V30 5177 H 504.585 -1.71653 1.11339 0
M  V30 5178 H 504.595 -4.05945 0.408991 0
M  V30 5179 H 503.27 -3.86168 1.54425 0
M  V30 5180 H 501.847 -3.71835 -0.281601 0
M  V30 5181 N 504.032 -0.577932 -1.46621 0
M  V30 5182 C 505.279 -0.0616879 -2.02406 0
M  V30 5183 C 505.607 1.29638 -1.44997 0
M  V30 5184 O 504.862 1.86176 -0.60308 0
M  V30 5185 C 505.161 0.0590832 -3.57351 0
M  V30 5186 C 504.827 -1.23077 -4.33777 0
M  V30 5187 C 503.489 -1.58416 -4.54376 0
M  V30 5188 C 505.841 -2.08457 -4.77698 0
M  V30 5189 C 503.169 -2.78943 -5.16147 0
M  V30 5190 C 505.521 -3.28204 -5.408 0
M  V30 5191 C 504.185 -3.63832 -5.59627 0
M  V30 5192 H 503.455 -0.0225732 -0.740656 0
M  V30 5193 H 506.102 -0.753609 -1.76048 0
M  V30 5194 H 504.407 0.834104 -3.82818 0
M  V30 5195 H 506.104 0.474202 -3.98186 0
M  V30 5196 H 502.694 -0.945652 -4.18038 0
M  V30 5197 H 506.878 -1.82459 -4.61544 0
M  V30 5198 H 502.134 -3.06689 -5.28916 0
M  V30 5199 H 506.308 -3.94634 -5.73792 0
M  V30 5200 H 503.935 -4.57315 -6.07262 0
M  V30 5201 N 505.51 1.54411 -0.315457 0
M  V30 5202 C 506.74 2.04536 0.291315 0
M  V30 5203 C 507.148 1.19162 1.4696 0
M  V30 5204 O 506.491 0.213199 1.82459 0
M  V30 5205 C 506.553 3.5056 0.796725 0
M  V30 5206 C 506.217 4.5627 -0.258178 0
M  V30 5207 C 507.214 5.08312 -1.09153 0
M  V30 5208 C 504.899 5.00672 -0.404036 0
M  V30 5209 C 506.893 6.03312 -2.05655 0
M  V30 5210 C 504.58 5.95488 -1.37248 0
M  V30 5211 C 505.578 6.46693 -2.19721 0
M  V30 5212 O 505.266 7.39648 -3.14921 0
M  V30 5213 H 504.998 0.672856 0.0651165 0
M  V30 5214 H 507.552 2.00244 -0.457308 0
M  V30 5215 H 505.782 3.52223 1.59612 0
M  V30 5216 H 507.471 3.83804 1.32096 0
M  V30 5217 H 508.237 4.74793 -0.98979 0
M  V30 5218 H 504.116 4.60436 0.22799 0
M  V30 5219 H 507.66 6.43203 -2.70067 0
M  V30 5220 H 503.557 6.28424 -1.47489 0
M  V30 5221 H 504.325 7.57496 -3.10067 0
M  V30 5222 N 506.988 0.0434614 1.5754 0
M  V30 5223 C 507.918 -0.931651 2.14109 0
M  V30 5224 C 508.899 -1.32971 1.06079 0
M  V30 5225 O 510.084 -1.40579 1.33982 0
M  V30 5226 C 507.214 -2.20914 2.67982 0
M  V30 5227 C 506.168 -1.95139 3.80926 0
M  V30 5228 C 505.494 -3.29276 4.21285 0
M  V30 5229 C 506.794 -1.27913 5.06395 0
M  V30 5230 H 508.488 -0.460497 2.95837 0
M  V30 5231 H 506.034 -0.220058 1.42309 0
M  V30 5232 H 507.987 -2.89522 3.06194 0
M  V30 5233 H 506.711 -2.70221 1.83434 0
M  V30 5234 H 505.37 -1.28945 3.43175 0
M  V30 5235 H 505.018 -3.76369 3.33699 0
M  V30 5236 H 504.718 -3.12831 4.97404 0
M  V30 5237 H 506.242 -3.99129 4.62091 0
M  V30 5238 H 507.656 -1.86544 5.42102 0
M  V30 5239 H 506.053 -1.2182 5.87605 0
M  V30 5240 H 507.123 -0.254066 4.84234 0
M  V30 5241 N 508.466 -1.55915 -0.229846 0
M  V30 5242 C 509.413 -1.91734 -1.28478 0
M  V30 5243 C 510.383 -0.773539 -1.46988 0
M  V30 5244 O 511.568 -1.02871 -1.60693 0
M  V30 5245 C 508.708 -2.23224 -2.63182 0
M  V30 5246 C 507.821 -3.50497 -2.52539 0
M  V30 5247 C 506.956 -3.71474 -3.79711 0
M  V30 5248 C 505.995 -4.92289 -3.63755 0
M  V30 5249 N 505.132 -5.09698 -4.82858 0
M  V30 5250 H 509.972 -2.81692 -0.972308 0
M  V30 5251 H 507.509 -1.39429 -0.468815 0
M  V30 5252 H 509.467 -2.3949 -3.41614 0
M  V30 5253 H 508.097 -1.36451 -2.92542 0
M  V30 5254 H 507.149 -3.4247 -1.65585 0
M  V30 5255 H 508.461 -4.39079 -2.36666 0
M  V30 5256 H 507.615 -3.87791 -4.66586 0
M  V30 5257 H 506.354 -2.81157 -3.985 0
M  V30 5258 H 505.359 -4.7593 -2.75264 0
M  V30 5259 H 506.584 -5.84083 -3.46445 0
M  V30 5260 H 504.53 -4.22322 -5.01976 0
M  V30 5261 H 504.447 -5.92399 -4.69681 0
M  V30 5262 H 505.715 -5.30443 -5.71183 0
M  V30 5263 N 509.944 0.496216 -1.49584 0
M  V30 5264 C 511.192 1.24756 -1.58998 0
M  V30 5265 C 511.513 1.92968 -0.280775 0
M  V30 5266 O 510.783 1.82959 0.700198 0
M  V30 5267 H 509.363 0.463471 -0.585836 0
M  V30 5268 H 512.025 0.574678 -1.86235 0
M  V30 5269 H 511.121 2.00895 -2.38847 0
M  V30 5270 N 511.423 1.38739 0.74761 0
M  V30 5271 C 512.669 1.35475 1.50912 0
M  V30 5272 C 513.002 -0.0533093 1.94127 0
M  V30 5273 O 512.277 -1.01572 1.65871 0
M  V30 5274 C 512.56 2.31582 2.75757 0
M  V30 5275 C 512.413 3.81274 2.38642 0
M  V30 5276 C 513.732 2.25722 3.77806 0
M  V30 5277 H 510.851 0.493427 0.547447 0
M  V30 5278 H 513.493 1.69634 0.855823 0
M  V30 5279 H 511.643 2.02582 3.31501 0
M  V30 5280 H 513.315 4.20972 1.88626 0
M  V30 5281 H 511.558 3.98664 1.71025 0
M  V30 5282 H 512.229 4.4399 3.27989 0
M  V30 5283 H 514.705 2.51336 3.31616 0
M  V30 5284 H 513.581 2.95069 4.62845 0
M  V30 5285 H 513.842 1.25803 4.23823 0
M  V30 5286 N 512.901 -0.976442 1.23707 0
M  V30 5287 C 513.849 -2.09078 1.01927 0
M  V30 5288 C 514.843 -1.69345 -0.0430193 0
M  V30 5289 O 516.049 -1.79659 0.110814 0
M  V30 5290 H 512.424 -0.68398 0.312531 0
M  V30 5291 H 514.395 -2.24614 1.96447 0
M  V30 5292 C 513.144 -3.41919 0.631385 0
M  V30 5293 H 512.467 -3.72946 1.44053 0
M  V30 5294 H 513.907 -4.20817 0.518532 0
M  V30 5295 C 512.366 -3.30357 -0.660723 0
M  V30 5296 O 512.896 -3.63542 -1.70881 0
M  V30 5297 N 511.102 -2.83507 -0.638139 0
M  V30 5298 H 510.649 -2.567 0.215108 0
M  V30 5299 H 510.607 -2.76153 -1.50289 0
M  V30 5300 N 514.379 -1.04941 -1.1758 0
M  V30 5301 C 515.289 -0.658826 -2.25159 0
M  V30 5302 C 516.305 0.318941 -1.71052 0
M  V30 5303 O 517.481 0.171669 -2.00667 0
M  V30 5304 C 514.546 -0.0369522 -3.4668 0
M  V30 5305 C 513.607 -1.06484 -4.15884 0
M  V30 5306 C 512.84 -0.472551 -5.31604 0
M  V30 5307 O 513.063 0.718736 -5.65854 0
M  V30 5308 O 511.997 -1.20557 -5.89703 0
M  V30 5309 H 515.823 -1.55533 -2.60851 0
M  V30 5310 H 513.408 -0.820819 -1.24832 0
M  V30 5311 H 515.29 0.308784 -4.20267 0
M  V30 5312 H 513.965 0.833238 -3.12792 0
M  V30 5313 H 512.872 -1.46253 -3.44327 0
M  V30 5314 H 514.205 -1.9061 -4.53794 0
M  V30 5315 N 515.857 1.33968 -0.830081 0
M  V30 5316 C 517.268 1.80439 -0.479455 0
M  V30 5317 C 517.619 1.68756 1.00079 0
M  V30 5318 O 516.744 1.23171 1.77927 0
M  V30 5319 C 517.339 3.27611 -0.863505 0
M  V30 5320 C 515.898 3.72133 -0.565145 0
M  V30 5321 C 515.045 2.55549 -1.07657 0
M  V30 5322 H 517.996 1.21614 -1.0196 0
M  V30 5323 H 518.017 3.8012 -0.170083 0
M  V30 5324 H 517.529 3.36082 -1.94089 0
M  V30 5325 H 515.63 3.69196 0.502536 0
M  V30 5326 H 515.743 4.65963 -1.11422 0
M  V30 5327 H 514.107 2.49788 -0.497807 0
M  V30 5328 H 514.89 2.66786 -2.16055 0
M  V30 5329 N 517.335 0.585699 1.46312 0
M  V30 5330 C 518.581 0.0725284 2.0267 0
M  V30 5331 C 518.914 -1.28523 1.45586 0
M  V30 5332 O 518.189 -1.84283 0.622101 0
M  V30 5333 C 518.472 0.0099788 3.60099 0
M  V30 5334 C 518.325 1.39685 4.27561 0
M  V30 5335 C 519.644 -0.689117 4.34671 0
M  V30 5336 H 516.763 0.0278307 0.736474 0
M  V30 5337 H 519.405 0.753472 1.74421 0
M  V30 5338 H 517.555 -0.56992 3.84297 0
M  V30 5339 H 519.227 2.02215 4.14617 0
M  V30 5340 H 517.47 1.96374 3.86807 0
M  V30 5341 H 518.141 1.30553 5.36339 0
M  V30 5342 H 520.617 -0.196446 4.15636 0
M  V30 5343 H 519.493 -0.701921 5.44393 0
M  V30 5344 H 519.754 -1.75101 4.05946 0
M  V30 5345 N 518.813 -1.54241 0.323641 0
M  V30 5346 C 520.09 -1.92741 -0.333181 0
M  V30 5347 C 520.47 -1.25326 -1.69872 0
M  V30 5348 O 519.818 -0.396991 -2.25025 0
M  V30 5349 C 520.028 -3.46399 -0.425322 0
M  V30 5350 C 521.376 -4.19029 -0.68557 0
M  V30 5351 O 522.4 -3.52555 -0.50824 0
M  V30 5352 O 521.259 -5.36751 -1.02767 0
M  V30 5353 H 518.353 -0.804811 -0.190286 0
M  V30 5354 H 520.899 -1.65542 0.373361 0
M  V30 5355 H 519.671 -3.87643 0.533737 0
M  V30 5356 H 519.294 -3.79704 -1.17944 0
M  V30 5357 N 520.291 -0.0518155 -1.57515 0
M  V30 5358 C 521.707 0.304735 -1.56664 0
M  V30 5359 C 521.907 1.71395 -1.05953 0
M  V30 5360 O 520.963 2.42123 -0.716414 0
M  V30 5361 C 522.276 0.132614 -3.00407 0
M  V30 5362 C 523.824 0.20367 -3.12337 0
M  V30 5363 C 524.299 0.0600706 -4.57961 0
M  V30 5364 N 525.79 0.116326 -4.63054 0
M  V30 5365 C 526.525 0.0293363 -5.73392 0
M  V30 5366 N 526.021 -0.110038 -6.92713 0
M  V30 5367 N 527.814 0.0849651 -5.62036 0
M  V30 5368 H 519.965 -0.973056 -1.888 0
M  V30 5369 H 522.228 -0.377781 -0.869474 0
M  V30 5370 H 521.934 -0.839019 -3.41546 0
M  V30 5371 H 521.808 0.893376 -3.66468 0
M  V30 5372 H 524.195 1.16578 -2.71097 0
M  V30 5373 H 524.276 -0.587857 -2.48954 0
M  V30 5374 H 523.92 -0.898715 -4.99886 0
M  V30 5375 H 523.85 0.87075 -5.19351 0
M  V30 5376 H 526.341 0.22327 -3.7724 0
M  V30 5377 H 526.654 -0.169104 -7.72615 0
M  V30 5378 H 524.999 -0.145132 -6.94848 0
M  V30 5379 H 528.19 0.192411 -4.67704 0
M  V30 5380 H 528.363 0.0137131 -6.47999 0
M  V30 5381 N 521.769 1.56035 0.221574 0
M  V30 5382 C 523.015 1.79312 0.947372 0
M  V30 5383 C 523.348 0.621453 1.83988 0
M  V30 5384 O 522.623 -0.379287 1.90766 0
M  V30 5385 C 522.906 3.1267 1.78633 0
M  V30 5386 C 522.759 4.40284 0.920312 0
M  V30 5387 C 524.078 3.4247 2.7641 0
M  V30 5388 H 521.197 0.652328 0.342982 0
M  V30 5389 H 523.839 1.88765 0.216244 0
M  V30 5390 H 521.989 3.04741 2.40967 0
M  V30 5391 H 523.661 4.60232 0.313718 0
M  V30 5392 H 521.904 4.33212 0.225734 0
M  V30 5393 H 522.575 5.30033 1.54171 0
M  V30 5394 H 525.051 3.50526 2.24211 0
M  V30 5395 H 523.927 4.3695 3.32213 0
M  V30 5396 H 524.188 2.64635 3.54148 0
M  V30 5397 N 523.247 -0.488276 1.49845 0
M  V30 5398 C 524.177 -1.59675 1.70371 0
M  V30 5399 C 525.158 -1.60878 0.552473 0
M  V30 5400 O 526.343 -1.77417 0.78973 0
M  V30 5401 C 523.473 -2.98098 1.782 0
M  V30 5402 C 522.427 -3.11761 2.93239 0
M  V30 5403 C 521.753 -4.51661 2.86193 0
M  V30 5404 C 523.053 -2.90589 4.33999 0
M  V30 5405 H 524.747 -1.42752 2.63177 0
M  V30 5406 H 522.293 -0.685317 1.26647 0
M  V30 5407 H 524.246 -3.75555 1.91144 0
M  V30 5408 H 522.97 -3.16138 0.820018 0
M  V30 5409 H 521.629 -2.36732 2.79917 0
M  V30 5410 H 521.277 -4.66595 1.87877 0
M  V30 5411 H 520.977 -4.61742 3.63412 0
M  V30 5412 H 522.501 -5.31162 3.01163 0
M  V30 5413 H 523.915 -3.57807 4.47936 0
M  V30 5414 H 522.312 -3.1213 5.12538 0
M  V30 5415 H 523.382 -1.86595 4.4756 0
M  V30 5416 N 524.725 -1.39134 -0.740242 0
M  V30 5417 C 525.635 -1.39697 -1.88473 0
M  V30 5418 C 526.651 -0.292403 -1.71526 0
M  V30 5419 O 527.827 -0.533021 -1.94219 0
M  V30 5420 C 524.892 -1.23382 -3.24003 0
M  V30 5421 C 523.953 -2.43763 -3.53381 0
M  V30 5422 C 523.186 -2.28216 -4.82445 0
M  V30 5423 O 523.409 -1.28288 -5.55786 0
M  V30 5424 O 522.343 -3.1709 -5.11603 0
M  V30 5425 H 526.169 -2.36159 -1.90952 0
M  V30 5426 H 523.754 -1.20194 -0.887346 0
M  V30 5427 H 525.636 -1.16395 -4.05006 0
M  V30 5428 H 524.311 -0.300121 -3.22306 0
M  V30 5429 H 523.218 -2.56325 -2.72485 0
M  V30 5430 H 524.551 -3.35808 -3.59852 0
M  V30 5431 N 526.204 0.969867 -1.24223 0
M  V30 5432 C 527.167 2.04564 -1.03373 0
M  V30 5433 C 528.167 1.60798 0.00819206 0
M  V30 5434 O 529.357 1.72641 -0.232567 0
M  V30 5435 C 526.489 3.36163 -0.566343 0
M  V30 5436 H 527.682 2.24494 -1.98853 0
M  V30 5437 H 525.235 1.1448 -1.06415 0
M  V30 5438 H 525.97 3.21925 0.391751 0
M  V30 5439 H 525.755 3.69273 -1.31834 0
M  V30 5440 H 527.245 4.1526 -0.441435 0
M  V30 5441 N 527.682 1.05563 1.17022 0
M  V30 5442 C 528.931 0.763036 1.8671 0
M  V30 5443 C 529.244 -0.712857 1.82147 0
M  V30 5444 O 530.45 -1.11955 2.47343 0
M  V30 5445 C 528.906 1.31474 3.35026 0
M  V30 5446 C 528.514 2.82034 3.48081 0
M  V30 5447 C 530.258 1.09935 4.10018 0
M  V30 5448 C 528.165 3.30486 4.90442 0
M  V30 5449 H 527.095 0.281747 0.699382 0
M  V30 5450 H 529.746 1.2734 1.32124 0
M  V30 5451 H 528.128 0.732171 3.89173 0
M  V30 5452 H 529.302 3.46178 3.04133 0
M  V30 5453 H 527.617 3.02156 2.86515 0
M  V30 5454 H 530.214 1.43632 5.15048 0
M  V30 5455 H 530.557 0.0373072 4.16283 0
M  V30 5456 H 531.09 1.64732 3.62089 0
M  V30 5457 H 527.829 4.36137 4.89352 0
M  V30 5458 H 527.349 2.71086 5.35044 0
M  V30 5459 H 529.028 3.25382 5.59227 0
M  V30 5460 N 529.16 -1.33526 0.837174 0
M  V30 5461 C 530.107 -2.29248 0.267169 0
M  V30 5462 C 531.077 -1.54252 -0.616071 0
M  V30 5463 O 532.262 -1.82559 -0.554699 0
M  V30 5464 C 529.402 -3.40638 -0.553152 0
M  V30 5465 C 528.515 -4.30548 0.353921 0
M  V30 5466 C 527.65 -5.29051 -0.477339 0
M  V30 5467 C 526.689 -6.106 0.42823 0
M  V30 5468 N 525.826 -7.01152 -0.364801 0
M  V30 5469 H 530.666 -2.77398 1.08877 0
M  V30 5470 H 528.203 -1.36496 0.54838 0
M  V30 5471 H 530.161 -4.03921 -1.04422 0
M  V30 5472 H 528.791 -2.93685 -1.33973 0
M  V30 5473 H 527.843 -3.68001 0.963289 0
M  V30 5474 H 529.155 -4.87631 1.04964 0
M  V30 5475 H 528.309 -5.97853 -1.0323 0
M  V30 5476 H 527.048 -4.72541 -1.2065 0
M  V30 5477 H 526.053 -5.40718 0.995219 0
M  V30 5478 H 527.278 -6.69193 1.15573 0
M  V30 5479 H 525.224 -6.47092 -1.07738 0
M  V30 5480 H 525.141 -7.5551 0.272238 0
M  V30 5481 H 526.409 -7.74263 -0.902054 0
M  V30 5482 N 530.638 -0.59345 -1.46 0
M  V30 5483 C 531.586 0.146268 -2.3214 0
M  V30 5484 C 532.58 0.873743 -1.45128 0
M  V30 5485 O 533.786 0.790912 -1.61693 0
M  V30 5486 H 530.161 0.0660349 -0.749095 0
M  V30 5487 H 532.132 -0.598895 -2.92328 0
M  V30 5488 C 530.881 1.1396 -3.28494 0
M  V30 5489 H 530.204 0.589252 -3.95434 0
M  V30 5490 H 531.644 1.62738 -3.91526 0
M  V30 5491 C 530.103 2.20604 -2.54628 0
M  V30 5492 O 530.633 3.28128 -2.31722 0
M  V30 5493 N 528.839 1.95502 -2.15005 0
M  V30 5494 H 528.386 1.0807 -2.33834 0
M  V30 5495 H 528.344 2.67064 -1.65904 0
M  V30 5496 N 532.116 1.54067 -0.331816 0
M  V30 5497 C 533.341 2.05599 0.272705 0
M  V30 5498 C 533.766 1.2059 1.44359 0
M  V30 5499 O 533.124 0.216907 1.79998 0
M  V30 5500 C 533.172 3.54188 0.677021 0
M  V30 5501 O 532.276 3.72082 1.77844 0
M  V30 5502 H 531.617 0.662286 0.0476801 0
M  V30 5503 H 534.147 1.98826 -0.482624 0
M  V30 5504 H 534.157 3.96608 0.957415 0
M  V30 5505 H 532.832 4.15513 -0.179325 0
M  V30 5506 H 531.409 3.41566 1.49622 0
M  V30 5507 N 533.594 0.0601682 1.57485 0
M  V30 5508 C 535.01 -0.296422 1.56823 0
M  V30 5509 C 535.21 -1.70831 1.0686 0
M  V30 5510 O 534.266 -2.4174 0.729245 0
M  V30 5511 C 535.579 -0.116681 3.00474 0
M  V30 5512 C 537.127 -0.187103 3.1244 0
M  V30 5513 C 537.602 -0.035783 4.57986 0
M  V30 5514 N 539.093 -0.0917676 4.63109 0
M  V30 5515 C 539.828 0.00107251 5.734 0
M  V30 5516 N 539.324 0.146773 6.92645 0
M  V30 5517 N 541.117 -0.0551577 5.62073 0
M  V30 5518 H 533.268 0.983055 1.88281 0
M  V30 5519 H 535.531 0.382386 0.867459 0
M  V30 5520 H 535.237 0.85712 3.41096 0
M  V30 5521 H 535.111 -0.873929 3.66936 0
M  V30 5522 H 537.498 -1.15138 2.71712 0
M  V30 5523 H 537.579 0.601052 2.48638 0
M  V30 5524 H 537.223 0.925212 4.99402 0
M  V30 5525 H 537.153 -0.843196 5.19806 0
M  V30 5526 H 539.644 -0.203261 3.77353 0
M  V30 5527 H 539.957 0.210076 7.72514 0
M  V30 5528 H 538.302 0.181979 6.94762 0
M  V30 5529 H 541.493 -0.167605 4.678 0
M  V30 5530 H 541.666 0.020652 6.47997 0
M  V30 5531 N 535.072 -1.5615 -0.213296 0
M  V30 5532 C 536.297 -1.83986 -0.957282 0
M  V30 5533 C 536.722 -0.641526 -1.76822 0
M  V30 5534 O 536.08 0.409722 -1.7661 0
M  V30 5535 C 536.128 -3.09889 -1.84393 0
M  V30 5536 O 535.232 -2.89163 -2.94038 0
M  V30 5537 H 534.573 -0.606357 -0.270605 0
M  V30 5538 H 537.103 -2.03369 -0.224111 0
M  V30 5539 H 537.113 -3.40209 -2.25215 0
M  V30 5540 H 535.788 -3.96735 -1.24795 0
M  V30 5541 H 534.365 -2.70097 -2.57103 0
M  V30 5542 O 536.589 0.35868 -1.57467 0
M  V30 5543 H 537.28 1.00907 -1.6534 0
M  V30 END ATOM
M  V30 BEGIN BOND
M  V30 END BOND
M  V30 END CTAB
M  END
$$$$
