drugbank_target|Q16620 BDNF/NT-3 growth factors receptor (DB00321; DB11823; DB11986; DB12010; DB14723)
 OpenBabel12092120353D

  0  0  0     0  0            999 V3000
M  V30 BEGIN CTAB
M  V30 COUNTS 12808 12971 0 0 0
M  V30 BEGIN ATOM
M  V30 1 H -0.908 1.98254 -0.117106 0
M  V30 2 N 0 1.576 0 0
M  V30 3 C 0.933 2.03868 1.02534 0
M  V30 4 C 1.911 0.928543 1.3348 0
M  V30 5 O 3.095 1.19667 1.45644 0
M  V30 6 C 0.222 2.43627 2.35294 0
M  V30 7 C -0.732 3.65373 2.2001 0
M  V30 8 S 0.101 5.13292 1.52614 0
M  V30 9 C 1.257 5.56322 2.86805 0
M  V30 10 H 1.49 2.90518 0.631377 0
M  V30 11 H -0.977 1.52953 0.210867 0
M  V30 12 H 0.981 2.67203 3.11629 0
M  V30 13 H -0.358 1.57376 2.7183 0
M  V30 14 H -1.165 3.90944 3.18086 0
M  V30 15 H -1.563 3.418 1.51819 0
M  V30 16 H 0.729 5.58782 3.83104 0
M  V30 17 H 1.672 6.56266 2.65933 0
M  V30 18 H 2.08 4.83886 2.90714 0
M  V30 19 N 1.4781 -0.272755 1.55222 0
M  V30 20 C 2.7031 -1.02683 1.80197 0
M  V30 21 C 3.1281 -1.79142 0.573551 0
M  V30 22 O 2.4861 -1.74917 -0.476849 0
M  V30 23 C 2.5341 -1.9609 3.02624 0
M  V30 24 O 1.6381 -3.04863 2.77727 0
M  V30 25 H 0.9791 -0.293557 0.595584 0
M  V30 26 H 3.5091 -0.30159 2.02365 0
M  V30 27 H 3.5191 -2.38039 3.31363 0
M  V30 28 H 2.1941 -1.39851 3.91682 0
M  V30 29 H 0.7711 -2.67228 2.60084 0
M  V30 30 N 2.9562 -1.48159 -0.537278 0
M  V30 31 C 4.1812 -1.59707 -1.32319 0
M  V30 32 C 4.6062 -0.254859 -1.86365 0
M  V30 33 O 3.9642 0.772378 -1.64024 0
M  V30 34 C 4.0122 -2.6412 -2.45505 0
M  V30 35 O 3.1162 -2.20774 -3.48328 0
M  V30 36 H 2.4572 -0.535791 -0.392204 0
M  V30 37 H 4.9872 -1.94092 -0.647268 0
M  V30 38 H 4.9972 -2.85166 -2.91795 0
M  V30 39 H 3.6722 -3.61567 -2.05528 0
M  V30 40 H 2.2492 -2.09911 -3.08207 0
M  V30 41 N 4.4343 0.785586 -1.36625 0
M  V30 42 C 5.6803 1.5452 -1.32269 0
M  V30 43 C 6.0353 1.92159 0.0962266 0
M  V30 44 O 5.3283 1.60158 1.05167 0
M  V30 45 C 5.5223 2.83007 -2.1827 0
M  V30 46 C 5.3513 2.57925 -3.68382 0
M  V30 47 C 4.1213 2.52752 -4.37544 0
M  V30 48 C 6.3193 2.26861 -4.61561 0
M  V30 49 N 4.3013 2.19608 -5.73276 0
M  V30 50 C 5.6723 2.03738 -5.85569 0
M  V30 51 C 7.7273 2.129 -4.50087 0
M  V30 52 C 6.4303 1.68065 -6.9939 0
M  V30 53 C 8.4563 1.78626 -5.63779 0
M  V30 54 C 7.8183 1.56353 -6.86828 0
M  V30 55 H 3.9173 0.566301 -0.539283 0
M  V30 56 H 6.5013 0.917736 -1.71714 0
M  V30 57 H 4.6723 3.43614 -1.81063 0
M  V30 58 H 6.4043 3.48775 -2.05275 0
M  V30 59 H 3.1593 2.6813 -3.90389 0
M  V30 60 H 3.5833 2.05771 -6.44971 0
M  V30 61 H 8.2253 2.28808 -3.55537 0
M  V30 62 H 5.9433 1.50895 -7.93887 0
M  V30 63 H 9.5293 1.68502 -5.56865 0
M  V30 64 H 8.4093 1.30223 -7.73312 0
M  V30 65 N 5.9124 1.20967 1.01018 0
M  V30 66 C 7.1614 1.01796 1.74128 0
M  V30 67 C 7.4744 -0.449691 1.90361 0
M  V30 68 O 8.6804 -0.76068 2.60626 0
M  V30 69 C 7.1364 1.7727 3.13215 0
M  V30 70 C 6.7444 3.28171 3.04972 0
M  V30 71 C 8.4884 1.66489 3.90489 0
M  V30 72 C 6.3954 3.96156 4.39107 0
M  V30 73 H 5.3254 0.377276 0.652824 0
M  V30 74 H 7.9764 1.44651 1.12909 0
M  V30 75 H 6.3584 1.27205 3.75013 0
M  V30 76 H 7.5324 3.85499 2.52443 0
M  V30 77 H 5.8474 3.39437 2.41188 0
M  V30 78 H 8.4444 2.14617 4.89738 0
M  V30 79 H 8.7874 0.6222 4.11624 0
M  V30 80 H 9.3204 2.14003 3.35332 0
M  V30 81 H 6.0594 5.00604 4.23174 0
M  V30 82 H 5.5794 3.43617 4.91617 0
M  V30 83 H 7.2584 4.00774 5.07926 0
M  V30 84 N 7.3905 -1.2043 1.01659 0
M  V30 85 C 8.8065 -1.41852 0.731442 0
M  V30 86 C 9.0065 -1.89358 -0.688898 0
M  V30 87 O 8.0625 -2.06247 -1.45666 0
M  V30 88 C 9.3755 -2.44019 1.75714 0
M  V30 89 C 10.9235 -2.57785 1.77527 0
M  V30 90 C 11.3985 -3.63194 2.79023 0
M  V30 91 N 12.8895 -3.70678 2.77763 0
M  V30 92 C 13.6245 -4.51897 3.52954 0
M  V30 93 N 13.1205 -5.36921 4.37821 0
M  V30 94 N 14.9135 -4.4643 3.41551 0
M  V30 95 H 7.0645 -0.879093 1.93354 0
M  V30 96 H 9.3275 -0.448425 0.835236 0
M  V30 97 H 9.0335 -2.1611 2.77469 0
M  V30 98 H 8.9075 -3.43007 1.56927 0
M  V30 99 H 11.2945 -2.85023 0.764569 0
M  V30 100 H 11.3755 -1.58992 2.00387 0
M  V30 101 H 11.0195 -3.36699 3.80258 0
M  V30 102 H 10.9495 -4.61609 2.53425 0
M  V30 103 H 13.4405 -3.09944 2.16201 0
M  V30 104 H 13.7535 -5.95981 4.91962 0
M  V30 105 H 12.0985 -5.36424 4.41899 0
M  V30 106 H 15.2895 -3.79042 2.74672 0
M  V30 107 H 15.4625 -5.09491 4.00404 0
M  V30 108 N 8.8686 -0.792821 -1.36206 0
M  V30 109 C 10.1146 -0.376415 -1.99887 0
M  V30 110 C 10.4696 1.04127 -1.61788 0
M  V30 111 O 9.7626 1.71004 -0.864193 0
M  V30 112 C 9.9566 -0.481501 -3.54142 0
M  V30 113 C 9.7856 -1.90786 -4.07223 0
M  V30 114 C 8.5556 -2.53322 -4.37214 0
M  V30 115 C 10.7536 -2.87048 -4.26741 0
M  V30 116 N 8.7356 -3.8751 -4.7614 0
M  V30 117 C 10.1066 -4.06077 -4.6851 0
M  V30 118 C 12.1616 -2.8406 -4.08918 0
M  V30 119 C 10.8646 -5.22532 -4.94321 0
M  V30 120 C 12.8906 -3.99705 -4.35878 0
M  V30 121 C 12.2526 -5.1748 -4.77906 0
M  V30 122 H 8.3516 -0.185226 -0.759747 0
M  V30 123 H 10.9356 -1.03114 -1.65153 0
M  V30 124 H 9.1066 0.143154 -3.88136 0
M  V30 125 H 10.8386 -0.0410128 -4.04679 0
M  V30 126 H 7.5936 -2.04777 -4.2704 0
M  V30 127 H 8.0176 -4.5656 -4.99882 0
M  V30 128 H 12.6596 -1.94165 -3.75579 0
M  V30 129 H 10.3776 -6.1301 -5.2654 0
M  V30 130 H 13.9636 -3.98758 -4.23655 0
M  V30 131 H 12.8436 -6.05478 -4.98363 0
M  V30 132 N 10.3467 1.47872 -0.545128 0
M  V30 133 C 11.2967 2.26842 0.229456 0
M  V30 134 C 12.2807 1.33626 0.896267 0
M  V30 135 O 13.4727 1.58063 0.79657 0
M  V30 136 C 10.6017 3.19089 1.26638 0
M  V30 137 C 9.6877 4.19783 0.603598 0
M  V30 138 N 10.0787 5.0479 -0.319405 0
M  V30 139 C 8.3767 4.3765 0.858989 0
M  V30 140 C 9.0777 5.77433 -0.703241 0
M  V30 141 N 8.0537 5.43566 -0.0608309 0
M  V30 142 H 11.8557 2.89947 -0.480391 0
M  V30 143 H 9.3697 1.58263 -0.364209 0
M  V30 144 H 11.3667 3.74337 1.83515 0
M  V30 145 H 10.0267 2.5754 1.97745 0
M  V30 146 H 11.0377 5.13244 -0.692889 0
M  V30 147 H 7.7147 3.87281 1.55948 0
M  V30 148 H 9.1047 6.55824 -1.46098 0
M  V30 149 N 11.8248 0.280983 1.55075 0
M  V30 150 C 13.0728 -0.333455 1.9933 0
M  V30 151 C 13.3938 -1.55937 1.17085 0
M  V30 152 O 12.6638 -1.94143 0.261805 0
M  V30 153 H 11.2438 -0.126197 0.736263 0
M  V30 154 H 13.9058 0.387678 1.91005 0
M  V30 155 H 13.0018 -0.619292 3.05894 0
M  V30 156 N 13.3029 -1.57598 0.00835791 0
M  V30 157 C 14.7139 -1.7892 -0.53333 0
M  V30 158 C 15.0649 -0.916609 -1.73473 0
M  V30 159 O 14.1899 -0.121336 -2.1606 0
M  V30 160 C 14.7849 -3.24488 -0.974313 0
M  V30 161 C 13.3439 -3.46878 -1.46125 0
M  V30 162 C 12.4909 -2.74157 -0.416302 0
M  V30 163 H 15.4419 -1.56958 0.234495 0
M  V30 164 H 15.4629 -3.3306 -1.83988 0
M  V30 165 H 14.9749 -3.87972 -0.099718 0
M  V30 166 H 13.0759 -2.8862 -2.35646 0
M  V30 167 H 13.1889 -4.55572 -1.48295 0
M  V30 168 H 11.5529 -2.39022 -0.87981 0
M  V30 169 H 12.3359 -3.40345 0.44947 0
M  V30 170 N 14.781 0.264519 -1.55364 0
M  V30 171 C 15.744 1.31046 -1.88042 0
M  V30 172 C 16.744 1.41943 -0.755569 0
M  V30 173 O 17.934 1.40947 -1.02369 0
M  V30 174 C 15.066 2.69067 -2.09323 0
M  V30 175 H 16.259 1.03297 -2.81549 0
M  V30 176 H 13.812 0.502989 -1.47986 0
M  V30 177 H 14.547 3.01982 -1.18226 0
M  V30 178 H 14.332 2.62542 -2.91229 0
M  V30 179 H 15.822 3.44623 -2.35848 0
M  V30 180 N 16.2591 1.48442 0.529413 0
M  V30 181 C 17.1921 1.57577 1.65059 0
M  V30 182 C 18.1701 0.426198 1.56915 0
M  V30 183 O 19.3541 0.637877 1.77379 0
M  V30 184 C 16.4811 1.5043 3.03461 0
M  V30 185 C 15.5271 2.70235 3.29962 0
M  V30 186 S 16.3601 4.32198 3.16172 0
M  V30 187 C 17.5161 4.2765 4.57019 0
M  V30 188 H 17.7491 2.52427 1.5706 0
M  V30 189 H 15.2821 1.36982 0.712417 0
M  V30 190 H 17.2401 1.46992 3.8328 0
M  V30 191 H 15.9011 0.569167 3.089 0
M  V30 192 H 15.0941 2.61374 4.30929 0
M  V30 193 H 14.6961 2.70938 2.57815 0
M  V30 194 H 16.9881 3.97618 5.48549 0
M  V30 195 H 17.9311 5.28797 4.70934 0
M  V30 196 H 18.3391 3.5811 4.36368 0
M  V30 197 N 17.7372 -0.778329 1.37039 0
M  V30 198 C 18.7002 -1.87301 1.32102 0
M  V30 199 C 19.7002 -1.59198 0.226405 0
M  V30 200 O 20.8902 -1.67403 0.481861 0
M  V30 201 C 18.0222 -3.24309 1.05055 0
M  V30 202 H 19.2152 -1.93093 2.29467 0
M  V30 203 H 16.7682 -0.977358 1.21973 0
M  V30 204 H 17.5032 -3.24196 0.0819373 0
M  V30 205 H 17.2882 -3.46098 1.84279 0
M  V30 206 H 18.7782 -4.04382 1.04234 0
M  V30 207 N 19.2153 -1.21501 -1.00376 0
M  V30 208 C 20.6313 -0.972629 -1.26539 0
M  V30 209 C 20.8313 0.340257 -1.98606 0
M  V30 210 O 19.8873 1.06561 -2.28913 0
M  V30 211 C 21.2003 -2.16404 -2.08781 0
M  V30 212 C 22.7483 -2.20643 -2.22004 0
M  V30 213 C 23.2233 -3.39306 -3.07629 0
M  V30 214 N 24.7143 -3.39401 -3.15217 0
M  V30 215 C 25.4493 -4.27867 -3.81729 0
M  V30 216 N 24.9453 -5.26533 -4.5026 0
M  V30 217 N 26.7383 -4.15672 -3.78382 0
M  V30 218 H 18.8893 -2.05929 -0.520281 0
M  V30 219 H 21.1523 -0.901803 -0.292328 0
M  V30 220 H 20.8583 -3.11554 -1.63178 0
M  V30 221 H 20.7323 -2.15567 -3.09533 0
M  V30 222 H 23.1193 -1.26048 -2.66825 0
M  V30 223 H 23.2003 -2.25523 -1.20718 0
M  V30 224 H 22.8443 -4.34195 -2.63509 0
M  V30 225 H 22.7743 -3.31665 -4.09031 0
M  V30 226 H 25.2653 -2.67997 -2.66432 0
M  V30 227 H 25.5783 -5.90337 -4.98721 0
M  V30 228 H 23.9233 -5.30457 -4.49044 0
M  V30 229 H 27.1143 -3.3785 -3.23998 0
M  V30 230 H 27.2873 -4.84825 -4.2994 0
M  V30 231 N 20.6934 1.19889 -1.02296 0
M  V30 232 C 21.6234 2.25141 -0.619174 0
M  V30 233 C 22.6044 1.66051 0.368915 0
M  V30 234 O 23.7894 1.92546 0.252941 0
M  V30 235 C 20.9194 3.4728 0.0368783 0
M  V30 236 C 19.8734 4.19005 -0.872865 0
M  V30 237 C 19.1994 5.34637 -0.0822402 0
M  V30 238 C 20.4994 4.74452 -2.18387 0
M  V30 239 H 22.1934 2.59171 -1.49903 0
M  V30 240 H 19.7394 1.24579 -0.722222 0
M  V30 241 H 21.6924 4.20098 0.330958 0
M  V30 242 H 20.4164 3.12433 0.95149 0
M  V30 243 H 19.0754 3.48061 -1.15105 0
M  V30 244 H 18.7234 4.96034 0.83422 0
M  V30 245 H 18.4234 5.83557 -0.688149 0
M  V30 246 H 19.9474 6.10255 0.205238 0
M  V30 247 H 21.3614 5.39055 -1.95172 0
M  V30 248 H 19.7584 5.33834 -2.74119 0
M  V30 249 H 20.8284 3.92844 -2.84257 0
M  V30 250 N 22.1715 0.800033 1.35784 0
M  V30 251 C 23.4175 0.38701 1.99684 0
M  V30 252 C 23.7725 -1.03268 1.62338 0
M  V30 253 O 23.0655 -1.70543 0.87325 0
M  V30 254 C 23.2595 0.500276 3.53881 0
M  V30 255 C 23.0885 1.92942 4.06206 0
M  V30 256 C 21.8585 2.55637 4.35865 0
M  V30 257 C 24.0565 2.89307 4.25213 0
M  V30 258 N 22.0385 3.9003 4.74078 0
M  V30 259 C 23.4095 4.08556 4.66349 0
M  V30 260 C 25.4645 2.86225 4.07406 0
M  V30 261 C 24.1675 5.25146 4.91543 0
M  V30 262 C 26.1935 4.02011 4.33752 0
M  V30 263 C 25.5555 5.20007 4.75155 0
M  V30 264 H 21.6545 0.189252 0.758754 0
M  V30 265 H 24.2385 1.03988 1.64604 0
M  V30 266 H 22.4095 -0.122568 3.88207 0
M  V30 267 H 24.1415 0.0624733 4.04652 0
M  V30 268 H 20.8965 2.07039 4.25948 0
M  V30 269 H 21.3205 4.59205 4.97454 0
M  V30 270 H 25.9625 1.96154 3.74544 0
M  V30 271 H 23.6805 6.15794 5.23281 0
M  V30 272 H 27.2665 4.00999 4.21534 0
M  V30 273 H 26.1465 6.08113 4.95145 0
M  V30 274 N 23.6496 -1.47581 0.552962 0
M  V30 275 C 24.8976 -2.02082 0.0272703 0
M  V30 276 C 25.2186 -1.4301 -1.32563 0
M  V30 277 O 24.4886 -0.603745 -1.86365 0
M  V30 278 H 23.0686 -0.746966 0.00709182 0
M  V30 279 H 25.7306 -1.81033 0.722008 0
M  V30 280 H 24.8266 -3.12034 -0.0639951 0
M  V30 281 N 25.1277 -0.289203 -1.54924 0
M  V30 282 C 26.3747 0.323519 -1.99899 0
M  V30 283 C 26.7027 1.54797 -1.17762 0
M  V30 284 O 25.9577 1.94237 -0.238835 0
M  V30 285 C 26.2567 0.736119 -3.49737 0
M  V30 286 C 25.9227 -0.385276 -4.49251 0
M  V30 287 C 24.5847 -0.693156 -4.76181 0
M  V30 288 C 26.9367 -1.14021 -5.08575 0
M  V30 289 C 24.2647 -1.7593 -5.59701 0
M  V30 290 C 26.6167 -2.19619 -5.93254 0
M  V30 291 C 25.2807 -2.51026 -6.185 0
M  V30 292 H 24.5507 0.118384 -0.731482 0
M  V30 293 H 27.1977 -0.405847 -1.8715 0
M  V30 294 H 25.5027 1.54539 -3.60035 0
M  V30 295 H 27.1997 1.22118 -3.81953 0
M  V30 296 H 23.7897 -0.135202 -4.28387 0
M  V30 297 H 27.9737 -0.915611 -4.87781 0
M  V30 298 H 23.2297 -2.0075 -5.77503 0
M  V30 299 H 27.4037 -2.78581 -6.38252 0
M  V30 300 H 25.0307 -3.33772 -6.83008 0
M  V30 301 N 26.6058 1.57591 -0.0167156 0
M  V30 302 C 27.8458 1.93145 0.668902 0
M  V30 303 C 28.2098 0.892406 1.7 0
M  V30 304 O 29.4108 1.13373 2.43721 0
M  V30 305 C 27.6818 3.33678 1.28039 0
M  V30 306 S 29.2408 3.91142 1.9888 0
M  V30 307 H 26.0588 0.67593 0.220545 0
M  V30 308 H 28.6608 1.95347 -0.0774105 0
M  V30 309 H 27.3648 4.07126 0.517339 0
M  V30 310 H 26.8958 3.3489 2.06427 0
M  V30 311 H 28.9108 3.73571 3.26587 0
M  V30 312 N 28.0839 -0.256276 1.55502 0
M  V30 313 C 29.3299 -0.982884 1.78076 0
M  V30 314 C 29.6849 -1.83319 0.584109 0
M  V30 315 O 28.9779 -1.86875 -0.422877 0
M  V30 316 C 29.1719 -1.88432 3.03691 0
M  V30 317 C 29.0009 -1.12276 4.35459 0
M  V30 318 C 27.7709 -0.831647 4.98409 0
M  V30 319 C 29.9689 -0.504933 5.11815 0
M  V30 320 N 27.9509 -0.0450423 6.13883 0
M  V30 321 C 29.3219 0.146696 6.19826 0
M  V30 322 C 31.3769 -0.414455 4.96172 0
M  V30 323 C 30.0799 0.880103 7.13895 0
M  V30 324 C 32.1059 0.305398 5.90611 0
M  V30 325 C 31.4679 0.945701 6.98023 0
M  V30 326 H 27.5669 -0.341084 0.703694 0
M  V30 327 H 30.1509 -0.256909 1.92998 0
M  V30 328 H 28.3219 -2.58241 2.90114 0
M  V30 329 H 30.0539 -2.54579 3.14598 0
M  V30 330 H 26.8089 -1.14111 4.59647 0
M  V30 331 H 27.2329 0.336079 6.76165 0
M  V30 332 H 31.8749 -0.895163 4.13215 0
M  V30 333 H 29.5929 1.37244 7.9636 0
M  V30 334 H 33.1789 0.375946 5.80584 0
M  V30 335 H 32.0589 1.49383 7.6984 0
M  V30 336 N 29.562 -1.4872 -0.521534 0
M  V30 337 C 30.492 -1.66771 -1.63431 0
M  V30 338 C 31.473 -0.516499 -1.62069 0
M  V30 339 O 32.658 -0.750013 -1.79132 0
M  V30 340 C 29.788 -1.71515 -3.01993 0
M  V30 341 C 28.742 -2.86222 -3.18216 0
M  V30 342 C 28.068 -2.76061 -4.57924 0
M  V30 343 C 29.368 -4.27419 -3.00184 0
M  V30 344 H 31.062 -2.59932 -1.48579 0
M  V30 345 H 28.608 -1.25089 -0.713358 0
M  V30 346 H 30.561 -1.82731 -3.7972 0
M  V30 347 H 29.285 -0.749393 -3.17886 0
M  V30 348 H 27.944 -2.74575 -2.42908 0
M  V30 349 H 27.592 -1.77437 -4.70665 0
M  V30 350 H 27.292 -3.53037 -4.69722 0
M  V30 351 H 28.816 -2.89256 -5.37739 0
M  V30 352 H 30.23 -4.39855 -3.67697 0
M  V30 353 H 28.627 -5.05458 -3.2347 0
M  V30 354 H 29.697 -4.43293 -1.96518 0
M  V30 355 N 31.0401 0.771051 -1.3745 0
M  V30 356 C 32.2861 1.5319 -1.32894 0
M  V30 357 C 32.6191 1.94008 0.0862511 0
M  V30 358 O 31.8941 1.64124 1.04373 0
M  V30 359 C 32.1771 2.79648 -2.26868 0
M  V30 360 C 32.0301 2.45079 -3.77169 0
M  V30 361 C 33.3491 3.81583 -2.19277 0
M  V30 362 H 30.4681 0.555744 -0.484064 0
M  V30 363 H 33.1101 0.884492 -1.68157 0
M  V30 364 H 31.2601 3.34891 -1.96926 0
M  V30 365 H 32.9321 1.95745 -4.1771 0
M  V30 366 H 31.1751 1.77767 -3.95704 0
M  V30 367 H 31.8461 3.35478 -4.38359 0
M  V30 368 H 34.3221 3.35835 -2.45671 0
M  V30 369 H 33.1981 4.67787 -2.87171 0
M  V30 370 H 33.4591 4.25897 -1.18592 0
M  V30 371 N 32.5182 1.22032 0.997298 0
M  V30 372 C 33.7642 1.04376 1.73878 0
M  V30 373 C 34.0972 -0.420716 1.89588 0
M  V30 374 O 33.3722 -1.31202 1.43583 0
M  V30 375 C 33.6552 1.75047 3.14691 0
M  V30 376 C 33.5082 3.29062 3.06656 0
M  V30 377 C 34.8272 1.49928 4.13775 0
M  V30 378 H 31.9462 0.380578 0.631133 0
M  V30 379 H 34.5882 1.50312 1.16217 0
M  V30 380 H 32.7382 1.35996 3.63919 0
M  V30 381 H 34.4102 3.7753 2.65083 0
M  V30 382 H 32.6532 3.58967 2.43568 0
M  V30 383 H 33.3242 3.73683 4.06282 0
M  V30 384 H 35.8002 1.83842 3.73285 0
M  V30 385 H 34.6762 2.01878 5.10428 0
M  V30 386 H 34.9372 0.430929 4.39995 0
M  V30 387 N 33.9963 -1.19345 1.0293 0
M  V30 388 C 35.2443 -1.88665 0.724574 0
M  V30 389 C 35.5653 -1.80036 -0.749144 0
M  V30 390 O 34.8353 -1.2111 -1.53978 0
M  V30 391 H 33.4153 -0.698406 0.265025 0
M  V30 392 H 36.0773 -1.44885 1.30362 0
M  V30 393 H 35.1733 -2.94987 1.01926 0
M  V30 394 N 35.4744 -0.807222 -1.35358 0
M  V30 395 C 36.7214 -0.387888 -1.9875 0
M  V30 396 C 37.0494 1.04509 -1.64037 0
M  V30 397 O 36.3044 1.73986 -0.895946 0
M  V30 398 C 36.6034 -0.519036 -3.53611 0
M  V30 399 C 36.2694 -1.91542 -4.08194 0
M  V30 400 C 34.9314 -2.29745 -4.22813 0
M  V30 401 C 37.2834 -2.82896 -4.37744 0
M  V30 402 C 34.6114 -3.58668 -4.643 0
M  V30 403 C 36.9634 -4.11265 -4.8067 0
M  V30 404 C 35.6274 -4.49466 -4.93494 0
M  V30 405 H 34.8974 -0.141938 -0.727279 0
M  V30 406 H 37.5444 -1.02814 -1.6156 0
M  V30 407 H 35.8494 0.204658 -3.91265 0
M  V30 408 H 37.5464 -0.175345 -4.00616 0
M  V30 409 H 34.1364 -1.60862 -3.97268 0
M  V30 410 H 38.3204 -2.54629 -4.26002 0
M  V30 411 H 33.5764 -3.88113 -4.72418 0
M  V30 412 H 37.7504 -4.82153 -5.02496 0
M  V30 413 H 35.3774 -5.49418 -5.25399 0
M  V30 414 N 36.9525 1.47285 -0.560781 0
M  V30 415 C 38.1985 2.03347 -0.0463654 0
M  V30 416 C 38.5535 1.42702 1.2905 0
M  V30 417 O 37.8465 0.574619 1.8278 0
M  V30 418 C 38.0405 3.57258 0.100784 0
M  V30 419 C 37.8695 4.32827 -1.22027 0
M  V30 420 C 36.6395 4.72588 -1.78854 0
M  V30 421 C 38.8375 4.67739 -2.13834 0
M  V30 422 N 36.8195 5.32816 -3.04927 0
M  V30 423 C 38.1905 5.28307 -3.24487 0
M  V30 424 C 40.2455 4.49667 -2.13784 0
M  V30 425 C 38.9485 5.72711 -4.35194 0
M  V30 426 C 40.9745 4.95073 -3.23506 0
M  V30 427 C 40.3365 5.55693 -4.32879 0
M  V30 428 H 36.4355 0.779755 -0.0592166 0
M  V30 429 H 39.0195 1.79723 -0.748857 0
M  V30 430 H 37.1905 3.80642 0.772404 0
M  V30 431 H 38.9225 3.9996 0.617589 0
M  V30 432 H 35.6775 4.54656 -1.32609 0
M  V30 433 H 36.1015 5.67471 -3.69197 0
M  V30 434 H 40.7435 4.02154 -1.30507 0
M  V30 435 H 38.4615 6.19214 -5.1923 0
M  V30 436 H 42.0475 4.82859 -3.24559 0
M  V30 437 H 40.9275 5.90188 -5.1638 0
M  V30 438 N 38.4306 0.297415 1.54768 0
M  V30 439 C 39.8466 -0.0560823 1.59501 0
M  V30 440 C 40.0466 -1.52725 1.31444 0
M  V30 441 O 39.1026 -2.27947 1.08611 0
M  V30 442 C 40.4156 0.338631 2.98787 0
M  V30 443 C 41.9636 0.287097 3.11681 0
M  V30 444 C 42.4386 0.656579 4.53269 0
M  V30 445 N 43.9296 0.608977 4.59179 0
M  V30 446 C 44.6646 0.867385 5.66802 0
M  V30 447 N 44.1606 1.19157 6.82476 0
M  V30 448 N 45.9536 0.794687 5.56454 0
M  V30 449 H 38.1046 1.25624 1.71267 0
M  V30 450 H 40.3676 0.509057 0.799728 0
M  V30 451 H 40.0736 1.36263 3.2423 0
M  V30 452 H 39.9476 -0.309508 3.75928 0
M  V30 453 H 42.3346 -0.727649 2.85988 0
M  V30 454 H 42.4156 0.969809 2.36703 0
M  V30 455 H 42.0596 1.66912 4.7969 0
M  V30 456 H 41.9896 -0.0481649 5.26578 0
M  V30 457 H 44.4806 0.369198 3.76092 0
M  V30 458 H 44.7936 1.37482 7.60473 0
M  V30 459 H 43.1386 1.22958 6.84037 0
M  V30 460 H 46.3296 0.541098 4.64962 0
M  V30 461 H 46.5026 0.999445 6.40246 0
M  V30 462 N 39.9087 -1.5758 0.0250728 0
M  V30 463 C 40.8717 -2.08896 -0.943139 0
M  V30 464 C 41.8717 -1.00321 -1.25668 0
M  V30 465 O 43.0617 -1.26495 -1.19769 0
M  V30 466 C 40.1937 -2.55143 -2.26086 0
M  V30 467 H 41.3867 -2.95723 -0.498775 0
M  V30 468 H 38.9397 -1.54703 -0.222888 0
M  V30 469 H 39.6747 -1.71633 -2.75159 0
M  V30 470 H 39.4597 -3.34461 -2.04641 0
M  V30 471 H 40.9497 -2.95083 -2.95492 0
M  V30 472 N 41.3868 0.248026 -1.55636 0
M  V30 473 C 42.3498 1.29044 -1.89421 0
M  V30 474 C 43.3498 1.41134 -0.770581 0
M  V30 475 O 44.5398 1.39854 -1.03858 0
M  V30 476 C 41.6718 2.66831 -2.12165 0
M  V30 477 H 42.8648 1.00305 -2.82629 0
M  V30 478 H 40.4178 0.487265 -1.48511 0
M  V30 479 H 41.1528 3.00711 -1.21422 0
M  V30 480 H 40.9378 2.59438 -2.93997 0
M  V30 481 H 42.4278 3.42103 -2.3949 0
M  V30 482 N 42.8649 1.48995 0.513639 0
M  V30 483 C 44.1119 1.57843 1.26854 0
M  V30 484 C 44.4399 0.259501 1.92761 0
M  V30 485 O 43.6949 -0.75159 1.80692 0
M  V30 486 C 43.9939 2.67756 2.36731 0
M  V30 487 C 43.6599 4.09669 1.88368 0
M  V30 488 C 42.3219 4.48291 1.74896 0
M  V30 489 C 44.6739 4.98537 1.52021 0
M  V30 490 C 42.0019 5.73568 1.23438 0
M  V30 491 C 44.3539 6.24319 1.0202 0
M  V30 492 C 43.0179 6.61783 0.871778 0
M  V30 493 H 42.2879 0.577587 0.464192 0
M  V30 494 H 44.9349 1.82778 0.571366 0
M  V30 495 H 43.2399 2.36743 3.12185 0
M  V30 496 H 44.9369 2.71813 2.9482 0
M  V30 497 H 41.5269 3.79176 1.99808 0
M  V30 498 H 45.7109 4.69363 1.61281 0
M  V30 499 H 40.9669 6.01304 1.10648 0
M  V30 500 H 45.1409 6.92566 0.729722 0
M  V30 501 H 42.7679 7.5874 0.470852 0
M  V30 502 N 44.343 -0.763751 1.37857 0
M  V30 503 C 45.306 -1.85889 1.34081 0
M  V30 504 C 46.306 -1.58949 0.243277 0
M  V30 505 O 47.496 -1.66882 0.499589 0
M  V30 506 C 44.628 -3.23176 1.08489 0
M  V30 507 H 45.821 -1.90648 2.31502 0
M  V30 508 H 43.374 -0.964367 1.23003 0
M  V30 509 H 44.109 -3.24091 0.116318 0
M  V30 510 H 43.894 -3.44124 1.8794 0
M  V30 511 H 45.384 -4.03254 1.08517 0
M  V30 512 N 45.8211 -1.22559 -0.990812 0
M  V30 513 C 47.0611 -1.06302 -1.74583 0
M  V30 514 C 47.4251 0.394737 -1.87898 0
M  V30 515 O 48.6261 0.678214 -2.60103 0
M  V30 516 C 46.8971 -1.75699 -3.11231 0
M  V30 517 S 48.4561 -1.74882 -4.02445 0
M  V30 518 H 45.2741 -0.380639 -0.600529 0
M  V30 519 H 47.8761 -1.55532 -1.18449 0
M  V30 520 H 46.5801 -2.80923 -2.99183 0
M  V30 521 H 46.1111 -1.26708 -3.72436 0
M  V30 522 H 48.1261 -0.799997 -4.89709 0
M  V30 523 N 47.2992 1.18797 -1.03562 0
M  V30 524 C 48.7102 1.70322 -0.764676 0
M  V30 525 C 49.0612 1.82708 0.714996 0
M  V30 526 O 48.1862 1.50299 1.55689 0
M  V30 527 C 48.7812 3.09356 -1.38145 0
M  V30 528 C 47.3402 3.58114 -1.15895 0
M  V30 529 C 46.4872 2.34798 -1.4753 0
M  V30 530 H 49.4382 1.03543 -1.20268 0
M  V30 531 H 49.4592 3.72378 -0.781977 0
M  V30 532 H 48.9712 3.00309 -2.45837 0
M  V30 533 H 47.0722 3.72464 -0.100544 0
M  V30 534 H 47.1852 4.4184 -1.8524 0
M  V30 535 H 45.5492 2.38464 -0.894829 0
M  V30 536 H 46.3322 2.28375 -2.56319 0
M  V30 537 N 48.7773 0.814389 1.34928 0
M  V30 538 C 50.0053 0.411136 2.02774 0
M  V30 539 C 50.4203 -0.980316 1.61354 0
M  V30 540 O 49.7773 -1.63299 0.814847 0
M  V30 541 C 49.8283 0.493865 3.58111 0
M  V30 542 O 49.5493 1.83047 3.98027 0
M  V30 543 C 51.0503 0.0844174 4.4322 0
M  V30 544 H 48.2703 0.166037 0.650133 0
M  V30 545 H 50.8143 1.10018 1.72384 0
M  V30 546 H 48.9693 -0.147006 3.87121 0
M  V30 547 H 49.3833 1.79872 4.92693 0
M  V30 548 H 50.8573 0.193404 5.51661 0
M  V30 549 H 51.3343 -0.97113 4.28329 0
M  V30 550 H 51.9403 0.69875 4.19521 0
M  V30 551 N 50.2554 -1.46986 0.568584 0
M  V30 552 C 51.4804 -2.07335 0.0520528 0
M  V30 553 C 51.9054 -1.41675 -1.23733 0
M  V30 554 O 51.2634 -0.495623 -1.74394 0
M  V30 555 C 51.3114 -3.60417 -0.11501 0
M  V30 556 O 50.4154 -3.95309 -1.17492 0
M  V30 557 H 49.7564 -0.661597 0.0564385 0
M  V30 558 H 52.2864 -1.88837 0.787507 0
M  V30 559 H 52.2964 -4.06698 -0.325644 0
M  V30 560 H 50.9714 -4.07601 0.826675 0
M  V30 561 H 49.5484 -3.60757 -0.943869 0
M  V30 562 N 51.7335 -0.305618 -1.54608 0
M  V30 563 C 52.9735 0.303114 -2.0214 0
M  V30 564 C 53.3375 1.50737 -1.18921 0
M  V30 565 O 54.5385 2.18778 -1.56172 0
M  V30 566 C 52.8095 0.646332 -3.51507 0
M  V30 567 S 54.3685 1.23727 -4.20995 0
M  V30 568 H 51.1865 0.0927643 -0.704923 0
M  V30 569 H 53.7885 -0.434566 -1.90609 0
M  V30 570 H 52.4925 -0.238541 -4.09706 0
M  V30 571 H 52.0235 1.41468 -3.67084 0
M  V30 572 H 54.0385 2.52489 -4.27158 0
M  V30 573 N 53.2116 1.57565 -0.0334293 0
M  V30 574 C 54.1586 2.10478 0.946981 0
M  V30 575 C 55.1286 1.00787 1.32027 0
M  V30 576 O 56.3136 1.28232 1.41284 0
M  V30 577 C 53.4536 2.63994 2.22263 0
M  V30 578 C 52.5666 3.87709 1.90541 0
M  V30 579 C 51.7016 4.29604 3.12433 0
M  V30 580 C 50.7406 5.46065 2.76549 0
M  V30 581 N 49.8776 5.83096 3.9108 0
M  V30 582 H 54.7176 2.93963 0.488846 0
M  V30 583 H 52.2546 1.45296 0.22969 0
M  V30 584 H 54.2126 2.93114 2.96884 0
M  V30 585 H 52.8426 1.83333 2.65685 0
M  V30 586 H 51.8946 3.65291 1.06144 0
M  V30 587 H 53.2066 4.72403 1.60116 0
M  V30 588 H 52.3606 4.60182 3.9537 0
M  V30 589 H 51.0996 3.43685 3.46023 0
M  V30 590 H 50.1046 5.15176 1.92026 0
M  V30 591 H 51.3296 6.33685 2.44171 0
M  V30 592 H 49.2756 5.00132 4.24504 0
M  V30 593 H 49.1926 6.6244 3.64293 0
M  V30 594 H 50.4606 6.18282 4.74708 0
M  V30 595 N 54.6897 -0.239769 1.55765 0
M  V30 596 C 55.9297 -0.974076 1.79697 0
M  V30 597 C 56.2937 -1.82249 0.604088 0
M  V30 598 O 57.4947 -2.58913 0.722324 0
M  V30 599 C 55.7657 -1.80595 3.08416 0
M  V30 600 S 57.3247 -2.59838 3.53596 0
M  V30 601 H 54.1427 -0.327524 0.63107 0
M  V30 602 H 56.7447 -0.241277 1.94005 0
M  V30 603 H 55.4487 -1.17249 3.93295 0
M  V30 604 H 54.9797 -2.58137 2.96865 0
M  V30 605 H 56.9947 -3.82987 3.15492 0
M  V30 606 N 56.1678 -1.49265 -0.50573 0
M  V30 607 C 57.3928 -1.62478 -1.28902 0
M  V30 608 C 57.8178 -0.294332 -1.85783 0
M  V30 609 O 57.1758 0.737412 -1.65626 0
M  V30 610 C 57.2238 -2.69268 -2.39848 0
M  V30 611 O 56.3278 -2.28113 -3.43567 0
M  V30 612 H 55.6688 -0.54399 -0.380751 0
M  V30 613 H 58.1988 -1.95421 -0.605952 0
M  V30 614 H 58.2088 -2.91291 -2.85681 0
M  V30 615 H 56.8838 -3.65846 -1.97812 0
M  V30 616 H 55.4608 -2.16401 -3.03685 0
M  V30 617 N 57.6459 0.756429 -1.3826 0
M  V30 618 C 58.6089 1.85176 -1.35065 0
M  V30 619 C 59.6089 1.58818 -0.251703 0
M  V30 620 O 60.7989 1.66615 -0.508433 0
M  V30 621 C 57.9309 3.22596 -1.10201 0
M  V30 622 H 59.1239 1.89417 -2.3251 0
M  V30 623 H 56.6769 0.95783 -1.23512 0
M  V30 624 H 57.4119 3.24025 -0.133504 0
M  V30 625 H 57.1969 3.43122 -1.89762 0
M  V30 626 H 58.6869 4.02673 -1.10654 0
M  V30 627 N 59.124 1.23083 0.984299 0
M  V30 628 C 60.349 1.088 1.76571 0
M  V30 629 C 60.774 -0.356657 1.84688 0
M  V30 630 O 60.132 -1.25788 1.30565 0
M  V30 631 C 60.18 1.71371 3.17277 0
M  V30 632 O 59.284 0.973213 4.00752 0
M  V30 633 H 58.625 0.381599 0.543395 0
M  V30 634 H 61.155 1.63057 1.23587 0
M  V30 635 H 61.165 1.76449 3.67872 0
M  V30 636 H 59.84 2.76493 3.10684 0
M  V30 637 H 58.417 0.999078 3.59267 0
M  V30 638 N 60.6021 -1.18246 1.0419 0
M  V30 639 C 62.0181 -1.40269 0.761366 0
M  V30 640 C 62.2181 -1.90777 -0.648578 0
M  V30 641 O 61.2741 -2.0929 -1.41258 0
M  V30 642 C 62.5871 -2.40237 1.8085 0
M  V30 643 C 64.1351 -2.53961 1.82955 0
M  V30 644 C 64.6101 -3.57194 2.86664 0
M  V30 645 N 66.1011 -3.64702 2.85563 0
M  V30 646 C 66.8361 -4.44309 3.6246 0
M  V30 647 N 66.3321 -5.27514 4.49111 0
M  V30 648 N 68.1251 -4.39084 3.50944 0
M  V30 649 H 60.2761 -0.837882 1.95175 0
M  V30 650 H 62.5391 -0.430608 0.84456 0
M  V30 651 H 62.2451 -2.10176 2.81991 0
M  V30 652 H 62.1191 -3.39601 1.64168 0
M  V30 653 H 64.5061 -2.83338 0.824855 0
M  V30 654 H 64.5871 -1.54706 2.03715 0
M  V30 655 H 64.2311 -3.28558 3.87314 0
M  V30 656 H 64.1611 -4.5613 2.6316 0
M  V30 657 H 66.6521 -3.05289 2.22727 0
M  V30 658 H 66.9651 -5.85411 5.04493 0
M  V30 659 H 65.3101 -5.2693 4.53178 0
M  V30 660 H 68.5011 -3.7313 2.82651 0
M  V30 661 H 68.6741 -5.00883 4.11121 0
M  V30 662 N 62.0802 -0.821533 -1.34494 0
M  V30 663 C 63.3292 -0.405355 -1.97585 0
M  V30 664 C 63.6422 1.03677 -1.65863 0
M  V30 665 O 64.8482 1.55679 -2.22433 0
M  V30 666 C 63.3042 -0.673861 -3.53535 0
M  V30 667 C 62.9122 -2.12951 -3.94152 0
M  V30 668 C 64.6562 -0.32378 -4.23263 0
M  V30 669 C 62.5632 -2.34298 -5.43009 0
M  V30 670 H 61.4932 -0.147836 -0.739365 0
M  V30 671 H 64.1442 -1.00769 -1.53355 0
M  V30 672 H 62.5262 -0.00137554 -3.96 0
M  V30 673 H 63.7002 -2.84104 -3.62797 0
M  V30 674 H 62.0152 -2.44089 -3.37356 0
M  V30 675 H 64.6122 -0.461126 -5.32708 0
M  V30 676 H 64.9552 0.731586 -4.09821 0
M  V30 677 H 65.4882 -0.950786 -3.8627 0
M  V30 678 H 62.2272 -3.38335 -5.61435 0
M  V30 679 H 61.7472 -1.67687 -5.75883 0
M  V30 680 H 63.4262 -2.16588 -6.09671 0
M  V30 681 N 63.5583 1.46682 -0.576371 0
M  V30 682 C 64.8043 2.03287 -0.0679305 0
M  V30 683 C 65.1593 1.44063 1.27529 0
M  V30 684 O 64.4523 0.593973 1.82161 0
M  V30 685 C 64.6463 3.57345 0.062886 0
M  V30 686 C 64.4753 4.31509 -1.26611 0
M  V30 687 C 63.2453 4.70664 -1.83856 0
M  V30 688 C 65.4433 4.65444 -2.18783 0
M  V30 689 N 63.4253 5.29552 -3.10561 0
M  V30 690 C 64.7963 5.24835 -3.30072 0
M  V30 691 C 66.8513 4.47375 -2.18542 0
M  V30 692 C 65.5543 5.68063 -4.41244 0
M  V30 693 C 67.5803 4.91614 -3.28739 0
M  V30 694 C 66.9423 5.51071 -4.38748 0
M  V30 695 H 63.0413 0.779083 -0.0674836 0
M  V30 696 H 65.6253 1.78918 -0.767877 0
M  V30 697 H 63.7963 3.8144 0.731988 0
M  V30 698 H 65.5283 4.00592 0.575134 0
M  V30 699 H 62.2833 4.53224 -1.37424 0
M  V30 700 H 62.7073 5.63523 -3.75195 0
M  V30 701 H 67.3493 4.00747 -1.34765 0
M  V30 702 H 65.0673 6.13672 -5.25768 0
M  V30 703 H 68.6533 4.79389 -3.29662 0
M  V30 704 H 67.5333 5.84678 -5.22611 0
M  V30 705 N 65.0364 0.313813 1.54444 0
M  V30 706 C 66.2764 -0.292389 2.02298 0
M  V30 707 C 66.6404 -1.50105 1.19719 0
M  V30 708 O 67.8414 -2.17947 1.5733 0
M  V30 709 C 66.1124 -0.627682 3.51845 0
M  V30 710 S 67.6714 -1.21493 4.21646 0
M  V30 711 H 64.4894 -0.0890247 0.705405 0
M  V30 712 H 67.0914 0.444668 1.90376 0
M  V30 713 H 65.7954 0.260265 4.09574 0
M  V30 714 H 65.3264 -1.39519 3.67829 0
M  V30 715 H 67.3414 -2.5022 4.28491 0
M  V30 716 N 66.5145 -1.57545 0.0417849 0
M  V30 717 C 67.7395 -1.97035 -0.647455 0
M  V30 718 C 68.1645 -0.918775 -1.64135 0
M  V30 719 O 67.5225 0.119006 -1.80909 0
M  V30 720 C 67.5705 -3.35609 -1.31905 0
M  V30 721 O 66.6745 -3.3287 -2.43457 0
M  V30 722 H 66.0155 -0.64211 -0.169086 0
M  V30 723 H 68.5455 -2.04318 0.107399 0
M  V30 724 H 68.5555 -3.72126 -1.67291 0
M  V30 725 H 67.2305 -4.11685 -0.590586 0
M  V30 726 H 65.8075 -3.08087 -2.10088 0
M  V30 727 N 67.9926 0.231505 -1.5589 0
M  V30 728 C 69.2696 0.981096 -1.69215 0
M  V30 729 C 69.6496 2.02799 -0.586164 0
M  V30 730 O 68.9976 2.24823 0.408253 0
M  V30 731 C 69.2076 1.60054 -3.10135 0
M  V30 732 C 70.5556 2.09658 -3.69227 0
M  V30 733 O 71.5796 1.69967 -3.13033 0
M  V30 734 O 70.4386 2.8258 -4.67772 0
M  V30 735 H 67.5326 0.457653 -0.688827 0
M  V30 736 H 70.0786 0.224073 -1.68214 0
M  V30 737 H 68.8506 0.844105 -3.82087 0
M  V30 738 H 68.4736 2.42336 -3.15212 0
M  V30 739 N 69.4707 1.49531 0.497807 0
M  V30 740 C 70.8817 1.52344 1.07927 0
M  V30 741 C 71.2327 0.311469 1.93712 0
M  V30 742 O 70.3577 -0.578405 2.08527 0
M  V30 743 C 70.9527 2.76062 1.96405 0
M  V30 744 C 69.5117 2.81643 2.49709 0
M  V30 745 C 68.6587 2.46299 1.27404 0
M  V30 746 H 71.6097 1.56182 0.281576 0
M  V30 747 H 71.6307 2.56405 2.81135 0
M  V30 748 H 71.1427 3.64254 1.33943 0
M  V30 749 H 69.2437 1.97739 3.15801 0
M  V30 750 H 69.3567 3.83891 2.86643 0
M  V30 751 H 67.7207 1.98148 1.60029 0
M  V30 752 H 68.5037 3.36769 0.66645 0
M  V30 753 N 70.9488 -0.749086 1.3866 0
M  V30 754 C 72.1738 -1.54344 1.38538 0
M  V30 755 C 72.5988 -1.88088 -0.0216655 0
M  V30 756 O 71.9568 -1.50899 -1.00494 0
M  V30 757 C 72.0048 -2.8164 2.25192 0
M  V30 758 O 71.1088 -3.7698 1.67212 0
M  V30 759 H 70.4498 -0.466654 0.472367 0
M  V30 760 H 72.9798 -0.925355 1.82478 0
M  V30 761 H 72.9898 -3.30519 2.3921 0
M  V30 762 H 71.6648 -2.56411 3.27454 0
M  V30 763 H 70.2418 -3.35699 1.6236 0
M  V30 764 N 72.4269 -1.23603 -0.977757 0
M  V30 765 C 73.8379 -1.06424 -1.53398 0
M  V30 766 C 74.1889 0.367578 -1.92726 0
M  V30 767 O 73.3139 1.25465 -1.76316 0
M  V30 768 C 73.9089 -1.92568 -2.78753 0
M  V30 769 C 72.4679 -1.79642 -3.30765 0
M  V30 770 C 71.6149 -1.88111 -2.03739 0
M  V30 771 H 74.5659 -1.37227 -0.797152 0
M  V30 772 H 74.5869 -1.45203 -3.51705 0
M  V30 773 H 74.0989 -2.96771 -2.50098 0
M  V30 774 H 72.1999 -0.782325 -3.64294 0
M  V30 775 H 72.3129 -2.63174 -4.00345 0
M  V30 776 H 70.6769 -1.31723 -2.17994 0
M  V30 777 H 71.4599 -2.93875 -1.77461 0
M  V30 778 N 73.905 1.17692 -1.04816 0
M  V30 779 C 75.153 1.87488 -0.754497 0
M  V30 780 C 75.474 1.81205 0.720407 0
M  V30 781 O 74.744 1.23544 1.52032 0
M  V30 782 H 73.324 0.694101 -0.276102 0
M  V30 783 H 75.986 1.42793 -1.32651 0
M  V30 784 H 75.082 2.93328 -1.06606 0
M  V30 785 N 75.3831 0.828654 1.34056 0
M  V30 786 C 76.6321 0.415828 1.97367 0
M  V30 787 C 76.9451 -1.02796 1.6641 0
M  V30 788 O 78.1511 -1.54497 2.23255 0
M  V30 789 C 76.6071 0.692601 3.53173 0
M  V30 790 C 76.2151 2.15038 3.93017 0
M  V30 791 C 77.9591 0.346222 4.23086 0
M  V30 792 C 75.8661 2.37174 5.41758 0
M  V30 793 H 74.7961 0.151755 0.738571 0
M  V30 794 H 77.4471 1.01581 1.52819 0
M  V30 795 H 75.8291 0.0223764 3.95994 0
M  V30 796 H 77.0031 2.86024 3.61285 0
M  V30 797 H 75.3181 2.45875 3.36057 0
M  V30 798 H 77.9151 0.48937 5.32456 0
M  V30 799 H 78.2581 -0.709842 4.10204 0
M  V30 800 H 78.7911 0.971258 3.85761 0
M  V30 801 H 75.5301 3.41308 5.59633 0
M  V30 802 H 75.0501 1.70738 5.74986 0
M  V30 803 H 76.7291 2.19818 6.08514 0
M  V30 804 N 76.8612 -1.46375 0.584142 0
M  V30 805 C 78.1072 -2.02678 0.0703716 0
M  V30 806 C 78.4402 -1.4545 -1.28678 0
M  V30 807 O 77.7152 -0.62014 -1.84349 0
M  V30 808 C 77.9982 -3.60099 0.00614674 0
M  V30 809 C 77.8512 -4.27709 1.3923 0
M  V30 810 C 79.1702 -4.34598 -0.693742 0
M  V30 811 H 76.2892 -0.736504 0.027047 0
M  V30 812 H 78.9312 -1.74501 0.751615 0
M  V30 813 H 77.0812 -3.84236 -0.574009 0
M  V30 814 H 78.7532 -4.14832 2.01773 0
M  V30 815 H 76.9962 -3.87016 1.95962 0
M  V30 816 H 77.6672 -5.36478 1.29982 0
M  V30 817 H 80.1432 -4.15615 -0.200869 0
M  V30 818 H 79.0192 -5.44318 -0.707714 0
M  V30 819 H 79.2802 -4.05759 -1.75533 0
M  V30 820 N 78.3393 -0.321999 -1.54275 0
M  V30 821 C 79.3023 0.531975 -2.22941 0
M  V30 822 C 80.3023 1.04478 -1.22234 0
M  V30 823 O 81.4923 0.937452 -1.46825 0
M  V30 824 C 78.6243 1.73874 -2.93224 0
M  V30 825 H 79.8173 -0.0682612 -2.99822 0
M  V30 826 H 77.3703 -0.0730644 -1.56129 0
M  V30 827 H 78.1053 2.37825 -2.20476 0
M  V30 828 H 77.8903 1.37847 -3.6707 0
M  V30 829 H 79.3803 2.34496 -3.45545 0
M  V30 830 N 79.8174 1.5752 -0.0501392 0
M  V30 831 C 81.0644 1.9265 0.623874 0
M  V30 832 C 81.3924 0.928411 1.70912 0
M  V30 833 O 80.6474 -0.0594525 1.9561 0
M  V30 834 C 80.9464 3.34467 1.25963 0
M  V30 835 C 80.6124 4.49883 0.302689 0
M  V30 836 C 79.2744 4.81184 0.0393636 0
M  V30 837 C 81.6264 5.20002 -0.353205 0
M  V30 838 C 78.9544 5.79951 -0.887308 0
M  V30 839 C 81.3064 6.1976 -1.26806 0
M  V30 840 C 79.9704 6.49491 -1.54007 0
M  V30 841 H 79.2404 0.704957 0.228292 0
M  V30 842 H 81.8874 1.91146 -0.116398 0
M  V30 843 H 80.1924 3.32333 2.07514 0
M  V30 844 H 81.8894 3.58928 1.78806 0
M  V30 845 H 78.4794 4.25457 0.518109 0
M  V30 846 H 82.6634 4.96033 -0.162854 0
M  V30 847 H 77.9194 6.01322 -1.10553 0
M  V30 848 H 82.0934 6.73205 -1.78236 0
M  V30 849 H 79.7204 7.25837 -2.25976 0
M  V30 850 N 81.2955 -0.223234 1.56011 0
M  V30 851 C 82.7065 -0.790368 1.69145 0
M  V30 852 C 83.0575 -1.85055 0.651845 0
M  V30 853 O 82.1825 -2.15498 -0.197359 0
M  V30 854 C 82.7775 -1.4404 3.06656 0
M  V30 855 C 81.3365 -1.95494 3.2165 0
M  V30 856 C 80.4835 -0.814506 2.65068 0
M  V30 857 H 83.4345 0.00139011 1.587 0
M  V30 858 H 83.4555 -2.30916 3.0242 0
M  V30 859 H 82.9675 -0.668543 3.82298 0
M  V30 860 H 81.0685 -2.75487 2.50874 0
M  V30 861 H 81.1815 -2.13607 4.28846 0
M  V30 862 H 79.5455 -1.22137 2.23505 0
M  V30 863 H 80.3285 -0.0553515 3.43255 0
M  V30 864 N 82.7736 -1.49793 -0.48987 0
M  V30 865 C 84.1896 -1.36803 -0.822022 0
M  V30 866 C 84.3896 -0.409652 -1.97292 0
M  V30 867 O 83.4456 0.154614 -2.52026 0
M  V30 868 C 84.7586 -2.77768 -1.15175 0
M  V30 869 C 86.3066 -2.86549 -1.25931 0
M  V30 870 C 86.7816 -4.28306 -1.62228 0
M  V30 871 N 88.2726 -4.31169 -1.69256 0
M  V30 872 C 89.0076 -5.37832 -1.98807 0
M  V30 873 N 88.5036 -6.54726 -2.26507 0
M  V30 874 N 90.2966 -5.25258 -2.00152 0
M  V30 875 H 82.4476 -2.10691 0.268881 0
M  V30 876 H 84.7106 -0.946241 0.057728 0
M  V30 877 H 84.4166 -3.49648 -0.379335 0
M  V30 878 H 84.2906 -3.13836 -2.09253 0
M  V30 879 H 86.6776 -2.14899 -2.02243 0
M  V30 880 H 86.7586 -2.54049 -0.298776 0
M  V30 881 H 86.4026 -5.00486 -0.864622 0
M  V30 882 H 86.3326 -4.58279 -2.594 0
M  V30 883 H 88.8236 -3.4687 -1.49965 0
M  V30 884 H 89.1366 -7.31833 -2.48276 0
M  V30 885 H 87.4816 -6.57933 -2.23939 0
M  V30 886 H 90.6726 -4.32938 -1.77996 0
M  V30 887 H 90.8456 -6.08476 -2.22848 0
M  V30 888 N 84.2517 0.741722 -1.39055 0
M  V30 889 C 85.1817 1.869 -1.39966 0
M  V30 890 C 86.1627 1.6804 -0.26392 0
M  V30 891 O 87.3477 1.88458 -0.468755 0
M  V30 892 C 84.4777 3.24572 -1.23574 0
M  V30 893 C 83.4317 3.58056 -2.34477 0
M  V30 894 C 82.7577 4.94593 -2.0318 0
M  V30 895 C 84.0577 3.61716 -3.76774 0
M  V30 896 H 85.7517 1.86395 -2.34302 0
M  V30 897 H 83.2977 0.895361 -1.1278 0
M  V30 898 H 85.2507 4.031 -1.22834 0
M  V30 899 H 83.9747 3.25587 -0.257045 0
M  V30 900 H 82.6337 2.81854 -2.34423 0
M  V30 901 H 82.2817 4.92181 -1.03765 0
M  V30 902 H 81.9817 5.17964 -2.77465 0
M  V30 903 H 83.5057 5.75486 -2.04079 0
M  V30 904 H 84.9197 4.30335 -3.78794 0
M  V30 905 H 83.3167 3.96603 -4.50362 0
M  V30 906 H 84.3867 2.61672 -4.08235 0
M  V30 907 N 85.7298 1.2412 0.971189 0
M  V30 908 C 86.6398 1.04747 2.09917 0
M  V30 909 C 87.6558 -0.0107162 1.73997 0
M  V30 910 O 88.8318 0.186714 2.00533 0
M  V30 911 C 85.8968 0.650828 3.40537 0
M  V30 912 C 84.9578 1.7851 3.90426 0
M  V30 913 C 84.1908 1.40729 5.14812 0
M  V30 914 O 84.4138 0.29557 5.69634 0
M  V30 915 O 83.3478 2.23168 5.58999 0
M  V30 916 H 87.1738 1.99304 2.29154 0
M  V30 917 H 84.7588 1.02908 1.08307 0
M  V30 918 H 86.6408 0.440992 4.19086 0
M  V30 919 H 85.3158 -0.265649 3.22608 0
M  V30 920 H 84.2228 2.04966 3.12953 0
M  V30 921 H 85.5558 2.68023 4.12825 0
M  V30 922 N 87.2079 -1.17134 1.05439 0
M  V30 923 C 88.6189 -1.69084 0.791676 0
M  V30 924 C 88.9699 -1.83822 -0.685839 0
M  V30 925 O 88.0949 -1.52757 -1.53278 0
M  V30 926 C 88.6899 -3.07119 1.4305 0
M  V30 927 C 87.2489 -3.56225 1.21577 0
M  V30 928 C 86.3959 -2.32421 1.51247 0
M  V30 929 H 89.3469 -1.01617 1.219 0
M  V30 930 H 89.3679 -3.71087 0.84112 0
M  V30 931 H 88.8799 -2.9636 2.50584 0
M  V30 932 H 86.9809 -3.72257 0.159787 0
M  V30 933 H 87.0939 -4.38837 1.92246 0
M  V30 934 H 85.4579 -2.3701 0.932653 0
M  V30 935 H 86.2409 -2.24268 2.5992 0
M  V30 936 N 88.686 -0.835752 -1.33615 0
M  V30 937 C 89.634 -0.255238 -2.31195 0
M  V30 938 C 90.628 0.61107 -1.57995 0
M  V30 939 O 91.834 0.500979 -1.72888 0
M  V30 940 H 88.209 -0.0638085 -0.749288 0
M  V30 941 H 90.18 -1.09283 -2.77669 0
M  V30 942 C 88.929 0.55754 -3.43201 0
M  V30 943 H 88.252 -0.0997553 -3.99676 0
M  V30 944 H 89.692 0.929622 -4.13683 0
M  V30 945 C 88.151 1.73515 -2.88781 0
M  V30 946 O 88.681 2.83376 -2.84712 0
M  V30 947 N 86.887 1.55603 -2.4543 0
M  V30 948 H 86.434 0.662354 -2.48939 0
M  V30 949 H 86.392 2.34545 -2.09371 0
M  V30 950 N 90.1641 1.46063 -0.591896 0
M  V30 951 C 91.3891 2.07226 -0.0850314 0
M  V30 952 C 91.8141 1.43625 1.21463 0
M  V30 953 O 91.1721 0.523305 1.73583 0
M  V30 954 C 91.2201 3.60554 0.0576567 0
M  V30 955 O 90.3241 3.97128 1.11188 0
M  V30 956 H 89.6651 0.660615 -0.0669568 0
M  V30 957 H 92.1951 1.8756 -0.81745 0
M  V30 958 H 92.2051 4.07165 0.2609 0
M  V30 959 H 90.8801 4.06235 -0.891416 0
M  V30 960 H 89.4571 3.62213 0.886356 0
M  V30 961 N 91.6422 0.330177 1.54103 0
M  V30 962 C 92.8882 -0.270806 2.00984 0
M  V30 963 C 93.2212 -1.51265 1.21789 0
M  V30 964 O 92.4962 -1.92142 0.301927 0
M  V30 965 C 92.7792 -0.598339 3.55094 0
M  V30 966 C 92.6322 0.654674 4.4501 0
M  V30 967 C 93.9512 -1.41334 4.16789 0
M  V30 968 H 91.0702 -0.0969531 0.730595 0
M  V30 969 H 93.7122 0.448066 1.84641 0
M  V30 970 H 91.8622 -1.21078 3.69151 0
M  V30 971 H 93.5342 1.29285 4.42813 0
M  V30 972 H 91.7772 1.28224 4.14416 0
M  V30 973 H 92.4482 0.380944 5.50684 0
M  V30 974 H 94.9242 -0.895597 4.06347 0
M  V30 975 H 93.8002 -1.61127 5.24718 0
M  V30 976 H 94.0612 -2.41146 3.70541 0
M  V30 977 N 93.1203 -1.57491 0.0584922 0
M  V30 978 C 94.3973 -1.84346 -0.653918 0
M  V30 979 C 94.7773 -0.948355 -1.88599 0
M  V30 980 O 94.1253 -0.0112403 -2.28497 0
M  V30 981 C 94.3353 -3.34239 -1.00425 0
M  V30 982 C 95.6833 -4.01431 -1.38342 0
M  V30 983 O 96.7073 -3.38907 -1.09637 0
M  V30 984 O 95.5663 -5.11683 -1.91943 0
M  V30 985 H 92.6603 -0.761112 -0.323478 0
M  V30 986 H 95.2063 -1.6947 0.0884125 0
M  V30 987 H 93.9783 -3.91089 -0.128625 0
M  V30 988 H 93.6013 -3.54329 -1.80378 0
M  V30 989 N 94.5984 0.214957 -1.56127 0
M  V30 990 C 96.0094 0.781386 -1.69562 0
M  V30 991 C 96.3604 1.84707 -0.66165 0
M  V30 992 O 95.4854 2.156 0.185927 0
M  V30 993 C 96.0804 1.42411 -3.07416 0
M  V30 994 C 94.6394 1.93786 -3.22683 0
M  V30 995 C 93.7864 0.800438 -2.65496 0
M  V30 996 H 96.7374 -0.00980633 -1.58697 0
M  V30 997 H 96.7584 2.29309 -3.0364 0
M  V30 998 H 96.2704 0.64826 -3.82648 0
M  V30 999 H 94.3714 2.74152 -2.52332 0
M  V30 1000 H 94.4844 2.1133 -4.29973 0
M  V30 1001 H 92.8484 1.2095 -2.2415 0
M  V30 1002 H 93.6314 0.0371471 -3.4328 0
M  V30 1003 N 96.0765 1.50051 0.48192 0
M  V30 1004 C 96.9865 1.7089 1.60728 0
M  V30 1005 C 98.0025 0.591788 1.63627 0
M  V30 1006 O 99.1785 0.868817 1.81696 0
M  V30 1007 C 96.2435 1.78855 2.97005 0
M  V30 1008 C 95.3045 3.02537 3.04581 0
M  V30 1009 C 94.5375 3.10112 4.34357 0
M  V30 1010 O 94.7605 2.24765 5.24249 0
M  V30 1011 O 93.6945 4.02747 4.47301 0
M  V30 1012 H 97.5205 2.66264 1.46072 0
M  V30 1013 H 95.1055 1.34018 0.660264 0
M  V30 1014 H 96.9875 1.86336 3.77964 0
M  V30 1015 H 95.6625 0.866628 3.11883 0
M  V30 1016 H 94.5695 3.00563 2.22739 0
M  V30 1017 H 95.9025 3.94272 2.94636 0
M  V30 1018 N 97.5546 -0.734337 1.39446 0
M  V30 1019 C 98.5026 -1.86971 1.38364 0
M  V30 1020 C 99.4966 -1.67288 0.266687 0
M  V30 1021 O 100.703 -1.74621 0.436755 0
M  V30 1022 H 97.0776 -0.615474 0.432082 0
M  V30 1023 H 99.0486 -1.85 2.34132 0
M  V30 1024 C 97.7976 -3.2466 1.24465 0
M  V30 1025 H 97.1206 -3.40402 2.09682 0
M  V30 1026 H 98.5606 -4.04292 1.27764 0
M  V30 1027 C 97.0196 -3.36867 -0.0468674 0
M  V30 1028 O 97.5496 -3.88618 -1.01681 0
M  V30 1029 N 95.7556 -2.90391 -0.110145 0
M  V30 1030 H 95.3026 -2.48466 0.679868 0
M  V30 1031 H 95.2606 -2.98939 -0.973799 0
M  V30 1032 N 99.0327 -1.24633 -0.964593 0
M  V30 1033 C 100.282 -1.08188 -1.7023 0
M  V30 1034 C 100.595 0.37873 -1.91898 0
M  V30 1035 O 101.801 0.663427 -2.6327 0
M  V30 1036 C 100.257 -1.88773 -3.06419 0
M  V30 1037 C 99.8647 -3.39263 -2.92582 0
M  V30 1038 C 101.609 -1.80867 -3.84041 0
M  V30 1039 C 99.5157 -4.1218 -4.24101 0
M  V30 1040 H 98.4457 -0.401245 -0.638372 0
M  V30 1041 H 101.097 -1.48742 -1.07462 0
M  V30 1042 H 99.4787 -1.41035 -3.70034 0
M  V30 1043 H 100.653 -3.94603 -2.37961 0
M  V30 1044 H 98.9677 -3.48154 -2.28424 0
M  V30 1045 H 101.565 -2.32646 -4.81435 0
M  V30 1046 H 101.908 -0.774543 -4.09031 0
M  V30 1047 H 102.441 -2.26301 -3.27159 0
M  V30 1048 H 99.1797 -5.15965 -4.04303 0
M  V30 1049 H 98.6997 -3.61626 -4.78526 0
M  V30 1050 H 100.379 -4.19349 -4.92702 0
M  V30 1051 N 100.511 1.16574 -1.06058 0
M  V30 1052 C 101.739 1.90952 -0.796552 0
M  V30 1053 C 102.154 1.77302 0.648808 0
M  V30 1054 O 101.511 1.11605 1.44397 0
M  V30 1055 C 101.562 3.41736 -1.17894 0
M  V30 1056 O 101.283 3.54975 -2.56758 0
M  V30 1057 C 102.784 4.33169 -0.942308 0
M  V30 1058 H 100.004 0.605594 -0.288959 0
M  V30 1059 H 102.548 1.47777 -1.41358 0
M  V30 1060 H 100.703 3.82623 -0.606491 0
M  V30 1061 H 101.117 4.4846 -2.72 0
M  V30 1062 H 102.591 5.37439 -1.25952 0
M  V30 1063 H 103.068 4.3903 0.122078 0
M  V30 1064 H 103.674 3.98007 -1.49902 0
M  V30 1065 N 101.989 0.842826 1.3317 0
M  V30 1066 C 102.899 0.281444 2.32906 0
M  V30 1067 C 103.915 -0.594587 1.63526 0
M  V30 1068 O 105.091 -0.49777 1.95152 0
M  V30 1069 C 102.156 -0.530929 3.42611 0
M  V30 1070 C 101.217 0.369843 4.27704 0
M  V30 1071 C 100.45 -0.403853 5.3217 0
M  V30 1072 O 100.673 -1.63513 5.46461 0
M  V30 1073 O 99.6069 0.224199 6.01482 0
M  V30 1074 H 103.433 1.10744 2.82789 0
M  V30 1075 H 101.018 0.60545 1.36582 0
M  V30 1076 H 102.9 -0.992437 4.09547 0
M  V30 1077 H 101.575 -1.33392 2.94938 0
M  V30 1078 H 100.482 0.879275 3.6362 0
M  V30 1079 H 101.815 1.13771 4.78871 0
M  V30 1080 N 103.467 -1.45747 0.599634 0
M  V30 1081 C 104.716 -2.01502 0.0893511 0
M  V30 1082 C 105.029 -1.4748 -1.28488 0
M  V30 1083 O 106.235 -1.95161 -1.88745 0
M  V30 1084 C 104.691 -3.59735 0.109082 0
M  V30 1085 C 104.299 -4.22754 1.48267 0
M  V30 1086 C 106.043 -4.23085 -0.346374 0
M  V30 1087 C 103.95 -5.73115 1.45921 0
M  V30 1088 H 102.88 -0.753417 0.0296347 0
M  V30 1089 H 105.531 -1.67303 0.753788 0
M  V30 1090 H 103.913 -3.91087 -0.621854 0
M  V30 1091 H 105.087 -4.02987 2.23468 0
M  V30 1092 H 103.402 -3.71567 1.87955 0
M  V30 1093 H 105.999 -5.33327 -0.38298 0
M  V30 1094 H 106.342 -3.93201 -1.36743 0
M  V30 1095 H 106.875 -3.9642 0.331038 0
M  V30 1096 H 103.614 -6.07685 2.45762 0
M  V30 1097 H 103.134 -5.95097 0.749665 0
M  V30 1098 H 104.813 -6.3616 1.17941 0
M  V30 1099 N 104.945 -0.338344 -1.53925 0
M  V30 1100 C 106.192 0.259758 -2.00827 0
M  V30 1101 C 106.52 1.50973 -1.22628 0
M  V30 1102 O 105.775 1.93379 -0.300509 0
M  V30 1103 C 106.074 0.62448 -3.51902 0
M  V30 1104 C 105.74 -0.528006 -4.47798 0
M  V30 1105 C 104.402 -0.844298 -4.73735 0
M  V30 1106 C 106.754 -1.30143 -5.0469 0
M  V30 1107 C 104.082 -1.93648 -5.53821 0
M  V30 1108 C 106.434 -2.38382 -5.85967 0
M  V30 1109 C 105.098 -2.70576 -6.10201 0
M  V30 1110 H 104.368 0.0950523 -0.734878 0
M  V30 1111 H 107.015 -0.465182 -1.85764 0
M  V30 1112 H 105.32 1.43006 -3.64769 0
M  V30 1113 H 107.017 1.09905 -3.85645 0
M  V30 1114 H 103.607 -0.271421 -4.2774 0
M  V30 1115 H 107.791 -1.07033 -4.84621 0
M  V30 1116 H 103.047 -2.19021 -5.70824 0
M  V30 1117 H 107.221 -2.98746 -6.29066 0
M  V30 1118 H 104.848 -3.55333 -6.72044 0
M  V30 1119 N 106.423 1.57458 -0.0668435 0
M  V30 1120 C 107.672 1.92477 0.602947 0
M  V30 1121 C 107.985 0.948419 1.71068 0
M  V30 1122 O 109.191 1.19124 2.43971 0
M  V30 1123 C 107.647 3.41903 1.12383 0
M  V30 1124 C 107.255 4.47975 0.04737 0
M  V30 1125 C 108.999 3.85931 1.76797 0
M  V30 1126 C 106.906 5.88529 0.582022 0
M  V30 1127 H 105.836 0.718387 0.22899 0
M  V30 1128 H 108.487 1.82978 -0.138276 0
M  V30 1129 H 106.869 3.46459 1.91787 0
M  V30 1130 H 108.043 4.55029 -0.726978 0
M  V30 1131 H 106.358 4.13384 -0.500243 0
M  V30 1132 H 108.955 4.88322 2.17821 0
M  V30 1133 H 109.298 3.23029 2.62599 0
M  V30 1134 H 109.831 3.83958 1.04024 0
M  V30 1135 H 106.57 6.55065 -0.238721 0
M  V30 1136 H 106.09 5.85004 1.324 0
M  V30 1137 H 107.769 6.38258 1.05999 0
M  V30 1138 N 107.901 -0.206675 1.56239 0
M  V30 1139 C 108.864 -1.23976 1.92776 0
M  V30 1140 C 109.864 -1.39041 0.807729 0
M  V30 1141 O 111.054 -1.37051 1.0753 0
M  V30 1142 C 108.186 -2.61112 2.19165 0
M  V30 1143 H 109.379 -0.927764 2.85189 0
M  V30 1144 H 106.932 -0.447718 1.4975 0
M  V30 1145 H 107.667 -2.97386 1.29352 0
M  V30 1146 H 107.452 -2.51552 3.00772 0
M  V30 1147 H 108.942 -3.35633 2.48476 0
M  V30 1148 N 109.379 -1.50304 -0.473955 0
M  V30 1149 C 110.327 -1.69482 -1.59307 0
M  V30 1150 C 111.321 -0.560669 -1.59853 0
M  V30 1151 O 112.527 -0.741087 -1.64036 0
M  V30 1152 H 108.902 -0.534892 -0.528578 0
M  V30 1153 H 110.873 -2.63364 -1.40293 0
M  V30 1154 C 109.622 -1.80354 -2.97267 0
M  V30 1155 H 108.945 -2.67012 -2.97564 0
M  V30 1156 H 110.385 -1.97798 -3.75036 0
M  V30 1157 C 108.844 -0.55448 -3.32306 0
M  V30 1158 O 109.374 0.307661 -4.0052 0
M  V30 1159 N 107.58 -0.409354 -2.87702 0
M  V30 1160 H 107.127 -1.11196 -2.32364 0
M  V30 1161 H 107.085 0.425223 -3.11511 0
M  V30 1162 N 110.857 0.726932 -1.39834 0
M  V30 1163 C 111.789 1.85147 -1.35104 0
M  V30 1164 C 112.802 1.60736 -0.258392 0
M  V30 1165 O 113.991 1.70821 -0.517931 0
M  V30 1166 C 111.091 3.21332 -1.07697 0
M  V30 1167 C 110.264 3.73033 -2.28396 0
M  V30 1168 C 109.323 4.87802 -1.97322 0
M  V30 1169 O 108.349 5.01043 -2.70083 0
M  V30 1170 N 109.551 5.72768 -0.944273 0
M  V30 1171 H 112.316 1.89706 -2.32017 0
M  V30 1172 H 109.877 0.908006 -1.3404 0
M  V30 1173 H 111.869 3.95691 -0.849144 0
M  V30 1174 H 110.439 3.11992 -0.194909 0
M  V30 1175 H 109.659 2.89934 -2.6708 0
M  V30 1176 H 110.947 4.0431 -3.08887 0
M  V30 1177 H 110.345 5.64669 -0.341427 0
M  V30 1178 H 108.902 6.4716 -0.776346 0
M  V30 1179 N 112.336 1.25143 0.95797 0
M  V30 1180 C 113.283 1.05235 2.05412 0
M  V30 1181 C 114.253 -0.0374561 1.66058 0
M  V30 1182 O 115.438 0.119073 1.90428 0
M  V30 1183 C 112.578 0.673589 3.38462 0
M  V30 1184 C 111.691 1.8379 3.90954 0
M  V30 1185 C 110.826 1.40381 5.12315 0
M  V30 1186 C 109.865 2.53746 5.57027 0
M  V30 1187 N 109.002 2.11136 6.69601 0
M  V30 1188 H 113.842 1.99048 2.21774 0
M  V30 1189 H 111.379 0.991277 1.08683 0
M  V30 1190 H 113.337 0.434964 4.14926 0
M  V30 1191 H 111.967 -0.227554 3.21997 0
M  V30 1192 H 111.019 2.18992 3.11041 0
M  V30 1193 H 112.331 2.68937 4.20089 0
M  V30 1194 H 111.485 1.12464 5.96185 0
M  V30 1195 H 110.224 0.523015 4.84887 0
M  V30 1196 H 109.229 2.82412 4.71724 0
M  V30 1197 H 110.454 3.42398 5.86464 0
M  V30 1198 H 108.4 1.25468 6.4389 0
M  V30 1199 H 108.317 2.89832 6.98236 0
M  V30 1200 H 109.585 1.86385 7.56889 0
M  V30 1201 N 113.814 -1.1601 1.06675 0
M  V30 1202 C 115.23 -1.38622 0.790948 0
M  V30 1203 C 115.43 -1.92109 -0.607965 0
M  V30 1204 O 114.486 -2.12239 -1.36787 0
M  V30 1205 C 115.799 -2.36347 1.85905 0
M  V30 1206 C 117.347 -2.50023 1.88301 0
M  V30 1207 C 117.822 -3.51033 2.94176 0
M  V30 1208 N 119.313 -3.58563 2.93235 0
M  V30 1209 C 120.048 -4.36521 3.71803 0
M  V30 1210 N 119.544 -5.17869 4.602 0
M  V30 1211 N 121.337 -4.31541 3.60178 0
M  V30 1212 H 113.488 -0.796294 1.96908 0
M  V30 1213 H 115.751 -0.412597 0.853503 0
M  V30 1214 H 115.457 -2.04147 2.86386 0
M  V30 1215 H 115.331 -3.36042 1.71334 0
M  V30 1216 H 117.718 -2.81524 0.884769 0
M  V30 1217 H 117.799 -1.5035 2.06951 0
M  V30 1218 H 117.443 -3.20268 3.94196 0
M  V30 1219 H 117.373 -4.50445 2.72776 0
M  V30 1220 H 119.864 -3.00496 2.29152 0
M  V30 1221 H 120.177 -5.74578 5.16797 0
M  V30 1222 H 118.522 -5.17199 4.64253 0
M  V30 1223 H 121.713 -3.67051 2.90502 0
M  V30 1224 H 121.886 -4.9205 4.21653 0
M  V30 1225 N 115.292 -0.849877 -1.32721 0
M  V30 1226 C 116.222 -0.306308 -2.31482 0
M  V30 1227 C 117.203 0.591952 -1.59468 0
M  V30 1228 O 118.388 0.513199 -1.87296 0
M  V30 1229 C 115.518 0.510204 -3.43532 0
M  V30 1230 C 114.472 -0.293209 -4.26994 0
M  V30 1231 C 113.798 0.647743 -5.30762 0
M  V30 1232 C 115.098 -1.51634 -4.99804 0
M  V30 1233 H 116.792 -1.13153 -2.77195 0
M  V30 1234 H 114.338 -0.545553 -1.33266 0
M  V30 1235 H 116.291 0.900856 -4.11658 0
M  V30 1236 H 115.015 1.36874 -2.96535 0
M  V30 1237 H 113.674 -0.665555 -3.60508 0
M  V30 1238 H 113.322 1.50299 -4.8002 0
M  V30 1239 H 113.022 0.11422 -5.87489 0
M  V30 1240 H 114.546 1.03567 -6.01753 0
M  V30 1241 H 115.96 -1.19824 -5.60638 0
M  V30 1242 H 114.357 -1.98745 -5.66234 0
M  V30 1243 H 115.427 -2.28018 -4.27943 0
M  V30 1244 N 116.77 1.45427 -0.607355 0
M  V30 1245 C 117.68 2.34325 0.113463 0
M  V30 1246 C 118.696 1.51226 0.860617 0
M  V30 1247 O 119.872 1.84029 0.818255 0
M  V30 1248 C 116.937 3.28839 1.09844 0
M  V30 1249 C 115.998 4.27844 0.353271 0
M  V30 1250 C 115.231 5.17842 1.29133 0
M  V30 1251 O 115.454 5.11264 2.52913 0
M  V30 1252 O 114.388 5.96713 0.788523 0
M  V30 1253 H 118.214 2.97364 -0.617094 0
M  V30 1254 H 115.799 1.44807 -0.367619 0
M  V30 1255 H 117.681 3.8708 1.66575 0
M  V30 1256 H 116.356 2.68365 1.81003 0
M  V30 1257 H 115.263 3.7322 -0.256494 0
M  V30 1258 H 116.596 4.91173 -0.317822 0
M  V30 1259 N 118.248 0.346503 1.53744 0
M  V30 1260 C 119.497 -0.250122 2.00143 0
M  V30 1261 C 119.81 -1.51418 1.23822 0
M  V30 1262 O 121.016 -2.18823 1.60713 0
M  V30 1263 C 119.472 -0.496252 3.56462 0
M  V30 1264 C 119.08 0.752077 4.41642 0
M  V30 1265 C 120.824 -1.05157 4.11269 0
M  V30 1266 C 118.731 0.476583 5.89477 0
M  V30 1267 H 117.661 -0.0972409 0.747703 0
M  V30 1268 H 120.312 0.46229 1.77581 0
M  V30 1269 H 118.694 -1.26944 3.75102 0
M  V30 1270 H 119.868 1.5266 4.34778 0
M  V30 1271 H 118.183 1.22925 3.97842 0
M  V30 1272 H 120.78 -1.27269 5.19333 0
M  V30 1273 H 121.123 -2.00799 3.64672 0
M  V30 1274 H 121.656 -0.339019 3.96353 0
M  V30 1275 H 118.395 1.4028 6.40314 0
M  V30 1276 H 117.915 -0.259794 5.99237 0
M  V30 1277 H 119.594 0.0949315 6.4693 0
M  V30 1278 N 119.726 -1.57421 0.075193 0
M  V30 1279 C 120.975 -1.92794 -0.592731 0
M  V30 1280 C 121.288 -0.957478 -1.70563 0
M  V30 1281 O 122.494 -1.20417 -2.43335 0
M  V30 1282 C 120.95 -3.42495 -1.10569 0
M  V30 1283 C 120.558 -4.47994 -0.0236121 0
M  V30 1284 C 122.302 -3.86864 -1.74748 0
M  V30 1285 C 120.209 -5.88829 -0.550803 0
M  V30 1286 H 119.139 -0.719591 -0.225177 0
M  V30 1287 H 121.79 -1.82902 0.147978 0
M  V30 1288 H 120.172 -3.47471 -1.89947 0
M  V30 1289 H 121.346 -4.54637 0.751099 0
M  V30 1290 H 119.661 -4.13113 0.522159 0
M  V30 1291 H 122.258 -4.8947 -2.15229 0
M  V30 1292 H 122.601 -3.24417 -2.60882 0
M  V30 1293 H 123.134 -3.84504 -1.01986 0
M  V30 1294 H 119.873 -6.54929 0.273457 0
M  V30 1295 H 119.393 -5.85698 -1.29296 0
M  V30 1296 H 121.072 -6.38811 -1.02613 0
M  V30 1297 N 121.204 0.198386 -1.56346 0
M  V30 1298 C 122.152 1.26538 -1.95169 0
M  V30 1299 C 123.146 1.47295 -0.836685 0
M  V30 1300 O 124.352 1.48195 -1.02167 0
M  V30 1301 H 120.727 0.424744 -0.620561 0
M  V30 1302 H 122.698 0.910904 -2.84157 0
M  V30 1303 C 121.447 2.6035 -2.30463 0
M  V30 1304 H 120.77 2.45192 -3.15786 0
M  V30 1305 H 122.21 3.33762 -2.61494 0
M  V30 1306 C 120.669 3.17096 -1.13806 0
M  V30 1307 O 121.199 3.99588 -0.41135 0
M  V30 1308 N 119.405 2.75795 -0.915736 0
M  V30 1309 H 118.952 2.08816 -1.50843 0
M  V30 1310 H 118.91 3.14101 -0.136979 0
M  V30 1311 N 122.682 1.50554 0.465978 0
M  V30 1312 C 123.592 1.72585 1.58907 0
M  V30 1313 C 124.608 0.60911 1.6299 0
M  V30 1314 O 125.784 0.88804 1.80765 0
M  V30 1315 C 122.849 1.81995 2.95091 0
M  V30 1316 C 121.91 3.05751 3.01355 0
M  V30 1317 C 121.143 3.14702 4.31043 0
M  V30 1318 O 121.366 2.30313 5.21835 0
M  V30 1319 O 120.3 4.07468 4.43005 0
M  V30 1320 H 124.126 2.67799 1.43239 0
M  V30 1321 H 121.711 1.34711 0.646013 0
M  V30 1322 H 123.593 1.90335 3.75966 0
M  V30 1323 H 122.268 0.899659 3.10947 0
M  V30 1324 H 121.175 3.02908 2.19539 0
M  V30 1325 H 122.508 3.97375 2.90437 0
M  V30 1326 N 124.16 -0.719506 1.40217 0
M  V30 1327 C 125.437 -1.47221 1.28784 0
M  V30 1328 C 125.817 -2.10883 -0.0956067 0
M  V30 1329 O 125.165 -1.99833 -1.10811 0
M  V30 1330 C 125.375 -2.5111 2.42373 0
M  V30 1331 C 126.723 -3.17053 2.82423 0
M  V30 1332 O 127.747 -2.61429 2.41937 0
M  V30 1333 O 126.606 -4.17742 3.52355 0
M  V30 1334 H 123.7 -0.654491 0.50554 0
M  V30 1335 H 126.246 -0.752014 1.52128 0
M  V30 1336 H 125.018 -2.02556 3.34793 0
M  V30 1337 H 124.641 -3.3067 2.20778 0
M  V30 1338 N 125.638 -1.25649 -0.95132 0
M  V30 1339 C 126.915 -1.01361 -1.67288 0
M  V30 1340 C 127.295 0.459135 -2.06046 0
M  V30 1341 O 126.643 1.43723 -1.7764 0
M  V30 1342 C 126.853 -1.95256 -2.89268 0
M  V30 1343 C 128.201 -2.23289 -3.61147 0
M  V30 1344 O 129.225 -1.93041 -2.99355 0
M  V30 1345 O 128.084 -2.74741 -4.72419 0
M  V30 1346 H 125.178 -0.38464 -0.732107 0
M  V30 1347 H 127.724 -1.36817 -1.00395 0
M  V30 1348 H 126.496 -2.94685 -2.57442 0
M  V30 1349 H 126.119 -1.60218 -3.6389 0
M  V30 1350 N 127.117 1.15442 -1.07289 0
M  V30 1351 C 128.363 1.86489 -0.796846 0
M  V30 1352 C 128.696 1.82078 0.675371 0
M  V30 1353 O 127.971 1.24346 1.4956 0
M  V30 1354 C 128.254 3.35626 -1.30489 0
M  V30 1355 C 128.107 3.48673 -2.84161 0
M  V30 1356 C 129.426 4.30357 -0.920907 0
M  V30 1357 H 126.545 0.677144 -0.290939 0
M  V30 1358 H 129.187 1.35633 -1.33056 0
M  V30 1359 H 127.337 3.79068 -0.850883 0
M  V30 1360 H 129.009 3.14099 -3.37846 0
M  V30 1361 H 127.252 2.90253 -3.22391 0
M  V30 1362 H 127.923 4.53453 -3.14777 0
M  V30 1363 H 130.399 3.94871 -1.3121 0
M  V30 1364 H 129.275 5.33193 -1.30372 0
M  V30 1365 H 129.536 4.4176 0.173226 0
M  V30 1366 N 128.595 0.856903 1.32268 0
M  V30 1367 C 129.505 0.306131 2.32594 0
M  V30 1368 C 130.521 -0.577209 1.64147 0
M  V30 1369 O 131.697 -0.477043 1.95669 0
M  V30 1370 C 128.762 -0.494561 3.43154 0
M  V30 1371 C 127.823 0.415186 4.27288 0
M  V30 1372 C 127.056 -0.347387 5.32568 0
M  V30 1373 O 127.279 -1.57708 5.48165 0
M  V30 1374 O 126.213 0.287982 6.01211 0
M  V30 1375 H 130.039 1.13737 2.81598 0
M  V30 1376 H 127.624 0.619902 1.35932 0
M  V30 1377 H 129.506 -0.948944 4.10576 0
M  V30 1378 H 128.181 -1.30257 2.96336 0
M  V30 1379 H 127.088 0.917793 3.62667 0
M  V30 1380 H 128.421 1.18844 4.77637 0
M  V30 1381 N 130.073 -1.45103 0.615059 0
M  V30 1382 C 131.036 -2.29025 -0.0895485 0
M  V30 1383 C 132.036 -1.40174 -0.787906 0
M  V30 1384 O 133.226 -1.62217 -0.634933 0
M  V30 1385 C 130.358 -3.21376 -1.13711 0
M  V30 1386 H 131.551 -2.92807 0.648382 0
M  V30 1387 H 129.104 -1.51749 0.374444 0
M  V30 1388 H 129.839 -2.6241 -1.90556 0
M  V30 1389 H 129.624 -3.86834 -0.640475 0
M  V30 1390 H 131.114 -3.84459 -1.63036 0
M  V30 1391 N 131.551 -0.354651 -1.53558 0
M  V30 1392 C 132.781 0.239167 -2.05211 0
M  V30 1393 C 133.189 1.43879 -1.22863 0
M  V30 1394 O 132.532 1.81857 -0.259565 0
M  V30 1395 C 132.594 0.707251 -3.52474 0
M  V30 1396 C 132.258 -0.374212 -4.55465 0
M  V30 1397 C 133.255 -1.22054 -5.0537 0
M  V30 1398 C 130.94 -0.531323 -4.99482 0
M  V30 1399 C 132.934 -2.20942 -5.97882 0
M  V30 1400 C 130.621 -1.52358 -5.91802 0
M  V30 1401 C 131.619 -2.36108 -6.40892 0
M  V30 1402 O 131.307 -3.33643 -7.31394 0
M  V30 1403 H 131.039 0.0479716 -0.674296 0
M  V30 1404 H 133.593 -0.508121 -1.99016 0
M  V30 1405 H 131.823 1.50596 -3.56171 0
M  V30 1406 H 133.512 1.22285 -3.87042 0
M  V30 1407 H 134.278 -1.1103 -4.7212 0
M  V30 1408 H 130.157 0.110738 -4.60867 0
M  V30 1409 H 133.701 -2.86348 -6.36121 0
M  V30 1410 H 129.598 -1.63434 -6.24467 0
M  V30 1411 H 130.366 -3.29244 -7.4936 0
M  V30 1412 N 133.029 1.57378 -0.0835403 0
M  V30 1413 C 134.275 1.94217 0.583733 0
M  V30 1414 C 134.608 0.964653 1.68547 0
M  V30 1415 O 133.883 -0.00422258 1.945 0
M  V30 1416 C 134.166 3.41253 1.14972 0
M  V30 1417 C 134.019 4.49768 0.0538277 0
M  V30 1418 C 135.338 3.89352 2.05166 0
M  V30 1419 H 132.457 0.706233 0.210724 0
M  V30 1420 H 135.099 1.89392 -0.1519 0
M  V30 1421 H 133.249 3.45496 1.77665 0
M  V30 1422 H 134.921 4.57641 -0.579851 0
M  V30 1423 H 133.164 4.29432 -0.614068 0
M  V30 1424 H 133.835 5.49817 0.490452 0
M  V30 1425 H 136.311 3.87189 1.52393 0
M  V30 1426 H 135.187 4.92822 2.41698 0
M  V30 1427 H 135.448 3.27973 2.96456 0
M  V30 1428 N 134.507 -0.190092 1.56449 0
M  V30 1429 C 135.755 -0.907908 1.80559 0
M  V30 1430 C 136.076 -1.83583 0.657438 0
M  V30 1431 O 135.346 -1.93203 -0.323924 0
M  V30 1432 H 133.926 -0.338247 0.666032 0
M  V30 1433 H 136.588 -0.194403 1.93928 0
M  V30 1434 H 135.684 -1.49604 2.73907 0
M  V30 1435 N 135.985 -1.50799 -0.457987 0
M  V30 1436 C 136.915 -1.73553 -1.5621 0
M  V30 1437 C 137.896 -0.584774 -1.59732 0
M  V30 1438 O 139.081 -0.825314 -1.7579 0
M  V30 1439 C 136.211 -1.84169 -2.94447 0
M  V30 1440 C 135.165 -2.99461 -3.0579 0
M  V30 1441 C 134.491 -2.95235 -4.45803 0
M  V30 1442 C 135.791 -4.39766 -2.81786 0
M  V30 1443 H 137.485 -2.66 -1.37421 0
M  V30 1444 H 135.031 -1.28002 -0.659662 0
M  V30 1445 H 136.984 -1.98672 -3.71628 0
M  V30 1446 H 135.708 -0.883545 -3.14422 0
M  V30 1447 H 134.367 -2.8463 -2.31044 0
M  V30 1448 H 134.015 -1.97239 -4.62715 0
M  V30 1449 H 133.715 -3.72642 -4.54326 0
M  V30 1450 H 135.239 -3.11803 -5.24987 0
M  V30 1451 H 136.653 -4.55054 -3.4871 0
M  V30 1452 H 135.05 -5.18722 -3.0174 0
M  V30 1453 H 136.12 -4.51229 -1.7754 0
M  V30 1454 N 137.463 0.71206 -1.40597 0
M  V30 1455 C 138.879 1.02058 -1.22704 0
M  V30 1456 C 139.079 2.01228 -0.104729 0
M  V30 1457 O 138.135 2.4674 0.53624 0
M  V30 1458 C 139.448 1.56094 -2.57012 0
M  V30 1459 C 140.996 1.6806 -2.64054 0
M  V30 1460 C 141.471 2.25501 -3.9864 0
M  V30 1461 N 142.962 2.32882 -4.004 0
M  V30 1462 C 143.697 2.78317 -5.01325 0
M  V30 1463 N 143.193 3.23478 -6.12645 0
M  V30 1464 N 144.986 2.77733 -4.88693 0
M  V30 1465 H 137.137 0.0547896 -2.12329 0
M  V30 1466 H 139.4 0.0869027 -0.944008 0
M  V30 1467 H 139.106 0.906865 -3.39807 0
M  V30 1468 H 138.98 2.54564 -2.78347 0
M  V30 1469 H 141.367 2.32583 -1.81629 0
M  V30 1470 H 141.448 0.681802 -2.46546 0
M  V30 1471 H 141.092 1.61598 -4.81506 0
M  V30 1472 H 141.022 3.26102 -4.13479 0
M  V30 1473 H 143.513 2.00991 -3.20017 0
M  V30 1474 H 143.826 3.56725 -6.85542 0
M  V30 1475 H 142.171 3.21429 -6.16205 0
M  V30 1476 H 145.362 2.4179 -4.00818 0
M  V30 1477 H 145.535 3.12826 -5.67489 0
M  V30 1478 N 138.941 1.26152 0.944643 0
M  V30 1479 C 139.889 1.07215 2.06417 0
M  V30 1480 C 140.883 9.2007e-05 1.694 0
M  V30 1481 O 142.089 0.1565 1.79318 0
M  V30 1482 H 138.464 0.329837 0.675805 0
M  V30 1483 H 140.435 2.02099 2.19541 0
M  V30 1484 C 139.184 0.718197 3.40202 0
M  V30 1485 H 138.507 1.53497 3.69159 0
M  V30 1486 H 139.947 0.625459 4.19361 0
M  V30 1487 C 138.406 -0.576435 3.31932 0
M  V30 1488 O 138.936 -1.61574 3.67773 0
M  V30 1489 N 137.142 -0.565781 2.85039 0
M  V30 1490 H 136.689 0.280367 2.5607 0
M  V30 1491 H 136.647 -1.43213 2.79888 0
M  V30 1492 N 140.419 -1.14872 1.07899 0
M  V30 1493 C 141.349 -2.2193 0.725887 0
M  V30 1494 C 142.33 -1.67622 -0.28927 0
M  V30 1495 O 143.515 -1.93533 -0.160787 0
M  V30 1496 C 140.645 -3.47061 0.128856 0
M  V30 1497 C 139.599 -4.14363 1.07178 0
M  V30 1498 C 138.925 -5.33636 0.337229 0
M  V30 1499 C 140.225 -4.63492 2.40775 0
M  V30 1500 H 141.919 -2.51724 1.62097 0
M  V30 1501 H 139.465 -1.20991 0.780838 0
M  V30 1502 H 141.418 -4.21199 -0.130147 0
M  V30 1503 H 140.142 -3.16617 -0.80134 0
M  V30 1504 H 138.801 -3.42173 1.3158 0
M  V30 1505 H 138.449 -4.99449 -0.596606 0
M  V30 1506 H 138.149 -5.79609 0.965788 0
M  V30 1507 H 139.673 -6.10539 0.0861567 0
M  V30 1508 H 141.087 -5.2913 2.20669 0
M  V30 1509 H 139.484 -5.20148 2.99276 0
M  V30 1510 H 140.554 -3.78834 3.02676 0
M  V30 1511 N 141.898 -0.863906 -1.31812 0
M  V30 1512 C 143.126 -0.486111 -2.01108 0
M  V30 1513 C 143.541 0.919755 -1.64882 0
M  V30 1514 O 142.898 1.60162 -0.874893 0
M  V30 1515 C 142.949 -0.626435 -3.56031 0
M  V30 1516 O 142.67 -1.97693 -3.90959 0
M  V30 1517 C 144.171 -0.248857 -4.42601 0
M  V30 1518 H 141.391 -0.190052 -0.643523 0
M  V30 1519 H 143.935 -1.1634 -1.68182 0
M  V30 1520 H 142.09 0.00322717 -3.874 0
M  V30 1521 H 142.504 -1.98034 -4.85678 0
M  V30 1522 H 143.978 -0.398016 -5.50563 0
M  V30 1523 H 144.455 0.811489 -4.31638 0
M  V30 1524 H 145.061 -0.853971 -4.16638 0
M  V30 1525 N 143.376 1.44774 -0.622745 0
M  V30 1526 C 144.625 2.01334 -0.121397 0
M  V30 1527 C 144.938 1.49505 1.26125 0
M  V30 1528 O 146.144 1.98139 1.85616 0
M  V30 1529 C 144.6 3.59516 -0.166298 0
M  V30 1530 C 144.208 4.20342 -1.54974 0
M  V30 1531 C 145.952 4.23582 0.279021 0
M  V30 1532 C 143.859 5.70721 -1.55021 0
M  V30 1533 H 142.789 0.752851 -0.0416172 0
M  V30 1534 H 145.44 1.66083 -0.780309 0
M  V30 1535 H 143.822 3.92027 0.559557 0
M  V30 1536 H 144.996 3.99381 -2.29851 0
M  V30 1537 H 143.311 3.68529 -1.93843 0
M  V30 1538 H 145.908 5.33868 0.298083 0
M  V30 1539 H 146.251 3.95327 1.30471 0
M  V30 1540 H 146.784 3.95843 -0.394063 0
M  V30 1541 H 143.523 6.03698 -2.55399 0
M  V30 1542 H 143.043 5.93829 -0.844245 0
M  V30 1543 H 144.722 6.34203 -1.28047 0
M  V30 1544 N 144.854 0.36279 1.53368 0
M  V30 1545 C 146.1 -0.228113 2.01513 0
M  V30 1546 C 146.433 -1.48648 1.2497 0
M  V30 1547 O 145.708 -1.91459 0.342616 0
M  V30 1548 C 145.991 -0.522884 3.56284 0
M  V30 1549 C 145.844 0.74892 4.43521 0
M  V30 1550 C 147.163 -1.32461 4.19693 0
M  V30 1551 H 144.282 -0.0814343 0.732487 0
M  V30 1552 H 146.924 0.48713 1.83649 0
M  V30 1553 H 145.074 -1.1322 3.71636 0
M  V30 1554 H 146.746 1.38648 4.39971 0
M  V30 1555 H 144.989 1.36986 4.11603 0
M  V30 1556 H 145.66 0.497667 5.49752 0
M  V30 1557 H 148.136 -0.809203 4.08156 0
M  V30 1558 H 147.012 -1.49961 5.28018 0
M  V30 1559 H 147.273 -2.33232 3.75573 0
M  V30 1560 N 146.332 -1.57332 0.0918853 0
M  V30 1561 C 147.609 -1.85691 -0.614668 0
M  V30 1562 C 147.989 -0.988146 -1.86545 0
M  V30 1563 O 147.337 -0.0597055 -2.28422 0
M  V30 1564 C 147.547 -3.36294 -0.933126 0
M  V30 1565 C 148.895 -4.04275 -1.29796 0
M  V30 1566 O 149.919 -3.41157 -1.02424 0
M  V30 1567 O 148.778 -5.1564 -1.81047 0
M  V30 1568 H 145.872 -0.767802 -0.307261 0
M  V30 1569 H 148.418 -1.69244 0.12434 0
M  V30 1570 H 147.19 -3.91273 -0.0456404 0
M  V30 1571 H 146.813 -3.58076 -1.72822 0
M  V30 1572 N 147.81 0.181792 -1.56548 0
M  V30 1573 C 149.035 0.920019 -1.85877 0
M  V30 1574 C 149.46 1.75494 -0.677021 0
M  V30 1575 O 148.818 1.77399 0.374056 0
M  V30 1576 C 148.866 1.78112 -3.13542 0
M  V30 1577 O 147.97 2.88152 -2.95029 0
M  V30 1578 H 147.311 0.258334 -0.611686 0
M  V30 1579 H 149.841 0.183092 -2.03779 0
M  V30 1580 H 149.851 2.18314 -3.44678 0
M  V30 1581 H 148.526 1.16777 -3.99169 0
M  V30 1582 H 147.103 2.51609 -2.75222 0
M  V30 1583 N 149.288 1.51039 0.449983 0
M  V30 1584 C 150.536 1.62759 1.19808 0
M  V30 1585 C 150.857 0.339981 1.92013 0
M  V30 1586 O 150.127 -0.643606 1.85026 0
M  V30 1587 H 148.707 0.599811 0.445237 0
M  V30 1588 H 151.369 1.87914 0.517138 0
M  V30 1589 H 150.465 2.44911 1.93455 0
M  V30 1590 N 150.766 -0.704594 1.40972 0
M  V30 1591 C 151.696 -1.83124 1.44872 0
M  V30 1592 C 152.677 -1.67281 0.30838 0
M  V30 1593 O 153.862 -1.87149 0.518556 0
M  V30 1594 C 150.992 -3.21181 1.32136 0
M  V30 1595 C 149.946 -3.51714 2.43888 0
M  V30 1596 C 149.272 -4.89032 2.16222 0
M  V30 1597 C 150.572 -3.516 3.86232 0
M  V30 1598 H 152.266 -1.80117 2.39161 0
M  V30 1599 H 149.812 -0.865145 1.15114 0
M  V30 1600 H 151.765 -3.99702 1.33479 0
M  V30 1601 H 150.489 -3.24791 0.343279 0
M  V30 1602 H 149.148 -2.75539 2.41813 0
M  V30 1603 H 148.796 -4.89256 1.16778 0
M  V30 1604 H 148.496 -5.10426 2.911 0
M  V30 1605 H 150.02 -5.69873 2.19265 0
M  V30 1606 H 151.434 -4.2014 3.9007 0
M  V30 1607 H 149.831 -3.84523 4.60719 0
M  V30 1608 H 150.901 -2.50757 4.15029 0
M  V30 1609 N 152.244 -1.26651 -0.937939 0
M  V30 1610 C 153.191 -1.0849 -2.03712 0
M  V30 1611 C 154.161 0.011033 -1.66096 0
M  V30 1612 O 155.346 -0.149353 -1.90215 0
M  V30 1613 C 152.486 -0.72735 -3.37348 0
M  V30 1614 C 151.599 -1.89986 -3.87981 0
M  V30 1615 C 150.734 -1.48513 -5.10017 0
M  V30 1616 C 149.773 -2.62575 -5.5292 0
M  V30 1617 N 148.91 -2.21762 -6.66158 0
M  V30 1618 H 153.75 -2.02551 -2.18579 0
M  V30 1619 H 151.287 -1.00844 -1.07093 0
M  V30 1620 H 153.245 -0.50092 -4.14182 0
M  V30 1621 H 151.875 0.176298 -3.22318 0
M  V30 1622 H 150.927 -2.23913 -3.07518 0
M  V30 1623 H 152.239 -2.75586 -4.15757 0
M  V30 1624 H 151.393 -1.21934 -5.94321 0
M  V30 1625 H 150.132 -0.60009 -4.83994 0
M  V30 1626 H 149.137 -2.8988 -4.67172 0
M  V30 1627 H 150.362 -3.51685 -5.80943 0
M  V30 1628 H 148.308 -1.35696 -6.41812 0
M  V30 1629 H 148.225 -3.00903 -6.93537 0
M  V30 1630 H 149.493 -1.98403 -7.53828 0
M  V30 1631 N 153.722 1.14298 -1.08507 0
M  V30 1632 C 154.969 1.85359 -0.815373 0
M  V30 1633 C 155.297 1.83001 0.658865 0
M  V30 1634 O 154.552 1.25655 1.50031 0
M  V30 1635 C 154.851 3.33547 -1.28379 0
M  V30 1636 C 154.517 3.56093 -2.76602 0
M  V30 1637 C 153.179 3.61955 -3.17084 0
M  V30 1638 C 155.531 3.64834 -3.72217 0
M  V30 1639 C 152.859 3.74082 -4.51973 0
M  V30 1640 C 155.211 3.78487 -5.06883 0
M  V30 1641 C 153.875 3.82598 -5.46969 0
M  V30 1642 H 153.145 0.678276 -0.298366 0
M  V30 1643 H 155.792 1.35002 -1.35819 0
M  V30 1644 H 154.097 3.86191 -0.660593 0
M  V30 1645 H 155.794 3.86959 -1.05186 0
M  V30 1646 H 152.384 3.52179 -2.4427 0
M  V30 1647 H 156.568 3.59595 -3.42061 0
M  V30 1648 H 151.824 3.75527 -4.82483 0
M  V30 1649 H 155.998 3.84193 -5.80834 0
M  V30 1650 H 153.625 3.91747 -6.51489 0
M  V30 1651 N 155.201 0.870884 1.31352 0
M  V30 1652 C 156.447 0.482987 1.96965 0
M  V30 1653 C 156.78 -0.962462 1.68672 0
M  V30 1654 O 156.055 -1.6779 0.98371 0
M  V30 1655 C 156.338 0.741752 3.52378 0
M  V30 1656 C 156.191 2.2368 3.9024 0
M  V30 1657 C 157.51 0.208838 4.39604 0
M  V30 1658 H 154.629 0.176955 0.715441 0
M  V30 1659 H 157.271 1.09229 1.55464 0
M  V30 1660 H 155.421 0.223149 3.87859 0
M  V30 1661 H 157.093 2.82273 3.64856 0
M  V30 1662 H 155.336 2.70901 3.38814 0
M  V30 1663 H 156.007 2.3685 4.98604 0
M  V30 1664 H 158.483 0.652529 4.10952 0
M  V30 1665 H 157.359 0.419336 5.47296 0
M  V30 1666 H 157.62 -0.889275 4.33064 0
M  V30 1667 N 156.679 -1.44442 0.630414 0
M  V30 1668 C 157.642 -2.29107 -0.0652523 0
M  V30 1669 C 158.642 -1.41002 -0.772995 0
M  V30 1670 O 159.832 -1.62881 -0.617692 0
M  V30 1671 C 156.964 -3.22564 -1.10296 0
M  V30 1672 H 158.157 -2.92103 0.679401 0
M  V30 1673 H 155.71 -1.51343 0.390517 0
M  V30 1674 H 156.445 -2.64416 -1.87762 0
M  V30 1675 H 156.23 -3.87491 -0.59941 0
M  V30 1676 H 157.72 -3.86167 -1.5895 0
M  V30 1677 N 158.157 -0.370918 -1.53173 0
M  V30 1678 C 159.107 0.489588 -2.22681 0
M  V30 1679 C 160.091 1.04442 -1.22395 0
M  V30 1680 O 161.283 0.973578 -1.47819 0
M  V30 1681 C 158.412 1.626 -3.02351 0
M  V30 1682 C 157.498 1.08379 -4.10018 0
M  V30 1683 N 157.889 0.265004 -5.05105 0
M  V30 1684 C 156.187 1.35809 -4.2482 0
M  V30 1685 C 156.888 -0.0324755 -5.81691 0
M  V30 1686 N 155.864 0.566581 -5.40639 0
M  V30 1687 H 159.666 -0.142729 -2.93553 0
M  V30 1688 H 157.18 -0.179221 -1.61408 0
M  V30 1689 H 159.177 2.2547 -3.50669 0
M  V30 1690 H 157.837 2.26132 -2.33011 0
M  V30 1691 H 158.848 -0.0962352 -5.17811 0
M  V30 1692 H 155.525 1.9958 -3.66707 0
M  V30 1693 H 156.915 -0.69473 -6.68299 0
M  V30 1694 N 159.635 1.57281 -0.100228 0
M  V30 1695 C 160.582 2.14305 0.856858 0
M  V30 1696 C 161.552 1.06296 1.27634 0
M  V30 1697 O 162.737 1.34109 1.35718 0
M  V30 1698 C 159.877 2.73184 2.10866 0
M  V30 1699 C 158.99 3.95442 1.73925 0
M  V30 1700 C 158.125 4.42468 2.93931 0
M  V30 1701 C 157.164 5.57303 2.5314 0
M  V30 1702 N 156.301 5.99158 3.65997 0
M  V30 1703 H 161.141 2.95772 0.363726 0
M  V30 1704 H 158.678 1.46139 0.167858 0
M  V30 1705 H 160.636 3.05442 2.84185 0
M  V30 1706 H 159.266 1.94437 2.57671 0
M  V30 1707 H 158.318 3.69464 0.905554 0
M  V30 1708 H 159.63 4.78769 1.39935 0
M  V30 1709 H 158.784 4.76537 3.75496 0
M  V30 1710 H 157.523 3.58052 3.31134 0
M  V30 1711 H 156.528 5.22857 1.70003 0
M  V30 1712 H 157.753 6.43471 2.17075 0
M  V30 1713 H 155.699 5.17687 4.02909 0
M  V30 1714 H 155.616 6.77295 3.35869 0
M  V30 1715 H 156.884 6.3786 4.48057 0
M  V30 1716 N 161.113 -0.173488 1.56642 0
M  V30 1717 C 162.076 -1.19859 1.95362 0
M  V30 1718 C 163.076 -1.37296 0.83704 0
M  V30 1719 O 164.266 -1.34739 1.10413 0
M  V30 1720 C 161.398 -2.56405 2.24654 0
M  V30 1721 H 162.591 -0.867062 2.87092 0
M  V30 1722 H 160.144 -0.415853 1.50666 0
M  V30 1723 H 160.879 -2.94576 1.35631 0
M  V30 1724 H 160.664 -2.45115 3.06041 0
M  V30 1725 H 162.154 -3.30287 2.5554 0
M  V30 1726 N 162.591 -1.51276 -0.441967 0
M  V30 1727 C 163.838 -1.63715 -1.19179 0
M  V30 1728 C 164.166 -0.351175 -1.91303 0
M  V30 1729 O 163.421 0.664524 -1.84072 0
M  V30 1730 C 163.72 -2.78746 -2.23686 0
M  V30 1731 C 163.386 -4.18189 -1.68607 0
M  V30 1732 C 162.048 -4.56125 -1.53308 0
M  V30 1733 C 164.4 -5.05222 -1.28062 0
M  V30 1734 C 161.728 -5.78804 -0.959317 0
M  V30 1735 C 164.08 -6.28476 -0.721162 0
M  V30 1736 C 162.744 -6.65188 -0.55504 0
M  V30 1737 H 162.014 -0.599076 -0.436106 0
M  V30 1738 H 164.661 -1.85296 -0.48351 0
M  V30 1739 H 162.966 -2.51369 -3.00535 0
M  V30 1740 H 164.663 -2.8557 -2.81515 0
M  V30 1741 H 161.253 -3.88277 -1.8149 0
M  V30 1742 H 165.437 -4.76524 -1.38704 0
M  V30 1743 H 160.693 -6.05899 -0.81833 0
M  V30 1744 H 164.867 -6.95259 -0.398458 0
M  V30 1745 H 162.494 -7.60123 -0.108311 0
M  V30 1746 N 164.069 0.697108 -1.41344 0
M  V30 1747 C 164.999 1.82353 -1.45841 0
M  V30 1748 C 165.98 1.67115 -0.317247 0
M  V30 1749 O 167.165 1.86871 -0.528474 0
M  V30 1750 C 164.295 3.20476 -1.33838 0
M  V30 1751 C 163.249 3.50415 -2.4575 0
M  V30 1752 C 162.575 4.87878 -2.18813 0
M  V30 1753 C 163.875 3.49546 -3.88091 0
M  V30 1754 H 165.569 1.78846 -2.40113 0
M  V30 1755 H 163.115 0.859028 -1.15571 0
M  V30 1756 H 165.068 3.98988 -1.35596 0
M  V30 1757 H 163.792 3.24604 -0.360498 0
M  V30 1758 H 162.451 2.74253 -2.43271 0
M  V30 1759 H 162.099 4.8863 -1.19371 0
M  V30 1760 H 161.799 5.08875 -2.93803 0
M  V30 1761 H 163.323 5.68702 -2.22284 0
M  V30 1762 H 164.737 4.18066 -3.92293 0
M  V30 1763 H 163.134 3.82075 -4.62751 0
M  V30 1764 H 164.204 2.48552 -4.16353 0
M  V30 1765 N 165.547 1.27147 0.931209 0
M  V30 1766 C 166.494 1.09568 2.03134 0
M  V30 1767 C 167.464 -0.00222433 1.661 0
M  V30 1768 O 168.649 0.159439 1.90133 0
M  V30 1769 C 165.789 0.745231 3.36957 0
M  V30 1770 C 164.902 1.92041 3.86968 0
M  V30 1771 C 164.037 1.51216 5.09222 0
M  V30 1772 C 163.076 2.65504 5.5152 0
M  V30 1773 N 162.213 2.25291 6.64972 0
M  V30 1774 H 167.053 2.03708 2.17502 0
M  V30 1775 H 164.59 1.01411 1.06556 0
M  V30 1776 H 166.548 0.522878 4.1391 0
M  V30 1777 H 165.178 -0.159202 3.22407 0
M  V30 1778 H 164.23 2.25541 3.06326 0
M  V30 1779 H 165.542 2.77787 4.1429 0
M  V30 1780 H 164.696 1.25084 5.93666 0
M  V30 1781 H 163.435 0.625749 4.83669 0
M  V30 1782 H 162.44 2.92354 4.65628 0
M  V30 1783 H 163.665 3.54761 5.7907 0
M  V30 1784 H 161.611 1.39098 6.41083 0
M  V30 1785 H 161.528 3.04577 6.91931 0
M  V30 1786 H 162.796 2.02398 7.52765 0
M  V30 1787 N 167.025 -1.13721 1.09112 0
M  V30 1788 C 167.973 -2.21103 0.722219 0
M  V30 1789 C 168.967 -1.67147 -0.275374 0
M  V30 1790 O 170.173 -1.79477 -0.137176 0
M  V30 1791 H 166.548 -0.720445 0.215553 0
M  V30 1792 H 168.519 -2.49483 1.63709 0
M  V30 1793 C 167.268 -3.47352 0.15543 0
M  V30 1794 H 166.591 -3.89206 0.914246 0
M  V30 1795 H 168.031 -4.2395 -0.0647967 0
M  V30 1796 C 166.49 -3.1814 -1.10852 0
M  V30 1797 O 167.02 -3.36604 -2.19227 0
M  V30 1798 N 165.226 -2.72045 -1.02176 0
M  V30 1799 H 164.773 -2.57221 -0.139764 0
M  V30 1800 H 164.731 -2.52875 -1.8682 0
M  V30 1801 N 168.503 -0.877838 -1.30888 0
M  V30 1802 C 169.728 -0.506629 -2.01117 0
M  V30 1803 C 170.153 0.895564 -1.65412 0
M  V30 1804 O 169.511 1.5923 -0.866922 0
M  V30 1805 C 169.559 -0.680223 -3.54126 0
M  V30 1806 O 168.663 0.277033 -4.11468 0
M  V30 1807 H 168.004 -0.200518 -0.633 0
M  V30 1808 H 170.534 -1.18342 -1.66902 0
M  V30 1809 H 170.544 -0.5765 -4.03907 0
M  V30 1810 H 169.219 -1.70261 -3.79452 0
M  V30 1811 H 167.796 0.127606 -3.72682 0
M  V30 1812 N 169.982 1.44106 -0.638065 0
M  V30 1813 C 170.93 2.3248 0.0748149 0
M  V30 1814 C 171.924 1.47746 0.828702 0
M  V30 1815 O 173.13 1.64049 0.740816 0
M  V30 1816 H 169.505 0.750771 0.0429686 0
M  V30 1817 H 171.476 2.90348 -0.688504 0
M  V30 1818 C 170.225 3.31843 1.03805 0
M  V30 1819 H 169.548 3.97059 0.467375 0
M  V30 1820 H 170.988 3.96345 1.50622 0
M  V30 1821 C 169.447 2.61291 2.1267 0
M  V30 1822 O 169.977 2.41702 3.20847 0
M  V30 1823 N 168.183 2.20915 1.88798 0
M  V30 1824 H 167.73 2.37047 1.00829 0
M  V30 1825 H 167.688 1.74038 2.61836 0
M  V30 1826 N 171.46 0.379036 1.52974 0
M  V30 1827 C 172.39 -0.452706 2.29069 0
M  V30 1828 C 173.371 -1.07237 1.32039 0
M  V30 1829 O 174.556 -1.08708 1.60923 0
M  V30 1830 C 171.686 -1.5856 3.08992 0
M  V30 1831 C 170.64 -1.0925 4.13822 0
M  V30 1832 C 169.966 -2.31668 4.81907 0
M  V30 1833 C 171.266 -0.167702 5.22031 0
M  V30 1834 H 172.96 0.182181 2.98845 0
M  V30 1835 H 170.506 0.0890592 1.43724 0
M  V30 1836 H 172.459 -2.1742 3.6098 0
M  V30 1837 H 171.183 -2.24792 2.36931 0
M  V30 1838 H 169.842 -0.526494 3.628 0
M  V30 1839 H 169.49 -2.96386 4.06404 0
M  V30 1840 H 169.19 -1.9934 5.52754 0
M  V30 1841 H 170.714 -2.91189 5.36695 0
M  V30 1842 H 172.128 -0.664186 5.6944 0
M  V30 1843 H 170.525 0.0653265 6.00064 0
M  V30 1844 H 171.595 0.786347 4.78482 0
M  V30 1845 N 172.938 -1.57226 0.108567 0
M  V30 1846 C 173.87 -2.11809 -0.875752 0
M  V30 1847 C 174.883 -1.05839 -1.23701 0
M  V30 1848 O 176.072 -1.33245 -1.18778 0
M  V30 1849 C 173.172 -2.59411 -2.18081 0
M  V30 1850 C 172.345 -3.89364 -1.99284 0
M  V30 1851 C 171.404 -4.22672 -3.13424 0
M  V30 1852 O 170.43 -4.91668 -2.86795 0
M  V30 1853 N 171.632 -3.79154 -4.3957 0
M  V30 1854 H 174.397 -2.9689 -0.409477 0
M  V30 1855 H 171.958 -1.61721 -0.076158 0
M  V30 1856 H 173.95 -2.7873 -2.93414 0
M  V30 1857 H 172.52 -1.79268 -2.5609 0
M  V30 1858 H 171.74 -3.79059 -1.08203 0
M  V30 1859 H 173.028 -4.74358 -1.84017 0
M  V30 1860 H 172.426 -3.23486 -4.64083 0
M  V30 1861 H 170.983 -4.03602 -5.11809 0
M  V30 1862 N 174.416 0.165178 -1.56732 0
M  V30 1863 C 175.366 1.20917 -1.93295 0
M  V30 1864 C 176.35 1.39488 -0.801985 0
M  V30 1865 O 177.542 1.41356 -1.06525 0
M  V30 1866 C 174.671 2.54718 -2.3016 0
M  V30 1867 C 173.757 2.39815 -3.49785 0
M  V30 1868 N 174.148 1.94637 -4.66851 0
M  V30 1869 C 172.446 2.70623 -3.54513 0
M  V30 1870 C 173.147 1.92344 -5.4898 0
M  V30 1871 N 172.123 2.34978 -4.9019 0
M  V30 1872 H 175.925 0.851675 -2.81289 0
M  V30 1873 H 173.439 0.373399 -1.58049 0
M  V30 1874 H 175.436 3.30165 -2.54552 0
M  V30 1875 H 174.096 2.91265 -1.43508 0
M  V30 1876 H 175.107 1.6488 -4.90953 0
M  V30 1877 H 171.784 3.11167 -2.78354 0
M  V30 1878 H 173.174 1.5906 -6.52801 0
M  V30 1879 N 175.894 1.51508 0.433938 0
M  V30 1880 C 177.143 1.63578 1.18005 0
M  V30 1881 C 177.456 0.359514 1.92268 0
M  V30 1882 O 178.662 0.359632 2.69108 0
M  V30 1883 C 177.118 2.88901 2.14626 0
M  V30 1884 C 176.726 4.23544 1.45995 0
M  V30 1885 C 178.47 3.10328 2.89649 0
M  V30 1886 C 176.377 5.40014 2.4112 0
M  V30 1887 H 175.307 0.609277 0.444182 0
M  V30 1888 H 177.958 1.77978 0.446773 0
M  V30 1889 H 176.34 2.68142 2.91403 0
M  V30 1890 H 177.514 4.54696 0.747532 0
M  V30 1891 H 175.829 4.08021 0.831115 0
M  V30 1892 H 178.426 3.94518 3.60915 0
M  V30 1893 H 178.769 2.23544 3.51189 0
M  V30 1894 H 179.302 3.31443 2.19978 0
M  V30 1895 H 176.041 6.29068 1.84264 0
M  V30 1896 H 175.561 5.13233 3.10406 0
M  V30 1897 H 177.24 5.72099 3.02177 0
M  V30 1898 N 177.372 -0.689602 1.41712 0
M  V30 1899 C 178.32 -1.82475 1.44242 0
M  V30 1900 C 179.314 -1.66354 0.319774 0
M  V30 1901 O 180.52 -1.73143 0.492089 0
M  V30 1902 H 176.895 -0.601416 0.451445 0
M  V30 1903 H 178.866 -1.77458 2.39899 0
M  V30 1904 C 177.615 -3.20535 1.3473 0
M  V30 1905 H 176.938 -3.33559 2.20405 0
M  V30 1906 H 178.378 -4.00023 1.40562 0
M  V30 1907 C 176.837 -3.36846 0.0603281 0
M  V30 1908 O 177.367 -3.91656 -0.892663 0
M  V30 1909 N 175.573 -2.90595 -0.0177039 0
M  V30 1910 H 175.12 -2.46178 0.758572 0
M  V30 1911 H 175.078 -3.01886 -0.878201 0
M  V30 1912 N 178.85 -1.27639 -0.924453 0
M  V30 1913 C 180.097 -1.14167 -1.67249 0
M  V30 1914 C 180.425 0.311863 -1.91984 0
M  V30 1915 O 179.68 1.24425 -1.51053 0
M  V30 1916 C 179.979 -1.87407 -3.04325 0
M  V30 1917 C 179.645 -3.37249 -2.99289 0
M  V30 1918 C 178.307 -3.7812 -2.97622 0
M  V30 1919 C 180.659 -4.32845 -2.90336 0
M  V30 1920 C 177.987 -5.12944 -2.8479 0
M  V30 1921 C 180.339 -5.6773 -2.79045 0
M  V30 1922 C 179.003 -6.07889 -2.7573 0
M  V30 1923 H 178.273 -0.417766 -0.612007 0
M  V30 1924 H 180.92 -1.58286 -1.07786 0
M  V30 1925 H 179.225 -1.35805 -3.67511 0
M  V30 1926 H 180.922 -1.74408 -3.61086 0
M  V30 1927 H 177.512 -3.04748 -3.01374 0
M  V30 1928 H 181.696 -4.02239 -2.90719 0
M  V30 1929 H 176.952 -5.432 -2.80612 0
M  V30 1930 H 181.126 -6.41472 -2.71083 0
M  V30 1931 H 178.753 -7.12314 -2.65544 0
M  V30 1932 N 180.328 1.1314 -1.09713 0
M  V30 1933 C 181.556 1.88321 -0.856898 0
M  V30 1934 C 181.971 1.79276 0.592073 0
M  V30 1935 O 181.328 1.16142 1.40774 0
M  V30 1936 C 181.379 3.37812 -1.28706 0
M  V30 1937 O 181.1 3.46627 -2.67921 0
M  V30 1938 C 182.601 4.29952 -1.07964 0
M  V30 1939 H 179.821 0.596094 -0.308079 0
M  V30 1940 H 182.365 1.43205 -1.45988 0
M  V30 1941 H 180.52 3.805 -0.727912 0
M  V30 1942 H 180.934 4.39579 -2.8613 0
M  V30 1943 H 182.408 5.33159 -1.42986 0
M  V30 1944 H 182.885 4.39196 -0.0176577 0
M  V30 1945 H 183.491 3.93036 -1.62489 0
M  V30 1946 N 181.806 0.884767 1.30421 0
M  V30 1947 C 183.222 0.57874 1.48737 0
M  V30 1948 C 183.422 -0.883567 1.81095 0
M  V30 1949 O 182.478 -1.6648 1.89844 0
M  V30 1950 C 183.791 1.49171 2.61091 0
M  V30 1951 C 185.339 1.49532 2.74971 0
M  V30 1952 C 185.814 2.39421 3.90438 0
M  V30 1953 N 187.305 2.37383 3.97748 0
M  V30 1954 C 188.04 3.03647 4.86401 0
M  V30 1955 N 187.536 3.79136 5.79852 0
M  V30 1956 N 189.329 2.9288 4.79768 0
M  V30 1957 H 181.48 1.83075 1.0769 0
M  V30 1958 H 183.743 0.783637 0.533495 0
M  V30 1959 H 183.449 2.53291 2.44001 0
M  V30 1960 H 183.323 1.20113 3.57565 0
M  V30 1961 H 185.71 0.46163 2.91467 0
M  V30 1962 H 185.791 1.8262 1.79119 0
M  V30 1963 H 185.435 3.42874 3.74699 0
M  V30 1964 H 185.365 2.03649 4.85628 0
M  V30 1965 H 187.856 1.82525 3.30897 0
M  V30 1966 H 188.169 4.26789 6.4426 0
M  V30 1967 H 186.514 3.83243 5.79784 0
M  V30 1968 H 189.705 2.33433 4.05742 0
M  V30 1969 H 189.878 3.448 5.4865 0
M  V30 1970 N 183.284 -1.43765 0.645699 0
M  V30 1971 C 184.232 -2.32516 -0.0624849 0
M  V30 1972 C 185.226 -1.48183 -0.820855 0
M  V30 1973 O 186.432 -1.64439 -0.732106 0
M  V30 1974 H 182.807 -0.750989 -0.0389864 0
M  V30 1975 H 184.778 -2.89979 0.703892 0
M  V30 1976 C 183.527 -3.32389 -1.02044 0
M  V30 1977 H 182.85 -3.97301 -0.446312 0
M  V30 1978 H 184.29 -3.97138 -1.48517 0
M  V30 1979 C 182.749 -2.62416 -2.11281 0
M  V30 1980 O 183.279 -2.434 -3.19561 0
M  V30 1981 N 181.485 -2.21913 -1.87624 0
M  V30 1982 H 181.032 -2.37578 -0.995703 0
M  V30 1983 H 180.99 -1.75424 -2.6091 0
M  V30 1984 N 184.763 -0.387143 -1.52771 0
M  V30 1985 C 185.71 0.449048 -2.26389 0
M  V30 1986 C 186.68 1.05961 -1.27912 0
M  V30 1987 O 187.865 1.08804 -1.56737 0
M  V30 1988 C 185.005 1.57155 -3.0724 0
M  V30 1989 C 184.118 0.984066 -4.20643 0
M  V30 1990 C 183.253 2.07745 -4.88892 0
M  V30 1991 C 182.292 1.46574 -5.94292 0
M  V30 1992 N 181.429 2.49834 -6.56146 0
M  V30 1993 H 186.269 -0.185205 -2.97424 0
M  V30 1994 H 183.806 -0.103164 -1.46738 0
M  V30 1995 H 185.764 2.23309 -3.52405 0
M  V30 1996 H 184.394 2.17615 -2.38419 0
M  V30 1997 H 183.446 0.212193 -3.79808 0
M  V30 1998 H 184.758 0.497029 -4.96318 0
M  V30 1999 H 183.912 2.81673 -5.3735 0
M  V30 2000 H 182.651 2.59807 -4.12737 0
M  V30 2001 H 181.656 0.711696 -5.45174 0
M  V30 2002 H 182.881 0.953088 -6.72379 0
M  V30 2003 H 180.827 3.0107 -5.82832 0
M  V30 2004 H 180.744 2.05879 -7.27427 0
M  V30 2005 H 182.012 3.23399 -7.09249 0
M  V30 2006 N 186.241 1.57166 -0.116904 0
M  V30 2007 C 187.171 2.18222 0.830759 0
M  V30 2008 C 188.152 1.12167 1.27877 0
M  V30 2009 O 189.337 1.40394 1.34176 0
M  V30 2010 C 186.467 2.77996 2.08172 0
M  V30 2011 C 185.421 3.89614 1.77157 0
M  V30 2012 C 184.747 4.36187 3.09265 0
M  V30 2013 C 186.047 5.1181 1.04151 0
M  V30 2014 H 187.741 2.97664 0.321992 0
M  V30 2015 H 185.287 1.4318 0.153434 0
M  V30 2016 H 187.24 3.19366 2.74924 0
M  V30 2017 H 185.964 1.9584 2.6137 0
M  V30 2018 H 184.623 3.48816 1.12796 0
M  V30 2019 H 184.271 3.50893 3.60393 0
M  V30 2020 H 183.971 5.11455 2.89288 0
M  V30 2021 H 185.495 4.80207 3.77139 0
M  V30 2022 H 186.909 5.50214 1.61052 0
M  V30 2023 H 185.306 5.92648 0.942762 0
M  V30 2024 H 186.376 4.84892 0.0279022 0
M  V30 2025 N 187.719 -0.156864 1.56817 0
M  V30 2026 C 188.947 -0.886316 1.86955 0
M  V30 2027 C 189.362 -1.75185 0.703975 0
M  V30 2028 O 188.719 -1.79555 -0.326552 0
M  V30 2029 C 188.77 -1.75117 3.16253 0
M  V30 2030 O 188.491 -0.920537 4.2832 0
M  V30 2031 C 189.992 -2.58905 3.59837 0
M  V30 2032 H 187.212 -0.25678 0.619923 0
M  V30 2033 H 189.756 -0.152615 2.0393 0
M  V30 2034 H 187.911 -2.43805 3.01062 0
M  V30 2035 H 188.325 -1.51337 5.02192 0
M  V30 2036 H 189.799 -3.1518 4.53172 0
M  V30 2037 H 190.276 -3.34472 2.84649 0
M  V30 2038 H 190.882 -1.95526 3.7769 0
M  V30 2039 N 189.197 -1.51736 -0.425897 0
M  V30 2040 C 190.422 -1.69082 -1.20108 0
M  V30 2041 C 190.847 -0.392398 -1.83962 0
M  V30 2042 O 190.205 0.64858 -1.69302 0
M  V30 2043 C 190.253 -2.81604 -2.25237 0
M  V30 2044 O 189.357 -2.46004 -3.30992 0
M  V30 2045 H 188.698 -0.563408 -0.35138 0
M  V30 2046 H 191.228 -1.98358 -0.501512 0
M  V30 2047 H 191.238 -3.06025 -2.69838 0
M  V30 2048 H 189.913 -3.75817 -1.78142 0
M  V30 2049 H 188.49 -2.32195 -2.91787 0
M  V30 2050 N 190.675 0.682077 -1.42076 0
M  V30 2051 C 191.605 1.80796 -1.47767 0
M  V30 2052 C 192.586 1.6677 -0.334954 0
M  V30 2053 O 193.771 1.863 -0.548264 0
M  V30 2054 C 190.901 3.19038 -1.37229 0
M  V30 2055 C 189.855 3.47789 -2.49453 0
M  V30 2056 C 189.181 4.8553 -2.23975 0
M  V30 2057 C 190.481 3.45411 -3.91776 0
M  V30 2058 H 192.175 1.7629 -2.41997 0
M  V30 2059 H 189.721 0.846721 -1.16476 0
M  V30 2060 H 191.674 3.97528 -1.39821 0
M  V30 2061 H 190.398 3.24204 -0.394907 0
M  V30 2062 H 189.057 2.71657 -2.46166 0
M  V30 2063 H 188.705 4.87337 -1.24547 0
M  V30 2064 H 188.405 5.0573 -2.99184 0
M  V30 2065 H 189.929 5.66312 -2.28304 0
M  V30 2066 H 191.343 4.13882 -3.96705 0
M  V30 2067 H 189.74 3.77145 -4.66778 0
M  V30 2068 H 190.81 2.44122 -4.18966 0
M  V30 2069 N 192.153 1.28127 0.917671 0
M  V30 2070 C 193.378 1.18007 1.70555 0
M  V30 2071 C 193.803 -0.258257 1.86319 0
M  V30 2072 O 193.161 -1.1869 1.37049 0
M  V30 2073 C 193.209 1.87948 3.07746 0
M  V30 2074 O 192.313 1.18427 3.9503 0
M  V30 2075 H 191.654 0.409867 0.522403 0
M  V30 2076 H 194.184 1.69379 1.1477 0
M  V30 2077 H 194.194 1.95701 3.58001 0
M  V30 2078 H 192.869 2.92573 2.95591 0
M  V30 2079 H 191.446 1.18811 3.53466 0
M  V30 2080 N 193.631 -1.12557 1.10312 0
M  V30 2081 C 195.047 -1.36036 0.834649 0
M  V30 2082 C 195.247 -1.93946 -0.546539 0
M  V30 2083 O 194.303 -2.16484 -1.29966 0
M  V30 2084 C 195.616 -2.30312 1.9333 0
M  V30 2085 C 197.164 -2.43906 1.9616 0
M  V30 2086 C 197.639 -3.41496 3.05195 0
M  V30 2087 N 199.13 -3.49053 3.04494 0
M  V30 2088 C 199.865 -4.24471 3.85502 0
M  V30 2089 N 199.361 -5.02966 4.76442 0
M  V30 2090 N 201.154 -4.19864 3.73725 0
M  V30 2091 H 193.305 -0.733246 1.99342 0
M  V30 2092 H 195.568 -0.385234 0.866198 0
M  V30 2093 H 195.274 -1.94933 2.92735 0
M  V30 2094 H 195.148 -3.30421 1.81939 0
M  V30 2095 H 197.535 -2.78567 0.973886 0
M  V30 2096 H 197.616 -1.4369 2.11629 0
M  V30 2097 H 197.26 -3.07565 4.04186 0
M  V30 2098 H 197.19 -4.41539 2.86968 0
M  V30 2099 H 199.681 -2.93053 2.38596 0
M  V30 2100 H 199.994 -5.57846 5.34815 0
M  V30 2101 H 198.339 -5.02167 4.80472 0
M  V30 2102 H 201.53 -3.57623 3.02032 0
M  V30 2103 H 201.703 -4.78386 4.37093 0
M  V30 2104 N 195.109 -0.891671 -1.2995 0
M  V30 2105 C 196.056 -0.361736 -2.27948 0
M  V30 2106 C 197.026 0.551761 -1.56668 0
M  V30 2107 O 198.211 0.478736 -1.84696 0
M  V30 2108 C 195.351 0.411825 -3.42634 0
M  V30 2109 C 194.464 -0.531651 -4.28716 0
M  V30 2110 C 193.599 0.258167 -5.30572 0
M  V30 2111 C 192.638 -0.680349 -6.08307 0
M  V30 2112 N 191.775 0.0745613 -7.0206 0
M  V30 2113 H 196.615 -1.20254 -2.72659 0
M  V30 2114 H 194.152 -0.604352 -1.34112 0
M  V30 2115 H 196.11 0.876304 -4.07893 0
M  V30 2116 H 194.74 1.21715 -2.98974 0
M  V30 2117 H 193.792 -1.11463 -3.63703 0
M  V30 2118 H 195.104 -1.25038 -4.82874 0
M  V30 2119 H 194.258 0.784204 -6.0161 0
M  V30 2120 H 192.997 1.01008 -4.77126 0
M  V30 2121 H 192.002 -1.21796 -5.3614 0
M  V30 2122 H 193.227 -1.43145 -6.63842 0
M  V30 2123 H 191.173 0.808883 -6.50994 0
M  V30 2124 H 191.09 -0.584409 -7.53738 0
M  V30 2125 H 192.358 0.581123 -7.77331 0
M  V30 2126 N 196.587 1.43421 -0.653314 0
M  V30 2127 C 197.537 2.2792 0.060558 0
M  V30 2128 C 198.521 1.39906 0.794677 0
M  V30 2129 O 199.713 1.63536 0.677128 0
M  V30 2130 C 196.842 3.27603 1.0262 0
M  V30 2131 C 195.928 4.23104 0.290551 0
M  V30 2132 N 196.319 5.01031 -0.692967 0
M  V30 2133 C 194.617 4.42816 0.531984 0
M  V30 2134 C 195.318 5.70626 -1.12963 0
M  V30 2135 N 194.294 5.41617 -0.463867 0
M  V30 2136 H 198.096 2.85585 -0.694143 0
M  V30 2137 H 195.61 1.55126 -0.480602 0
M  V30 2138 H 197.607 3.86918 1.55242 0
M  V30 2139 H 196.267 2.71499 1.78096 0
M  V30 2140 H 197.278 5.0669 -1.07169 0
M  V30 2141 H 193.955 3.97782 1.26791 0
M  V30 2142 H 195.345 6.4318 -1.94343 0
M  V30 2143 N 198.065 0.39524 1.52563 0
M  V30 2144 C 199.312 -0.185044 2.01653 0
M  V30 2145 C 199.64 -1.46317 1.28146 0
M  V30 2146 O 198.895 -1.9213 0.372074 0
M  V30 2147 C 199.194 -0.493444 3.53977 0
M  V30 2148 C 198.86 0.69384 4.4553 0
M  V30 2149 C 197.522 1.01954 4.70275 0
M  V30 2150 C 199.874 1.48785 4.99512 0
M  V30 2151 C 197.202 2.14069 5.46252 0
M  V30 2152 C 199.554 2.59965 5.76716 0
M  V30 2153 C 198.218 2.93037 5.99738 0
M  V30 2154 H 197.488 -0.0677123 0.7379 0
M  V30 2155 H 200.135 0.533807 1.8391 0
M  V30 2156 H 198.44 -1.29369 3.69825 0
M  V30 2157 H 200.137 -0.955163 3.89458 0
M  V30 2158 H 196.727 0.429987 4.26438 0
M  V30 2159 H 200.911 1.24946 4.80315 0
M  V30 2160 H 196.167 2.40056 5.62302 0
M  V30 2161 H 200.341 3.21887 6.17545 0
M  V30 2162 H 197.968 3.8003 6.58393 0
M  V30 2163 N 199.544 -1.57102 0.125237 0
M  V30 2164 C 200.96 -1.57915 -0.231322 0
M  V30 2165 C 201.16 -1.13833 -1.66266 0
M  V30 2166 O 200.216 -0.828581 -2.38518 0
M  V30 2167 C 201.529 -3.00699 0.00766489 0
M  V30 2168 C 203.077 -3.12947 -0.0577483 0
M  V30 2169 C 203.552 -4.57742 0.153626 0
M  V30 2170 N 205.043 -4.63092 0.0998073 0
M  V30 2171 C 205.778 -5.72905 0.238174 0
M  V30 2172 N 205.274 -6.91445 0.433057 0
M  V30 2173 N 207.067 -5.6182 0.177308 0
M  V30 2174 H 199.218 -1.84055 1.06007 0
M  V30 2175 H 201.481 -0.850905 0.417929 0
M  V30 2176 H 201.187 -3.3726 0.997431 0
M  V30 2177 H 201.061 -3.70236 -0.721452 0
M  V30 2178 H 203.448 -2.7624 -1.03804 0
M  V30 2179 H 203.529 -2.4594 0.70335 0
M  V30 2180 H 203.173 -4.95149 1.13092 0
M  V30 2181 H 203.103 -5.22848 -0.627534 0
M  V30 2182 H 205.594 -3.77871 -0.047051 0
M  V30 2183 H 205.907 -7.70985 0.529332 0
M  V30 2184 H 204.252 -6.93415 0.469109 0
M  V30 2185 H 207.443 -4.68093 0.0259748 0
M  V30 2186 H 207.616 -6.47357 0.288582 0
M  V30 2187 N 201.022 0.148545 -1.56898 0
M  V30 2188 C 201.972 1.1886 -1.94567 0
M  V30 2189 C 202.956 1.3863 -0.816735 0
M  V30 2190 O 204.148 1.40218 -1.08018 0
M  V30 2191 C 201.277 2.52262 -2.32849 0
M  V30 2192 C 200.363 2.36092 -3.52309 0
M  V30 2193 N 200.754 1.89674 -4.6889 0
M  V30 2194 C 199.052 2.66848 -3.57363 0
M  V30 2195 C 199.753 1.86511 -5.50989 0
M  V30 2196 N 198.729 2.29766 -4.92655 0
M  V30 2197 H 202.531 0.821793 -2.82177 0
M  V30 2198 H 200.045 0.356615 -1.58436 0
M  V30 2199 H 202.042 3.27447 -2.58039 0
M  V30 2200 H 200.702 2.89727 -1.46589 0
M  V30 2201 H 201.713 1.59663 -4.92674 0
M  V30 2202 H 198.39 3.08198 -2.81639 0
M  V30 2203 H 199.78 1.52128 -6.54452 0
M  V30 2204 N 202.5 1.5196 0.417844 0
M  V30 2205 C 203.43 1.77634 1.51554 0
M  V30 2206 C 204.411 0.626918 1.58126 0
M  V30 2207 O 205.596 0.871632 1.7354 0
M  V30 2208 C 202.726 1.91911 2.8946 0
M  V30 2209 C 201.68 3.07463 2.97743 0
M  V30 2210 C 201.006 3.06951 4.37819 0
M  V30 2211 C 202.306 4.47082 2.70027 0
M  V30 2212 H 204 2.6955 1.3032 0
M  V30 2213 H 201.546 1.29706 0.625492 0
M  V30 2214 H 203.499 2.08455 3.6623 0
M  V30 2215 H 202.223 0.966598 3.11969 0
M  V30 2216 H 200.882 2.90656 2.23416 0
M  V30 2217 H 200.53 2.09438 4.57323 0
M  V30 2218 H 200.23 3.84556 4.44286 0
M  V30 2219 H 201.754 3.25613 5.16535 0
M  V30 2220 H 203.168 4.6414 3.36522 0
M  V30 2221 H 201.565 5.2654 2.87881 0
M  V30 2222 H 202.635 4.55777 1.65514 0
M  V30 2223 N 203.978 -0.674533 1.42435 0
M  V30 2224 C 205.255 -1.4305 1.33402 0
M  V30 2225 C 205.635 -2.11081 -0.0284674 0
M  V30 2226 O 204.983 -2.03257 -1.04397 0
M  V30 2227 C 205.193 -2.43272 2.50239 0
M  V30 2228 C 206.541 -3.07907 2.92367 0
M  V30 2229 O 207.565 -2.53599 2.50132 0
M  V30 2230 O 206.424 -4.0632 3.65467 0
M  V30 2231 H 203.518 -0.638076 0.526106 0
M  V30 2232 H 206.064 -0.703235 1.54443 0
M  V30 2233 H 204.836 -1.91803 3.41068 0
M  V30 2234 H 204.459 -3.23479 2.31186 0
M  V30 2235 N 205.456 -1.28612 -0.910864 0
M  V30 2236 C 206.386 -1.15326 -2.03032 0
M  V30 2237 C 207.367 -0.0502924 -1.70026 0
M  V30 2238 O 208.552 -0.227797 -1.92859 0
M  V30 2239 C 205.682 -0.817343 -3.37545 0
M  V30 2240 C 204.636 -1.8754 -3.84724 0
M  V30 2241 C 203.962 -1.39305 -5.16235 0
M  V30 2242 C 205.262 -3.28244 -4.06267 0
M  V30 2243 H 206.956 -2.08975 -2.14406 0
M  V30 2244 H 204.502 -1.00612 -1.03021 0
M  V30 2245 H 206.455 -0.711151 -4.15356 0
M  V30 2246 H 205.179 0.154846 -3.26233 0
M  V30 2247 H 203.838 -1.97079 -3.09121 0
M  V30 2248 H 203.486 -0.409846 -5.01328 0
M  V30 2249 H 203.186 -2.10057 -5.48771 0
M  V30 2250 H 204.71 -1.30014 -5.96598 0
M  V30 2251 H 206.124 -3.21611 -4.74594 0
M  V30 2252 H 204.521 -3.96855 -4.5014 0
M  V30 2253 H 205.591 -3.72048 -3.10979 0
M  V30 2254 N 206.934 1.1197 -1.10907 0
M  V30 2255 C 208.159 1.87942 -0.877064 0
M  V30 2256 C 208.584 1.79341 0.567314 0
M  V30 2257 O 207.942 1.15184 1.40009 0
M  V30 2258 C 207.99 3.34926 -1.33629 0
M  V30 2259 O 207.094 4.09303 -0.504447 0
M  V30 2260 H 206.435 0.583785 -0.316371 0
M  V30 2261 H 208.965 1.4157 -1.47712 0
M  V30 2262 H 208.975 3.8577 -1.32837 0
M  V30 2263 H 207.65 3.40504 -2.3881 0
M  V30 2264 H 206.227 3.68393 -0.577993 0
M  V30 2265 N 208.412 0.89855 1.29475 0
M  V30 2266 C 209.322 0.379974 2.31502 0
M  V30 2267 C 210.338 -0.524695 1.659 0
M  V30 2268 O 211.514 -0.414551 1.97087 0
M  V30 2269 C 208.579 -0.385138 3.44554 0
M  V30 2270 C 207.64 0.550914 4.2575 0
M  V30 2271 C 206.873 -0.177778 5.33404 0
M  V30 2272 O 207.096 -1.40189 5.52904 0
M  V30 2273 O 206.03 0.479106 5.9999 0
M  V30 2274 H 209.856 1.22639 2.77837 0
M  V30 2275 H 207.441 0.662834 1.33891 0
M  V30 2276 H 209.323 -0.817841 4.13388 0
M  V30 2277 H 207.998 -1.20763 3.0033 0
M  V30 2278 H 206.905 1.03271 3.59564 0
M  V30 2279 H 208.238 1.33979 4.73614 0
M  V30 2280 N 209.89 -1.43072 0.660911 0
M  V30 2281 C 210.82 -2.33497 -0.0122829 0
M  V30 2282 C 211.801 -1.49903 -0.803925 0
M  V30 2283 O 212.986 -1.78546 -0.763864 0
M  V30 2284 C 210.116 -3.33363 -0.973994 0
M  V30 2285 C 209.07 -4.27003 -0.291928 0
M  V30 2286 C 208.396 -5.16967 -1.36562 0
M  V30 2287 C 209.696 -5.15816 0.820462 0
M  V30 2288 H 211.39 -2.90038 0.742873 0
M  V30 2289 H 208.936 -1.39461 0.358688 0
M  V30 2290 H 210.889 -3.95524 -1.45392 0
M  V30 2291 H 209.613 -2.75095 -1.7604 0
M  V30 2292 H 208.272 -3.66217 0.167623 0
M  V30 2293 H 207.92 -4.55034 -2.14366 0
M  V30 2294 H 207.62 -5.80441 -0.914454 0
M  V30 2295 H 209.144 -5.82003 -1.84675 0
M  V30 2296 H 210.558 -5.71742 0.422366 0
M  V30 2297 H 208.955 -5.8805 1.19656 0
M  V30 2298 H 210.025 -4.55045 1.67518 0
M  V30 2299 N 211.368 -0.403325 -1.52352 0
M  V30 2300 C 212.617 0.175668 -2.00934 0
M  V30 2301 C 212.93 1.46718 -1.29356 0
M  V30 2302 O 214.136 2.12708 -1.68724 0
M  V30 2303 C 212.592 0.363612 -3.58058 0
M  V30 2304 C 212.2 -0.915472 -4.38547 0
M  V30 2305 C 213.944 0.89821 -4.14888 0
M  V30 2306 C 211.851 -0.695035 -5.87302 0
M  V30 2307 H 210.781 0.0694234 -0.750797 0
M  V30 2308 H 213.432 -0.527879 -1.75743 0
M  V30 2309 H 211.814 1.12935 -3.79555 0
M  V30 2310 H 212.988 -1.68691 -4.28812 0
M  V30 2311 H 211.303 -1.37606 -3.93006 0
M  V30 2312 H 213.9 1.07907 -5.23699 0
M  V30 2313 H 214.243 1.87126 -3.71873 0
M  V30 2314 H 214.776 0.191681 -3.97338 0
M  V30 2315 H 211.515 -1.63948 -6.34666 0
M  V30 2316 H 211.035 0.0372116 -5.99788 0
M  V30 2317 H 212.714 -0.33497 -6.46132 0
M  V30 2318 N 212.846 1.57033 -0.133567 0
M  V30 2319 C 213.776 2.1909 0.807567 0
M  V30 2320 C 214.757 1.13517 1.26681 0
M  V30 2321 O 215.942 1.41809 1.32679 0
M  V30 2322 C 213.072 2.80188 2.05212 0
M  V30 2323 C 212.026 3.91471 1.73015 0
M  V30 2324 C 211.352 4.39443 3.04622 0
M  V30 2325 C 212.652 5.12886 0.987168 0
M  V30 2326 H 214.346 2.97988 0.290403 0
M  V30 2327 H 211.892 1.43335 0.138239 0
M  V30 2328 H 213.845 3.22264 2.71521 0
M  V30 2329 H 212.569 1.98601 2.59278 0
M  V30 2330 H 211.228 3.49993 1.0909 0
M  V30 2331 H 210.876 3.54695 3.56651 0
M  V30 2332 H 210.576 5.14495 2.83847 0
M  V30 2333 H 212.1 4.8418 3.72024 0
M  V30 2334 H 213.514 5.51891 1.55208 0
M  V30 2335 H 211.911 5.93615 0.87985 0
M  V30 2336 H 212.981 4.84894 -0.0235286 0
M  V30 2337 N 214.325 -0.140222 1.56975 0
M  V30 2338 C 215.571 -0.852949 1.83991 0
M  V30 2339 C 215.904 -1.80512 0.716187 0
M  V30 2340 O 215.179 -1.92479 -0.279681 0
M  V30 2341 C 215.462 -1.6215 3.21527 0
M  V30 2342 C 215.315 -0.690363 4.4447 0
M  V30 2343 C 216.634 -2.58247 3.56366 0
M  V30 2344 H 213.753 -0.308634 0.669264 0
M  V30 2345 H 216.395 -0.117898 1.89634 0
M  V30 2346 H 214.545 -2.24812 3.16847 0
M  V30 2347 H 216.217 -0.0742264 4.6124 0
M  V30 2348 H 214.46 -0.000396433 4.338 0
M  V30 2349 H 215.131 -1.2643 5.37326 0
M  V30 2350 H 217.607 -2.05701 3.61699 0
M  V30 2351 H 216.483 -3.09067 4.53617 0
M  V30 2352 H 216.744 -3.39923 2.82674 0
M  V30 2353 N 215.803 -1.52179 -0.40978 0
M  V30 2354 C 217.051 -1.65878 -1.15451 0
M  V30 2355 C 217.372 -0.390771 -1.91044 0
M  V30 2356 O 216.642 0.594323 -1.86667 0
M  V30 2357 H 215.222 -0.611405 -0.429177 0
M  V30 2358 H 217.884 -1.89219 -0.467134 0
M  V30 2359 H 216.98 -2.49954 -1.86894 0
M  V30 2360 N 217.281 0.66697 -1.42791 0
M  V30 2361 C 218.229 1.80157 -1.47127 0
M  V30 2362 C 219.223 1.65825 -0.346199 0
M  V30 2363 O 220.429 1.72338 -0.519572 0
M  V30 2364 H 216.804 0.594158 -0.460956 0
M  V30 2365 H 218.775 1.73619 -2.42692 0
M  V30 2366 C 217.524 3.18351 -1.39813 0
M  V30 2367 H 216.847 3.3001 -2.25684 0
M  V30 2368 H 218.287 3.97736 -1.46908 0
M  V30 2369 C 216.746 3.36707 -0.11391 0
M  V30 2370 O 217.276 3.93027 0.830241 0
M  V30 2371 N 215.482 2.90586 -0.0285295 0
M  V30 2372 H 215.029 2.4494 -0.79764 0
M  V30 2373 H 214.987 3.03245 0.830063 0
M  V30 2374 N 218.759 1.29093 0.90403 0
M  V30 2375 C 220.17 1.15186 1.46932 0
M  V30 2376 C 220.521 -0.254587 1.94541 0
M  V30 2377 O 219.646 -1.14972 1.83332 0
M  V30 2378 C 220.241 2.08492 2.67051 0
M  V30 2379 C 218.8 1.98621 3.19729 0
M  V30 2380 C 217.947 1.9967 1.92425 0
M  V30 2381 H 220.898 1.41641 0.715789 0
M  V30 2382 H 220.919 1.65461 3.42641 0
M  V30 2383 H 220.431 3.10847 2.3237 0
M  V30 2384 H 218.532 0.993389 3.59114 0
M  V30 2385 H 218.645 2.86068 3.8432 0
M  V30 2386 H 217.009 1.44208 2.09943 0
M  V30 2387 H 217.792 3.03721 1.60026 0
M  V30 2388 N 220.237 -1.11381 1.11499 0
M  V30 2389 C 221.484 -1.83132 0.864231 0
M  V30 2390 C 221.812 -1.84683 -0.610114 0
M  V30 2391 O 221.067 -1.29589 -1.46646 0
M  V30 2392 C 221.366 -3.30026 1.37177 0
M  V30 2393 C 221.032 -3.48634 2.85946 0
M  V30 2394 C 219.694 -3.53421 3.26569 0
M  V30 2395 C 222.046 -3.54837 3.81759 0
M  V30 2396 C 219.374 -3.61967 4.61733 0
M  V30 2397 C 221.726 -3.64915 5.1674 0
M  V30 2398 C 220.39 -3.67962 5.5692 0
M  V30 2399 H 219.66 -0.670127 0.316245 0
M  V30 2400 H 222.307 -1.31354 1.3935 0
M  V30 2401 H 220.612 -3.84304 0.762753 0
M  V30 2402 H 222.309 -3.84034 1.15408 0
M  V30 2403 H 218.899 -3.45579 2.53521 0
M  V30 2404 H 223.083 -3.50399 3.51474 0
M  V30 2405 H 218.339 -3.62603 4.92269 0
M  V30 2406 H 222.513 -3.68658 5.90816 0
M  V30 2407 H 220.14 -3.74336 6.61647 0
M  V30 2408 N 221.715 -0.905404 -1.28997 0
M  V30 2409 C 222.943 -0.549846 -1.9946 0
M  V30 2410 C 223.358 0.866834 -1.67724 0
M  V30 2411 O 222.715 1.57298 -0.925404 0
M  V30 2412 C 222.766 -0.739387 -3.53858 0
M  V30 2413 O 222.487 -2.10031 -3.84472 0
M  V30 2414 C 223.988 -0.389541 -4.41585 0
M  V30 2415 H 221.208 -0.210429 -0.637151 0
M  V30 2416 H 223.752 -1.21632 -1.64396 0
M  V30 2417 H 221.907 -0.120023 -3.87214 0
M  V30 2418 H 222.321 -2.13385 -4.79132 0
M  V30 2419 H 223.795 -0.572972 -5.49018 0
M  V30 2420 H 224.272 0.673756 -4.34001 0
M  V30 2421 H 224.878 -0.986089 -4.1371 0
M  V30 2422 N 223.193 1.4272 -0.668489 0
M  V30 2423 C 224.433 2.03497 -0.19194 0
M  V30 2424 C 224.797 1.51684 1.17712 0
M  V30 2425 O 225.998 2.04205 1.74796 0
M  V30 2426 C 224.269 3.56734 -0.218032 0
M  V30 2427 S 225.828 4.38395 0.188438 0
M  V30 2428 H 222.646 0.706542 -0.0794959 0
M  V30 2429 H 225.248 1.74563 -0.880235 0
M  V30 2430 H 223.952 3.91943 -1.2169 0
M  V30 2431 H 223.483 3.90333 0.490303 0
M  V30 2432 H 225.498 4.75345 1.42345 0
M  V30 2433 N 224.671 0.411399 1.52136 0
M  V30 2434 C 225.896 -0.165538 2.06738 0
M  V30 2435 C 226.321 -1.379 1.27926 0
M  V30 2436 O 225.679 -1.78628 0.310114 0
M  V30 2437 C 225.727 -0.492124 3.57226 0
M  V30 2438 O 224.831 -1.58276 3.80818 0
M  V30 2439 H 224.172 -0.0132132 0.663869 0
M  V30 2440 H 226.702 0.585253 1.96051 0
M  V30 2441 H 226.712 -0.750104 4.01045 0
M  V30 2442 H 225.387 0.394922 4.14021 0
M  V30 2443 H 223.964 -1.31677 3.48877 0
M  V30 2444 N 226.149 -1.5696 0.141893 0
M  V30 2445 C 227.389 -1.9785 -0.513304 0
M  V30 2446 C 227.753 -1.02467 -1.62371 0
M  V30 2447 O 228.954 -1.32382 -2.33941 0
M  V30 2448 C 227.225 -3.42797 -1.01118 0
M  V30 2449 S 228.784 -4.05709 -1.67169 0
M  V30 2450 H 225.602 -0.691318 -0.166135 0
M  V30 2451 H 228.204 -1.94114 0.232398 0
M  V30 2452 H 226.908 -4.0995 -0.192179 0
M  V30 2453 H 226.439 -3.50235 -1.79162 0
M  V30 2454 H 228.454 -3.98342 -2.95868 0
M  V30 2455 N 227.627 0.131896 -1.57047 0
M  V30 2456 C 228.904 0.871495 -1.75112 0
M  V30 2457 C 229.284 1.9866 -0.713949 0
M  V30 2458 O 228.632 2.26965 0.264447 0
M  V30 2459 C 228.842 1.40007 -3.19686 0
M  V30 2460 C 230.19 1.85752 -3.81813 0
M  V30 2461 O 231.214 1.49715 -3.23209 0
M  V30 2462 O 230.073 2.5226 -4.84796 0
M  V30 2463 H 227.167 0.412919 -0.716538 0
M  V30 2464 H 229.713 0.116641 -1.69299 0
M  V30 2465 H 228.485 0.599404 -3.86682 0
M  V30 2466 H 228.108 2.218 -3.29986 0
M  V30 2467 N 229.106 1.52395 0.401703 0
M  V30 2468 C 230.355 1.66044 1.14509 0
M  V30 2469 C 230.668 0.400216 1.91462 0
M  V30 2470 O 231.874 0.416632 2.68284 0
M  V30 2471 C 230.33 2.93388 2.0845 0
M  V30 2472 C 229.938 4.26545 1.36978 0
M  V30 2473 C 231.682 3.16402 2.83001 0
M  V30 2474 C 229.589 5.45007 2.29611 0
M  V30 2475 H 228.519 0.618562 0.431158 0
M  V30 2476 H 231.17 1.78886 0.40892 0
M  V30 2477 H 229.552 2.74263 2.8565 0
M  V30 2478 H 230.726 4.56179 0.650916 0
M  V30 2479 H 229.041 4.09692 0.74438 0
M  V30 2480 H 231.638 4.02085 3.52465 0
M  V30 2481 H 231.981 2.30943 3.46368 0
M  V30 2482 H 232.514 3.36034 2.12898 0
M  V30 2483 H 229.253 6.32835 1.70879 0
M  V30 2484 H 228.773 5.19702 2.9945 0
M  V30 2485 H 230.452 5.7838 2.89974 0
M  V30 2486 N 230.584 -0.659388 1.43143 0
M  V30 2487 C 231.517 -1.78425 1.42267 0
M  V30 2488 C 232.495 -1.60085 0.284894 0
M  V30 2489 O 233.679 -1.82351 0.477527 0
M  V30 2490 C 230.806 -3.15642 1.22833 0
M  V30 2491 C 229.852 -3.52698 2.39806 0
M  V30 2492 S 230.685 -3.53372 4.02353 0
M  V30 2493 C 231.841 -4.93256 3.85291 0
M  V30 2494 H 232.074 -1.78897 2.37452 0
M  V30 2495 H 229.607 -0.831469 1.301 0
M  V30 2496 H 231.565 -3.94838 1.12308 0
M  V30 2497 H 230.226 -3.12739 0.29207 0
M  V30 2498 H 229.419 -4.52475 2.21996 0
M  V30 2499 H 229.021 -2.80899 2.46925 0
M  V30 2500 H 231.313 -5.81751 3.47235 0
M  V30 2501 H 232.256 -5.16115 4.84799 0
M  V30 2502 H 232.664 -4.665 3.17865 0
M  V30 2503 N 232.062 -1.29571 -0.897171 0
M  V30 2504 C 233.308 -1.18873 -1.65048 0
M  V30 2505 C 233.663 0.256707 -1.9068 0
M  V30 2506 O 232.956 1.18202 -1.50794 0
M  V30 2507 C 233.15 -1.9382 -3.00281 0
M  V30 2508 C 232.979 -3.45503 -2.8785 0
M  V30 2509 C 231.749 -4.14856 -2.88483 0
M  V30 2510 C 233.947 -4.40956 -2.64693 0
M  V30 2511 N 231.929 -5.52886 -2.66815 0
M  V30 2512 C 233.3 -5.66464 -2.5203 0
M  V30 2513 C 235.355 -4.3069 -2.49821 0
M  V30 2514 C 234.058 -6.82871 -2.26008 0
M  V30 2515 C 236.084 -5.46852 -2.25182 0
M  V30 2516 C 235.446 -6.71333 -2.13286 0
M  V30 2517 H 231.545 -0.489998 -0.609447 0
M  V30 2518 H 234.129 -1.63431 -1.05822 0
M  V30 2519 H 232.3 -1.51671 -3.57562 0
M  V30 2520 H 234.032 -1.75366 -3.64731 0
M  V30 2521 H 230.787 -3.66579 -2.99861 0
M  V30 2522 H 231.211 -6.25487 -2.59027 0
M  V30 2523 H 235.853 -3.35141 -2.5776 0
M  V30 2524 H 233.571 -7.78473 -2.16806 0
M  V30 2525 H 237.157 -5.40809 -2.14515 0
M  V30 2526 H 236.037 -7.59701 -1.94485 0
M  V30 2527 N 233.54 1.10788 -1.12088 0
M  V30 2528 C 234.789 1.82036 -0.868659 0
M  V30 2529 C 235.102 1.85929 0.607426 0
M  V30 2530 O 236.308 2.53346 0.97613 0
M  V30 2531 C 234.764 3.26951 -1.50435 0
M  V30 2532 C 234.372 3.31367 -3.01496 0
M  V30 2533 C 236.116 4.03053 -1.33225 0
M  V30 2534 C 234.023 4.7072 -3.58017 0
M  V30 2535 H 232.953 0.682108 -0.321318 0
M  V30 2536 H 235.604 1.24618 -1.34694 0
M  V30 2537 H 233.986 3.84343 -0.953735 0
M  V30 2538 H 235.16 2.83819 -3.6302 0
M  V30 2539 H 233.475 2.6875 -3.18061 0
M  V30 2540 H 236.072 5.05981 -1.72878 0
M  V30 2541 H 236.415 4.15387 -0.275529 0
M  V30 2542 H 236.948 3.52066 -1.85188 0
M  V30 2543 H 233.687 4.63585 -4.63432 0
M  V30 2544 H 233.207 5.1865 -3.01268 0
M  V30 2545 H 234.886 5.39685 -3.56859 0
M  V30 2546 N 235.018 0.912232 1.28515 0
M  V30 2547 C 235.965 0.397954 2.27343 0
M  V30 2548 C 236.935 -0.526766 1.57526 0
M  V30 2549 O 238.12 -0.449292 1.85435 0
M  V30 2550 C 235.26 -0.357263 3.43246 0
M  V30 2551 C 234.373 0.599788 4.27816 0
M  V30 2552 C 233.508 -0.173725 5.30916 0
M  V30 2553 C 232.547 0.777039 6.07148 0
M  V30 2554 N 231.684 0.0371398 7.0209 0
M  V30 2555 H 236.524 1.24577 2.70711 0
M  V30 2556 H 234.061 0.625612 1.33133 0
M  V30 2557 H 236.019 -0.8113 4.09236 0
M  V30 2558 H 234.649 -1.16943 3.00872 0
M  V30 2559 H 233.701 1.17235 3.61884 0
M  V30 2560 H 235.013 1.32704 4.80823 0
M  V30 2561 H 234.167 -0.688394 6.02782 0
M  V30 2562 H 232.906 -0.934041 4.78672 0
M  V30 2563 H 231.911 1.3031 5.34134 0
M  V30 2564 H 233.136 1.53689 6.61481 0
M  V30 2565 H 231.082 -0.705213 6.52198 0
M  V30 2566 H 230.999 0.704249 7.52713 0
M  V30 2567 H 232.267 -0.457383 7.78157 0
M  V30 2568 N 236.496 -1.42363 0.676048 0
M  V30 2569 C 237.724 -2.05859 0.207268 0
M  V30 2570 C 238.139 -1.50796 -1.13605 0
M  V30 2571 O 237.496 -0.648265 -1.70598 0
M  V30 2572 C 237.547 -3.61248 0.134975 0
M  V30 2573 O 237.268 -4.1427 1.42521 0
M  V30 2574 C 238.769 -4.41859 -0.357151 0
M  V30 2575 H 235.989 -0.663431 0.100503 0
M  V30 2576 H 238.533 -1.82479 0.923136 0
M  V30 2577 H 236.688 -3.83735 -0.531588 0
M  V30 2578 H 237.102 -5.0815 1.29939 0
M  V30 2579 H 238.576 -5.50847 -0.356641 0
M  V30 2580 H 239.053 -4.16536 -1.39264 0
M  V30 2581 H 239.659 -4.24392 0.27772 0
M  V30 2582 N 237.974 -0.419461 -1.51915 0
M  V30 2583 C 238.904 0.391813 -2.30189 0
M  V30 2584 C 239.885 1.03699 -1.34836 0
M  V30 2585 O 241.07 1.04403 -1.63748 0
M  V30 2586 C 238.2 1.50312 -3.13087 0
M  V30 2587 C 237.154 0.9824 -4.16573 0
M  V30 2588 C 236.48 2.18809 -4.8788 0
M  V30 2589 C 237.78 0.0292356 -5.22292 0
M  V30 2590 H 239.474 -0.26135 -2.98257 0
M  V30 2591 H 237.02 -0.127134 -1.43438 0
M  V30 2592 H 238.973 2.07773 -3.66617 0
M  V30 2593 H 237.697 2.18431 -2.42807 0
M  V30 2594 H 236.356 0.430119 -3.64068 0
M  V30 2595 H 236.004 2.85507 -4.14119 0
M  V30 2596 H 235.704 1.84615 -5.57845 0
M  V30 2597 H 237.228 2.76858 -5.44226 0
M  V30 2598 H 238.642 0.512976 -5.71 0
M  V30 2599 H 237.039 -0.2244 -5.9968 0
M  V30 2600 H 238.109 -0.912931 -4.76228 0
M  V30 2601 N 239.452 1.56882 -0.150215 0
M  V30 2602 C 240.384 2.14057 0.819286 0
M  V30 2603 C 241.397 1.09082 1.20851 0
M  V30 2604 O 242.586 1.36347 1.15203 0
M  V30 2605 C 239.686 2.65102 2.11127 0
M  V30 2606 C 238.859 3.94511 1.88891 0
M  V30 2607 C 237.918 4.30834 3.02107 0
M  V30 2608 O 236.944 4.99099 2.73659 0
M  V30 2609 N 238.146 3.90676 4.29363 0
M  V30 2610 H 240.911 2.97871 0.330618 0
M  V30 2611 H 238.472 1.61866 0.0332538 0
M  V30 2612 H 240.464 2.86411 2.85921 0
M  V30 2613 H 239.034 1.85994 2.51247 0
M  V30 2614 H 238.254 3.81795 0.981152 0
M  V30 2615 H 239.542 4.7907 1.71376 0
M  V30 2616 H 238.94 3.35677 4.55343 0
M  V30 2617 H 237.497 4.1703 5.00928 0
M  V30 2618 N 240.93 -0.123565 1.57115 0
M  V30 2619 C 241.84 -1.17074 2.033 0
M  V30 2620 C 242.856 -1.4561 0.952559 0
M  V30 2621 O 244.032 -1.56817 1.26374 0
M  V30 2622 C 241.097 -2.47857 2.42421 0
M  V30 2623 C 240.158 -2.26758 3.64526 0
M  V30 2624 C 239.391 -3.51305 4.01771 0
M  V30 2625 O 239.614 -4.5843 3.39409 0
M  V30 2626 O 238.548 -3.42578 4.94898 0
M  V30 2627 H 242.374 -0.808555 2.92739 0
M  V30 2628 H 239.959 -0.334027 1.45618 0
M  V30 2629 H 241.841 -3.2492 2.68338 0
M  V30 2630 H 240.516 -2.83558 1.5613 0
M  V30 2631 H 239.423 -1.47569 3.43765 0
M  V30 2632 H 240.756 -1.95963 4.51508 0
M  V30 2633 N 242.408 -1.52605 -0.393616 0
M  V30 2634 C 243.371 -1.76415 -1.46323 0
M  V30 2635 C 244.371 -0.634126 -1.47768 0
M  V30 2636 O 245.561 -0.902142 -1.4902 0
M  V30 2637 C 242.693 -1.8607 -2.85641 0
M  V30 2638 H 243.886 -2.71916 -1.26498 0
M  V30 2639 H 241.439 -1.43257 -0.625073 0
M  V30 2640 H 242.174 -0.925378 -3.10817 0
M  V30 2641 H 241.959 -2.68235 -2.85993 0
M  V30 2642 H 243.449 -2.06179 -3.63153 0
M  V30 2643 N 243.887 0.651787 -1.4349 0
M  V30 2644 C 244.834 1.76462 -1.4876 0
M  V30 2645 C 245.804 1.62641 -0.337189 0
M  V30 2646 O 246.989 1.82864 -0.544544 0
M  V30 2647 C 244.129 3.14623 -1.41796 0
M  V30 2648 C 243.242 3.39568 -2.67053 0
M  V30 2649 C 242.377 4.67585 -2.52068 0
M  V30 2650 C 241.416 4.85639 -3.72587 0
M  V30 2651 N 240.553 6.04915 -3.56402 0
M  V30 2652 H 245.393 1.71293 -2.43849 0
M  V30 2653 H 242.93 0.835889 -1.21043 0
M  V30 2654 H 244.888 3.94496 -1.35753 0
M  V30 2655 H 243.518 3.18859 -0.50288 0
M  V30 2656 H 242.57 2.53783 -2.8337 0
M  V30 2657 H 243.882 3.48795 -3.56572 0
M  V30 2658 H 243.036 5.55586 -2.4374 0
M  V30 2659 H 241.775 4.60681 -1.60075 0
M  V30 2660 H 240.78 3.96073 -3.81321 0
M  V30 2661 H 242.005 4.94372 -4.65589 0
M  V30 2662 H 239.951 5.9914 -2.67146 0
M  V30 2663 H 239.868 6.15106 -4.39524 0
M  V30 2664 H 241.136 6.95533 -3.51929 0
M  V30 2665 N 245.365 1.30045 0.890287 0
M  V30 2666 C 246.59 1.21598 1.68014 0
M  V30 2667 C 247.015 -0.218678 1.86825 0
M  V30 2668 O 246.373 -1.15756 1.39536 0
M  V30 2669 C 246.421 1.94434 3.03691 0
M  V30 2670 O 245.525 1.2678 3.92429 0
M  V30 2671 H 244.866 0.420856 0.513592 0
M  V30 2672 H 247.396 1.71775 1.11151 0
M  V30 2673 H 247.406 2.03251 3.5377 0
M  V30 2674 H 246.081 2.98777 2.89318 0
M  V30 2675 H 244.658 1.26282 3.50866 0
M  V30 2676 N 246.843 -1.10192 1.12674 0
M  V30 2677 C 248.068 -1.86523 0.906853 0
M  V30 2678 C 248.493 -1.80221 -0.538711 0
M  V30 2679 O 247.851 -1.17396 -1.38158 0
M  V30 2680 C 247.899 -3.32758 1.3894 0
M  V30 2681 O 247.003 -4.08449 0.5695 0
M  V30 2682 H 246.344 -0.578678 0.325619 0
M  V30 2683 H 248.874 -1.39203 1.49946 0
M  V30 2684 H 248.884 -3.83608 1.38958 0
M  V30 2685 H 247.559 -3.36661 2.44197 0
M  V30 2686 H 246.136 -3.67427 0.636528 0
M  V30 2687 N 248.321 -0.919034 -1.28029 0
M  V30 2688 C 249.732 -0.600735 -1.76771 0
M  V30 2689 C 250.083 0.884024 -1.75156 0
M  V30 2690 O 249.208 1.69163 -1.34956 0
M  V30 2691 C 249.803 -1.08372 -3.21 0
M  V30 2692 C 248.362 -0.816248 -3.67443 0
M  V30 2693 C 247.509 -1.24742 -2.47658 0
M  V30 2694 H 250.46 -1.09974 -1.14418 0
M  V30 2695 H 250.481 -0.427512 -3.78091 0
M  V30 2696 H 249.993 -2.16437 -3.22144 0
M  V30 2697 H 248.094 0.250968 -3.71754 0
M  V30 2698 H 248.207 -1.4277 -4.57333 0
M  V30 2699 H 246.571 -0.666083 -2.45836 0
M  V30 2700 H 247.354 -2.33653 -2.51518 0
M  V30 2701 N 249.799 1.42003 -0.683588 0
M  V30 2702 C 251.076 1.95112 -0.138075 0
M  V30 2703 C 251.456 1.62359 1.34918 0
M  V30 2704 O 250.804 0.924311 2.08971 0
M  V30 2705 C 251.014 3.46505 -0.416581 0
M  V30 2706 C 252.362 4.23254 -0.337834 0
M  V30 2707 O 253.386 3.54468 -0.35082 0
M  V30 2708 O 252.245 5.45743 -0.287596 0
M  V30 2709 H 249.339 0.826961 -0.00797996 0
M  V30 2710 H 251.885 1.51784 -0.758924 0
M  V30 2711 H 250.657 3.63582 -1.4465 0
M  V30 2712 H 250.28 3.969 0.235839 0
M  V30 2713 N 251.277 0.427512 1.51691 0
M  V30 2714 C 252.505 -0.141191 2.06418 0
M  V30 2715 C 252.92 -1.37303 1.29589 0
M  V30 2716 O 252.277 -1.79059 0.352732 0
M  V30 2717 C 252.328 -0.473266 3.58389 0
M  V30 2718 O 252.049 0.709673 4.32314 0
M  V30 2719 C 253.55 -1.09371 4.29596 0
M  V30 2720 H 250.77 -0.0122747 0.670888 0
M  V30 2721 H 253.314 0.603764 1.95384 0
M  V30 2722 H 251.469 -1.16812 3.69369 0
M  V30 2723 H 251.883 0.42807 5.2275 0
M  V30 2724 H 253.357 -1.27613 5.37046 0
M  V30 2725 H 253.834 -2.072 3.87253 0
M  V30 2726 H 254.44 -0.43853 4.23033 0
M  V30 2727 N 252.755 -1.56801 0.158532 0
M  V30 2728 C 253.687 -2.14488 -0.807923 0
M  V30 2729 C 254.7 -1.09721 -1.20271 0
M  V30 2730 O 255.889 -1.36956 -1.14478 0
M  V30 2731 C 252.989 -2.66217 -2.09718 0
M  V30 2732 C 252.162 -3.95507 -1.86796 0
M  V30 2733 C 251.221 -4.3243 -2.99818 0
M  V30 2734 O 250.247 -5.00543 -2.71008 0
M  V30 2735 N 251.449 -3.92947 -4.27285 0
M  V30 2736 H 254.214 -2.98042 -0.314816 0
M  V30 2737 H 251.775 -1.61881 -0.0246692 0
M  V30 2738 H 253.767 -2.87924 -2.84398 0
M  V30 2739 H 252.337 -1.87324 -2.50257 0
M  V30 2740 H 251.557 -3.82309 -0.96089 0
M  V30 2741 H 252.845 -4.79972 -1.68833 0
M  V30 2742 H 252.243 -3.38087 -4.53557 0
M  V30 2743 H 250.8 -4.19681 -4.9871 0
M  V30 2744 N 254.233 0.115231 -1.57178 0
M  V30 2745 C 255.51 0.852873 -1.76027 0
M  V30 2746 C 255.89 1.97892 -0.73498 0
M  V30 2747 O 255.238 2.27232 0.24036 0
M  V30 2748 C 255.448 1.36608 -3.21153 0
M  V30 2749 C 256.796 1.81692 -3.83762 0
M  V30 2750 O 257.82 1.46278 -3.24779 0
M  V30 2751 O 256.679 2.47104 -4.87444 0
M  V30 2752 H 253.773 0.405296 -0.720877 0
M  V30 2753 H 256.319 0.0986785 -1.69413 0
M  V30 2754 H 255.091 0.558357 -3.87296 0
M  V30 2755 H 254.714 2.18287 -3.3232 0
M  V30 2756 N 255.711 1.52812 0.385517 0
M  V30 2757 C 256.641 1.80808 1.47752 0
M  V30 2758 C 257.622 0.660318 1.5676 0
M  V30 2759 O 258.807 0.908246 1.71652 0
M  V30 2760 C 255.937 1.98008 2.85324 0
M  V30 2761 C 254.891 3.13709 2.91154 0
M  V30 2762 C 254.217 3.16169 4.31209 0
M  V30 2763 C 255.517 4.52709 2.60483 0
M  V30 2764 H 257.211 2.72253 1.24573 0
M  V30 2765 H 254.757 1.31003 0.597839 0
M  V30 2766 H 256.71 2.16176 3.61726 0
M  V30 2767 H 255.434 1.03255 3.09848 0
M  V30 2768 H 254.093 2.95329 2.17201 0
M  V30 2769 H 253.741 2.19092 4.52778 0
M  V30 2770 H 253.441 3.93894 4.36029 0
M  V30 2771 H 254.965 3.36496 5.09512 0
M  V30 2772 H 256.379 4.71173 3.26602 0
M  V30 2773 H 254.776 5.32528 2.76648 0
M  V30 2774 H 255.846 4.59186 1.55809 0
M  V30 2775 N 257.189 -0.644168 1.43834 0
M  V30 2776 C 258.419 -1.42939 1.49171 0
M  V30 2777 C 258.827 -1.88874 0.111048 0
M  V30 2778 O 258.17 -1.60656 -0.8908 0
M  V30 2779 C 258.232 -2.69151 2.38324 0
M  V30 2780 C 257.896 -2.45097 3.85715 0
M  V30 2781 C 258.893 -2.07747 4.76589 0
M  V30 2782 C 256.578 -2.59141 4.30292 0
M  V30 2783 C 258.572 -1.8475 6.10038 0
M  V30 2784 C 256.259 -2.35759 5.63792 0
M  V30 2785 C 257.257 -1.9862 6.53482 0
M  V30 2786 O 256.945 -1.75489 7.84512 0
M  V30 2787 H 256.677 -0.445271 0.508635 0
M  V30 2788 H 259.231 -0.79621 1.8934 0
M  V30 2789 H 257.461 -3.3506 1.93058 0
M  V30 2790 H 259.15 -3.31123 2.3476 0
M  V30 2791 H 259.916 -1.96465 4.43426 0
M  V30 2792 H 255.795 -2.87022 3.60749 0
M  V30 2793 H 259.339 -1.55686 6.80006 0
M  V30 2794 H 255.236 -2.46646 5.9652 0
M  V30 2795 H 256.004 -1.89841 7.9618 0
M  V30 2796 N 258.668 -1.30515 -0.883378 0
M  V30 2797 C 259.908 -1.20716 -1.64946 0
M  V30 2798 C 260.272 0.234072 -1.90568 0
M  V30 2799 O 261.473 0.455335 -2.64915 0
M  V30 2800 C 259.744 -2.01444 -2.9522 0
M  V30 2801 S 261.303 -2.0836 -3.86175 0
M  V30 2802 H 258.121 -0.430165 -0.566109 0
M  V30 2803 H 260.723 -1.65011 -1.04841 0
M  V30 2804 H 259.427 -3.05268 -2.74298 0
M  V30 2805 H 258.958 -1.57817 -3.60357 0
M  V30 2806 H 260.973 -1.21215 -4.81167 0
M  V30 2807 N 260.146 1.09593 -1.13257 0
M  V30 2808 C 261.076 2.18214 -0.830946 0
M  V30 2809 C 262.057 1.68812 0.208966 0
M  V30 2810 O 263.242 1.9408 0.0682666 0
M  V30 2811 C 260.372 3.46051 -0.294296 0
M  V30 2812 C 259.326 4.08778 -1.26826 0
M  V30 2813 C 258.652 5.31419 -0.591449 0
M  V30 2814 C 259.952 4.51476 -2.62615 0
M  V30 2815 H 261.646 2.43703 -1.73923 0
M  V30 2816 H 259.192 1.17128 -0.837675 0
M  V30 2817 H 261.145 4.2134 -0.0709606 0
M  V30 2818 H 259.869 3.20079 0.649366 0
M  V30 2819 H 258.528 3.35505 -1.47756 0
M  V30 2820 H 258.176 5.01727 0.357633 0
M  V30 2821 H 257.876 5.74341 -1.24123 0
M  V30 2822 H 259.4 6.09433 -0.377355 0
M  V30 2823 H 260.814 5.17999 -2.45663 0
M  V30 2824 H 259.211 5.05277 -3.23752 0
M  V30 2825 H 260.281 3.63962 -3.20406 0
M  V30 2826 N 261.624 0.925811 1.2754 0
M  V30 2827 C 262.572 0.413897 2.28888 0
M  V30 2828 C 263.566 -0.500779 1.61829 0
M  V30 2829 O 264.772 -0.38069 1.75928 0
M  V30 2830 H 261.147 0.115274 0.743112 0
M  V30 2831 H 263.118 1.28151 2.69481 0
M  V30 2832 C 261.867 -0.319792 3.46226 0
M  V30 2833 H 261.19 0.374846 3.98039 0
M  V30 2834 H 262.63 -0.642435 4.19105 0
M  V30 2835 C 261.089 -1.53209 3.00048 0
M  V30 2836 O 261.619 -2.6309 3.03557 0
M  V30 2837 N 259.825 -1.38326 2.55566 0
M  V30 2838 H 259.372 -0.489292 2.5291 0
M  V30 2839 H 259.33 -2.19564 2.25031 0
M  V30 2840 N 263.102 -1.41638 0.69111 0
M  V30 2841 C 264.012 -2.34588 0.0233487 0
M  V30 2842 C 265.028 -1.55987 -0.770984 0
M  V30 2843 O 266.204 -1.88486 -0.709569 0
M  V30 2844 C 263.269 -3.34684 -0.904851 0
M  V30 2845 C 262.33 -4.29176 -0.103225 0
M  V30 2846 C 261.563 -5.2449 -0.987216 0
M  V30 2847 O 261.786 -5.2514 -2.22674 0
M  V30 2848 O 260.72 -6.00295 -0.439281 0
M  V30 2849 H 264.546 -2.93261 0.789416 0
M  V30 2850 H 262.131 -1.42417 0.45142 0
M  V30 2851 H 264.013 -3.96133 -1.43724 0
M  V30 2852 H 262.688 -2.78461 -1.65049 0
M  V30 2853 H 261.595 -3.71089 0.473655 0
M  V30 2854 H 262.928 -4.88484 0.60365 0
M  V30 2855 N 264.58 -0.43555 -1.51462 0
M  V30 2856 C 265.805 0.132627 -2.06976 0
M  V30 2857 C 266.23 1.35848 -1.30104 0
M  V30 2858 O 265.588 1.78112 -0.338493 0
M  V30 2859 C 265.636 0.43523 -3.57964 0
M  V30 2860 O 264.74 1.52198 -3.83288 0
M  V30 2861 H 264.081 0.00265 -0.663995 0
M  V30 2862 H 266.611 -0.616369 -1.95095 0
M  V30 2863 H 266.621 0.686206 -4.02188 0
M  V30 2864 H 265.296 -0.460739 -4.1334 0
M  V30 2865 H 263.873 1.2611 -3.50928 0
M  V30 2866 N 266.058 1.56714 -0.166846 0
M  V30 2867 C 267.283 2.01557 0.488833 0
M  V30 2868 C 267.708 1.0463 1.56314 0
M  V30 2869 O 267.066 0.0251304 1.81283 0
M  V30 2870 C 267.114 3.4503 1.04818 0
M  V30 2871 O 266.218 3.51163 2.16236 0
M  V30 2872 H 265.559 0.653516 0.117526 0
M  V30 2873 H 268.089 2.02818 -0.269421 0
M  V30 2874 H 268.099 3.84243 1.37191 0
M  V30 2875 H 266.774 4.15077 0.261572 0
M  V30 2876 H 265.351 3.23807 1.84942 0
M  V30 2877 N 267.536 -0.106894 1.57237 0
M  V30 2878 C 268.483 -1.13049 2.01217 0
M  V30 2879 C 269.453 -1.40471 0.886403 0
M  V30 2880 O 270.638 -1.52133 1.15153 0
M  V30 2881 C 267.778 -2.4487 2.43172 0
M  V30 2882 C 266.891 -2.24281 3.69218 0
M  V30 2883 C 266.026 -3.49417 4.00101 0
M  V30 2884 C 265.065 -3.24038 5.19294 0
M  V30 2885 N 264.202 -4.41409 5.45988 0
M  V30 2886 H 269.042 -0.748456 2.88448 0
M  V30 2887 H 266.579 -0.358054 1.42676 0
M  V30 2888 H 268.537 -3.21786 2.65537 0
M  V30 2889 H 267.167 -2.80944 1.58967 0
M  V30 2890 H 266.219 -1.38224 3.54398 0
M  V30 2891 H 267.531 -2.01512 4.56283 0
M  V30 2892 H 266.685 -4.34746 4.2318 0
M  V30 2893 H 265.424 -3.75229 3.11535 0
M  V30 2894 H 264.429 -2.37102 4.96047 0
M  V30 2895 H 265.654 -2.99584 6.09447 0
M  V30 2896 H 263.6 -4.67319 4.60379 0
M  V30 2897 H 263.517 -4.21788 6.274 0
M  V30 2898 H 264.785 -5.27836 5.73593 0
M  V30 2899 N 269.014 -1.53014 -0.377408 0
M  V30 2900 C 269.962 -1.7927 -1.48206 0
M  V30 2901 C 270.956 -0.661195 -1.55963 0
M  V30 2902 O 272.162 -0.843908 -1.58991 0
M  V30 2903 H 268.537 -0.567425 -0.493491 0
M  V30 2904 H 270.508 -2.71753 -1.2326 0
M  V30 2905 C 269.257 -1.98894 -2.85196 0
M  V30 2906 H 268.58 -2.85395 -2.79981 0
M  V30 2907 H 270.02 -2.21249 -3.61698 0
M  V30 2908 C 268.479 -0.764691 -3.28107 0
M  V30 2909 O 269.009 0.0523226 -4.01666 0
M  V30 2910 N 267.215 -0.591493 -2.84517 0
M  V30 2911 H 266.762 -1.25749 -2.24822 0
M  V30 2912 H 266.72 0.226253 -3.13585 0
M  V30 2913 N 270.492 0.636531 -1.44174 0
M  V30 2914 C 271.741 1.39213 -1.45954 0
M  V30 2915 C 272.054 1.95374 -0.0939119 0
M  V30 2916 O 273.26 2.71498 0.0107767 0
M  V30 2917 C 271.716 2.52025 -2.56927 0
M  V30 2918 C 271.324 2.024 -3.99673 0
M  V30 2919 C 273.068 3.29269 -2.67922 0
M  V30 2920 C 270.975 3.12521 -5.0208 0
M  V30 2921 H 269.905 0.523132 -0.542999 0
M  V30 2922 H 272.556 0.685349 -1.70221 0
M  V30 2923 H 270.938 3.25253 -2.25891 0
M  V30 2924 H 272.112 1.36073 -4.40251 0
M  V30 2925 H 270.427 1.37987 -3.92872 0
M  V30 2926 H 273.024 4.11352 -3.41605 0
M  V30 2927 H 273.367 3.78397 -1.73555 0
M  V30 2928 H 273.9 2.63129 -2.98342 0
M  V30 2929 H 270.639 2.68343 -5.98057 0
M  V30 2930 H 270.159 3.77507 -4.66099 0
M  V30 2931 H 271.838 3.77385 -5.25538 0
M  V30 2932 N 271.97 1.30982 0.876444 0
M  V30 2933 C 273.381 1.18277 1.44456 0
M  V30 2934 C 273.732 -0.213265 1.95037 0
M  V30 2935 O 272.857 -1.11057 1.85729 0
M  V30 2936 C 273.452 2.1411 2.62569 0
M  V30 2937 C 272.011 2.05358 3.15444 0
M  V30 2938 C 271.158 2.03706 1.88146 0
M  V30 2939 H 274.109 1.43127 0.685584 0
M  V30 2940 H 274.13 1.72692 3.39054 0
M  V30 2941 H 273.642 3.15706 2.25724 0
M  V30 2942 H 271.743 1.06934 3.56926 0
M  V30 2943 H 271.856 2.94156 3.78166 0
M  V30 2944 H 270.22 1.48629 2.06837 0
M  V30 2945 H 271.003 3.07047 1.53547 0
M  V30 2946 N 273.449 -1.08991 1.13837 0
M  V30 2947 C 274.379 -2.17771 0.842507 0
M  V30 2948 C 275.36 -1.6892 -0.20001 0
M  V30 2949 O 276.545 -1.94113 -0.0579731 0
M  V30 2950 C 273.675 -3.4589 0.312644 0
M  V30 2951 C 272.629 -4.08099 1.28992 0
M  V30 2952 C 271.955 -5.31098 0.619623 0
M  V30 2953 C 273.255 -4.50077 2.65005 0
M  V30 2954 H 274.949 -2.42777 1.75213 0
M  V30 2955 H 272.495 -1.16682 0.843875 0
M  V30 2956 H 274.448 -4.21297 0.0933043 0
M  V30 2957 H 273.172 -3.20419 -0.632382 0
M  V30 2958 H 271.831 -3.34717 1.49533 0
M  V30 2959 H 271.479 -5.0191 -0.33102 0
M  V30 2960 H 271.179 -5.73674 1.27167 0
M  V30 2961 H 272.703 -6.09224 0.409669 0
M  V30 2962 H 274.117 -5.16688 2.48407 0
M  V30 2963 H 272.514 -5.03553 3.26427 0
M  V30 2964 H 273.584 -3.62257 3.22332 0
M  V30 2965 N 274.927 -0.932562 -1.27047 0
M  V30 2966 C 275.89 -0.440064 -2.24936 0
M  V30 2967 C 276.89 0.444071 -1.54547 0
M  V30 2968 O 278.08 0.244465 -1.72476 0
M  V30 2969 C 275.212 0.36678 -3.38921 0
M  V30 2970 H 276.405 -1.305 -2.70018 0
M  V30 2971 H 273.958 -0.713707 -1.39054 0
M  V30 2972 H 274.693 1.25033 -2.99228 0
M  V30 2973 H 274.478 -0.267204 -3.91188 0
M  V30 2974 H 275.968 0.701567 -4.11665 0
M  V30 2975 N 276.405 1.4127 -0.698611 0
M  V30 2976 C 277.353 2.32588 -0.023855 0
M  V30 2977 C 278.347 1.51128 0.765292 0
M  V30 2978 O 279.553 1.67043 0.670571 0
M  V30 2979 H 275.928 0.751918 0.0110871 0
M  V30 2980 H 277.899 2.87167 -0.811031 0
M  V30 2981 C 276.648 3.35947 0.896369 0
M  V30 2982 H 275.971 3.98684 0.298548 0
M  V30 2983 H 277.411 4.02376 1.33676 0
M  V30 2984 C 275.87 2.70076 2.01396 0
M  V30 2985 O 276.4 2.55093 3.10307 0
M  V30 2986 N 274.606 2.28724 1.79259 0
M  V30 2987 H 274.153 2.4111 0.906841 0
M  V30 2988 H 274.111 1.84986 2.54219 0
M  V30 2989 N 277.883 0.443576 1.51229 0
M  V30 2990 C 278.813 -0.355142 2.30783 0
M  V30 2991 C 279.794 -1.0154 1.36468 0
M  V30 2992 O 280.979 -1.01785 1.65389 0
M  V30 2993 C 278.109 -1.45312 3.15439 0
M  V30 2994 C 277.063 -0.916002 4.18083 0
M  V30 2995 C 276.389 -2.1102 4.91299 0
M  V30 2996 C 277.689 0.0538602 5.22272 0
M  V30 2997 H 279.383 0.308767 2.97804 0
M  V30 2998 H 276.929 0.149937 1.43217 0
M  V30 2999 H 278.882 -2.01914 3.69876 0
M  V30 3000 H 277.606 -2.14541 2.46252 0
M  V30 3001 H 276.265 -0.372145 3.64706 0
M  V30 3002 H 275.913 -2.78882 4.18609 0
M  V30 3003 H 275.613 -1.75717 5.60712 0
M  V30 3004 H 277.137 -2.68164 5.48562 0
M  V30 3005 H 278.551 -0.422069 5.71744 0
M  V30 3006 H 276.948 0.319776 5.99247 0
M  V30 3007 H 278.018 0.98858 4.74716 0
M  V30 3008 N 279.361 -1.56624 0.175154 0
M  V30 3009 C 280.293 -2.15333 -0.785128 0
M  V30 3010 C 281.306 -1.1099 -1.19101 0
M  V30 3011 O 282.495 -1.38162 -1.13019 0
M  V30 3012 C 279.595 -2.68427 -2.06882 0
M  V30 3013 C 278.768 -3.97466 -1.8259 0
M  V30 3014 C 277.827 -4.35585 -2.95215 0
M  V30 3015 O 276.853 -5.03389 -2.65684 0
M  V30 3016 N 278.055 -3.97457 -4.23094 0
M  V30 3017 H 280.82 -2.98359 -0.283187 0
M  V30 3018 H 278.381 -1.61898 -0.00749817 0
M  V30 3019 H 280.373 -2.90924 -2.81328 0
M  V30 3020 H 278.943 -1.89968 -2.48256 0
M  V30 3021 H 278.163 -3.83307 -0.920287 0
M  V30 3022 H 279.451 -4.81736 -1.63733 0
M  V30 3023 H 278.849 -3.42878 -4.49945 0
M  V30 3024 H 277.406 -4.24947 -4.9423 0
M  V30 3025 N 280.839 0.0985539 -1.57292 0
M  V30 3026 C 282.088 0.801358 -1.85098 0
M  V30 3027 C 282.401 1.80066 -0.763902 0
M  V30 3028 O 283.607 2.55112 -0.928981 0
M  V30 3029 C 282.063 1.47599 -3.28242 0
M  V30 3030 C 281.671 0.516624 -4.45011 0
M  V30 3031 C 283.415 2.16272 -3.65276 0
M  V30 3032 C 281.322 1.19564 -5.79188 0
M  V30 3033 H 280.252 0.303022 -0.69043 0
M  V30 3034 H 282.903 0.0542623 -1.8342 0
M  V30 3035 H 281.285 2.27042 -3.2445 0
M  V30 3036 H 282.459 -0.246065 -4.60143 0
M  V30 3037 H 280.774 -0.064227 -4.1635 0
M  V30 3038 H 283.371 2.67802 -4.62803 0
M  V30 3039 H 283.714 2.95009 -2.93727 0
M  V30 3040 H 284.247 1.43693 -3.70941 0
M  V30 3041 H 280.986 0.449157 -6.53959 0
M  V30 3042 H 280.506 1.92984 -5.67906 0
M  V30 3043 H 282.185 1.7231 -6.23633 0
M  V30 3044 N 282.317 1.53212 0.369288 0
M  V30 3045 C 283.728 1.60943 0.946276 0
M  V30 3046 C 284.079 0.47452 1.90375 0
M  V30 3047 O 283.204 -0.399597 2.12679 0
M  V30 3048 C 283.799 2.91715 1.72302 0
M  V30 3049 C 282.358 3.01792 2.24941 0
M  V30 3050 C 281.505 2.56211 1.06072 0
M  V30 3051 H 284.456 1.58007 0.148198 0
M  V30 3052 H 284.477 2.79309 2.58393 0
M  V30 3053 H 283.989 3.74295 1.0259 0
M  V30 3054 H 282.09 2.23791 2.97906 0
M  V30 3055 H 282.203 4.06803 2.53077 0
M  V30 3056 H 280.567 2.10998 1.4266 0
M  V30 3057 H 281.35 3.41206 0.378639 0
M  V30 3058 N 283.795 -0.628877 1.44509 0
M  V30 3059 C 284.743 -1.76193 1.51852 0
M  V30 3060 C 285.737 -1.64849 0.390042 0
M  V30 3061 O 286.943 -1.709 0.565082 0
M  V30 3062 H 283.318 -0.581728 0.476547 0
M  V30 3063 H 285.289 -1.67123 2.47209 0
M  V30 3064 C 284.038 -3.14533 1.48204 0
M  V30 3065 H 283.361 -3.23911 2.34354 0
M  V30 3066 H 284.801 -3.93701 1.57402 0
M  V30 3067 C 283.26 -3.36287 0.203142 0
M  V30 3068 O 283.79 -3.9509 -0.725745 0
M  V30 3069 N 281.996 -2.90408 0.105563 0
M  V30 3070 H 281.543 -2.42739 0.862301 0
M  V30 3071 H 281.501 -3.05339 -0.749371 0
M  V30 3072 N 285.273 -1.31445 -0.869486 0
M  V30 3073 C 286.513 -1.22458 -1.63656 0
M  V30 3074 C 286.877 0.213846 -1.90805 0
M  V30 3075 O 288.078 0.427212 -2.65383 0
M  V30 3076 C 286.349 -2.04564 -2.93067 0
M  V30 3077 S 287.908 -2.12445 -3.83944 0
M  V30 3078 H 284.726 -0.436145 -0.561514 0
M  V30 3079 H 287.328 -1.66114 -1.03085 0
M  V30 3080 H 286.032 -3.0816 -2.71045 0
M  V30 3081 H 285.563 -1.6163 -3.58663 0
M  V30 3082 H 287.578 -1.26312 -4.79854 0
M  V30 3083 N 286.751 1.08385 -1.14413 0
M  V30 3084 C 287.999 1.80419 -0.910679 0
M  V30 3085 C 288.32 1.86658 0.564243 0
M  V30 3086 O 287.59 1.35985 1.41014 0
M  V30 3087 H 286.17 0.668204 -0.333934 0
M  V30 3088 H 288.832 1.31037 -1.44275 0
M  V30 3089 H 287.928 2.83238 -1.31082 0
M  V30 3090 N 288.23 0.939286 1.26551 0
M  V30 3091 C 289.16 0.465044 2.28822 0
M  V30 3092 C 290.141 -0.480692 1.63167 0
M  V30 3093 O 291.326 -0.382955 1.90387 0
M  V30 3094 C 288.456 -0.27234 3.46231 0
M  V30 3095 C 287.41 0.58666 4.2396 0
M  V30 3096 C 286.736 -0.280573 5.33963 0
M  V30 3097 C 288.036 1.85704 4.88171 0
M  V30 3098 H 289.73 1.31979 2.68741 0
M  V30 3099 H 287.276 0.636061 1.29191 0
M  V30 3100 H 289.229 -0.615133 4.16886 0
M  V30 3101 H 287.953 -1.16121 3.0526 0
M  V30 3102 H 286.612 0.91232 3.55067 0
M  V30 3103 H 286.26 -1.16874 4.89234 0
M  V30 3104 H 285.96 0.29076 5.8688 0
M  V30 3105 H 287.484 -0.618678 6.07458 0
M  V30 3106 H 288.898 1.58161 5.51052 0
M  V30 3107 H 287.295 2.37279 5.51197 0
M  V30 3108 H 288.365 2.56957 4.11219 0
M  V30 3109 N 289.708 -1.40897 0.706093 0
M  V30 3110 C 291.119 -1.84023 0.315052 0
M  V30 3111 C 291.47 -1.5906 -1.14866 0
M  V30 3112 O 290.595 -1.06651 -1.88293 0
M  V30 3113 C 291.19 -3.34055 0.565038 0
M  V30 3114 C 289.749 -3.7571 0.227806 0
M  V30 3115 C 288.896 -2.64204 0.842122 0
M  V30 3116 H 291.847 -1.303 0.905963 0
M  V30 3117 H 291.868 -3.80107 -0.172843 0
M  V30 3118 H 291.38 -3.52192 1.63042 0
M  V30 3119 H 289.481 -3.63172 -0.832895 0
M  V30 3120 H 289.594 -4.74103 0.690174 0
M  V30 3121 H 287.958 -2.53255 0.270893 0
M  V30 3122 H 288.741 -2.85155 1.91158 0
M  V30 3123 N 291.186 -0.45159 -1.50991 0
M  V30 3124 C 292.411 0.110667 -2.07105 0
M  V30 3125 C 292.836 1.3446 -1.31538 0
M  V30 3126 O 292.194 1.77743 -0.357365 0
M  V30 3127 C 292.242 0.397238 -3.58405 0
M  V30 3128 O 291.346 1.48124 -3.84881 0
M  V30 3129 H 290.687 -0.00439271 -0.663985 0
M  V30 3130 H 293.217 -0.637026 -1.9443 0
M  V30 3131 H 293.227 0.64351 -4.02893 0
M  V30 3132 H 291.902 -0.504553 -4.12828 0
M  V30 3133 H 290.479 1.22381 -3.52246 0
M  V30 3134 N 292.664 1.56529 -0.183458 0
M  V30 3135 C 293.627 2.17324 0.728223 0
M  V30 3136 C 294.627 1.12453 1.14939 0
M  V30 3137 O 295.817 1.37902 1.06437 0
M  V30 3138 C 292.949 2.76591 1.99274 0
M  V30 3139 H 294.142 2.99241 0.198772 0
M  V30 3140 H 291.695 1.5616 0.0661391 0
M  V30 3141 H 292.43 1.98441 2.56499 0
M  V30 3142 H 292.215 3.5335 1.69959 0
M  V30 3143 H 293.705 3.23311 2.6431 0
M  V30 3144 N 294.142 -0.090211 1.57342 0
M  V30 3145 C 295.09 -1.12792 2.03422 0
M  V30 3146 C 296.084 -1.41182 0.936166 0
M  V30 3147 O 297.29 -1.40805 1.12133 0
M  V30 3148 H 293.665 -0.380986 0.648347 0
M  V30 3149 H 295.636 -0.71299 2.89757 0
M  V30 3150 C 294.385 -2.43855 2.47851 0
M  V30 3151 H 293.708 -2.22855 3.31927 0
M  V30 3152 H 295.148 -3.14955 2.83865 0
M  V30 3153 C 293.607 -3.08503 1.3538 0
M  V30 3154 O 294.137 -3.95805 0.685641 0
M  V30 3155 N 292.343 -2.68831 1.10355 0
M  V30 3156 H 291.89 -1.97929 1.64869 0
M  V30 3157 H 291.848 -3.12412 0.353031 0
M  V30 3158 N 295.62 -1.53406 -0.361157 0
M  V30 3159 C 296.55 -1.83136 -1.44857 0
M  V30 3160 C 297.531 -0.685174 -1.5569 0
M  V30 3161 O 298.716 -0.93544 -1.70186 0
M  V30 3162 C 295.846 -2.02522 -2.82138 0
M  V30 3163 C 294.8 -3.18302 -2.86126 0
M  V30 3164 C 294.126 -3.22989 -4.26125 0
M  V30 3165 C 295.426 -4.56796 -2.53248 0
M  V30 3166 H 297.12 -2.74201 -1.20226 0
M  V30 3167 H 294.666 -1.31938 -0.576922 0
M  V30 3168 H 296.619 -2.21904 -3.58241 0
M  V30 3169 H 295.343 -1.08172 -3.08166 0
M  V30 3170 H 294.002 -2.98747 -2.12475 0
M  V30 3171 H 293.65 -2.26267 -4.49235 0
M  V30 3172 H 293.35 -4.00781 -4.29708 0
M  V30 3173 H 294.874 -3.44559 -5.04094 0
M  V30 3174 H 296.288 -4.7631 -3.19064 0
M  V30 3175 H 294.685 -5.36862 -2.68141 0
M  V30 3176 H 295.755 -4.61606 -1.48484 0
M  V30 3177 N 297.098 0.621204 -1.44841 0
M  V30 3178 C 298.061 1.71459 -1.521 0
M  V30 3179 C 299.061 1.55696 -0.401933 0
M  V30 3180 O 300.251 1.61011 -0.664925 0
M  V30 3181 C 297.383 3.10624 -1.40447 0
M  V30 3182 H 298.576 1.66394 -2.49506 0
M  V30 3183 H 296.129 0.835745 -1.3208 0
M  V30 3184 H 296.864 3.21277 -0.441737 0
M  V30 3185 H 296.649 3.23473 -2.21602 0
M  V30 3186 H 298.139 3.90293 -1.4853 0
M  V30 3187 N 298.576 1.31904 0.862503 0
M  V30 3188 C 299.539 1.20131 1.95195 0
M  V30 3189 C 300.539 0.126409 1.60302 0
M  V30 3190 O 301.729 0.376234 1.70089 0
M  V30 3191 C 298.861 0.845691 3.30244 0
M  V30 3192 H 300.054 2.16943 2.07064 0
M  V30 3193 H 297.607 1.15622 1.05172 0
M  V30 3194 H 298.342 -0.120957 3.24074 0
M  V30 3195 H 298.127 1.62276 3.56944 0
M  V30 3196 H 299.617 0.787418 4.10109 0
M  V30 3197 N 300.054 -1.07777 1.14986 0
M  V30 3198 C 301.465 -1.61766 0.932127 0
M  V30 3199 C 301.816 -1.88974 -0.527581 0
M  V30 3200 O 300.941 -1.65198 -1.39781 0
M  V30 3201 C 301.536 -2.93891 1.68563 0
M  V30 3202 C 300.095 -3.44639 1.5133 0
M  V30 3203 C 299.242 -2.18767 1.704 0
M  V30 3204 H 302.193 -0.909201 1.30074 0
M  V30 3205 H 302.214 -3.62623 1.15259 0
M  V30 3206 H 301.726 -2.74057 2.74799 0
M  V30 3207 H 299.827 -3.69564 0.474702 0
M  V30 3208 H 299.94 -4.20966 2.28746 0
M  V30 3209 H 298.304 -2.28253 1.13016 0
M  V30 3210 H 299.087 -2.01433 2.77992 0
M  V30 3211 N 301.532 -0.945985 -1.26051 0
M  V30 3212 C 302.48 -0.450259 -2.282 0
M  V30 3213 C 303.474 0.47497 -1.62605 0
M  V30 3214 O 304.68 0.352653 -1.76512 0
M  V30 3215 H 301.055 -0.127081 -0.741184 0
M  V30 3216 H 303.026 -1.32422 -2.67408 0
M  V30 3217 C 301.775 0.26467 -3.46691 0
M  V30 3218 H 301.098 -0.438123 -3.97392 0
M  V30 3219 H 302.538 0.575678 -4.20074 0
M  V30 3220 C 300.997 1.48416 -3.02447 0
M  V30 3221 O 301.527 2.58227 -3.07704 0
M  V30 3222 N 299.733 1.34243 -2.57735 0
M  V30 3223 H 299.28 0.448994 -2.53657 0
M  V30 3224 H 299.238 2.15957 -2.28495 0
M  V30 3225 N 303.011 1.40521 -0.713556 0
M  V30 3226 C 303.941 2.33381 -0.0743864 0
M  V30 3227 C 304.922 1.52784 0.747735 0
M  V30 3228 O 306.107 1.81258 0.697071 0
M  V30 3229 C 303.237 3.36748 0.849598 0
M  V30 3230 C 302.191 4.27793 0.133247 0
M  V30 3231 C 301.517 5.21679 1.17281 0
M  V30 3232 C 302.817 5.12415 -1.01134 0
M  V30 3233 H 304.511 2.87081 -0.850007 0
M  V30 3234 H 302.057 1.38034 -0.410201 0
M  V30 3235 H 304.01 4.00648 1.30612 0
M  V30 3236 H 302.734 2.81439 1.65709 0
M  V30 3237 H 301.393 3.65342 -0.303426 0
M  V30 3238 H 301.041 4.62677 1.9733 0
M  V30 3239 H 300.741 5.83435 0.698397 0
M  V30 3240 H 302.265 5.88456 1.62947 0
M  V30 3241 H 303.679 5.69781 -0.634274 0
M  V30 3242 H 302.076 5.83203 -1.41399 0
M  V30 3243 H 303.146 4.48514 -1.84292 0
M  V30 3244 N 304.489 0.459591 1.5075 0
M  V30 3245 C 305.717 -0.0973749 2.06671 0
M  V30 3246 C 306.132 -1.34524 1.32472 0
M  V30 3247 O 305.489 -1.7827 0.390634 0
M  V30 3248 C 305.54 -0.39714 3.59312 0
M  V30 3249 O 305.261 0.801214 4.30711 0
M  V30 3250 C 306.762 -1.00234 4.31819 0
M  V30 3251 H 303.982 0.00195854 0.670997 0
M  V30 3252 H 306.526 0.645072 1.94059 0
M  V30 3253 H 304.681 -1.08951 3.71764 0
M  V30 3254 H 305.095 0.538857 5.21725 0
M  V30 3255 H 306.569 -1.16193 5.39632 0
M  V30 3256 H 307.046 -1.98939 3.91561 0
M  V30 3257 H 307.652 -0.348699 4.23868 0
M  V30 3258 N 305.967 -1.56429 0.191757 0
M  V30 3259 C 307.213 -1.97777 -0.448554 0
M  V30 3260 C 307.546 -1.07847 -1.61501 0
M  V30 3261 O 306.821 -0.129774 -1.94067 0
M  V30 3262 C 307.104 -3.48362 -0.911906 0
M  V30 3263 C 306.957 -4.4907 0.256136 0
M  V30 3264 C 308.276 -4.02561 -1.77857 0
M  V30 3265 H 305.395 -0.719071 -0.161572 0
M  V30 3266 H 308.037 -1.87896 0.282007 0
M  V30 3267 H 306.187 -3.56914 -1.53442 0
M  V30 3268 H 307.859 -4.5256 0.893733 0
M  V30 3269 H 306.102 -4.24181 0.908436 0
M  V30 3270 H 306.773 -5.51889 -0.11053 0
M  V30 3271 H 309.249 -3.96767 -1.25359 0
M  V30 3272 H 308.125 -5.08301 -2.07174 0
M  V30 3273 H 308.386 -3.47616 -2.73158 0
M  V30 3274 N 307.445 0.0818655 -1.57387 0
M  V30 3275 C 308.355 1.11642 -2.06333 0
M  V30 3276 C 309.371 1.43033 -0.99083 0
M  V30 3277 O 310.547 1.53411 -1.30488 0
M  V30 3278 C 307.612 2.41342 -2.48907 0
M  V30 3279 C 306.673 2.17014 -3.7041 0
M  V30 3280 C 305.906 3.4053 -4.10944 0
M  V30 3281 O 306.129 4.4927 -3.51444 0
M  V30 3282 O 305.063 3.29336 -5.03807 0
M  V30 3283 H 308.889 0.730657 -2.9478 0
M  V30 3284 H 306.474 0.295301 -1.46452 0
M  V30 3285 H 308.356 3.17691 -2.76858 0
M  V30 3286 H 307.031 2.79319 -1.63593 0
M  V30 3287 H 305.938 1.38403 -3.47556 0
M  V30 3288 H 307.271 1.83923 -4.56545 0
M  V30 3289 N 308.923 1.53595 0.353017 0
M  V30 3290 C 309.833 1.83897 1.45667 0
M  V30 3291 C 310.849 0.728334 1.58023 0
M  V30 3292 O 312.025 1.01968 1.73679 0
M  V30 3293 C 309.09 2.03383 2.80778 0
M  V30 3294 C 308.151 3.27262 2.77845 0
M  V30 3295 C 307.384 3.45809 4.06512 0
M  V30 3296 O 307.607 2.68387 5.03314 0
M  V30 3297 O 306.541 4.39207 4.11559 0
M  V30 3298 H 310.367 2.77686 1.2298 0
M  V30 3299 H 307.952 1.39132 0.544308 0
M  V30 3300 H 309.834 2.17698 3.60812 0
M  V30 3301 H 308.509 1.12783 3.03417 0
M  V30 3302 H 307.416 3.18359 1.96465 0
M  V30 3303 H 308.749 4.17824 2.60161 0
M  V30 3304 N 310.401 -0.613514 1.45168 0
M  V30 3305 C 311.649 -1.36997 1.48581 0
M  V30 3306 C 311.97 -1.94589 0.126545 0
M  V30 3307 O 311.24 -1.76816 -0.843372 0
M  V30 3308 H 309.82 -0.508558 0.547154 0
M  V30 3309 H 312.482 -0.720853 1.81079 0
M  V30 3310 H 311.578 -2.1924 2.22127 0
M  V30 3311 N 311.879 -1.3236 -0.855495 0
M  V30 3312 C 312.826 -1.21225 -1.964 0
M  V30 3313 C 313.796 -0.0946204 -1.6583 0
M  V30 3314 O 314.981 -0.27002 -1.8888 0
M  V30 3315 C 312.121 -0.940419 -3.32039 0
M  V30 3316 C 311.234 -2.14276 -3.75113 0
M  V30 3317 C 310.369 -1.80648 -4.9954 0
M  V30 3318 C 309.408 -2.97208 -5.35102 0
M  V30 3319 N 308.545 -2.63678 -6.50706 0
M  V30 3320 H 313.385 -2.16042 -2.05255 0
M  V30 3321 H 310.922 -1.07451 -1.00463 0
M  V30 3322 H 312.88 -0.763311 -4.10158 0
M  V30 3323 H 311.51 -0.0290413 -3.22787 0
M  V30 3324 H 310.562 -2.43017 -2.92655 0
M  V30 3325 H 311.874 -3.01468 -3.97389 0
M  V30 3326 H 311.028 -1.59484 -5.85363 0
M  V30 3327 H 309.767 -0.906678 -4.79198 0
M  V30 3328 H 308.772 -3.19004 -4.47791 0
M  V30 3329 H 309.997 -3.87918 -5.57401 0
M  V30 3330 H 307.943 -1.76238 -6.31883 0
M  V30 3331 H 307.86 -3.444 -6.72997 0
M  V30 3332 H 309.128 -2.45942 -7.39684 0
M  V30 3333 N 313.357 1.07166 -1.15556 0
M  V30 3334 C 314.582 1.84053 -0.955988 0
M  V30 3335 C 315.007 1.81586 0.490739 0
M  V30 3336 O 314.365 1.21018 1.34997 0
M  V30 3337 C 314.413 3.28957 -1.47714 0
M  V30 3338 O 313.517 4.06795 -0.677593 0
M  V30 3339 H 312.858 0.569842 -0.340847 0
M  V30 3340 H 315.388 1.35178 -1.53584 0
M  V30 3341 H 315.398 3.79788 -1.4908 0
M  V30 3342 H 314.073 3.30068 -2.53037 0
M  V30 3343 H 312.65 3.6561 -0.733721 0
M  V30 3344 N 314.835 0.952656 1.25548 0
M  V30 3345 C 316.084 0.602053 1.92505 0
M  V30 3346 C 316.397 -0.864663 1.75451 0
M  V30 3347 O 317.603 -1.32514 2.36965 0
M  V30 3348 C 316.059 1.02607 3.44963 0
M  V30 3349 C 315.667 2.51519 3.70732 0
M  V30 3350 C 317.411 0.747905 4.1786 0
M  V30 3351 C 315.318 2.87732 5.16686 0
M  V30 3352 H 314.248 0.22146 0.720744 0
M  V30 3353 H 316.899 1.15684 1.42441 0
M  V30 3354 H 315.281 0.399712 3.93978 0
M  V30 3355 H 316.455 3.19157 3.32378 0
M  V30 3356 H 314.77 2.76786 3.11092 0
M  V30 3357 H 317.367 0.994647 5.25367 0
M  V30 3358 H 317.71 -0.315629 4.15102 0
M  V30 3359 H 318.243 1.33452 3.74747 0
M  V30 3360 H 314.982 3.93095 5.24554 0
M  V30 3361 H 314.502 2.24765 5.56094 0
M  V30 3362 H 316.181 2.76817 5.84792 0
M  V30 3363 N 316.313 -1.40141 0.720998 0
M  V30 3364 C 317.541 -2.05096 0.272656 0
M  V30 3365 C 317.956 -1.54334 -1.0875 0
M  V30 3366 O 317.313 -0.702211 -1.6845 0
M  V30 3367 C 317.364 -3.60636 0.249835 0
M  V30 3368 O 317.085 -4.09526 1.55629 0
M  V30 3369 C 318.586 -4.42772 -0.216396 0
M  V30 3370 H 315.806 -0.659897 0.121558 0
M  V30 3371 H 318.35 -1.79449 0.980723 0
M  V30 3372 H 316.505 -3.85232 -0.409237 0
M  V30 3373 H 316.919 -5.03758 1.4604 0
M  V30 3374 H 318.393 -5.51702 -0.181212 0
M  V30 3375 H 318.87 -4.20756 -1.25941 0
M  V30 3376 H 319.476 -4.23294 0.412596 0
M  V30 3377 N 317.792 -0.46758 -1.50504 0
M  V30 3378 C 318.722 0.318381 -2.31319 0
M  V30 3379 C 319.703 0.993564 -1.38066 0
M  V30 3380 O 320.888 0.991411 -1.66987 0
M  V30 3381 C 318.018 1.40275 -3.17711 0
M  V30 3382 C 316.972 0.849373 -4.19487 0
M  V30 3383 C 316.298 2.03177 -4.94594 0
M  V30 3384 C 317.598 -0.136942 -5.2212 0
M  V30 3385 H 319.292 -0.356106 -2.97275 0
M  V30 3386 H 316.838 -0.172703 -1.42961 0
M  V30 3387 H 318.791 1.96004 -3.73042 0
M  V30 3388 H 317.515 2.10596 -2.49634 0
M  V30 3389 H 316.174 0.314076 -3.65252 0
M  V30 3390 H 315.822 2.72187 -4.22993 0
M  V30 3391 H 315.522 1.66774 -5.63436 0
M  V30 3392 H 317.046 2.59403 -5.52759 0
M  V30 3393 H 318.46 0.331056 -5.72343 0
M  V30 3394 H 316.857 -0.41507 -5.98663 0
M  V30 3395 H 317.927 -1.06398 -4.73083 0
M  V30 3396 N 319.27 1.56325 -0.20005 0
M  V30 3397 C 320.495 2.02548 0.44597 0
M  V30 3398 C 320.92 1.07922 1.5406 0
M  V30 3399 O 320.278 0.0635775 1.81188 0
M  V30 3400 C 320.326 3.47175 0.974761 0
M  V30 3401 O 319.43 3.55671 2.08739 0
M  V30 3402 H 318.771 0.655862 0.103638 0
M  V30 3403 H 321.301 2.02201 -0.312381 0
M  V30 3404 H 321.311 3.87067 1.2901 0
M  V30 3405 H 319.986 4.15538 0.17347 0
M  V30 3406 H 318.563 3.27657 1.78032 0
M  V30 3407 N 320.748 -0.0735177 1.57428 0
M  V30 3408 C 321.988 -0.778363 1.89 0
M  V30 3409 C 322.352 -1.7483 0.793634 0
M  V30 3410 O 323.553 -2.49811 0.992367 0
M  V30 3411 C 321.824 -1.46929 3.25802 0
M  V30 3412 S 323.383 -2.20943 3.79117 0
M  V30 3413 H 320.201 -0.258874 0.662197 0
M  V30 3414 H 322.803 -0.0345338 1.95469 0
M  V30 3415 H 321.507 -0.749532 4.03497 0
M  V30 3416 H 321.038 -2.25258 3.22525 0
M  V30 3417 H 323.053 -3.47435 3.54265 0
M  V30 3418 N 322.226 -1.5378 -0.344866 0
M  V30 3419 C 323.451 -1.75211 -1.10977 0
M  V30 3420 C 323.876 -0.48936 -1.81623 0
M  V30 3421 O 323.234 0.557925 -1.72502 0
M  V30 3422 C 323.282 -2.93147 -2.09993 0
M  V30 3423 O 322.386 -2.63203 -3.17487 0
M  V30 3424 H 321.727 -0.581241 -0.321021 0
M  V30 3425 H 324.257 -2.00738 -0.395661 0
M  V30 3426 H 324.267 -3.19898 -2.53237 0
M  V30 3427 H 322.942 -3.84731 -1.5797 0
M  V30 3428 H 321.519 -2.47336 -2.79069 0
M  V30 3429 N 323.704 0.605807 -1.45491 0
M  V30 3430 C 324.95 1.36679 -1.49823 0
M  V30 3431 C 325.283 1.93693 -0.140175 0
M  V30 3432 O 324.558 1.75158 0.845581 0
M  V30 3433 C 324.841 2.51337 -2.57879 0
M  V30 3434 C 324.694 1.99508 -4.03134 0
M  V30 3435 C 326.013 3.53463 -2.62205 0
M  V30 3436 H 323.132 0.495617 -0.545466 0
M  V30 3437 H 325.774 0.682732 -1.7731 0
M  V30 3438 H 323.924 3.09691 -2.34571 0
M  V30 3439 H 325.596 1.45789 -4.37656 0
M  V30 3440 H 323.839 1.30496 -4.13707 0
M  V30 3441 H 324.51 2.82169 -4.74431 0
M  V30 3442 H 326.986 3.04953 -2.83095 0
M  V30 3443 H 325.862 4.31178 -3.39672 0
M  V30 3444 H 326.123 4.09197 -1.67363 0
M  V30 3445 N 325.182 1.32811 0.848464 0
M  V30 3446 C 326.145 1.22194 1.9391 0
M  V30 3447 C 327.145 0.143404 1.60159 0
M  V30 3448 O 328.335 0.394253 1.6968 0
M  V30 3449 C 325.467 0.88067 3.29328 0
M  V30 3450 H 326.66 2.19127 2.04752 0
M  V30 3451 H 324.213 1.16731 1.0394 0
M  V30 3452 H 324.948 -0.0865776 3.24184 0
M  V30 3453 H 324.733 1.66052 3.55203 0
M  V30 3454 H 326.223 0.830871 4.09251 0
M  V30 3455 N 326.66 -1.06551 1.16123 0
M  V30 3456 C 327.908 -1.78947 0.939267 0
M  V30 3457 C 328.229 -1.87532 -0.534476 0
M  V30 3458 O 327.499 -1.38211 -1.38833 0
M  V30 3459 H 326.079 -0.662807 0.344523 0
M  V30 3460 H 328.741 -1.28725 1.46342 0
M  V30 3461 H 327.837 -2.81117 1.35572 0
M  V30 3462 N 328.138 -0.959301 -1.25041 0
M  V30 3463 C 329.415 -0.533805 -1.88175 0
M  V30 3464 C 329.795 0.988994 -1.865 0
M  V30 3465 O 329.143 1.85677 -1.33177 0
M  V30 3466 C 329.353 -1.11575 -3.30684 0
M  V30 3467 C 330.701 -1.19548 -4.07423 0
M  V30 3468 O 331.725 -1.06765 -3.39823 0
M  V30 3469 O 330.584 -1.39656 -5.28354 0
M  V30 3470 H 327.678 -0.176772 -0.807887 0
M  V30 3471 H 330.224 -1.05303 -1.33076 0
M  V30 3472 H 328.996 -2.15884 -3.26358 0
M  V30 3473 H 328.619 -0.580059 -3.93346 0
M  V30 3474 N 329.616 1.39756 -0.72842 0
M  V30 3475 C 331.027 1.83498 -0.344289 0
M  V30 3476 C 331.378 1.60868 1.12321 0
M  V30 3477 O 330.503 1.09634 1.86573 0
M  V30 3478 C 331.098 3.33114 -0.618112 0
M  V30 3479 C 329.657 3.753 -0.287549 0
M  V30 3480 C 328.804 2.62831 -0.884048 0
M  V30 3481 H 331.755 1.28842 -0.926578 0
M  V30 3482 H 331.776 3.80334 0.112349 0
M  V30 3483 H 331.288 3.49553 -1.68625 0
M  V30 3484 H 329.389 3.64451 0.775012 0
M  V30 3485 H 329.502 4.72945 -0.765512 0
M  V30 3486 H 327.866 2.52792 -0.311149 0
M  V30 3487 H 328.649 2.82078 -1.95671 0
M  V30 3488 N 331.094 0.475555 1.50254 0
M  V30 3489 C 332.34 -0.0780073 2.0265 0
M  V30 3490 C 332.673 -1.38968 1.35652 0
M  V30 3491 O 331.948 -1.8839 0.483691 0
M  V30 3492 C 332.231 -0.257161 3.59181 0
M  V30 3493 C 332.084 1.07585 4.36744 0
M  V30 3494 C 333.403 -1.00965 4.28362 0
M  V30 3495 H 330.522 -0.0268758 0.73651 0
M  V30 3496 H 333.164 0.622015 1.7953 0
M  V30 3497 H 331.314 -0.853412 3.79011 0
M  V30 3498 H 332.986 1.70902 4.28474 0
M  V30 3499 H 331.229 1.6714 4.00308 0
M  V30 3500 H 331.9 0.904088 5.44546 0
M  V30 3501 H 334.376 -0.504214 4.13034 0
M  V30 3502 H 333.252 -1.10381 5.37687 0
M  V30 3503 H 333.513 -2.04731 3.91839 0
M  V30 3504 N 332.573 -1.56217 0.208337 0
M  V30 3505 C 333.984 -1.84243 -0.301904 0
M  V30 3506 C 334.335 -1.12939 -1.60434 0
M  V30 3507 O 333.46 -0.39461 -2.12772 0
M  V30 3508 C 334.055 -3.34231 -0.554543 0
M  V30 3509 C 332.614 -3.62621 -1.00912 0
M  V30 3510 C 331.761 -2.77224 -0.064933 0
M  V30 3511 H 334.712 -1.52712 0.431833 0
M  V30 3512 H 334.733 -3.5372 -1.40223 0
M  V30 3513 H 334.245 -3.86099 0.393561 0
M  V30 3514 H 332.346 -3.16197 -1.97104 0
M  V30 3515 H 332.459 -4.7071 -0.892674 0
M  V30 3516 H 330.823 -2.48256 -0.56929 0
M  V30 3517 H 331.606 -3.31887 0.877851 0
M  V30 3518 N 334.051 0.0651679 -1.57465 0
M  V30 3519 C 334.999 1.09542 -2.05191 0
M  V30 3520 C 335.993 1.39675 -0.958509 0
M  V30 3521 O 337.199 1.39003 -1.14359 0
M  V30 3522 H 333.574 0.370623 -0.654326 0
M  V30 3523 H 335.545 0.666802 -2.90854 0
M  V30 3524 C 334.294 2.39881 -2.51699 0
M  V30 3525 H 333.617 2.17547 -3.3543 0
M  V30 3526 H 335.057 3.104 -2.88839 0
M  V30 3527 C 333.516 3.0631 -1.40271 0
M  V30 3528 O 334.046 3.94664 -0.748523 0
M  V30 3529 N 332.252 2.67041 -1.14618 0
M  V30 3530 H 331.799 1.95281 -1.67997 0
M  V30 3531 H 331.757 3.1181 -0.402688 0
M  V30 3532 N 335.529 1.53961 0.336706 0
M  V30 3533 C 336.462 1.77255 1.43722 0
M  V30 3534 C 337.44 0.62193 1.50236 0
M  V30 3535 O 338.624 0.857874 1.67847 0
M  V30 3536 C 335.751 1.87733 2.81912 0
M  V30 3537 C 334.797 3.09933 2.92991 0
M  V30 3538 S 335.63 4.68836 2.58753 0
M  V30 3539 C 336.786 4.82202 3.99039 0
M  V30 3540 H 337.019 2.70322 1.23748 0
M  V30 3541 H 334.552 1.44917 0.532777 0
M  V30 3542 H 336.51 1.94455 3.61521 0
M  V30 3543 H 335.171 0.956666 2.99177 0
M  V30 3544 H 334.364 3.1396 3.94265 0
M  V30 3545 H 333.966 3.01472 2.21338 0
M  V30 3546 H 336.258 4.64032 4.9364 0
M  V30 3547 H 337.201 5.84298 4.00002 0
M  V30 3548 H 337.609 4.10604 3.87382 0
M  V30 3549 N 337.007 -0.598083 1.45811 0
M  V30 3550 C 338.237 -1.38121 1.53643 0
M  V30 3551 C 338.645 -1.88425 0.171081 0
M  V30 3552 O 337.988 -1.63409 -0.839237 0
M  V30 3553 C 338.05 -2.61432 2.46766 0
M  V30 3554 C 337.714 -2.32702 3.93318 0
M  V30 3555 C 338.711 -1.92479 4.82957 0
M  V30 3556 C 336.396 -2.45321 4.38318 0
M  V30 3557 C 338.39 -1.65248 6.15607 0
M  V30 3558 C 336.077 -2.17703 5.71007 0
M  V30 3559 C 337.075 -1.7773 6.5947 0
M  V30 3560 O 336.763 -1.50441 7.89698 0
M  V30 3561 H 336.495 -0.428863 0.522544 0
M  V30 3562 H 339.049 -0.73557 1.91777 0
M  V30 3563 H 337.279 -3.28749 2.0362 0
M  V30 3564 H 338.968 -3.23487 2.45175 0
M  V30 3565 H 339.734 -1.82258 4.49452 0
M  V30 3566 H 335.613 -2.75399 3.69697 0
M  V30 3567 H 339.157 -1.33973 6.84614 0
M  V30 3568 H 335.054 -2.27544 6.04065 0
M  V30 3569 H 335.822 -1.64415 8.01817 0
M  V30 3570 N 338.485 -1.33259 -0.841409 0
M  V30 3571 C 339.731 -1.25766 -1.59857 0
M  V30 3572 C 340.086 0.175602 -1.91597 0
M  V30 3573 O 339.379 1.117 -1.55672 0
M  V30 3574 C 339.573 -2.06381 -2.9179 0
M  V30 3575 C 339.402 -3.57401 -2.72937 0
M  V30 3576 C 338.172 -4.26718 -2.70628 0
M  V30 3577 C 340.37 -4.51786 -2.45753 0
M  V30 3578 N 338.352 -5.63705 -2.43125 0
M  V30 3579 C 339.723 -5.76643 -2.27777 0
M  V30 3580 C 341.778 -4.40898 -2.31329 0
M  V30 3581 C 340.481 -6.91842 -1.96841 0
M  V30 3582 C 342.507 -5.55911 -2.01786 0
M  V30 3583 C 341.869 -6.79776 -1.8462 0
M  V30 3584 H 337.968 -0.515406 -0.588117 0
M  V30 3585 H 340.552 -1.67772 -0.987955 0
M  V30 3586 H 338.723 -1.667 -3.50807 0
M  V30 3587 H 340.455 -1.90678 -3.56965 0
M  V30 3588 H 337.21 -3.78968 -2.84043 0
M  V30 3589 H 337.634 -6.35911 -2.32265 0
M  V30 3590 H 342.276 -3.45772 -2.43314 0
M  V30 3591 H 339.994 -7.86968 -1.83594 0
M  V30 3592 H 343.58 -5.49421 -1.91384 0
M  V30 3593 H 342.46 -7.67266 -1.62088 0
M  V30 3594 N 339.963 1.05934 -1.16686 0
M  V30 3595 C 341.24 1.75643 -0.860747 0
M  V30 3596 C 341.62 2.01144 0.640641 0
M  V30 3597 O 340.968 1.64147 1.58959 0
M  V30 3598 C 341.178 3.05493 -1.68745 0
M  V30 3599 C 342.526 3.79581 -1.90271 0
M  V30 3600 O 343.55 3.15344 -1.65641 0
M  V30 3601 O 342.409 4.9499 -2.31618 0
M  V30 3602 H 339.503 0.763426 -0.317977 0
M  V30 3603 H 342.049 1.1217 -1.27342 0
M  V30 3604 H 340.821 2.8264 -2.70611 0
M  V30 3605 H 340.444 3.76702 -1.27206 0
M  V30 3606 N 341.441 0.965919 1.2453 0
M  V30 3607 C 342.687 0.62776 1.92839 0
M  V30 3608 C 343.02 -0.834694 1.75347 0
M  V30 3609 O 342.295 -1.60031 1.10546 0
M  V30 3610 C 342.578 1.00109 3.45905 0
M  V30 3611 C 342.431 2.52011 3.72573 0
M  V30 3612 C 343.75 0.53435 4.36844 0
M  V30 3613 H 340.869 0.229537 0.700344 0
M  V30 3614 H 343.511 1.2046 1.46933 0
M  V30 3615 H 341.661 0.510238 3.85135 0
M  V30 3616 H 343.333 3.08559 3.42912 0
M  V30 3617 H 341.576 2.95287 3.17786 0
M  V30 3618 H 342.247 2.73183 4.79661 0
M  V30 3619 H 344.723 0.955565 4.04979 0
M  V30 3620 H 343.599 0.824152 5.42678 0
M  V30 3621 H 343.86 -0.565589 4.38467 0
M  V30 3622 N 342.919 -1.39368 0.735821 0
M  V30 3623 C 344.167 -2.00101 0.283562 0
M  V30 3624 C 344.488 -1.5868 -1.13338 0
M  V30 3625 O 343.758 -0.835423 -1.77193 0
M  V30 3626 H 342.338 -0.740024 0.101851 0
M  V30 3627 H 345 -1.70404 0.945962 0
M  V30 3628 H 344.096 -3.10323 0.332604 0
M  V30 3629 N 344.397 -0.483516 -1.5 0
M  V30 3630 C 345.345 0.318061 -2.30415 0
M  V30 3631 C 346.339 0.978988 -1.38247 0
M  V30 3632 O 347.545 0.908673 -1.55381 0
M  V30 3633 H 343.92 0.121419 -0.742133 0
M  V30 3634 H 345.891 -0.380403 -2.95965 0
M  V30 3635 C 344.64 1.38013 -3.19136 0
M  V30 3636 H 343.963 0.880952 -3.89973 0
M  V30 3637 H 345.403 1.91332 -3.78375 0
M  V30 3638 C 343.862 2.38884 -2.37563 0
M  V30 3639 O 344.392 3.44412 -2.06744 0
M  V30 3640 N 342.598 2.10912 -1.99911 0
M  V30 3641 H 342.145 1.25118 -2.25174 0
M  V30 3642 H 342.103 2.78635 -1.45636 0
M  V30 3643 N 345.875 1.56104 -0.216619 0
M  V30 3644 C 346.805 2.23063 0.690296 0
M  V30 3645 C 347.786 1.20072 1.20485 0
M  V30 3646 O 348.971 1.48643 1.24976 0
M  V30 3647 C 346.101 2.90672 1.90072 0
M  V30 3648 C 345.055 4.00092 1.5202 0
M  V30 3649 C 344.381 4.54972 2.80899 0
M  V30 3650 C 345.681 5.17398 0.71391 0
M  V30 3651 H 347.375 2.99109 0.132038 0
M  V30 3652 H 344.921 1.43866 0.0620664 0
M  V30 3653 H 346.874 3.36204 2.54057 0
M  V30 3654 H 345.598 2.12066 2.48386 0
M  V30 3655 H 344.257 3.55283 0.903839 0
M  V30 3656 H 343.905 3.73102 3.37348 0
M  V30 3657 H 343.605 5.28817 2.56176 0
M  V30 3658 H 345.129 5.0322 3.45836 0
M  V30 3659 H 346.543 5.59342 1.25735 0
M  V30 3660 H 344.94 5.97444 0.563951 0
M  V30 3661 H 346.01 4.84088 -0.280527 0
M  V30 3662 N 347.353 -0.0568162 1.57498 0
M  V30 3663 C 348.599 -0.75422 1.88253 0
M  V30 3664 C 348.932 -1.76461 0.810865 0
M  V30 3665 O 348.207 -1.93691 -0.177259 0
M  V30 3666 C 348.49 -1.44878 3.2967 0
M  V30 3667 C 348.343 -0.453789 4.47505 0
M  V30 3668 C 349.662 -2.38994 3.69554 0
M  V30 3669 H 346.781 -0.272724 0.684683 0
M  V30 3670 H 349.423 -0.0172113 1.89992 0
M  V30 3671 H 347.573 -2.077 3.28318 0
M  V30 3672 H 349.245 0.170371 4.60985 0
M  V30 3673 H 347.488 0.229552 4.33192 0
M  V30 3674 H 348.159 -0.977699 5.43273 0
M  V30 3675 H 350.635 -1.86239 3.72095 0
M  V30 3676 H 349.511 -2.84587 4.69363 0
M  V30 3677 H 349.772 -3.24461 3.00296 0
M  V30 3678 N 348.832 -1.54138 -0.328536 0
M  V30 3679 C 350.057 -1.76378 -1.09112 0
M  V30 3680 C 350.482 -0.508596 -1.81094 0
M  V30 3681 O 349.84 0.539598 -1.73084 0
M  V30 3682 C 349.888 -2.95358 -2.06872 0
M  V30 3683 O 348.992 -2.66556 -3.14677 0
M  V30 3684 H 348.333 -0.584614 -0.314838 0
M  V30 3685 H 350.863 -2.01146 -0.374348 0
M  V30 3686 H 350.873 -3.22566 -2.4983 0
M  V30 3687 H 349.548 -3.86385 -1.5388 0
M  V30 3688 H 348.125 -2.50282 -2.7643 0
M  V30 3689 N 350.31 0.590341 -1.46126 0
M  V30 3690 C 351.257 1.69994 -1.56111 0
M  V30 3691 C 352.227 1.61065 -0.405867 0
M  V30 3692 O 353.412 1.8039 -0.621613 0
M  V30 3693 C 350.552 3.08326 -1.55013 0
M  V30 3694 C 349.665 3.27936 -2.81215 0
M  V30 3695 C 348.8 4.56473 -2.71673 0
M  V30 3696 C 347.839 4.694 -3.92849 0
M  V30 3697 N 346.976 5.89254 -3.81738 0
M  V30 3698 H 351.816 1.60797 -2.50895 0
M  V30 3699 H 349.353 0.783799 -1.24479 0
M  V30 3700 H 351.311 3.88383 -1.52362 0
M  V30 3701 H 349.941 3.16439 -0.637667 0
M  V30 3702 H 348.993 2.41536 -2.93879 0
M  V30 3703 H 350.305 3.33357 -3.71045 0
M  V30 3704 H 349.459 5.44748 -2.67085 0
M  V30 3705 H 348.198 4.53477 -1.7947 0
M  V30 3706 H 347.203 3.79544 -3.97777 0
M  V30 3707 H 348.428 4.7418 -4.86138 0
M  V30 3708 H 346.374 5.87271 -2.92317 0
M  V30 3709 H 346.291 5.95911 -4.65217 0
M  V30 3710 H 347.559 6.79981 -3.81112 0
M  V30 3711 N 351.788 1.33704 0.83433 0
M  V30 3712 C 352.738 1.20899 1.93306 0
M  V30 3713 C 353.722 0.110783 1.60518 0
M  V30 3714 O 354.914 0.339331 1.73717 0
M  V30 3715 C 352.043 0.955018 3.29749 0
M  V30 3716 C 351.129 2.09587 3.68692 0
M  V30 3717 N 351.52 3.34621 3.79292 0
M  V30 3718 C 349.818 2.00358 3.98463 0
M  V30 3719 C 350.519 4.09472 4.13167 0
M  V30 3720 N 349.495 3.37954 4.25779 0
M  V30 3721 H 353.297 2.15665 1.99664 0
M  V30 3722 H 350.811 1.25777 1.02732 0
M  V30 3723 H 352.808 0.844208 4.08263 0
M  V30 3724 H 351.468 0.0159317 3.24696 0
M  V30 3725 H 352.479 3.69313 3.63082 0
M  V30 3726 H 349.156 1.14137 4.01596 0
M  V30 3727 H 350.546 5.17391 4.28668 0
M  V30 3728 N 353.266 -1.05314 1.17247 0
M  V30 3729 C 354.199 -2.12512 0.831507 0
M  V30 3730 C 355.177 -1.61351 -0.201168 0
M  V30 3731 O 356.361 -1.88317 -0.0829831 0
M  V30 3732 C 353.488 -3.37848 0.24015 0
M  V30 3733 C 352.534 -4.07832 1.24801 0
M  V30 3734 S 353.367 -4.56537 2.79882 0
M  V30 3735 C 354.523 -5.85122 2.22223 0
M  V30 3736 H 354.756 -2.41106 1.7394 0
M  V30 3737 H 352.289 -1.17896 0.996988 0
M  V30 3738 H 354.247 -4.10391 -0.0945588 0
M  V30 3739 H 352.908 -3.07392 -0.645668 0
M  V30 3740 H 352.101 -4.97883 0.78287 0
M  V30 3741 H 351.703 -3.41348 1.52831 0
M  V30 3742 H 353.995 -6.58408 1.59703 0
M  V30 3743 H 354.938 -6.36381 3.10523 0
M  V30 3744 H 355.346 -5.39626 1.65722 0
M  V30 3745 N 354.744 -0.972509 -1.24016 0
M  V30 3746 C 355.692 -0.498562 -2.27194 0
M  V30 3747 C 356.686 0.440372 -1.63576 0
M  V30 3748 O 357.892 0.315133 -1.7722 0
M  V30 3749 H 354.267 -0.142775 -0.738322 0
M  V30 3750 H 356.238 -1.38065 -2.64539 0
M  V30 3751 C 354.987 0.191072 -3.47175 0
M  V30 3752 H 354.31 -0.522318 -3.96373 0
M  V30 3753 H 355.75 0.486445 -4.212 0
M  V30 3754 C 354.209 1.41967 -3.05527 0
M  V30 3755 O 354.739 2.51642 -3.13112 0
M  V30 3756 N 352.945 1.28746 -2.60524 0
M  V30 3757 H 352.492 0.395089 -2.54552 0
M  V30 3758 H 352.45 2.11061 -2.33025 0
M  V30 3759 N 356.222 1.38976 -0.743202 0
M  V30 3760 C 357.132 2.3434 -0.110399 0
M  V30 3761 C 358.148 1.58741 0.712559 0
M  V30 3762 O 359.324 1.9099 0.639125 0
M  V30 3763 C 356.389 3.37812 0.780012 0
M  V30 3764 C 355.45 4.29263 -0.0561319 0
M  V30 3765 C 354.683 5.27793 0.791875 0
M  V30 3766 O 354.906 5.33043 2.03031 0
M  V30 3767 O 353.84 6.01512 0.216183 0
M  V30 3768 H 357.666 2.90129 -0.897714 0
M  V30 3769 H 355.251 1.40643 -0.503966 0
M  V30 3770 H 357.133 4.01194 1.28923 0
M  V30 3771 H 355.808 2.84395 1.546 0
M  V30 3772 H 354.715 3.69076 -0.611056 0
M  V30 3773 H 356.048 4.85907 -0.784531 0
M  V30 3774 N 357.7 0.491464 1.49741 0
M  V30 3775 C 358.928 -0.0535151 2.06831 0
M  V30 3776 C 359.343 -1.31683 1.35296 0
M  V30 3777 O 358.7 -1.77402 0.42836 0
M  V30 3778 C 358.751 -0.320835 3.60073 0
M  V30 3779 O 358.472 0.892394 4.28915 0
M  V30 3780 C 359.973 -0.910519 4.33848 0
M  V30 3781 H 357.193 0.0161909 0.670805 0
M  V30 3782 H 359.737 0.68609 1.92647 0
M  V30 3783 H 357.892 -1.0104 3.73991 0
M  V30 3784 H 358.306 0.649401 5.20464 0
M  V30 3785 H 359.78 -1.04721 5.41976 0
M  V30 3786 H 360.257 -1.90589 3.95692 0
M  V30 3787 H 360.863 -0.258712 4.24512 0
M  V30 3788 N 359.178 -1.55987 0.224894 0
M  V30 3789 C 360.403 -2.03232 -0.41369 0
M  V30 3790 C 360.828 -1.10359 -1.52323 0
M  V30 3791 O 360.186 -0.092395 -1.81064 0
M  V30 3792 C 360.234 -3.48682 -0.919405 0
M  V30 3793 O 359.338 -3.58947 -2.03054 0
M  V30 3794 H 358.679 -0.657428 -0.0931903 0
M  V30 3795 H 361.209 -2.01679 0.34451 0
M  V30 3796 H 361.219 -3.8907 -1.22835 0
M  V30 3797 H 359.894 -4.15761 -0.107339 0
M  V30 3798 H 358.471 -3.30448 -1.72796 0
M  V30 3799 N 360.656 0.0484629 -1.57525 0
M  V30 3800 C 361.606 1.06246 -2.01732 0
M  V30 3801 C 362.59 1.33155 -0.903245 0
M  V30 3802 O 363.782 1.33065 -1.16717 0
M  V30 3803 C 360.911 2.36943 -2.48421 0
M  V30 3804 C 359.997 2.13208 -3.6661 0
M  V30 3805 N 360.388 1.5947 -4.80003 0
M  V30 3806 C 358.686 2.43581 -3.7361 0
M  V30 3807 C 359.387 1.51092 -5.61735 0
M  V30 3808 N 358.363 1.9797 -5.0627 0
M  V30 3809 H 362.165 0.640675 -2.86832 0
M  V30 3810 H 359.679 0.255134 -1.60383 0
M  V30 3811 H 361.676 3.10374 -2.78341 0
M  V30 3812 H 360.336 2.79818 -1.64718 0
M  V30 3813 H 361.347 1.28008 -5.01831 0
M  V30 3814 H 358.024 2.89662 -3.00669 0
M  V30 3815 H 359.414 1.10199 -6.62801 0
M  V30 3816 N 362.134 1.5431 0.320358 0
M  V30 3817 C 363.362 1.76636 1.07738 0
M  V30 3818 C 363.777 0.51649 1.81598 0
M  V30 3819 O 363.134 -0.512942 1.75143 0
M  V30 3820 C 363.185 2.96158 2.07299 0
M  V30 3821 O 362.906 4.16313 1.36438 0
M  V30 3822 C 364.407 3.3072 2.95193 0
M  V30 3823 H 361.627 0.589597 0.320339 0
M  V30 3824 H 364.171 2.01207 0.36551 0
M  V30 3825 H 362.326 2.73851 2.74016 0
M  V30 3826 H 362.74 4.83565 2.03138 0
M  V30 3827 H 364.214 4.17643 3.60941 0
M  V30 3828 H 364.691 2.48026 3.62463 0
M  V30 3829 H 365.297 3.55117 2.34034 0
M  V30 3830 N 363.613 -0.582584 1.46437 0
M  V30 3831 C 364.545 -1.70618 1.53043 0
M  V30 3832 C 365.558 -1.57322 0.418769 0
M  V30 3833 O 366.747 -1.64744 0.687136 0
M  V30 3834 C 363.847 -3.08869 1.39474 0
M  V30 3835 C 363.02 -3.48166 2.64762 0
M  V30 3836 C 362.079 -4.65478 2.4539 0
M  V30 3837 O 361.105 -4.71333 3.19114 0
M  V30 3838 N 362.307 -5.60365 1.51564 0
M  V30 3839 H 365.072 -1.65405 2.49923 0
M  V30 3840 H 362.633 -0.768567 1.42494 0
M  V30 3841 H 364.625 -3.85143 1.24287 0
M  V30 3842 H 363.195 -3.08449 0.507758 0
M  V30 3843 H 362.415 -2.61598 2.9489 0
M  V30 3844 H 363.703 -3.71188 3.4799 0
M  V30 3845 H 363.101 -5.5837 0.907705 0
M  V30 3846 H 361.658 -6.36068 1.4234 0
M  V30 3847 N 365.091 -1.34144 -0.827227 0
M  V30 3848 C 366.339 -1.26009 -1.58007 0
M  V30 3849 C 366.66 0.170971 -1.94249 0
M  V30 3850 O 365.93 1.10256 -1.61927 0
M  V30 3851 H 364.51 -0.463414 -0.585881 0
M  V30 3852 H 367.172 -1.68005 -0.987951 0
M  V30 3853 H 366.268 -1.86187 -2.50481 0
M  V30 3854 N 366.569 1.04691 -1.17803 0
M  V30 3855 C 367.794 1.81984 -0.994813 0
M  V30 3856 C 368.219 1.82586 0.452112 0
M  V30 3857 O 367.577 1.23854 1.324 0
M  V30 3858 C 367.625 3.2575 -1.54659 0
M  V30 3859 O 366.729 4.05267 -0.763728 0
M  V30 3860 H 366.07 0.562483 -0.352857 0
M  V30 3861 H 368.6 1.3189 -1.56417 0
M  V30 3862 H 368.61 3.76541 -1.57102 0
M  V30 3863 H 367.285 3.24627 -2.59981 0
M  V30 3864 H 365.862 3.63972 -0.811108 0
M  V30 3865 N 368.047 0.979072 1.23499 0
M  V30 3866 C 368.977 0.537606 2.27227 0
M  V30 3867 C 369.958 -0.428539 1.64613 0
M  V30 3868 O 371.143 -0.322191 1.91509 0
M  V30 3869 C 368.273 -0.162052 3.46922 0
M  V30 3870 C 367.227 0.721242 4.21879 0
M  V30 3871 C 366.553 -0.110555 5.34586 0
M  V30 3872 C 367.853 2.01141 4.82016 0
M  V30 3873 H 369.547 1.40462 2.64406 0
M  V30 3874 H 367.093 0.67684 1.27102 0
M  V30 3875 H 369.046 -0.482192 4.18632 0
M  V30 3876 H 367.77 -1.06351 3.08799 0
M  V30 3877 H 366.429 1.02482 3.51984 0
M  V30 3878 H 366.077 -1.0125 4.92704 0
M  V30 3879 H 365.777 0.477325 5.85658 0
M  V30 3880 H 367.301 -0.425107 6.09118 0
M  V30 3881 H 368.715 1.75612 5.45741 0
M  V30 3882 H 367.112 2.54695 5.43369 0
M  V30 3883 H 368.182 2.69909 4.02836 0
M  V30 3884 N 369.525 -1.3858 0.750561 0
M  V30 3885 C 370.941 -1.53759 0.427824 0
M  V30 3886 C 371.141 -1.71401 -1.05943 0
M  V30 3887 O 370.197 -1.72331 -1.84549 0
M  V30 3888 C 371.51 -2.74642 1.22443 0
M  V30 3889 C 373.058 -2.88489 1.2142 0
M  V30 3890 C 373.533 -4.12329 1.9937 0
M  V30 3891 N 375.024 -4.194 1.96616 0
M  V30 3892 C 375.759 -5.14209 2.53727 0
M  V30 3893 N 375.255 -6.14709 3.19539 0
M  V30 3894 N 377.048 -5.06537 2.43673 0
M  V30 3895 H 369.199 -1.25377 1.71447 0
M  V30 3896 H 371.462 -0.608844 0.726645 0
M  V30 3897 H 371.168 -2.68 2.27747 0
M  V30 3898 H 371.042 -3.67745 0.839273 0
M  V30 3899 H 373.429 -2.94614 0.169232 0
M  V30 3900 H 373.51 -1.96406 1.63885 0
M  V30 3901 H 373.154 -4.06966 3.03877 0
M  V30 3902 H 373.084 -5.03486 1.54302 0
M  V30 3903 H 375.575 -3.47421 1.48684 0
M  V30 3904 H 375.888 -6.8354 3.60545 0
M  V30 3905 H 374.233 -6.1505 3.23633 0
M  V30 3906 H 377.424 -4.26962 1.91889 0
M  V30 3907 H 377.597 -5.80245 2.88479 0
M  V30 3908 N 371.003 -0.499398 -1.49478 0
M  V30 3909 C 372.252 0.0475259 -2.01644 0
M  V30 3910 C 372.565 1.38195 -1.38425 0
M  V30 3911 O 373.771 2.01547 -1.8191 0
M  V30 3912 C 372.227 0.135164 -3.59646 0
M  V30 3913 C 371.835 -1.19252 -4.31837 0
M  V30 3914 C 373.579 0.632538 -4.19761 0
M  V30 3915 C 371.486 -1.06713 -5.81693 0
M  V30 3916 H 370.416 0.0215349 -0.753692 0
M  V30 3917 H 373.067 -0.638577 -1.7203 0
M  V30 3918 H 371.449 0.885681 -3.85969 0
M  V30 3919 H 372.623 -1.9562 -4.17216 0
M  V30 3920 H 370.938 -1.62321 -3.83459 0
M  V30 3921 H 373.535 0.743833 -5.29501 0
M  V30 3922 H 373.878 1.63098 -3.83021 0
M  V30 3923 H 374.411 -0.0613987 -3.97753 0
M  V30 3924 H 371.15 -2.03979 -6.22955 0
M  V30 3925 H 370.67 -0.344307 -5.98811 0
M  V30 3926 H 372.349 -0.745208 -6.42694 0
M  V30 3927 N 372.481 1.55866 -0.233164 0
M  V30 3928 C 373.709 2.02998 0.399905 0
M  V30 3929 C 374.124 1.11274 1.52524 0
M  V30 3930 O 373.481 0.124528 1.82075 0
M  V30 3931 C 373.532 3.4958 0.920639 0
M  V30 3932 O 373.253 4.37808 -0.159834 0
M  V30 3933 C 374.754 4.12411 1.62578 0
M  V30 3934 H 371.974 0.664006 0.0966281 0
M  V30 3935 H 374.518 2.0143 -0.353013 0
M  V30 3936 H 372.673 3.51727 1.62379 0
M  V30 3937 H 373.087 5.23981 0.23337 0
M  V30 3938 H 374.561 5.16711 1.94201 0
M  V30 3939 H 375.038 3.5809 2.54299 0
M  V30 3940 H 375.644 4.14148 0.967553 0
M  V30 3941 N 373.959 -0.0401083 1.57549 0
M  V30 3942 C 374.907 -1.06264 2.06908 0
M  V30 3943 C 375.901 -1.38132 0.980608 0
M  V30 3944 O 377.107 -1.37167 1.16556 0
M  V30 3945 H 373.482 -0.360166 0.660139 0
M  V30 3946 H 375.453 -0.620445 2.91878 0
M  V30 3947 C 374.202 -2.35846 2.55483 0
M  V30 3948 H 373.525 -2.12183 3.38849 0
M  V30 3949 H 374.965 -3.05765 2.93741 0
M  V30 3950 C 373.424 -3.0404 1.45126 0
M  V30 3951 O 373.954 -3.93424 0.811216 0
M  V30 3952 N 372.16 -2.65184 1.18852 0
M  V30 3953 H 371.707 -1.92584 1.71083 0
M  V30 3954 H 371.665 -3.1113 0.452244 0
M  V30 3955 N 375.437 -1.54477 -0.31217 0
M  V30 3956 C 376.686 -1.72438 -1.04633 0
M  V30 3957 C 376.999 -0.511163 -1.88803 0
M  V30 3958 O 378.205 -0.572341 -2.65399 0
M  V30 3959 C 376.661 -3.05043 -1.9099 0
M  V30 3960 C 376.269 -4.33806 -1.11877 0
M  V30 3961 C 378.013 -3.32364 -2.64073 0
M  V30 3962 C 375.92 -5.57467 -1.97445 0
M  V30 3963 H 374.85 -0.642647 -0.394361 0
M  V30 3964 H 377.501 -1.80966 -0.303929 0
M  V30 3965 H 375.883 -2.90451 -2.69173 0
M  V30 3966 H 377.057 -4.59199 -0.383843 0
M  V30 3967 H 375.372 -4.13336 -0.504252 0
M  V30 3968 H 377.969 -4.21951 -3.28423 0
M  V30 3969 H 378.312 -2.50745 -3.32314 0
M  V30 3970 H 378.845 -3.47875 -1.92944 0
M  V30 3971 H 375.584 -6.41722 -1.33692 0
M  V30 3972 H 375.104 -5.36277 -2.6864 0
M  V30 3973 H 376.783 -5.94303 -2.5576 0
M  V30 3974 N 376.915 0.57481 -1.46744 0
M  V30 3975 C 378.14 1.36341 -1.56288 0
M  V30 3976 C 378.565 1.86954 -0.207347 0
M  V30 3977 O 377.923 1.62006 0.813871 0
M  V30 3978 C 377.971 2.52147 -2.57787 0
M  V30 3979 O 377.075 3.53834 -2.11838 0
M  V30 3980 H 376.416 0.405713 -0.525636 0
M  V30 3981 H 378.946 0.696453 -1.92382 0
M  V30 3982 H 378.956 2.98958 -2.77648 0
M  V30 3983 H 377.631 2.14663 -3.5622 0
M  V30 3984 H 376.208 3.1345 -2.01999 0
M  V30 3985 N 378.394 1.34581 0.820102 0
M  V30 3986 C 379.619 1.30333 1.61332 0
M  V30 3987 C 380.044 -0.119339 1.87721 0
M  V30 3988 O 379.402 -1.08197 1.45475 0
M  V30 3989 C 379.45 2.10258 2.92957 0
M  V30 3990 O 378.554 1.47404 3.85157 0
M  V30 3991 H 377.895 0.447488 0.490561 0
M  V30 3992 H 380.425 1.77425 1.01889 0
M  V30 3993 H 380.435 2.21718 3.42498 0
M  V30 3994 H 379.11 3.13693 2.73074 0
M  V30 3995 H 377.687 1.44703 3.43679 0
M  V30 3996 N 379.872 -1.04064 1.18357 0
M  V30 3997 C 381.149 -1.74252 0.888581 0
M  V30 3998 C 381.529 -2.02138 -0.60856 0
M  V30 3999 O 380.877 -1.66656 -1.56327 0
M  V30 4000 C 381.087 -3.0277 1.73584 0
M  V30 4001 C 382.435 -3.76506 1.96286 0
M  V30 4002 O 383.459 -3.12668 1.70637 0
M  V30 4003 O 382.318 -4.91243 2.39464 0
M  V30 4004 H 379.412 -0.758271 0.330082 0
M  V30 4005 H 381.958 -1.1013 1.2911 0
M  V30 4006 H 380.73 -2.78299 2.75073 0
M  V30 4007 H 380.353 -3.74631 1.33183 0
M  V30 4008 N 381.35 -0.985608 -1.22978 0
M  V30 4009 C 382.627 -0.573599 -1.87001 0
M  V30 4010 C 383.007 0.949213 -1.88555 0
M  V30 4011 O 382.355 1.82811 -1.37086 0
M  V30 4012 C 382.565 -1.18564 -3.28243 0
M  V30 4013 C 383.913 -1.28163 -4.04796 0
M  V30 4014 O 384.937 -1.13949 -3.37482 0
M  V30 4015 O 383.796 -1.50832 -5.25273 0
M  V30 4016 H 380.89 -0.193868 -0.803955 0
M  V30 4017 H 383.436 -1.08102 -1.30813 0
M  V30 4018 H 382.208 -2.22758 -3.21706 0
M  V30 4019 H 381.831 -0.663363 -3.92027 0
M  V30 4020 N 382.828 1.3818 -0.7579 0
M  V30 4021 C 384.053 2.04827 -0.325679 0
M  V30 4022 C 384.478 1.56788 1.03919 0
M  V30 4023 O 383.836 0.721811 1.66312 0
M  V30 4024 C 383.884 3.58774 -0.362447 0
M  V30 4025 O 382.988 4.07372 0.642033 0
M  V30 4026 H 382.329 0.64833 -0.143402 0
M  V30 4027 H 384.859 1.7677 -1.03023 0
M  V30 4028 H 384.869 4.07434 -0.214844 0
M  V30 4029 H 383.544 3.93096 -1.35824 0
M  V30 4030 H 382.121 3.70068 0.458688 0
M  V30 4031 N 384.306 0.507319 1.49211 0
M  V30 4032 C 385.554 -0.0348839 2.0207 0
M  V30 4033 C 385.875 -1.36898 1.38866 0
M  V30 4034 O 385.145 -1.88133 0.546151 0
M  V30 4035 H 383.725 -0.0158812 0.746831 0
M  V30 4036 H 386.387 0.665998 1.83168 0
M  V30 4037 H 385.483 -0.159917 3.1169 0
M  V30 4038 N 385.784 -1.5574 0.241426 0
M  V30 4039 C 386.731 -2.21149 -0.660432 0
M  V30 4040 C 387.701 -1.17356 -1.17545 0
M  V30 4041 O 388.886 -1.45784 -1.23093 0
M  V30 4042 C 386.026 -2.91059 -1.85414 0
M  V30 4043 C 385.139 -4.09495 -1.37616 0
M  V30 4044 C 384.274 -4.67135 -2.529 0
M  V30 4045 C 383.313 -5.77831 -2.01936 0
M  V30 4046 N 382.45 -6.29677 -3.10566 0
M  V30 4047 H 387.29 -2.97845 -0.095955 0
M  V30 4048 H 384.827 -1.47057 -0.0356024 0
M  V30 4049 H 386.785 -3.29788 -2.5553 0
M  V30 4050 H 385.415 -2.16846 -2.39118 0
M  V30 4051 H 384.467 -3.76117 -0.569235 0
M  V30 4052 H 385.779 -4.89423 -0.962618 0
M  V30 4053 H 384.933 -5.08409 -3.31067 0
M  V30 4054 H 383.672 -3.86411 -2.97553 0
M  V30 4055 H 382.677 -5.36039 -1.22238 0
M  V30 4056 H 383.902 -6.60402 -1.58259 0
M  V30 4057 H 381.848 -5.5186 -3.54664 0
M  V30 4058 H 381.765 -7.04783 -2.73526 0
M  V30 4059 H 383.033 -6.75609 -3.88809 0
M  V30 4060 N 387.262 0.0317525 -1.57568 0
M  V30 4061 C 388.194 1.06073 -2.03178 0
M  V30 4062 C 389.207 1.32627 -0.944132 0
M  V30 4063 O 390.396 1.30162 -1.22148 0
M  V30 4064 C 387.496 2.40297 -2.38978 0
M  V30 4065 C 386.669 2.33137 -3.70089 0
M  V30 4066 C 385.728 3.49787 -3.9311 0
M  V30 4067 O 384.754 3.29403 -4.64201 0
M  V30 4068 N 385.956 4.71562 -3.38541 0
M  V30 4069 H 388.721 0.672006 -2.92069 0
M  V30 4070 H 386.282 0.219745 -1.60402 0
M  V30 4071 H 388.274 3.1705 -2.51518 0
M  V30 4072 H 386.844 2.71024 -1.55771 0
M  V30 4073 H 386.064 1.415 -3.67928 0
M  V30 4074 H 387.352 2.25493 -4.56104 0
M  V30 4075 H 386.75 4.91024 -2.80912 0
M  V30 4076 H 385.307 5.45689 -3.56464 0
M  V30 4077 N 388.74 1.54641 0.303973 0
M  V30 4078 C 389.989 1.7299 1.03717 0
M  V30 4079 C 390.302 0.521168 1.88529 0
M  V30 4080 O 391.508 0.586408 2.65092 0
M  V30 4081 C 389.964 3.06051 1.89369 0
M  V30 4082 C 389.572 4.34393 1.09574 0
M  V30 4083 C 391.316 3.3376 2.62306 0
M  V30 4084 C 389.223 5.58506 1.94486 0
M  V30 4085 H 388.153 0.64473 0.390947 0
M  V30 4086 H 390.804 1.81124 0.294328 0
M  V30 4087 H 389.186 2.91874 2.67629 0
M  V30 4088 H 390.36 4.59396 0.359485 0
M  V30 4089 H 388.675 4.13597 0.482324 0
M  V30 4090 H 391.272 4.23687 3.26181 0
M  V30 4091 H 391.615 2.52503 3.3098 0
M  V30 4092 H 392.148 3.48894 1.91097 0
M  V30 4093 H 388.887 6.42422 1.30287 0
M  V30 4094 H 388.407 5.37694 2.65792 0
M  V30 4095 H 390.086 5.95651 2.52605 0
M  V30 4096 N 390.218 -0.567019 1.47046 0
M  V30 4097 C 391.443 -1.3551 1.57009 0
M  V30 4098 C 391.868 -1.86841 0.217259 0
M  V30 4099 O 391.226 -1.62435 -0.805268 0
M  V30 4100 C 391.274 -2.50777 2.5912 0
M  V30 4101 O 390.378 -3.52706 2.13711 0
M  V30 4102 H 389.719 -0.402919 0.52778 0
M  V30 4103 H 392.249 -0.686241 1.92748 0
M  V30 4104 H 392.259 -2.97481 2.79229 0
M  V30 4105 H 390.934 -2.12771 3.57353 0
M  V30 4106 H 389.511 -3.12374 2.03659 0
M  V30 4107 N 391.696 -1.35014 -0.812953 0
M  V30 4108 C 392.936 -1.29289 -1.58315 0
M  V30 4109 C 393.3 0.132727 -1.91541 0
M  V30 4110 O 394.501 0.314269 -2.66957 0
M  V30 4111 C 392.772 -2.1681 -2.84127 0
M  V30 4112 S 394.331 -2.28538 -3.74588 0
M  V30 4113 H 391.149 -0.459569 -0.542511 0
M  V30 4114 H 393.751 -1.70336 -0.959467 0
M  V30 4115 H 392.455 -3.19379 -2.57731 0
M  V30 4116 H 391.986 -1.76697 -3.51485 0
M  V30 4117 H 394.001 -1.4655 -4.74065 0
M  V30 4118 N 393.175 1.03435 -1.18907 0
M  V30 4119 C 394.421 1.77005 -0.989798 0
M  V30 4120 C 394.754 1.88205 0.478816 0
M  V30 4121 O 394.029 1.39481 1.35556 0
M  V30 4122 C 394.312 3.19925 -1.65287 0
M  V30 4123 C 394.165 3.1663 -3.19477 0
M  V30 4124 C 395.484 4.18189 -1.37134 0
M  V30 4125 H 392.603 0.642538 -0.360991 0
M  V30 4126 H 395.245 1.20784 -1.46667 0
M  V30 4127 H 393.395 3.67929 -1.24741 0
M  V30 4128 H 395.067 2.76567 -3.692 0
M  V30 4129 H 393.31 2.54491 -3.51307 0
M  V30 4130 H 393.981 4.1758 -3.61013 0
M  V30 4131 H 396.457 3.78761 -1.72276 0
M  V30 4132 H 395.333 5.16394 -1.86087 0
M  V30 4133 H 395.594 4.41112 -0.295424 0
M  V30 4134 N 394.653 0.992116 1.22453 0
M  V30 4135 C 395.616 0.546883 2.2258 0
M  V30 4136 C 396.616 -0.369829 1.56489 0
M  V30 4137 O 397.806 -0.161896 1.73446 0
M  V30 4138 C 394.938 -0.204659 3.40285 0
M  V30 4139 H 396.131 1.43234 2.63484 0
M  V30 4140 H 393.684 0.779239 1.3549 0
M  V30 4141 H 394.419 -1.10614 3.04853 0
M  V30 4142 H 394.204 0.45354 3.89468 0
M  V30 4143 H 395.694 -0.504358 4.14543 0
M  V30 4144 N 396.131 -1.37776 0.765217 0
M  V30 4145 C 397.041 -2.34135 0.147666 0
M  V30 4146 C 398.057 -1.59854 -0.687215 0
M  V30 4147 O 399.233 -1.91983 -0.608659 0
M  V30 4148 C 396.298 -3.3901 -0.72617 0
M  V30 4149 C 395.359 -4.2912 0.124417 0
M  V30 4150 C 394.592 -5.28986 -0.707807 0
M  V30 4151 O 394.815 -5.36205 -1.94525 0
M  V30 4152 O 393.749 -6.01779 -0.12046 0
M  V30 4153 H 397.575 -2.88664 0.943758 0
M  V30 4154 H 395.16 -1.39824 0.526277 0
M  V30 4155 H 397.042 -4.03195 -1.22524 0
M  V30 4156 H 395.717 -2.86819 -1.50056 0
M  V30 4157 H 394.624 -3.68057 0.669696 0
M  V30 4158 H 395.957 -4.84598 0.861736 0
M  V30 4159 N 397.609 -0.515225 -1.4894 0
M  V30 4160 C 398.557 0.269115 -2.31038 0
M  V30 4161 C 399.551 0.949443 -1.40292 0
M  V30 4162 O 400.757 0.87551 -1.57273 0
M  V30 4163 H 397.132 0.10565 -0.744542 0
M  V30 4164 H 399.103 -0.443096 -2.95092 0
M  V30 4165 C 397.852 1.31213 -3.21991 0
M  V30 4166 H 397.175 0.798034 -3.91754 0
M  V30 4167 H 398.615 1.83263 -3.82349 0
M  V30 4168 C 397.074 2.33791 -2.42576 0
M  V30 4169 O 397.604 3.3995 -2.14003 0
M  V30 4170 N 395.81 2.06625 -2.0434 0
M  V30 4171 H 395.357 1.20314 -2.27777 0
M  V30 4172 H 395.315 2.75483 -1.51514 0
M  V30 4173 N 399.087 1.5561 -0.249682 0
M  V30 4174 C 400.017 2.24477 0.642826 0
M  V30 4175 C 400.998 1.22601 1.17911 0
M  V30 4176 O 402.183 1.5126 1.21795 0
M  V30 4177 C 399.313 2.94638 1.83863 0
M  V30 4178 C 398.267 4.03227 1.435 0
M  V30 4179 C 397.593 4.60828 2.71186 0
M  V30 4180 C 398.893 5.18796 0.604002 0
M  V30 4181 H 400.587 2.99321 0.0685625 0
M  V30 4182 H 398.133 1.43965 0.0315363 0
M  V30 4183 H 400.086 3.41517 2.46868 0
M  V30 4184 H 398.81 2.17287 2.43832 0
M  V30 4185 H 397.469 3.57121 0.828275 0
M  V30 4186 H 397.117 3.80174 3.29358 0
M  V30 4187 H 396.817 5.34132 2.44901 0
M  V30 4188 H 398.341 5.10442 3.35084 0
M  V30 4189 H 399.755 5.61883 1.13842 0
M  V30 4190 H 398.152 5.98506 0.437097 0
M  V30 4191 H 399.222 4.83384 -0.383147 0
M  V30 4192 N 400.565 -0.0233959 1.57583 0
M  V30 4193 C 401.811 -0.714119 1.89811 0
M  V30 4194 C 402.144 -1.74702 0.848113 0
M  V30 4195 O 401.419 -1.94023 -0.136135 0
M  V30 4196 C 401.702 -1.37853 3.32669 0
M  V30 4197 C 401.555 -0.358764 4.48367 0
M  V30 4198 C 402.874 -2.31101 3.7454 0
M  V30 4199 H 399.993 -0.25814 0.690314 0
M  V30 4200 H 402.635 0.0230927 1.89986 0
M  V30 4201 H 400.785 -2.00689 3.3265 0
M  V30 4202 H 402.457 0.268115 4.6052 0
M  V30 4203 H 400.7 0.321387 4.32608 0
M  V30 4204 H 401.371 -0.862242 5.45224 0
M  V30 4205 H 403.847 -1.78304 3.75961 0
M  V30 4206 H 402.723 -2.74567 4.75294 0
M  V30 4207 H 402.984 -3.18018 3.0711 0
M  V30 4208 N 402.043 -1.548 -0.295768 0
M  V30 4209 C 403.291 -1.73985 -1.02828 0
M  V30 4210 C 403.612 -0.531406 -1.87619 0
M  V30 4211 O 402.882 0.454221 -1.90561 0
M  V30 4212 H 401.462 -0.641556 -0.382642 0
M  V30 4213 H 404.124 -1.92163 -0.325489 0
M  V30 4214 H 403.22 -2.63129 -1.67838 0
M  V30 4215 N 403.521 0.559213 -1.47345 0
M  V30 4216 C 404.431 1.69388 -1.62311 0
M  V30 4217 C 405.447 1.6648 -0.505993 0
M  V30 4218 O 406.623 1.85964 -0.773262 0
M  V30 4219 C 403.688 3.05894 -1.63185 0
M  V30 4220 C 402.749 3.19885 -2.86307 0
M  V30 4221 C 401.982 4.49879 -2.87131 0
M  V30 4222 O 402.205 5.35217 -1.97229 0
M  V30 4223 O 401.139 4.67618 -3.78968 0
M  V30 4224 H 404.965 1.59706 -2.58317 0
M  V30 4225 H 402.55 0.728989 -1.30407 0
M  V30 4226 H 404.432 3.87133 -1.66451 0
M  V30 4227 H 403.107 3.15964 -0.70345 0
M  V30 4228 H 402.014 2.38052 -2.88587 0
M  V30 4229 H 403.347 3.14718 -3.78435 0
M  V30 4230 N 404.999 1.35443 0.805782 0
M  V30 4231 C 406.276 1.19325 1.54987 0
M  V30 4232 C 406.656 -0.227294 2.09873 0
M  V30 4233 O 406.004 -1.2309 1.92512 0
M  V30 4234 C 406.214 2.26196 2.65775 0
M  V30 4235 C 407.562 2.62043 3.34094 0
M  V30 4236 O 408.586 2.25115 2.76046 0
M  V30 4237 O 407.445 3.25542 4.38958 0
M  V30 4238 H 404.539 0.463623 0.684823 0
M  V30 4239 H 407.085 1.47127 0.845674 0
M  V30 4240 H 405.857 3.21471 2.23096 0
M  V30 4241 H 405.48 1.99667 3.43829 0
M  V30 4242 N 406.477 -1.02803 1.19454 0
M  V30 4243 C 407.409 -2.11181 0.890807 0
M  V30 4244 C 408.422 -1.6238 -0.116829 0
M  V30 4245 O 409.611 -1.78144 0.112694 0
M  V30 4246 C 406.711 -3.37461 0.311942 0
M  V30 4247 C 405.884 -4.15446 1.36834 0
M  V30 4248 C 404.943 -5.20039 0.802864 0
M  V30 4249 O 403.969 -5.49602 1.48077 0
M  V30 4250 N 405.171 -5.79165 -0.393417 0
M  V30 4251 H 407.936 -2.37827 1.82369 0
M  V30 4252 H 405.497 -1.19101 1.09666 0
M  V30 4253 H 407.489 -4.0462 -0.0802225 0
M  V30 4254 H 406.059 -3.08156 -0.52524 0
M  V30 4255 H 405.279 -3.43423 1.93531 0
M  V30 4256 H 406.567 -4.64335 2.08015 0
M  V30 4257 H 405.965 -5.57466 -0.961658 0
M  V30 4258 H 404.522 -6.47729 -0.727351 0
M  V30 4259 N 407.956 -0.998596 -1.21925 0
M  V30 4260 C 409.233 -0.593401 -1.86382 0
M  V30 4261 C 409.613 0.92916 -1.89552 0
M  V30 4262 O 408.961 1.81347 -1.39017 0
M  V30 4263 C 409.171 -1.22039 -3.26967 0
M  V30 4264 C 410.519 -1.32449 -4.03413 0
M  V30 4265 O 411.543 -1.17522 -3.36254 0
M  V30 4266 O 410.402 -1.56395 -5.23644 0
M  V30 4267 H 407.496 -0.202385 -0.801854 0
M  V30 4268 H 410.042 -1.09484 -1.29659 0
M  V30 4269 H 408.814 -2.26158 -3.19325 0
M  V30 4270 H 408.437 -0.704906 -3.91301 0
M  V30 4271 N 409.434 1.37368 -0.772513 0
M  V30 4272 C 410.659 2.0447 -0.347386 0
M  V30 4273 C 411.084 1.57882 1.0225 0
M  V30 4274 O 410.442 0.73941 1.65537 0
M  V30 4275 C 410.49 3.58369 -0.400479 0
M  V30 4276 O 409.594 4.0803 0.598789 0
M  V30 4277 H 408.935 0.646773 -0.15027 0
M  V30 4278 H 411.465 1.75667 -1.04892 0
M  V30 4279 H 411.475 4.07183 -0.258045 0
M  V30 4280 H 410.15 3.91633 -1.39986 0
M  V30 4281 H 408.727 3.70534 0.419411 0
M  V30 4282 N 410.912 0.523116 1.48665 0
M  V30 4283 C 412.158 -0.0134963 2.02796 0
M  V30 4284 C 412.491 -1.34582 1.40004 0
M  V30 4285 O 411.766 -1.86756 0.543381 0
M  V30 4286 C 412.049 -0.14276 3.59817 0
M  V30 4287 C 411.902 1.21425 4.331 0
M  V30 4288 C 413.221 -0.872856 4.31357 0
M  V30 4289 H 410.34 -0.00343074 0.736992 0
M  V30 4290 H 412.982 0.678816 1.7746 0
M  V30 4291 H 411.132 -0.732401 3.81534 0
M  V30 4292 H 412.804 1.84447 4.2282 0
M  V30 4293 H 411.047 1.79791 3.94788 0
M  V30 4294 H 411.718 1.07687 5.41394 0
M  V30 4295 H 414.194 -0.372555 4.14429 0
M  V30 4296 H 413.07 -0.932185 5.40927 0
M  V30 4297 H 413.331 -1.92161 3.98154 0
M  V30 4298 N 412.39 -1.55475 0.257931 0
M  V30 4299 C 413.338 -2.23244 -0.653076 0
M  V30 4300 C 414.332 -1.22366 -1.17144 0
M  V30 4301 O 415.538 -1.40347 -1.12706 0
M  V30 4302 H 411.913 -0.716247 -0.229117 0
M  V30 4303 H 413.884 -2.98343 -0.0584788 0
M  V30 4304 C 412.633 -2.95401 -1.83395 0
M  V30 4305 H 411.956 -3.72802 -1.44424 0
M  V30 4306 H 413.396 -3.46165 -2.44838 0
M  V30 4307 C 411.855 -1.99895 -2.71189 0
M  V30 4308 O 412.385 -1.53909 -3.71046 0
M  V30 4309 N 410.591 -1.6676 -2.3799 0
M  V30 4310 H 410.138 -2.04352 -1.56837 0
M  V30 4311 H 410.096 -1.03127 -2.97005 0
M  V30 4312 N 413.868 0.0150385 -1.57593 0
M  V30 4313 C 414.798 1.01047 -2.10503 0
M  V30 4314 C 415.779 1.36816 -1.01071 0
M  V30 4315 O 416.964 1.45455 -1.28672 0
M  V30 4316 C 414.094 2.30708 -2.59598 0
M  V30 4317 C 413.048 2.09142 -3.73421 0
M  V30 4318 C 412.374 3.44685 -4.08774 0
M  V30 4319 C 413.674 1.46619 -5.01298 0
M  V30 4320 H 415.368 0.569978 -2.93925 0
M  V30 4321 H 412.914 0.272724 -1.41394 0
M  V30 4322 H 414.867 3.00687 -2.95238 0
M  V30 4323 H 413.591 2.76843 -1.73279 0
M  V30 4324 H 412.25 1.41592 -3.38153 0
M  V30 4325 H 411.898 3.88495 -3.195 0
M  V30 4326 H 411.598 3.31077 -4.8545 0
M  V30 4327 H 413.122 4.16004 -4.4696 0
M  V30 4328 H 414.536 2.06535 -5.34805 0
M  V30 4329 H 412.933 1.43544 -5.82679 0
M  V30 4330 H 414.003 0.433611 -4.82957 0
M  V30 4331 N 415.346 1.54954 0.287554 0
M  V30 4332 C 416.574 1.78881 1.03967 0
M  V30 4333 C 416.989 0.554894 1.80462 0
M  V30 4334 O 416.346 -0.475676 1.76192 0
M  V30 4335 C 416.397 3.00488 2.0097 0
M  V30 4336 O 416.118 4.19113 1.27577 0
M  V30 4337 C 417.619 3.36907 2.88112 0
M  V30 4338 H 414.839 0.596259 0.307761 0
M  V30 4339 H 417.383 2.01937 0.322749 0
M  V30 4340 H 415.538 2.79601 2.68145 0
M  V30 4341 H 415.952 4.87765 1.92835 0
M  V30 4342 H 417.426 4.25205 3.52001 0
M  V30 4343 H 417.903 2.55659 3.57121 0
M  V30 4344 H 418.509 3.60001 2.26449 0
M  V30 4345 N 416.824 -0.551391 1.4764 0
M  V30 4346 C 418.07 -1.31024 1.54792 0
M  V30 4347 C 418.403 -1.9304 0.211967 0
M  V30 4348 O 417.678 -1.78175 -0.77999 0
M  V30 4349 C 417.961 -2.41593 2.67029 0
M  V30 4350 C 417.814 -1.84408 4.10261 0
M  V30 4351 C 419.133 -3.43488 2.75143 0
M  V30 4352 H 416.252 -0.475031 0.563485 0
M  V30 4353 H 418.894 -0.616454 1.79722 0
M  V30 4354 H 417.044 -3.00772 2.45904 0
M  V30 4355 H 418.716 -1.29445 4.42766 0
M  V30 4356 H 416.959 -1.15051 4.18265 0
M  V30 4357 H 417.63 -2.64367 4.84576 0
M  V30 4358 H 420.106 -2.94236 2.94218 0
M  V30 4359 H 418.982 -4.18274 3.55441 0
M  V30 4360 H 419.243 -4.02703 1.82435 0
M  V30 4361 N 418.302 -1.35869 -0.798587 0
M  V30 4362 C 419.252 -1.25982 -1.90033 0
M  V30 4363 C 420.236 -0.153303 -1.60168 0
M  V30 4364 O 421.428 -0.38527 -1.72756 0
M  V30 4365 C 418.557 -1.04211 -3.27101 0
M  V30 4366 C 417.643 -2.19289 -3.63006 0
M  V30 4367 N 418.034 -3.44559 -3.70287 0
M  V30 4368 C 416.332 -2.10852 -3.93011 0
M  V30 4369 C 417.033 -4.20283 -4.02166 0
M  V30 4370 N 416.009 -3.49124 -4.16669 0
M  V30 4371 H 419.811 -2.20883 -1.93876 0
M  V30 4372 H 417.325 -1.28457 -0.993614 0
M  V30 4373 H 419.322 -0.952155 -4.05881 0
M  V30 4374 H 417.982 -0.102013 -3.2454 0
M  V30 4375 H 418.993 -3.7881 -3.53162 0
M  V30 4376 H 415.67 -1.24744 -3.98428 0
M  V30 4377 H 417.06 -5.28575 -4.14799 0
M  V30 4378 N 419.78 1.02168 -1.19998 0
M  V30 4379 C 421.027 1.75685 -1.00702 0
M  V30 4380 C 421.355 1.88947 0.461426 0
M  V30 4381 O 420.61 1.40832 1.35885 0
M  V30 4382 C 420.909 3.18081 -1.62969 0
M  V30 4383 C 420.575 3.24809 -3.12746 0
M  V30 4384 C 419.237 3.26352 -3.53621 0
M  V30 4385 C 421.589 3.23379 -4.08749 0
M  V30 4386 C 418.917 3.2413 -4.89036 0
M  V30 4387 C 421.269 3.22698 -5.44104 0
M  V30 4388 C 419.933 3.22542 -5.84399 0
M  V30 4389 H 419.203 0.642877 -0.368496 0
M  V30 4390 H 421.85 1.19865 -1.49348 0
M  V30 4391 H 420.155 3.77027 -1.06573 0
M  V30 4392 H 421.852 3.73648 -1.45561 0
M  V30 4393 H 418.442 3.2434 -2.80181 0
M  V30 4394 H 422.626 3.21361 -3.78207 0
M  V30 4395 H 417.882 3.22338 -5.19527 0
M  V30 4396 H 422.056 3.20543 -6.18244 0
M  V30 4397 H 419.683 3.20575 -6.89301 0
M  V30 4398 N 421.258 1.00505 1.21394 0
M  V30 4399 C 422.221 0.570459 2.21987 0
M  V30 4400 C 423.221 -0.353211 1.56873 0
M  V30 4401 O 424.411 -0.14349 1.73608 0
M  V30 4402 C 421.543 -0.168555 3.40483 0
M  V30 4403 H 422.736 1.46021 2.6195 0
M  V30 4404 H 420.289 0.793565 1.34656 0
M  V30 4405 H 421.024 -1.07374 3.06009 0
M  V30 4406 H 420.809 0.494823 3.88965 0
M  V30 4407 H 422.299 -0.460362 4.15055 0
M  V30 4408 N 422.737 -1.36956 0.779787 0
M  V30 4409 C 424.148 -1.82094 0.412156 0
M  V30 4410 C 424.499 -1.64926 -1.06273 0
M  V30 4411 O 423.624 -1.16483 -1.82375 0
M  V30 4412 C 424.219 -3.3059 0.741319 0
M  V30 4413 C 422.778 -3.73974 0.426641 0
M  V30 4414 C 421.925 -2.59368 0.980987 0
M  V30 4415 H 424.876 -1.25314 0.973758 0
M  V30 4416 H 424.897 -3.80489 0.028887 0
M  V30 4417 H 424.409 -3.43054 1.81482 0
M  V30 4418 H 422.51 -3.67076 -0.639215 0
M  V30 4419 H 422.623 -4.69778 0.940515 0
M  V30 4420 H 420.987 -2.51463 0.404757 0
M  V30 4421 H 421.77 -2.74621 2.06005 0
M  V30 4422 N 424.215 -0.530993 -1.48385 0
M  V30 4423 C 425.443 -0.00134122 -2.069 0
M  V30 4424 C 425.858 1.2805 -1.3874 0
M  V30 4425 O 425.215 1.76204 -0.475244 0
M  V30 4426 C 425.266 0.225256 -3.60798 0
M  V30 4427 O 424.987 -1.0058 -4.26398 0
M  V30 4428 C 426.488 0.795172 -4.3611 0
M  V30 4429 H 423.708 -0.0339704 -0.67014 0
M  V30 4430 H 426.252 -0.736926 -1.90761 0
M  V30 4431 H 424.407 0.910891 -3.76539 0
M  V30 4432 H 424.821 -0.787165 -5.1856 0
M  V30 4433 H 426.295 0.903143 -5.44562 0
M  V30 4434 H 426.772 1.80031 -4.00606 0
M  V30 4435 H 427.378 0.146069 -4.25049 0
M  V30 4436 N 425.693 1.55336 -0.266172 0
M  V30 4437 C 426.942 1.98574 0.353749 0
M  V30 4438 C 427.255 1.15789 1.57646 0
M  V30 4439 O 428.461 1.49129 2.26876 0
M  V30 4440 C 426.917 3.53403 0.680747 0
M  V30 4441 C 426.525 4.44953 -0.52165 0
M  V30 4442 C 428.269 4.05251 1.26379 0
M  V30 4443 C 426.176 5.91156 -0.169736 0
M  V30 4444 H 425.106 0.741643 0.135949 0
M  V30 4445 H 427.757 1.79743 -0.369421 0
M  V30 4446 H 426.139 3.68001 1.46257 0
M  V30 4447 H 427.313 4.42121 -1.29869 0
M  V30 4448 H 425.628 4.03691 -1.02093 0
M  V30 4449 H 428.225 5.12021 1.54074 0
M  V30 4450 H 428.568 3.53749 2.19471 0
M  V30 4451 H 429.101 3.94057 0.544447 0
M  V30 4452 H 425.84 6.46736 -1.0683 0
M  V30 4453 H 425.36 5.97079 0.570717 0
M  V30 4454 H 427.039 6.4655 0.241245 0
M  V30 4455 N 427.171 -0.0066808 1.57599 0
M  V30 4456 C 428.399 -0.704087 1.94551 0
M  V30 4457 C 428.814 -1.67677 0.867746 0
M  V30 4458 O 428.171 -1.8185 -0.153925 0
M  V30 4459 C 428.222 -1.44177 3.31505 0
M  V30 4460 O 427.943 -0.508097 4.35144 0
M  V30 4461 C 429.444 -2.23429 3.82876 0
M  V30 4462 H 426.664 -0.196523 0.641576 0
M  V30 4463 H 429.208 0.042453 2.04456 0
M  V30 4464 H 427.363 -2.13999 3.22929 0
M  V30 4465 H 427.777 -1.02782 5.14331 0
M  V30 4466 H 429.251 -2.70552 4.8115 0
M  V30 4467 H 429.728 -3.05818 3.15233 0
M  V30 4468 H 430.334 -1.58636 3.94607 0
M  V30 4469 N 428.649 -1.55105 -0.279332 0
M  V30 4470 C 429.896 -1.75412 -1.01177 0
M  V30 4471 C 430.224 -0.551728 -1.86511 0
M  V30 4472 O 429.479 0.465919 -1.90073 0
M  V30 4473 C 429.778 -3.0086 -1.92919 0
M  V30 4474 C 429.444 -4.33689 -1.23387 0
M  V30 4475 C 428.106 -4.69792 -1.04159 0
M  V30 4476 C 430.458 -5.15941 -0.738562 0
M  V30 4477 C 427.786 -5.85707 -0.341166 0
M  V30 4478 C 430.138 -6.32579 -0.0517636 0
M  V30 4479 C 428.802 -6.67326 0.152292 0
M  V30 4480 H 428.072 -0.641879 -0.370233 0
M  V30 4481 H 430.719 -1.89373 -0.284627 0
M  V30 4482 H 429.024 -2.81773 -2.72234 0
M  V30 4483 H 430.721 -3.13768 -2.49701 0
M  V30 4484 H 427.311 -4.05309 -1.39364 0
M  V30 4485 H 431.495 -4.8853 -0.874764 0
M  V30 4486 H 426.751 -6.11157 -0.172287 0
M  V30 4487 H 430.925 -6.9557 0.339828 0
M  V30 4488 H 428.552 -7.56998 0.697014 0
M  V30 4489 N 430.127 0.543554 -1.4793 0
M  V30 4490 C 431.057 1.65888 -1.64327 0
M  V30 4491 C 432.038 1.62818 -0.492383 0
M  V30 4492 O 433.223 1.80226 -0.723338 0
M  V30 4493 C 430.353 3.04506 -1.67013 0
M  V30 4494 C 429.307 3.2243 -2.81466 0
M  V30 4495 C 428.633 4.61972 -2.69233 0
M  V30 4496 C 429.933 3.06496 -4.22915 0
M  V30 4497 H 431.627 1.52421 -2.57698 0
M  V30 4498 H 429.173 0.731849 -1.24016 0
M  V30 4499 H 431.126 3.82391 -1.77074 0
M  V30 4500 H 429.85 3.18964 -0.70212 0
M  V30 4501 H 428.509 2.46957 -2.70938 0
M  V30 4502 H 428.157 4.73247 -1.7043 0
M  V30 4503 H 427.857 4.74911 -3.46025 0
M  V30 4504 H 429.381 5.41974 -2.81242 0
M  V30 4505 H 430.795 3.74186 -4.34348 0
M  V30 4506 H 429.192 3.30938 -5.006 0
M  V30 4507 H 430.262 2.03077 -4.40327 0
M  V30 4508 N 431.605 1.3629 0.791371 0
M  V30 4509 C 432.515 1.32606 1.93527 0
M  V30 4510 C 433.531 0.228541 1.72493 0
M  V30 4511 O 434.707 0.460571 1.96063 0
M  V30 4512 C 431.772 1.11271 3.28359 0
M  V30 4513 C 430.833 2.3048 3.62185 0
M  V30 4514 C 430.066 2.10154 4.90583 0
M  V30 4515 O 430.289 1.07572 5.60165 0
M  V30 4516 O 429.223 2.97884 5.23019 0
M  V30 4517 H 433.049 2.28909 1.99585 0
M  V30 4518 H 430.634 1.16818 0.931344 0
M  V30 4519 H 432.516 1.01283 4.09047 0
M  V30 4520 H 431.191 0.180292 3.23198 0
M  V30 4521 H 430.098 2.46036 2.81811 0
M  V30 4522 H 431.431 3.22221 3.72068 0
M  V30 4523 N 433.083 -1.0153 1.20538 0
M  V30 4524 C 434.308 -1.79283 1.04271 0
M  V30 4525 C 434.733 -1.8372 -0.403544 0
M  V30 4526 O 434.091 -1.27321 -1.2907 0
M  V30 4527 C 434.139 -3.21535 1.63241 0
M  V30 4528 O 433.243 -4.03099 0.870908 0
M  V30 4529 H 432.584 -0.55293 0.367647 0
M  V30 4530 H 435.114 -1.27696 1.59859 0
M  V30 4531 H 435.124 -3.72243 1.6703 0
M  V30 4532 H 433.799 -3.1762 2.68497 0
M  V30 4533 H 432.376 -3.61693 0.907323 0
M  V30 4534 N 434.561 -1.01147 -1.20859 0
M  V30 4535 C 435.972 -0.730205 -1.71828 0
M  V30 4536 C 436.323 0.751662 -1.8123 0
M  V30 4537 O 435.448 1.58686 -1.47132 0
M  V30 4538 C 436.043 -1.31885 -3.12077 0
M  V30 4539 C 434.602 -1.08656 -3.60376 0
M  V30 4540 C 433.749 -1.42769 -2.37723 0
M  V30 4541 H 436.7 -1.18158 -1.05945 0
M  V30 4542 H 436.721 -0.706793 -3.73878 0
M  V30 4543 H 436.233 -2.39737 -3.05201 0
M  V30 4544 H 434.334 -0.0254814 -3.72591 0
M  V30 4545 H 434.447 -1.76301 -4.45483 0
M  V30 4546 H 432.811 -0.846603 -2.40218 0
M  V30 4547 H 433.594 -2.51666 -2.33493 0
M  V30 4548 N 436.039 1.36541 -0.78704 0
M  V30 4549 C 437.267 2.03561 -0.370199 0
M  V30 4550 C 437.682 1.59347 1.01263 0
M  V30 4551 O 437.039 0.781781 1.64907 0
M  V30 4552 C 437.09 3.59033 -0.421614 0
M  V30 4553 O 436.811 4.01634 -1.7499 0
M  V30 4554 C 438.312 4.433 0.00489763 0
M  V30 4555 H 435.532 0.653346 -0.152904 0
M  V30 4556 H 438.076 1.74566 -1.06522 0
M  V30 4557 H 436.231 3.86746 0.224971 0
M  V30 4558 H 436.645 4.96217 -1.69909 0
M  V30 4559 H 438.119 5.51939 -0.0822184 0
M  V30 4560 H 438.596 4.26285 1.05723 0
M  V30 4561 H 439.202 4.20843 -0.614085 0
M  V30 4562 N 437.518 0.538854 1.48102 0
M  V30 4563 C 438.743 0.0102694 2.07397 0
M  V30 4564 C 439.168 -1.26562 1.39153 0
M  V30 4565 O 438.526 -1.75357 0.460387 0
M  V30 4566 C 438.574 -0.187602 3.60112 0
M  V30 4567 O 437.678 -1.25432 3.92862 0
M  V30 4568 H 437.019 0.0430975 0.6626 0
M  V30 4569 H 439.549 0.749301 1.90385 0
M  V30 4570 H 439.559 -0.407517 4.0596 0
M  V30 4571 H 438.234 0.744386 4.09184 0
M  V30 4572 H 436.811 -1.01636 3.58782 0
M  V30 4573 N 438.996 -1.55193 0.274407 0
M  V30 4574 C 440.273 -1.91584 -0.394331 0
M  V30 4575 C 440.653 -1.19858 -1.73774 0
M  V30 4576 O 440.001 -0.3252 -2.26174 0
M  V30 4577 C 440.211 -3.4487 -0.535311 0
M  V30 4578 C 441.559 -4.16636 -0.818534 0
M  V30 4579 O 442.583 -3.5076 -0.620146 0
M  V30 4580 O 441.442 -5.33209 -1.19792 0
M  V30 4581 H 438.536 -0.798349 -0.215794 0
M  V30 4582 H 441.082 -1.66646 0.320507 0
M  V30 4583 H 439.854 -3.89145 0.410141 0
M  V30 4584 H 439.477 -3.75759 -1.29964 0
M  V30 4585 N 440.474 -0.00167713 -1.576 0
M  V30 4586 C 441.424 0.997744 -2.0501 0
M  V30 4587 C 442.408 1.30214 -0.94515 0
M  V30 4588 O 443.6 1.29284 -1.20891 0
M  V30 4589 C 440.729 2.2892 -2.55833 0
M  V30 4590 C 439.815 2.01437 -3.73208 0
M  V30 4591 N 440.206 1.44119 -4.84833 0
M  V30 4592 C 438.504 2.31571 -3.8117 0
M  V30 4593 C 439.205 1.33145 -5.66257 0
M  V30 4594 N 438.181 1.81763 -5.12312 0
M  V30 4595 H 441.983 0.549098 -2.88725 0
M  V30 4596 H 439.497 0.20398 -1.61114 0
M  V30 4597 H 441.494 3.01361 -2.88075 0
M  V30 4598 H 440.154 2.74436 -1.73537 0
M  V30 4599 H 441.165 1.11978 -5.0565 0
M  V30 4600 H 437.842 2.7995 -3.09732 0
M  V30 4601 H 439.232 0.890567 -6.65972 0
M  V30 4602 N 441.952 1.55251 0.271103 0
M  V30 4603 C 442.902 1.84649 1.33749 0
M  V30 4604 C 443.886 0.705529 1.44607 0
M  V30 4605 O 445.078 0.966916 1.48256 0
M  V30 4606 C 442.207 2.12354 2.69742 0
M  V30 4607 C 441.293 3.32714 2.62988 0
M  V30 4608 N 441.684 4.52575 2.25853 0
M  V30 4609 C 439.982 3.35341 2.94045 0
M  V30 4610 C 440.683 5.34669 2.29136 0
M  V30 4611 N 439.659 4.73123 2.67685 0
M  V30 4612 H 443.461 2.74865 1.0405 0
M  V30 4613 H 440.975 1.55152 0.479738 0
M  V30 4614 H 442.972 2.31572 3.4667 0
M  V30 4615 H 441.632 1.23422 3.00328 0
M  V30 4616 H 442.643 4.78639 1.978 0
M  V30 4617 H 439.32 2.56608 3.2933 0
M  V30 4618 H 440.71 6.40509 2.02971 0
M  V30 4619 N 443.43 -0.535701 1.48216 0
M  V30 4620 C 444.676 -1.2913 1.57153 0
M  V30 4621 C 445.031 -1.90899 0.239823 0
M  V30 4622 O 444.324 -1.76022 -0.756748 0
M  V30 4623 C 444.518 -2.4068 2.64212 0
M  V30 4624 C 444.347 -1.89844 4.07663 0
M  V30 4625 C 443.117 -1.72708 4.74869 0
M  V30 4626 C 445.315 -1.43031 4.94011 0
M  V30 4627 N 443.297 -1.16437 6.02757 0
M  V30 4628 C 444.668 -0.986691 6.12098 0
M  V30 4629 C 446.723 -1.3128 4.80281 0
M  V30 4630 C 445.426 -0.437231 7.1797 0
M  V30 4631 C 447.452 -0.777346 5.86269 0
M  V30 4632 C 446.814 -0.343774 7.03561 0
M  V30 4633 H 442.913 -0.463753 0.629648 0
M  V30 4634 H 445.497 -0.604736 1.8507 0
M  V30 4635 H 443.668 -3.06839 2.38126 0
M  V30 4636 H 445.4 -3.07706 2.62867 0
M  V30 4637 H 442.155 -1.96061 4.31111 0
M  V30 4638 H 442.579 -0.903281 6.70947 0
M  V30 4639 H 447.221 -1.63408 3.89946 0
M  V30 4640 H 444.939 -0.103621 8.08034 0
M  V30 4641 H 448.525 -0.689688 5.77698 0
M  V30 4642 H 447.405 0.0641219 7.84174 0
M  V30 4643 N 444.908 -1.36708 -0.784132 0
M  V30 4644 C 446.148 -1.32618 -1.55537 0
M  V30 4645 C 446.512 0.0920681 -1.91779 0
M  V30 4646 O 447.713 0.257573 -2.67563 0
M  V30 4647 C 445.984 -2.22788 -2.79464 0
M  V30 4648 S 447.543 -2.36432 -3.69656 0
M  V30 4649 H 444.361 -0.470973 -0.53264 0
M  V30 4650 H 446.963 -1.72333 -0.92312 0
M  V30 4651 H 445.667 -3.24774 -2.50899 0
M  V30 4652 H 445.198 -1.84112 -3.47658 0
M  V30 4653 H 447.213 -1.56573 -4.7085 0
M  V30 4654 N 446.386 1.0089 -1.21074 0
M  V30 4655 C 447.635 1.74019 -1.01981 0
M  V30 4656 C 447.948 1.90408 0.447665 0
M  V30 4657 O 449.154 2.60707 0.757906 0
M  V30 4658 C 447.61 3.13026 -1.77603 0
M  V30 4659 C 447.218 3.04623 -3.28495 0
M  V30 4660 C 448.962 3.90312 -1.66904 0
M  V30 4661 C 446.869 4.38685 -3.96623 0
M  V30 4662 H 445.799 0.652422 -0.377971 0
M  V30 4663 H 448.45 1.12755 -1.44771 0
M  V30 4664 H 446.832 3.74878 -1.27604 0
M  V30 4665 H 448.006 2.52032 -3.85767 0
M  V30 4666 H 446.321 2.40827 -3.39693 0
M  V30 4667 H 448.918 4.8951 -2.15138 0
M  V30 4668 H 449.261 4.11558 -0.62658 0
M  V30 4669 H 449.794 3.35104 -2.14359 0
M  V30 4670 H 446.533 4.22641 -5.01054 0
M  V30 4671 H 446.053 4.91252 -3.4414 0
M  V30 4672 H 447.732 5.075 -4.01314 0
M  V30 4673 N 447.864 1.01787 1.20321 0
M  V30 4674 C 449.275 0.739307 1.71438 0
M  V30 4675 C 449.626 -0.742041 1.81627 0
M  V30 4676 O 448.751 -1.57903 1.47971 0
M  V30 4677 C 449.346 1.33538 3.11373 0
M  V30 4678 C 447.905 1.10566 3.59795 0
M  V30 4679 C 447.052 1.44028 2.36962 0
M  V30 4680 H 450.003 1.18718 1.05317 0
M  V30 4681 H 450.024 0.726611 3.73498 0
M  V30 4682 H 449.536 2.41352 3.03926 0
M  V30 4683 H 447.637 0.0452405 3.72573 0
M  V30 4684 H 447.75 1.78661 4.44542 0
M  V30 4685 H 446.114 0.85933 2.39766 0
M  V30 4686 H 446.897 2.52901 2.32155 0
M  V30 4687 N 449.342 -1.36122 0.79427 0
M  V30 4688 C 450.589 -1.99111 0.368905 0
M  V30 4689 C 450.917 -1.63032 -1.0607 0
M  V30 4690 O 450.172 -0.879303 -1.74833 0
M  V30 4691 C 450.471 -3.5409 0.48527 0
M  V30 4692 C 450.137 -4.10003 1.87638 0
M  V30 4693 C 448.799 -4.24986 2.257 0
M  V30 4694 C 451.151 -4.40423 2.78706 0
M  V30 4695 C 448.479 -4.67701 3.54221 0
M  V30 4696 C 450.831 -4.84573 4.0666 0
M  V30 4697 C 449.495 -4.97761 4.44737 0
M  V30 4698 H 448.765 -0.7286 0.134992 0
M  V30 4699 H 451.412 -1.62534 1.01267 0
M  V30 4700 H 449.717 -3.91052 -0.241984 0
M  V30 4701 H 451.414 -4.00766 0.137109 0
M  V30 4702 H 448.004 -3.98784 1.57064 0
M  V30 4703 H 452.188 -4.28412 2.50553 0
M  V30 4704 H 447.444 -4.761 3.83587 0
M  V30 4705 H 451.618 -5.07074 4.77336 0
M  V30 4706 H 449.245 -5.30618 5.44379 0
M  V30 4707 N 450.82 -0.546701 -1.47814 0
M  V30 4708 C 452.048 -0.0232857 -2.06887 0
M  V30 4709 C 452.463 1.26571 -1.4009 0
M  V30 4710 O 451.82 1.7569 -0.493906 0
M  V30 4711 C 451.871 0.186975 -3.61016 0
M  V30 4712 O 451.592 -1.05097 -4.25307 0
M  V30 4713 C 453.093 0.748872 -4.36929 0
M  V30 4714 H 450.313 -0.0410763 -0.669742 0
M  V30 4715 H 452.857 -0.757117 -1.89968 0
M  V30 4716 H 451.012 0.870903 -3.77484 0
M  V30 4717 H 451.426 -0.842121 -5.17695 0
M  V30 4718 H 452.9 0.845334 -5.45489 0
M  V30 4719 H 453.377 1.75772 -4.02493 0
M  V30 4720 H 453.983 0.100979 -4.2518 0
M  V30 4721 N 452.299 1.55045 -0.282633 0
M  V30 4722 C 453.545 2.00056 0.332481 0
M  V30 4723 C 453.878 1.1708 1.54939 0
M  V30 4724 O 453.153 0.2427 1.9298 0
M  V30 4725 C 453.436 3.53086 0.70725 0
M  V30 4726 C 453.289 4.46813 -0.517521 0
M  V30 4727 C 454.608 4.12245 1.54084 0
M  V30 4728 H 451.727 0.727268 0.119373 0
M  V30 4729 H 454.369 1.85932 -0.391076 0
M  V30 4730 H 452.519 3.65253 1.32372 0
M  V30 4731 H 454.191 4.46579 -1.15607 0
M  V30 4732 H 452.434 4.18163 -1.1542 0
M  V30 4733 H 453.105 5.51595 -0.211426 0
M  V30 4734 H 455.581 4.03401 1.02013 0
M  V30 4735 H 454.457 5.19515 1.77186 0
M  V30 4736 H 454.718 3.62951 2.52427 0
M  V30 4737 N 453.777 0.010035 1.57597 0
M  V30 4738 C 454.724 -0.978122 2.09049 0
M  V30 4739 C 455.694 -1.33509 0.988159 0
M  V30 4740 O 456.879 -1.43172 1.26121 0
M  V30 4741 C 454.019 -2.26158 2.60666 0
M  V30 4742 C 453.132 -1.96275 3.84838 0
M  V30 4743 C 452.267 -3.18776 4.24918 0
M  V30 4744 C 451.306 -2.84625 5.41899 0
M  V30 4745 N 450.443 -3.99693 5.77226 0
M  V30 4746 H 455.283 -0.532431 2.93205 0
M  V30 4747 H 452.82 -0.251234 1.44939 0
M  V30 4748 H 454.778 -3.01202 2.88675 0
M  V30 4749 H 453.408 -2.68378 1.79369 0
M  V30 4750 H 452.46 -1.11555 3.63675 0
M  V30 4751 H 453.772 -1.67111 4.69974 0
M  V30 4752 H 452.926 -4.02157 4.54262 0
M  V30 4753 H 451.665 -3.51087 3.38511 0
M  V30 4754 H 450.67 -1.99653 5.12268 0
M  V30 4755 H 451.895 -2.53551 6.29991 0
M  V30 4756 H 449.841 -4.31882 4.93776 0
M  V30 4757 H 449.758 -3.74087 6.56959 0
M  V30 4758 H 451.026 -4.83834 6.11167 0
M  V30 4759 N 455.255 -1.55392 -0.262866 0
M  V30 4760 C 456.503 -1.76127 -0.991147 0
M  V30 4761 C 456.824 -0.571083 -1.8645 0
M  V30 4762 O 456.094 0.413698 -1.91482 0
M  V30 4763 H 454.674 -0.649528 -0.368948 0
M  V30 4764 H 457.336 -1.9281 -0.284655 0
M  V30 4765 H 456.432 -2.6663 -1.62219 0
M  V30 4766 N 456.733 0.527833 -1.48498 0
M  V30 4767 C 457.681 1.65313 -1.63628 0
M  V30 4768 C 458.675 1.6177 -0.502676 0
M  V30 4769 O 459.881 1.66601 -0.681469 0
M  V30 4770 H 456.256 0.547518 -0.515488 0
M  V30 4771 H 458.227 1.49696 -2.58135 0
M  V30 4772 C 456.976 3.03576 -1.6952 0
M  V30 4773 H 456.299 3.06997 -2.56111 0
M  V30 4774 H 457.739 3.81923 -1.84149 0
M  V30 4775 C 456.198 3.34089 -0.43432 0
M  V30 4776 O 456.728 3.99151 0.451852 0
M  V30 4777 N 454.934 2.88991 -0.305368 0
M  V30 4778 H 454.481 2.36222 -1.02747 0
M  V30 4779 H 454.439 3.09776 0.537249 0
M  V30 4780 N 458.211 1.37122 0.776871 0
M  V30 4781 C 459.622 1.28667 1.35284 0
M  V30 4782 C 459.973 -0.0680035 1.96082 0
M  V30 4783 O 459.098 -0.969743 1.93455 0
M  V30 4784 C 459.693 2.32997 2.45963 0
M  V30 4785 C 458.252 2.28191 2.99342 0
M  V30 4786 C 457.399 2.17101 1.72517 0
M  V30 4787 H 460.35 1.47819 0.577527 0
M  V30 4788 H 460.371 1.97366 3.2531 0
M  V30 4789 H 459.883 3.3158 2.01684 0
M  V30 4790 H 457.984 1.33115 3.4801 0
M  V30 4791 H 458.097 3.21397 3.55304 0
M  V30 4792 H 456.461 1.63562 1.95242 0
M  V30 4793 H 457.244 3.17591 1.30348 0
M  V30 4794 N 459.689 -1.00246 1.21608 0
M  V30 4795 C 460.636 -2.09073 0.977613 0
M  V30 4796 C 461.606 -1.65815 -0.097297 0
M  V30 4797 O 462.791 -1.90734 0.0503445 0
M  V30 4798 C 459.931 -3.40671 0.551133 0
M  V30 4799 C 459.044 -3.97326 1.69576 0
M  V30 4800 C 458.179 -5.17043 1.2182 0
M  V30 4801 C 457.218 -5.65813 2.335 0
M  V30 4802 N 456.355 -6.76778 1.86859 0
M  V30 4803 H 461.195 -2.28806 1.90924 0
M  V30 4804 H 458.732 -1.12186 0.951452 0
M  V30 4805 H 460.69 -4.16225 0.285097 0
M  V30 4806 H 459.32 -3.20967 -0.343489 0
M  V30 4807 H 458.372 -3.18734 2.07637 0
M  V30 4808 H 459.684 -4.29511 2.53617 0
M  V30 4809 H 458.838 -5.99852 0.908975 0
M  V30 4810 H 457.577 -4.86458 0.347869 0
M  V30 4811 H 456.582 -4.81599 2.65222 0
M  V30 4812 H 457.807 -5.98427 3.21033 0
M  V30 4813 H 455.753 -6.47994 1.02174 0
M  V30 4814 H 455.67 -7.08231 2.64471 0
M  V30 4815 H 456.938 -7.63116 1.58978 0
M  V30 4816 N 461.167 -1.02423 -1.1978 0
M  V30 4817 C 462.578 -0.748389 -1.71044 0
M  V30 4818 C 462.929 0.732398 -1.82017 0
M  V30 4819 O 462.054 1.57116 -1.48807 0
M  V30 4820 C 462.649 -1.35187 -3.1066 0
M  V30 4821 C 461.208 -1.12472 -3.59203 0
M  V30 4822 C 460.355 -1.45283 -2.36195 0
M  V30 4823 H 463.306 -1.19275 -1.04686 0
M  V30 4824 H 463.327 -0.746408 -3.73107 0
M  V30 4825 H 462.839 -2.4296 -3.02642 0
M  V30 4826 H 460.94 -0.0649983 -3.72543 0
M  V30 4827 H 461.053 -1.81016 -4.43588 0
M  V30 4828 H 459.417 -0.872034 -2.39307 0
M  V30 4829 H 460.2 -2.54129 -2.30811 0
M  V30 4830 N 462.645 1.35699 -0.801477 0
M  V30 4831 C 463.608 2.28199 -0.213994 0
M  V30 4832 C 464.608 1.49359 0.595691 0
M  V30 4833 O 465.798 1.69186 0.414921 0
M  V30 4834 C 462.93 3.33587 0.702297 0
M  V30 4835 H 464.123 2.81666 -1.02976 0
M  V30 4836 H 461.676 1.45467 -0.571759 0
M  V30 4837 H 462.411 2.85297 1.54195 0
M  V30 4838 H 462.196 3.91906 0.123484 0
M  V30 4839 H 463.686 4.02638 1.10783 0
M  V30 4840 N 464.123 0.554532 1.47522 0
M  V30 4841 C 465.053 -0.182974 2.32782 0
M  V30 4842 C 466.034 -0.911377 1.43624 0
M  V30 4843 O 467.219 -0.892366 1.72483 0
M  V30 4844 C 464.349 -1.21513 3.25349 0
M  V30 4845 C 463.303 -0.603355 4.23726 0
M  V30 4846 C 462.629 -1.73995 5.05598 0
M  V30 4847 C 463.929 0.441121 5.20434 0
M  V30 4848 H 465.623 0.52882 2.94693 0
M  V30 4849 H 463.169 0.255759 1.41711 0
M  V30 4850 H 465.122 -1.73922 3.83835 0
M  V30 4851 H 463.846 -1.95683 2.61487 0
M  V30 4852 H 462.505 -0.10059 3.66462 0
M  V30 4853 H 462.153 -2.47063 4.38143 0
M  V30 4854 H 461.853 -1.3364 5.72201 0
M  V30 4855 H 463.377 -2.26735 5.66942 0
M  V30 4856 H 464.791 0.00319931 5.733 0
M  V30 4857 H 463.188 0.763402 5.95224 0
M  V30 4858 H 464.258 1.33799 4.66075 0
M  V30 4859 N 465.601 -1.54893 0.290851 0
M  V30 4860 C 466.533 -2.20564 -0.623236 0
M  V30 4861 C 467.546 -1.19519 -1.1054 0
M  V30 4862 O 468.735 -1.46165 -1.02459 0
M  V30 4863 C 465.835 -2.83033 -1.86401 0
M  V30 4864 C 465.008 -4.09916 -1.52604 0
M  V30 4865 C 464.067 -4.56284 -2.62091 0
M  V30 4866 O 463.093 -5.2171 -2.27612 0
M  V30 4867 N 464.295 -4.27746 -3.92446 0
M  V30 4868 H 467.06 -2.99638 -0.0610915 0
M  V30 4869 H 464.621 -1.61508 0.112615 0
M  V30 4870 H 466.613 -3.1099 -2.58973 0
M  V30 4871 H 465.183 -2.0786 -2.33481 0
M  V30 4872 H 464.403 -3.89078 -0.633424 0
M  V30 4873 H 465.691 -4.92554 -1.27547 0
M  V30 4874 H 465.089 -3.7531 -4.23272 0
M  V30 4875 H 463.646 -4.60437 -4.61347 0
M  V30 4876 N 467.08 -0.0183926 -1.57589 0
M  V30 4877 C 468.326 0.657813 -1.92469 0
M  V30 4878 C 468.681 1.70349 -0.894375 0
M  V30 4879 O 467.974 1.91384 0.0910389 0
M  V30 4880 C 468.168 1.32676 -3.31861 0
M  V30 4881 C 467.997 0.347403 -4.48356 0
M  V30 4882 C 466.767 -0.0488653 -5.05276 0
M  V30 4883 C 468.965 -0.393931 -5.12789 0
M  V30 4884 N 466.947 -1.02451 -6.05291 0
M  V30 4885 C 468.318 -1.22367 -6.07804 0
M  V30 4886 C 470.373 -0.455789 -4.95809 0
M  V30 4887 C 469.076 -2.10966 -6.87667 0
M  V30 4888 C 471.102 -1.32908 -5.76272 0
M  V30 4889 C 470.464 -2.14662 -6.70894 0
M  V30 4890 H 466.563 0.21335 -0.752334 0
M  V30 4891 H 469.147 -0.0830547 -1.94523 0
M  V30 4892 H 467.318 2.03782 -3.30647 0
M  V30 4893 H 469.05 1.95913 -3.54119 0
M  V30 4894 H 465.805 0.323356 -4.72495 0
M  V30 4895 H 466.229 -1.50826 -6.59985 0
M  V30 4896 H 470.871 0.162017 -4.22489 0
M  V30 4897 H 468.589 -2.73807 -7.603 0
M  V30 4898 H 472.175 -1.38109 -5.6517 0
M  V30 4899 H 471.055 -2.81143 -7.32071 0
M  V30 4900 N 468.558 1.5553 0.254621 0
M  V30 4901 C 469.805 1.77 0.983736 0
M  V30 4902 C 470.133 0.58133 1.85609 0
M  V30 4903 O 469.388 -0.435621 1.9079 0
M  V30 4904 C 469.687 3.03891 1.88109 0
M  V30 4905 C 469.353 4.35597 1.16472 0
M  V30 4906 C 468.015 4.7139 0.966714 0
M  V30 4907 C 470.367 5.1705 0.656387 0
M  V30 4908 C 467.695 5.86176 0.247942 0
M  V30 4909 C 470.047 6.32581 -0.0488807 0
M  V30 4910 C 468.711 6.67 -0.258438 0
M  V30 4911 H 467.981 0.647688 0.359974 0
M  V30 4912 H 470.628 1.89802 0.254463 0
M  V30 4913 H 468.933 2.86068 2.67717 0
M  V30 4914 H 470.63 3.17701 2.44677 0
M  V30 4915 H 467.22 4.07475 1.32899 0
M  V30 4916 H 471.404 4.8986 0.796933 0
M  V30 4917 H 466.66 6.11354 0.075035 0
M  V30 4918 H 470.834 6.94942 -0.450444 0
M  V30 4919 H 468.461 7.55793 -0.817358 0
M  V30 4920 N 470.036 -0.519951 1.48776 0
M  V30 4921 C 471.266 -1.29783 1.60748 0
M  V30 4922 C 471.674 -1.87253 0.27072 0
M  V30 4923 O 471.017 -1.67628 -0.751438 0
M  V30 4924 C 471.079 -2.47984 2.60277 0
M  V30 4925 C 470.743 -2.11526 4.051 0
M  V30 4926 C 471.74 -1.66608 4.92481 0
M  V30 4927 C 469.425 -2.21742 4.50706 0
M  V30 4928 C 471.419 -1.32384 6.23501 0
M  V30 4929 C 469.106 -1.87129 5.81744 0
M  V30 4930 C 470.104 -1.42523 6.67964 0
M  V30 4931 O 469.792 -1.0837 7.96562 0
M  V30 4932 H 469.524 -0.400562 0.544542 0
M  V30 4933 H 472.078 -0.632879 1.95407 0
M  V30 4934 H 470.308 -3.17493 2.2076 0
M  V30 4935 H 471.997 -3.10036 2.61978 0
M  V30 4936 H 472.763 -1.58178 4.58481 0
M  V30 4937 H 468.642 -2.55415 3.83776 0
M  V30 4938 H 472.186 -0.974949 6.90754 0
M  V30 4939 H 468.083 -1.95204 6.15277 0
M  V30 4940 H 468.851 -1.21681 8.09405 0
M  V30 4941 N 471.514 -1.37532 -0.769588 0
M  V30 4942 C 472.462 -1.33561 -1.90432 0
M  V30 4943 C 473.456 -0.224027 -1.67912 0
M  V30 4944 O 474.662 -0.392174 -1.75676 0
M  V30 4945 H 471.037 -0.416279 -0.626271 0
M  V30 4946 H 473.008 -2.29348 -1.90899 0
M  V30 4947 C 471.757 -1.16162 -3.27722 0
M  V30 4948 H 471.08 -2.00951 -3.45628 0
M  V30 4949 H 472.52 -1.17434 -4.07413 0
M  V30 4950 C 470.979 0.132583 -3.36639 0
M  V30 4951 O 471.509 1.11539 -3.85904 0
M  V30 4952 N 469.715 0.184013 -2.90017 0
M  V30 4953 H 469.262 -0.616415 -2.50116 0
M  V30 4954 H 469.22 1.04956 -2.96364 0
M  V30 4955 N 472.992 0.995999 -1.22138 0
M  V30 4956 C 474.24 1.73167 -1.042 0
M  V30 4957 C 474.561 1.90329 0.42423 0
M  V30 4958 O 473.831 1.4607 1.30539 0
M  V30 4959 H 472.411 0.641593 -0.38258 0
M  V30 4960 H 475.073 1.19974 -1.53598 0
M  V30 4961 H 474.169 2.72734 -1.51731 0
M  V30 4962 N 474.47 1.03057 1.19235 0
M  V30 4963 C 475.433 0.617418 2.20727 0
M  V30 4964 C 476.433 -0.319856 1.57587 0
M  V30 4965 O 477.623 -0.106633 1.73873 0
M  V30 4966 C 474.755 -0.096296 3.40764 0
M  V30 4967 H 475.948 1.51544 2.58794 0
M  V30 4968 H 473.501 0.821949 1.32942 0
M  V30 4969 H 474.236 -1.00859 3.08217 0
M  V30 4970 H 474.021 0.577217 3.87828 0
M  V30 4971 H 475.511 -0.372219 4.15938 0
M  V30 4972 N 475.948 -1.35272 0.808662 0
M  V30 4973 C 477.197 -1.97963 0.386483 0
M  V30 4974 C 477.51 -1.64866 -1.05255 0
M  V30 4975 O 478.716 -2.20937 -1.57794 0
M  V30 4976 C 477.172 -3.54162 0.640096 0
M  V30 4977 C 476.78 -3.96166 2.0918 0
M  V30 4978 C 478.524 -4.23553 0.283376 0
M  V30 4979 C 476.431 -5.4522 2.29106 0
M  V30 4980 H 475.361 -0.740742 0.140774 0
M  V30 4981 H 478.012 -1.5431 0.993012 0
M  V30 4982 H 476.394 -3.95983 -0.0364117 0
M  V30 4983 H 477.568 -3.65491 2.80629 0
M  V30 4984 H 475.883 -3.3967 2.40859 0
M  V30 4985 H 478.48 -5.33124 0.410273 0
M  V30 4986 H 478.823 -4.09105 -0.770659 0
M  V30 4987 H 479.356 -3.8716 0.913884 0
M  V30 4988 H 476.095 -5.64638 3.32962 0
M  V30 4989 H 475.615 -5.77457 1.62184 0
M  V30 4990 H 477.294 -6.1171 2.1076 0
M  V30 4991 N 477.426 -0.562348 -1.47226 0
M  V30 4992 C 478.356 0.170627 -2.32876 0
M  V30 4993 C 479.337 0.903748 -1.44106 0
M  V30 4994 O 480.522 0.883206 -1.72954 0
M  V30 4995 C 477.652 1.19786 -3.25989 0
M  V30 4996 C 476.606 0.580875 -4.2404 0
M  V30 4997 C 475.932 1.71311 -5.06514 0
M  V30 4998 C 477.232 -0.468714 -5.20193 0
M  V30 4999 H 478.926 -0.544441 -2.94408 0
M  V30 5000 H 476.472 -0.263271 -1.41573 0
M  V30 5001 H 478.425 1.71884 -3.84752 0
M  V30 5002 H 477.149 1.94294 -2.62521 0
M  V30 5003 H 475.808 0.0811538 -3.6651 0
M  V30 5004 H 475.456 2.44736 -4.39447 0
M  V30 5005 H 475.156 1.30604 -5.72902 0
M  V30 5006 H 476.68 2.23725 -5.68137 0
M  V30 5007 H 478.094 -0.0336028 -5.7329 0
M  V30 5008 H 476.491 -0.794957 -5.94811 0
M  V30 5009 H 477.561 -1.36269 -4.65359 0
M  V30 5010 N 478.904 1.54736 -0.299062 0
M  V30 5011 C 479.852 2.24897 0.593658 0
M  V30 5012 C 480.846 1.25429 1.13859 0
M  V30 5013 O 482.052 1.43286 1.08945 0
M  V30 5014 H 478.427 0.72207 0.210046 0
M  V30 5015 H 480.398 2.98393 -0.0206421 0
M  V30 5016 C 479.147 3.00159 1.75499 0
M  V30 5017 H 478.47 3.76501 1.34489 0
M  V30 5018 H 479.91 3.52535 2.35574 0
M  V30 5019 C 478.369 2.07015 2.65794 0
M  V30 5020 O 478.899 1.63692 3.66835 0
M  V30 5021 N 477.105 1.73012 2.33485 0
M  V30 5022 H 476.652 2.08439 1.51364 0
M  V30 5023 H 476.61 1.10965 2.94167 0
M  V30 5024 N 480.382 0.0267497 1.57577 0
M  V30 5025 C 481.292 -0.971633 2.13533 0
M  V30 5026 C 482.308 -1.35868 1.08701 0
M  V30 5027 O 483.484 -1.44058 1.40746 0
M  V30 5028 C 480.549 -2.23622 2.64941 0
M  V30 5029 C 479.61 -1.90982 3.8448 0
M  V30 5030 C 478.843 -3.11411 4.33427 0
M  V30 5031 O 479.066 -4.23992 3.81558 0
M  V30 5032 O 478 -2.93848 5.25297 0
M  V30 5033 H 481.826 -0.525853 2.99113 0
M  V30 5034 H 479.411 -0.193712 1.48139 0
M  V30 5035 H 481.293 -2.97864 2.98086 0
M  V30 5036 H 479.968 -2.67386 1.82446 0
M  V30 5037 H 478.875 -1.14132 3.56265 0
M  V30 5038 H 480.208 -1.52036 4.6813 0
M  V30 5039 N 481.861 -1.55662 -0.24637 0
M  V30 5040 C 483.086 -1.81914 -0.996093 0
M  V30 5041 C 483.511 -0.603875 -1.78143 0
M  V30 5042 O 482.869 0.447091 -1.75701 0
M  V30 5043 C 482.917 -3.05908 -1.90925 0
M  V30 5044 O 482.021 -2.82861 -3.00105 0
M  V30 5045 H 481.362 -0.600481 -0.283406 0
M  V30 5046 H 483.892 -2.02848 -0.267199 0
M  V30 5047 H 483.902 -3.35356 -2.3238 0
M  V30 5048 H 482.577 -3.93999 -1.33183 0
M  V30 5049 H 481.154 -2.64583 -2.62775 0
M  V30 5050 N 483.339 0.512053 -1.4905 0
M  V30 5051 C 484.286 1.6148 -1.64902 0
M  V30 5052 C 485.256 1.58687 -0.490673 0
M  V30 5053 O 486.441 1.76842 -0.71636 0
M  V30 5054 C 483.581 2.99676 -1.71139 0
M  V30 5055 C 482.694 3.12568 -2.98203 0
M  V30 5056 C 481.829 4.4143 -2.95487 0
M  V30 5057 C 480.868 4.47916 -4.17179 0
M  V30 5058 N 480.005 5.68191 -4.12437 0
M  V30 5059 H 484.845 1.47271 -2.59066 0
M  V30 5060 H 482.382 0.716713 -1.28459 0
M  V30 5061 H 484.34 3.79761 -1.72736 0
M  V30 5062 H 482.97 3.12614 -0.804508 0
M  V30 5063 H 482.022 2.25618 -3.06269 0
M  V30 5064 H 483.334 3.1322 -3.88194 0
M  V30 5065 H 482.488 5.29825 -2.95585 0
M  V30 5066 H 481.227 4.43326 -2.03256 0
M  V30 5067 H 480.232 3.57925 -4.17337 0
M  V30 5068 H 481.457 4.47744 -5.1059 0
M  V30 5069 H 479.403 5.7095 -3.23036 0
M  V30 5070 H 479.32 5.70413 -4.96151 0
M  V30 5071 H 480.588 6.58823 -4.16621 0
M  V30 5072 N 484.817 1.37938 0.762283 0
M  V30 5073 C 486.047 1.36685 1.54922 0
M  V30 5074 C 486.455 -0.0474099 1.89141 0
M  V30 5075 O 485.798 -1.02213 1.52638 0
M  V30 5076 C 485.86 2.14963 2.88152 0
M  V30 5077 C 485.524 3.6385 2.76518 0
M  V30 5078 C 486.521 4.57531 2.46904 0
M  V30 5079 C 484.206 4.07095 2.94243 0
M  V30 5080 C 486.2 5.92436 2.35156 0
M  V30 5081 C 483.887 5.42083 2.82116 0
M  V30 5082 C 484.885 6.34567 2.52614 0
M  V30 5083 O 484.573 7.67073 2.40529 0
M  V30 5084 H 484.305 0.469586 0.486276 0
M  V30 5085 H 486.859 1.82012 0.951876 0
M  V30 5086 H 485.089 1.6434 3.50042 0
M  V30 5087 H 486.778 2.06224 3.49609 0
M  V30 5088 H 487.544 4.25428 2.32886 0
M  V30 5089 H 483.423 3.35462 3.16206 0
M  V30 5090 H 486.967 6.64591 2.12049 0
M  V30 5091 H 482.864 5.73785 2.95704 0
M  V30 5092 H 483.632 7.77499 2.55807 0
M  V30 5093 N 486.295 -0.989507 1.22664 0
M  V30 5094 C 487.544 -1.72375 1.04737 0
M  V30 5095 C 487.857 -1.91096 -0.417316 0
M  V30 5096 O 489.063 -2.6188 -0.716334 0
M  V30 5097 C 487.519 -3.10161 1.82561 0
M  V30 5098 C 487.127 -2.99358 3.333 0
M  V30 5099 C 488.871 -3.87607 1.73093 0
M  V30 5100 C 486.778 -4.32319 4.03552 0
M  V30 5101 H 485.708 -0.646326 0.388302 0
M  V30 5102 H 488.359 -1.10437 1.46546 0
M  V30 5103 H 486.741 -3.728 1.33552 0
M  V30 5104 H 487.915 -2.45863 3.89728 0
M  V30 5105 H 486.23 -2.35392 3.43481 0
M  V30 5106 H 488.827 -4.86025 2.22899 0
M  V30 5107 H 489.17 -4.10509 0.691976 0
M  V30 5108 H 489.703 -3.31652 2.19663 0
M  V30 5109 H 486.442 -4.14616 5.07714 0
M  V30 5110 H 485.962 -4.85714 3.51911 0
M  V30 5111 H 487.641 -5.01051 4.09337 0
M  V30 5112 N 487.773 -1.03688 -1.18687 0
M  V30 5113 C 489.013 -0.746858 -1.90267 0
M  V30 5114 C 489.377 0.712075 -1.78307 0
M  V30 5115 O 490.578 1.11553 -2.44559 0
M  V30 5116 C 488.849 -1.19543 -3.36815 0
M  V30 5117 S 490.408 -1.03047 -4.26529 0
M  V30 5118 H 487.226 -0.271663 -0.657054 0
M  V30 5119 H 489.828 -1.32838 -1.43437 0
M  V30 5120 H 488.532 -2.2527 -3.43047 0
M  V30 5121 H 488.063 -0.607533 -3.88681 0
M  V30 5122 H 490.078 0.0543232 -4.9617 0
M  V30 5123 N 489.251 1.34841 -0.815825 0
M  V30 5124 C 490.479 2.0273 -0.413294 0
M  V30 5125 C 490.894 1.61459 0.978599 0
M  V30 5126 O 490.251 0.816584 1.63212 0
M  V30 5127 C 490.302 3.58058 -0.497676 0
M  V30 5128 O 490.023 3.97832 -1.8347 0
M  V30 5129 C 491.524 4.4321 -0.0891339 0
M  V30 5130 H 488.744 0.649956 -0.166728 0
M  V30 5131 H 491.288 1.72267 -1.10201 0
M  V30 5132 H 489.443 3.87136 0.142886 0
M  V30 5133 H 489.857 4.92501 -1.80396 0
M  V30 5134 H 491.331 5.5164 -0.199274 0
M  V30 5135 H 491.808 4.28432 0.966571 0
M  V30 5136 H 492.414 4.19446 -0.703214 0
M  V30 5137 N 490.729 0.570148 1.46925 0
M  V30 5138 C 491.676 -0.170257 2.30171 0
M  V30 5139 C 492.646 -0.896099 1.39855 0
M  V30 5140 O 493.831 -0.889248 1.68811 0
M  V30 5141 C 490.971 -1.18605 3.24079 0
M  V30 5142 C 490.084 -0.464947 4.29491 0
M  V30 5143 C 489.219 -1.46716 5.10537 0
M  V30 5144 C 488.258 -0.731758 6.0771 0
M  V30 5145 N 487.395 -1.68142 6.81669 0
M  V30 5146 H 492.235 0.545713 2.92961 0
M  V30 5147 H 489.772 0.280938 1.44392 0
M  V30 5148 H 491.73 -1.78771 3.76957 0
M  V30 5149 H 490.36 -1.86989 2.63125 0
M  V30 5150 H 489.412 0.251506 3.79568 0
M  V30 5151 H 490.724 0.110548 4.98677 0
M  V30 5152 H 489.878 -2.14199 5.6763 0
M  V30 5153 H 488.617 -2.07658 4.41282 0
M  V30 5154 H 487.622 -0.0430787 5.49783 0
M  V30 5155 H 488.847 -0.127904 6.7898 0
M  V30 5156 H 486.793 -2.27918 6.15134 0
M  V30 5157 H 486.71 -1.15841 7.47072 0
M  V30 5158 H 487.978 -2.347 7.43328 0
M  V30 5159 N 492.207 -1.54576 0.307264 0
M  V30 5160 C 493.456 -1.99442 -0.300976 0
M  V30 5161 C 493.769 -1.19928 -1.5452 0
M  V30 5162 O 494.975 -1.55092 -2.22842 0
M  V30 5163 C 493.431 -3.55084 -0.586809 0
M  V30 5164 C 493.039 -4.43413 0.639438 0
M  V30 5165 C 494.783 -4.0846 -1.1559 0
M  V30 5166 C 492.69 -5.90499 0.326411 0
M  V30 5167 H 491.62 -0.744986 -0.116238 0
M  V30 5168 H 494.271 -1.787 0.416947 0
M  V30 5169 H 492.653 -3.71749 -1.36449 0
M  V30 5170 H 493.827 -4.38522 1.41545 0
M  V30 5171 H 492.142 -4.00842 1.1276 0
M  V30 5172 H 494.739 -5.15926 -1.40445 0
M  V30 5173 H 495.082 -3.59443 -2.10015 0
M  V30 5174 H 495.615 -3.95362 -0.439778 0
M  V30 5175 H 492.354 -6.43676 1.23939 0
M  V30 5176 H 491.874 -5.98382 -0.412212 0
M  V30 5177 H 493.553 -6.46962 -0.0697393 0
M  V30 5178 N 493.685 -0.035106 -1.57561 0
M  V30 5179 C 494.635 0.954034 -2.0708 0
M  V30 5180 C 495.619 1.2818 -0.972558 0
M  V30 5181 O 496.811 1.26691 -1.23606 0
M  V30 5182 C 493.94 2.23442 -2.60631 0
M  V30 5183 C 493.026 1.93475 -3.77396 0
M  V30 5184 N 493.417 1.33802 -4.87781 0
M  V30 5185 C 491.715 2.23434 -3.85996 0
M  V30 5186 C 492.416 1.21103 -5.68954 0
M  V30 5187 N 491.392 1.70855 -5.16052 0
M  V30 5188 H 495.194 0.487731 -2.89825 0
M  V30 5189 H 492.708 0.169759 -1.6151 0
M  V30 5190 H 494.705 2.95183 -2.94402 0
M  V30 5191 H 493.365 2.70693 -1.79319 0
M  V30 5192 H 494.376 1.01227 -5.07911 0
M  V30 5193 H 491.053 2.73317 -3.15601 0
M  V30 5194 H 492.443 0.749105 -6.67711 0
M  V30 5195 N 495.163 1.55791 0.238111 0
M  V30 5196 C 496.409 1.78297 0.966337 0
M  V30 5197 C 496.742 0.601903 1.84637 0
M  V30 5198 O 496.017 -0.399499 1.90353 0
M  V30 5199 C 496.3 3.10758 1.81939 0
M  V30 5200 C 496.153 4.39283 0.966958 0
M  V30 5201 C 497.472 3.39519 2.80027 0
M  V30 5202 H 494.591 0.648654 0.349882 0
M  V30 5203 H 497.233 1.88525 0.236253 0
M  V30 5204 H 495.383 3.02168 2.44185 0
M  V30 5205 H 497.055 4.59873 0.362514 0
M  V30 5206 H 495.298 4.32948 0.271669 0
M  V30 5207 H 495.969 5.28368 1.59784 0
M  V30 5208 H 498.445 3.48128 2.27917 0
M  V30 5209 H 497.321 4.33402 3.36829 0
M  V30 5210 H 497.582 2.60864 3.56934 0
M  V30 5211 N 496.642 -0.504142 1.49319 0
M  V30 5212 C 497.87 -1.28256 1.62351 0
M  V30 5213 C 498.285 -1.86502 0.293682 0
M  V30 5214 O 497.642 -1.67678 -0.720449 0
M  V30 5215 C 497.693 -2.41507 2.68992 0
M  V30 5216 O 497.414 -1.85656 3.96817 0
M  V30 5217 C 498.915 -3.32929 2.927 0
M  V30 5218 H 496.135 -0.389115 0.546654 0
M  V30 5219 H 498.679 -0.605531 1.95329 0
M  V30 5220 H 496.834 -3.05046 2.38801 0
M  V30 5221 H 497.248 -2.59981 4.55533 0
M  V30 5222 H 498.722 -4.0868 3.71058 0
M  V30 5223 H 499.199 -3.89733 2.02496 0
M  V30 5224 H 499.805 -2.75158 3.24296 0
M  V30 5225 N 498.12 -1.38341 -0.754957 0
M  V30 5226 C 499.068 -1.35573 -1.89005 0
M  V30 5227 C 500.062 -0.241824 -1.67665 0
M  V30 5228 O 501.268 -0.410785 -1.7525 0
M  V30 5229 H 497.643 -0.422898 -0.621821 0
M  V30 5230 H 499.614 -2.31359 -1.88455 0
M  V30 5231 C 498.363 -1.19631 -3.26471 0
M  V30 5232 H 497.686 -2.04605 -3.43477 0
M  V30 5233 H 499.126 -1.21748 -4.06144 0
M  V30 5234 C 497.585 0.0968705 -3.36761 0
M  V30 5235 O 498.115 1.07439 -3.87066 0
M  V30 5236 N 496.321 0.153242 -2.90196 0
M  V30 5237 H 495.868 -0.642908 -2.49448 0
M  V30 5238 H 495.826 1.01807 -2.9746 0
M  V30 5239 N 499.598 0.982988 -1.23187 0
M  V30 5240 C 500.548 2.05962 -0.977942 0
M  V30 5241 C 501.532 1.60725 0.0751148 0
M  V30 5242 O 502.724 1.76471 -0.136683 0
M  V30 5243 C 499.853 3.38564 -0.568276 0
M  V30 5244 C 498.939 3.90407 -1.6566 0
M  V30 5245 N 499.33 4.15359 -2.88635 0
M  V30 5246 C 497.628 4.18915 -1.53058 0
M  V30 5247 C 498.329 4.57642 -3.5908 0
M  V30 5248 N 497.305 4.6192 -2.86584 0
M  V30 5249 H 501.107 2.23208 -1.91195 0
M  V30 5250 H 498.621 1.16555 -1.13087 0
M  V30 5251 H 500.618 4.15276 -0.36764 0
M  V30 5252 H 499.278 3.22712 0.358713 0
M  V30 5253 H 500.289 4.03258 -3.24966 0
M  V30 5254 H 496.966 4.12081 -0.670506 0
M  V30 5255 H 498.356 4.85488 -4.6449 0
M  V30 5256 N 501.076 1.04316 1.18135 0
M  V30 5257 C 502.304 0.768117 1.92113 0
M  V30 5258 C 502.719 -0.675057 1.76319 0
M  V30 5259 O 502.076 -1.46038 1.09449 0
M  V30 5260 C 502.127 1.12808 3.43448 0
M  V30 5261 O 501.848 2.5146 3.58747 0
M  V30 5262 C 503.349 0.8779 4.3452 0
M  V30 5263 H 500.569 0.279937 0.609817 0
M  V30 5264 H 503.113 1.39149 1.49859 0
M  V30 5265 H 501.268 0.549623 3.83481 0
M  V30 5266 H 501.682 2.65313 4.52448 0
M  V30 5267 H 503.156 1.17959 5.39249 0
M  V30 5268 H 503.633 -0.187239 4.38801 0
M  V30 5269 H 504.239 1.43977 4.00188 0
M  V30 5270 N 502.554 -1.34406 0.822964 0
M  V30 5271 C 503.464 -2.33298 0.246838 0
M  V30 5272 C 504.48 -1.62625 -0.618797 0
M  V30 5273 O 505.656 -1.94391 -0.526685 0
M  V30 5274 C 502.721 -3.41785 -0.581731 0
M  V30 5275 C 501.782 -4.28206 0.306309 0
M  V30 5276 C 501.015 -5.31512 -0.48281 0
M  V30 5277 O 501.238 -5.43973 -1.71607 0
M  V30 5278 O 500.172 -6.01749 0.134884 0
M  V30 5279 H 503.998 -2.84401 1.06534 0
M  V30 5280 H 501.583 -1.37466 0.585108 0
M  V30 5281 H 503.465 -4.08028 -1.05313 0
M  V30 5282 H 502.14 -2.92925 -1.37756 0
M  V30 5283 H 501.047 -3.64885 0.825199 0
M  V30 5284 H 502.38 -4.80507 1.06649 0
M  V30 5285 N 504.032 -0.577932 -1.46621 0
M  V30 5286 C 505.262 -0.0670668 -2.06491 0
M  V30 5287 C 505.67 1.24119 -1.42798 0
M  V30 5288 O 505.013 1.76016 -0.525759 0
M  V30 5289 C 505.075 0.177995 -3.59059 0
M  V30 5290 C 504.739 -1.04394 -4.44917 0
M  V30 5291 C 505.736 -1.95479 -4.81751 0
M  V30 5292 C 503.421 -1.26444 -4.86125 0
M  V30 5293 C 505.415 -3.06965 -5.58615 0
M  V30 5294 C 503.102 -2.38237 -5.62749 0
M  V30 5295 C 504.1 -3.28327 -5.98908 0
M  V30 5296 O 503.788 -4.38179 -6.73984 0
M  V30 5297 H 503.52 -0.0523159 -0.673973 0
M  V30 5298 H 506.074 -0.796966 -1.89308 0
M  V30 5299 H 504.304 0.962451 -3.74531 0
M  V30 5300 H 505.993 0.636782 -4.00874 0
M  V30 5301 H 506.759 -1.79657 -4.50498 0
M  V30 5302 H 502.638 -0.572316 -4.57434 0
M  V30 5303 H 506.182 -3.77309 -5.86757 0
M  V30 5304 H 502.079 -2.54023 -5.93416 0
M  V30 5305 H 502.847 -4.36486 -6.92403 0
M  V30 5306 N 505.51 1.54411 -0.315457 0
M  V30 5307 C 506.46 2.20772 0.569549 0
M  V30 5308 C 507.444 1.18551 1.08787 0
M  V30 5309 O 508.636 1.44213 1.02624 0
M  V30 5310 C 505.765 2.96293 1.73394 0
M  V30 5311 C 504.851 4.05844 1.2309 0
M  V30 5312 N 505.242 5.03822 0.446927 0
M  V30 5313 C 503.54 4.19648 1.51035 0
M  V30 5314 C 504.241 5.8143 0.17725 0
M  V30 5315 N 503.217 5.38245 0.761118 0
M  V30 5316 H 507.019 2.93877 -0.0368076 0
M  V30 5317 H 504.533 1.61949 -0.120915 0
M  V30 5318 H 506.53 3.42313 2.37965 0
M  V30 5319 H 505.19 2.24708 2.34386 0
M  V30 5320 H 506.201 5.17821 0.0905027 0
M  V30 5321 H 502.878 3.59274 2.1267 0
M  V30 5322 H 504.268 6.70369 -0.45335 0
M  V30 5323 N 506.988 0.0434614 1.5754 0
M  V30 5324 C 508.236 -0.630786 1.92004 0
M  V30 5325 C 508.557 -1.71836 0.921807 0
M  V30 5326 O 507.827 -1.9587 -0.034522 0
M  V30 5327 H 506.407 -0.235988 0.708745 0
M  V30 5328 H 509.069 0.0946462 1.9467 0
M  V30 5329 H 508.165 -1.07434 2.93026 0
M  V30 5330 N 508.466 -1.55915 -0.229846 0
M  V30 5331 C 509.706 -1.80314 -0.962614 0
M  V30 5332 C 510.07 -0.61568 -1.81861 0
M  V30 5333 O 511.271 -0.738795 -2.58448 0
M  V30 5334 C 509.542 -3.0956 -1.78627 0
M  V30 5335 S 511.101 -3.55243 -2.57581 0
M  V30 5336 H 507.919 -0.633142 -0.323499 0
M  V30 5337 H 510.521 -1.94155 -0.228919 0
M  V30 5338 H 509.225 -3.94033 -1.14742 0
M  V30 5339 H 508.756 -2.98503 -2.56241 0
M  V30 5340 H 510.771 -3.17924 -3.80971 0
M  V30 5341 N 509.944 0.496216 -1.49584 0
M  V30 5342 C 510.874 1.60576 -1.69521 0
M  V30 5343 C 511.855 1.61169 -0.543933 0
M  V30 5344 O 513.04 1.77834 -0.78031 0
M  V30 5345 C 510.17 2.99038 -1.76616 0
M  V30 5346 C 509.124 3.13312 -2.91581 0
M  V30 5347 C 508.45 4.53172 -2.83794 0
M  V30 5348 C 509.75 2.92886 -4.32452 0
M  V30 5349 H 511.444 1.44146 -2.62416 0
M  V30 5350 H 508.99 0.692024 -1.26282 0
M  V30 5351 H 510.943 3.76564 -1.8915 0
M  V30 5352 H 509.667 3.16568 -0.80324 0
M  V30 5353 H 508.326 2.38213 -2.78658 0
M  V30 5354 H 507.974 4.67585 -1.854 0
M  V30 5355 H 507.674 4.63662 -3.60958 0
M  V30 5356 H 509.198 5.32752 -2.98342 0
M  V30 5357 H 510.612 3.60178 -4.46032 0
M  V30 5358 H 509.009 3.14844 -5.10875 0
M  V30 5359 H 510.079 1.88966 -4.46565 0
M  V30 5360 N 511.423 1.38739 0.74761 0
M  V30 5361 C 512.355 1.32341 1.87132 0
M  V30 5362 C 513.368 0.234502 1.61102 0
M  V30 5363 O 514.557 0.492516 1.71571 0
M  V30 5364 C 511.657 1.02915 3.22896 0
M  V30 5365 C 510.83 2.22834 3.76383 0
M  V30 5366 C 509.889 1.90059 4.90677 0
M  V30 5367 O 508.915 2.62615 5.04997 0
M  V30 5368 N 510.117 0.859141 5.74107 0
M  V30 5369 H 512.882 2.29175 1.93129 0
M  V30 5370 H 510.443 1.32678 0.927805 0
M  V30 5371 H 512.435 0.79031 3.96908 0
M  V30 5372 H 511.005 0.148572 3.12247 0
M  V30 5373 H 510.225 2.62747 2.93867 0
M  V30 5374 H 511.513 3.02851 4.08851 0
M  V30 5375 H 510.911 0.257564 5.65113 0
M  V30 5376 H 509.468 0.680189 6.48241 0
M  V30 5377 N 512.901 -0.976442 1.23707 0
M  V30 5378 C 513.831 -2.08749 1.04624 0
M  V30 5379 C 514.812 -1.70057 -0.0380956 0
M  V30 5380 O 515.997 -1.93782 0.127308 0
M  V30 5381 C 513.127 -3.41335 0.640902 0
M  V30 5382 C 512.081 -3.93947 1.67302 0
M  V30 5383 C 511.407 -5.22774 1.12301 0
M  V30 5384 C 512.707 -4.22769 3.06697 0
M  V30 5385 H 514.401 -2.24972 1.97555 0
M  V30 5386 H 511.947 -1.08108 0.951247 0
M  V30 5387 H 513.9 -4.18489 0.494434 0
M  V30 5388 H 512.624 -3.24988 -0.324099 0
M  V30 5389 H 511.283 -3.18941 1.80755 0
M  V30 5390 H 510.931 -5.0278 0.148877 0
M  V30 5391 H 510.631 -5.58942 1.81267 0
M  V30 5392 H 512.155 -6.02546 0.988479 0
M  V30 5393 H 513.569 -4.90659 2.96524 0
M  V30 5394 H 511.966 -4.70147 3.72937 0
M  V30 5395 H 513.036 -3.29885 3.55392 0
M  V30 5396 N 514.379 -1.04941 -1.1758 0
M  V30 5397 C 515.656 -0.671918 -1.83697 0
M  V30 5398 C 516.036 0.847929 -1.93322 0
M  V30 5399 O 515.384 1.75287 -1.46583 0
M  V30 5400 C 515.594 -1.35797 -3.21497 0
M  V30 5401 C 516.942 -1.4944 -3.97433 0
M  V30 5402 O 517.966 -1.31678 -3.30967 0
M  V30 5403 O 516.825 -1.78463 -5.1654 0
M  V30 5404 H 513.919 -0.236212 -0.792548 0
M  V30 5405 H 516.465 -1.14884 -1.24899 0
M  V30 5406 H 515.237 -2.39498 -3.09446 0
M  V30 5407 H 514.86 -0.870236 -3.8796 0
M  V30 5408 N 515.857 1.33968 -0.830081 0
M  V30 5409 C 516.805 2.31301 -0.245435 0
M  V30 5410 C 517.799 1.57734 0.617762 0
M  V30 5411 O 519.005 1.72674 0.508303 0
M  V30 5412 H 515.38 0.749552 -0.0606316 0
M  V30 5413 H 517.351 2.78129 -1.08105 0
M  V30 5414 C 516.1 3.42961 0.572084 0
M  V30 5415 H 515.423 3.99714 -0.0828118 0
M  V30 5416 H 516.863 4.13286 0.94715 0
M  V30 5417 C 515.322 2.88043 1.74737 0
M  V30 5418 O 515.852 2.83508 2.8458 0
M  V30 5419 N 514.058 2.44768 1.56642 0
M  V30 5420 H 513.605 2.48656 0.672901 0
M  V30 5421 H 513.563 2.08375 2.3543 0
M  V30 5422 N 517.335 0.585699 1.46312 0
M  V30 5423 C 518.746 0.159938 1.86014 0
M  V30 5424 C 519.097 -1.27775 1.48889 0
M  V30 5425 O 518.222 -1.96559 0.90519 0
M  V30 5426 C 518.817 0.283485 3.37612 0
M  V30 5427 C 517.376 -0.0874256 3.76298 0
M  V30 5428 C 516.523 0.618055 2.70325 0
M  V30 5429 H 519.474 0.793737 1.37425 0
M  V30 5430 H 519.495 -0.490348 3.77327 0
M  V30 5431 H 519.007 1.32995 3.64601 0
M  V30 5432 H 517.108 -1.13391 3.54927 0
M  V30 5433 H 517.221 0.290975 4.78216 0
M  V30 5434 H 515.585 0.057993 2.54634 0
M  V30 5435 H 516.368 1.66623 3.00153 0
M  V30 5436 N 518.813 -1.54241 0.323641 0
M  V30 5437 C 520.041 -2.04985 -0.280871 0
M  V30 5438 C 520.456 -1.19978 -1.45777 0
M  V30 5439 O 519.813 -0.230471 -1.81039 0
M  V30 5440 C 519.864 -3.54353 -0.715258 0
M  V30 5441 O 519.585 -4.36132 0.414817 0
M  V30 5442 C 521.086 -4.21189 -1.38257 0
M  V30 5443 H 518.306 -0.66851 -0.0577502 0
M  V30 5444 H 520.85 -1.99029 0.469852 0
M  V30 5445 H 519.005 -3.60596 -1.41596 0
M  V30 5446 H 519.419 -5.2445 0.0725227 0
M  V30 5447 H 520.893 -5.27154 -1.63745 0
M  V30 5448 H 521.37 -3.72307 -2.32989 0
M  V30 5449 H 521.976 -4.19085 -0.724447 0
M  V30 5450 N 520.291 -0.0518155 -1.57515 0
M  V30 5451 C 521.241 0.932017 -2.0808 0
M  V30 5452 C 522.225 1.27141 -0.986098 0
M  V30 5453 O 523.417 1.25373 -1.24943 0
M  V30 5454 C 520.546 2.20665 -2.62986 0
M  V30 5455 C 519.632 1.89462 -3.79427 0
M  V30 5456 N 520.023 1.28621 -4.89173 0
M  V30 5457 C 518.321 2.19327 -3.88345 0
M  V30 5458 C 519.022 1.15062 -5.70207 0
M  V30 5459 N 517.998 1.65372 -5.17835 0
M  V30 5460 H 521.8 0.456964 -2.90326 0
M  V30 5461 H 519.314 0.152619 -1.61681 0
M  V30 5462 H 521.311 2.92044 -2.97516 0
M  V30 5463 H 519.971 2.68776 -1.8218 0
M  V30 5464 H 520.982 0.958341 -5.08956 0
M  V30 5465 H 517.659 2.69955 -3.18482 0
M  V30 5466 H 519.049 0.678243 -6.68468 0
M  V30 5467 N 521.769 1.56035 0.221574 0
M  V30 5468 C 522.702 1.87427 1.30178 0
M  V30 5469 C 523.68 0.731658 1.45209 0
M  V30 5470 O 524.864 0.980016 1.61022 0
M  V30 5471 C 521.991 2.08127 2.67209 0
M  V30 5472 C 521.037 3.30813 2.69194 0
M  V30 5473 S 521.87 4.86738 2.23263 0
M  V30 5474 C 523.026 5.10474 3.62171 0
M  V30 5475 H 523.259 2.78756 1.03355 0
M  V30 5476 H 520.792 1.48469 0.423813 0
M  V30 5477 H 522.75 2.20736 3.46101 0
M  V30 5478 H 521.411 1.17595 2.91256 0
M  V30 5479 H 520.604 3.42341 3.6989 0
M  V30 5480 H 520.206 3.1706 1.98366 0
M  V30 5481 H 522.498 4.9937 4.5786 0
M  V30 5482 H 523.441 6.12359 3.55558 0
M  V30 5483 H 523.849 4.38208 3.55857 0
M  V30 5484 N 523.247 -0.488276 1.49845 0
M  V30 5485 C 524.195 -1.60917 1.67954 0
M  V30 5486 C 525.189 -1.6038 0.54539 0
M  V30 5487 O 526.395 -1.64736 0.7254 0
M  V30 5488 H 522.77 -0.533658 0.529824 0
M  V30 5489 H 524.741 -1.428 2.62013 0
M  V30 5490 C 523.49 -2.98975 1.77509 0
M  V30 5491 H 522.813 -3.00099 2.6416 0
M  V30 5492 H 524.253 -3.76906 1.9421 0
M  V30 5493 C 522.712 -3.3282 0.522745 0
M  V30 5494 O 523.242 -4.00208 -0.345866 0
M  V30 5495 N 521.448 -2.8808 0.381882 0
M  V30 5496 H 520.995 -2.33415 1.08974 0
M  V30 5497 H 520.953 -3.11091 -0.454929 0
M  V30 5498 N 524.725 -1.39134 -0.740242 0
M  V30 5499 C 525.673 -1.3757 -1.87556 0
M  V30 5500 C 526.667 -0.259593 -1.67399 0
M  V30 5501 O 527.873 -0.429349 -1.74804 0
M  V30 5502 H 524.248 -0.42947 -0.6173 0
M  V30 5503 H 526.219 -2.33345 -1.85991 0
M  V30 5504 C 524.968 -1.23087 -3.25184 0
M  V30 5505 H 524.291 -2.08237 -3.41288 0
M  V30 5506 H 525.731 -1.26049 -4.0483 0
M  V30 5507 C 524.19 0.0611471 -3.36845 0
M  V30 5508 O 524.72 1.03328 -3.88183 0
M  V30 5509 N 522.926 0.122454 -2.90342 0
M  V30 5510 H 522.473 -0.669329 -2.48752 0
M  V30 5511 H 522.431 0.986463 -2.98523 0
M  V30 5512 N 526.204 0.969867 -1.24223 0
M  V30 5513 C 527.452 1.70918 -1.0785 0
M  V30 5514 C 527.773 1.91186 0.383763 0
M  V30 5515 O 527.043 1.48806 1.27411 0
M  V30 5516 H 525.623 0.633334 -0.396103 0
M  V30 5517 H 528.285 1.16689 -1.56108 0
M  V30 5518 H 527.381 2.69455 -1.57482 0
M  V30 5519 N 527.682 1.05563 1.17022 0
M  V30 5520 C 528.959 0.68165 1.83338 0
M  V30 5521 C 529.339 -0.837665 1.93769 0
M  V30 5522 O 528.687 -1.74507 1.47511 0
M  V30 5523 C 528.897 1.375 3.20772 0
M  V30 5524 C 530.245 1.51545 3.96635 0
M  V30 5525 O 531.269 1.33431 3.30264 0
M  V30 5526 O 530.128 1.812 5.15586 0
M  V30 5527 H 527.222 0.240412 0.791285 0
M  V30 5528 H 529.768 1.15545 1.24288 0
M  V30 5529 H 528.54 2.41135 3.08171 0
M  V30 5530 H 528.163 0.890798 3.87493 0
M  V30 5531 N 529.16 -1.33526 0.837174 0
M  V30 5532 C 530.39 -2.01754 0.444848 0
M  V30 5533 C 530.798 -1.63149 -0.958072 0
M  V30 5534 O 530.141 -0.839827 -1.63379 0
M  V30 5535 C 530.203 -3.56228 0.483917 0
M  V30 5536 C 529.867 -4.18205 1.84265 0
M  V30 5537 C 530.864 -4.37699 2.80563 0
M  V30 5538 C 528.549 -4.54667 2.13503 0
M  V30 5539 C 530.543 -4.928 4.04261 0
M  V30 5540 C 528.23 -5.09475 3.37458 0
M  V30 5541 C 529.228 -5.28488 4.32654 0
M  V30 5542 O 528.916 -5.82132 5.54417 0
M  V30 5543 H 528.648 -0.652928 0.175104 0
M  V30 5544 H 531.202 -1.71469 1.13082 0
M  V30 5545 H 529.432 -3.85833 -0.258826 0
M  V30 5546 H 531.121 -4.05752 0.109653 0
M  V30 5547 H 531.887 -4.0988 2.59274 0
M  V30 5548 H 527.766 -4.39164 1.40201 0
M  V30 5549 H 531.31 -5.07555 4.78574 0
M  V30 5550 H 527.207 -5.36725 3.58604 0
M  V30 5551 H 527.975 -6.00548 5.56133 0
M  V30 5552 N 530.638 -0.59345 -1.46 0
M  V30 5553 C 531.866 -0.0890934 -2.06708 0
M  V30 5554 C 532.281 1.2205 -1.44046 0
M  V30 5555 O 531.638 1.74029 -0.549551 0
M  V30 5556 C 531.689 0.0720263 -3.61428 0
M  V30 5557 O 531.41 -1.18574 -4.21748 0
M  V30 5558 C 532.911 0.609487 -4.3909 0
M  V30 5559 H 530.131 -0.0623628 -0.668096 0
M  V30 5560 H 532.675 -0.817171 -1.87464 0
M  V30 5561 H 530.83 0.750369 -3.80063 0
M  V30 5562 H 531.244 -1.0064 -5.14754 0
M  V30 5563 H 532.718 0.671363 -5.47902 0
M  V30 5564 H 533.195 1.62878 -4.07882 0
M  V30 5565 H 533.801 -0.03434 -4.25286 0
M  V30 5566 N 532.116 1.54067 -0.331816 0
M  V30 5567 C 533.046 2.27569 0.522932 0
M  V30 5568 C 534.027 1.28679 1.11247 0
M  V30 5569 O 535.212 1.57504 1.13605 0
M  V30 5570 C 532.342 3.0397 1.67987 0
M  V30 5571 C 531.296 4.10267 1.21924 0
M  V30 5572 C 530.622 4.74555 2.46377 0
M  V30 5573 C 531.922 5.21268 0.32815 0
M  V30 5574 H 533.616 2.99264 -0.0901977 0
M  V30 5575 H 531.162 1.4393 -0.044821 0
M  V30 5576 H 533.115 3.54123 2.28418 0
M  V30 5577 H 531.839 2.29906 2.31971 0
M  V30 5578 H 530.498 3.61009 0.637809 0
M  V30 5579 H 530.146 3.97098 3.08743 0
M  V30 5580 H 529.846 5.46363 2.16243 0
M  V30 5581 H 531.37 5.27487 3.07555 0
M  V30 5582 H 532.784 5.67128 0.838978 0
M  V30 5583 H 531.181 5.99982 0.119228 0
M  V30 5584 H 532.251 4.80673 -0.638839 0
M  V30 5585 N 533.594 0.0601682 1.57485 0
M  V30 5586 C 534.843 -0.611101 1.9222 0
M  V30 5587 C 535.156 -1.71469 0.941159 0
M  V30 5588 O 536.362 -2.44473 1.18089 0
M  V30 5589 C 534.818 -1.13832 3.41424 0
M  V30 5590 C 534.426 -0.0663596 4.47951 0
M  V30 5591 C 536.17 -1.78432 3.85178 0
M  V30 5592 C 534.077 -0.606965 5.88277 0
M  V30 5593 H 533.007 -0.232033 0.71741 0
M  V30 5594 H 535.658 0.130518 1.83035 0
M  V30 5595 H 534.04 -1.93254 3.45643 0
M  V30 5596 H 535.214 0.707682 4.55333 0
M  V30 5597 H 533.529 0.482715 4.13593 0
M  V30 5598 H 536.126 -2.1989 4.87394 0
M  V30 5599 H 536.469 -2.63966 3.21913 0
M  V30 5600 H 537.002 -1.05651 3.83514 0
M  V30 5601 H 533.741 0.21095 6.5516 0
M  V30 5602 H 533.261 -1.34879 5.84438 0
M  V30 5603 H 534.94 -1.08704 6.37803 0
M  V30 5604 N 535.072 -1.5615 -0.213296 0
M  V30 5605 C 536.035 -1.92249 -1.24792 0
M  V30 5606 C 537.035 -0.801828 -1.39382 0
M  V30 5607 O 538.225 -1.06948 -1.37506 0
M  V30 5608 C 535.357 -2.18056 -2.62039 0
M  V30 5609 H 536.55 -2.84793 -0.939845 0
M  V30 5610 H 534.103 -1.49559 -0.454062 0
M  V30 5611 H 534.838 -1.2809 -2.97932 0
M  V30 5612 H 534.623 -2.99703 -2.52825 0
M  V30 5613 H 536.113 -2.47051 -3.36683 0
M  V30 5614 N 536.55 0.480323 -1.50102 0
M  V30 5615 C 537.497 1.57946 -1.6829 0
M  V30 5616 C 538.467 1.57611 -0.524223 0
M  V30 5617 O 539.652 1.75282 -0.753709 0
M  V30 5618 C 536.792 2.95978 -1.77457 0
M  V30 5619 C 535.905 3.06173 -3.04766 0
M  V30 5620 C 535.04 4.35063 -3.04784 0
M  V30 5621 C 534.079 4.38966 -4.26586 0
M  V30 5622 N 533.216 5.59314 -4.24396 0
M  V30 5623 H 538.056 1.41743 -2.62131 0
M  V30 5624 H 535.593 0.689304 -1.2995 0
M  V30 5625 H 537.551 3.76011 -1.80752 0
M  V30 5626 H 536.181 3.10837 -0.870637 0
M  V30 5627 H 535.233 2.19071 -3.10986 0
M  V30 5628 H 536.545 3.04916 -3.9475 0
M  V30 5629 H 535.699 5.23436 -3.06757 0
M  V30 5630 H 534.438 4.38915 -2.12614 0
M  V30 5631 H 533.443 3.48992 -4.24835 0
M  V30 5632 H 534.668 4.36813 -5.19972 0
M  V30 5633 H 532.614 5.63969 -3.35074 0
M  V30 5634 H 532.531 5.5976 -5.08138 0
M  V30 5635 H 533.799 6.49837 -4.30502 0
M  V30 5636 N 538.028 1.39524 0.732853 0
M  V30 5637 C 538.976 1.38563 1.86824 0
M  V30 5638 C 539.97 0.268467 1.67259 0
M  V30 5639 O 541.176 0.438613 1.74574 0
M  V30 5640 H 537.551 0.432737 0.615014 0
M  V30 5641 H 539.522 2.34328 1.84751 0
M  V30 5642 C 538.271 1.2481 3.24527 0
M  V30 5643 H 537.594 2.10044 3.40179 0
M  V30 5644 H 539.034 1.28194 4.04156 0
M  V30 5645 C 537.493 -0.0432825 3.36872 0
M  V30 5646 O 538.023 -1.01268 3.88726 0
M  V30 5647 N 536.229 -0.107055 2.90403 0
M  V30 5648 H 535.776 0.682512 2.48394 0
M  V30 5649 H 535.734 -0.970618 2.99042 0
M  V30 5650 N 539.506 -0.963266 1.24736 0
M  V30 5651 C 540.416 -2.09246 1.06082 0
M  V30 5652 C 541.432 -1.74 0.000363101 0
M  V30 5653 O 542.608 -2.0041 0.199479 0
M  V30 5654 C 539.673 -3.40115 0.672498 0
M  V30 5655 C 538.734 -3.89282 1.80993 0
M  V30 5656 C 537.967 -5.13905 1.44004 0
M  V30 5657 O 538.19 -5.69434 0.331835 0
M  V30 5658 O 537.124 -5.57566 2.26723 0
M  V30 5659 H 540.95 -2.27881 2.00759 0
M  V30 5660 H 538.535 -1.07649 1.03595 0
M  V30 5661 H 540.417 -4.18797 0.467668 0
M  V30 5662 H 539.092 -3.22771 -0.245102 0
M  V30 5663 H 537.999 -3.11642 2.06955 0
M  V30 5664 H 539.332 -4.1111 2.70646 0
M  V30 5665 N 540.985 -1.06182 -1.16461 0
M  V30 5666 C 542.215 -0.797425 -1.9059 0
M  V30 5667 C 542.623 0.651845 -1.77616 0
M  V30 5668 O 541.966 1.45788 -1.11766 0
M  V30 5669 C 542.028 -1.11128 -3.41893 0
M  V30 5670 C 541.692 -2.55874 -3.78652 0
M  V30 5671 C 542.689 -3.54104 -3.80665 0
M  V30 5672 C 540.374 -2.91144 -4.09317 0
M  V30 5673 C 542.368 -4.85645 -4.12829 0
M  V30 5674 C 540.055 -4.22885 -4.41148 0
M  V30 5675 C 541.053 -5.19945 -4.42883 0
M  V30 5676 O 540.741 -6.49322 -4.73959 0
M  V30 5677 H 540.473 -0.288709 -0.611247 0
M  V30 5678 H 543.027 -1.41841 -1.4856 0
M  V30 5679 H 541.257 -0.433217 -3.84266 0
M  V30 5680 H 542.946 -0.831306 -3.97296 0
M  V30 5681 H 543.712 -3.28197 -3.57088 0
M  V30 5682 H 539.591 -2.16252 -4.07131 0
M  V30 5683 H 543.135 -5.61398 -4.14099 0
M  V30 5684 H 539.032 -4.48551 -4.6419 0
M  V30 5685 H 539.8 -6.54294 -4.91774 0
M  V30 5686 N 542.463 1.3308 -0.844243 0
M  V30 5687 C 543.711 1.97215 -0.441676 0
M  V30 5688 C 544.032 1.67185 1.0037 0
M  V30 5689 O 543.302 0.973588 1.69994 0
M  V30 5690 H 541.882 0.72959 -0.160335 0
M  V30 5691 H 544.544 1.62348 -1.07838 0
M  V30 5692 H 543.64 3.06698 -0.57815 0
M  V30 5693 N 543.941 0.601185 1.45683 0
M  V30 5694 C 544.888 -0.121396 2.30481 0
M  V30 5695 C 545.858 -0.866232 1.41724 0
M  V30 5696 O 547.043 -0.85324 1.70659 0
M  V30 5697 C 544.183 -1.11704 3.26521 0
M  V30 5698 C 543.296 -0.373741 4.3038 0
M  V30 5699 C 542.431 -1.35854 5.13534 0
M  V30 5700 C 541.47 -0.602689 6.09126 0
M  V30 5701 N 540.607 -1.53645 6.85082 0
M  V30 5702 H 545.447 0.607732 2.91737 0
M  V30 5703 H 542.984 0.311502 1.43764 0
M  V30 5704 H 544.942 -1.70735 3.80664 0
M  V30 5705 H 543.572 -1.81366 2.67032 0
M  V30 5706 H 542.624 0.331962 3.78949 0
M  V30 5707 H 543.936 0.2163 4.98331 0
M  V30 5708 H 543.09 -2.02111 5.72046 0
M  V30 5709 H 541.829 -1.98251 4.45587 0
M  V30 5710 H 540.834 0.0735482 5.49751 0
M  V30 5711 H 542.059 0.0161467 6.79098 0
M  V30 5712 H 540.005 -2.14819 6.1983 0
M  V30 5713 H 539.922 -0.999688 7.49361 0
M  V30 5714 H 541.19 -2.1888 7.48139 0
M  V30 5715 N 545.419 -1.53889 0.339982 0
M  V30 5716 C 546.696 -1.93084 -0.312719 0
M  V30 5717 C 547.076 -1.2712 -1.68534 0
M  V30 5718 O 546.424 -0.420835 -2.24591 0
M  V30 5719 C 546.634 -3.4683 -0.388558 0
M  V30 5720 C 547.982 -4.19732 -0.641088 0
M  V30 5721 O 549.006 -3.53075 -0.470818 0
M  V30 5722 O 547.865 -5.3781 -0.970685 0
M  V30 5723 H 544.959 -0.806784 -0.18174 0
M  V30 5724 H 547.505 -1.65137 0.390898 0
M  V30 5725 H 546.277 -3.87055 0.574821 0
M  V30 5726 H 545.9 -3.80933 -1.1391 0
M  V30 5727 N 546.897 -0.0685191 -1.57451 0
M  V30 5728 C 547.807 0.914677 -2.16034 0
M  V30 5729 C 548.823 1.32938 -1.12265 0
M  V30 5730 O 549.999 1.40275 -1.44516 0
M  V30 5731 C 547.064 2.16519 -2.70777 0
M  V30 5732 C 546.125 1.80721 -3.89408 0
M  V30 5733 C 545.358 2.9981 -4.41531 0
M  V30 5734 O 545.581 4.13727 -3.92666 0
M  V30 5735 O 544.515 2.79817 -5.32903 0
M  V30 5736 H 548.341 0.446364 -3.00402 0
M  V30 5737 H 545.926 0.154367 -1.486 0
M  V30 5738 H 547.808 2.89856 -3.05878 0
M  V30 5739 H 546.483 2.62454 -1.89471 0
M  V30 5740 H 545.39 1.04646 -3.59166 0
M  V30 5741 H 546.723 1.39571 -4.71997 0
M  V30 5742 N 548.375 1.56261 0.205012 0
M  V30 5743 C 549.322 1.93754 1.25411 0
M  V30 5744 C 550.292 0.796826 1.45739 0
M  V30 5745 O 551.477 1.05414 1.59036 0
M  V30 5746 C 548.617 2.27383 2.59598 0
M  V30 5747 C 547.73 3.5447 2.46931 0
M  V30 5748 C 546.865 3.77468 3.73753 0
M  V30 5749 C 545.904 4.98014 3.55877 0
M  V30 5750 N 545.041 5.17316 4.74688 0
M  V30 5751 H 549.881 2.83203 0.92737 0
M  V30 5752 H 547.418 1.40158 0.446574 0
M  V30 5753 H 549.376 2.44895 3.37761 0
M  V30 5754 H 548.006 1.41088 2.90335 0
M  V30 5755 H 547.058 3.45061 1.60116 0
M  V30 5756 H 548.37 4.42789 2.29651 0
M  V30 5757 H 547.524 3.95165 4.60358 0
M  V30 5758 H 546.263 2.87461 3.93976 0
M  V30 5759 H 545.268 4.80249 2.67657 0
M  V30 5760 H 546.493 5.8952 3.37109 0
M  V30 5761 H 544.439 4.30255 4.95194 0
M  V30 5762 H 544.356 5.99796 4.60197 0
M  V30 5763 H 545.624 5.39463 5.62672 0
M  V30 5764 N 549.853 -0.472356 1.50355 0
M  V30 5765 C 550.785 -1.58795 1.65278 0
M  V30 5766 C 551.798 -1.53782 0.534313 0
M  V30 5767 O 552.987 -1.59193 0.807446 0
M  V30 5768 C 550.087 -2.97672 1.62001 0
M  V30 5769 C 549.26 -3.27568 2.89859 0
M  V30 5770 C 548.319 -4.45993 2.79242 0
M  V30 5771 O 547.345 -4.46364 3.53197 0
M  V30 5772 N 548.547 -5.47578 1.92713 0
M  V30 5773 H 551.312 -1.46411 2.61503 0
M  V30 5774 H 548.873 -0.660751 1.47803 0
M  V30 5775 H 550.865 -3.74862 1.52513 0
M  V30 5776 H 549.435 -3.03832 0.735159 0
M  V30 5777 H 548.655 -2.39003 3.13483 0
M  V30 5778 H 549.943 -3.44352 3.74565 0
M  V30 5779 H 549.341 -5.50099 1.31939 0
M  V30 5780 H 547.898 -6.23757 1.8913 0
M  V30 5781 N 551.331 -1.39911 -0.725443 0
M  V30 5782 C 552.58 -1.36963 -1.48068 0
M  V30 5783 C 552.893 0.0284478 -1.95579 0
M  V30 5784 O 554.099 0.180535 -2.70899 0
M  V30 5785 C 552.555 -2.40664 -2.67598 0
M  V30 5786 C 552.163 -3.86234 -2.26997 0
M  V30 5787 C 553.907 -2.46807 -3.45379 0
M  V30 5788 C 551.814 -4.81554 -3.43307 0
M  V30 5789 H 550.744 -0.509223 -0.556065 0
M  V30 5790 H 553.395 -1.65602 -0.790454 0
M  V30 5791 H 551.777 -2.05109 -3.38742 0
M  V30 5792 H 552.951 -4.3088 -1.63337 0
M  V30 5793 H 551.266 -3.83475 -1.62284 0
M  V30 5794 H 553.863 -3.15213 -4.31909 0
M  V30 5795 H 554.206 -1.49552 -3.8851 0
M  V30 5796 H 554.739 -2.81303 -2.81271 0
M  V30 5797 H 551.478 -5.80106 -3.05217 0
M  V30 5798 H 550.998 -4.4158 -4.05915 0
M  V30 5799 H 552.677 -5.0091 -4.0951 0
M  V30 5800 N 552.809 0.956637 -1.25245 0
M  V30 5801 C 554.034 1.74104 -1.12706 0
M  V30 5802 C 554.459 1.85436 0.315429 0
M  V30 5803 O 553.817 1.33334 1.22848 0
M  V30 5804 C 553.865 3.1338 -1.78396 0
M  V30 5805 O 552.969 3.98485 -1.06224 0
M  V30 5806 H 552.31 0.53476 -0.393609 0
M  V30 5807 H 554.84 1.19924 -1.65769 0
M  V30 5808 H 554.85 3.6385 -1.846 0
M  V30 5809 H 553.525 3.04448 -2.83345 0
M  V30 5810 H 552.102 3.56952 -1.07886 0
M  V30 5811 N 554.287 1.06798 1.15896 0
M  V30 5812 C 555.25 0.687328 2.18651 0
M  V30 5813 C 556.25 -0.269559 1.58524 0
M  V30 5814 O 557.44 -0.0512627 1.74125 0
M  V30 5815 C 554.572 0.0121642 3.40898 0
M  V30 5816 H 555.765 1.59701 2.53842 0
M  V30 5817 H 553.318 0.863828 1.3026 0
M  V30 5818 H 554.053 -0.910025 3.1127 0
M  V30 5819 H 553.838 0.700309 3.85795 0
M  V30 5820 H 555.328 -0.239703 4.16911 0
M  V30 5821 N 555.766 -1.3263 0.851289 0
M  V30 5822 C 556.716 -2.26451 0.265302 0
M  V30 5823 C 557.7 -1.49814 -0.586899 0
M  V30 5824 O 558.892 -1.71525 -0.436834 0
M  V30 5825 C 556.021 -3.38895 -0.548212 0
M  V30 5826 C 555.107 -4.2292 0.316189 0
M  V30 5827 N 555.498 -4.86014 1.40084 0
M  V30 5828 C 553.796 -4.45876 0.105356 0
M  V30 5829 C 554.497 -5.48667 1.93235 0
M  V30 5830 N 553.473 -5.29455 1.232 0
M  V30 5831 H 557.275 -2.72757 1.09457 0
M  V30 5832 H 554.789 -1.4668 0.697047 0
M  V30 5833 H 556.786 -4.05111 -0.984402 0
M  V30 5834 H 555.446 -2.94135 -1.37531 0
M  V30 5835 H 556.457 -4.86212 1.78377 0
M  V30 5836 H 553.134 -4.11804 -0.687299 0
M  V30 5837 H 554.524 -6.08865 2.84135 0
M  V30 5838 N 557.244 -0.608902 -1.45362 0
M  V30 5839 C 558.491 -0.104607 -2.0223 0
M  V30 5840 C 558.819 1.26534 -1.47714 0
M  V30 5841 O 558.074 1.84855 -0.642435 0
M  V30 5842 C 558.373 -0.0167296 -3.57396 0
M  V30 5843 C 558.039 -1.32251 -4.31069 0
M  V30 5844 C 556.701 -1.68019 -4.50914 0
M  V30 5845 C 559.053 -2.18542 -4.73169 0
M  V30 5846 C 556.381 -2.89828 -5.10114 0
M  V30 5847 C 558.733 -3.39602 -5.33717 0
M  V30 5848 C 557.397 -3.7562 -5.51784 0
M  V30 5849 H 556.667 -0.0382785 -0.740011 0
M  V30 5850 H 559.314 -0.790782 -1.7441 0
M  V30 5851 H 557.619 0.752715 -3.84502 0
M  V30 5852 H 559.316 0.389634 -3.99103 0
M  V30 5853 H 555.906 -1.03411 -4.15938 0
M  V30 5854 H 560.09 -1.92208 -4.5757 0
M  V30 5855 H 555.346 -3.17839 -5.22291 0
M  V30 5856 H 559.52 -4.06716 -5.65292 0
M  V30 5857 H 557.147 -4.70093 -5.97425 0
M  V30 5858 N 558.722 1.53707 -0.348139 0
M  V30 5859 C 559.655 2.21481 0.549667 0
M  V30 5860 C 560.633 1.20046 1.09671 0
M  V30 5861 O 561.817 1.48883 1.15612 0
M  V30 5862 C 558.944 2.89585 1.75664 0
M  V30 5863 C 557.99 4.04948 1.33864 0
M  V30 5864 S 558.823 5.34325 0.354577 0
M  V30 5865 C 559.979 6.05934 1.56828 0
M  V30 5866 H 560.212 2.97289 -0.0259755 0
M  V30 5867 H 557.745 1.53833 -0.132216 0
M  V30 5868 H 559.703 3.29441 2.44906 0
M  V30 5869 H 558.364 2.13535 2.30351 0
M  V30 5870 H 557.557 4.51552 2.23868 0
M  V30 5871 H 557.159 3.66893 0.725651 0
M  V30 5872 H 559.451 6.29606 2.50205 0
M  V30 5873 H 560.394 6.98799 1.14395 0
M  V30 5874 H 560.802 5.36151 1.76642 0
M  V30 5875 N 560.2 0.0768682 1.57412 0
M  V30 5876 C 561.448 -0.589918 1.93299 0
M  V30 5877 C 561.769 -1.69842 0.958049 0
M  V30 5878 O 561.039 -1.95899 0.00703261 0
M  V30 5879 H 559.619 -0.220901 0.713591 0
M  V30 5880 H 562.281 0.135917 1.94425 0
M  V30 5881 H 561.377 -1.01195 2.95239 0
M  V30 5882 N 561.678 -1.56367 -0.196722 0
M  V30 5883 C 562.924 -1.81698 -0.914182 0
M  V30 5884 C 563.279 -0.65367 -1.80956 0
M  V30 5885 O 562.572 0.351224 -1.88353 0
M  V30 5886 C 562.766 -3.10663 -1.767 0
M  V30 5887 C 562.595 -4.39428 -0.955689 0
M  V30 5888 C 561.365 -5.01221 -0.64076 0
M  V30 5889 C 563.563 -5.1337 -0.309165 0
M  V30 5890 N 561.545 -6.13608 0.189358 0
M  V30 5891 C 562.916 -6.18815 0.383225 0
M  V30 5892 C 564.971 -4.97393 -0.224726 0
M  V30 5893 C 563.674 -7.10015 1.15201 0
M  V30 5894 C 565.7 -5.89014 0.530658 0
M  V30 5895 C 565.062 -6.93903 1.2115 0
M  V30 5896 H 561.161 -0.716203 -0.31397 0
M  V30 5897 H 563.745 -1.93838 -0.18304 0
M  V30 5898 H 561.916 -2.99762 -2.46976 0
M  V30 5899 H 563.648 -3.24088 -2.42382 0
M  V30 5900 H 560.403 -4.63669 -0.96479 0
M  V30 5901 H 560.827 -6.74389 0.593979 0
M  V30 5902 H 565.469 -4.16331 -0.736754 0
M  V30 5903 H 563.187 -7.9054 1.67547 0
M  V30 5904 H 566.773 -5.78726 0.597326 0
M  V30 5905 H 565.653 -7.63576 1.78665 0
M  V30 5906 N 563.156 0.464375 -1.50603 0
M  V30 5907 C 564.567 1.04507 -1.5471 0
M  V30 5908 C 564.918 1.9297 -0.354542 0
M  V30 5909 O 564.043 2.09763 0.531812 0
M  V30 5910 C 564.638 1.90207 -2.80369 0
M  V30 5911 C 563.197 2.43373 -2.87135 0
M  V30 5912 C 562.344 1.21886 -2.49076 0
M  V30 5913 H 565.295 0.246716 -1.56771 0
M  V30 5914 H 565.316 2.75353 -2.62604 0
M  V30 5915 H 564.828 1.25796 -3.67147 0
M  V30 5916 H 562.929 3.11318 -2.04724 0
M  V30 5917 H 563.042 2.7802 -3.90181 0
M  V30 5918 H 561.406 1.55575 -2.01664 0
M  V30 5919 H 562.189 0.591268 -3.3817 0
M  V30 5920 N 564.634 1.40294 0.718013 0
M  V30 5921 C 565.882 1.38167 1.47494 0
M  V30 5922 C 566.203 -0.01607 1.94993 0
M  V30 5923 O 565.473 -0.970396 1.70177 0
M  V30 5924 H 564.053 0.508505 0.547203 0
M  V30 5925 H 566.715 1.75324 0.851322 0
M  V30 5926 H 565.811 2.05503 2.34894 0
M  V30 5927 N 566.112 -0.949982 1.2575 0
M  V30 5928 C 567.361 -1.68956 1.10168 0
M  V30 5929 C 567.674 -1.92327 -0.356309 0
M  V30 5930 O 568.88 -2.64026 -0.632657 0
M  V30 5931 C 567.336 -3.04196 1.92336 0
M  V30 5932 C 566.944 -2.88603 3.42655 0
M  V30 5933 C 568.688 -3.81904 1.85336 0
M  V30 5934 C 566.595 -4.19262 4.17101 0
M  V30 5935 H 565.525 -0.633645 0.408668 0
M  V30 5936 H 568.176 -1.05719 1.49986 0
M  V30 5937 H 566.558 -3.68363 1.45344 0
M  V30 5938 H 567.732 -2.3334 3.97353 0
M  V30 5939 H 566.047 -2.24345 3.50796 0
M  V30 5940 H 568.644 -4.78688 2.38248 0
M  V30 5941 H 568.987 -4.08099 0.822226 0
M  V30 5942 H 569.52 -3.24495 2.30104 0
M  V30 5943 H 566.259 -3.98254 5.20648 0
M  V30 5944 H 565.779 -4.74273 3.67186 0
M  V30 5945 H 567.458 -4.87775 4.25071 0
M  V30 5946 N 567.59 -1.07411 -1.15328 0
M  V30 5947 C 568.867 -0.710732 -1.82231 0
M  V30 5948 C 569.247 0.806732 -1.95077 0
M  V30 5949 O 568.595 1.72139 -1.50268 0
M  V30 5950 C 568.805 -1.42586 -3.18544 0
M  V30 5951 C 570.153 -1.57836 -3.94174 0
M  V30 5952 O 571.177 -1.38669 -3.281 0
M  V30 5953 O 570.036 -1.8938 -5.12638 0
M  V30 5954 H 567.13 -0.25297 -0.78736 0
M  V30 5955 H 569.676 -1.17508 -1.22434 0
M  V30 5956 H 568.448 -2.46008 -3.04296 0
M  V30 5957 H 568.071 -0.952332 -3.86026 0
M  V30 5958 N 569.068 1.32177 -0.85831 0
M  V30 5959 C 570.345 1.91781 -0.384624 0
M  V30 5960 C 570.725 1.78171 1.13217 0
M  V30 5961 O 570.073 1.18209 1.95548 0
M  V30 5962 C 570.283 3.38414 -0.853047 0
M  V30 5963 C 571.631 4.15542 -0.872359 0
M  V30 5964 O 572.655 3.47148 -0.797926 0
M  V30 5965 O 571.514 5.37678 -0.978009 0
M  V30 5966 H 568.608 0.819259 -0.112886 0
M  V30 5967 H 571.154 1.40923 -0.945453 0
M  V30 5968 H 569.926 3.4228 -1.89632 0
M  V30 5969 H 569.549 3.96683 -0.269874 0
M  V30 5970 N 570.547 0.616602 1.45037 0
M  V30 5971 C 571.795 0.115103 2.01772 0
M  V30 5972 C 572.116 -1.2622 1.48639 0
M  V30 5973 O 571.386 -1.83563 0.684199 0
M  V30 5974 H 569.966 0.0395607 0.745952 0
M  V30 5975 H 572.628 0.800032 1.77723 0
M  V30 5976 H 571.724 0.0717274 3.12018 0
M  V30 5977 N 572.025 -1.5352 0.356285 0
M  V30 5978 C 572.988 -2.24071 -0.482182 0
M  V30 5979 C 573.988 -1.24531 -1.01729 0
M  V30 5980 O 575.178 -1.48876 -0.904513 0
M  V30 5981 C 572.31 -2.97025 -1.67299 0
M  V30 5982 H 573.503 -2.99596 0.135031 0
M  V30 5983 H 571.056 -1.55928 0.107825 0
M  V30 5984 H 571.791 -2.25719 -2.32855 0
M  V30 5985 H 571.576 -3.7005 -1.29636 0
M  V30 5986 H 573.066 -3.50683 -2.26741 0
M  V30 5987 N 573.503 -0.0852151 -1.57369 0
M  V30 5988 C 574.451 0.894856 -2.14698 0
M  V30 5989 C 575.445 1.29903 -1.08727 0
M  V30 5990 O 576.651 1.27471 -1.27088 0
M  V30 5991 H 573.026 0.306569 -0.686673 0
M  V30 5992 H 574.997 0.386542 -2.95886 0
M  V30 5993 C 573.746 2.14798 -2.73417 0
M  V30 5994 H 573.069 1.84585 -3.54638 0
M  V30 5995 H 574.509 2.81456 -3.1711 0
M  V30 5996 C 572.968 2.91546 -1.68828 0
M  V30 5997 O 573.498 3.85733 -1.12129 0
M  V30 5998 N 571.704 2.54901 -1.39549 0
M  V30 5999 H 571.251 1.7838 -1.85845 0
M  V30 6000 H 571.209 3.06553 -0.698054 0
M  V30 6001 N 574.981 1.5647 0.188427 0
M  V30 6002 C 576.392 1.70864 0.752494 0
M  V30 6003 C 576.743 0.692905 1.83557 0
M  V30 6004 O 575.868 -0.149307 2.15884 0
M  V30 6005 C 576.463 3.09789 1.37173 0
M  V30 6006 C 575.022 3.25925 1.88281 0
M  V30 6007 C 574.169 2.66817 0.755259 0
M  V30 6008 H 577.12 1.58657 -0.0367408 0
M  V30 6009 H 577.141 3.07489 2.24122 0
M  V30 6010 H 576.653 3.83693 0.583219 0
M  V30 6011 H 574.754 2.56948 2.6983 0
M  V30 6012 H 574.867 4.33498 2.04001 0
M  V30 6013 H 573.231 2.2617 1.17128 0
M  V30 6014 H 574.014 3.43294 -0.0211237 0
M  V30 6015 N 576.459 -0.456382 1.50847 0
M  V30 6016 C 577.407 -1.57318 1.71329 0
M  V30 6017 C 578.401 -1.59187 0.579287 0
M  V30 6018 O 579.607 -1.6316 0.76018 0
M  V30 6019 H 575.982 -0.5223 0.541024 0
M  V30 6020 H 577.953 -1.3721 2.64983 0
M  V30 6021 C 576.702 -2.95142 1.83811 0
M  V30 6022 H 576.025 -2.94428 2.70467 0
M  V30 6023 H 577.465 -3.72702 2.02161 0
M  V30 6024 C 575.924 -3.31636 0.593224 0
M  V30 6025 O 576.454 -4.00852 -0.260898 0
M  V30 6026 N 574.66 -2.87205 0.442902 0
M  V30 6027 H 574.207 -2.31051 1.13901 0
M  V30 6028 H 574.165 -3.11986 -0.38884 0
M  V30 6029 N 577.937 -1.40673 -0.710563 0
M  V30 6030 C 579.167 -1.4234 -1.49742 0
M  V30 6031 C 579.575 -0.022821 -1.89186 0
M  V30 6032 O 578.918 0.964773 -1.56326 0
M  V30 6033 C 578.98 -2.25509 -2.79975 0
M  V30 6034 C 578.644 -3.73862 -2.62824 0
M  V30 6035 C 579.641 -4.66379 -2.29752 0
M  V30 6036 C 577.326 -4.17735 -2.78932 0
M  V30 6037 C 579.32 -6.00756 -2.13006 0
M  V30 6038 C 577.007 -5.5218 -2.61802 0
M  V30 6039 C 578.005 -6.43505 -2.28888 0
M  V30 6040 O 577.693 -7.75472 -2.11894 0
M  V30 6041 H 577.425 -0.487311 -0.468513 0
M  V30 6042 H 579.979 -1.8542 -0.883668 0
M  V30 6043 H 578.209 -1.77218 -3.43701 0
M  V30 6044 H 579.898 -2.19058 -3.41714 0
M  V30 6045 H 580.664 -4.33778 -2.16936 0
M  V30 6046 H 576.543 -3.46967 -3.03537 0
M  V30 6047 H 580.087 -6.72003 -1.87237 0
M  V30 6048 H 575.984 -5.84365 -2.74204 0
M  V30 6049 H 576.752 -7.86458 -2.26775 0
M  V30 6050 N 579.415 0.9433 -1.26252 0
M  V30 6051 C 580.826 1.50404 -1.10614 0
M  V30 6052 C 581.177 1.93666 0.31429 0
M  V30 6053 O 580.302 1.79709 1.20555 0
M  V30 6054 C 580.897 2.73336 -2.00182 0
M  V30 6055 C 579.456 3.25686 -1.88695 0
M  V30 6056 C 578.603 1.98474 -1.93658 0
M  V30 6057 H 581.554 0.759006 -1.39373 0
M  V30 6058 H 581.575 3.47567 -1.54847 0
M  V30 6059 H 581.087 2.41818 -3.03555 0
M  V30 6060 H 579.188 3.61998 -0.882489 0
M  V30 6061 H 579.301 3.92935 -2.74115 0
M  V30 6062 H 577.665 2.14278 -1.37684 0
M  V30 6063 H 578.448 1.6929 -2.98657 0
M  V30 6064 N 580.893 1.08022 1.14757 0
M  V30 6065 C 582.17 0.720386 1.81851 0
M  V30 6066 C 582.55 -0.796375 1.95502 0
M  V30 6067 O 581.898 -1.71339 1.51179 0
M  V30 6068 C 582.108 1.44273 3.17783 0
M  V30 6069 C 583.456 1.59925 3.93331 0
M  V30 6070 O 584.48 1.40407 3.2736 0
M  V30 6071 O 583.339 1.92096 5.11626 0
M  V30 6072 H 580.433 0.257142 0.786007 0
M  V30 6073 H 582.979 1.18155 1.21809 0
M  V30 6074 H 581.751 2.47618 3.02987 0
M  V30 6075 H 581.374 0.97279 3.85516 0
M  V30 6076 N 582.371 -1.3172 0.865308 0
M  V30 6077 C 583.617 -1.97168 0.474633 0
M  V30 6078 C 583.95 -1.68263 -0.969604 0
M  V30 6079 O 583.225 -0.976588 -1.68205 0
M  V30 6080 C 583.508 -3.52689 0.726808 0
M  V30 6081 C 583.361 -3.91185 2.22024 0
M  V30 6082 C 584.68 -4.39689 0.190201 0
M  V30 6083 H 581.799 -0.716185 0.17392 0
M  V30 6084 H 584.441 -1.55925 1.08569 0
M  V30 6085 H 582.591 -3.8795 0.206705 0
M  V30 6086 H 584.263 -3.66049 2.80724 0
M  V30 6087 H 582.506 -3.3996 2.69462 0
M  V30 6088 H 583.177 -4.99604 2.34735 0
M  V30 6089 H 585.653 -4.11225 0.635103 0
M  V30 6090 H 584.529 -5.47469 0.396132 0
M  V30 6091 H 584.79 -4.32683 -0.907625 0
M  V30 6092 N 583.85 -0.624285 -1.44708 0
M  V30 6093 C 585.099 -0.123539 -2.01321 0
M  V30 6094 C 585.412 1.25966 -1.49639 0
M  V30 6095 O 586.618 1.85405 -1.98336 0
M  V30 6096 C 585.074 -0.170124 -3.59498 0
M  V30 6097 C 584.682 -1.55421 -4.20176 0
M  V30 6098 C 586.426 0.274513 -4.23611 0
M  V30 6099 C 584.332 -1.55628 -5.70556 0
M  V30 6100 H 583.263 -0.0424183 -0.752806 0
M  V30 6101 H 585.913 -0.782076 -1.65999 0
M  V30 6102 H 584.296 0.555385 -3.92086 0
M  V30 6103 H 585.47 -2.30276 -3.99136 0
M  V30 6104 H 583.784 -1.94235 -3.68323 0
M  V30 6105 H 586.382 0.292402 -5.339 0
M  V30 6106 H 586.725 1.3005 -3.95465 0
M  V30 6107 H 587.258 -0.398275 -3.95801 0
M  V30 6108 H 583.997 -2.56041 -6.03426 0
M  V30 6109 H 583.517 -0.850563 -5.93739 0
M  V30 6110 H 585.196 -1.28721 -6.34066 0
M  V30 6111 N 585.328 1.53329 -0.364422 0
M  V30 6112 C 586.558 2.05359 0.226096 0
M  V30 6113 C 586.966 1.23777 1.43094 0
M  V30 6114 O 586.309 0.271139 1.81688 0
M  V30 6115 C 586.371 3.52918 0.684794 0
M  V30 6116 C 586.035 4.55218 -0.403206 0
M  V30 6117 C 587.032 5.04583 -1.2527 0
M  V30 6118 C 584.717 4.99134 -0.563117 0
M  V30 6119 C 586.711 5.96463 -2.24745 0
M  V30 6120 C 584.398 5.9082 -1.56124 0
M  V30 6121 C 585.396 6.39375 -2.40184 0
M  V30 6122 O 585.084 7.29255 -3.38293 0
M  V30 6123 H 584.816 0.674588 0.0436772 0
M  V30 6124 H 587.37 1.98688 -0.520782 0
M  V30 6125 H 585.6 3.57122 1.48326 0
M  V30 6126 H 587.289 3.87812 1.19818 0
M  V30 6127 H 588.055 4.71403 -1.14034 0
M  V30 6128 H 583.934 4.60928 0.0813909 0
M  V30 6129 H 587.478 6.34285 -2.90393 0
M  V30 6130 H 583.375 6.23414 -1.67407 0
M  V30 6131 H 584.143 7.47249 -3.34009 0
M  V30 6132 N 586.806 0.0935595 1.57322 0
M  V30 6133 C 587.716 -0.880192 2.17462 0
M  V30 6134 C 588.732 -1.31135 1.14366 0
M  V30 6135 O 589.908 -1.37958 1.46729 0
M  V30 6136 C 586.973 -2.12184 2.74188 0
M  V30 6137 C 586.034 -1.74503 3.92234 0
M  V30 6138 C 585.267 -2.92748 4.46245 0
M  V30 6139 O 585.49 -4.07427 3.99198 0
M  V30 6140 O 584.424 -2.71303 5.37288 0
M  V30 6141 H 588.25 -0.398516 3.01074 0
M  V30 6142 H 585.835 -0.130707 1.48827 0
M  V30 6143 H 587.717 -2.84953 3.10451 0
M  V30 6144 H 586.392 -2.59407 1.93623 0
M  V30 6145 H 585.299 -0.989186 3.60785 0
M  V30 6146 H 586.632 -1.32044 4.74157 0
M  V30 6147 N 588.284 -1.56567 -0.180126 0
M  V30 6148 C 589.561 -1.7235 -0.924931 0
M  V30 6149 C 589.941 -0.652523 -2.00762 0
M  V30 6150 O 589.289 0.334115 -2.26044 0
M  V30 6151 C 589.499 -3.1523 -1.49771 0
M  V30 6152 C 590.847 -3.75921 -1.97405 0
M  V30 6153 O 591.871 -3.18452 -1.59583 0
M  V30 6154 O 590.73 -4.7681 -2.67048 0
M  V30 6155 H 587.824 -0.703502 -0.434758 0
M  V30 6156 H 590.37 -1.6886 -0.168647 0
M  V30 6157 H 589.142 -3.84656 -0.718027 0
M  V30 6158 H 588.765 -3.23009 -2.31842 0
M  V30 6159 N 589.762 0.448376 -1.51087 0
M  V30 6160 C 590.992 1.21965 -1.66757 0
M  V30 6161 C 591.4 1.85748 -0.359753 0
M  V30 6162 O 590.743 1.71022 0.670604 0
M  V30 6163 C 590.805 2.35284 -2.71812 0
M  V30 6164 C 590.469 1.91957 -4.1473 0
M  V30 6165 C 591.466 1.42921 -4.9987 0
M  V30 6166 C 589.151 1.99985 -4.60772 0
M  V30 6167 C 591.145 1.02485 -6.29107 0
M  V30 6168 C 588.832 1.5916 -5.90009 0
M  V30 6169 C 589.83 1.10491 -6.74004 0
M  V30 6170 O 589.518 0.702413 -8.00825 0
M  V30 6171 H 589.25 0.374125 -0.563034 0
M  V30 6172 H 591.804 0.538927 -1.98204 0
M  V30 6173 H 590.034 3.06599 -2.35657 0
M  V30 6174 H 591.723 2.97184 -2.76472 0
M  V30 6175 H 592.489 1.36123 -4.65506 0
M  V30 6176 H 588.368 2.36814 -3.95525 0
M  V30 6177 H 591.912 0.644271 -6.94619 0
M  V30 6178 H 587.809 1.65626 -6.2389 0
M  V30 6179 H 588.577 0.829248 -8.14288 0
M  V30 6180 N 591.24 1.41047 0.703093 0
M  V30 6181 C 592.488 1.39723 1.4602 0
M  V30 6182 C 592.809 0.00461257 1.94999 0
M  V30 6183 O 592.079 -0.952292 1.71196 0
M  V30 6184 H 590.659 0.514281 0.541779 0
M  V30 6185 H 593.321 1.76217 0.832678 0
M  V30 6186 H 592.417 2.07982 2.32701 0
M  V30 6187 N 592.718 -0.936591 1.26751 0
M  V30 6188 C 593.946 -1.71758 1.15355 0
M  V30 6189 C 594.361 -1.86549 -0.290683 0
M  V30 6190 O 593.718 -1.37616 -1.19868 0
M  V30 6191 C 593.769 -3.12193 1.82258 0
M  V30 6192 O 593.49 -2.98105 3.21038 0
M  V30 6193 C 594.991 -4.06485 1.76875 0
M  V30 6194 H 592.211 -0.537636 0.401483 0
M  V30 6195 H 594.755 -1.17382 1.67457 0
M  V30 6196 H 592.91 -3.63456 1.34083 0
M  V30 6197 H 593.324 -3.86824 3.54214 0
M  V30 6198 H 594.798 -5.02569 2.28316 0
M  V30 6199 H 595.275 -4.32986 0.736216 0
M  V30 6200 H 595.881 -3.61144 2.24623 0
M  V30 6201 N 594.196 -1.08629 -1.14182 0
M  V30 6202 C 595.159 -0.722027 -2.1753 0
M  V30 6203 C 596.159 0.244305 -1.58933 0
M  V30 6204 O 597.349 0.0235545 -1.74184 0
M  V30 6205 C 594.481 -0.0663966 -3.40835 0
M  V30 6206 H 595.674 -1.63719 -2.51269 0
M  V30 6207 H 593.227 -0.884442 -1.28869 0
M  V30 6208 H 593.962 0.860389 -3.12678 0
M  V30 6209 H 593.747 -0.761598 -3.84632 0
M  V30 6210 H 595.237 0.173346 -4.1724 0
M  V30 6211 N 595.674 1.31259 -0.872281 0
M  V30 6212 C 596.637 2.26744 -0.334656 0
M  V30 6213 C 597.637 1.52307 0.515681 0
M  V30 6214 O 598.827 1.71148 0.324656 0
M  V30 6215 C 595.959 3.36841 0.524482 0
M  V30 6216 H 597.152 2.75812 -1.17762 0
M  V30 6217 H 594.705 1.42232 -0.648064 0
M  V30 6218 H 595.44 2.93069 1.38855 0
M  V30 6219 H 595.225 3.92009 -0.0844299 0
M  V30 6220 H 596.715 4.07944 0.892838 0
M  V30 6221 N 597.152 0.631951 1.44375 0
M  V30 6222 C 598.1 -0.0846693 2.32446 0
M  V30 6223 C 599.094 -0.834957 1.47393 0
M  V30 6224 O 600.3 -0.747764 1.63733 0
M  V30 6225 H 596.675 -0.0461508 0.750583 0
M  V30 6226 H 598.646 0.67619 2.90638 0
M  V30 6227 C 597.395 -1.05211 3.314 0
M  V30 6228 H 596.718 -0.484203 3.96857 0
M  V30 6229 H 598.158 -1.523 3.95703 0
M  V30 6230 C 596.617 -2.13776 2.60387 0
M  V30 6231 O 597.147 -3.21869 2.4034 0
M  V30 6232 N 595.353 -1.89733 2.20113 0
M  V30 6233 H 594.9 -1.01833 2.36618 0
M  V30 6234 H 594.858 -2.62572 1.72926 0
M  V30 6235 N 598.631 -1.53133 0.372548 0
M  V30 6236 C 599.908 -1.93704 -0.271693 0
M  V30 6237 C 600.288 -1.30667 -1.65799 0
M  V30 6238 O 599.636 -0.46838 -2.23648 0
M  V30 6239 C 599.846 -3.47576 -0.314903 0
M  V30 6240 C 601.194 -4.20998 -0.551912 0
M  V30 6241 O 602.218 -3.53994 -0.39582 0
M  V30 6242 O 601.077 -5.39748 -0.85639 0
M  V30 6243 H 598.171 -0.810457 -0.164586 0
M  V30 6244 H 600.717 -1.6427 0.425838 0
M  V30 6245 H 599.489 -3.85749 0.656792 0
M  V30 6246 H 599.112 -3.83264 -1.05804 0
M  V30 6247 N 600.109 -0.101901 -1.5727 0
M  V30 6248 C 601.358 0.559922 -1.93772 0
M  V30 6249 C 601.671 1.68913 -0.98629 0
M  V30 6250 O 602.877 2.41256 -1.24529 0
M  V30 6251 C 601.333 1.04739 -3.44322 0
M  V30 6252 C 600.941 -0.05243 -4.47969 0
M  V30 6253 C 602.685 1.68157 -3.89774 0
M  V30 6254 C 600.592 0.450781 -5.8968 0
M  V30 6255 H 599.522 0.212931 -0.723309 0
M  V30 6256 H 602.173 -0.179001 -1.82625 0
M  V30 6257 H 600.555 1.84021 -3.50645 0
M  V30 6258 H 601.729 -0.828157 -4.53297 0
M  V30 6259 H 600.044 -0.592202 -4.12167 0
M  V30 6260 H 602.641 2.0689 -4.93052 0
M  V30 6261 H 602.984 2.55338 -3.28798 0
M  V30 6262 H 603.517 0.954453 -3.8618 0
M  V30 6263 H 600.256 -0.38458 -6.54371 0
M  V30 6264 H 599.776 1.19336 -5.87809 0
M  V30 6265 H 601.455 0.917555 -6.40461 0
M  V30 6266 N 601.587 1.56661 0.17182 0
M  V30 6267 C 602.835 1.81606 0.886774 0
M  V30 6268 C 603.156 0.678818 1.82803 0
M  V30 6269 O 602.426 -0.301354 1.93568 0
M  V30 6270 H 601.006 0.669934 0.330451 0
M  V30 6271 H 603.668 1.94142 0.171757 0
M  V30 6272 H 602.764 2.75634 1.46398 0
M  V30 6273 N 603.065 -0.440357 1.51323 0
M  V30 6274 C 604.342 -1.20109 1.5438 0
M  V30 6275 C 604.722 -2.08866 0.306303 0
M  V30 6276 O 604.07 -2.1723 -0.708773 0
M  V30 6277 C 604.28 -2.00555 2.8562 0
M  V30 6278 C 605.628 -2.577 3.37455 0
M  V30 6279 O 606.652 -2.10769 2.8715 0
M  V30 6280 O 605.511 -3.43289 4.25224 0
M  V30 6281 H 602.605 -0.546668 0.620551 0
M  V30 6282 H 605.151 -0.449672 1.63634 0
M  V30 6283 H 603.923 -1.35346 3.67147 0
M  V30 6284 H 603.546 -2.82768 2.79514 0
M  V30 6285 N 604.543 -1.41418 -0.695603 0
M  V30 6286 C 605.771 -1.4413 -1.48439 0
M  V30 6287 C 606.186 -0.0465698 -1.88743 0
M  V30 6288 O 605.543 0.934117 -1.56782 0
M  V30 6289 C 605.594 -2.34998 -2.74696 0
M  V30 6290 O 605.315 -3.69043 -2.36091 0
M  V30 6291 C 606.816 -2.46513 -3.68438 0
M  V30 6292 H 604.036 -0.490905 -0.457442 0
M  V30 6293 H 606.58 -1.85702 -0.856454 0
M  V30 6294 H 604.735 -1.96735 -3.33728 0
M  V30 6295 H 605.149 -4.17505 -3.17474 0
M  V30 6296 H 606.623 -3.1426 -4.53811 0
M  V30 6297 H 607.1 -1.49638 -4.12922 0
M  V30 6298 H 607.706 -2.85412 -3.1531 0
M  V30 6299 N 606.021 0.929856 -1.27246 0
M  V30 6300 C 607.249 1.71144 -1.16265 0
M  V30 6301 C 607.664 1.867 0.280786 0
M  V30 6302 O 607.021 1.38249 1.19136 0
M  V30 6303 C 607.072 3.11222 -1.83911 0
M  V30 6304 O 606.793 2.96398 -3.22614 0
M  V30 6305 C 608.294 4.05541 -1.79028 0
M  V30 6306 H 605.514 0.535499 -0.404328 0
M  V30 6307 H 608.058 1.16492 -1.68077 0
M  V30 6308 H 606.213 3.6274 -1.36009 0
M  V30 6309 H 606.627 3.8494 -3.56261 0
M  V30 6310 H 608.101 5.01351 -2.30978 0
M  V30 6311 H 608.578 4.32589 -0.759168 0
M  V30 6312 H 609.184 3.59947 -2.26535 0
M  V30 6313 N 607.499 1.09233 1.13605 0
M  V30 6314 C 608.447 0.724572 2.21027 0
M  V30 6315 C 609.441 -0.273595 1.67176 0
M  V30 6316 O 610.647 -0.135266 1.79491 0
M  V30 6317 H 607.022 0.216319 0.720215 0
M  V30 6318 H 608.993 1.63975 2.49309 0
M  V30 6319 C 607.742 0.159126 3.47336 0
M  V30 6320 H 607.065 0.918387 3.89109 0
M  V30 6321 H 608.505 -0.0602851 4.23957 0
M  V30 6322 C 606.964 -1.10514 3.18258 0
M  V30 6323 O 607.494 -2.18869 3.36837 0
M  V30 6324 N 605.7 -1.01886 2.72154 0
M  V30 6325 H 605.247 -0.137027 2.57235 0
M  V30 6326 H 605.205 -1.8655 2.53074 0
M  V30 6327 N 608.977 -1.30795 0.87923 0
M  V30 6328 C 610.393 -1.48981 0.57243 0
M  V30 6329 C 610.593 -1.80719 -0.891236 0
M  V30 6330 O 609.649 -1.89136 -1.67283 0
M  V30 6331 C 610.962 -2.61721 1.48063 0
M  V30 6332 C 612.51 -2.75603 1.48365 0
M  V30 6333 C 612.985 -3.91449 2.37763 0
M  V30 6334 N 614.476 -3.98751 2.35695 0
M  V30 6335 C 615.211 -4.87684 3.01583 0
M  V30 6336 N 614.707 -5.81454 3.76674 0
M  V30 6337 N 616.5 -4.81005 2.90844 0
M  V30 6338 H 608.651 -1.08465 1.82617 0
M  V30 6339 H 610.914 -0.536813 0.781368 0
M  V30 6340 H 610.62 -2.45073 2.52254 0
M  V30 6341 H 610.494 -3.58071 1.18596 0
M  V30 6342 H 612.881 -2.9166 0.44927 0
M  V30 6343 H 612.962 -1.79891 1.81859 0
M  V30 6344 H 612.606 -3.76149 3.41283 0
M  V30 6345 H 612.536 -4.86487 2.01589 0
M  V30 6346 H 615.027 -3.31668 1.81121 0
M  V30 6347 H 615.34 -6.46063 4.24054 0
M  V30 6348 H 613.685 -5.81403 3.80782 0
M  V30 6349 H 616.876 -4.06728 2.31711 0
M  V30 6350 H 617.049 -5.50107 3.42471 0
M  V30 6351 N 610.455 -0.639598 -1.44038 0
M  V30 6352 C 611.68 -0.153117 -2.06834 0
M  V30 6353 C 612.105 1.16676 -1.47541 0
M  V30 6354 O 611.463 1.71769 -0.580093 0
M  V30 6355 C 611.511 -0.0609169 -3.60549 0
M  V30 6356 O 610.615 0.98071 -4.00569 0
M  V30 6357 H 609.956 -0.0886402 -0.658057 0
M  V30 6358 H 612.486 -0.878674 -1.84771 0
M  V30 6359 H 612.496 0.126892 -4.07803 0
M  V30 6360 H 611.171 -1.0245 -4.03084 0
M  V30 6361 H 609.748 0.766789 -3.64931 0
M  V30 6362 N 611.933 1.52934 -0.380664 0
M  V30 6363 C 612.881 2.27727 0.47361 0
M  V30 6364 C 613.875 1.31288 1.0705 0
M  V30 6365 O 615.081 1.4886 1.01197 0
M  V30 6366 H 611.456 0.732189 0.171475 0
M  V30 6367 H 613.427 2.97864 -0.178785 0
M  V30 6368 C 612.176 3.0904 1.59341 0
M  V30 6369 H 611.499 3.831 1.14343 0
M  V30 6370 H 612.939 3.64527 2.16555 0
M  V30 6371 C 611.398 2.20813 2.54447 0
M  V30 6372 O 611.928 1.82907 3.57642 0
M  V30 6373 N 610.134 1.85145 2.23986 0
M  V30 6374 H 609.681 2.16169 1.40103 0
M  V30 6375 H 609.639 1.26402 2.87871 0
M  V30 6376 N 613.412 0.11024 1.57214 0
M  V30 6377 C 614.322 -0.857077 2.18383 0
M  V30 6378 C 615.338 -1.29915 1.1575 0
M  V30 6379 O 616.514 -1.36394 1.48184 0
M  V30 6380 C 613.579 -2.09264 2.76423 0
M  V30 6381 C 612.64 -1.70333 3.94063 0
M  V30 6382 C 611.873 -2.87999 4.49324 0
M  V30 6383 O 612.096 -4.0317 4.03497 0
M  V30 6384 O 611.03 -2.6559 5.40135 0
M  V30 6385 H 614.856 -0.366561 3.0148 0
M  V30 6386 H 612.441 -0.114914 1.48957 0
M  V30 6387 H 614.323 -2.81644 3.13456 0
M  V30 6388 H 612.998 -2.57339 1.96363 0
M  V30 6389 H 611.905 -0.950864 3.61814 0
M  V30 6390 H 613.238 -1.27007 4.75531 0
M  V30 6391 N 614.89 -1.56749 -0.16351 0
M  V30 6392 C 616.139 -1.81626 -0.877211 0
M  V30 6393 C 616.452 -0.688791 -1.83071 0
M  V30 6394 O 617.658 -0.822697 -2.58735 0
M  V30 6395 C 616.114 -3.21858 -1.61045 0
M  V30 6396 C 615.722 -4.42494 -0.700195 0
M  V30 6397 C 617.466 -3.56021 -2.31192 0
M  V30 6398 C 615.373 -5.73748 -1.43412 0
M  V30 6399 H 614.303 -0.67731 -0.331312 0
M  V30 6400 H 616.954 -1.83039 -0.13006 0
M  V30 6401 H 615.336 -3.14784 -2.40264 0
M  V30 6402 H 616.51 -4.60766 0.0555849 0
M  V30 6403 H 614.825 -4.1626 -0.10799 0
M  V30 6404 H 617.422 -4.51333 -2.8671 0
M  V30 6405 H 617.765 -2.81277 -3.06902 0
M  V30 6406 H 618.298 -3.64682 -1.58909 0
M  V30 6407 H 615.037 -6.51543 -0.719186 0
M  V30 6408 H 614.557 -5.5944 -2.16302 0
M  V30 6409 H 616.236 -6.15975 -1.9795 0
M  V30 6410 N 616.368 0.432326 -1.51554 0
M  V30 6411 C 617.779 1.01202 -1.56892 0
M  V30 6412 C 618.13 1.92175 -0.395394 0
M  V30 6413 O 617.255 2.10844 0.487198 0
M  V30 6414 C 617.85 1.84217 -2.8434 0
M  V30 6415 C 616.409 2.37228 -2.92233 0
M  V30 6416 C 615.556 1.16576 -2.51606 0
M  V30 6417 H 618.507 0.213407 -1.57259 0
M  V30 6418 H 618.528 2.69721 -2.68385 0
M  V30 6419 H 618.04 1.17979 -3.69733 0
M  V30 6420 H 616.141 3.06905 -2.11282 0
M  V30 6421 H 616.254 2.69682 -3.95991 0
M  V30 6422 H 614.618 1.51263 -2.04919 0
M  V30 6423 H 615.401 0.519404 -3.39348 0
M  V30 6424 N 617.846 1.41785 0.688094 0
M  V30 6425 C 619.071 1.45117 1.48175 0
M  V30 6426 C 619.496 0.060129 1.88004 0
M  V30 6427 O 618.854 -0.938385 1.55126 0
M  V30 6428 C 618.902 2.37224 2.71583 0
M  V30 6429 O 618.006 1.83443 3.69354 0
M  V30 6430 H 617.347 0.492208 0.445676 0
M  V30 6431 H 619.877 1.86329 0.845145 0
M  V30 6432 H 619.887 2.53353 3.19806 0
M  V30 6433 H 618.562 3.38293 2.41931 0
M  V30 6434 H 617.139 1.76802 3.28322 0
M  V30 6435 N 619.324 -0.923095 1.27737 0
M  V30 6436 C 620.552 -1.70525 1.17171 0
M  V30 6437 C 620.967 -1.86847 -0.270881 0
M  V30 6438 O 620.324 -1.38879 -1.18401 0
M  V30 6439 C 620.375 -3.10242 1.85559 0
M  V30 6440 O 620.096 -2.94683 3.24182 0
M  V30 6441 C 621.597 -4.04586 1.81176 0
M  V30 6442 H 618.817 -0.533347 0.407163 0
M  V30 6443 H 621.361 -1.15599 1.68692 0
M  V30 6444 H 619.516 -3.62014 1.3793 0
M  V30 6445 H 619.93 -3.83045 3.58297 0
M  V30 6446 H 621.404 -5.00119 2.33633 0
M  V30 6447 H 621.881 -4.3218 0.782099 0
M  V30 6448 H 622.487 -3.58741 2.2844 0
M  V30 6449 N 620.802 -1.09834 -1.13024 0
M  V30 6450 C 622.079 -0.749225 -1.80682 0
M  V30 6451 C 622.459 0.765171 -1.96744 0
M  V30 6452 O 621.807 1.68912 -1.53886 0
M  V30 6453 C 622.017 -1.49311 -3.15448 0
M  V30 6454 C 623.365 -1.66162 -3.90737 0
M  V30 6455 O 624.389 -1.45597 -3.25085 0
M  V30 6456 O 623.248 -2.00211 -5.08505 0
M  V30 6457 H 620.342 -0.269614 -0.781817 0
M  V30 6458 H 622.888 -1.20078 -1.19914 0
M  V30 6459 H 621.66 -2.52407 -2.99009 0
M  V30 6460 H 621.283 -1.034 -3.8392 0
M  V30 6461 N 622.28 1.30327 -0.886154 0
M  V30 6462 C 623.526 1.96388 -0.505941 0
M  V30 6463 C 623.859 1.69784 0.942712 0
M  V30 6464 O 623.134 1.00322 1.6663 0
M  V30 6465 C 623.417 3.51488 -0.782826 0
M  V30 6466 C 623.27 3.87603 -2.28219 0
M  V30 6467 C 624.589 4.39331 -0.260128 0
M  V30 6468 H 621.708 0.713327 -0.185292 0
M  V30 6469 H 624.35 1.54178 -1.11036 0
M  V30 6470 H 622.5 3.87572 -0.268399 0
M  V30 6471 H 624.172 3.61537 -2.86512 0
M  V30 6472 H 622.415 3.3563 -2.74837 0
M  V30 6473 H 623.086 4.95806 -2.42653 0
M  V30 6474 H 625.562 4.10162 -0.700444 0
M  V30 6475 H 624.438 5.46769 -0.483179 0
M  V30 6476 H 624.699 4.34072 0.838674 0
M  V30 6477 N 623.758 0.647228 1.43697 0
M  V30 6478 C 624.986 0.16575 2.06235 0
M  V30 6479 C 625.401 -1.1662 1.48476 0
M  V30 6480 O 624.758 -1.7187 0.613762 0
M  V30 6481 C 624.809 0.0621651 3.61447 0
M  V30 6482 O 624.53 1.34146 4.17057 0
M  V30 6483 C 626.031 -0.446102 4.4105 0
M  V30 6484 H 623.251 0.0871158 0.665321 0
M  V30 6485 H 625.795 0.886183 1.84301 0
M  V30 6486 H 623.95 -0.608794 3.82587 0
M  V30 6487 H 624.364 1.19675 5.10664 0
M  V30 6488 H 625.838 -0.46755 5.50016 0
M  V30 6489 H 626.315 -1.47627 4.13646 0
M  V30 6490 H 626.921 0.192159 4.24866 0
M  V30 6491 N 625.236 -1.5273 0.388769 0
M  V30 6492 C 626.513 -1.93981 -0.251133 0
M  V30 6493 C 626.893 -1.32418 -1.64404 0
M  V30 6494 O 626.241 -0.492074 -2.23139 0
M  V30 6495 C 626.451 -3.47891 -0.27802 0
M  V30 6496 C 627.799 -4.21559 -0.507229 0
M  V30 6497 O 628.823 -3.54394 -0.358252 0
M  V30 6498 O 627.682 -5.40626 -0.799094 0
M  V30 6499 H 624.776 -0.812157 -0.15598 0
M  V30 6500 H 627.322 -1.63809 0.443237 0
M  V30 6501 H 626.094 -3.8503 0.697669 0
M  V30 6502 H 625.717 -3.84364 -1.01733 0
M  V30 6503 N 626.714 -0.118576 -1.57153 0
M  V30 6504 C 627.661 0.831789 -2.1529 0
M  V30 6505 C 628.631 1.26385 -1.07778 0
M  V30 6506 O 629.816 1.34144 -1.35684 0
M  V30 6507 C 626.956 2.07664 -2.75626 0
M  V30 6508 C 626.069 1.69298 -3.97444 0
M  V30 6509 C 625.204 2.88747 -4.45868 0
M  V30 6510 C 624.243 2.46619 -5.60219 0
M  V30 6511 N 623.38 3.5898 -6.03389 0
M  V30 6512 H 628.22 0.329183 -2.96176 0
M  V30 6513 H 625.757 0.150792 -1.46325 0
M  V30 6514 H 627.715 2.80601 -3.08738 0
M  V30 6515 H 626.345 2.55384 -1.97431 0
M  V30 6516 H 625.397 0.862374 -3.70496 0
M  V30 6517 H 626.709 1.34338 -4.80369 0
M  V30 6518 H 625.863 3.69909 -4.80887 0
M  V30 6519 H 624.602 3.26933 -3.61892 0
M  V30 6520 H 623.607 1.63889 -5.24805 0
M  V30 6521 H 624.832 2.0955 -6.45961 0
M  V30 6522 H 622.778 3.9684 -5.22354 0
M  V30 6523 H 622.695 3.27942 -6.81168 0
M  V30 6524 H 623.963 4.40583 -6.43045 0
M  V30 6525 N 628.193 1.56834 0.155195 0
M  V30 6526 C 629.421 1.87049 0.884326 0
M  V30 6527 C 629.836 0.705839 1.7511 0
M  V30 6528 O 629.193 -0.324641 1.79589 0
M  V30 6529 C 629.244 3.1644 1.74781 0
M  V30 6530 O 628.965 4.28417 0.915978 0
M  V30 6531 C 630.466 3.60113 2.58522 0
M  V30 6532 H 627.686 0.620196 0.25612 0
M  V30 6533 H 630.23 2.03946 0.150445 0
M  V30 6534 H 628.385 3.01321 2.43484 0
M  V30 6535 H 628.799 5.02353 1.50803 0
M  V30 6536 H 630.273 4.53508 3.14698 0
M  V30 6537 H 630.75 2.85005 3.34169 0
M  V30 6538 H 631.356 3.77898 1.95124 0
M  V30 6539 N 629.671 -0.424282 1.51781 0
M  V30 6540 C 630.919 -1.17028 1.64769 0
M  V30 6541 C 631.24 -1.91409 0.372523 0
M  V30 6542 O 630.51 -1.86091 -0.612108 0
M  V30 6543 H 629.09 -0.434992 0.607282 0
M  V30 6544 H 631.752 -0.485169 1.88765 0
M  V30 6545 H 630.848 -1.8927 2.4816 0
M  V30 6546 N 631.149 -1.42148 -0.680565 0
M  V30 6547 C 632.565 -1.24947 -0.992995 0
M  V30 6548 C 632.765 -0.149527 -2.00944 0
M  V30 6549 O 631.821 0.481145 -2.47873 0
M  V30 6550 C 633.134 -2.60426 -1.5033 0
M  V30 6551 C 634.682 -2.67733 -1.62137 0
M  V30 6552 C 635.157 -4.03564 -2.16565 0
M  V30 6553 N 636.648 -4.05488 -2.23905 0
M  V30 6554 C 637.383 -5.07401 -2.67081 0
M  V30 6555 N 636.879 -6.19698 -3.09751 0
M  V30 6556 N 638.672 -4.94758 -2.66778 0
M  V30 6557 H 630.823 -2.12399 -0.0074788 0
M  V30 6558 H 633.086 -0.94571 -0.0658529 0
M  V30 6559 H 632.792 -3.41743 -0.830947 0
M  V30 6560 H 632.666 -2.83949 -2.483 0
M  V30 6561 H 635.053 -1.86765 -2.2848 0
M  V30 6562 H 635.134 -2.48004 -0.626713 0
M  V30 6563 H 634.778 -4.84987 -1.50833 0
M  V30 6564 H 634.708 -4.20641 -3.1681 0
M  V30 6565 H 637.199 -3.24415 -1.93812 0
M  V30 6566 H 637.512 -6.93318 -3.41365 0
M  V30 6567 H 635.857 -6.23212 -3.07623 0
M  V30 6568 H 639.048 -4.06105 -2.32801 0
M  V30 6569 H 639.221 -5.74317 -3.00107 0
M  V30 6570 N 632.627 0.916307 -1.28225 0
M  V30 6571 C 633.537 2.05165 -1.13775 0
M  V30 6572 C 634.553 1.73879 -0.0649418 0
M  V30 6573 O 635.729 1.99531 -0.273722 0
M  V30 6574 C 632.794 3.37385 -0.798267 0
M  V30 6575 C 631.855 3.82296 -1.95316 0
M  V30 6576 C 631.088 5.08206 -1.62978 0
M  V30 6577 O 631.311 5.6781 -0.542948 0
M  V30 6578 O 630.245 5.48768 -2.47261 0
M  V30 6579 H 634.071 2.20273 -2.09078 0
M  V30 6580 H 631.656 1.0373 -1.07519 0
M  V30 6581 H 633.538 4.16773 -0.62278 0
M  V30 6582 H 632.213 3.23458 0.125139 0
M  V30 6583 H 631.12 3.03746 -2.18378 0
M  V30 6584 H 632.453 4.00782 -2.85718 0
M  V30 6585 N 634.105 1.10431 1.1244 0
M  V30 6586 C 635.055 0.722378 2.16254 0
M  V30 6587 C 636.039 -0.268427 1.58645 0
M  V30 6588 O 637.231 -0.077169 1.76832 0
M  V30 6589 C 634.36 0.155763 3.42946 0
M  V30 6590 C 633.446 1.17361 4.07538 0
M  V30 6591 N 633.837 2.36429 4.47141 0
M  V30 6592 C 632.135 1.01412 4.34317 0
M  V30 6593 C 632.836 3.01259 4.97612 0
M  V30 6594 N 631.812 2.28777 4.93115 0
M  V30 6595 H 635.614 1.62876 2.4464 0
M  V30 6596 H 633.128 0.982031 1.29344 0
M  V30 6597 H 635.125 -0.135936 4.16678 0
M  V30 6598 H 633.785 -0.745339 3.1603 0
M  V30 6599 H 634.796 2.73954 4.39511 0
M  V30 6600 H 631.473 0.168574 4.1716 0
M  V30 6601 H 632.863 4.02541 5.37968 0
M  V30 6602 N 635.583 -1.29855 0.893053 0
M  V30 6603 C 636.513 -2.3035 0.382249 0
M  V30 6604 C 637.494 -1.61328 -0.539203 0
M  V30 6605 O 638.679 -1.88882 -0.451342 0
M  V30 6606 C 635.809 -3.45024 -0.396983 0
M  V30 6607 C 634.763 -4.258 0.433437 0
M  V30 6608 C 634.089 -5.32605 -0.472889 0
M  V30 6609 C 635.389 -4.94549 1.67984 0
M  V30 6610 H 637.083 -2.73325 1.22205 0
M  V30 6611 H 634.629 -1.314 0.589073 0
M  V30 6612 H 636.582 -4.14398 -0.765024 0
M  V30 6613 H 635.306 -3.00875 -1.2705 0
M  V30 6614 H 633.965 -3.58125 0.783723 0
M  V30 6615 H 633.613 -4.84702 -1.34435 0
M  V30 6616 H 633.313 -5.87547 0.0789958 0
M  V30 6617 H 634.837 -6.04832 -0.837269 0
M  V30 6618 H 636.251 -5.56395 1.38192 0
M  V30 6619 H 634.648 -5.59393 2.17254 0
M  V30 6620 H 635.718 -4.20215 2.41965 0
M  V30 6621 N 637.061 -0.65484 -1.43351 0
M  V30 6622 C 638.286 -0.175046 -2.0666 0
M  V30 6623 C 638.711 1.15104 -1.4877 0
M  V30 6624 O 638.069 1.71144 -0.598279 0
M  V30 6625 C 638.117 -0.0991544 -3.60464 0
M  V30 6626 O 637.221 0.938169 -4.01587 0
M  V30 6627 H 636.562 -0.0956148 -0.65708 0
M  V30 6628 H 639.092 -0.898222 -1.83829 0
M  V30 6629 H 639.102 0.083632 -4.07914 0
M  V30 6630 H 637.777 -1.06719 -4.01975 0
M  V30 6631 H 636.354 0.72804 -3.65724 0
M  V30 6632 N 638.539 1.52521 -0.396863 0
M  V30 6633 C 639.785 2.01971 0.183169 0
M  V30 6634 C 640.118 1.2825 1.45827 0
M  V30 6635 O 639.393 0.385179 1.90648 0
M  V30 6636 C 639.676 3.5736 0.443391 0
M  V30 6637 C 639.529 4.41743 -0.84753 0
M  V30 6638 C 640.848 4.22539 1.2308 0
M  V30 6639 H 637.967 0.734119 0.0650976 0
M  V30 6640 H 640.609 1.82519 -0.527918 0
M  V30 6641 H 638.759 3.74066 1.04914 0
M  V30 6642 H 640.431 4.36773 -1.48414 0
M  V30 6643 H 638.674 4.0845 -1.4612 0
M  V30 6644 H 639.345 5.48507 -0.620003 0
M  V30 6645 H 641.821 4.09857 0.718084 0
M  V30 6646 H 640.697 5.31227 1.38162 0
M  V30 6647 H 640.958 3.80675 2.24808 0
M  V30 6648 N 640.017 0.126909 1.57088 0
M  V30 6649 C 641.247 -0.535892 1.99529 0
M  V30 6650 C 641.655 -1.60259 1.00566 0
M  V30 6651 O 640.998 -1.83698 -0.00843269 0
M  V30 6652 C 641.06 -1.21374 3.38391 0
M  V30 6653 C 640.724 -0.294044 4.56053 0
M  V30 6654 C 641.721 0.470454 5.17767 0
M  V30 6655 C 639.406 -0.202808 5.0189 0
M  V30 6656 C 641.4 1.31384 6.23712 0
M  V30 6657 C 639.087 0.644203 6.07695 0
M  V30 6658 C 640.085 1.40115 6.68473 0
M  V30 6659 O 639.773 2.23408 7.72233 0
M  V30 6660 H 639.505 -0.145799 0.66009 0
M  V30 6661 H 642.059 0.212441 2.04298 0
M  V30 6662 H 640.289 -2.00931 3.30399 0
M  V30 6663 H 641.978 -1.77424 3.65069 0
M  V30 6664 H 642.744 0.409884 4.83265 0
M  V30 6665 H 638.623 -0.781688 4.54324 0
M  V30 6666 H 642.167 1.90514 6.71081 0
M  V30 6667 H 638.064 0.706137 6.41626 0
M  V30 6668 H 638.832 2.16436 7.89365 0
M  V30 6669 N 641.495 -1.56914 -0.146875 0
M  V30 6670 C 642.458 -1.97368 -1.16526 0
M  V30 6671 C 643.458 -0.860223 -1.35856 0
M  V30 6672 O 644.648 -1.12684 -1.32846 0
M  V30 6673 C 641.78 -2.28974 -2.52555 0
M  V30 6674 H 642.973 -2.88523 -0.818209 0
M  V30 6675 H 640.526 -1.5135 -0.390221 0
M  V30 6676 H 641.261 -1.40611 -2.92231 0
M  V30 6677 H 641.046 -3.10157 -2.39886 0
M  V30 6678 H 642.536 -2.61109 -3.25902 0
M  V30 6679 N 642.974 0.416227 -1.52004 0
M  V30 6680 C 644.22 1.16555 -1.6596 0
M  V30 6681 C 644.553 1.90347 -0.384906 0
M  V30 6682 O 643.828 1.84474 0.616405 0
M  V30 6683 C 644.111 2.1657 -2.87696 0
M  V30 6684 C 643.964 1.46722 -4.25197 0
M  V30 6685 C 645.283 3.17321 -3.04951 0
M  V30 6686 H 642.402 0.422369 -0.603965 0
M  V30 6687 H 645.044 0.452141 -1.84542 0
M  V30 6688 H 643.194 2.77411 -2.71985 0
M  V30 6689 H 644.866 0.89056 -4.52622 0
M  V30 6690 H 643.109 0.769263 -4.26925 0
M  V30 6691 H 643.78 2.19665 -5.0641 0
M  V30 6692 H 646.256 2.66552 -3.19514 0
M  V30 6693 H 645.132 3.84573 -3.91656 0
M  V30 6694 H 645.393 3.84643 -2.17951 0
M  V30 6695 N 644.452 1.42507 0.673017 0
M  V30 6696 C 645.698 1.43284 1.43519 0
M  V30 6697 C 646.031 0.049668 1.94136 0
M  V30 6698 O 645.306 -0.926369 1.71022 0
M  V30 6699 C 645.589 2.45874 2.63093 0
M  V30 6700 C 645.442 3.93388 2.18096 0
M  V30 6701 C 646.761 2.45431 3.6531 0
M  V30 6702 H 643.88 0.521752 0.520522 0
M  V30 6703 H 646.522 1.73932 0.764701 0
M  V30 6704 H 644.672 2.19869 3.20296 0
M  V30 6705 H 646.344 4.30379 1.66046 0
M  V30 6706 H 644.587 4.07169 1.49652 0
M  V30 6707 H 645.258 4.60752 3.03993 0
M  V30 6708 H 647.734 2.68561 3.17827 0
M  V30 6709 H 646.61 3.19189 4.46553 0
M  V30 6710 H 646.871 1.48092 4.16559 0
M  V30 6711 N 645.93 -0.909495 1.28709 0
M  V30 6712 C 647.176 -1.66151 1.16283 0
M  V30 6713 C 647.509 -1.92067 -0.287069 0
M  V30 6714 O 646.784 -1.52409 -1.20837 0
M  V30 6715 C 647.067 -3.01676 1.9663 0
M  V30 6716 C 646.92 -2.82888 3.49707 0
M  V30 6717 C 648.239 -4.02274 1.78504 0
M  V30 6718 H 645.358 -0.602966 0.423793 0
M  V30 6719 H 648 -1.05418 1.58073 0
M  V30 6720 H 646.15 -3.53515 1.61119 0
M  V30 6721 H 647.822 -2.38026 3.95147 0
M  V30 6722 H 646.065 -2.17862 3.75125 0
M  V30 6723 H 646.736 -3.79147 4.01187 0
M  V30 6724 H 649.212 -3.59511 2.09503 0
M  V30 6725 H 648.088 -4.95056 2.37088 0
M  V30 6726 H 648.349 -4.35903 0.737647 0
M  V30 6727 N 647.408 -1.11026 -1.11852 0
M  V30 6728 C 648.657 -0.851249 -1.82857 0
M  V30 6729 C 648.97 0.62514 -1.85341 0
M  V30 6730 O 650.176 1.00026 -2.52403 0
M  V30 6731 C 648.632 -1.47309 -3.28372 0
M  V30 6732 C 648.24 -2.9832 -3.34229 0
M  V30 6733 C 649.984 -1.29373 -4.04306 0
M  V30 6734 C 647.891 -3.53509 -4.74115 0
M  V30 6735 H 646.821 -0.314794 -0.685143 0
M  V30 6736 H 649.472 -1.33499 -1.25898 0
M  V30 6737 H 647.854 -0.917017 -3.85236 0
M  V30 6738 H 649.028 -3.60295 -2.87271 0
M  V30 6739 H 647.343 -3.15482 -2.71772 0
M  V30 6740 H 649.94 -1.68042 -5.07608 0
M  V30 6741 H 650.283 -0.235879 -4.15631 0
M  V30 6742 H 650.816 -1.8182 -3.53817 0
M  V30 6743 H 647.555 -4.58987 -4.67986 0
M  V30 6744 H 647.075 -2.96305 -5.21501 0
M  V30 6745 H 648.754 -3.51693 -5.43066 0
M  V30 6746 N 648.886 1.2938 -0.899927 0
M  V30 6747 C 649.849 2.25983 -0.382677 0
M  V30 6748 C 650.849 1.53366 0.483259 0
M  V30 6749 O 652.039 1.71798 0.28828 0
M  V30 6750 C 649.171 3.37878 0.452915 0
M  V30 6751 H 650.364 2.73252 -1.23586 0
M  V30 6752 H 647.917 1.40825 -0.678088 0
M  V30 6753 H 648.652 2.95949 1.32608 0
M  V30 6754 H 648.437 3.91742 -0.167562 0
M  V30 6755 H 649.927 4.09746 0.806107 0
M  V30 6756 N 650.364 0.662433 1.43002 0
M  V30 6757 C 651.589 0.186003 2.06564 0
M  V30 6758 C 652.014 -1.14314 1.49379 0
M  V30 6759 O 651.372 -1.70824 0.607346 0
M  V30 6760 C 651.42 0.118269 3.60406 0
M  V30 6761 O 650.524 -0.916859 4.02079 0
M  V30 6762 H 649.865 0.0990981 0.656563 0
M  V30 6763 H 652.395 0.907958 1.8335 0
M  V30 6764 H 652.405 -0.0619981 4.07953 0
M  V30 6765 H 651.08 1.08849 4.01403 0
M  V30 6766 H 649.657 -0.708635 3.66105 0
M  V30 6767 N 651.842 -1.52309 0.404946 0
M  V30 6768 C 653.088 -2.02065 -0.172455 0
M  V30 6769 C 653.421 -1.29022 -1.45145 0
M  V30 6770 O 652.696 -0.395284 -1.90441 0
M  V30 6771 C 652.979 -3.5759 -0.424433 0
M  V30 6772 C 652.832 -4.41287 0.870945 0
M  V30 6773 C 654.151 -4.23186 -1.20837 0
M  V30 6774 H 651.27 -0.734454 -0.0612035 0
M  V30 6775 H 653.912 -1.82236 0.53759 0
M  V30 6776 H 652.062 -3.74617 -1.02929 0
M  V30 6777 H 653.734 -4.3598 1.50729 0
M  V30 6778 H 651.977 -4.07669 1.48284 0
M  V30 6779 H 652.648 -5.48171 0.649083 0
M  V30 6780 H 655.124 -4.10232 -0.696338 0
M  V30 6781 H 654 -5.31953 -1.35343 0
M  V30 6782 H 654.261 -3.81862 -2.22786 0
M  V30 6783 N 653.32 -0.135238 -1.57019 0
M  V30 6784 C 654.566 0.519563 -1.96032 0
M  V30 6785 C 654.899 1.65284 -1.01955 0
M  V30 6786 O 654.174 1.94408 -0.059727 0
M  V30 6787 C 654.457 1.0369 -3.44848 0
M  V30 6788 C 654.31 -0.0940754 -4.49702 0
M  V30 6789 C 655.629 1.92254 -3.95887 0
M  V30 6790 H 652.748 0.18739 -0.712779 0
M  V30 6791 H 655.39 -0.214086 -1.8879 0
M  V30 6792 H 653.54 1.66209 -3.5115 0
M  V30 6793 H 655.212 -0.73 -4.55487 0
M  V30 6794 H 653.455 -0.754924 -4.27181 0
M  V30 6795 H 654.126 0.309419 -5.51132 0
M  V30 6796 H 656.602 1.39581 -3.9199 0
M  V30 6797 H 655.478 2.25364 -5.00502 0
M  V30 6798 H 655.739 2.85513 -3.37543 0
M  V30 6799 N 654.798 1.5699 0.138552 0
M  V30 6800 C 656.046 1.83446 0.848053 0
M  V30 6801 C 656.367 0.71744 1.81322 0
M  V30 6802 O 655.637 -0.260228 1.94164 0
M  V30 6803 H 654.217 0.676792 0.316166 0
M  V30 6804 H 656.879 1.94462 0.130538 0
M  V30 6805 H 655.975 2.78677 1.40518 0
M  V30 6806 N 656.276 -0.40816 1.52223 0
M  V30 6807 C 657.523 -1.15502 1.66329 0
M  V30 6808 C 657.851 -1.90474 0.393701 0
M  V30 6809 O 657.106 -1.85507 -0.623356 0
M  V30 6810 C 657.405 -2.17422 2.83659 0
M  V30 6811 C 657.071 -1.5925 4.21841 0
M  V30 6812 C 655.733 -1.4311 4.59427 0
M  V30 6813 C 658.085 -1.16776 5.0795 0
M  V30 6814 C 655.413 -0.830148 5.80797 0
M  V30 6815 C 657.765 -0.580988 6.29926 0
M  V30 6816 C 656.429 -0.406729 6.6626 0
M  V30 6817 H 655.699 -0.422653 0.608642 0
M  V30 6818 H 658.346 -0.442114 1.86327 0
M  V30 6819 H 656.651 -2.94861 2.58001 0
M  V30 6820 H 658.348 -2.75084 2.9177 0
M  V30 6821 H 654.938 -1.72796 3.92224 0
M  V30 6822 H 659.122 -1.28055 4.79495 0
M  V30 6823 H 654.378 -0.68316 6.07571 0
M  V30 6824 H 658.552 -0.243488 6.95974 0
M  V30 6825 H 656.179 0.0610366 7.60175 0
M  V30 6826 N 657.755 -1.42862 -0.66545 0
M  V30 6827 C 658.995 -1.45323 -1.43738 0
M  V30 6828 C 659.359 -0.0707969 -1.91869 0
M  V30 6829 O 660.56 0.0298852 -2.68783 0
M  V30 6830 C 658.831 -2.45671 -2.59577 0
M  V30 6831 S 660.39 -2.6691 -3.48288 0
M  V30 6832 H 657.208 -0.51442 -0.490809 0
M  V30 6833 H 659.81 -1.79537 -0.773745 0
M  V30 6834 H 658.514 -3.44869 -2.22471 0
M  V30 6835 H 658.045 -2.12914 -3.30804 0
M  V30 6836 H 660.06 -1.95914 -4.55886 0
M  V30 6837 N 659.233 0.902656 -1.29189 0
M  V30 6838 C 660.163 2.02294 -1.16616 0
M  V30 6839 C 661.144 1.6999 -0.0611175 0
M  V30 6840 O 662.329 1.9271 -0.240072 0
M  V30 6841 C 659.459 3.37018 -0.83882 0
M  V30 6842 C 658.413 3.83522 -1.89986 0
M  V30 6843 C 657.739 5.15337 -1.42589 0
M  V30 6844 C 659.039 4.04169 -3.30824 0
M  V30 6845 H 660.733 2.13071 -2.10336 0
M  V30 6846 H 658.279 1.02378 -1.01266 0
M  V30 6847 H 660.232 4.14895 -0.737584 0
M  V30 6848 H 658.956 3.26325 0.134071 0
M  V30 6849 H 657.615 3.07859 -1.99043 0
M  V30 6850 H 657.263 5.01056 -0.441759 0
M  V30 6851 H 656.963 5.47423 -2.13547 0
M  V30 6852 H 658.487 5.95758 -1.3381 0
M  V30 6853 H 659.901 4.72537 -3.24626 0
M  V30 6854 H 658.298 4.47604 -3.99713 0
M  V30 6855 H 659.368 3.08604 -3.74021 0
M  V30 6856 N 660.711 1.11618 1.11262 0
M  V30 6857 C 661.641 0.79846 2.19424 0
M  V30 6858 C 662.622 -0.234003 1.68483 0
M  V30 6859 O 663.807 -0.0970704 1.93957 0
M  V30 6860 C 660.937 0.242892 3.4645 0
M  V30 6861 C 659.891 1.20744 4.10615 0
M  V30 6862 C 659.217 0.512494 5.32238 0
M  V30 6863 C 660.517 2.55884 4.55325 0
M  V30 6864 H 662.211 1.70286 2.46258 0
M  V30 6865 H 659.757 0.820195 1.18359 0
M  V30 6866 H 661.71 0.00840447 4.21399 0
M  V30 6867 H 660.434 -0.696811 3.1908 0
M  V30 6868 H 659.093 1.42759 3.37662 0
M  V30 6869 H 658.741 -0.432075 5.01141 0
M  V30 6870 H 658.441 1.15583 5.7612 0
M  V30 6871 H 659.965 0.286842 6.09926 0
M  V30 6872 H 661.379 2.37946 5.21588 0
M  V30 6873 H 659.776 3.16216 5.10027 0
M  V30 6874 H 660.846 3.14968 3.68678 0
M  V30 6875 N 662.189 -1.289 0.906776 0
M  V30 6876 C 663.435 -1.95558 0.53712 0
M  V30 6877 C 663.768 -1.71262 -0.915582 0
M  V30 6878 O 663.043 -1.02961 -1.65013 0
M  V30 6879 C 663.326 -3.50198 0.838645 0
M  V30 6880 C 663.179 -3.83923 2.34357 0
M  V30 6881 C 664.498 -4.38861 0.329988 0
M  V30 6882 H 661.617 -0.710289 0.196617 0
M  V30 6883 H 664.259 -1.52392 1.13475 0
M  V30 6884 H 662.409 -3.87096 0.330024 0
M  V30 6885 H 664.081 -3.56933 2.92227 0
M  V30 6886 H 662.324 -3.31215 2.80141 0
M  V30 6887 H 662.995 -4.91883 2.5051 0
M  V30 6888 H 665.471 -4.08996 0.765609 0
M  V30 6889 H 664.347 -5.45931 0.570105 0
M  V30 6890 H 664.608 -4.35352 -0.769511 0
M  V30 6891 N 663.667 -0.670007 -1.42649 0
M  V30 6892 C 664.6 0.0613623 -2.28117 0
M  V30 6893 C 665.578 0.813414 -1.40792 0
M  V30 6894 O 666.762 0.809529 -1.70232 0
M  V30 6895 C 663.889 1.09399 -3.20546 0
M  V30 6896 C 662.935 0.438064 -4.24244 0
M  V30 6897 S 663.768 -0.800808 -5.29478 0
M  V30 6898 C 664.924 0.23086 -6.25474 0
M  V30 6899 H 665.157 -0.663606 -2.89799 0
M  V30 6900 H 662.69 -0.45939 -1.47407 0
M  V30 6901 H 664.648 1.68469 -3.74337 0
M  V30 6902 H 663.309 1.79137 -2.58009 0
M  V30 6903 H 662.502 1.21707 -4.89084 0
M  V30 6904 H 662.104 -0.0789346 -3.73917 0
M  V30 6905 H 664.396 1.09204 -6.68641 0
M  V30 6906 H 665.339 -0.382945 -7.07064 0
M  V30 6907 H 665.747 0.574191 -5.61572 0
M  V30 6908 N 665.145 1.52092 -0.413018 0
M  V30 6909 C 666.075 2.30021 0.401567 0
M  V30 6910 C 667.056 1.34395 1.04269 0
M  V30 6911 O 668.241 1.63304 1.05097 0
M  V30 6912 C 665.371 3.12447 1.51638 0
M  V30 6913 C 664.325 4.16153 1.00005 0
M  V30 6914 C 663.651 4.86948 2.20875 0
M  V30 6915 C 664.951 5.22275 0.0513757 0
M  V30 6916 H 666.645 2.98365 -0.248704 0
M  V30 6917 H 664.191 1.4349 -0.121052 0
M  V30 6918 H 666.144 3.65733 2.09326 0
M  V30 6919 H 664.868 2.41879 2.19458 0
M  V30 6920 H 663.527 3.63882 0.445549 0
M  V30 6921 H 663.175 4.12905 2.8726 0
M  V30 6922 H 662.875 5.57057 1.86978 0
M  V30 6923 H 664.399 5.43048 2.79162 0
M  V30 6924 H 665.813 5.70778 0.537176 0
M  V30 6925 H 664.21 5.9977 -0.198977 0
M  V30 6926 H 665.28 4.76611 -0.892736 0
M  V30 6927 N 666.623 0.143563 1.56945 0
M  V30 6928 C 667.87 -0.508407 1.96014 0
M  V30 6929 C 668.198 -1.65099 1.02824 0
M  V30 6930 O 667.453 -1.95618 0.0567764 0
M  V30 6931 C 667.752 -1.05885 3.41355 0
M  V30 6932 C 667.418 -0.0350809 4.50886 0
M  V30 6933 C 666.08 0.246362 4.80569 0
M  V30 6934 C 668.432 0.661282 5.16988 0
M  V30 6935 C 665.76 1.23003 5.73661 0
M  V30 6936 C 668.112 1.63375 6.11139 0
M  V30 6937 C 666.776 1.92292 6.39203 0
M  V30 6938 H 666.046 -0.186039 0.717266 0
M  V30 6939 H 668.693 0.229667 1.90118 0
M  V30 6940 H 666.998 -1.87419 3.44066 0
M  V30 6941 H 668.695 -1.57183 3.6891 0
M  V30 6942 H 665.285 -0.264622 4.27782 0
M  V30 6943 H 669.469 0.457038 4.94191 0
M  V30 6944 H 664.725 1.46056 5.93698 0
M  V30 6945 H 668.899 2.17887 6.61436 0
M  V30 6946 H 666.526 2.68666 7.11142 0
M  V30 6947 N 668.101 -1.57061 -0.130224 0
M  V30 6948 C 669.031 -2.02552 -1.16168 0
M  V30 6949 C 670.012 -0.907971 -1.4384 0
M  V30 6950 O 671.197 -1.17693 -1.54473 0
M  V30 6951 C 668.327 -2.42035 -2.49071 0
M  V30 6952 C 667.281 -3.5713 -2.35886 0
M  V30 6953 C 666.607 -3.82478 -3.7365 0
M  V30 6954 C 667.907 -4.89236 -1.8288 0
M  V30 6955 H 669.601 -2.8897 -0.783359 0
M  V30 6956 H 667.147 -1.39021 -0.375376 0
M  V30 6957 H 669.1 -2.72462 -3.21469 0
M  V30 6958 H 667.824 -1.52573 -2.88771 0
M  V30 6959 H 666.483 -3.26895 -1.65938 0
M  V30 6960 H 666.131 -2.9024 -4.10816 0
M  V30 6961 H 665.831 -4.59944 -3.65685 0
M  V30 6962 H 667.355 -4.15347 -4.47571 0
M  V30 6963 H 668.769 -5.18272 -2.45085 0
M  V30 6964 H 667.166 -5.70624 -1.85763 0
M  V30 6965 H 668.236 -4.78494 -0.785571 0
M  V30 6966 N 669.579 0.400081 -1.52437 0
M  V30 6967 C 670.509 1.4947 -1.7939 0
M  V30 6968 C 671.49 1.57383 -0.645329 0
M  V30 6969 O 672.675 1.72511 -0.891826 0
M  V30 6970 C 669.805 2.87201 -1.95276 0
M  V30 6971 C 668.759 2.94134 -3.10917 0
M  V30 6972 C 668.085 4.34207 -3.1204 0
M  V30 6973 C 669.385 2.64791 -4.50203 0
M  V30 6974 H 671.079 1.27165 -2.71052 0
M  V30 6975 H 668.625 0.610312 -1.30427 0
M  V30 6976 H 670.578 3.63772 -2.12715 0
M  V30 6977 H 669.302 3.10819 -1.00294 0
M  V30 6978 H 667.961 2.20009 -2.93243 0
M  V30 6979 H 667.609 4.54848 -2.14761 0
M  V30 6980 H 667.309 4.39768 -3.89715 0
M  V30 6981 H 668.833 5.127 -3.31619 0
M  V30 6982 H 670.247 3.31083 -4.68035 0
M  V30 6983 H 668.644 2.81717 -5.29864 0
M  V30 6984 H 669.714 1.60184 -4.57678 0
M  V30 6985 N 671.057 1.43213 0.657864 0
M  V30 6986 C 672.004 1.48011 1.77092 0
M  V30 6987 C 672.974 0.330291 1.62783 0
M  V30 6988 O 674.159 0.536787 1.83094 0
M  V30 6989 C 671.299 1.40461 3.15222 0
M  V30 6990 C 670.412 2.65612 3.40697 0
M  V30 6991 C 669.547 2.50083 4.68649 0
M  V30 6992 C 668.586 3.70525 4.87214 0
M  V30 6993 N 667.723 3.53835 6.0642 0
M  V30 6994 H 672.563 2.43121 1.72326 0
M  V30 6995 H 670.1 1.20687 0.841013 0
M  V30 6996 H 672.058 1.34079 3.95068 0
M  V30 6997 H 670.688 0.489359 3.19069 0
M  V30 6998 H 669.74 2.82292 2.54982 0
M  V30 6999 H 671.052 3.5509 3.50303 0
M  V30 7000 H 670.206 2.41383 5.56614 0
M  V30 7001 H 668.945 1.58121 4.61356 0
M  V30 7002 H 667.95 3.79639 3.97686 0
M  V30 7003 H 669.175 4.63489 4.96341 0
M  V30 7004 H 667.121 2.64604 6.00267 0
M  V30 7005 H 667.038 4.36912 6.16963 0
M  V30 7006 H 668.306 3.48978 6.97019 0
M  V30 7007 N 672.536 -0.895792 1.29666 0
M  V30 7008 C 673.466 -2.01673 1.17688 0
M  V30 7009 C 674.447 -1.69955 0.0701317 0
M  V30 7010 O 675.632 -1.9258 0.250289 0
M  V30 7011 C 672.762 -3.36568 0.856681 0
M  V30 7012 C 671.716 -3.82509 1.92017 0
M  V30 7013 C 671.042 -5.14574 1.4532 0
M  V30 7014 C 672.342 -4.02409 3.32963 0
M  V30 7015 H 674.036 -2.11953 2.11463 0
M  V30 7016 H 671.582 -1.01839 1.01807 0
M  V30 7017 H 673.535 -4.14498 0.759577 0
M  V30 7018 H 672.259 -3.26391 -0.116763 0
M  V30 7019 H 670.918 -3.068 2.00673 0
M  V30 7020 H 670.566 -5.00815 0.468325 0
M  V30 7021 H 670.266 -5.46283 2.16447 0
M  V30 7022 H 671.79 -5.9504 1.36968 0
M  V30 7023 H 673.204 -4.70808 3.27127 0
M  V30 7024 H 671.601 -4.45478 4.02082 0
M  V30 7025 H 672.671 -3.06616 3.75652 0
M  V30 7026 N 674.014 -1.12206 -1.10668 0
M  V30 7027 C 674.977 -0.790867 -2.15123 0
M  V30 7028 C 675.977 0.193618 -1.5963 0
M  V30 7029 O 677.167 -0.0318728 -1.74171 0
M  V30 7030 C 674.299 -0.174797 -3.40452 0
M  V30 7031 H 675.492 -1.7163 -2.45933 0
M  V30 7032 H 673.045 -0.924993 -1.2599 0
M  V30 7033 H 673.78 0.760478 -3.15257 0
M  V30 7034 H 673.565 -0.88358 -3.82015 0
M  V30 7035 H 675.055 0.0405162 -4.1758 0
M  V30 7036 N 675.492 1.28418 -0.913599 0
M  V30 7037 C 676.908 1.47411 -0.611728 0
M  V30 7038 C 677.108 1.83018 0.843008 0
M  V30 7039 O 676.164 1.93505 1.6221 0
M  V30 7040 C 677.477 2.57703 -1.5495 0
M  V30 7041 C 679.025 2.71572 -1.5562 0
M  V30 7042 C 679.5 3.85008 -2.48058 0
M  V30 7043 N 680.991 3.92361 -2.46184 0
M  V30 7044 C 681.726 4.79516 -3.14407 0
M  V30 7045 N 681.222 5.71262 -3.91958 0
M  V30 7046 N 683.015 4.73125 -3.03495 0
M  V30 7047 H 675.166 1.03585 -1.85429 0
M  V30 7048 H 677.429 0.515907 -0.795326 0
M  V30 7049 H 677.135 2.38298 -2.58663 0
M  V30 7050 H 677.009 3.54801 -1.28048 0
M  V30 7051 H 679.396 2.90366 -0.526441 0
M  V30 7052 H 679.477 1.75006 -1.86565 0
M  V30 7053 H 679.121 3.66969 -3.51136 0
M  V30 7054 H 679.051 4.80971 -2.14416 0
M  V30 7055 H 681.542 3.26749 -1.89851 0
M  V30 7056 H 681.855 6.34593 -4.41034 0
M  V30 7057 H 680.2 5.71103 -3.96063 0
M  V30 7058 H 683.391 4.00442 -2.42413 0
M  V30 7059 H 683.564 5.40834 -3.56935 0
M  V30 7060 N 676.97 0.677563 1.42291 0
M  V30 7061 C 677.92 -0.0218641 2.2799 0
M  V30 7062 C 678.904 -0.770816 1.41235 0
M  V30 7063 O 680.096 -0.649273 1.64662 0
M  V30 7064 C 677.225 -0.970449 3.29298 0
M  V30 7065 C 676.311 -0.218695 4.23536 0
M  V30 7066 N 676.702 0.777908 4.99782 0
M  V30 7067 C 675 -0.456748 4.43655 0
M  V30 7068 C 675.701 1.22632 5.68627 0
M  V30 7069 N 674.677 0.55573 5.40752 0
M  V30 7070 H 678.479 0.742516 2.84366 0
M  V30 7071 H 675.993 0.506862 1.54288 0
M  V30 7072 H 677.99 -1.48652 3.89497 0
M  V30 7073 H 676.65 -1.73463 2.74483 0
M  V30 7074 H 677.661 1.15754 5.04798 0
M  V30 7075 H 674.338 -1.20021 3.99877 0
M  V30 7076 H 675.728 2.05231 6.39789 0
M  V30 7077 N 678.448 -1.51871 0.421078 0
M  V30 7078 C 679.673 -2.0684 -0.152371 0
M  V30 7079 C 680.098 -1.28802 -1.37083 0
M  V30 7080 O 679.456 -0.321482 -1.78427 0
M  V30 7081 C 679.504 -3.57532 -0.469368 0
M  V30 7082 O 678.608 -3.81818 -1.55848 0
M  V30 7083 H 677.949 -0.663939 -0.00898586 0
M  V30 7084 H 680.479 -1.95674 0.597724 0
M  V30 7085 H 680.489 -4.01515 -0.724553 0
M  V30 7086 H 679.164 -4.13761 0.421276 0
M  V30 7087 H 677.741 -3.49709 -1.29453 0
M  V30 7088 N 679.926 -0.151884 -1.56866 0
M  V30 7089 C 680.873 0.785936 -2.17006 0
M  V30 7090 C 681.843 1.2407 -1.10435 0
M  V30 7091 O 683.028 1.31235 -1.38499 0
M  V30 7092 C 680.168 2.01771 -2.79969 0
M  V30 7093 C 679.281 1.6083 -4.00946 0
M  V30 7094 C 678.416 2.79224 -4.51893 0
M  V30 7095 C 677.455 2.3468 -5.65324 0
M  V30 7096 N 676.592 3.461 -6.10867 0
M  V30 7097 H 681.432 0.266286 -2.96808 0
M  V30 7098 H 678.969 0.11972 -1.46612 0
M  V30 7099 H 680.927 2.73989 -3.14621 0
M  V30 7100 H 679.557 2.51139 -2.02803 0
M  V30 7101 H 678.609 0.783592 -3.72242 0
M  V30 7102 H 679.921 1.24119 -4.83111 0
M  V30 7103 H 679.075 3.59625 -4.88625 0
M  V30 7104 H 677.814 3.19183 -3.68746 0
M  V30 7105 H 676.819 1.52721 -5.28163 0
M  V30 7106 H 678.044 1.95801 -6.5026 0
M  V30 7107 H 675.99 3.85671 -5.30654 0
M  V30 7108 H 675.907 3.1342 -6.87971 0
M  V30 7109 H 677.175 4.26844 -6.52246 0
M  V30 7110 N 681.404 1.57128 0.121893 0
M  V30 7111 C 682.651 1.847 0.830188 0
M  V30 7112 C 682.979 0.736543 1.80015 0
M  V30 7113 O 682.234 -0.272358 1.93796 0
M  V30 7114 C 682.533 3.1874 1.61677 0
M  V30 7115 C 682.199 4.43901 0.791361 0
M  V30 7116 C 680.861 4.77887 0.563731 0
M  V30 7117 C 683.213 5.20753 0.215823 0
M  V30 7118 C 680.541 5.86168 -0.249737 0
M  V30 7119 C 682.893 6.29891 -0.584821 0
M  V30 7120 C 681.557 6.6241 -0.822794 0
M  V30 7121 H 680.827 0.675866 0.303787 0
M  V30 7122 H 683.474 1.91276 0.0926894 0
M  V30 7123 H 681.779 3.07728 2.42509 0
M  V30 7124 H 683.476 3.37295 2.16872 0
M  V30 7125 H 680.066 4.17272 0.978867 0
M  V30 7126 H 684.25 4.94851 0.378907 0
M  V30 7127 H 679.506 6.0979 -0.44336 0
M  V30 7128 H 683.68 6.88624 -1.03779 0
M  V30 7129 H 681.307 7.46147 -1.45496 0
M  V30 7130 N 682.882 -0.391992 1.52647 0
M  V30 7131 C 684.13 -1.13507 1.67214 0
M  V30 7132 C 684.451 -1.90575 0.41304 0
M  V30 7133 O 683.721 -1.87348 -0.572498 0
M  V30 7134 H 682.301 -0.422013 0.616372 0
M  V30 7135 H 684.963 -0.44502 1.89751 0
M  V30 7136 H 684.059 -1.83964 2.52118 0
M  V30 7137 N 684.36 -1.4356 -0.65026 0
M  V30 7138 C 685.293 -1.434 -1.77515 0
M  V30 7139 C 686.271 -0.295082 -1.599 0
M  V30 7140 O 687.455 -0.489128 -1.82043 0
M  V30 7141 C 684.582 -1.2484 -3.14853 0
M  V30 7142 C 683.628 -2.42046 -3.51163 0
M  V30 7143 S 684.461 -4.04595 -3.50803 0
M  V30 7144 C 685.617 -3.88424 -4.90793 0
M  V30 7145 H 685.85 -2.38586 -1.77381 0
M  V30 7146 H 683.383 -1.30627 -0.823169 0
M  V30 7147 H 685.341 -1.14819 -3.94115 0
M  V30 7148 H 684.002 -0.311977 -3.12547 0
M  V30 7149 H 683.195 -2.24873 -4.51052 0
M  V30 7150 H 682.797 -2.48708 -2.79321 0
M  V30 7151 H 685.089 -3.50932 -5.79528 0
M  V30 7152 H 686.032 -4.88076 -5.13018 0
M  V30 7153 H 686.44 -3.20829 -4.64467 0
M  V30 7154 N 685.838 0.888903 -1.30139 0
M  V30 7155 C 686.785 1.99422 -1.16188 0
M  V30 7156 C 687.755 1.66017 -0.0523869 0
M  V30 7157 O 688.94 1.89506 -0.221864 0
M  V30 7158 C 686.08 3.34325 -0.855612 0
M  V30 7159 C 685.193 3.80445 -2.0466 0
M  V30 7160 C 684.328 5.03975 -1.67876 0
M  V30 7161 C 683.367 5.42492 -2.83493 0
M  V30 7162 N 682.504 6.57206 -2.47032 0
M  V30 7163 H 687.344 2.10687 -2.10749 0
M  V30 7164 H 684.881 1.03165 -1.04859 0
M  V30 7165 H 686.839 4.11968 -0.658681 0
M  V30 7166 H 685.469 3.22756 0.0531155 0
M  V30 7167 H 684.521 2.98745 -2.3549 0
M  V30 7168 H 685.833 4.04933 -2.91257 0
M  V30 7169 H 684.987 5.89232 -1.44535 0
M  V30 7170 H 683.726 4.8135 -0.784431 0
M  V30 7171 H 682.731 4.55764 -3.07505 0
M  V30 7172 H 683.956 5.67093 -3.73607 0
M  V30 7173 H 681.902 6.36164 -1.601 0
M  V30 7174 H 681.819 6.81543 -3.27161 0
M  V30 7175 H 683.087 7.45704 -2.27038 0
M  V30 7176 N 687.317 1.12792 1.10072 0
M  V30 7177 C 688.565 0.883796 1.81751 0
M  V30 7178 C 688.886 -0.591891 1.858 0
M  V30 7179 O 688.156 -1.43017 1.33876 0
M  V30 7180 H 686.736 0.323978 0.673088 0
M  V30 7181 H 689.398 1.42314 1.33164 0
M  V30 7182 H 688.494 1.26863 2.85153 0
M  V30 7183 N 688.795 -1.27931 0.920396 0
M  V30 7184 C 690.206 -1.76707 0.602616 0
M  V30 7185 C 690.557 -1.75249 -0.882159 0
M  V30 7186 O 689.682 -1.35135 -1.69019 0
M  V30 7187 C 690.277 -3.20884 1.08714 0
M  V30 7188 C 688.836 -3.67356 0.820157 0
M  V30 7189 C 687.983 -2.47525 1.25006 0
M  V30 7190 H 690.934 -1.14301 1.10095 0
M  V30 7191 H 690.955 -3.78045 0.431535 0
M  V30 7192 H 690.467 -3.21913 2.1678 0
M  V30 7193 H 688.568 -3.7178 -0.247012 0
M  V30 7194 H 688.681 -4.57181 1.43257 0
M  V30 7195 H 687.045 -2.45765 0.668698 0
M  V30 7196 H 687.828 -2.51269 2.3392 0
M  V30 7197 N 690.273 -0.685099 -1.4193 0
M  V30 7198 C 691.236 -0.0222632 -2.29189 0
M  V30 7199 C 692.236 0.7186 -1.4385 0
M  V30 7200 O 693.426 0.555058 -1.6512 0
M  V30 7201 C 690.558 0.979013 -3.2654 0
M  V30 7202 H 691.751 -0.790424 -2.89296 0
M  V30 7203 H 689.304 -0.448012 -1.49742 0
M  V30 7204 H 690.039 1.77531 -2.71392 0
M  V30 7205 H 689.824 0.451037 -3.89497 0
M  V30 7206 H 691.314 1.44091 -3.91954 0
M  V30 7207 N 691.751 1.51645 -0.429126 0
M  V30 7208 C 692.976 2.06917 0.141399 0
M  V30 7209 C 693.401 1.29527 1.36398 0
M  V30 7210 O 692.759 0.33094 1.78254 0
M  V30 7211 C 692.807 3.57776 0.4504 0
M  V30 7212 O 691.911 3.82639 1.53821 0
M  V30 7213 H 691.252 0.663978 0.0054647 0
M  V30 7214 H 693.782 1.95355 -0.608093 0
M  V30 7215 H 693.792 4.01894 0.703249 0
M  V30 7216 H 692.467 4.13532 -0.443213 0
M  V30 7217 H 691.044 3.5039 1.27597 0
M  V30 7218 N 693.229 0.160201 1.56784 0
M  V30 7219 C 694.475 -0.48831 1.96833 0
M  V30 7220 C 694.808 -1.63641 1.04571 0
M  V30 7221 O 694.083 -1.94289 0.0906481 0
M  V30 7222 C 694.366 -0.981908 3.46454 0
M  V30 7223 C 694.219 0.165607 4.49495 0
M  V30 7224 C 695.538 -1.85931 3.98896 0
M  V30 7225 H 692.657 -0.176027 0.71567 0
M  V30 7226 H 695.299 0.244093 1.88426 0
M  V30 7227 H 693.449 -1.60602 3.5375 0
M  V30 7228 H 695.121 0.802372 4.54268 0
M  V30 7229 H 693.364 0.822789 4.25926 0
M  V30 7230 H 694.035 -0.221699 5.51555 0
M  V30 7231 H 696.511 -1.33327 3.94161 0
M  V30 7232 H 695.387 -2.17373 5.04024 0
M  V30 7233 H 695.648 -2.80106 3.42042 0
M  V30 7234 N 694.707 -1.5719 -0.113559 0
M  V30 7235 C 695.956 -1.84325 -0.818984 0
M  V30 7236 C 696.269 -0.746685 -1.80787 0
M  V30 7237 O 697.475 -0.904596 -2.55987 0
M  V30 7238 C 695.931 -3.26818 -1.50724 0
M  V30 7239 C 695.539 -4.44498 -0.559065 0
M  V30 7240 C 697.283 -3.63196 -2.19748 0
M  V30 7241 C 695.19 -5.7802 -1.25086 0
M  V30 7242 H 694.12 -0.687507 -0.309596 0
M  V30 7243 H 696.771 -1.8336 -0.0717621 0
M  V30 7244 H 695.153 -3.22269 -2.30128 0
M  V30 7245 H 696.327 -4.60356 0.202146 0
M  V30 7246 H 694.642 -4.16393 0.024495 0
M  V30 7247 H 697.239 -4.60226 -2.72206 0
M  V30 7248 H 697.582 -2.90899 -2.97798 0
M  V30 7249 H 698.115 -3.69553 -1.47226 0
M  V30 7250 H 694.854 -6.53501 -0.511539 0
M  V30 7251 H 694.374 -5.66038 -1.98395 0
M  V30 7252 H 696.053 -6.2196 -1.78253 0
M  V30 7253 N 696.185 0.383891 -1.52853 0
M  V30 7254 C 697.41 1.154 -1.7233 0
M  V30 7255 C 697.835 1.82809 -0.44298 0
M  V30 7256 O 697.193 1.71026 0.601645 0
M  V30 7257 C 697.241 2.17386 -2.87708 0
M  V30 7258 O 696.345 3.24082 -2.55038 0
M  V30 7259 H 695.686 0.335709 -0.572883 0
M  V30 7260 H 698.216 0.44662 -1.99666 0
M  V30 7261 H 698.226 2.61296 -3.1335 0
M  V30 7262 H 696.901 1.6771 -3.80587 0
M  V30 7263 H 695.478 2.85273 -2.40153 0
M  V30 7264 N 697.663 1.43903 0.642637 0
M  V30 7265 C 698.611 1.50164 1.77634 0
M  V30 7266 C 699.605 0.374294 1.65213 0
M  V30 7267 O 700.811 0.548748 1.71431 0
M  V30 7268 H 697.186 0.470974 0.586249 0
M  V30 7269 H 699.157 2.45603 1.69474 0
M  V30 7270 C 697.906 1.45196 3.15933 0
M  V30 7271 H 697.229 2.31253 3.26132 0
M  V30 7272 H 698.669 1.53638 3.95185 0
M  V30 7273 C 697.128 0.171043 3.36466 0
M  V30 7274 O 697.658 -0.763413 3.94379 0
M  V30 7275 N 695.864 0.077847 2.90496 0
M  V30 7276 H 695.411 0.8391 2.43551 0
M  V30 7277 H 695.369 -0.778473 3.0461 0
M  V30 7278 N 699.141 -0.881989 1.30609 0
M  V30 7279 C 700.418 -1.61563 1.10258 0
M  V30 7280 C 700.798 -2.08228 -0.347053 0
M  V30 7281 O 700.146 -1.85151 -1.33908 0
M  V30 7282 C 700.356 -2.78287 2.10612 0
M  V30 7283 C 701.704 -3.48545 2.4249 0
M  V30 7284 O 702.728 -2.88479 2.08945 0
M  V30 7285 O 701.587 -4.56873 2.99883 0
M  V30 7286 H 698.681 -0.710238 0.423663 0
M  V30 7287 H 701.227 -0.928503 1.42045 0
M  V30 7288 H 699.999 -2.41131 3.08174 0
M  V30 7289 H 699.622 -3.54695 1.79659 0
M  V30 7290 N 700.619 -1.13374 -1.09472 0
M  V30 7291 C 701.896 -0.806329 -1.78207 0
M  V30 7292 C 702.276 0.702191 -1.99079 0
M  V30 7293 O 701.624 1.63931 -1.59182 0
M  V30 7294 C 701.834 -1.59271 -3.10538 0
M  V30 7295 C 703.182 -1.78509 -3.85253 0
M  V30 7296 O 704.206 -1.55866 -3.20288 0
M  V30 7297 O 703.065 -2.16287 -5.01879 0
M  V30 7298 H 700.159 -0.29435 -0.772843 0
M  V30 7299 H 702.705 -1.23833 -1.16033 0
M  V30 7300 H 701.477 -2.61792 -2.90828 0
M  V30 7301 H 701.1 -1.15562 -3.80436 0
M  V30 7302 N 702.098 1.27442 -0.927168 0
M  V30 7303 C 703.375 1.89473 -0.485742 0
M  V30 7304 C 703.755 1.83922 1.03614 0
M  V30 7305 O 703.103 1.28409 1.89007 0
M  V30 7306 C 703.313 3.33417 -1.03123 0
M  V30 7307 C 704.661 4.10333 -1.0914 0
M  V30 7308 O 705.685 3.4243 -0.98082 0
M  V30 7309 O 704.544 5.31737 -1.26165 0
M  V30 7310 H 701.638 0.812124 -0.156154 0
M  V30 7311 H 704.184 1.35713 -1.01882 0
M  V30 7312 H 702.956 3.31747 -2.07508 0
M  V30 7313 H 702.579 3.94695 -0.479767 0
M  V30 7314 N 703.576 0.692616 1.41565 0
M  V30 7315 C 704.801 0.229776 2.06123 0
M  V30 7316 C 705.226 -1.11119 1.5177 0
M  V30 7317 O 704.584 -1.69498 0.643444 0
M  V30 7318 C 704.632 0.19469 3.60074 0
M  V30 7319 O 703.736 -0.831366 4.03933 0
M  V30 7320 H 703.077 0.113002 0.654314 0
M  V30 7321 H 705.607 0.946645 1.81383 0
M  V30 7322 H 705.617 0.0245487 4.07993 0
M  V30 7323 H 704.292 1.17339 3.99004 0
M  V30 7324 H 702.869 -0.630819 3.67526 0
M  V30 7325 N 705.054 -1.51416 0.437162 0
M  V30 7326 C 706.017 -2.26312 -0.362729 0
M  V30 7327 C 707.017 -1.29748 -0.949847 0
M  V30 7328 O 708.207 -1.53462 -0.824325 0
M  V30 7329 C 705.339 -3.05475 -1.5132 0
M  V30 7330 H 706.532 -2.98459 0.29365 0
M  V30 7331 H 704.085 -1.55137 0.190327 0
M  V30 7332 H 704.82 -2.37744 -2.20563 0
M  V30 7333 H 704.605 -3.76401 -1.09838 0
M  V30 7334 H 706.095 -3.62209 -2.07833 0
M  V30 7335 N 706.532 -0.168513 -1.56696 0
M  V30 7336 C 707.757 0.486688 -2.01609 0
M  V30 7337 C 708.182 1.56203 -1.04796 0
M  V30 7338 O 707.54 1.8128 -0.0270596 0
M  V30 7339 C 707.588 1.04451 -3.45141 0
M  V30 7340 O 706.692 2.15862 -3.51393 0
M  V30 7341 H 706.033 0.116831 -0.653641 0
M  V30 7342 H 708.563 -0.271579 -2.0279 0
M  V30 7343 H 708.573 1.36782 -3.84389 0
M  V30 7344 H 707.248 0.257155 -4.15104 0
M  V30 7345 H 705.825 1.84597 -3.24004 0
M  V30 7346 N 708.01 1.57248 0.105221 0
M  V30 7347 C 709.421 1.74612 0.660865 0
M  V30 7348 C 709.772 0.789231 1.79626 0
M  V30 7349 O 708.897 -0.0346611 2.16372 0
M  V30 7350 C 709.492 3.16624 1.20559 0
M  V30 7351 C 708.051 3.35447 1.7074 0
M  V30 7352 C 707.198 2.70445 0.612764 0
M  V30 7353 H 710.149 1.5824 -0.12079 0
M  V30 7354 H 710.17 3.18937 2.07508 0
M  V30 7355 H 709.682 3.86245 0.379012 0
M  V30 7356 H 707.783 2.7089 2.5583 0
M  V30 7357 H 707.896 4.43702 1.80736 0
M  V30 7358 H 706.26 2.32061 1.04975 0
M  V30 7359 H 707.043 3.42699 -0.203066 0
M  V30 7360 N 709.488 -0.375779 1.53054 0
M  V30 7361 C 710.418 -1.46598 1.81745 0
M  V30 7362 C 711.399 -1.56337 0.670286 0
M  V30 7363 O 712.584 -1.71071 0.919158 0
M  V30 7364 C 709.714 -2.84058 1.99821 0
M  V30 7365 C 708.668 -2.8915 3.15557 0
M  V30 7366 C 707.994 -4.29187 3.18908 0
M  V30 7367 C 709.294 -2.57595 4.54359 0
M  V30 7368 H 710.988 -1.22837 2.73041 0
M  V30 7369 H 708.534 -0.589485 1.31381 0
M  V30 7370 H 710.487 -3.60342 2.18475 0
M  V30 7371 H 709.211 -3.09184 1.05226 0
M  V30 7372 H 707.87 -2.15316 2.96706 0
M  V30 7373 H 707.518 -4.51374 2.2197 0
M  V30 7374 H 707.218 -4.33512 3.96662 0
M  V30 7375 H 708.742 -5.07359 3.39734 0
M  V30 7376 H 710.156 -3.23595 4.73243 0
M  V30 7377 H 708.553 -2.73252 5.34279 0
M  V30 7378 H 709.623 -1.52882 4.60169 0
M  V30 7379 N 710.966 -1.44241 -0.634997 0
M  V30 7380 C 711.916 -1.47247 -1.74076 0
M  V30 7381 C 712.9 -0.338708 -1.57295 0
M  V30 7382 O 714.092 -0.583751 -1.67097 0
M  V30 7383 C 711.221 -1.41579 -3.12746 0
M  V30 7384 C 710.307 -2.60055 -3.35011 0
M  V30 7385 N 710.698 -3.85321 -3.27661 0
M  V30 7386 C 708.996 -2.55168 -3.65794 0
M  V30 7387 C 709.697 -4.64241 -3.50508 0
M  V30 7388 N 708.673 -3.95254 -3.73196 0
M  V30 7389 H 712.475 -2.4195 -1.66845 0
M  V30 7390 H 709.989 -1.3915 -0.837326 0
M  V30 7391 H 711.986 -1.41816 -3.92038 0
M  V30 7392 H 710.646 -0.479108 -3.21146 0
M  V30 7393 H 711.657 -4.17345 -3.06665 0
M  V30 7394 H 708.334 -1.70276 -3.81198 0
M  V30 7395 H 709.724 -5.73267 -3.50449 0
M  V30 7396 N 712.444 0.87505 -1.31075 0
M  V30 7397 C 713.394 1.96933 -1.14898 0
M  V30 7398 C 714.378 1.60783 -0.0613703 0
M  V30 7399 O 715.57 1.74678 -0.285751 0
M  V30 7400 C 712.699 3.3253 -0.853166 0
M  V30 7401 C 711.785 3.74963 -1.98151 0
M  V30 7402 N 712.176 3.89403 -3.22799 0
M  V30 7403 C 710.474 4.04436 -1.8801 0
M  V30 7404 C 711.175 4.25563 -3.96574 0
M  V30 7405 N 710.151 4.3597 -3.24701 0
M  V30 7406 H 713.953 2.06201 -2.09424 0
M  V30 7407 H 711.467 1.06551 -1.22558 0
M  V30 7408 H 713.464 4.10666 -0.718266 0
M  V30 7409 H 712.124 3.24592 0.0839218 0
M  V30 7410 H 713.135 3.74266 -3.57974 0
M  V30 7411 H 709.812 4.04915 -1.01733 0
M  V30 7412 H 711.202 4.44375 -5.03965 0
M  V30 7413 N 713.922 1.13953 1.08869 0
M  V30 7414 C 715.171 0.899431 1.80536 0
M  V30 7415 C 715.484 -0.575781 1.86933 0
M  V30 7416 O 716.69 -0.932988 2.54966 0
M  V30 7417 C 715.146 1.55963 3.24351 0
M  V30 7418 C 714.754 3.07077 3.26202 0
M  V30 7419 C 716.498 1.40046 4.00733 0
M  V30 7420 C 714.405 3.65955 4.64576 0
M  V30 7421 H 713.335 0.332849 0.676556 0
M  V30 7422 H 715.986 1.3679 1.22314 0
M  V30 7423 H 714.368 1.01883 3.82669 0
M  V30 7424 H 715.542 3.67785 2.77617 0
M  V30 7425 H 713.857 3.22576 2.63312 0
M  V30 7426 H 716.454 1.81441 5.02974 0
M  V30 7427 H 716.797 0.345993 4.1486 0
M  V30 7428 H 717.33 1.91137 3.48872 0
M  V30 7429 H 714.069 4.71234 4.55652 0
M  V30 7430 H 713.589 3.10027 5.13462 0
M  V30 7431 H 715.268 3.65968 5.33551 0
M  V30 7432 N 715.4 -1.26948 0.933913 0
M  V30 7433 C 716.625 -1.98724 0.593589 0
M  V30 7434 C 717.05 -1.6915 -0.822801 0
M  V30 7435 O 716.408 -0.93533 -1.5531 0
M  V30 7436 C 716.456 -3.50834 0.833542 0
M  V30 7437 O 715.56 -4.12284 -0.0978788 0
M  V30 7438 H 714.901 -0.623683 0.227849 0
M  V30 7439 H 717.431 -1.61599 1.25486 0
M  V30 7440 H 717.441 -4.01018 0.75156 0
M  V30 7441 H 716.116 -3.71691 1.86597 0
M  V30 7442 H 714.693 -3.72884 0.0345443 0
M  V30 7443 N 716.879 -0.700114 -1.41195 0
M  V30 7444 C 717.827 -0.0263301 -2.32585 0
M  V30 7445 C 718.821 0.763683 -1.51209 0
M  V30 7446 O 720.027 0.668793 -1.67114 0
M  V30 7447 H 716.402 0.0102869 -0.75193 0
M  V30 7448 H 718.373 -0.814087 -2.8708 0
M  V30 7449 C 717.122 0.892793 -3.36042 0
M  V30 7450 H 716.445 0.294306 -3.98715 0
M  V30 7451 H 717.885 1.33247 -4.02518 0
M  V30 7452 C 716.344 2.01109 -2.7029 0
M  V30 7453 O 716.874 3.10035 -2.55423 0
M  V30 7454 N 715.08 1.79015 -2.28915 0
M  V30 7455 H 714.627 0.904275 -2.41207 0
M  V30 7456 H 714.585 2.54022 -1.85257 0
M  V30 7457 N 718.357 1.51182 -0.445186 0
M  V30 7458 C 719.605 2.01753 0.11841 0
M  V30 7459 C 719.926 1.33087 1.42523 0
M  V30 7460 O 719.196 0.467891 1.9023 0
M  V30 7461 H 717.776 0.745536 0.0467492 0
M  V30 7462 H 720.438 1.85765 -0.589688 0
M  V30 7463 H 719.534 3.10762 0.288665 0
M  V30 7464 N 719.835 0.176821 1.56605 0
M  V30 7465 C 721.06 -0.47599 2.01864 0
M  V30 7466 C 721.485 -1.55645 1.05623 0
M  V30 7467 O 720.843 -1.81263 0.0366729 0
M  V30 7468 C 720.891 -1.02619 3.4569 0
M  V30 7469 O 719.995 -2.13996 3.52533 0
M  V30 7470 H 719.336 -0.113363 0.654251 0
M  V30 7471 H 721.866 0.28233 2.02643 0
M  V30 7472 H 721.876 -1.34742 3.85109 0
M  V30 7473 H 720.551 -0.235138 4.15235 0
M  V30 7474 H 719.128 -1.82876 3.24978 0
M  V30 7475 N 721.313 -1.57302 -0.09688 0
M  V30 7476 C 722.261 -2.02942 -1.13654 0
M  V30 7477 C 723.255 -0.930173 -1.41577 0
M  V30 7478 O 724.461 -1.11535 -1.41279 0
M  V30 7479 H 720.836 -0.646726 -0.383731 0
M  V30 7480 H 722.807 -2.89452 -0.725267 0
M  V30 7481 C 721.556 -2.46815 -2.44903 0
M  V30 7482 H 720.879 -3.30979 -2.24261 0
M  V30 7483 H 722.319 -2.82527 -3.16156 0
M  V30 7484 C 720.778 -1.34071 -3.09074 0
M  V30 7485 O 721.308 -0.668856 -3.96092 0
M  V30 7486 N 719.514 -1.09214 -2.69296 0
M  V30 7487 H 719.061 -1.64029 -1.98626 0
M  V30 7488 H 719.019 -0.339785 -3.12559 0
M  V30 7489 N 722.791 0.367657 -1.53252 0
M  V30 7490 C 724.019 1.13119 -1.73239 0
M  V30 7491 C 724.434 1.831 -0.460404 0
M  V30 7492 O 723.791 1.73483 0.566557 0
M  V30 7493 C 723.842 2.16308 -2.89643 0
M  V30 7494 O 723.563 1.49175 -4.1192 0
M  V30 7495 C 725.064 3.05224 -3.21486 0
M  V30 7496 H 722.284 0.338318 -0.579467 0
M  V30 7497 H 724.828 0.42721 -1.99988 0
M  V30 7498 H 722.983 2.82307 -2.65295 0
M  V30 7499 H 723.397 2.17912 -4.7709 0
M  V30 7500 H 724.871 3.73613 -4.06346 0
M  V30 7501 H 725.348 3.69919 -2.36763 0
M  V30 7502 H 725.954 2.44843 -3.47753 0
M  V30 7503 N 724.269 1.44576 0.627338 0
M  V30 7504 C 725.68 1.42266 1.20902 0
M  V30 7505 C 726.031 0.139964 1.957 0
M  V30 7506 O 725.156 -0.759489 2.02634 0
M  V30 7507 C 725.751 2.57727 2.19914 0
M  V30 7508 C 724.31 2.58599 2.73502 0
M  V30 7509 C 723.457 2.34145 1.48564 0
M  V30 7510 H 726.408 1.53102 0.417791 0
M  V30 7511 H 726.429 2.30697 3.02588 0
M  V30 7512 H 725.941 3.51068 1.65447 0
M  V30 7513 H 724.042 1.6921 3.31962 0
M  V30 7514 H 724.155 3.57205 3.19282 0
M  V30 7515 H 722.519 1.83313 1.76829 0
M  V30 7516 H 723.302 3.29606 0.959935 0
M  V30 7517 N 725.747 -0.868086 1.31537 0
M  V30 7518 C 726.972 -1.65926 1.24432 0
M  V30 7519 C 727.397 -1.87169 -0.186936 0
M  V30 7520 O 726.755 -1.4148 -1.13371 0
M  V30 7521 C 726.803 -3.00347 1.9956 0
M  V30 7522 O 725.907 -3.90221 1.33422 0
M  V30 7523 H 725.248 -0.506375 0.429512 0
M  V30 7524 H 727.778 -1.0822 1.73637 0
M  V30 7525 H 727.788 -3.50269 2.09226 0
M  V30 7526 H 726.463 -2.84205 3.03645 0
M  V30 7527 H 725.04 -3.48672 1.32219 0
M  V30 7528 N 727.225 -1.14528 -1.08264 0
M  V30 7529 C 728.45 -0.938381 -1.84957 0
M  V30 7530 C 728.875 0.508044 -1.81109 0
M  V30 7531 O 728.233 1.36146 -1.19724 0
M  V30 7532 C 728.281 -1.44568 -3.30352 0
M  V30 7533 O 727.385 -0.638745 -4.07423 0
M  V30 7534 H 726.726 -0.335394 -0.573068 0
M  V30 7535 H 729.256 -1.52287 -1.36637 0
M  V30 7536 H 729.266 -1.45449 -3.81194 0
M  V30 7537 H 727.941 -2.49876 -3.32468 0
M  V30 7538 H 726.518 -0.698801 -3.66294 0
M  V30 7539 N 728.703 1.26451 -0.940633 0
M  V30 7540 C 729.928 1.98407 -0.60412 0
M  V30 7541 C 730.353 1.69584 0.81382 0
M  V30 7542 O 729.711 0.943553 1.54812 0
M  V30 7543 C 729.759 3.50387 -0.852136 0
M  V30 7544 O 728.863 4.1233 0.076013 0
M  V30 7545 H 728.204 0.622466 -0.231153 0
M  V30 7546 H 730.734 1.60932 -1.26342 0
M  V30 7547 H 730.744 4.00614 -0.772816 0
M  V30 7548 H 729.419 3.70696 -1.88566 0
M  V30 7549 H 727.996 3.7286 -0.0543187 0
M  V30 7550 N 730.181 0.707592 1.40822 0
M  V30 7551 C 731.091 0.0507246 2.34545 0
M  V30 7552 C 732.107 -0.752727 1.56876 0
M  V30 7553 O 733.283 -0.687524 1.89302 0
M  V30 7554 C 730.348 -0.865731 3.35717 0
M  V30 7555 C 729.409 -0.0531313 4.29267 0
M  V30 7556 C 728.642 -0.925939 5.25606 0
M  V30 7557 O 728.865 -2.16531 5.27703 0
M  V30 7558 O 727.799 -0.369194 6.00767 0
M  V30 7559 H 731.625 0.823587 2.9232 0
M  V30 7560 H 729.21 0.46801 1.4188 0
M  V30 7561 H 731.092 -1.39091 3.97783 0
M  V30 7562 H 729.767 -1.61788 2.80368 0
M  V30 7563 H 728.674 0.516931 3.70511 0
M  V30 7564 H 730.007 0.660617 4.87747 0
M  V30 7565 N 731.66 -1.50943 0.453197 0
M  V30 7566 C 732.908 -2.01813 -0.107709 0
M  V30 7567 C 733.229 -1.33841 -1.41816 0
M  V30 7568 O 732.499 -0.477973 -1.8998 0
M  V30 7569 H 731.079 -0.745773 -0.0427948 0
M  V30 7570 H 733.741 -1.8545 0.599531 0
M  V30 7571 H 732.837 -3.10911 -0.27218 0
M  V30 7572 N 733.138 -0.185124 -1.56509 0
M  V30 7573 C 734.386 0.455357 -1.96903 0
M  V30 7574 C 734.707 1.62839 -1.07277 0
M  V30 7575 O 733.977 1.95385 -0.141966 0
M  V30 7576 H 732.557 0.171218 -0.727113 0
M  V30 7577 H 735.219 -0.26953 -1.93027 0
M  V30 7578 H 734.315 0.80616 -3.01509 0
M  V30 7579 N 734.616 1.57351 0.0885366 0
M  V30 7580 C 736.027 1.75303 0.642308 0
M  V30 7581 C 736.378 0.808238 1.78779 0
M  V30 7582 O 735.503 -0.01171 2.16397 0
M  V30 7583 C 736.098 3.17885 1.17194 0
M  V30 7584 C 734.657 3.37239 1.67172 0
M  V30 7585 C 733.804 2.7108 0.584045 0
M  V30 7586 H 736.755 1.58103 -0.137567 0
M  V30 7587 H 736.776 3.2112 2.04114 0
M  V30 7588 H 736.288 3.86625 0.338024 0
M  V30 7589 H 734.389 2.73588 2.52943 0
M  V30 7590 H 734.502 4.45594 1.76019 0
M  V30 7591 H 732.866 2.33161 1.02508 0
M  V30 7592 H 733.649 3.42464 -0.239403 0
M  V30 7593 N 736.094 -0.359525 1.53444 0
M  V30 7594 C 737.371 -1.11756 1.6053 0
M  V30 7595 C 737.751 -2.06949 0.416587 0
M  V30 7596 O 737.099 -2.20681 -0.592628 0
M  V30 7597 C 737.309 -1.85133 2.95849 0
M  V30 7598 C 738.657 -2.3945 3.50641 0
M  V30 7599 O 739.681 -1.95251 2.97918 0
M  V30 7600 O 738.54 -3.20266 4.42823 0
M  V30 7601 H 735.634 -0.513005 0.648656 0
M  V30 7602 H 738.18 -0.362301 1.65787 0
M  V30 7603 H 736.952 -1.15694 3.73806 0
M  V30 7604 H 736.575 -2.67554 2.9411 0
M  V30 7605 N 737.572 -1.44907 -0.619662 0
M  V30 7606 C 738.535 -1.52282 -1.71297 0
M  V30 7607 C 739.535 -0.40359 -1.55653 0
M  V30 7608 O 740.725 -0.666638 -1.6094 0
M  V30 7609 C 737.857 -1.40778 -3.10474 0
M  V30 7610 H 739.05 -2.49683 -1.66128 0
M  V30 7611 H 736.603 -1.32168 -0.834339 0
M  V30 7612 H 737.338 -0.445156 -3.2123 0
M  V30 7613 H 737.123 -2.21947 -3.23237 0
M  V30 7614 H 738.613 -1.48946 -3.90135 0
M  V30 7615 N 739.05 0.861098 -1.31996 0
M  V30 7616 C 740.296 1.61721 -1.22369 0
M  V30 7617 C 740.629 1.93 0.215587 0
M  V30 7618 O 739.904 1.56789 1.15098 0
M  V30 7619 C 740.187 2.9417 -2.07691 0
M  V30 7620 C 740.04 2.69714 -3.59965 0
M  V30 7621 C 741.359 3.95372 -1.93312 0
M  V30 7622 H 738.478 0.586822 -0.44588 0
M  V30 7623 H 741.12 0.994788 -1.61876 0
M  V30 7624 H 739.27 3.47292 -1.74128 0
M  V30 7625 H 740.942 2.23196 -4.03709 0
M  V30 7626 H 739.185 2.03789 -3.82952 0
M  V30 7627 H 739.856 3.63996 -4.14983 0
M  V30 7628 H 742.332 3.51487 -2.22701 0
M  V30 7629 H 741.208 4.85916 -2.55298 0
M  V30 7630 H 741.469 4.32865 -0.898922 0
M  V30 7631 N 740.528 1.15101 1.07655 0
M  V30 7632 C 741.777 0.918528 1.79572 0
M  V30 7633 C 742.09 -0.555922 1.87534 0
M  V30 7634 O 743.296 -0.905893 2.55941 0
M  V30 7635 C 741.752 1.59394 3.22679 0
M  V30 7636 C 741.36 3.1052 3.22927 0
M  V30 7637 C 743.104 1.44289 3.99225 0
M  V30 7638 C 741.011 3.70862 4.60668 0
M  V30 7639 H 739.941 0.340006 0.672987 0
M  V30 7640 H 742.592 1.38079 1.20857 0
M  V30 7641 H 740.974 1.05936 3.81567 0
M  V30 7642 H 742.148 3.70708 2.737 0
M  V30 7643 H 740.463 3.25351 2.59876 0
M  V30 7644 H 743.06 1.86766 5.01022 0
M  V30 7645 H 743.403 0.389975 4.14469 0
M  V30 7646 H 743.936 1.94826 3.46825 0
M  V30 7647 H 740.675 4.7604 4.50628 0
M  V30 7648 H 740.195 3.15456 5.10145 0
M  V30 7649 H 741.874 3.71607 5.29639 0
M  V30 7650 N 742.006 -1.2595 0.947325 0
M  V30 7651 C 743.255 -1.92759 0.593887 0
M  V30 7652 C 743.568 -1.75083 -0.872093 0
M  V30 7653 O 744.774 -2.36401 -1.33518 0
M  V30 7654 C 743.23 -3.45395 1.01144 0
M  V30 7655 C 742.838 -3.71795 2.49946 0
M  V30 7656 C 744.582 -4.18173 0.730185 0
M  V30 7657 C 742.489 -5.17901 2.85539 0
M  V30 7658 H 741.419 -0.721676 0.218403 0
M  V30 7659 H 744.07 -1.4293 1.15079 0
M  V30 7660 H 742.452 -3.94143 0.383007 0
M  V30 7661 H 743.626 -3.33728 3.17746 0
M  V30 7662 H 741.941 -3.12263 2.75465 0
M  V30 7663 H 744.538 -5.25784 0.972367 0
M  V30 7664 H 744.881 -4.14964 -0.333223 0
M  V30 7665 H 745.414 -3.75309 1.31862 0
M  V30 7666 H 742.153 -5.26216 3.90867 0
M  V30 7667 H 741.673 -5.57042 2.22406 0
M  V30 7668 H 743.352 -5.8596 2.74336 0
M  V30 7669 N 743.484 -0.715051 -1.40445 0
M  V30 7670 C 744.732 -0.253826 -2.005 0
M  V30 7671 C 745.053 1.15681 -1.5698 0
M  V30 7672 O 744.323 1.78414 -0.809027 0
M  V30 7673 H 742.903 -0.0908537 -0.741454 0
M  V30 7674 H 745.565 -0.920561 -1.7179 0
M  V30 7675 H 744.661 -0.286499 -3.10782 0
M  V30 7676 N 744.962 1.50701 -0.461195 0
M  V30 7677 C 745.895 2.24948 0.383863 0
M  V30 7678 C 746.873 1.27851 1.00464 0
M  V30 7679 O 748.057 1.57049 1.04249 0
M  V30 7680 C 745.184 3.01818 1.537 0
M  V30 7681 C 744.23 4.13762 1.03457 0
M  V30 7682 S 745.063 5.35483 -0.0427485 0
M  V30 7683 C 746.219 6.15898 1.11449 0
M  V30 7684 H 746.452 2.96277 -0.246425 0
M  V30 7685 H 743.985 1.52428 -0.245961 0
M  V30 7686 H 745.943 3.467 2.19794 0
M  V30 7687 H 744.604 2.30034 2.13877 0
M  V30 7688 H 743.797 4.66914 1.89757 0
M  V30 7689 H 743.399 3.71265 0.4515 0
M  V30 7690 H 745.691 6.46431 2.02813 0
M  V30 7691 H 746.634 7.05359 0.622444 0
M  V30 7692 H 747.042 5.47777 1.36385 0
M  V30 7693 N 746.441 0.193421 1.56409 0
M  V30 7694 C 747.669 -0.451438 2.01915 0
M  V30 7695 C 748.084 -1.55306 1.07357 0
M  V30 7696 O 747.441 -1.82333 0.0781512 0
M  V30 7697 C 747.492 -1.00931 3.47124 0
M  V30 7698 O 747.213 0.0483623 4.38073 0
M  V30 7699 C 748.714 -1.73021 4.0814 0
M  V30 7700 H 745.934 -0.113495 0.661332 0
M  V30 7701 H 748.478 0.301636 2.02263 0
M  V30 7702 H 746.633 -1.71277 3.47481 0
M  V30 7703 H 747.047 -0.366644 5.23217 0
M  V30 7704 H 748.521 -2.07289 5.11601 0
M  V30 7705 H 748.998 -2.6333 3.51502 0
M  V30 7706 H 749.604 -1.07264 4.11551 0
M  V30 7707 N 747.919 -1.57396 -0.0801906 0
M  V30 7708 C 748.866 -2.03107 -1.09618 0
M  V30 7709 C 749.836 -0.910118 -1.38946 0
M  V30 7710 O 751.021 -1.17719 -1.50156 0
M  V30 7711 C 748.161 -2.47293 -2.40708 0
M  V30 7712 C 747.274 -3.72972 -2.17982 0
M  V30 7713 C 746.409 -4.05975 -3.42576 0
M  V30 7714 C 745.448 -5.24719 -3.15177 0
M  V30 7715 N 744.585 -5.53401 -4.32078 0
M  V30 7716 H 749.425 -2.89677 -0.69939 0
M  V30 7717 H 746.962 -1.43263 -0.333785 0
M  V30 7718 H 748.92 -2.7096 -3.17232 0
M  V30 7719 H 747.55 -1.63713 -2.78205 0
M  V30 7720 H 746.602 -3.56693 -1.32189 0
M  V30 7721 H 747.914 -4.59638 -1.93738 0
M  V30 7722 H 747.068 -4.30498 -4.275 0
M  V30 7723 H 745.807 -3.17859 -3.69887 0
M  V30 7724 H 744.812 -5 -2.28648 0
M  V30 7725 H 746.037 -6.14445 -2.89197 0
M  V30 7726 H 743.983 -4.68245 -4.59437 0
M  V30 7727 H 743.9 -6.34469 -4.11078 0
M  V30 7728 H 745.168 -5.8247 -5.18024 0
M  V30 7729 N 749.397 0.351382 -1.53633 0
M  V30 7730 C 750.646 1.08988 -1.69719 0
M  V30 7731 C 750.959 1.90043 -0.462948 0
M  V30 7732 O 752.165 2.66769 -0.504613 0
M  V30 7733 C 750.621 1.98691 -3.00083 0
M  V30 7734 C 750.229 1.22881 -4.30818 0
M  V30 7735 C 751.973 2.72446 -3.25536 0
M  V30 7736 C 749.88 2.11568 -5.52262 0
M  V30 7737 H 748.81 0.410588 -0.632403 0
M  V30 7738 H 751.461 0.349886 -1.80133 0
M  V30 7739 H 749.843 2.76478 -2.83506 0
M  V30 7740 H 751.017 0.500582 -4.58073 0
M  V30 7741 H 749.332 0.60928 -4.11918 0
M  V30 7742 H 751.929 3.39055 -4.13456 0
M  V30 7743 H 752.272 3.38588 -2.42206 0
M  V30 7744 H 752.805 2.01735 -3.42852 0
M  V30 7745 H 749.544 1.4998 -6.38111 0
M  V30 7746 H 749.064 2.82201 -5.29266 0
M  V30 7747 H 750.743 2.70802 -5.87601 0
M  V30 7748 N 750.875 1.45233 0.611969 0
M  V30 7749 C 752.286 1.4354 1.19387 0
M  V30 7750 C 752.637 0.160713 1.95541 0
M  V30 7751 O 751.762 -0.737954 2.03429 0
M  V30 7752 C 752.357 2.60045 2.17169 0
M  V30 7753 C 750.916 2.61486 2.70744 0
M  V30 7754 C 750.063 2.35708 1.46072 0
M  V30 7755 H 753.014 1.53536 0.401529 0
M  V30 7756 H 753.035 2.33893 3.00124 0
M  V30 7757 H 752.547 3.52803 1.61714 0
M  V30 7758 H 750.648 1.72721 3.30149 0
M  V30 7759 H 750.761 3.60572 3.15476 0
M  V30 7760 H 749.125 1.85178 1.74875 0
M  V30 7761 H 749.908 3.30606 0.924922 0
M  V30 7762 N 752.353 -0.854086 1.3245 0
M  V30 7763 C 753.599 -1.61069 1.23225 0
M  V30 7764 C 753.932 -1.93111 -0.205349 0
M  V30 7765 O 753.207 -1.57397 -1.14265 0
M  V30 7766 C 753.49 -2.93065 2.09249 0
M  V30 7767 C 753.343 -2.67801 3.6139 0
M  V30 7768 C 754.662 -3.94341 1.95406 0
M  V30 7769 H 751.781 -0.584449 0.448986 0
M  V30 7770 H 754.423 -0.986189 1.62402 0
M  V30 7771 H 752.573 -3.46364 1.75967 0
M  V30 7772 H 754.245 -2.21052 4.04887 0
M  V30 7773 H 752.488 -2.01756 3.84027 0
M  V30 7774 H 753.159 -3.6179 4.16907 0
M  V30 7775 H 755.635 -3.50301 2.24562 0
M  V30 7776 H 754.511 -4.84555 2.57872 0
M  V30 7777 H 754.772 -4.32382 0.921865 0
M  V30 7778 N 753.831 -1.1567 -1.07043 0
M  V30 7779 C 755.08 -0.928039 -1.79082 0
M  V30 7780 C 755.393 0.545968 -1.87826 0
M  V30 7781 O 756.599 0.892308 -2.56418 0
M  V30 7782 C 755.055 -1.61103 -3.21829 0
M  V30 7783 C 754.663 -3.12228 -3.21275 0
M  V30 7784 C 756.407 -1.46404 -3.98455 0
M  V30 7785 C 754.314 -3.733 -4.58695 0
M  V30 7786 H 753.244 -0.34357 -0.671175 0
M  V30 7787 H 755.895 -1.38718 -1.20123 0
M  V30 7788 H 754.277 -1.07958 -3.81 0
M  V30 7789 H 755.451 -3.72155 -2.71731 0
M  V30 7790 H 753.766 -3.26725 -2.58147 0
M  V30 7791 H 756.363 -1.8942 -5.00024 0
M  V30 7792 H 756.706 -0.41195 -4.14257 0
M  V30 7793 H 757.239 -1.96663 -3.45787 0
M  V30 7794 H 753.978 -4.78423 -4.48098 0
M  V30 7795 H 753.498 -3.18157 -5.08465 0
M  V30 7796 H 755.177 -3.7441 -5.27661 0
M  V30 7797 N 755.309 1.25446 -0.953992 0
M  V30 7798 C 756.219 2.29632 -0.480264 0
M  V30 7799 C 757.235 1.68025 0.452071 0
M  V30 7800 O 758.411 1.98703 0.328472 0
M  V30 7801 C 755.476 3.45903 0.234974 0
M  V30 7802 C 754.537 4.22953 -0.735495 0
M  V30 7803 C 753.77 5.33672 -0.0542957 0
M  V30 7804 O 753.993 5.58477 1.16018 0
M  V30 7805 O 752.927 5.9734 -0.739509 0
M  V30 7806 H 756.753 2.72242 -1.34602 0
M  V30 7807 H 754.338 1.30883 -0.720419 0
M  V30 7808 H 756.22 4.16552 0.637341 0
M  V30 7809 H 754.895 3.05296 1.07592 0
M  V30 7810 H 753.802 3.54734 -1.18806 0
M  V30 7811 H 755.135 4.67341 -1.54444 0
M  V30 7812 N 756.787 0.722489 1.40064 0
M  V30 7813 C 757.735 0.063329 2.32514 0
M  V30 7814 C 758.729 -0.73953 1.52405 0
M  V30 7815 O 759.935 -0.642122 1.68157 0
M  V30 7816 H 756.31 0.00167692 0.751998 0
M  V30 7817 H 758.281 0.859656 2.85749 0
M  V30 7818 C 757.03 -0.839219 3.3742 0
M  V30 7819 H 756.353 -0.230836 3.99133 0
M  V30 7820 H 757.793 -1.26827 4.04587 0
M  V30 7821 C 756.252 -1.96783 2.73456 0
M  V30 7822 O 756.782 -3.05933 2.60323 0
M  V30 7823 N 754.988 -1.75351 2.31734 0
M  V30 7824 H 754.535 -0.865787 2.42615 0
M  V30 7825 H 754.493 -2.51043 1.89275 0
M  V30 7826 N 758.265 -1.50454 0.469181 0
M  V30 7827 C 759.676 -1.86695 0.0136034 0
M  V30 7828 C 760.027 -1.38413 -1.39055 0
M  V30 7829 O 759.152 -0.748294 -2.03051 0
M  V30 7830 C 759.747 -3.38795 0.0179098 0
M  V30 7831 C 758.306 -3.74455 -0.382191 0
M  V30 7832 C 757.453 -2.74338 0.404207 0
M  V30 7833 H 760.404 -1.43225 0.683547 0
M  V30 7834 H 760.425 -3.72321 -0.78468 0
M  V30 7835 H 759.937 -3.73906 1.04 0
M  V30 7836 H 758.038 -3.44944 -1.4087 0
M  V30 7837 H 758.151 -4.79025 -0.084862 0
M  V30 7838 H 756.515 -2.54305 -0.141829 0
M  V30 7839 H 757.298 -3.12293 1.42577 0
M  V30 7840 N 759.743 -0.201713 -1.56304 0
M  V30 7841 C 760.675 0.748466 -2.16635 0
M  V30 7842 C 761.688 1.172 -1.12996 0
M  V30 7843 O 762.877 1.10658 -1.40061 0
M  V30 7844 C 759.977 2.02296 -2.719 0
M  V30 7845 C 759.15 1.75818 -4.00508 0
M  V30 7846 C 758.209 2.87779 -4.40533 0
M  V30 7847 O 757.235 2.57101 -5.07826 0
M  V30 7848 N 758.437 4.16287 -4.04581 0
M  V30 7849 H 761.202 0.232505 -2.98797 0
M  V30 7850 H 758.763 -0.0199822 -1.61888 0
M  V30 7851 H 760.755 2.7635 -2.95657 0
M  V30 7852 H 759.325 2.44996 -1.94154 0
M  V30 7853 H 758.545 0.855095 -3.84814 0
M  V30 7854 H 759.833 1.55532 -4.84445 0
M  V30 7855 H 759.231 4.44061 -3.50466 0
M  V30 7856 H 757.788 4.86946 -4.33274 0
M  V30 7857 N 761.222 1.57436 0.0718424 0
M  V30 7858 C 762.452 1.91196 0.782795 0
M  V30 7859 C 762.86 0.795927 1.71644 0
M  V30 7860 O 762.203 -0.239604 1.82131 0
M  V30 7861 C 762.265 3.20421 1.63005 0
M  V30 7862 C 761.929 4.48724 0.865782 0
M  V30 7863 C 762.926 5.19571 0.185051 0
M  V30 7864 C 760.611 4.95345 0.832971 0
M  V30 7865 C 762.605 6.3529 -0.518264 0
M  V30 7866 C 760.292 6.1097 0.125884 0
M  V30 7867 C 761.29 6.80794 -0.548533 0
M  V30 7868 O 760.978 7.94213 -1.24423 0
M  V30 7869 H 760.71 0.636486 0.227731 0
M  V30 7870 H 763.264 2.05348 0.0464187 0
M  V30 7871 H 761.494 3.02478 2.40923 0
M  V30 7872 H 763.183 3.39831 2.21968 0
M  V30 7873 H 763.949 4.8458 0.201707 0
M  V30 7874 H 759.828 4.40871 1.34737 0
M  V30 7875 H 763.372 6.89725 -1.04523 0
M  V30 7876 H 759.269 6.45411 0.107155 0
M  V30 7877 H 760.037 8.10331 -1.1535 0
M  V30 7878 N 762.7 -0.34323 1.53817 0
M  V30 7879 C 763.947 -1.08344 1.71079 0
M  V30 7880 C 764.275 -1.88633 0.474133 0
M  V30 7881 O 763.53 -1.87984 -0.544116 0
M  V30 7882 C 763.829 -2.05195 2.92626 0
M  V30 7883 C 763.495 -1.41215 4.28216 0
M  V30 7884 C 762.157 -1.23495 4.65083 0
M  V30 7885 C 764.509 -0.951273 5.12445 0
M  V30 7886 C 761.837 -0.583065 5.83796 0
M  V30 7887 C 764.189 -0.313292 6.31824 0
M  V30 7888 C 762.853 -0.123779 6.67385 0
M  V30 7889 H 762.123 -0.396458 0.626021 0
M  V30 7890 H 764.77 -0.362689 1.88034 0
M  V30 7891 H 763.075 -2.83653 2.70275 0
M  V30 7892 H 764.772 -2.62462 3.03175 0
M  V30 7893 H 761.362 -1.56005 3.992 0
M  V30 7894 H 765.546 -1.07602 4.84495 0
M  V30 7895 H 760.802 -0.424854 6.09922 0
M  V30 7896 H 764.976 0.0519179 6.96381 0
M  V30 7897 H 762.603 0.383398 7.59233 0
M  V30 7898 N 764.178 -1.45556 -0.604258 0
M  V30 7899 C 765.426 -1.4945 -1.36048 0
M  V30 7900 C 765.747 -0.138933 -1.94504 0
M  V30 7901 O 765.017 0.832097 -1.7735 0
M  V30 7902 H 763.597 -0.550381 -0.505064 0
M  V30 7903 H 766.259 -1.81535 -0.709308 0
M  V30 7904 H 765.355 -2.23519 -2.17821 0
M  V30 7905 N 765.656 0.84705 -1.32902 0
M  V30 7906 C 766.905 1.59667 -1.23245 0
M  V30 7907 C 767.218 1.94551 0.202349 0
M  V30 7908 O 768.424 2.68218 0.420847 0
M  V30 7909 C 766.88 2.8795 -2.15901 0
M  V30 7910 C 766.488 2.60461 -3.64505 0
M  V30 7911 C 768.232 3.65968 -2.15098 0
M  V30 7912 C 766.139 3.84791 -4.49099 0
M  V30 7913 H 765.069 0.599167 -0.457728 0
M  V30 7914 H 767.72 0.934662 -1.57912 0
M  V30 7915 H 766.102 3.55648 -1.74157 0
M  V30 7916 H 767.276 2.01026 -4.14639 0
M  V30 7917 H 765.591 1.9576 -3.67515 0
M  V30 7918 H 768.188 4.58241 -2.75534 0
M  V30 7919 H 768.531 4.00275 -1.14392 0
M  V30 7920 H 769.064 3.05184 -2.55162 0
M  V30 7921 H 765.803 3.55621 -5.50649 0
M  V30 7922 H 765.323 4.43594 -4.03713 0
M  V30 7923 H 767.002 4.52454 -4.62487 0
M  V30 7924 N 767.134 1.16236 1.06428 0
M  V30 7925 C 768.362 0.967184 1.82902 0
M  V30 7926 C 768.777 -0.484601 1.82475 0
M  V30 7927 O 768.134 -1.33631 1.24294 0
M  V30 7928 C 768.185 1.48534 3.29576 0
M  V30 7929 O 767.906 2.88026 3.3011 0
M  V30 7930 C 769.407 1.33298 4.22784 0
M  V30 7931 H 766.627 0.342923 0.576754 0
M  V30 7932 H 769.171 1.54232 1.34286 0
M  V30 7933 H 767.326 0.952513 3.75508 0
M  V30 7934 H 767.74 3.11721 4.21818 0
M  V30 7935 H 769.214 1.74385 5.23731 0
M  V30 7936 H 769.691 0.278356 4.38317 0
M  V30 7937 H 770.297 1.85535 3.82697 0
M  V30 7938 N 768.612 -1.24939 0.960631 0
M  V30 7939 C 769.56 -2.27659 0.47686 0
M  V30 7940 C 770.554 -1.63148 -0.455961 0
M  V30 7941 O 771.76 -1.76911 -0.332029 0
M  V30 7942 H 768.135 -0.739651 0.135723 0
M  V30 7943 H 770.106 -2.65844 1.35534 0
M  V30 7944 C 768.855 -3.46976 -0.224191 0
M  V30 7945 H 768.178 -3.96854 0.484471 0
M  V30 7946 H 769.618 -4.20717 -0.526615 0
M  V30 7947 C 768.077 -3.04159 -1.44876 0
M  V30 7948 O 768.607 -3.10697 -2.54618 0
M  V30 7949 N 766.813 -2.59284 -1.31226 0
M  V30 7950 H 766.36 -2.54164 -0.419361 0
M  V30 7951 H 766.318 -2.31 -2.13275 0
M  V30 7952 N 770.09 -0.729906 -1.39679 0
M  V30 7953 C 771.315 -0.284345 -2.05442 0
M  V30 7954 C 771.74 1.07056 -1.54663 0
M  V30 7955 O 771.098 1.67732 -0.688157 0
M  V30 7956 C 771.146 -0.290089 -3.59431 0
M  V30 7957 O 770.25 0.723978 -4.05995 0
M  V30 7958 H 769.591 -0.130311 -0.651088 0
M  V30 7959 H 772.121 -0.994403 -1.78809 0
M  V30 7960 H 772.131 -0.132712 -4.07784 0
M  V30 7961 H 770.806 -1.27877 -3.95753 0
M  V30 7962 H 769.383 0.533154 -3.69069 0
M  V30 7963 N 771.568 1.50203 -0.477153 0
M  V30 7964 C 772.5 2.26508 0.350239 0
M  V30 7965 C 773.513 1.32081 0.95176 0
M  V30 7966 O 774.702 1.57546 0.839139 0
M  V30 7967 C 771.802 3.0361 1.50579 0
M  V30 7968 C 770.975 4.25438 1.01595 0
M  V30 7969 C 770.034 4.84783 2.04626 0
M  V30 7970 O 769.06 5.45528 1.62442 0
M  V30 7971 N 770.262 4.72318 3.37485 0
M  V30 7972 H 773.027 2.98155 -0.30394 0
M  V30 7973 H 770.588 1.58938 -0.308289 0
M  V30 7974 H 772.58 3.4019 2.1921 0
M  V30 7975 H 771.15 2.34724 2.06455 0
M  V30 7976 H 770.37 3.93894 0.155316 0
M  V30 7977 H 771.658 5.04413 0.666694 0
M  V30 7978 H 771.056 4.24022 3.74462 0
M  V30 7979 H 769.613 5.13149 4.01897 0
M  V30 7980 N 773.046 0.209999 1.56195 0
M  V30 7981 C 773.976 -0.699746 2.22769 0
M  V30 7982 C 774.957 -1.20993 1.1956 0
M  V30 7983 O 776.142 -1.25605 1.48112 0
M  V30 7984 C 773.272 -1.91302 2.89863 0
M  V30 7985 C 772.226 -1.53715 3.99444 0
M  V30 7986 C 771.552 -2.82826 4.53777 0
M  V30 7987 C 772.852 -0.735836 5.17091 0
M  V30 7988 H 774.546 -0.144716 2.9905 0
M  V30 7989 H 772.092 -0.0681645 1.43839 0
M  V30 7990 H 774.045 -2.5548 3.35124 0
M  V30 7991 H 772.769 -2.49283 2.11011 0
M  V30 7992 H 771.428 -0.918892 3.54897 0
M  V30 7993 H 771.076 -3.38927 3.71669 0
M  V30 7994 H 770.776 -2.58415 5.27727 0
M  V30 7995 H 772.3 -3.47966 5.01749 0
M  V30 7996 H 773.714 -1.28105 5.58804 0
M  V30 7997 H 772.111 -0.589272 5.972 0
M  V30 7998 H 773.181 0.260004 4.84202 0
M  V30 7999 N 774.524 -1.57472 -0.0634922 0
M  V30 8000 C 775.471 -2.04258 -1.07457 0
M  V30 8001 C 776.441 -0.924804 -1.37973 0
M  V30 8002 O 777.626 -1.19305 -1.48899 0
M  V30 8003 C 774.766 -2.49832 -2.38071 0
M  V30 8004 C 773.879 -3.75263 -2.14014 0
M  V30 8005 C 773.014 -4.09585 -3.38251 0
M  V30 8006 C 772.053 -5.28032 -3.09594 0
M  V30 8007 N 771.19 -5.57953 -4.26185 0
M  V30 8008 H 776.03 -2.90402 -0.668626 0
M  V30 8009 H 773.567 -1.43609 -0.318572 0
M  V30 8010 H 775.525 -2.7431 -3.14341 0
M  V30 8011 H 774.155 -1.66654 -2.76453 0
M  V30 8012 H 773.207 -3.58075 -1.28399 0
M  V30 8013 H 774.519 -4.61667 -1.88852 0
M  V30 8014 H 773.673 -4.35008 -4.2291 0
M  V30 8015 H 772.412 -3.21765 -3.66495 0
M  V30 8016 H 771.417 -5.02397 -2.23332 0
M  V30 8017 H 772.642 -6.17477 -2.82663 0
M  V30 8018 H 770.588 -4.73092 -4.54445 0
M  V30 8019 H 770.505 -6.38793 -4.04326 0
M  V30 8020 H 771.773 -5.87931 -5.11817 0
M  V30 8021 N 776.003 0.335068 -1.53997 0
M  V30 8022 C 777.414 0.910191 -1.6301 0
M  V30 8023 C 777.765 1.89271 -0.516809 0
M  V30 8024 O 776.89 2.13516 0.352123 0
M  V30 8025 C 777.485 1.65761 -2.9548 0
M  V30 8026 C 776.044 2.18163 -3.06728 0
M  V30 8027 C 775.191 1.00338 -2.5851 0
M  V30 8028 H 778.142 0.112965 -1.58297 0
M  V30 8029 H 778.163 2.52107 -2.84995 0
M  V30 8030 H 777.675 0.94227 -3.76488 0
M  V30 8031 H 775.776 2.92847 -2.30372 0
M  V30 8032 H 775.889 2.43952 -4.1234 0
M  V30 8033 H 774.253 1.37925 -2.14124 0
M  V30 8034 H 775.036 0.30254 -3.41964 0
M  V30 8035 N 777.481 1.45874 0.596531 0
M  V30 8036 C 778.758 1.40942 1.35627 0
M  V30 8037 C 779.138 0.0857066 2.10926 0
M  V30 8038 O 778.486 -0.932544 2.08605 0
M  V30 8039 C 778.696 2.63027 2.29386 0
M  V30 8040 C 780.044 3.08588 2.91649 0
M  V30 8041 O 781.068 2.63478 2.39704 0
M  V30 8042 O 779.927 3.86902 3.85965 0
M  V30 8043 H 777.021 0.559838 0.608696 0
M  V30 8044 H 779.567 1.5802 0.618698 0
M  V30 8045 H 778.339 3.5094 1.7308 0
M  V30 8046 H 777.962 2.48338 3.10506 0
M  V30 8047 N 778.959 -0.83999 1.33349 0
M  V30 8048 C 780.187 -1.62728 1.27778 0
M  V30 8049 C 780.602 -1.88191 -0.151505 0
M  V30 8050 O 779.959 -1.46128 -1.09329 0
M  V30 8051 C 780.01 -2.97813 2.04913 0
M  V30 8052 O 779.731 -2.73469 3.42266 0
M  V30 8053 C 781.232 -3.92245 2.0654 0
M  V30 8054 H 778.452 -0.506374 0.440257 0
M  V30 8055 H 780.996 -1.04637 1.75703 0
M  V30 8056 H 779.151 -3.52509 1.60674 0
M  V30 8057 H 779.565 -3.59483 3.81932 0
M  V30 8058 H 781.039 -4.84249 2.64966 0
M  V30 8059 H 781.516 -4.26332 1.05537 0
M  V30 8060 H 782.122 -3.43487 2.50793 0
M  V30 8061 N 780.437 -1.16799 -1.0581 0
M  V30 8062 C 781.684 -0.952524 -1.78699 0
M  V30 8063 C 782.012 0.51931 -1.87439 0
M  V30 8064 O 781.267 1.40151 -1.36587 0
M  V30 8065 C 781.566 -1.53111 -3.22942 0
M  V30 8066 C 781.232 -3.0261 -3.34273 0
M  V30 8067 C 779.894 -3.43418 -3.37072 0
M  V30 8068 C 782.246 -3.98611 -3.35795 0
M  V30 8069 C 779.574 -4.78838 -3.39015 0
M  V30 8070 C 781.926 -5.33923 -3.39277 0
M  V30 8071 C 780.59 -5.74205 -3.40361 0
M  V30 8072 H 779.86 -0.348553 -0.653905 0
M  V30 8073 H 782.507 -1.45591 -1.244 0
M  V30 8074 H 780.812 -0.949286 -3.80126 0
M  V30 8075 H 782.509 -1.34002 -3.77948 0
M  V30 8076 H 779.099 -2.70075 -3.32803 0
M  V30 8077 H 783.283 -3.68146 -3.32839 0
M  V30 8078 H 778.539 -5.09369 -3.38161 0
M  V30 8079 H 782.713 -6.08094 -3.39403 0
M  V30 8080 H 780.34 -6.79117 -3.4162 0
M  V30 8081 N 781.915 1.24427 -0.967243 0
M  V30 8082 C 783.161 1.92772 -0.629812 0
M  V30 8083 C 783.494 1.75436 0.832827 0
M  V30 8084 O 782.769 1.10716 1.59913 0
M  V30 8085 C 783.052 3.45798 -1.00477 0
M  V30 8086 C 782.905 3.72304 -2.52407 0
M  V30 8087 C 784.224 4.36787 -0.538999 0
M  V30 8088 H 781.343 0.700099 -0.230282 0
M  V30 8089 H 783.985 1.46805 -1.20616 0
M  V30 8090 H 782.135 3.8508 -0.514336 0
M  V30 8091 H 783.807 3.42584 -3.08924 0
M  V30 8092 H 782.05 3.17472 -2.95625 0
M  V30 8093 H 782.721 4.7937 -2.73693 0
M  V30 8094 H 785.197 4.04877 -0.959874 0
M  V30 8095 H 784.073 5.4259 -0.829926 0
M  V30 8096 H 784.334 4.38527 0.560923 0
M  V30 8097 N 783.393 0.737304 1.3929 0
M  V30 8098 C 784.325 0.0592106 2.29124 0
M  V30 8099 C 785.338 -0.701026 1.46934 0
M  V30 8100 O 786.527 -0.544808 1.69983 0
M  V30 8101 C 783.627 -0.940358 3.25592 0
M  V30 8102 C 782.8 -0.241163 4.36735 0
M  V30 8103 C 781.859 -1.14916 5.13498 0
M  V30 8104 O 780.885 -0.625783 5.6575 0
M  V30 8105 N 782.087 -2.47869 5.2492 0
M  V30 8106 H 784.852 0.830647 2.87959 0
M  V30 8107 H 782.413 0.586718 1.50895 0
M  V30 8108 H 784.405 -1.55046 3.73822 0
M  V30 8109 H 782.975 -1.61299 2.67771 0
M  V30 8110 H 782.195 0.549441 3.90352 0
M  V30 8111 H 783.483 0.243299 5.08218 0
M  V30 8112 H 782.881 -2.92864 4.83991 0
M  V30 8113 H 781.438 -3.03969 5.76581 0
M  V30 8114 N 784.871 -1.49948 0.485112 0
M  V30 8115 C 785.821 -2.25734 -0.320658 0
M  V30 8116 C 786.805 -1.29907 -0.949373 0
M  V30 8117 O 787.997 -1.54725 -0.859601 0
M  V30 8118 C 785.126 -3.13728 -1.39391 0
M  V30 8119 C 784.212 -4.1701 -0.772225 0
M  V30 8120 N 784.603 -5.05667 0.115782 0
M  V30 8121 C 782.901 -4.33834 -1.03461 0
M  V30 8122 C 783.602 -5.79798 0.47004 0
M  V30 8123 N 782.578 -5.4337 -0.158204 0
M  V30 8124 H 786.38 -2.91647 0.36319 0
M  V30 8125 H 783.894 -1.59602 0.300154 0
M  V30 8126 H 785.891 -3.66639 -1.98447 0
M  V30 8127 H 784.551 -2.49365 -2.0796 0
M  V30 8128 H 785.562 -5.15619 0.485557 0
M  V30 8129 H 782.239 -3.80684 -1.71424 0
M  V30 8130 H 783.629 -6.61177 1.19558 0
M  V30 8131 N 786.349 -0.21828 -1.56081 0
M  V30 8132 C 787.598 0.414644 -1.97392 0
M  V30 8133 C 787.911 1.61132 -1.10887 0
M  V30 8134 O 789.117 2.31355 -1.42082 0
M  V30 8135 C 787.573 0.789099 -3.51143 0
M  V30 8136 C 787.181 -0.384578 -4.46346 0
M  V30 8137 C 788.925 1.38781 -4.01173 0
M  V30 8138 C 786.832 0.0121288 -5.91399 0
M  V30 8139 H 785.762 0.158691 -0.737111 0
M  V30 8140 H 788.413 -0.313974 -1.80794 0
M  V30 8141 H 786.795 1.57505 -3.6333 0
M  V30 8142 H 787.969 -1.16212 -4.45905 0
M  V30 8143 H 786.284 -0.896306 -4.06639 0
M  V30 8144 H 788.881 1.69746 -5.07041 0
M  V30 8145 H 789.224 2.30245 -3.46833 0
M  V30 8146 H 789.757 0.665364 -3.92196 0
M  V30 8147 H 786.496 -0.868917 -6.49715 0
M  V30 8148 H 786.016 0.754053 -5.95041 0
M  V30 8149 H 787.695 0.439949 -6.45502 0
M  V30 8150 N 787.827 1.57504 0.0551401 0
M  V30 8151 C 788.774 2.04825 1.06373 0
M  V30 8152 C 789.744 0.932108 1.37481 0
M  V30 8153 O 790.929 1.20093 1.48265 0
M  V30 8154 C 788.069 2.51091 2.36743 0
M  V30 8155 C 787.182 3.76392 2.12021 0
M  V30 8156 C 786.317 4.11373 3.36074 0
M  V30 8157 C 785.356 5.29666 3.0679 0
M  V30 8158 N 784.493 5.60205 4.2322 0
M  V30 8159 H 789.333 2.90753 0.653216 0
M  V30 8160 H 786.87 1.43776 0.310951 0
M  V30 8161 H 788.828 2.75973 3.12881 0
M  V30 8162 H 787.458 1.68118 2.75565 0
M  V30 8163 H 786.51 3.58751 1.26498 0
M  V30 8164 H 787.822 4.62662 1.86401 0
M  V30 8165 H 786.976 4.37245 4.20597 0
M  V30 8166 H 785.715 3.23704 3.64784 0
M  V30 8167 H 784.72 5.03574 2.20664 0
M  V30 8168 H 785.945 6.18968 2.79385 0
M  V30 8169 H 783.891 4.75495 4.5193 0
M  V30 8170 H 783.808 6.40928 4.00933 0
M  V30 8171 H 785.076 5.90637 5.08692 0
M  V30 8172 N 789.305 -0.326896 1.54172 0
M  V30 8173 C 790.721 -0.671034 1.44808 0
M  V30 8174 C 790.921 -1.91781 0.618258 0
M  V30 8175 O 789.977 -2.52235 0.115751 0
M  V30 8176 C 791.29 -0.848147 2.88491 0
M  V30 8177 C 792.838 -0.945702 2.98371 0
M  V30 8178 C 793.313 -1.15501 4.43197 0
M  V30 8179 N 794.804 -1.22183 4.46795 0
M  V30 8180 C 795.539 -1.4016 5.56006 0
M  V30 8181 N 795.035 -1.55202 6.75192 0
M  V30 8182 N 796.828 -1.42841 5.43648 0
M  V30 8183 H 788.979 0.49262 2.06608 0
M  V30 8184 H 791.242 0.158574 0.934643 0
M  V30 8185 H 790.948 -0.00329969 3.517 0
M  V30 8186 H 790.822 -1.74497 3.34411 0
M  V30 8187 H 793.209 -1.78106 2.35292 0
M  V30 8188 H 793.29 -0.0254215 2.55787 0
M  V30 8189 H 792.934 -0.324521 5.06862 0
M  V30 8190 H 792.864 -2.08911 4.83388 0
M  V30 8191 H 795.355 -1.12016 3.60917 0
M  V30 8192 H 795.668 -1.68601 7.54184 0
M  V30 8193 H 794.013 -1.52306 6.78106 0
M  V30 8194 H 797.204 -1.30683 4.49488 0
M  V30 8195 H 797.377 -1.56509 6.28816 0
M  V30 8196 N 790.784 -1.46188 -0.588786 0
M  V30 8197 C 791.734 -1.5271 -1.69303 0
M  V30 8198 C 792.718 -0.388578 -1.56137 0
M  V30 8199 O 793.91 -0.636616 -1.65155 0
M  V30 8200 C 791.039 -1.51457 -3.08084 0
M  V30 8201 C 790.125 -2.70581 -3.26568 0
M  V30 8202 N 790.516 -3.9555 -3.15236 0
M  V30 8203 C 788.814 -2.66676 -3.57491 0
M  V30 8204 C 789.515 -4.75157 -3.35561 0
M  V30 8205 N 788.491 -4.06927 -3.60432 0
M  V30 8206 H 792.293 -2.47136 -1.59063 0
M  V30 8207 H 789.807 -1.41743 -0.792632 0
M  V30 8208 H 791.804 -1.54216 -3.87328 0
M  V30 8209 H 790.464 -0.581036 -3.19459 0
M  V30 8210 H 791.475 -4.2689 -2.93232 0
M  V30 8211 H 788.152 -1.82317 -3.75588 0
M  V30 8212 H 789.542 -5.84126 -3.32034 0
M  V30 8213 N 792.262 0.832906 -1.33792 0
M  V30 8214 C 793.21 1.96455 -1.24532 0
M  V30 8215 C 794.204 1.68774 -0.145455 0
M  V30 8216 O 795.41 1.77314 -0.309797 0
M  V30 8217 H 791.785 0.645008 -0.386611 0
M  V30 8218 H 793.756 2.01389 -2.20193 0
M  V30 8219 C 792.505 3.32784 -1.00748 0
M  V30 8220 H 791.828 3.54626 -1.84609 0
M  V30 8221 H 793.268 4.12447 -0.98301 0
M  V30 8222 C 791.727 3.35654 0.289475 0
M  V30 8223 O 792.257 3.80281 1.29419 0
M  V30 8224 N 790.463 2.88843 0.3191 0
M  V30 8225 H 790.01 2.52719 -0.499069 0
M  V30 8226 H 789.968 2.91145 1.18667 0
M  V30 8227 N 793.74 1.17359 1.05189 0
M  V30 8228 C 794.989 0.956412 1.77583 0
M  V30 8229 C 795.302 -0.516018 1.88671 0
M  V30 8230 O 796.508 -0.851401 2.57805 0
M  V30 8231 C 794.964 1.66203 3.19225 0
M  V30 8232 C 794.572 3.17299 3.16267 0
M  V30 8233 C 796.316 1.52725 3.96075 0
M  V30 8234 C 794.223 3.8055 4.52698 0
M  V30 8235 H 793.153 0.354204 0.665624 0
M  V30 8236 H 795.804 1.40612 1.17901 0
M  V30 8237 H 794.186 1.14006 3.79234 0
M  V30 8238 H 795.36 3.76431 2.65776 0
M  V30 8239 H 793.675 3.3079 2.52917 0
M  V30 8240 H 796.272 1.97351 4.96947 0
M  V30 8241 H 796.615 0.477803 4.13549 0
M  V30 8242 H 797.148 2.02139 3.42614 0
M  V30 8243 H 793.887 4.85492 4.4043 0
M  V30 8244 H 793.407 3.26206 5.03339 0
M  V30 8245 H 795.086 3.82757 5.21638 0
M  V30 8246 N 795.218 -1.23913 0.973828 0
M  V30 8247 C 796.464 -1.92436 0.640026 0
M  V30 8248 C 796.797 -1.75875 -0.823512 0
M  V30 8249 O 796.072 -1.11563 -1.59323 0
M  V30 8250 C 796.355 -3.4526 1.0231 0
M  V30 8251 C 796.208 -3.70961 2.54378 0
M  V30 8252 C 797.527 -4.36495 0.562155 0
M  V30 8253 H 794.646 -0.698868 0.233992 0
M  V30 8254 H 797.288 -1.46163 1.21393 0
M  V30 8255 H 795.438 -3.84802 0.534751 0
M  V30 8256 H 797.11 -3.40941 3.10737 0
M  V30 8257 H 795.353 -3.15899 2.97305 0
M  V30 8258 H 796.024 -4.77912 2.76232 0
M  V30 8259 H 798.5 -4.04363 0.981333 0
M  V30 8260 H 797.376 -5.42142 0.858689 0
M  V30 8261 H 797.637 -4.38818 -0.537659 0
M  V30 8262 N 796.696 -0.74468 -1.38897 0
M  V30 8263 C 797.626 -0.126355 -2.33158 0
M  V30 8264 C 798.607 0.713517 -1.54412 0
M  V30 8265 O 799.792 0.656523 -1.82766 0
M  V30 8266 C 796.922 0.774375 -3.38557 0
M  V30 8267 C 795.876 0.0379214 -4.27983 0
M  V30 8268 C 795.202 1.05631 -5.24162 0
M  V30 8269 C 796.502 -1.12523 -5.10035 0
M  V30 8270 H 798.196 -0.913744 -2.85116 0
M  V30 8271 H 795.742 -0.440847 -1.37086 0
M  V30 8272 H 797.695 1.21655 -4.03458 0
M  V30 8273 H 796.419 1.59399 -2.85061 0
M  V30 8274 H 795.078 -0.384733 -3.64576 0
M  V30 8275 H 794.726 1.86975 -4.66958 0
M  V30 8276 H 794.426 0.568261 -5.84846 0
M  V30 8277 H 795.95 1.49799 -5.9194 0
M  V30 8278 H 797.364 -0.761037 -5.68226 0
M  V30 8279 H 795.761 -1.54355 -5.79909 0
M  V30 8280 H 796.831 -1.94237 -4.44297 0
M  V30 8281 N 798.174 1.49689 -0.493057 0
M  V30 8282 C 799.121 2.28976 0.28959 0
M  V30 8283 C 800.091 1.35011 0.967536 0
M  V30 8284 O 801.276 1.63964 0.975736 0
M  V30 8285 C 798.416 3.1748 1.35279 0
M  V30 8286 C 797.529 4.26496 0.687418 0
M  V30 8287 C 796.664 5.02226 1.73038 0
M  V30 8288 C 795.703 6.03089 1.04645 0
M  V30 8289 N 794.84 6.72014 2.03325 0
M  V30 8290 H 799.68 2.954 -0.392798 0
M  V30 8291 H 797.217 1.45657 -0.205554 0
M  V30 8292 H 799.175 3.67162 1.98111 0
M  V30 8293 H 797.805 2.53057 2.00405 0
M  V30 8294 H 796.857 3.80362 -0.0540001 0
M  V30 8295 H 798.169 4.98578 0.14864 0
M  V30 8296 H 797.323 5.55737 2.43395 0
M  V30 8297 H 796.062 4.29899 2.303 0
M  V30 8298 H 795.067 5.48817 0.328606 0
M  V30 8299 H 796.292 6.77398 0.480428 0
M  V30 8300 H 794.238 6.02464 2.59564 0
M  V30 8301 H 794.155 7.40046 1.54492 0
M  V30 8302 H 795.423 7.30133 2.72995 0
M  V30 8303 N 799.652 0.226554 1.55963 0
M  V30 8304 C 801.068 -0.128733 1.5908 0
M  V30 8305 C 801.268 -1.58558 1.24345 0
M  V30 8306 O 800.324 -2.32661 0.981069 0
M  V30 8307 C 801.637 0.202076 3.0002 0
M  V30 8308 C 803.185 0.144718 3.12665 0
M  V30 8309 C 803.66 0.449272 4.55791 0
M  V30 8310 N 805.151 0.399026 4.61478 0
M  V30 8311 C 805.886 0.608106 5.70166 0
M  V30 8312 N 805.382 0.879227 6.87198 0
M  V30 8313 N 807.175 0.5402 5.59498 0
M  V30 8314 H 799.326 1.17686 1.76816 0
M  V30 8315 H 801.589 0.472072 0.822102 0
M  V30 8316 H 801.295 1.21341 3.30105 0
M  V30 8317 H 801.169 -0.480554 3.74126 0
M  V30 8318 H 803.556 -0.857261 2.82374 0
M  V30 8319 H 803.637 0.860899 2.40878 0
M  V30 8320 H 803.281 1.44871 4.86801 0
M  V30 8321 H 803.211 -0.288157 5.25811 0
M  V30 8322 H 805.702 0.197372 3.77384 0
M  V30 8323 H 806.015 1.02673 7.65949 0
M  V30 8324 H 804.36 0.916477 6.88931 0
M  V30 8325 H 807.551 0.328581 4.66945 0
M  V30 8326 H 807.724 0.706548 6.44137 0
M  V30 8327 N 801.13 -1.57531 -0.0467866 0
M  V30 8328 C 802.04 -2.08768 -1.07018 0
M  V30 8329 C 803.056 -1.02245 -1.40791 0
M  V30 8330 O 804.232 -1.33873 -1.50466 0
M  V30 8331 C 801.297 -2.54221 -2.35738 0
M  V30 8332 C 800.358 -3.75152 -2.08709 0
M  V30 8333 C 799.591 -4.18428 -3.31291 0
M  V30 8334 O 799.814 -3.61365 -4.4133 0
M  V30 8335 O 798.748 -5.11018 -3.18032 0
M  V30 8336 H 802.574 -2.96334 -0.664812 0
M  V30 8337 H 800.159 -1.47074 -0.262605 0
M  V30 8338 H 802.041 -2.83866 -3.11445 0
M  V30 8339 H 800.716 -1.69774 -2.75605 0
M  V30 8340 H 799.623 -3.50553 -1.30627 0
M  V30 8341 H 800.956 -4.60528 -1.73708 0
M  V30 8342 N 802.608 0.318715 -1.54344 0
M  V30 8343 C 803.538 1.39751 -1.87061 0
M  V30 8344 C 804.519 1.53741 -0.727848 0
M  V30 8345 O 805.704 1.67541 -0.982016 0
M  V30 8346 C 802.834 2.76446 -2.10226 0
M  V30 8347 C 801.788 2.77239 -3.26071 0
M  V30 8348 C 801.114 4.17056 -3.34617 0
M  V30 8349 C 802.414 2.40555 -4.63606 0
M  V30 8350 H 804.108 1.12619 -2.77412 0
M  V30 8351 H 801.654 0.540318 -1.33479 0
M  V30 8352 H 803.607 3.51985 -2.31699 0
M  V30 8353 H 802.331 3.05066 -1.16629 0
M  V30 8354 H 800.99 2.04155 -3.04493 0
M  V30 8355 H 800.638 4.42824 -2.3857 0
M  V30 8356 H 800.338 4.18492 -4.12478 0
M  V30 8357 H 801.862 4.94401 -3.5833 0
M  V30 8358 H 803.276 3.05808 -4.84927 0
M  V30 8359 H 801.673 2.53234 -5.44052 0
M  V30 8360 H 802.743 1.35698 -4.65526 0
M  V30 8361 N 804.086 1.46499 0.581025 0
M  V30 8362 C 805.334 1.51596 1.33653 0
M  V30 8363 C 805.655 0.169859 1.94259 0
M  V30 8364 O 804.925 -0.803776 1.78651 0
M  V30 8365 H 803.505 0.558346 0.496244 0
M  V30 8366 H 806.167 1.8264 0.680338 0
M  V30 8367 H 805.263 2.26956 2.14237 0
M  V30 8368 N 805.565 -0.825799 1.34232 0
M  V30 8369 C 806.475 -1.9684 1.27638 0
M  V30 8370 C 807.491 -1.73018 0.184569 0
M  V30 8371 O 808.667 -1.97172 0.410525 0
M  V30 8372 C 805.732 -3.31084 1.02879 0
M  V30 8373 C 804.793 -3.67933 2.21188 0
M  V30 8374 C 804.026 -4.95772 1.976 0
M  V30 8375 O 804.249 -5.62721 0.93281 0
M  V30 8376 O 803.183 -5.30431 2.84477 0
M  V30 8377 H 807.009 -2.05346 2.23756 0
M  V30 8378 H 804.594 -0.960772 1.1441 0
M  V30 8379 H 806.476 -4.11492 0.908406 0
M  V30 8380 H 805.151 -3.23552 0.0979821 0
M  V30 8381 H 804.058 -2.87981 2.38784 0
M  V30 8382 H 805.391 -3.80147 3.12648 0
M  V30 8383 N 807.043 -1.17915 -1.04565 0
M  V30 8384 C 808.291 -0.969505 -1.77327 0
M  V30 8385 C 808.612 0.502569 -1.88412 0
M  V30 8386 O 807.882 1.36467 -1.40547 0
M  V30 8387 H 806.462 -0.355723 -0.656864 0
M  V30 8388 H 809.124 -1.48506 -1.26223 0
M  V30 8389 H 808.22 -1.40324 -2.78775 0
M  V30 8390 N 808.521 1.23394 -0.980386 0
M  V30 8391 C 809.484 2.23092 -0.525619 0
M  V30 8392 C 810.484 1.56129 0.384745 0
M  V30 8393 O 811.674 1.73284 0.178439 0
M  V30 8394 C 808.806 3.40074 0.23712 0
M  V30 8395 H 809.999 2.64839 -1.40714 0
M  V30 8396 H 807.552 1.36227 -0.766275 0
M  V30 8397 H 808.287 3.03783 1.13518 0
M  V30 8398 H 808.072 3.89883 -0.416356 0
M  V30 8399 H 809.562 4.14043 0.543892 0
M  V30 8400 N 809.999 0.752036 1.385 0
M  V30 8401 C 811.246 0.307503 2.00152 0
M  V30 8402 C 811.574 -1.11033 1.59693 0
M  V30 8403 O 810.829 -1.77455 0.825125 0
M  V30 8404 C 811.128 0.376155 3.55415 0
M  V30 8405 C 810.794 1.74942 4.15579 0
M  V30 8406 C 809.456 2.12525 4.31725 0
M  V30 8407 C 811.808 2.65031 4.48785 0
M  V30 8408 C 809.136 3.39671 4.78373 0
M  V30 8409 C 811.488 3.91567 4.96848 0
M  V30 8410 C 810.152 4.2922 5.11201 0
M  V30 8411 H 809.422 0.112523 0.732407 0
M  V30 8412 H 812.069 0.962213 1.65571 0
M  V30 8413 H 810.374 -0.362121 3.90123 0
M  V30 8414 H 812.071 0.0138065 4.00998 0
M  V30 8415 H 808.661 1.44726 4.03426 0
M  V30 8416 H 812.845 2.3726 4.35914 0
M  V30 8417 H 808.101 3.68765 4.8767 0
M  V30 8418 H 812.275 4.61517 5.21512 0
M  V30 8419 H 809.902 5.27805 5.47107 0
M  V30 8420 N 811.477 -1.49425 0.500989 0
M  V30 8421 C 812.725 -2.02053 -0.0434495 0
M  V30 8422 C 813.046 -1.38285 -1.37486 0
M  V30 8423 O 812.316 -0.538171 -1.88363 0
M  V30 8424 H 810.896 -0.746757 -0.0190469 0
M  V30 8425 H 813.558 -1.83449 0.658227 0
M  V30 8426 H 812.654 -3.11619 -0.173129 0
M  V30 8427 N 812.955 -0.234822 -1.55841 0
M  V30 8428 C 813.902 0.6698 -2.20867 0
M  V30 8429 C 814.872 1.18042 -1.16856 0
M  V30 8430 O 816.057 1.23709 -1.45261 0
M  V30 8431 C 813.197 1.86646 -2.90271 0
M  V30 8432 C 812.31 1.39351 -4.08908 0
M  V30 8433 C 811.445 2.54878 -4.66059 0
M  V30 8434 C 810.484 2.04384 -5.76969 0
M  V30 8435 N 809.621 3.13233 -6.28355 0
M  V30 8436 H 814.461 0.10858 -2.97802 0
M  V30 8437 H 811.998 0.041836 -1.4704 0
M  V30 8438 H 813.956 2.56926 -3.28702 0
M  V30 8439 H 812.586 2.40035 -2.15831 0
M  V30 8440 H 811.638 0.585173 -3.75872 0
M  V30 8441 H 812.95 0.983356 -4.89011 0
M  V30 8442 H 812.104 3.33219 -5.07001 0
M  V30 8443 H 810.843 2.99188 -3.85146 0
M  V30 8444 H 809.848 1.24509 -5.35516 0
M  V30 8445 H 811.073 1.61057 -6.59725 0
M  V30 8446 H 809.019 3.57 -5.50352 0
M  V30 8447 H 808.936 2.76511 -7.03618 0
M  V30 8448 H 810.204 3.91669 -6.73955 0
M  V30 8449 N 814.433 1.57553 0.0384317 0
M  V30 8450 C 815.679 1.89121 0.732199 0
M  V30 8451 C 816.012 0.831404 1.75503 0
M  V30 8452 O 815.287 -0.154642 1.93884 0
M  V30 8453 C 815.57 3.31338 1.41021 0
M  V30 8454 C 815.423 4.48004 0.401532 0
M  V30 8455 C 816.742 3.72318 2.34665 0
M  V30 8456 H 813.861 0.687819 0.264715 0
M  V30 8457 H 816.503 1.89999 -0.00496279 0
M  V30 8458 H 814.653 3.3072 2.03854 0
M  V30 8459 H 816.325 4.60755 -0.224159 0
M  V30 8460 H 814.568 4.32895 -0.280092 0
M  V30 8461 H 815.239 5.44377 0.91423 0
M  V30 8462 H 817.715 3.74243 1.81883 0
M  V30 8463 H 816.591 4.72652 2.7909 0
M  V30 8464 H 816.852 3.04062 3.20934 0
M  V30 8465 N 815.911 -0.310526 1.54511 0
M  V30 8466 C 817.158 -1.04691 1.73338 0
M  V30 8467 C 817.486 -1.87584 0.514038 0
M  V30 8468 O 816.741 -1.89096 -0.504119 0
M  V30 8469 C 817.04 -1.98942 2.96912 0
M  V30 8470 C 816.706 -1.321 4.31115 0
M  V30 8471 C 815.368 -1.13603 4.67598 0
M  V30 8472 C 817.72 -0.842362 5.14348 0
M  V30 8473 C 815.048 -0.459102 5.84901 0
M  V30 8474 C 817.4 -0.179202 6.32346 0
M  V30 8475 C 816.064 0.0178111 6.67498 0
M  V30 8476 H 815.334 -0.38309 0.634289 0
M  V30 8477 H 817.981 -0.322723 1.88761 0
M  V30 8478 H 816.286 -2.77856 2.76231 0
M  V30 8479 H 817.983 -2.55972 3.08674 0
M  V30 8480 H 814.573 -1.47502 4.02419 0
M  V30 8481 H 818.757 -0.973013 4.86668 0
M  V30 8482 H 814.013 -0.295385 6.10686 0
M  V30 8483 H 818.187 0.199619 6.96114 0
M  V30 8484 H 815.814 0.544356 7.58249 0
M  V30 8485 N 817.389 -1.46805 -0.573248 0
M  V30 8486 C 818.319 -1.60951 -1.69165 0
M  V30 8487 C 819.3 -0.45948 -1.63777 0
M  V30 8488 O 820.485 -0.68688 -1.81647 0
M  V30 8489 C 817.615 -1.60844 -3.07809 0
M  V30 8490 C 816.569 -2.74913 -3.28035 0
M  V30 8491 C 815.895 -2.59871 -4.67302 0
M  V30 8492 C 817.195 -4.16654 -3.14955 0
M  V30 8493 H 818.889 -2.54574 -1.57582 0
M  V30 8494 H 816.435 -1.22516 -0.756686 0
M  V30 8495 H 818.388 -1.69334 -3.85881 0
M  V30 8496 H 817.112 -0.637714 -3.20314 0
M  V30 8497 H 815.771 -2.65908 -2.52366 0
M  V30 8498 H 815.419 -1.60861 -4.76585 0
M  V30 8499 H 815.119 -3.36386 -4.81786 0
M  V30 8500 H 816.643 -2.70265 -5.4753 0
M  V30 8501 H 818.057 -4.26721 -3.82861 0
M  V30 8502 H 816.454 -4.93831 -3.40956 0
M  V30 8503 H 817.524 -4.36146 -2.11908 0
M  V30 8504 N 818.867 0.818669 -1.34668 0
M  V30 8505 C 819.83 1.9114 -1.26483 0
M  V30 8506 C 820.83 1.598 -0.179044 0
M  V30 8507 O 822.02 1.6876 -0.431952 0
M  V30 8508 C 819.152 3.27285 -0.95381 0
M  V30 8509 H 820.345 1.9982 -2.23634 0
M  V30 8510 H 817.898 1.01314 -1.19018 0
M  V30 8511 H 818.633 3.24297 0.0143428 0
M  V30 8512 H 818.418 3.51416 -1.73924 0
M  V30 8513 H 819.908 4.07299 -0.921827 0
M  V30 8514 N 820.346 1.18468 1.03938 0
M  V30 8515 C 821.256 0.927889 2.1547 0
M  V30 8516 C 822.272 -0.108447 1.73662 0
M  V30 8517 O 823.448 0.0737636 2.01265 0
M  V30 8518 C 820.513 0.458494 3.43655 0
M  V30 8519 C 819.574 1.56295 3.99838 0
M  V30 8520 C 818.807 1.11586 5.21904 0
M  V30 8521 O 819.03 -0.0249057 5.70395 0
M  V30 8522 O 817.964 1.91412 5.70653 0
M  V30 8523 H 821.79 1.86116 2.39989 0
M  V30 8524 H 819.375 0.966607 1.13917 0
M  V30 8525 H 821.257 0.204861 4.20902 0
M  V30 8526 H 819.932 -0.446464 3.20606 0
M  V30 8527 H 818.839 1.87061 3.23974 0
M  V30 8528 H 820.172 2.44408 4.2723 0
M  V30 8529 N 821.824 -1.22873 0.986916 0
M  V30 8530 C 823.064 -1.93192 0.667543 0
M  V30 8531 C 823.428 -1.7521 -0.785196 0
M  V30 8532 O 824.629 -2.39737 -1.2157 0
M  V30 8533 C 822.9 -3.4147 1.05513 0
M  V30 8534 S 824.459 -4.30425 0.853218 0
M  V30 8535 H 821.277 -0.667726 0.244261 0
M  V30 8536 H 823.879 -1.48808 1.26793 0
M  V30 8537 H 822.583 -3.52069 2.10892 0
M  V30 8538 H 822.114 -3.9086 0.446293 0
M  V30 8539 H 824.129 -4.95521 -0.259444 0
M  V30 8540 N 823.302 -0.75937 -1.38099 0
M  V30 8541 C 824.532 -0.328634 -2.0397 0
M  V30 8542 C 824.94 1.04989 -1.57398 0
M  V30 8543 O 824.283 1.67918 -0.744932 0
M  V30 8544 C 824.345 -0.279216 -3.58414 0
M  V30 8545 C 824.009 -1.60025 -4.28067 0
M  V30 8546 C 825.006 -2.55048 -4.53041 0
M  V30 8547 C 822.691 -1.87128 -4.66142 0
M  V30 8548 C 824.685 -3.7539 -5.15132 0
M  V30 8549 C 822.372 -3.07742 -5.27956 0
M  V30 8550 C 823.37 -4.01694 -5.52387 0
M  V30 8551 O 823.058 -5.20186 -6.12912 0
M  V30 8552 H 822.79 -0.137443 -0.66188 0
M  V30 8553 H 825.344 -1.03082 -1.77661 0
M  V30 8554 H 823.574 0.479254 -3.83719 0
M  V30 8555 H 825.263 0.122781 -4.05714 0
M  V30 8556 H 826.029 -2.35387 -4.24049 0
M  V30 8557 H 821.908 -1.14833 -4.46469 0
M  V30 8558 H 825.452 -4.48737 -5.34117 0
M  V30 8559 H 821.349 -3.27294 -5.56371 0
M  V30 8560 H 822.117 -5.20846 -6.31397 0
M  V30 8561 N 824.78 1.49157 -0.508906 0
M  V30 8562 C 825.728 2.30922 0.278906 0
M  V30 8563 C 826.722 1.39889 0.955382 0
M  V30 8564 O 827.928 1.56901 0.882169 0
M  V30 8565 H 824.303 0.744087 0.108805 0
M  V30 8566 H 826.274 2.95277 -0.430583 0
M  V30 8567 C 825.023 3.21432 1.32576 0
M  V30 8568 H 824.346 3.91413 0.814634 0
M  V30 8569 H 825.786 3.81568 1.84882 0
M  V30 8570 C 824.245 2.41583 2.34817 0
M  V30 8571 O 824.775 2.1256 3.40854 0
M  V30 8572 N 822.981 2.03462 2.07489 0
M  V30 8573 H 822.528 2.27265 1.21278 0
M  V30 8574 H 822.486 1.50345 2.76123 0
M  V30 8575 N 826.258 0.243083 1.55714 0
M  V30 8576 C 827.188 -0.652336 2.24203 0
M  V30 8577 C 828.169 -1.1843 1.221 0
M  V30 8578 O 829.354 -1.22435 1.50743 0
M  V30 8579 C 826.484 -1.85111 2.93856 0
M  V30 8580 C 825.438 -1.45208 4.02615 0
M  V30 8581 C 824.764 -2.73137 4.59674 0
M  V30 8582 C 826.064 -0.625988 5.18535 0
M  V30 8583 H 827.758 -0.0812504 2.9929 0
M  V30 8584 H 825.304 -0.0376388 1.43951 0
M  V30 8585 H 827.257 -2.48314 3.40468 0
M  V30 8586 H 825.981 -2.44751 2.16251 0
M  V30 8587 H 824.64 -0.843406 3.56766 0
M  V30 8588 H 824.288 -3.30967 3.78774 0
M  V30 8589 H 823.988 -2.47163 5.33089 0
M  V30 8590 H 825.512 -3.37245 5.09017 0
M  V30 8591 H 826.926 -1.16223 5.61396 0
M  V30 8592 H 825.323 -0.462465 5.98315 0
M  V30 8593 H 826.393 0.362652 4.83542 0
M  V30 8594 N 827.736 -1.57571 -0.0300757 0
M  V30 8595 C 828.976 -1.91074 -0.725946 0
M  V30 8596 C 829.34 -0.841545 -1.72575 0
M  V30 8597 O 830.541 -1.06088 -2.46979 0
M  V30 8598 C 828.812 -3.2973 -1.37888 0
M  V30 8599 S 830.371 -3.85065 -2.10405 0
M  V30 8600 H 827.189 -0.669084 -0.240515 0
M  V30 8601 H 829.791 -1.9549 0.019384 0
M  V30 8602 H 828.495 -4.05411 -0.637974 0
M  V30 8603 H 828.026 -3.28614 -2.16278 0
M  V30 8604 H 830.041 -3.63711 -3.37533 0
M  V30 8605 N 829.214 0.302327 -1.54673 0
M  V30 8606 C 830.625 0.875409 -1.64904 0
M  V30 8607 C 830.976 1.88132 -0.55684 0
M  V30 8608 O 830.101 2.14215 0.306754 0
M  V30 8609 C 830.696 1.59457 -2.9893 0
M  V30 8610 C 829.255 2.11607 -3.11287 0
M  V30 8611 C 828.402 0.948324 -2.6058 0
M  V30 8612 H 831.353 0.079362 -1.58501 0
M  V30 8613 H 831.374 2.46005 -2.90279 0
M  V30 8614 H 830.886 0.8622 -3.78402 0
M  V30 8615 H 828.987 2.87895 -2.36532 0
M  V30 8616 H 829.1 2.35151 -4.17422 0
M  V30 8617 H 827.464 1.33352 -2.17001 0
M  V30 8618 H 828.247 0.229936 -3.42529 0
M  V30 8619 N 830.692 1.47107 0.565454 0
M  V30 8620 C 831.602 1.61591 1.70075 0
M  V30 8621 C 832.618 0.498931 1.66693 0
M  V30 8622 O 833.794 0.765372 1.8629 0
M  V30 8623 C 830.859 1.61887 3.06583 0
M  V30 8624 C 829.92 2.84949 3.21096 0
M  V30 8625 C 829.153 2.85221 4.51093 0
M  V30 8626 O 829.376 1.94959 5.36048 0
M  V30 8627 O 828.31 3.76982 4.69221 0
M  V30 8628 H 832.136 2.57638 1.60799 0
M  V30 8629 H 829.721 1.30097 0.73451 0
M  V30 8630 H 831.603 1.64809 3.87835 0
M  V30 8631 H 830.278 0.69005 3.16259 0
M  V30 8632 H 829.185 2.87575 2.39273 0
M  V30 8633 H 830.518 3.77098 3.1632 0
M  V30 8634 N 832.17 -0.811516 1.35101 0
M  V30 8635 C 833.102 -1.93102 1.23468 0
M  V30 8636 C 834.115 -1.62021 0.159095 0
M  V30 8637 O 835.304 -1.73682 0.411945 0
M  V30 8638 C 832.404 -3.27345 0.877404 0
M  V30 8639 C 831.577 -3.86368 2.05033 0
M  V30 8640 C 830.636 -4.99009 1.66963 0
M  V30 8641 O 829.662 -5.16698 2.38772 0
M  V30 8642 N 830.864 -5.7749 0.590394 0
M  V30 8643 H 833.629 -2.0361 2.19916 0
M  V30 8644 H 831.19 -0.988687 1.28205 0
M  V30 8645 H 833.182 -4.00163 0.604298 0
M  V30 8646 H 831.752 -3.126 0.00275267 0
M  V30 8647 H 830.972 -3.05804 2.48752 0
M  V30 8648 H 832.26 -4.22533 2.83449 0
M  V30 8649 H 831.658 -5.657 -0.00633259 0
M  V30 8650 H 830.215 -6.50708 0.377055 0
M  V30 8651 N 833.648 -1.19017 -1.03309 0
M  V30 8652 C 834.925 -0.899659 -1.73682 0
M  V30 8653 C 835.305 0.595677 -2.02521 0
M  V30 8654 O 834.653 1.55263 -1.67648 0
M  V30 8655 C 834.863 -1.75508 -3.01659 0
M  V30 8656 C 836.211 -1.98679 -3.75249 0
M  V30 8657 O 837.235 -1.72624 -3.11576 0
M  V30 8658 O 836.094 -2.42587 -4.89708 0
M  V30 8659 H 833.188 -0.334903 -0.756154 0
M  V30 8660 H 835.734 -1.29809 -1.09305 0
M  V30 8661 H 834.506 -2.7684 -2.76542 0
M  V30 8662 H 834.129 -1.35565 -3.73775 0
M  V30 8663 N 835.127 1.22348 -0.993418 0
M  V30 8664 C 836.074 2.24294 -0.544118 0
M  V30 8665 C 837.044 1.60602 0.42381 0
M  V30 8666 O 838.229 1.87952 0.328453 0
M  V30 8667 C 835.369 3.44837 0.134578 0
M  V30 8668 C 834.482 4.23043 -0.875151 0
M  V30 8669 C 833.617 5.30928 -0.169919 0
M  V30 8670 C 832.656 6.00853 -1.16798 0
M  V30 8671 N 831.793 7.00381 -0.491021 0
M  V30 8672 H 836.633 2.6209 -1.4182 0
M  V30 8673 H 834.17 1.2881 -0.710384 0
M  V30 8674 H 836.128 4.13625 0.544998 0
M  V30 8675 H 834.758 3.07804 0.972446 0
M  V30 8676 H 833.81 3.53546 -1.40389 0
M  V30 8677 H 835.122 4.71237 -1.63516 0
M  V30 8678 H 834.276 6.05972 0.297205 0
M  V30 8679 H 833.015 4.8371 0.622586 0
M  V30 8680 H 832.02 5.24591 -1.64573 0
M  V30 8681 H 833.245 6.50159 -1.96137 0
M  V30 8682 H 831.191 6.55393 0.282037 0
M  V30 8683 H 831.108 7.46584 -1.18947 0
M  V30 8684 H 832.376 7.79486 -0.0467169 0
M  V30 8685 N 836.605 0.766683 1.37694 0
M  V30 8686 C 837.854 0.325425 1.99057 0
M  V30 8687 C 838.167 -1.10275 1.61551 0
M  V30 8688 O 839.373 -1.64513 2.1598 0
M  V30 8689 C 837.829 0.530886 3.55963 0
M  V30 8690 C 837.437 1.96899 4.02411 0
M  V30 8691 C 839.181 0.152997 4.24224 0
M  V30 8692 C 837.088 2.12232 5.52007 0
M  V30 8693 H 836.018 0.117929 0.744721 0
M  V30 8694 H 838.669 0.945091 1.5729 0
M  V30 8695 H 837.051 -0.158162 3.95684 0
M  V30 8696 H 838.225 2.69258 3.73948 0
M  V30 8697 H 836.54 2.303 3.46916 0
M  V30 8698 H 839.137 0.24614 5.34133 0
M  V30 8699 H 839.48 -0.896096 4.06541 0
M  V30 8700 H 840.013 0.794398 3.89787 0
M  V30 8701 H 836.752 3.15442 5.7461 0
M  V30 8702 H 836.272 1.4435 5.82171 0
M  V30 8703 H 837.951 1.9185 6.17902 0
M  V30 8704 N 838.083 -1.48885 0.516809 0
M  V30 8705 C 839.013 -2.32241 -0.242157 0
M  V30 8706 C 839.994 -1.41258 -0.947633 0
M  V30 8707 O 841.179 -1.70156 -0.935973 0
M  V30 8708 C 838.309 -3.22151 -1.29754 0
M  V30 8709 C 837.263 -4.22053 -0.710995 0
M  V30 8710 C 836.589 -5.01007 -1.86806 0
M  V30 8711 C 837.889 -5.21388 0.30853 0
M  V30 8712 H 839.583 -2.95943 0.453651 0
M  V30 8713 H 837.129 -1.42316 0.219612 0
M  V30 8714 H 839.082 -3.79284 -1.83634 0
M  V30 8715 H 837.806 -2.56423 -2.02274 0
M  V30 8716 H 836.465 -3.66087 -0.193819 0
M  V30 8717 H 836.113 -4.31713 -2.58133 0
M  V30 8718 H 835.813 -5.68615 -1.48159 0
M  V30 8719 H 837.337 -5.60989 -2.4109 0
M  V30 8720 H 838.751 -5.73122 -0.142703 0
M  V30 8721 H 837.148 -5.96975 0.611673 0
M  V30 8722 H 838.218 -4.69329 1.21894 0
M  V30 8723 N 839.561 -0.251338 -1.55583 0
M  V30 8724 C 840.807 0.37272 -1.99346 0
M  V30 8725 C 841.14 1.57266 -1.13934 0
M  V30 8726 O 840.415 1.9343 -0.20377 0
M  V30 8727 C 840.698 0.778245 -3.5159 0
M  V30 8728 C 840.551 -0.427394 -4.47765 0
M  V30 8729 C 841.87 1.62358 -4.09057 0
M  V30 8730 H 838.989 0.134002 -0.724715 0
M  V30 8731 H 841.631 -0.353536 -1.86682 0
M  V30 8732 H 839.781 1.39704 -3.62512 0
M  V30 8733 H 841.453 -1.06586 -4.48818 0
M  V30 8734 H 839.696 -1.06972 -4.20404 0
M  V30 8735 H 840.367 -0.10025 -5.51909 0
M  V30 8736 H 842.843 1.1012 -4.01264 0
M  V30 8737 H 841.719 1.87617 -5.1584 0
M  V30 8738 H 841.98 2.59688 -3.57791 0
M  V30 8739 N 841.039 1.57585 0.0217189 0
M  V30 8740 C 842.002 2.06004 1.00474 0
M  V30 8741 C 843.002 0.965461 1.2859 0
M  V30 8742 O 844.192 1.22884 1.23471 0
M  V30 8743 C 841.324 2.48319 2.33561 0
M  V30 8744 H 842.517 2.94112 0.586346 0
M  V30 8745 H 840.07 1.53973 0.268716 0
M  V30 8746 H 840.805 1.63389 2.80133 0
M  V30 8747 H 840.59 3.28239 2.1448 0
M  V30 8748 H 842.08 2.86181 3.04122 0
M  V30 8749 N 842.517 -0.29412 1.54831 0
M  V30 8750 C 843.763 -1.02999 1.74697 0
M  V30 8751 C 844.096 -1.86687 0.534949 0
M  V30 8752 O 843.371 -1.88789 -0.467863 0
M  V30 8753 C 843.654 -1.93024 3.03996 0
M  V30 8754 C 843.507 -1.1247 4.35512 0
M  V30 8755 C 844.826 -2.92085 3.29203 0
M  V30 8756 H 841.945 -0.373039 0.635618 0
M  V30 8757 H 844.587 -0.304065 1.87551 0
M  V30 8758 H 842.737 -2.5492 2.93169 0
M  V30 8759 H 844.409 -0.528067 4.58268 0
M  V30 8760 H 842.652 -0.427574 4.31688 0
M  V30 8761 H 843.323 -1.78728 5.22265 0
M  V30 8762 H 845.799 -2.40319 3.39685 0
M  V30 8763 H 844.675 -3.52234 4.20978 0
M  V30 8764 H 844.936 -3.66107 2.47827 0
M  V30 8765 N 843.995 -1.47404 -0.557645 0
M  V30 8766 C 844.942 -1.59859 -1.66475 0
M  V30 8767 C 845.912 -0.441644 -1.60121 0
M  V30 8768 O 847.097 -0.661641 -1.78961 0
M  V30 8769 C 844.237 -1.61843 -3.04797 0
M  V30 8770 C 843.35 -2.8845 -3.2159 0
M  V30 8771 C 842.485 -2.81773 -4.50308 0
M  V30 8772 C 841.524 -4.03208 -4.60532 0
M  V30 8773 N 840.661 -3.94769 -5.80604 0
M  V30 8774 H 845.501 -2.54415 -1.55168 0
M  V30 8775 H 843.038 -1.26194 -0.755876 0
M  V30 8776 H 844.996 -1.60976 -3.84893 0
M  V30 8777 H 843.626 -0.707997 -3.1494 0
M  V30 8778 H 842.678 -2.99186 -2.34929 0
M  V30 8779 H 843.99 -3.78379 -3.25009 0
M  V30 8780 H 843.144 -2.79153 -5.38663 0
M  V30 8781 H 841.883 -1.89527 -4.49367 0
M  V30 8782 H 840.888 -4.06133 -3.70589 0
M  V30 8783 H 842.113 -4.9658 -4.63233 0
M  V30 8784 H 840.059 -3.05326 -5.80613 0
M  V30 8785 H 839.976 -4.78375 -5.854 0
M  V30 8786 H 841.244 -3.96165 -6.71322 0
M  V30 8787 N 845.473 0.80434 -1.35529 0
M  V30 8788 C 846.701 1.59283 -1.32048 0
M  V30 8789 C 847.116 1.88527 0.101556 0
M  V30 8790 O 846.473 1.48975 1.05417 0
M  V30 8791 C 846.524 2.92276 -2.12737 0
M  V30 8792 O 846.245 2.64299 -3.49396 0
M  V30 8793 C 847.746 3.86631 -2.16867 0
M  V30 8794 H 844.966 0.494523 -0.453528 0
M  V30 8795 H 847.51 0.999415 -1.78415 0
M  V30 8796 H 845.665 3.48125 -1.69964 0
M  V30 8797 H 846.079 3.4923 -3.91329 0
M  V30 8798 H 847.553 4.77053 -2.77712 0
M  V30 8799 H 848.03 4.23384 -1.16803 0
M  V30 8800 H 848.636 3.36717 -2.59811 0
M  V30 8801 N 846.951 1.19563 1.02676 0
M  V30 8802 C 847.881 0.959024 2.12897 0
M  V30 8803 C 848.862 -0.108382 1.69754 0
M  V30 8804 O 850.047 0.0470698 1.94143 0
M  V30 8805 C 847.177 0.499211 3.43693 0
M  V30 8806 C 846.131 1.5087 4.00528 0
M  V30 8807 C 845.457 0.905884 5.2697 0
M  V30 8808 C 846.757 2.88954 4.3509 0
M  V30 8809 H 848.451 1.88084 2.32948 0
M  V30 8810 H 845.997 0.905731 1.11949 0
M  V30 8811 H 847.95 0.320965 4.20176 0
M  V30 8812 H 846.674 -0.458205 3.2337 0
M  V30 8813 H 845.333 1.67413 3.26142 0
M  V30 8814 H 844.981 -0.0591506 5.02965 0
M  V30 8815 H 844.681 1.58 5.65959 0
M  V30 8816 H 846.205 0.73848 6.06118 0
M  V30 8817 H 847.619 2.75981 5.02501 0
M  V30 8818 H 846.016 3.53177 4.85166 0
M  V30 8819 H 847.086 3.41447 3.44299 0
M  V30 8820 N 848.429 -1.21819 0.999893 0
M  V30 8821 C 849.376 -2.24003 0.556005 0
M  V30 8822 C 850.346 -1.60825 -0.415287 0
M  V30 8823 O 851.531 -1.88123 -0.318481 0
M  V30 8824 C 848.671 -3.44904 -0.116289 0
M  V30 8825 C 847.784 -4.22573 0.897574 0
M  V30 8826 C 846.919 -5.30831 0.198073 0
M  V30 8827 C 845.958 -6.00225 1.19983 0
M  V30 8828 N 845.095 -7.00111 0.528157 0
M  V30 8829 H 849.935 -2.61334 1.43208 0
M  V30 8830 H 847.472 -1.28431 0.717205 0
M  V30 8831 H 849.43 -4.13908 -0.523055 0
M  V30 8832 H 848.06 -3.08315 -0.956108 0
M  V30 8833 H 847.112 -3.52797 1.42262 0
M  V30 8834 H 848.424 -4.70363 1.66013 0
M  V30 8835 H 847.578 -6.06121 -0.265065 0
M  V30 8836 H 846.317 -4.84033 -0.596924 0
M  V30 8837 H 845.322 -5.23711 1.67353 0
M  V30 8838 H 846.547 -6.4911 1.99582 0
M  V30 8839 H 844.493 -6.55534 -0.247276 0
M  V30 8840 H 844.41 -7.45943 1.22904 0
M  V30 8841 H 845.678 -7.7945 0.0880543 0
M  V30 8842 N 849.908 -0.773975 -1.37286 0
M  V30 8843 C 851.185 -0.263942 -1.93811 0
M  V30 8844 C 851.565 1.24138 -1.70743 0
M  V30 8845 O 850.913 2.02557 -1.05749 0
M  V30 8846 C 851.123 -0.639753 -3.43086 0
M  V30 8847 C 852.471 -0.610796 -4.20184 0
M  V30 8848 O 853.495 -0.579278 -3.51458 0
M  V30 8849 O 852.354 -0.639862 -5.42741 0
M  V30 8850 H 849.448 -0.0614331 -0.824715 0
M  V30 8851 H 851.994 -0.855477 -1.46559 0
M  V30 8852 H 850.766 -1.67856 -3.53469 0
M  V30 8853 H 850.389 -0.0212827 -3.97594 0
M  V30 8854 N 851.386 1.48609 -0.524698 0
M  V30 8855 C 852.349 2.28041 0.230166 0
M  V30 8856 C 853.349 1.35065 0.872584 0
M  V30 8857 O 854.539 1.58007 0.73345 0
M  V30 8858 C 851.671 3.13778 1.33252 0
M  V30 8859 H 852.864 2.96239 -0.467161 0
M  V30 8860 H 850.417 1.53763 -0.280452 0
M  V30 8861 H 851.152 2.502 2.06327 0
M  V30 8862 H 850.937 3.82165 0.877058 0
M  V30 8863 H 852.427 3.7371 1.86362 0
M  V30 8864 N 852.864 0.259585 1.55447 0
M  V30 8865 C 854.089 -0.368317 2.04103 0
M  V30 8866 C 854.514 -1.49827 1.13725 0
M  V30 8867 O 853.872 -1.80814 0.132705 0
M  V30 8868 C 853.92 -0.841506 3.50644 0
M  V30 8869 O 853.024 -1.95008 3.63381 0
M  V30 8870 H 852.365 -0.0785227 0.659341 0
M  V30 8871 H 854.895 0.389349 2.00861 0
M  V30 8872 H 854.905 -1.14138 3.9171 0
M  V30 8873 H 853.58 -0.0147001 4.15897 0
M  V30 8874 H 852.157 -1.65393 3.34215 0
M  V30 8875 N 854.342 -1.57594 -0.0133615 0
M  V30 8876 C 855.619 -1.81173 -0.737273 0
M  V30 8877 C 855.999 -0.861395 -1.92726 0
M  V30 8878 O 855.347 0.0929324 -2.28311 0
M  V30 8879 C 855.557 -3.29314 -1.15557 0
M  V30 8880 C 856.905 -3.94707 -1.56498 0
M  V30 8881 O 857.929 -3.33557 -1.24973 0
M  V30 8882 O 856.788 -5.02402 -2.15069 0
M  V30 8883 H 853.882 -0.745575 -0.357837 0
M  V30 8884 H 856.428 -1.69696 0.0110674 0
M  V30 8885 H 855.2 -3.90096 -0.30677 0
M  V30 8886 H 854.823 -3.45739 -1.96343 0
M  V30 8887 N 855.82 0.285905 -1.54985 0
M  V30 8888 C 856.768 1.37302 -1.87752 0
M  V30 8889 C 857.762 1.51763 -0.752616 0
M  V30 8890 O 858.968 1.53701 -0.936805 0
M  V30 8891 H 855.343 0.458935 -0.59572 0
M  V30 8892 H 857.314 1.0691 -2.78591 0
M  V30 8893 C 856.063 2.72885 -2.15474 0
M  V30 8894 H 855.386 2.62545 -3.01513 0
M  V30 8895 H 856.826 3.47925 -2.42331 0
M  V30 8896 C 855.285 3.22989 -0.958124 0
M  V30 8897 O 855.815 4.01268 -0.186219 0
M  V30 8898 N 854.021 2.80503 -0.759354 0
M  V30 8899 H 853.568 2.16961 -1.38874 0
M  V30 8900 H 853.526 3.14375 0.0396937 0
M  V30 8901 N 857.298 1.47698 0.54982 0
M  V30 8902 C 858.261 1.60282 1.63837 0
M  V30 8903 C 859.261 0.477394 1.5355 0
M  V30 8904 O 860.451 0.742665 1.57576 0
M  V30 8905 C 857.583 1.55431 3.03404 0
M  V30 8906 H 858.776 2.57325 1.54026 0
M  V30 8907 H 856.329 1.35999 0.770329 0
M  V30 8908 H 857.064 0.597912 3.1874 0
M  V30 8909 H 856.849 2.37116 3.12279 0
M  V30 8910 H 858.339 1.6739 3.82584 0
M  V30 8911 N 858.776 -0.797141 1.35954 0
M  V30 8912 C 860.192 -1.09408 1.16198 0
M  V30 8913 C 860.392 -2.01491 -0.0191682 0
M  V30 8914 O 859.448 -2.42977 -0.686902 0
M  V30 8915 C 860.761 -1.71597 2.46931 0
M  V30 8916 C 862.309 -1.83974 2.53224 0
M  V30 8917 C 862.784 -2.49579 3.84024 0
M  V30 8918 N 864.275 -2.57055 3.85327 0
M  V30 8919 C 865.01 -3.08608 4.83268 0
M  V30 8920 N 864.506 -3.60527 5.91601 0
M  V30 8921 N 866.299 -3.07249 4.70696 0
M  V30 8922 H 858.45 -0.185209 2.11591 0
M  V30 8923 H 860.713 -0.144768 0.936881 0
M  V30 8924 H 860.419 -1.11404 3.3359 0
M  V30 8925 H 860.293 -2.71193 2.62172 0
M  V30 8926 H 862.68 -2.43308 1.66988 0
M  V30 8927 H 862.761 -0.83207 2.41889 0
M  V30 8928 H 862.405 -1.90892 4.70662 0
M  V30 8929 H 862.335 -3.50902 3.92651 0
M  V30 8930 H 864.826 -2.20283 3.07057 0
M  V30 8931 H 865.139 -3.98192 6.62317 0
M  V30 8932 H 863.484 -3.587 5.95281 0
M  V30 8933 H 866.675 -2.65972 3.85197 0
M  V30 8934 H 866.848 -3.47119 5.47186 0
M  V30 8935 N 860.254 -1.20106 -1.0204 0
M  V30 8936 C 861.201 -0.946468 -2.10501 0
M  V30 8937 C 862.171 0.121902 -1.65652 0
M  V30 8938 O 863.356 -0.0220244 -1.90787 0
M  V30 8939 C 860.496 -0.500499 -3.41451 0
M  V30 8940 C 859.609 -1.63659 -3.998 0
M  V30 8941 C 858.744 -1.14131 -5.18794 0
M  V30 8942 C 857.783 -2.25074 -5.69217 0
M  V30 8943 N 856.92 -1.76791 -6.79477 0
M  V30 8944 H 861.76 -1.87506 -2.31615 0
M  V30 8945 H 859.297 -0.934693 -1.13587 0
M  V30 8946 H 861.255 -0.223276 -4.16602 0
M  V30 8947 H 859.885 0.391099 -3.20422 0
M  V30 8948 H 858.937 -2.02882 -3.21781 0
M  V30 8949 H 860.249 -2.47213 -4.33229 0
M  V30 8950 H 859.403 -0.819826 -6.01135 0
M  V30 8951 H 858.142 -0.275615 -4.86921 0
M  V30 8952 H 857.147 -2.58043 -4.85483 0
M  V30 8953 H 858.372 -3.12114 -6.03127 0
M  V30 8954 H 856.318 -0.925428 -6.4944 0
M  V30 8955 H 856.235 -2.53928 -7.12079 0
M  V30 8956 H 857.503 -1.47631 -7.65392 0
M  V30 8957 N 861.732 1.21287 -1.00634 0
M  V30 8958 C 863.009 1.86 -0.605257 0
M  V30 8959 C 863.389 1.90139 0.917072 0
M  V30 8960 O 862.737 1.40169 1.80458 0
M  V30 8961 C 862.947 3.26183 -1.24119 0
M  V30 8962 C 864.295 4.02562 -1.35015 0
M  V30 8963 O 865.319 3.35499 -1.19661 0
M  V30 8964 O 864.178 5.22638 -1.59726 0
M  V30 8965 H 861.272 0.800549 -0.207486 0
M  V30 8966 H 863.818 1.28959 -1.10307 0
M  V30 8967 H 862.59 3.17878 -2.28186 0
M  V30 8968 H 862.213 3.90845 -0.729807 0
M  V30 8969 N 863.21 0.781244 1.36873 0
M  V30 8970 C 864.457 0.349889 1.99454 0
M  V30 8971 C 864.785 -1.07621 1.62013 0
M  V30 8972 O 864.04 -1.75665 0.86258 0
M  V30 8973 C 864.339 0.45146 3.54537 0
M  V30 8974 C 864.005 1.83718 4.11775 0
M  V30 8975 C 862.667 2.21634 4.2712 0
M  V30 8976 C 865.019 2.7449 4.43063 0
M  V30 8977 C 862.347 3.49742 4.7106 0
M  V30 8978 C 864.699 4.02017 4.88431 0
M  V30 8979 C 863.363 4.39967 5.01982 0
M  V30 8980 H 862.633 0.128033 0.729855 0
M  V30 8981 H 865.28 0.997117 1.63493 0
M  V30 8982 H 863.585 -0.279288 3.90803 0
M  V30 8983 H 865.282 0.0988609 4.00878 0
M  V30 8984 H 861.872 1.53251 4.00265 0
M  V30 8985 H 866.056 2.46453 4.30783 0
M  V30 8986 H 861.312 3.79026 4.79738 0
M  V30 8987 H 865.486 4.72475 5.11605 0
M  V30 8988 H 863.113 5.39291 5.35788 0
M  V30 8989 N 864.689 -1.48329 0.532571 0
M  V30 8990 C 865.639 -2.2664 -0.24868 0
M  V30 8991 C 866.623 -1.32861 -0.907563 0
M  V30 8992 O 867.815 -1.57382 -0.809942 0
M  V30 8993 C 864.944 -3.18004 -1.29339 0
M  V30 8994 C 864.03 -4.19256 -0.639166 0
M  V30 8995 N 864.421 -5.05043 0.276597 0
M  V30 8996 C 862.719 -4.36906 -0.896062 0
M  V30 8997 C 863.42 -5.78009 0.654261 0
M  V30 8998 N 862.396 -5.43598 0.0147447 0
M  V30 8999 H 866.198 -2.90344 0.455792 0
M  V30 9000 H 863.712 -1.58566 0.350778 0
M  V30 9001 H 865.709 -3.72767 -1.86682 0
M  V30 9002 H 864.369 -2.55855 -1.99921 0
M  V30 9003 H 865.38 -5.13813 0.649351 0
M  V30 9004 H 862.057 -3.85945 -1.59226 0
M  V30 9005 H 863.447 -6.57039 1.40532 0
M  V30 9006 N 866.167 -0.267825 -1.55308 0
M  V30 9007 C 867.583 0.0865107 -1.59365 0
M  V30 9008 C 867.783 1.55205 -1.28505 0
M  V30 9009 O 866.839 2.29978 -1.04241 0
M  V30 9010 C 868.152 -0.28155 -2.99379 0
M  V30 9011 C 869.7 -0.227565 -3.12172 0
M  V30 9012 C 870.175 -0.569959 -4.5444 0
M  V30 9013 N 871.666 -0.521238 -4.60258 0
M  V30 9014 C 872.401 -0.759061 -5.68354 0
M  V30 9015 N 871.897 -1.06112 -6.84626 0
M  V30 9016 N 873.69 -0.688351 -5.57869 0
M  V30 9017 H 865.841 -1.22332 -1.73633 0
M  V30 9018 H 868.104 -0.493703 -0.809297 0
M  V30 9019 H 867.81 -1.3005 -3.26772 0
M  V30 9020 H 867.684 0.381192 -3.75269 0
M  V30 9021 H 870.071 0.782093 -2.84548 0
M  V30 9022 H 870.152 -0.924461 -2.38511 0
M  V30 9023 H 869.796 -1.57727 -4.82788 0
M  V30 9024 H 869.726 0.148646 -5.2639 0
M  V30 9025 H 872.217 -0.297359 -3.76728 0
M  V30 9026 H 872.53 -1.22945 -7.62958 0
M  V30 9027 H 870.875 -1.09881 -6.86259 0
M  V30 9028 H 874.066 -0.452268 -4.6591 0
M  V30 9029 H 874.239 -0.877081 -6.42037 0
M  V30 9030 N 867.645 1.57599 0.00500368 0
M  V30 9031 C 868.555 2.11532 1.01446 0
M  V30 9032 C 869.571 1.05941 1.3803 0
M  V30 9033 O 870.747 1.37815 1.46864 0
M  V30 9034 C 867.812 2.60382 2.28915 0
M  V30 9035 C 866.873 3.80554 1.98689 0
M  V30 9036 C 866.106 4.27064 3.20081 0
M  V30 9037 O 866.329 3.72939 4.31593 0
M  V30 9038 O 865.263 5.1927 3.04371 0
M  V30 9039 H 869.089 2.97993 0.586011 0
M  V30 9040 H 866.674 1.47718 0.223519 0
M  V30 9041 H 868.556 2.92024 3.03809 0
M  V30 9042 H 867.231 1.77022 2.71007 0
M  V30 9043 H 866.138 3.53893 1.21286 0
M  V30 9044 H 867.471 4.64972 1.61437 0
M  V30 9045 N 869.123 -0.277682 1.55134 0
M  V30 9046 C 870.086 -1.32635 1.86924 0
M  V30 9047 C 871.086 -1.42578 0.743507 0
M  V30 9048 O 872.276 -1.4181 1.01171 0
M  V30 9049 C 869.408 -2.70832 2.07034 0
M  V30 9050 H 870.601 -1.0568 2.80663 0
M  V30 9051 H 868.154 -0.515517 1.47554 0
M  V30 9052 H 868.889 -3.02974 1.15661 0
M  V30 9053 H 868.674 -2.65001 2.88993 0
M  V30 9054 H 870.164 -3.46611 2.32918 0
M  V30 9055 N 870.601 -1.47988 -0.541979 0
M  V30 9056 C 871.511 -1.64276 -1.67483 0
M  V30 9057 C 872.527 -0.525387 -1.65879 0
M  V30 9058 O 873.703 -0.794912 -1.85049 0
M  V30 9059 C 870.768 -1.66744 -3.03969 0
M  V30 9060 C 869.829 -2.90021 -3.16522 0
M  V30 9061 C 869.062 -2.92362 -4.46498 0
M  V30 9062 O 869.285 -2.03462 -5.32878 0
M  V30 9063 O 868.219 -3.84399 -4.63164 0
M  V30 9064 H 872.045 -2.60164 -1.5668 0
M  V30 9065 H 869.63 -1.31249 -0.71372 0
M  V30 9066 H 871.512 -1.70958 -3.85164 0
M  V30 9067 H 870.187 -0.740277 -3.15122 0
M  V30 9068 H 869.094 -2.91345 -2.34667 0
M  V30 9069 H 870.427 -3.82082 -3.10281 0
M  V30 9070 N 872.079 0.78992 -1.36375 0
M  V30 9071 C 873.009 1.91683 -1.33341 0
M  V30 9072 C 873.99 1.68861 -0.204965 0
M  V30 9073 O 875.175 1.89982 -0.402531 0
M  V30 9074 C 872.305 3.28696 -1.12143 0
M  V30 9075 C 871.259 3.66041 -2.21806 0
M  V30 9076 C 870.585 5.01399 -1.85751 0
M  V30 9077 C 871.885 3.74677 -3.63888 0
M  V30 9078 H 873.579 1.94478 -2.27637 0
M  V30 9079 H 871.125 0.934271 -1.09578 0
M  V30 9080 H 873.078 4.07151 -1.08656 0
M  V30 9081 H 871.802 3.26287 -0.142974 0
M  V30 9082 H 870.461 2.89883 -2.24418 0
M  V30 9083 H 870.109 4.9551 -0.864817 0
M  V30 9084 H 869.809 5.27355 -2.59173 0
M  V30 9085 H 871.333 5.82274 -1.83819 0
M  V30 9086 H 872.747 4.43324 -3.63506 0
M  V30 9087 H 871.144 4.12118 -4.3621 0
M  V30 9088 H 872.214 2.75795 -3.9883 0
M  V30 9089 N 873.557 1.20646 1.01402 0
M  V30 9090 C 874.487 0.98155 2.11867 0
M  V30 9091 C 875.468 -0.0903712 1.6986 0
M  V30 9092 O 876.653 0.0676586 1.94082 0
M  V30 9093 C 873.783 0.535636 3.43145 0
M  V30 9094 C 872.737 1.55109 3.98905 0
M  V30 9095 C 872.063 0.961725 5.2598 0
M  V30 9096 C 873.363 2.93552 4.32001 0
M  V30 9097 H 875.057 1.90544 2.3094 0
M  V30 9098 H 872.603 0.917554 1.10982 0
M  V30 9099 H 874.556 0.365512 4.19812 0
M  V30 9100 H 873.28 -0.423882 3.23838 0
M  V30 9101 H 871.939 1.70862 3.24348 0
M  V30 9102 H 871.587 -0.00580108 5.03 0
M  V30 9103 H 871.287 1.63993 5.64252 0
M  V30 9104 H 872.811 0.802726 6.053 0
M  V30 9105 H 874.225 2.81295 4.99546 0
M  V30 9106 H 872.622 3.58303 4.81393 0
M  V30 9107 H 873.692 3.4508 3.40658 0
M  V30 9108 N 875.035 -1.20752 1.01276 0
M  V30 9109 C 876.263 -1.94006 0.718976 0
M  V30 9110 C 876.678 -1.74544 -0.719711 0
M  V30 9111 O 876.035 -1.05697 -1.48776 0
M  V30 9112 C 876.086 -3.46208 1.04031 0
M  V30 9113 O 875.807 -3.65031 2.42248 0
M  V30 9114 C 877.308 -4.36614 0.767032 0
M  V30 9115 H 874.528 -0.616743 0.264327 0
M  V30 9116 H 877.072 -1.53352 1.3529 0
M  V30 9117 H 875.227 -3.84756 0.451852 0
M  V30 9118 H 875.641 -4.59054 2.53712 0
M  V30 9119 H 877.115 -5.42076 1.04198 0
M  V30 9120 H 877.592 -4.38182 -0.298851 0
M  V30 9121 H 878.198 -4.03723 1.33746 0
M  V30 9122 N 876.513 -0.788492 -1.36457 0
M  V30 9123 C 877.461 -0.174192 -2.31947 0
M  V30 9124 C 878.455 0.665974 -1.5576 0
M  V30 9125 O 879.661 0.561161 -1.71029 0
M  V30 9126 H 876.036 -0.0375538 -0.751062 0
M  V30 9127 H 878.007 -0.995011 -2.81322 0
M  V30 9128 C 876.756 0.677276 -3.4104 0
M  V30 9129 H 876.079 0.0401418 -3.9978 0
M  V30 9130 H 877.519 1.07379 -4.10178 0
M  V30 9131 C 875.978 1.83512 -2.82533 0
M  V30 9132 O 876.508 2.93164 -2.74623 0
M  V30 9133 N 874.714 1.64095 -2.39836 0
M  V30 9134 H 874.261 0.749046 -2.46469 0
M  V30 9135 H 874.219 2.41726 -2.01037 0
M  V30 9136 N 877.991 1.48044 -0.54043 0
M  V30 9137 C 878.921 2.32597 0.205178 0
M  V30 9138 C 879.902 1.42748 0.925041 0
M  V30 9139 O 881.087 1.71624 0.908784 0
M  V30 9140 C 878.217 3.24175 1.24612 0
M  V30 9141 C 877.171 4.23131 0.64376 0
M  V30 9142 C 876.497 5.03915 1.78812 0
M  V30 9143 C 877.797 5.20831 -0.39144 0
M  V30 9144 H 879.491 2.95184 -0.500676 0
M  V30 9145 H 877.037 1.41948 -0.242225 0
M  V30 9146 H 878.99 3.82158 1.77576 0
M  V30 9147 H 877.714 2.59608 1.98169 0
M  V30 9148 H 876.373 3.66349 0.135554 0
M  V30 9149 H 876.021 4.35765 2.51232 0
M  V30 9150 H 875.721 5.709 1.39094 0
M  V30 9151 H 877.245 5.64753 2.32134 0
M  V30 9152 H 878.659 5.73277 0.0515064 0
M  V30 9153 H 877.056 5.95926 -0.706569 0
M  V30 9154 H 878.126 4.6733 -1.29345 0
M  V30 9155 N 879.47 0.276058 1.55163 0
M  V30 9156 C 880.402 -0.644254 2.19959 0
M  V30 9157 C 881.415 -1.11675 1.18459 0
M  V30 9158 O 882.604 -1.0385 1.45181 0
M  V30 9159 C 879.704 -1.89093 2.81242 0
M  V30 9160 C 878.877 -1.56509 4.08441 0
M  V30 9161 C 877.936 -2.66433 4.53762 0
M  V30 9162 O 876.962 -2.32579 5.19515 0
M  V30 9163 N 878.164 -3.96509 4.23982 0
M  V30 9164 H 880.929 -0.0896808 2.99566 0
M  V30 9165 H 878.49 0.0971981 1.61608 0
M  V30 9166 H 880.482 -2.61929 3.08505 0
M  V30 9167 H 879.052 -2.35453 2.05622 0
M  V30 9168 H 878.272 -0.670522 3.88455 0
M  V30 9169 H 879.56 -1.32242 4.91314 0
M  V30 9170 H 878.958 -4.26834 3.71254 0
M  V30 9171 H 877.515 -4.6572 4.56014 0
M  V30 9172 N 880.948 -1.576 0.00335426 0
M  V30 9173 C 881.898 -2.05116 -0.995562 0
M  V30 9174 C 882.882 -0.946535 -1.30113 0
M  V30 9175 O 884.074 -1.21028 -1.29156 0
M  V30 9176 C 881.203 -2.56077 -2.28648 0
M  V30 9177 C 880.289 -3.73422 -2.0104 0
M  V30 9178 N 880.68 -4.84986 -1.43603 0
M  V30 9179 C 878.978 -3.81416 -2.31166 0
M  V30 9180 C 879.679 -5.66399 -1.32542 0
M  V30 9181 N 878.655 -5.12505 -1.81218 0
M  V30 9182 H 882.457 -2.88783 -0.546025 0
M  V30 9183 H 879.971 -1.61135 -0.202265 0
M  V30 9184 H 881.968 -2.88395 -3.01055 0
M  V30 9185 H 880.628 -1.73829 -2.74251 0
M  V30 9186 H 881.639 -5.05768 -1.11439 0
M  V30 9187 H 878.316 -3.1003 -2.7962 0
M  V30 9188 H 879.706 -6.66066 -0.88348 0
M  V30 9189 N 882.426 0.269451 -1.5528 0
M  V30 9190 C 883.336 1.35511 -1.91505 0
M  V30 9191 C 884.352 1.53854 -0.812712 0
M  V30 9192 O 885.528 1.67912 -1.1121 0
M  V30 9193 C 882.593 2.6937 -2.18267 0
M  V30 9194 C 881.654 2.59743 -3.41807 0
M  V30 9195 C 880.887 3.87219 -3.67283 0
M  V30 9196 O 881.11 4.88066 -2.95208 0
M  V30 9197 O 880.044 3.87209 -4.60818 0
M  V30 9198 H 883.87 1.07785 -2.8393 0
M  V30 9199 H 881.455 0.468282 -1.41871 0
M  V30 9200 H 883.337 3.48513 -2.36889 0
M  V30 9201 H 882.012 2.96874 -1.29024 0
M  V30 9202 H 880.919 1.78964 -3.28516 0
M  V30 9203 H 882.252 2.37188 -4.3128 0
M  V30 9204 N 883.904 1.48273 0.534124 0
M  V30 9205 C 884.854 1.58889 1.63519 0
M  V30 9206 C 885.838 0.44626 1.54588 0
M  V30 9207 O 887.03 0.697474 1.62679 0
M  V30 9208 C 884.159 1.62787 3.0225 0
M  V30 9209 C 883.245 2.82515 3.16301 0
M  V30 9210 N 883.636 4.06977 3.00338 0
M  V30 9211 C 881.934 2.7976 3.47347 0
M  V30 9212 C 882.635 4.87283 3.17694 0
M  V30 9213 N 881.611 4.20024 3.45081 0
M  V30 9214 H 885.413 2.52869 1.49781 0
M  V30 9215 H 882.927 1.44587 0.739479 0
M  V30 9216 H 884.924 1.68486 3.81337 0
M  V30 9217 H 883.584 0.699201 3.17082 0
M  V30 9218 H 884.595 4.37479 2.77186 0
M  V30 9219 H 881.272 1.96132 3.68563 0
M  V30 9220 H 882.662 5.96047 3.10126 0
M  V30 9221 N 885.382 -0.782676 1.36792 0
M  V30 9222 C 886.631 -1.53605 1.30723 0
M  V30 9223 C 886.944 -1.95294 -0.109296 0
M  V30 9224 O 888.15 -2.69921 -0.292398 0
M  V30 9225 C 886.606 -2.77321 2.29393 0
M  V30 9226 C 886.214 -2.42774 3.76517 0
M  V30 9227 C 887.958 -3.55289 2.32314 0
M  V30 9228 C 885.865 -3.62926 4.66947 0
M  V30 9229 H 884.795 -0.576646 0.485794 0
M  V30 9230 H 887.446 -0.858255 1.62192 0
M  V30 9231 H 885.828 -3.46934 1.90927 0
M  V30 9232 H 887.002 -1.81014 4.23758 0
M  V30 9233 H 885.317 -1.78002 3.76436 0
M  V30 9234 H 887.914 -4.44573 2.97083 0
M  V30 9235 H 888.257 -3.94361 1.3336 0
M  V30 9236 H 888.79 -2.92662 2.69432 0
M  V30 9237 H 885.529 -3.28944 5.66989 0
M  V30 9238 H 885.049 -4.23828 4.24418 0
M  V30 9239 H 886.728 -4.29873 4.83548 0
M  V30 9240 N 886.86 -1.21182 -1.00761 0
M  V30 9241 C 888.106 -1.02898 -1.74756 0
M  V30 9242 C 888.439 0.436774 -1.89225 0
M  V30 9243 O 887.714 1.32415 -1.42466 0
M  V30 9244 C 887.997 -1.72372 -3.16164 0
M  V30 9245 C 887.85 -3.2645 -3.09435 0
M  V30 9246 C 889.169 -1.46415 -4.15031 0
M  V30 9247 H 886.288 -0.375214 -0.634337 0
M  V30 9248 H 888.93 -1.49321 -1.17487 0
M  V30 9249 H 887.08 -1.32906 -3.65059 0
M  V30 9250 H 888.752 -3.75269 -2.68274 0
M  V30 9251 H 886.995 -3.56889 -2.46603 0
M  V30 9252 H 887.666 -3.70226 -4.09435 0
M  V30 9253 H 890.142 -1.80671 -3.7483 0
M  V30 9254 H 889.018 -1.97544 -5.12121 0
M  V30 9255 H 889.279 -0.39361 -4.40344 0
M  V30 9256 N 888.338 1.20213 -1.01915 0
M  V30 9257 C 889.285 2.2309 -0.591571 0
M  V30 9258 C 890.255 1.61465 0.389649 0
M  V30 9259 O 891.44 1.88606 0.288511 0
M  V30 9260 C 888.58 3.45045 0.0614028 0
M  V30 9261 C 887.693 4.21091 -0.964688 0
M  V30 9262 C 886.828 5.30448 -0.282499 0
M  V30 9263 C 885.867 5.98241 -1.29517 0
M  V30 9264 N 885.004 6.99182 -0.639472 0
M  V30 9265 H 889.844 2.59023 -1.47347 0
M  V30 9266 H 887.381 1.27274 -0.737547 0
M  V30 9267 H 889.339 4.14688 0.45714 0
M  V30 9268 H 887.969 3.09797 0.906937 0
M  V30 9269 H 887.021 3.50489 -1.47857 0
M  V30 9270 H 888.333 4.67662 -1.73475 0
M  V30 9271 H 887.487 6.06466 0.168603 0
M  V30 9272 H 886.226 4.84922 0.519843 0
M  V30 9273 H 885.231 5.20982 -1.75663 0
M  V30 9274 H 886.456 6.45853 -2.09884 0
M  V30 9275 H 884.402 6.55844 0.142955 0
M  V30 9276 H 884.319 7.43893 -1.34756 0
M  V30 9277 H 885.587 7.79212 -0.212047 0
M  V30 9278 N 889.816 0.795718 1.36037 0
M  V30 9279 C 891.063 0.371024 1.99072 0
M  V30 9280 C 891.391 -1.05896 1.63145 0
M  V30 9281 O 890.646 -1.7474 0.881163 0
M  V30 9282 C 890.945 0.489038 3.54038 0
M  V30 9283 C 890.611 1.88075 4.09803 0
M  V30 9284 C 889.273 2.26152 4.24745 0
M  V30 9285 C 891.625 2.79174 4.40126 0
M  V30 9286 C 888.953 3.54718 4.67324 0
M  V30 9287 C 891.305 4.07175 4.8414 0
M  V30 9288 C 889.969 4.45266 4.97287 0
M  V30 9289 H 889.239 0.135767 0.728456 0
M  V30 9290 H 891.886 1.0144 1.62426 0
M  V30 9291 H 890.191 -0.237823 3.91078 0
M  V30 9292 H 891.888 0.141374 4.00751 0
M  V30 9293 H 888.478 1.57488 3.98617 0
M  V30 9294 H 892.662 2.51009 4.28145 0
M  V30 9295 H 887.918 3.84093 4.75691 0
M  V30 9296 H 892.092 4.77875 5.06565 0
M  V30 9297 H 889.719 5.44943 5.30038 0
M  V30 9298 N 891.294 -1.47756 0.548274 0
M  V30 9299 C 892.524 -2.06584 0.0254503 0
M  V30 9300 C 892.932 -1.40268 -1.26971 0
M  V30 9301 O 892.275 -0.49019 -1.77039 0
M  V30 9302 C 892.337 -3.58628 -0.250301 0
M  V30 9303 C 892.001 -4.4693 0.954087 0
M  V30 9304 C 892.998 -4.85592 1.85733 0
M  V30 9305 C 890.683 -4.88573 1.16624 0
M  V30 9306 C 892.677 -5.64686 2.95648 0
M  V30 9307 C 890.364 -5.67435 2.2685 0
M  V30 9308 C 891.362 -6.05401 3.16194 0
M  V30 9309 O 891.05 -6.82676 4.24511 0
M  V30 9310 H 890.782 -0.67489 0.0387264 0
M  V30 9311 H 893.336 -1.90876 0.758663 0
M  V30 9312 H 891.566 -3.72516 -1.03771 0
M  V30 9313 H 893.255 -3.9951 -0.717419 0
M  V30 9314 H 894.021 -4.54026 1.70544 0
M  V30 9315 H 889.9 -4.58494 0.480039 0
M  V30 9316 H 893.444 -5.9424 3.65411 0
M  V30 9317 H 889.341 -5.98413 2.42016 0
M  V30 9318 H 890.109 -7.01057 4.22447 0
M  V30 9319 N 892.772 -0.284283 -1.55015 0
M  V30 9320 C 894.02 0.329212 -1.99401 0
M  V30 9321 C 894.341 1.55687 -1.17416 0
M  V30 9322 O 893.611 1.94087 -0.265937 0
M  V30 9323 H 892.191 0.12463 -0.73653 0
M  V30 9324 H 894.853 -0.391743 -1.90922 0
M  V30 9325 H 893.949 0.61278 -3.06025 0
M  V30 9326 N 894.251 1.57596 -0.0117121 0
M  V30 9327 C 895.497 1.91355 0.671661 0
M  V30 9328 C 895.83 0.886818 1.72769 0
M  V30 9329 O 895.105 -0.0928813 1.94278 0
M  V30 9330 C 895.388 3.35657 1.30409 0
M  V30 9331 C 895.241 4.49055 0.2588 0
M  V30 9332 C 896.56 3.79595 2.22701 0
M  V30 9333 H 893.679 0.695893 0.242698 0
M  V30 9334 H 896.321 1.89887 -0.0654071 0
M  V30 9335 H 894.471 3.37038 1.9323 0
M  V30 9336 H 896.143 4.59809 -0.370631 0
M  V30 9337 H 894.386 4.31785 -0.417672 0
M  V30 9338 H 895.057 5.4701 0.740578 0
M  V30 9339 H 897.533 3.7984 1.69885 0
M  V30 9340 H 896.409 4.81292 2.63912 0
M  V30 9341 H 896.67 3.14118 3.11098 0
M  V30 9342 N 895.729 -0.261212 1.5542 0
M  V30 9343 C 896.969 -0.998748 1.78338 0
M  V30 9344 C 897.333 -1.83064 0.578914 0
M  V30 9345 O 898.534 -2.59884 0.686575 0
M  V30 9346 C 896.805 -1.84828 3.05898 0
M  V30 9347 S 898.364 -2.64686 3.49981 0
M  V30 9348 H 895.182 -0.33619 0.626496 0
M  V30 9349 H 897.784 -0.26799 1.93655 0
M  V30 9350 H 896.488 -1.22658 3.91642 0
M  V30 9351 H 896.019 -2.62203 2.9328 0
M  V30 9352 H 898.034 -3.87299 3.10184 0
M  V30 9353 N 897.207 -1.48554 -0.526253 0
M  V30 9354 C 898.453 -1.56994 -1.28378 0
M  V30 9355 C 898.786 -0.244701 -1.92652 0
M  V30 9356 O 898.061 0.749636 -1.79473 0
M  V30 9357 C 898.344 -2.71092 -2.37026 0
M  V30 9358 C 898.197 -4.13331 -1.77418 0
M  V30 9359 C 899.516 -2.80934 -3.38769 0
M  V30 9360 H 896.635 -0.571466 -0.465398 0
M  V30 9361 H 899.277 -1.80742 -0.585861 0
M  V30 9362 H 897.427 -2.50973 -2.96555 0
M  V30 9363 H 899.099 -4.44899 -1.21912 0
M  V30 9364 H 897.342 -4.20158 -1.07936 0
M  V30 9365 H 898.013 -4.88994 -2.56104 0
M  V30 9366 H 900.489 -2.9917 -2.892 0
M  V30 9367 H 899.365 -3.62489 -4.12181 0
M  V30 9368 H 899.626 -1.89244 -3.99549 0
M  V30 9369 N 898.685 0.775411 -1.37205 0
M  V30 9370 C 899.595 1.91967 -1.34855 0
M  V30 9371 C 900.611 1.72214 -0.248656 0
M  V30 9372 O 901.787 1.95512 -0.483421 0
M  V30 9373 C 898.852 3.27038 -1.15096 0
M  V30 9374 C 897.913 3.5947 -2.34691 0
M  V30 9375 C 897.146 4.88097 -2.15865 0
M  V30 9376 O 897.369 5.58871 -1.14102 0
M  V30 9377 O 896.303 5.19507 -3.03967 0
M  V30 9378 H 900.129 1.969 -2.31223 0
M  V30 9379 H 897.714 0.917647 -1.17897 0
M  V30 9380 H 899.596 4.07837 -1.0605 0
M  V30 9381 H 898.271 3.22965 -0.217999 0
M  V30 9382 H 897.178 2.7892 -2.49308 0
M  V30 9383 H 898.511 3.68282 -3.26541 0
M  V30 9384 N 900.163 1.21714 1.00117 0
M  V30 9385 C 901.411 1.03465 1.73607 0
M  V30 9386 C 901.732 -0.432295 1.90148 0
M  V30 9387 O 901.002 -1.31157 1.45515 0
M  V30 9388 H 899.582 0.379857 0.643209 0
M  V30 9389 H 902.244 1.53088 1.20624 0
M  V30 9390 H 901.34 1.50574 2.73375 0
M  V30 9391 N 901.641 -1.19671 1.02551 0
M  V30 9392 C 902.918 -1.85014 0.634771 0
M  V30 9393 C 903.298 -1.91574 -0.886706 0
M  V30 9394 O 902.646 -1.43022 -1.78205 0
M  V30 9395 C 902.856 -3.24167 1.29292 0
M  V30 9396 C 904.204 -4.00363 1.41402 0
M  V30 9397 O 905.228 -3.33553 1.24983 0
M  V30 9398 O 904.087 -5.2003 1.6802 0
M  V30 9399 H 901.181 -0.797147 0.220196 0
M  V30 9400 H 903.727 -1.27188 1.12345 0
M  V30 9401 H 902.499 -3.14208 2.33215 0
M  V30 9402 H 902.122 -3.89634 0.791895 0
M  V30 9403 N 903.119 -0.802921 -1.35613 0
M  V30 9404 C 904.53 -0.443004 -1.81368 0
M  V30 9405 C 904.881 1.03459 -1.66706 0
M  V30 9406 O 904.006 1.80372 -1.19561 0
M  V30 9407 C 904.601 -0.797324 -3.29284 0
M  V30 9408 C 903.16 -0.490055 -3.73196 0
M  V30 9409 C 902.307 -1.02487 -2.57666 0
M  V30 9410 H 905.258 -0.994888 -1.23643 0
M  V30 9411 H 905.279 -0.0934638 -3.80385 0
M  V30 9412 H 904.791 -1.87278 -3.39924 0
M  V30 9413 H 902.892 0.576818 -3.68108 0
M  V30 9414 H 903.005 -1.02012 -4.68114 0
M  V30 9415 H 901.369 -0.44738 -2.5074 0
M  V30 9416 H 902.152 -2.10636 -2.71085 0
M  V30 9417 N 904.597 1.47463 -0.556102 0
M  V30 9418 C 905.527 2.32801 0.180497 0
M  V30 9419 C 906.508 1.43721 0.909848 0
M  V30 9420 O 907.693 1.72578 0.89053 0
M  V30 9421 C 904.823 3.25478 1.21167 0
M  V30 9422 C 903.777 4.2379 0.598846 0
M  V30 9423 C 903.103 5.05783 1.73457 0
M  V30 9424 C 904.403 5.20387 -0.446659 0
M  V30 9425 H 906.097 2.94636 -0.531956 0
M  V30 9426 H 903.643 1.41683 -0.257267 0
M  V30 9427 H 905.596 3.8402 1.73513 0
M  V30 9428 H 904.32 2.61695 1.95405 0
M  V30 9429 H 902.979 3.66472 0.0966897 0
M  V30 9430 H 902.627 4.38405 2.46596 0
M  V30 9431 H 902.327 5.72343 1.33031 0
M  V30 9432 H 903.851 5.67183 2.26131 0
M  V30 9433 H 905.265 5.73299 -0.00930019 0
M  V30 9434 H 903.662 5.95143 -0.769735 0
M  V30 9435 H 904.732 4.65932 -1.34295 0
M  V30 9436 N 906.075 0.2925 1.54862 0
M  V30 9437 C 907.324 -0.319994 1.99146 0
M  V30 9438 C 907.637 -1.55658 1.18448 0
M  V30 9439 O 908.843 -2.24312 1.52959 0
M  V30 9440 C 907.299 -0.620665 3.54508 0
M  V30 9441 C 906.907 0.597098 4.44003 0
M  V30 9442 C 908.651 -1.19482 4.07338 0
M  V30 9443 C 906.558 0.270049 5.90783 0
M  V30 9444 H 905.488 -0.123342 0.743843 0
M  V30 9445 H 908.139 0.399876 1.7909 0
M  V30 9446 H 906.521 -1.3999 3.7043 0
M  V30 9447 H 907.695 1.37354 4.39853 0
M  V30 9448 H 906.01 1.0893 4.019 0
M  V30 9449 H 908.607 -1.45362 5.14562 0
M  V30 9450 H 908.95 -2.13435 3.57423 0
M  V30 9451 H 909.483 -0.477485 3.94924 0
M  V30 9452 H 906.222 1.17791 6.4483 0
M  V30 9453 H 905.742 -0.469292 5.97961 0
M  V30 9454 H 907.421 -0.131471 6.46866 0
M  V30 9455 N 907.553 -1.57587 0.0200696 0
M  V30 9456 C 908.486 -2.05157 -0.999295 0
M  V30 9457 C 909.464 -0.945466 -1.32286 0
M  V30 9458 O 910.648 -1.21512 -1.44108 0
M  V30 9459 C 907.775 -2.46604 -2.32173 0
M  V30 9460 C 906.821 -3.68146 -2.15339 0
M  V30 9461 S 907.654 -5.15194 -1.46065 0
M  V30 9462 C 908.81 -5.59929 -2.79697 0
M  V30 9463 H 909.043 -2.91299 -0.59433 0
M  V30 9464 H 906.576 -1.53209 -0.191372 0
M  V30 9465 H 908.534 -2.7115 -3.08201 0
M  V30 9466 H 907.195 -1.60825 -2.69804 0
M  V30 9467 H 906.388 -3.94963 -3.13082 0
M  V30 9468 H 905.99 -3.43705 -1.47454 0
M  V30 9469 H 908.282 -5.63615 -3.75957 0
M  V30 9470 H 909.225 -6.59599 -2.57555 0
M  V30 9471 H 909.633 -4.87549 -2.84528 0
M  V30 9472 N 909.032 0.252966 -1.55557 0
M  V30 9473 C 910.278 0.983306 -1.77367 0
M  V30 9474 C 910.611 1.85203 -0.584258 0
M  V30 9475 O 909.886 1.89963 0.417644 0
M  V30 9476 C 910.169 1.84896 -3.09007 0
M  V30 9477 C 910.022 1.00883 -4.38341 0
M  V30 9478 C 911.341 2.83254 -3.36831 0
M  V30 9479 H 908.46 0.356056 -0.645286 0
M  V30 9480 H 911.102 0.254232 -1.88291 0
M  V30 9481 H 909.252 2.47058 -2.99825 0
M  V30 9482 H 910.924 0.40638 -4.59507 0
M  V30 9483 H 909.167 0.31297 -4.3267 0
M  V30 9484 H 909.838 1.64818 -5.2682 0
M  V30 9485 H 912.314 2.31228 -3.45937 0
M  V30 9486 H 911.19 3.40949 -4.30169 0
M  V30 9487 H 911.451 3.59407 -2.57447 0
M  V30 9488 N 910.51 1.48831 0.518367 0
M  V30 9489 C 911.757 1.57439 1.27355 0
M  V30 9490 C 912.085 0.25338 1.92843 0
M  V30 9491 O 911.34 -0.757323 1.80452 0
M  V30 9492 C 911.639 2.67003 2.3758 0
M  V30 9493 C 911.305 4.09069 1.89667 0
M  V30 9494 C 909.967 4.47733 1.76319 0
M  V30 9495 C 912.319 4.98052 1.53603 0
M  V30 9496 C 909.647 5.73173 1.25258 0
M  V30 9497 C 911.999 6.23992 1.04001 0
M  V30 9498 C 910.663 6.61503 0.892784 0
M  V30 9499 H 909.933 0.57611 0.466023 0
M  V30 9500 H 912.58 1.82595 0.577166 0
M  V30 9501 H 910.885 2.35751 3.12936 0
M  V30 9502 H 912.582 2.70876 2.95681 0
M  V30 9503 H 909.172 3.7854 2.01011 0
M  V30 9504 H 913.356 4.68849 1.62771 0
M  V30 9505 H 908.612 6.0095 1.12557 0
M  V30 9506 H 912.786 6.92331 0.751706 0
M  V30 9507 H 910.413 7.58587 0.494939 0
M  V30 9508 N 911.988 -0.768124 1.37614 0
M  V30 9509 C 912.898 -1.91249 1.35871 0
M  V30 9510 C 913.914 -1.7208 0.257786 0
M  V30 9511 O 915.09 -1.95253 0.493782 0
M  V30 9512 C 912.155 -3.26423 1.16829 0
M  V30 9513 C 911.216 -3.5822 2.36594 0
M  V30 9514 C 910.449 -4.86945 2.1845 0
M  V30 9515 O 910.672 -5.58258 1.17064 0
M  V30 9516 O 909.606 -5.17888 3.06718 0
M  V30 9517 H 913.432 -1.95671 2.32264 0
M  V30 9518 H 911.017 -0.911382 1.18382 0
M  V30 9519 H 912.899 -4.07269 1.08212 0
M  V30 9520 H 911.574 -3.22845 0.235123 0
M  V30 9521 H 910.481 -2.77594 2.50783 0
M  V30 9522 H 911.814 -3.66545 3.2849 0
M  V30 9523 N 913.466 -1.22244 -0.994698 0
M  V30 9524 C 914.696 -1.07062 -1.76695 0
M  V30 9525 C 915.104 0.381895 -1.85306 0
M  V30 9526 O 914.447 1.27648 -1.32105 0
M  V30 9527 C 914.509 -1.60487 -3.2169 0
M  V30 9528 C 914.173 -3.09079 -3.36629 0
M  V30 9529 C 915.17 -4.06526 -3.24088 0
M  V30 9530 C 912.855 -3.48497 -3.61739 0
M  V30 9531 C 914.849 -5.41377 -3.36437 0
M  V30 9532 C 912.536 -4.83498 -3.73729 0
M  V30 9533 C 913.534 -5.79747 -3.61086 0
M  V30 9534 O 913.222 -7.12297 -3.72678 0
M  V30 9535 H 912.954 -0.375963 -0.561807 0
M  V30 9536 H 915.508 -1.62259 -1.25941 0
M  V30 9537 H 913.738 -0.996957 -3.73628 0
M  V30 9538 H 915.427 -1.40994 -3.80625 0
M  V30 9539 H 916.193 -3.77415 -3.04602 0
M  V30 9540 H 912.072 -2.74106 -3.70657 0
M  V30 9541 H 915.616 -6.16485 -3.26485 0
M  V30 9542 H 911.513 -5.1229 -3.92721 0
M  V30 9543 H 912.281 -7.1985 -3.89562 0
M  V30 9544 N 914.944 1.19125 -1.03184 0
M  V30 9545 C 915.877 2.21229 -0.559739 0
M  V30 9546 C 916.855 1.57578 0.400998 0
M  V30 9547 O 918.039 1.85809 0.317399 0
M  V30 9548 C 915.166 3.38203 0.183442 0
M  V30 9549 C 914.212 4.2022 -0.729182 0
M  V30 9550 S 915.045 4.87903 -2.20706 0
M  V30 9551 C 916.201 6.08284 -1.47448 0
M  V30 9552 H 916.434 2.60932 -1.42484 0
M  V30 9553 H 913.967 1.29419 -0.842028 0
M  V30 9554 H 915.925 4.06001 0.606084 0
M  V30 9555 H 914.586 2.96929 1.02432 0
M  V30 9556 H 913.779 5.03761 -0.155272 0
M  V30 9557 H 913.381 3.57755 -1.09028 0
M  V30 9558 H 915.673 6.73193 -0.762687 0
M  V30 9559 H 916.616 6.70165 -2.28659 0
M  V30 9560 H 917.024 5.56092 -0.97068 0
M  V30 9561 N 916.422 0.810101 1.35185 0
M  V30 9562 C 917.369 0.220927 2.2974 0
M  V30 9563 C 918.339 -0.647024 1.5298 0
M  V30 9564 O 919.524 -0.591367 1.81404 0
M  V30 9565 C 916.664 -0.62167 3.39454 0
M  V30 9566 C 915.777 0.267104 4.31173 0
M  V30 9567 C 914.912 -0.583833 5.27982 0
M  V30 9568 C 913.951 0.305123 6.11339 0
M  V30 9569 N 913.088 -0.505992 7.00274 0
M  V30 9570 H 917.928 1.03266 2.79536 0
M  V30 9571 H 915.465 0.520768 1.37573 0
M  V30 9572 H 917.423 -1.12539 4.01735 0
M  V30 9573 H 916.053 -1.39863 2.90926 0
M  V30 9574 H 915.105 0.88895 3.69867 0
M  V30 9575 H 916.417 0.951182 4.89647 0
M  V30 9576 H 915.571 -1.15254 5.95652 0
M  V30 9577 H 914.31 -1.30146 4.70014 0
M  V30 9578 H 913.315 0.886075 5.42613 0
M  V30 9579 H 914.54 1.02067 6.71386 0
M  V30 9580 H 912.486 -1.20753 6.4479 0
M  V30 9581 H 912.403 0.119966 7.55905 0
M  V30 9582 H 913.671 -1.05787 7.72288 0
M  V30 9583 N 917.9 -1.47166 0.563914 0
M  V30 9584 C 918.85 -2.27116 -0.20055 0
M  V30 9585 C 919.834 -1.34756 -0.879177 0
M  V30 9586 O 921.026 -1.59064 -0.776377 0
M  V30 9587 C 918.155 -3.20676 -1.22565 0
M  V30 9588 C 917.241 -4.20517 -0.550092 0
M  V30 9589 N 917.632 -5.04343 0.383662 0
M  V30 9590 C 915.93 -4.38708 -0.803186 0
M  V30 9591 C 916.631 -5.76491 0.776718 0
M  V30 9592 N 915.607 -5.43444 0.130047 0
M  V30 9593 H 919.409 -2.89312 0.517275 0
M  V30 9594 H 916.923 -1.57787 0.384334 0
M  V30 9595 H 918.92 -3.76643 -1.78733 0
M  V30 9596 H 917.58 -2.60038 -1.94449 0
M  V30 9597 H 918.591 -5.1232 0.758192 0
M  V30 9598 H 915.268 -3.89235 -1.51003 0
M  V30 9599 H 916.658 -6.5391 1.54437 0
M  V30 9600 N 919.378 -0.300708 -1.54705 0
M  V30 9601 C 920.626 0.308044 -1.99739 0
M  V30 9602 C 920.947 1.54433 -1.19061 0
M  V30 9603 O 920.217 1.93794 -0.286507 0
M  V30 9604 H 918.797 0.116811 -0.73781 0
M  V30 9605 H 921.459 -0.41197 -1.90496 0
M  V30 9606 H 920.555 0.580287 -3.06658 0
M  V30 9607 N 920.856 1.57574 -0.0284266 0
M  V30 9608 C 922.133 1.83064 0.688979 0
M  V30 9609 C 922.513 0.91219 1.90374 0
M  V30 9610 O 921.861 -0.0323672 2.28477 0
M  V30 9611 C 922.071 3.32262 1.06785 0
M  V30 9612 C 923.419 3.98717 1.45978 0
M  V30 9613 O 924.443 3.36753 1.16085 0
M  V30 9614 O 923.302 5.07927 2.01673 0
M  V30 9615 H 920.396 0.7548 0.337944 0
M  V30 9616 H 922.942 1.69607 -0.0560555 0
M  V30 9617 H 921.714 3.90772 0.203235 0
M  V30 9618 H 921.337 3.50823 1.87107 0
M  V30 9619 N 922.334 -0.244713 1.55689 0
M  V30 9620 C 923.264 -1.30667 1.93516 0
M  V30 9621 C 924.245 -1.50094 0.800371 0
M  V30 9622 O 925.43 -1.62665 1.06083 0
M  V30 9623 C 922.56 -2.66101 2.23176 0
M  V30 9624 C 921.514 -2.61366 3.38927 0
M  V30 9625 C 920.84 -4.00616 3.54134 0
M  V30 9626 C 922.14 -2.18161 4.74555 0
M  V30 9627 H 923.834 -0.992546 2.82469 0
M  V30 9628 H 921.38 -0.476018 1.35905 0
M  V30 9629 H 923.333 -3.4053 2.48228 0
M  V30 9630 H 922.057 -2.99154 1.31051 0
M  V30 9631 H 920.716 -1.89395 3.13887 0
M  V30 9632 H 920.364 -4.30938 2.59426 0
M  V30 9633 H 920.064 -3.98335 4.31975 0
M  V30 9634 H 921.588 -4.76741 3.8151 0
M  V30 9635 H 923.002 -2.82323 4.98965 0
M  V30 9636 H 921.399 -2.26988 5.55515 0
M  V30 9637 H 922.469 -1.13333 4.7147 0
M  V30 9638 N 923.813 -1.49104 -0.510467 0
M  V30 9639 C 924.761 -1.65547 -1.63392 0
M  V30 9640 C 925.755 -0.521522 -1.61172 0
M  V30 9641 O 926.961 -0.700865 -1.65795 0
M  V30 9642 H 923.336 -0.521843 -0.541464 0
M  V30 9643 H 925.307 -2.59864 -1.46673 0
M  V30 9644 C 924.056 -1.73051 -3.01577 0
M  V30 9645 H 923.379 -2.59676 -3.03987 0
M  V30 9646 H 924.819 -1.88594 -3.79748 0
M  V30 9647 C 923.278 -0.47328 -3.33559 0
M  V30 9648 O 923.808 0.405239 -3.99651 0
M  V30 9649 N 922.014 -0.339074 -2.88615 0
M  V30 9650 H 921.561 -1.05497 -2.35007 0
M  V30 9651 H 921.519 0.501061 -3.10382 0
M  V30 9652 N 925.291 0.760815 -1.38019 0
M  V30 9653 C 926.238 1.8744 -1.34666 0
M  V30 9654 C 927.208 1.64762 -0.210386 0
M  V30 9655 O 928.393 1.86528 -0.401479 0
M  V30 9656 C 925.533 3.24648 -1.17037 0
M  V30 9657 C 924.646 3.59206 -2.3999 0
M  V30 9658 C 923.781 4.8568 -2.15148 0
M  V30 9659 C 922.82 5.13002 -3.3391 0
M  V30 9660 N 921.957 6.30668 -3.08549 0
M  V30 9661 H 926.797 1.8964 -2.29871 0
M  V30 9662 H 924.334 0.927004 -1.14215 0
M  V30 9663 H 926.292 4.03814 -1.04834 0
M  V30 9664 H 924.922 3.21793 -0.254758 0
M  V30 9665 H 923.974 2.74939 -2.62893 0
M  V30 9666 H 925.286 3.75328 -3.28527 0
M  V30 9667 H 924.44 5.72773 -2.00039 0
M  V30 9668 H 923.179 4.71682 -1.23965 0
M  V30 9669 H 922.184 4.2438 -3.49545 0
M  V30 9670 H 923.409 5.28901 -4.25958 0
M  V30 9671 H 921.355 6.18008 -2.20006 0
M  V30 9672 H 921.272 6.47257 -3.90633 0
M  V30 9673 H 922.54 7.20669 -2.9708 0
M  V30 9674 N 926.769 1.22769 0.988202 0
M  V30 9675 C 928.016 1.05509 1.72841 0
M  V30 9676 C 928.344 -0.409145 1.90148 0
M  V30 9677 O 927.599 -1.3195 1.44526 0
M  V30 9678 C 927.898 1.71679 3.13466 0
M  V30 9679 C 927.564 3.21584 3.16061 0
M  V30 9680 C 926.226 3.62486 3.16476 0
M  V30 9681 C 928.578 4.17511 3.11984 0
M  V30 9682 C 925.906 4.97789 3.10521 0
M  V30 9683 C 928.258 5.52796 3.0757 0
M  V30 9684 C 926.922 5.93072 3.06304 0
M  V30 9685 H 926.192 0.386085 0.632471 0
M  V30 9686 H 928.839 1.52596 1.157 0
M  V30 9687 H 927.144 1.1693 3.73945 0
M  V30 9688 H 928.841 1.55809 3.69492 0
M  V30 9689 H 925.431 2.89019 3.1649 0
M  V30 9690 H 929.615 3.86926 3.10809 0
M  V30 9691 H 924.871 5.28218 3.07888 0
M  V30 9692 H 929.045 6.26848 3.03372 0
M  V30 9693 H 926.672 6.97879 3.01444 0
M  V30 9694 N 928.247 -1.18576 1.03814 0
M  V30 9695 C 929.177 -2.24334 0.647795 0
M  V30 9696 C 930.158 -1.66508 -0.34774 0
M  V30 9697 O 931.343 -1.92852 -0.228401 0
M  V30 9698 C 928.473 -3.47299 0.00734922 0
M  V30 9699 C 927.427 -4.17859 0.926152 0
M  V30 9700 C 926.753 -5.34489 0.150317 0
M  V30 9701 C 928.053 -4.71632 2.24411 0
M  V30 9702 H 929.747 -2.57241 1.53191 0
M  V30 9703 H 927.293 -1.23649 0.738028 0
M  V30 9704 H 929.246 -4.20486 -0.277434 0
M  V30 9705 H 927.97 -3.13619 -0.911626 0
M  V30 9706 H 926.629 -3.46567 1.19528 0
M  V30 9707 H 926.277 -4.97056 -0.770985 0
M  V30 9708 H 925.977 -5.82633 0.762407 0
M  V30 9709 H 927.501 -6.10467 -0.127508 0
M  V30 9710 H 928.915 -5.36526 2.02021 0
M  V30 9711 H 927.312 -5.303 2.80894 0
M  V30 9712 H 928.382 -3.89192 2.89236 0
M  V30 9713 N 929.725 -0.817259 -1.34754 0
M  V30 9714 C 931.141 -0.502309 -1.51489 0
M  V30 9715 C 931.341 0.974568 -1.76364 0
M  V30 9716 O 930.397 1.75924 -1.81127 0
M  V30 9717 C 931.71 -1.35693 -2.68343 0
M  V30 9718 C 933.258 -1.35347 -2.82224 0
M  V30 9719 C 933.733 -2.19244 -4.02114 0
M  V30 9720 N 935.224 -2.16837 -4.09311 0
M  V30 9721 C 935.959 -2.78505 -5.01221 0
M  V30 9722 N 935.455 -3.4914 -5.98392 0
M  V30 9723 N 937.248 -2.68089 -4.94049 0
M  V30 9724 H 929.399 -1.77359 -1.16866 0
M  V30 9725 H 931.662 -0.755476 -0.572678 0
M  V30 9726 H 931.368 -2.40548 -2.56573 0
M  V30 9727 H 931.242 -1.01764 -3.63213 0
M  V30 9728 H 933.629 -0.312727 -2.93438 0
M  V30 9729 H 933.71 -1.7327 -1.88179 0
M  V30 9730 H 933.354 -3.23365 -3.9166 0
M  V30 9731 H 933.284 -1.78675 -4.95361 0
M  V30 9732 H 935.775 -1.65452 -3.39756 0
M  V30 9733 H 936.088 -3.93455 -6.65141 0
M  V30 9734 H 934.433 -3.53246 -5.98533 0
M  V30 9735 H 937.624 -2.12485 -4.17094 0
M  V30 9736 H 937.797 -3.16436 -5.65484 0
M  V30 9737 N 931.203 1.46865 -0.571711 0
M  V30 9738 C 932.166 2.28658 0.157499 0
M  V30 9739 C 933.166 1.37773 0.829172 0
M  V30 9740 O 934.356 1.6026 0.682811 0
M  V30 9741 C 931.488 3.17859 1.23202 0
M  V30 9742 H 932.681 2.94603 -0.561171 0
M  V30 9743 H 930.234 1.52793 -0.329229 0
M  V30 9744 H 930.969 2.56637 1.98262 0
M  V30 9745 H 930.754 3.84762 0.755031 0
M  V30 9746 H 932.244 3.7945 1.74378 0
M  V30 9747 N 932.681 0.308908 1.54543 0
M  V30 9748 C 933.631 -0.578902 2.20528 0
M  V30 9749 C 934.615 -1.09288 1.18088 0
M  V30 9750 O 935.807 -1.03234 1.43777 0
M  V30 9751 C 932.936 -1.74649 2.95555 0
M  V30 9752 C 932.022 -1.24809 4.05319 0
M  V30 9753 N 932.413 -0.46828 5.03628 0
M  V30 9754 C 930.711 -1.52813 4.19004 0
M  V30 9755 C 931.412 -0.201896 5.8135 0
M  V30 9756 N 930.388 -0.783927 5.37918 0
M  V30 9757 H 934.19 0.0243496 2.9389 0
M  V30 9758 H 931.704 0.114049 1.61999 0
M  V30 9759 H 933.701 -2.39414 3.41301 0
M  V30 9760 H 932.361 -2.35336 2.23712 0
M  V30 9761 H 933.372 -0.112453 5.17778 0
M  V30 9762 H 930.049 -2.14191 3.58369 0
M  V30 9763 H 931.439 0.424929 6.70555 0
M  V30 9764 N 934.159 -1.57557 0.0367827 0
M  V30 9765 C 935.407 -1.91735 -0.63892 0
M  V30 9766 C 935.728 -0.914515 -1.72226 0
M  V30 9767 O 934.998 0.0428248 -1.95853 0
M  V30 9768 H 933.578 -0.707738 -0.23899 0
M  V30 9769 H 936.24 -1.94708 0.0863931 0
M  V30 9770 H 935.336 -2.92568 -1.08676 0
M  V30 9771 N 935.637 0.236453 -1.55816 0
M  V30 9772 C 937.048 0.80468 -1.68469 0
M  V30 9773 C 937.399 1.85601 -0.636133 0
M  V30 9774 O 936.524 2.15323 0.215622 0
M  V30 9775 C 937.119 1.46634 -3.05424 0
M  V30 9776 C 935.678 1.98214 -3.19981 0
M  V30 9777 C 934.825 0.83695 -2.64368 0
M  V30 9778 H 937.776 0.0120647 -1.58695 0
M  V30 9779 H 937.797 2.33472 -3.00451 0
M  V30 9780 H 937.309 0.700931 -3.81718 0
M  V30 9781 H 935.41 2.77604 -2.4853 0
M  V30 9782 H 935.523 2.17235 -4.2702 0
M  V30 9783 H 933.887 1.24028 -2.22462 0
M  V30 9784 H 934.67 0.084451 -3.43196 0
M  V30 9785 N 937.115 1.49373 0.502552 0
M  V30 9786 C 938.392 1.49282 1.26389 0
M  V30 9787 C 938.772 0.219674 2.09954 0
M  V30 9788 O 938.12 -0.797991 2.14113 0
M  V30 9789 C 938.33 2.77083 2.12194 0
M  V30 9790 C 939.678 3.26511 2.71433 0
M  V30 9791 O 940.702 2.78189 2.22462 0
M  V30 9792 O 939.561 4.10665 3.60578 0
M  V30 9793 H 936.655 0.597415 0.57186 0
M  V30 9794 H 939.201 1.61634 0.516951 0
M  V30 9795 H 937.973 3.61237 1.50411 0
M  V30 9796 H 937.596 2.67583 2.94084 0
M  V30 9797 N 938.594 -0.753485 1.38421 0
M  V30 9798 C 939.557 -1.84888 1.35459 0
M  V30 9799 C 940.557 -1.58764 0.255083 0
M  V30 9800 O 941.747 -1.66507 0.511978 0
M  V30 9801 C 938.879 -3.22361 1.10888 0
M  V30 9802 H 940.072 -1.88922 2.32913 0
M  V30 9803 H 937.625 -0.955199 1.23716 0
M  V30 9804 H 938.36 -3.23996 0.1404 0
M  V30 9805 H 938.145 -3.42717 1.90492 0
M  V30 9806 H 939.635 -4.02437 1.1151 0
M  V30 9807 N 940.072 -1.23292 -0.981677 0
M  V30 9808 C 941.318 -1.06582 -1.72535 0
M  V30 9809 C 941.651 0.396538 -1.90108 0
M  V30 9810 O 940.926 1.29363 -1.45243 0
M  V30 9811 C 941.209 -1.7904 -3.12437 0
M  V30 9812 C 941.062 -3.32941 -3.02441 0
M  V30 9813 C 942.381 -1.55185 -4.11832 0
M  V30 9814 H 939.5 -0.388585 -0.626236 0
M  V30 9815 H 942.142 -1.51779 -1.14293 0
M  V30 9816 H 940.292 -1.40619 -3.62158 0
M  V30 9817 H 941.964 -3.80875 -2.60254 0
M  V30 9818 H 940.207 -3.62039 -2.38977 0
M  V30 9819 H 940.878 -3.78827 -4.0149 0
M  V30 9820 H 943.354 -1.88581 -3.70913 0
M  V30 9821 H 942.23 -2.08362 -5.07815 0
M  V30 9822 H 942.491 -0.486925 -4.3941 0
M  V30 9823 N 941.55 1.18024 -1.04442 0
M  V30 9824 C 942.48 2.23988 -0.659683 0
M  V30 9825 C 943.461 1.6669 0.338904 0
M  V30 9826 O 944.646 1.92971 0.21817 0
M  V30 9827 C 941.776 3.4729 -0.0257672 0
M  V30 9828 C 940.73 4.17362 -0.948299 0
M  V30 9829 C 940.056 5.34401 -0.17866 0
M  V30 9830 C 941.356 4.70435 -2.26909 0
M  V30 9831 H 943.05 2.56425 -1.54553 0
M  V30 9832 H 940.596 1.23256 -0.744575 0
M  V30 9833 H 942.549 4.20627 0.255131 0
M  V30 9834 H 941.273 3.14098 0.894981 0
M  V30 9835 H 939.932 3.45928 -1.21364 0
M  V30 9836 H 939.58 4.97458 0.744614 0
M  V30 9837 H 939.28 5.8222 -0.793294 0
M  V30 9838 H 940.804 6.10526 0.0951315 0
M  V30 9839 H 942.218 5.35447 -2.04864 0
M  V30 9840 H 940.615 5.28803 -2.83703 0
M  V30 9841 H 941.685 3.87653 -2.91296 0
M  V30 9842 N 943.028 0.824394 1.34319 0
M  V30 9843 C 943.961 0.192544 2.27386 0
M  V30 9844 C 944.939 -0.651901 1.4896 0
M  V30 9845 O 946.123 -0.615321 1.78174 0
M  V30 9846 C 943.25 -0.730958 3.30718 0
M  V30 9847 C 942.296 0.0361484 4.26485 0
M  V30 9848 S 943.129 1.3843 5.17298 0
M  V30 9849 C 944.285 0.465713 6.24165 0
M  V30 9850 H 944.518 0.981573 2.80629 0
M  V30 9851 H 942.051 0.620371 1.41389 0
M  V30 9852 H 944.009 -1.25822 3.90742 0
M  V30 9853 H 942.67 -1.49352 2.7632 0
M  V30 9854 H 941.863 -0.665969 4.99581 0
M  V30 9855 H 941.465 0.494011 3.70723 0
M  V30 9856 H 943.757 -0.342157 6.76635 0
M  V30 9857 H 944.7 1.16639 6.98427 0
M  V30 9858 H 945.108 0.0534895 5.64475 0
M  V30 9859 N 944.506 -1.46559 0.579492 0
M  V30 9860 C 945.469 -2.28739 -0.145371 0
M  V30 9861 C 946.469 -1.38211 -0.821854 0
M  V30 9862 O 947.659 -1.6062 -0.674302 0
M  V30 9863 C 944.791 -3.18507 -1.21515 0
M  V30 9864 H 945.984 -2.94301 0.576786 0
M  V30 9865 H 943.537 -1.52616 0.337327 0
M  V30 9866 H 944.272 -2.57685 -1.96899 0
M  V30 9867 H 944.057 -3.85157 -0.734616 0
M  V30 9868 H 945.547 -3.80369 -1.72363 0
M  V30 9869 N 945.984 -0.3171 -1.54377 0
M  V30 9870 C 946.894 0.560867 -2.27797 0
M  V30 9871 C 947.91 1.13473 -1.31908 0
M  V30 9872 O 949.086 1.15608 -1.64914 0
M  V30 9873 C 946.151 1.70886 -3.0166 0
M  V30 9874 C 945.212 1.16745 -4.13121 0
M  V30 9875 C 944.445 2.26073 -4.83453 0
M  V30 9876 O 944.668 3.46292 -4.53252 0
M  V30 9877 O 943.602 1.91856 -5.70504 0
M  V30 9878 H 947.428 -0.035193 -3.0368 0
M  V30 9879 H 945.013 -0.0830062 -1.49169 0
M  V30 9880 H 946.895 2.37736 -3.47936 0
M  V30 9881 H 945.57 2.29122 -2.28658 0
M  V30 9882 H 944.477 0.464224 -3.71209 0
M  V30 9883 H 945.81 0.630307 -4.88147 0
M  V30 9884 N 947.462 1.57535 -0.0451378 0
M  V30 9885 C 948.71 1.92071 0.628743 0
M  V30 9886 C 949.031 0.923635 1.71738 0
M  V30 9887 O 948.301 -0.0324376 1.95873 0
M  V30 9888 H 946.881 0.708995 0.235233 0
M  V30 9889 H 949.543 1.9466 -0.0967177 0
M  V30 9890 H 948.639 2.9314 1.07123 0
M  V30 9891 N 948.94 -0.228186 1.55939 0
M  V30 9892 C 949.888 -1.30239 1.92719 0
M  V30 9893 C 950.882 -1.48865 0.808424 0
M  V30 9894 O 952.088 -1.50118 0.993204 0
M  V30 9895 H 948.463 -0.436509 0.612343 0
M  V30 9896 H 950.434 -0.964965 2.82367 0
M  V30 9897 C 949.183 -2.647 2.25453 0
M  V30 9898 H 948.506 -2.51173 3.1105 0
M  V30 9899 H 949.946 -3.38691 2.55077 0
M  V30 9900 C 948.405 -3.1921 1.07734 0
M  V30 9901 O 948.935 -4.00301 0.335019 0
M  V30 9902 N 947.141 -2.77492 0.862938 0
M  V30 9903 H 946.688 -2.11657 1.4683 0
M  V30 9904 H 946.646 -3.14306 0.0770119 0
M  V30 9905 N 950.418 -1.49637 -0.494624 0
M  V30 9906 C 951.829 -1.52573 -1.07603 0
M  V30 9907 C 952.18 -0.315591 -1.93645 0
M  V30 9908 O 951.305 0.573966 -2.08649 0
M  V30 9909 C 951.9 -2.7648 -1.95817 0
M  V30 9910 C 950.459 -2.82173 -2.49109 0
M  V30 9911 C 949.606 -2.4657 -1.2688 0
M  V30 9912 H 952.557 -1.56242 -0.278251 0
M  V30 9913 H 952.578 -2.57003 -2.80588 0
M  V30 9914 H 952.09 -3.64538 -1.33167 0
M  V30 9915 H 950.191 -1.9841 -3.15379 0
M  V30 9916 H 950.304 -3.84501 -2.85825 0
M  V30 9917 H 948.668 -1.98489 -1.59607 0
M  V30 9918 H 949.451 -3.3691 -0.659281 0
M  V30 9919 N 951.896 0.746133 -1.38819 0
M  V30 9920 C 953.307 1.32384 -1.31648 0
M  V30 9921 C 953.658 1.96185 0.0243086 0
M  V30 9922 O 952.783 1.95567 0.92641 0
M  V30 9923 C 953.378 2.40712 -2.38418 0
M  V30 9924 C 951.937 2.94185 -2.34803 0
M  V30 9925 C 951.084 1.67639 -2.20891 0
M  V30 9926 H 954.035 0.544457 -1.49068 0
M  V30 9927 H 954.056 3.20833 -2.04564 0
M  V30 9928 H 953.568 1.94247 -3.3599 0
M  V30 9929 H 951.669 3.44959 -1.40834 0
M  V30 9930 H 951.782 3.48057 -3.29231 0
M  V30 9931 H 950.146 1.9155 -1.67871 0
M  V30 9932 H 950.929 1.23242 -3.20416 0
M  V30 9933 N 953.375 1.23811 0.975125 0
M  V30 9934 C 954.603 1.10019 1.75224 0
M  V30 9935 C 955.018 -0.34791 1.85567 0
M  V30 9936 O 954.375 -1.24043 1.33864 0
M  V30 9937 C 954.426 1.72572 3.1765 0
M  V30 9938 O 954.147 3.11719 3.07836 0
M  V30 9939 C 955.648 1.64292 4.11732 0
M  V30 9940 H 952.868 0.38476 0.549728 0
M  V30 9941 H 955.412 1.63768 1.22476 0
M  V30 9942 H 953.567 1.22843 3.67408 0
M  V30 9943 H 953.981 3.42152 3.97533 0
M  V30 9944 H 955.455 2.12754 5.09352 0
M  V30 9945 H 955.932 0.602722 4.35045 0
M  V30 9946 H 956.538 2.13411 3.6788 0
M  V30 9947 N 954.853 -1.17469 1.05066 0
M  V30 9948 C 955.763 -2.25089 0.661222 0
M  V30 9949 C 956.779 -1.71086 -0.31712 0
M  V30 9950 O 957.955 -2.00685 -0.169534 0
M  V30 9951 C 955.02 -3.46676 0.0406415 0
M  V30 9952 C 954.081 -4.15771 1.06927 0
M  V30 9953 C 953.314 -5.31553 0.478208 0
M  V30 9954 O 953.537 -5.6593 -0.712714 0
M  V30 9955 O 952.471 -5.89574 1.21185 0
M  V30 9956 H 956.297 -2.60685 1.5581 0
M  V30 9957 H 953.882 -1.24744 0.822147 0
M  V30 9958 H 955.764 -4.203 -0.304312 0
M  V30 9959 H 954.439 -3.1288 -0.829909 0
M  V30 9960 H 953.346 -3.44171 1.46619 0
M  V30 9961 H 954.679 -4.53591 1.91092 0
M  V30 9962 N 956.331 -0.831506 -1.3388 0
M  V30 9963 C 957.261 -0.274378 -2.31882 0
M  V30 9964 C 958.242 0.613872 -1.58637 0
M  V30 9965 O 959.427 0.538961 -1.86571 0
M  V30 9966 C 956.557 0.557498 -3.42796 0
M  V30 9967 C 955.511 -0.234337 -4.27358 0
M  V30 9968 C 954.837 0.720825 -5.29819 0
M  V30 9969 C 956.137 -1.44732 -5.01847 0
M  V30 9970 H 957.831 -1.09322 -2.78728 0
M  V30 9971 H 955.377 -0.527136 -1.34005 0
M  V30 9972 H 957.33 0.957501 -4.10378 0
M  V30 9973 H 956.054 1.40947 -2.94621 0
M  V30 9974 H 954.713 -0.61581 -3.61391 0
M  V30 9975 H 954.361 1.569 -4.77903 0
M  V30 9976 H 954.061 0.195171 -5.87276 0
M  V30 9977 H 955.585 1.1185 -6.00268 0
M  V30 9978 H 956.999 -1.12087 -5.62236 0
M  V30 9979 H 955.396 -1.90923 -5.68919 0
M  V30 9980 H 956.466 -2.22099 -4.31045 0
M  V30 9981 N 957.809 1.4625 -0.587256 0
M  V30 9982 C 959.037 2.06744 -0.08033 0
M  V30 9983 C 959.452 1.43527 1.2266 0
M  V30 9984 O 958.809 0.542168 1.74261 0
M  V30 9985 C 958.86 3.61394 0.0873469 0
M  V30 9986 O 958.581 4.22247 -1.16785 0
M  V30 9987 C 960.082 4.38828 0.628095 0
M  V30 9988 H 957.302 0.668354 -0.0595301 0
M  V30 9989 H 959.846 1.87808 -0.809217 0
M  V30 9990 H 958.001 3.79742 0.766473 0
M  V30 9991 H 958.415 5.15176 -0.984565 0
M  V30 9992 H 959.889 5.47613 0.694583 0
M  V30 9993 H 960.366 4.07188 1.64606 0
M  V30 9994 H 960.972 4.25297 -0.0163115 0
M  V30 9995 N 959.287 0.325282 1.54207 0
M  V30 9996 C 960.219 -0.57395 2.21897 0
M  V30 9997 C 961.232 -1.0785 1.21952 0
M  V30 9998 O 962.421 -0.991782 1.48411 0
M  V30 9999 C 959.521 -1.8005 2.87115 0
M  V30 10000 C 958.694 -1.43435 4.13213 0
M  V30 10001 C 957.753 -2.51862 4.62009 0
M  V30 10002 O 956.779 -2.15934 5.26651 0
M  V30 10003 N 957.981 -3.8282 4.36382 0
M  V30 10004 H 960.746 0.00566918 2.99699 0
M  V30 10005 H 958.307 0.148563 1.61217 0
M  V30 10006 H 960.299 -2.51981 3.16682 0
M  V30 10007 H 958.869 -2.28792 2.13009 0
M  V30 10008 H 958.089 -0.546598 3.90392 0
M  V30 10009 H 959.377 -1.16544 4.95273 0
M  V30 10010 H 958.775 -4.14807 3.84645 0
M  V30 10011 H 957.332 -4.50976 4.70599 0
M  V30 10012 N 960.765 -1.57509 0.0534917 0
M  V30 10013 C 961.99 -1.97511 -0.632794 0
M  V30 10014 C 962.415 -0.930947 -1.63447 0
M  V30 10015 O 961.773 0.105558 -1.80992 0
M  V30 10016 C 961.821 -3.3658 -1.29407 0
M  V30 10017 O 960.925 -3.3467 -2.40977 0
M  V30 10018 H 960.266 -0.643349 -0.16431 0
M  V30 10019 H 962.796 -2.04232 0.12258 0
M  V30 10020 H 962.806 -3.73359 -1.64521 0
M  V30 10021 H 961.481 -4.12113 -0.559976 0
M  V30 10022 H 960.058 -3.09639 -2.07793 0
M  V30 10023 N 962.243 0.219913 -1.56058 0
M  V30 10024 C 963.175 1.29604 -1.89038 0
M  V30 10025 C 964.188 1.42964 -0.778791 0
M  V30 10026 O 965.377 1.43832 -1.0571 0
M  V30 10027 C 962.477 2.67145 -2.08534 0
M  V30 10028 C 961.65 2.75712 -3.39561 0
M  V30 10029 C 960.709 3.94279 -3.48469 0
M  V30 10030 O 959.735 3.8254 -4.21487 0
M  V30 10031 N 960.937 5.08655 -2.79732 0
M  V30 10032 H 963.702 1.01638 -2.81939 0
M  V30 10033 H 961.263 0.409945 -1.56624 0
M  V30 10034 H 963.255 3.44847 -2.11808 0
M  V30 10035 H 961.825 2.87704 -1.2225 0
M  V30 10036 H 961.045 1.84475 -3.48371 0
M  V30 10037 H 962.333 2.78407 -4.25872 0
M  V30 10038 H 961.731 5.21088 -2.2019 0
M  V30 10039 H 960.288 5.84394 -2.88665 0
M  V30 10040 N 963.721 1.49897 0.486681 0
M  V30 10041 C 964.654 1.6224 1.60479 0
M  V30 10042 C 965.632 0.470964 1.5563 0
M  V30 10043 O 966.816 0.688418 1.75479 0
M  V30 10044 C 963.943 1.59059 2.99028 0
M  V30 10045 C 962.989 2.79575 3.22087 0
M  V30 10046 S 963.822 4.41077 3.03664 0
M  V30 10047 C 964.978 4.40564 4.44583 0
M  V30 10048 H 965.211 2.56822 1.49766 0
M  V30 10049 H 962.744 1.38966 0.672893 0
M  V30 10050 H 964.702 1.5791 3.78913 0
M  V30 10051 H 963.363 0.657405 3.07143 0
M  V30 10052 H 962.556 2.73609 4.23266 0
M  V30 10053 H 962.158 2.78211 2.49949 0
M  V30 10054 H 964.45 4.13166 5.36936 0
M  V30 10055 H 965.393 5.42068 4.55596 0
M  V30 10056 H 965.801 3.70461 4.25933 0
M  V30 10057 N 965.199 -0.738761 1.39212 0
M  V30 10058 C 966.129 -1.86602 1.40364 0
M  V30 10059 C 967.11 -1.67984 0.267495 0
M  V30 10060 O 968.295 -1.88358 0.472765 0
M  V30 10061 C 965.425 -3.24308 1.24265 0
M  V30 10062 C 964.379 -3.57557 2.35239 0
M  V30 10063 C 963.705 -4.94159 2.04233 0
M  V30 10064 C 965.005 -3.60914 3.77543 0
M  V30 10065 H 966.699 -1.85896 2.34698 0
M  V30 10066 H 964.245 -0.892959 1.1297 0
M  V30 10067 H 966.198 -4.02838 1.23692 0
M  V30 10068 H 964.922 -3.25531 0.263974 0
M  V30 10069 H 963.581 -2.81354 2.35022 0
M  V30 10070 H 963.229 -4.91959 1.04813 0
M  V30 10071 H 962.929 -5.17373 2.78567 0
M  V30 10072 H 964.453 -5.7505 2.05303 0
M  V30 10073 H 965.867 -4.29528 3.79709 0
M  V30 10074 H 964.264 -3.95644 4.51205 0
M  V30 10075 H 965.334 -2.60803 4.08791 0
M  V30 10076 N 966.677 -1.24326 -0.968545 0
M  V30 10077 C 967.627 -1.00191 -2.04807 0
M  V30 10078 C 968.611 0.0563524 -1.60801 0
M  V30 10079 O 969.803 -0.157268 -1.763 0
M  V30 10080 C 966.932 -0.607749 -3.37878 0
M  V30 10081 C 966.018 -1.70204 -3.88447 0
M  V30 10082 N 966.409 -2.93463 -4.11962 0
M  V30 10083 C 964.707 -1.57936 -4.171 0
M  V30 10084 C 965.408 -3.64397 -4.5342 0
M  V30 10085 N 964.384 -2.91956 -4.58544 0
M  V30 10086 H 968.186 -1.93786 -2.20962 0
M  V30 10087 H 965.7 -1.1444 -1.15227 0
M  V30 10088 H 967.697 -0.416079 -4.14819 0
M  V30 10089 H 966.357 0.321026 -3.23109 0
M  V30 10090 H 967.368 -3.2965 -3.99438 0
M  V30 10091 H 964.045 -0.718552 -4.1127 0
M  V30 10092 H 965.435 -4.70125 -4.80034 0
M  V30 10093 N 968.156 1.1691 -1.05688 0
M  V30 10094 C 969.405 1.86629 -0.765022 0
M  V30 10095 C 969.718 1.82223 0.710918 0
M  V30 10096 O 970.924 2.47462 1.11691 0
M  V30 10097 C 969.38 3.34886 -1.3183 0
M  V30 10098 C 968.988 3.47781 -2.82404 0
M  V30 10099 C 970.732 4.099 -1.10372 0
M  V30 10100 C 968.639 4.9009 -3.31008 0
M  V30 10101 H 967.569 0.699082 -0.282491 0
M  V30 10102 H 970.22 1.31989 -1.27481 0
M  V30 10103 H 968.602 3.89094 -0.736312 0
M  V30 10104 H 969.776 3.03765 -3.46502 0
M  V30 10105 H 968.091 2.86193 -3.02461 0
M  V30 10106 H 970.688 5.14894 -1.4418 0
M  V30 10107 H 971.031 4.16279 -0.0417372 0
M  V30 10108 H 971.564 3.61913 -1.65117 0
M  V30 10109 H 968.303 4.88887 -4.36657 0
M  V30 10110 H 967.823 5.34756 -2.71655 0
M  V30 10111 H 969.502 5.58881 -3.25977 0
M  V30 10112 N 969.634 0.838594 1.33437 0
M  V30 10113 C 970.597 0.276843 2.27522 0
M  V30 10114 C 971.597 -0.554275 1.50945 0
M  V30 10115 O 972.787 -0.368107 1.70266 0
M  V30 10116 C 969.919 -0.610036 3.35397 0
M  V30 10117 H 971.112 1.10705 2.78719 0
M  V30 10118 H 968.665 0.611657 1.43835 0
M  V30 10119 H 969.4 -1.46269 2.89441 0
M  V30 10120 H 969.185 -0.0153615 3.92097 0
M  V30 10121 H 970.675 -0.996368 4.05539 0
M  V30 10122 N 971.112 -1.45937 0.595003 0
M  V30 10123 C 972.044 -2.28575 -0.169137 0
M  V30 10124 C 973.057 -1.39226 -0.843792 0
M  V30 10125 O 974.246 -1.63716 -0.711291 0
M  V30 10126 C 971.346 -3.14616 -1.25976 0
M  V30 10127 C 970.519 -4.32166 -0.67466 0
M  V30 10128 C 969.578 -4.99511 -1.65456 0
M  V30 10129 O 968.604 -5.56712 -1.18578 0
M  V30 10130 N 969.806 -4.97643 -2.98885 0
M  V30 10131 H 972.571 -2.94797 0.539908 0
M  V30 10132 H 970.132 -1.55985 0.433614 0
M  V30 10133 H 972.124 -3.56534 -1.91483 0
M  V30 10134 H 970.694 -2.50387 -1.8715 0
M  V30 10135 H 969.914 -3.93882 0.158184 0
M  V30 10136 H 971.202 -5.08116 -0.263753 0
M  V30 10137 H 970.6 -4.52438 -3.39583 0
M  V30 10138 H 969.157 -5.43463 -3.59848 0
M  V30 10139 N 972.59 -0.333456 -1.54032 0
M  V30 10140 C 973.522 0.562174 -2.22199 0
M  V30 10141 C 974.535 1.07202 -1.22522 0
M  V30 10142 O 975.724 0.983897 -1.48935 0
M  V30 10143 C 972.824 1.78525 -2.88066 0
M  V30 10144 C 971.997 1.41242 -4.13968 0
M  V30 10145 C 971.056 2.49408 -4.63338 0
M  V30 10146 O 970.082 2.13138 -5.27789 0
M  V30 10147 N 971.284 3.805 -4.38406 0
M  V30 10148 H 974.049 -0.0215629 -2.99692 0
M  V30 10149 H 971.61 -0.157111 -1.61136 0
M  V30 10150 H 973.602 2.50298 -3.18014 0
M  V30 10151 H 972.172 2.2766 -2.14219 0
M  V30 10152 H 971.392 0.525887 -3.90676 0
M  V30 10153 H 972.68 1.13916 -4.95884 0
M  V30 10154 H 972.078 4.12761 -3.86839 0
M  V30 10155 H 970.635 4.48474 -4.72984 0
M  V30 10156 N 974.068 1.57479 -0.061844 0
M  V30 10157 C 975.317 1.92285 0.609055 0
M  V30 10158 C 975.63 0.942983 1.71369 0
M  V30 10159 O 976.836 1.18349 2.44348 0
M  V30 10160 C 975.292 3.41545 1.13468 0
M  V30 10161 C 974.9 4.47958 0.0615926 0
M  V30 10162 C 976.644 3.85368 1.78022 0
M  V30 10163 C 974.551 5.88341 0.600705 0
M  V30 10164 H 973.481 0.717656 0.23127 0
M  V30 10165 H 976.132 1.83021 -0.132466 0
M  V30 10166 H 974.514 3.45848 1.92886 0
M  V30 10167 H 975.688 4.55258 -0.712527 0
M  V30 10168 H 974.003 4.13541 -0.487116 0
M  V30 10169 H 976.6 4.87627 2.19371 0
M  V30 10170 H 976.943 3.22193 2.63623 0
M  V30 10171 H 977.476 3.83626 1.05242 0
M  V30 10172 H 974.215 6.55138 -0.217922 0
M  V30 10173 H 973.735 5.84581 1.34257 0
M  V30 10174 H 975.414 6.37918 1.08025 0
M  V30 10175 N 975.546 -0.211634 1.56173 0
M  V30 10176 C 976.509 -1.24588 1.92381 0
M  V30 10177 C 977.509 -1.39297 0.803311 0
M  V30 10178 O 978.699 -1.37392 1.07094 0
M  V30 10179 C 975.831 -2.61807 2.18335 0
M  V30 10180 H 977.024 -0.936814 2.84893 0
M  V30 10181 H 974.577 -0.452471 1.49607 0
M  V30 10182 H 975.312 -2.97795 1.28407 0
M  V30 10183 H 975.097 -2.52506 2.99972 0
M  V30 10184 H 976.587 -3.3642 2.4741 0
M  V30 10185 N 977.024 -1.50153 -0.478725 0
M  V30 10186 C 977.987 -1.67916 -1.56003 0
M  V30 10187 C 978.987 -0.550111 -1.51097 0
M  V30 10188 O 980.177 -0.817001 -1.53853 0
M  V30 10189 C 977.309 -1.6973 -2.95643 0
M  V30 10190 H 978.502 -2.6438 -1.41573 0
M  V30 10191 H 976.055 -1.39519 -0.704565 0
M  V30 10192 H 976.79 -0.749306 -3.15525 0
M  V30 10193 H 976.575 -2.51745 -3.00611 0
M  V30 10194 H 978.065 -1.85453 -3.74162 0
M  V30 10195 N 978.502 0.731368 -1.39602 0
M  V30 10196 C 979.75 1.48805 -1.36753 0
M  V30 10197 C 980.071 1.94969 0.034676 0
M  V30 10198 O 979.341 1.69243 0.986591 0
M  V30 10199 H 977.921 0.55203 -0.503261 0
M  V30 10200 H 980.583 0.868013 -1.74504 0
M  V30 10201 H 979.679 2.36844 -2.03252 0
M  V30 10202 N 979.98 1.24838 0.961938 0
M  V30 10203 C 980.913 0.989041 2.05653 0
M  V30 10204 C 981.891 -0.079199 1.62407 0
M  V30 10205 O 983.075 0.0589397 1.88408 0
M  V30 10206 C 980.202 0.493661 3.35083 0
M  V30 10207 C 979.248 1.55132 3.97286 0
M  V30 10208 S 980.081 3.13438 4.34185 0
M  V30 10209 C 981.237 2.65617 5.66744 0
M  V30 10210 H 981.47 1.91588 2.27335 0
M  V30 10211 H 979.003 1.08287 1.10061 0
M  V30 10212 H 980.961 0.214482 4.09939 0
M  V30 10213 H 979.622 -0.412559 3.11379 0
M  V30 10214 H 978.815 1.15525 4.90581 0
M  V30 10215 H 978.417 1.78081 3.28882 0
M  V30 10216 H 980.709 2.08788 6.44526 0
M  V30 10217 H 981.652 3.57524 6.11214 0
M  V30 10218 H 982.06 2.05853 5.25628 0
M  V30 10219 N 981.458 -1.16348 1.06306 0
M  V30 10220 C 982.704 -1.87158 0.781007 0
M  V30 10221 C 983.037 -1.81499 -0.690784 0
M  V30 10222 O 982.312 -1.23074 -1.50609 0
M  V30 10223 C 982.595 -3.3672 1.27639 0
M  V30 10224 C 982.448 -3.51069 2.81194 0
M  V30 10225 C 983.767 -4.31122 0.884388 0
M  V30 10226 H 980.886 -0.679586 0.285187 0
M  V30 10227 H 983.528 -1.36756 1.31901 0
M  V30 10228 H 981.678 -3.79775 0.818715 0
M  V30 10229 H 983.35 -3.16952 3.35171 0
M  V30 10230 H 981.593 -2.92976 3.19918 0
M  V30 10231 H 982.264 -4.56105 3.10921 0
M  V30 10232 H 984.74 -3.95969 1.27858 0
M  V30 10233 H 983.616 -5.34279 1.25847 0
M  V30 10234 H 983.877 -4.41598 -0.210673 0
M  V30 10235 N 982.937 -0.845659 -1.3299 0
M  V30 10236 C 984.167 -0.457686 -2.01467 0
M  V30 10237 C 984.575 0.947664 -1.63756 0
M  V30 10238 O 983.918 1.62841 -0.850213 0
M  V30 10239 C 983.98 -0.506589 -3.55913 0
M  V30 10240 C 983.644 -1.86924 -4.17023 0
M  V30 10241 C 984.641 -2.83344 -4.35904 0
M  V30 10242 C 982.326 -2.16394 -4.53298 0
M  V30 10243 C 984.32 -4.07391 -4.90216 0
M  V30 10244 C 982.007 -3.40695 -5.07316 0
M  V30 10245 C 983.005 -4.3601 -5.25722 0
M  V30 10246 O 982.693 -5.58112 -5.7859 0
M  V30 10247 H 982.425 -0.179258 -0.651799 0
M  V30 10248 H 984.979 -1.14172 -1.70745 0
M  V30 10249 H 983.209 0.234253 -3.8599 0
M  V30 10250 H 984.898 -0.135487 -4.05674 0
M  V30 10251 H 985.664 -2.61879 -4.08221 0
M  V30 10252 H 981.543 -1.42994 -4.38262 0
M  V30 10253 H 985.087 -4.81796 -5.04498 0
M  V30 10254 H 980.984 -3.62014 -5.3443 0
M  V30 10255 H 981.752 -5.59946 -5.96995 0
M  V30 10256 N 984.415 1.45619 -0.602734 0
M  V30 10257 C 985.345 2.33258 0.106342 0
M  V30 10258 C 986.326 1.46543 0.863664 0
M  V30 10259 O 987.511 1.75324 0.835175 0
M  V30 10260 C 984.641 3.29168 1.10751 0
M  V30 10261 C 983.595 4.25481 0.463717 0
M  V30 10262 C 982.921 5.11046 1.57278 0
M  V30 10263 C 984.221 5.18702 -0.61199 0
M  V30 10264 H 985.915 2.92795 -0.625423 0
M  V30 10265 H 983.461 1.40793 -0.302213 0
M  V30 10266 H 985.414 3.89346 1.61208 0
M  V30 10267 H 984.138 2.6778 1.8698 0
M  V30 10268 H 982.797 3.66595 -0.0199496 0
M  V30 10269 H 982.445 4.46029 2.32524 0
M  V30 10270 H 982.145 5.76286 1.14755 0
M  V30 10271 H 983.669 5.74091 2.07972 0
M  V30 10272 H 985.083 5.72979 -0.191686 0
M  V30 10273 H 983.48 5.92393 -0.958686 0
M  V30 10274 H 984.55 4.61424 -1.4905 0
M  V30 10275 N 985.893 0.34162 1.53853 0
M  V30 10276 C 986.856 -0.503541 2.236 0
M  V30 10277 C 987.856 -1.02912 1.23554 0
M  V30 10278 O 989.046 -0.918678 1.48007 0
M  V30 10279 C 986.178 -1.70126 2.95415 0
M  V30 10280 H 987.371 0.106437 2.99711 0
M  V30 10281 H 984.924 0.0929408 1.56023 0
M  V30 10282 H 985.659 -2.34999 2.23486 0
M  V30 10283 H 985.444 -1.33161 3.68796 0
M  V30 10284 H 986.934 -2.30077 3.48503 0
M  V30 10285 N 987.371 -1.57444 0.0701946 0
M  V30 10286 C 988.596 -1.98171 -0.61181 0
M  V30 10287 C 989.021 -0.94823 -1.62451 0
M  V30 10288 O 988.379 0.0863553 -1.81094 0
M  V30 10289 C 988.427 -3.37934 -1.2583 0
M  V30 10290 O 987.531 -3.37207 -2.37414 0
M  V30 10291 H 986.872 -0.645056 -0.157477 0
M  V30 10292 H 989.402 -2.04091 0.144235 0
M  V30 10293 H 989.412 -3.75083 -1.60552 0
M  V30 10294 H 988.087 -4.12684 -0.516234 0
M  V30 10295 H 986.664 -3.11826 -2.04497 0
M  V30 10296 N 988.849 0.203349 -1.56283 0
M  V30 10297 C 989.781 1.27592 -1.90402 0
M  V30 10298 C 990.794 1.4213 -0.79391 0
M  V30 10299 O 991.983 1.42703 -1.07229 0
M  V30 10300 C 989.083 2.64919 -2.11356 0
M  V30 10301 C 988.256 2.72095 -3.42466 0
M  V30 10302 C 987.315 3.9056 -3.52631 0
M  V30 10303 O 986.341 3.78048 -4.25521 0
M  V30 10304 N 987.543 5.0566 -2.85111 0
M  V30 10305 H 990.308 0.986423 -2.83001 0
M  V30 10306 H 987.869 0.39331 -1.5705 0
M  V30 10307 H 989.861 3.42581 -2.15453 0
M  V30 10308 H 988.431 2.86391 -1.25295 0
M  V30 10309 H 987.651 1.8077 -3.50308 0
M  V30 10310 H 988.939 2.73874 -4.28801 0
M  V30 10311 H 988.337 5.18723 -2.25705 0
M  V30 10312 H 986.894 5.81299 -2.94847 0
M  V30 10313 N 990.327 1.50405 0.470755 0
M  V30 10314 C 991.277 1.65681 1.56633 0
M  V30 10315 C 992.261 0.511424 1.52556 0
M  V30 10316 O 993.453 0.765844 1.59574 0
M  V30 10317 C 990.582 1.7546 2.95074 0
M  V30 10318 C 989.668 2.95676 3.04034 0
M  V30 10319 N 990.059 4.1935 2.82807 0
M  V30 10320 C 988.357 2.94241 3.35169 0
M  V30 10321 C 989.058 5.0032 2.96741 0
M  V30 10322 N 988.034 4.34282 3.26956 0
M  V30 10323 H 991.836 2.58994 1.38922 0
M  V30 10324 H 989.35 1.47593 0.67749 0
M  V30 10325 H 991.347 1.84508 3.73848 0
M  V30 10326 H 990.007 0.833057 3.13832 0
M  V30 10327 H 991.018 4.48842 2.58382 0
M  V30 10328 H 987.695 2.11587 3.59913 0
M  V30 10329 H 989.085 6.08664 2.84566 0
M  V30 10330 N 991.805 -0.723954 1.39988 0
M  V30 10331 C 993.052 -1.48371 1.37812 0
M  V30 10332 C 993.38 -1.94487 -0.0223285 0
M  V30 10333 O 992.635 -1.67906 -1.00529 0
M  V30 10334 C 992.934 -2.73004 2.30659 0
M  V30 10335 C 992.6 -2.45698 3.78078 0
M  V30 10336 C 991.262 -2.37961 4.18244 0
M  V30 10337 C 993.614 -2.22601 4.71273 0
M  V30 10338 C 990.942 -2.05183 5.49652 0
M  V30 10339 C 993.294 -1.91339 6.0297 0
M  V30 10340 C 991.958 -1.82078 6.42187 0
M  V30 10341 H 991.228 -0.542929 0.504291 0
M  V30 10342 H 993.875 -0.829986 1.72579 0
M  V30 10343 H 992.18 -3.43174 1.89048 0
M  V30 10344 H 993.877 -3.31068 2.26263 0
M  V30 10345 H 990.467 -2.52603 3.46251 0
M  V30 10346 H 994.651 -2.2754 4.41066 0
M  V30 10347 H 989.907 -1.96544 5.78948 0
M  V30 10348 H 994.081 -1.72479 6.74703 0
M  V30 10349 H 991.708 -1.56446 7.43928 0
M  V30 10350 N 993.283 -1.25346 -0.955304 0
M  V30 10351 C 994.529 -1.10218 -1.70235 0
M  V30 10352 C 994.862 0.356124 -1.90907 0
M  V30 10353 O 994.137 1.26253 -1.47954 0
M  V30 10354 C 994.42 -1.85627 -3.08569 0
M  V30 10355 C 994.273 -3.39281 -2.95311 0
M  V30 10356 C 995.592 -1.63886 -4.08448 0
M  V30 10357 H 992.711 -0.401781 -0.617852 0
M  V30 10358 H 995.353 -1.5417 -1.11048 0
M  V30 10359 H 993.503 -1.48269 -3.59094 0
M  V30 10360 H 995.175 -3.8631 -2.52116 0
M  V30 10361 H 993.418 -3.67027 -2.31244 0
M  V30 10362 H 994.089 -3.87258 -3.93364 0
M  V30 10363 H 996.565 -1.96406 -3.6683 0
M  V30 10364 H 995.441 -2.19087 -5.03281 0
M  V30 10365 H 995.702 -0.580021 -4.38279 0
M  V30 10366 N 994.761 1.15782 -1.06922 0
M  V30 10367 C 995.711 2.18373 -0.655537 0
M  V30 10368 C 996.695 1.57745 0.317084 0
M  V30 10369 O 997.887 1.76511 0.131509 0
M  V30 10370 C 995.016 3.43263 -0.0502314 0
M  V30 10371 C 994.102 4.10954 -1.04773 0
M  V30 10372 N 994.493 4.542 -2.22567 0
M  V30 10373 C 992.791 4.3723 -0.880087 0
M  V30 10374 C 993.492 5.06641 -2.85815 0
M  V30 10375 N 992.468 4.99917 -2.13505 0
M  V30 10376 H 996.27 2.49533 -1.55276 0
M  V30 10377 H 993.784 1.32303 -0.941793 0
M  V30 10378 H 995.781 4.16063 0.264003 0
M  V30 10379 H 994.441 3.13588 0.842167 0
M  V30 10380 H 995.452 4.47727 -2.60309 0
M  V30 10381 H 992.129 4.17481 -0.0402148 0
M  V30 10382 H 993.519 5.50092 -3.85808 0
M  V30 10383 N 996.239 0.8527 1.3254 0
M  V30 10384 C 997.655 0.542298 1.50104 0
M  V30 10385 C 997.855 -0.927465 1.78886 0
M  V30 10386 O 996.911 -1.7106 1.85728 0
M  V30 10387 C 998.224 1.4276 2.64651 0
M  V30 10388 C 999.772 1.42782 2.78536 0
M  V30 10389 C 1000.25 2.29828 3.9616 0
M  V30 10390 N 1001.74 2.27613 4.03418 0
M  V30 10391 C 1002.47 2.91696 4.93661 0
M  V30 10392 N 1001.97 3.64883 5.88925 0
M  V30 10393 N 1003.76 2.81094 4.86768 0
M  V30 10394 H 995.913 1.80395 1.12123 0
M  V30 10395 H 998.176 0.770394 0.552446 0
M  V30 10396 H 997.882 2.47266 2.50105 0
M  V30 10397 H 997.756 1.11358 3.60388 0
M  V30 10398 H 1000.14 0.390417 2.92506 0
M  V30 10399 H 1000.22 1.78198 1.83519 0
M  V30 10400 H 999.868 3.33635 3.82949 0
M  V30 10401 H 999.798 1.91746 4.9045 0
M  V30 10402 H 1002.29 1.74402 3.3525 0
M  V30 10403 H 1002.6 4.10952 6.54476 0
M  V30 10404 H 1000.95 3.68991 5.88957 0
M  V30 10405 H 1004.14 2.23469 4.11314 0
M  V30 10406 H 1004.31 3.31318 5.56895 0
M  V30 10407 N 997.718 -1.45297 0.610449 0
M  V30 10408 C 998.995 -1.95562 0.0386189 0
M  V30 10409 C 999.375 -1.55284 -1.43004 0
M  V30 10410 O 998.723 -0.816785 -2.13403 0
M  V30 10411 C 998.933 -3.48176 0.239731 0
M  V30 10412 C 1000.28 -4.24425 0.122035 0
M  V30 10413 O 1001.3 -3.55794 0.170003 0
M  V30 10414 O 1000.16 -5.46499 0.00953695 0
M  V30 10415 H 997.258 -0.826296 -0.0341081 0
M  V30 10416 H 999.804 -1.55449 0.68071 0
M  V30 10417 H 998.576 -3.70471 1.25963 0
M  V30 10418 H 998.199 -3.95186 -0.437486 0
M  V30 10419 N 999.196 -0.349774 -1.5367 0
M  V30 10420 C 1000.13 0.496338 -2.28164 0
M  V30 10421 C 1001.11 1.09737 -1.29968 0
M  V30 10422 O 1002.29 1.11759 -1.58819 0
M  V30 10423 C 999.422 1.64428 -3.0591 0
M  V30 10424 C 998.376 1.17127 -4.11661 0
M  V30 10425 C 997.702 2.40822 -4.77398 0
M  V30 10426 C 999.002 0.267293 -5.21616 0
M  V30 10427 H 1000.7 -0.125117 -2.99138 0
M  V30 10428 H 998.242 -0.0616152 -1.43868 0
M  V30 10429 H 1000.19 2.2427 -3.56765 0
M  V30 10430 H 998.919 2.29272 -2.32598 0
M  V30 10431 H 997.578 0.595634 -3.61729 0
M  V30 10432 H 997.226 3.04088 -4.00674 0
M  V30 10433 H 996.926 2.09852 -5.48849 0
M  V30 10434 H 998.45 3.01378 -5.3104 0
M  V30 10435 H 999.864 0.772734 -5.68068 0
M  V30 10436 H 998.261 0.0491991 -6.0008 0
M  V30 10437 H 999.331 -0.694892 -4.79895 0
M  V30 10438 N 1000.67 1.57404 -0.0785433 0
M  V30 10439 C 1001.64 2.11977 0.871693 0
M  V30 10440 C 1002.64 1.04529 1.2219 0
M  V30 10441 O 1003.83 1.30488 1.15406 0
M  V30 10442 C 1000.96 2.6267 2.17296 0
M  V30 10443 H 1002.15 2.97246 0.398115 0
M  V30 10444 H 999.705 1.5537 0.170251 0
M  V30 10445 H 1000.44 1.80873 2.69175 0
M  V30 10446 H 1000.22 3.41214 1.93171 0
M  V30 10447 H 1001.71 3.04943 2.85306 0
M  V30 10448 N 1002.15 -0.195058 1.56388 0
M  V30 10449 C 1003.38 -0.931642 1.84738 0
M  V30 10450 C 1003.79 -1.76849 0.661046 0
M  V30 10451 O 1003.15 -1.78705 -0.370241 0
M  V30 10452 C 1003.2 -1.82777 3.11889 0
M  V30 10453 O 1002.92 -1.02471 4.25948 0
M  V30 10454 C 1004.42 -2.67603 3.53417 0
M  V30 10455 H 1001.64 -0.271821 0.613477 0
M  V30 10456 H 1004.19 -0.202299 2.03497 0
M  V30 10457 H 1002.34 -2.51074 2.95027 0
M  V30 10458 H 1002.76 -1.63539 4.98353 0
M  V30 10459 H 1004.23 -3.26138 4.45352 0
M  V30 10460 H 1004.71 -3.41314 2.76408 0
M  V30 10461 H 1005.31 -2.04678 3.7281 0
M  V30 10462 N 1003.63 -1.50653 -0.462772 0
M  V30 10463 C 1005.05 -1.38263 -0.797213 0
M  V30 10464 C 1005.25 -0.445172 -1.96521 0
M  V30 10465 O 1004.3 0.10913 -2.52264 0
M  V30 10466 C 1005.61 -2.798 -1.10146 0
M  V30 10467 C 1007.16 -2.88774 -1.20742 0
M  V30 10468 C 1007.64 -4.31163 -1.54476 0
M  V30 10469 N 1009.13 -4.34152 -1.61451 0
M  V30 10470 C 1009.86 -5.4133 -1.89074 0
M  V30 10471 N 1009.36 -6.58705 -2.1466 0
M  V30 10472 N 1011.15 -5.28783 -1.90645 0
M  V30 10473 H 1003.3 -2.10172 0.30684 0
M  V30 10474 H 1005.57 -0.945046 0.0747862 0
M  V30 10475 H 1005.27 -3.50276 -0.316207 0
M  V30 10476 H 1005.15 -3.17559 -2.03559 0
M  V30 10477 H 1007.53 -2.18512 -1.98334 0
M  V30 10478 H 1007.61 -2.54547 -0.252904 0
M  V30 10479 H 1007.26 -5.01965 -0.774207 0
M  V30 10480 H 1007.19 -4.62883 -2.51092 0
M  V30 10481 H 1009.68 -3.49519 -1.43684 0
M  V30 10482 H 1009.99 -7.36192 -2.35035 0
M  V30 10483 H 1008.34 -6.61866 -2.12035 0
M  V30 10484 H 1011.53 -4.36078 -1.70158 0
M  V30 10485 H 1011.7 -6.12396 -2.11836 0
M  V30 10486 N 1005.11 0.71652 -1.4037 0
M  V30 10487 C 1006.06 1.85194 -1.40734 0
M  V30 10488 C 1007.05 1.66934 -0.287969 0
M  V30 10489 O 1008.26 1.74051 -0.458957 0
M  V30 10490 H 1004.63 0.609922 -0.439885 0
M  V30 10491 H 1006.6 1.82003 -2.36468 0
M  V30 10492 C 1005.35 3.23048 -1.28589 0
M  V30 10493 H 1004.67 3.37704 -2.13999 0
M  V30 10494 H 1006.11 4.02633 -1.32902 0
M  V30 10495 C 1004.57 3.369 0.00396512 0
M  V30 10496 O 1005.1 3.89881 0.967243 0
M  V30 10497 N 1003.31 2.90508 0.0731565 0
M  V30 10498 H 1002.86 2.4758 -0.711454 0
M  V30 10499 H 1002.81 3.00155 0.935652 0
M  V30 10500 N 1006.59 1.25851 0.948643 0
M  V30 10501 C 1007.83 1.12166 1.70874 0
M  V30 10502 C 1008.19 -0.330734 1.8913 0
M  V30 10503 O 1009.39 -0.58954 2.62255 0
M  V30 10504 C 1007.66 1.86162 3.05088 0
M  V30 10505 S 1009.22 1.88441 3.96277 0
M  V30 10506 H 1006.04 0.400803 0.587263 0
M  V30 10507 H 1008.64 1.59463 1.13101 0
M  V30 10508 H 1007.35 2.90916 2.89476 0
M  V30 10509 H 1006.88 1.39276 3.67921 0
M  V30 10510 H 1008.89 0.96575 4.86711 0
M  V30 10511 N 1008.06 -1.15214 1.07534 0
M  V30 10512 C 1008.99 -2.2216 0.718837 0
M  V30 10513 C 1009.98 -1.6753 -0.29459 0
M  V30 10514 O 1011.16 -1.93481 -0.166931 0
M  V30 10515 C 1008.29 -3.471 0.117836 0
M  V30 10516 C 1007.24 -4.14701 1.05862 0
M  V30 10517 C 1006.57 -5.3374 0.320284 0
M  V30 10518 C 1007.87 -4.64254 2.39302 0
M  V30 10519 H 1009.56 -2.52237 1.61297 0
M  V30 10520 H 1007.11 -1.21239 0.776992 0
M  V30 10521 H 1009.06 -4.21156 -0.143519 0
M  V30 10522 H 1007.79 -3.16361 -0.811389 0
M  V30 10523 H 1006.45 -3.42589 1.30493 0
M  V30 10524 H 1006.09 -4.99257 -0.61246 0
M  V30 10525 H 1005.79 -5.79912 0.947381 0
M  V30 10526 H 1007.32 -6.10563 0.0667721 0
M  V30 10527 H 1008.73 -5.29827 2.18988 0
M  V30 10528 H 1007.13 -5.21095 2.97623 0
M  V30 10529 H 1008.2 -3.79793 3.01472 0
M  V30 10530 N 1009.54 -0.859717 -1.32086 0
M  V30 10531 C 1010.79 -0.466271 -1.97367 0
M  V30 10532 C 1011.12 0.976728 -1.6785 0
M  V30 10533 O 1010.4 1.68618 -0.969449 0
M  V30 10534 C 1010.68 -0.711851 -3.52994 0
M  V30 10535 C 1010.53 -2.20364 -3.92122 0
M  V30 10536 C 1011.85 -0.17156 -4.39765 0
M  V30 10537 H 1008.97 -0.170883 -0.716916 0
M  V30 10538 H 1011.61 -1.07907 -1.56384 0
M  V30 10539 H 1009.76 -0.190258 -3.88034 0
M  V30 10540 H 1011.43 -2.7917 -3.67236 0
M  V30 10541 H 1009.68 -2.68019 -3.41099 0
M  V30 10542 H 1010.35 -2.32615 -5.00594 0
M  V30 10543 H 1012.82 -0.617665 -4.1149 0
M  V30 10544 H 1011.7 -0.372921 -5.47632 0
M  V30 10545 H 1011.96 0.925959 -4.32294 0
M  V30 10546 N 1011.02 1.44971 -0.618145 0
M  V30 10547 C 1012.27 2.0176 -0.11725 0
M  V30 10548 C 1012.59 1.48773 1.26062 0
M  V30 10549 O 1011.86 0.686152 1.83491 0
M  V30 10550 H 1010.44 0.745909 -0.0403545 0
M  V30 10551 H 1013.1 1.77638 -0.801923 0
M  V30 10552 H 1012.2 3.1201 -0.0750477 0
M  V30 10553 N 1012.5 0.357919 1.53482 0
M  V30 10554 C 1013.41 -0.500273 2.29204 0
M  V30 10555 C 1014.42 -1.09936 1.3487 0
M  V30 10556 O 1015.6 -1.11195 1.67921 0
M  V30 10557 C 1012.67 -1.62828 3.06085 0
M  V30 10558 C 1011.73 -1.05751 4.16071 0
M  V30 10559 C 1010.96 -2.13176 4.89277 0
M  V30 10560 O 1011.18 -3.34153 4.62274 0
M  V30 10561 O 1010.12 -1.76663 5.7539 0
M  V30 10562 H 1013.94 0.115696 3.0348 0
M  V30 10563 H 1011.53 0.122527 1.48897 0
M  V30 10564 H 1013.41 -2.28427 3.54117 0
M  V30 10565 H 1012.08 -2.22979 2.34653 0
M  V30 10566 H 1010.99 -0.365642 3.72309 0
M  V30 10567 H 1012.32 -0.500661 4.89647 0
M  V30 10568 N 1013.98 -1.5736 0.0868897 0
M  V30 10569 C 1014.92 -2.14793 -0.892571 0
M  V30 10570 C 1015.92 -1.08866 -1.29787 0
M  V30 10571 O 1017.12 -1.27223 -1.27335 0
M  V30 10572 H 1013.5 -0.686998 -0.305838 0
M  V30 10573 H 1015.47 -2.95927 -0.383393 0
M  V30 10574 C 1014.22 -2.73646 -2.14507 0
M  V30 10575 H 1013.54 -3.54835 -1.84207 0
M  V30 10576 H 1014.98 -3.17409 -2.81118 0
M  V30 10577 C 1013.44 -1.69138 -2.91366 0
M  V30 10578 O 1013.97 -1.12539 -3.85614 0
M  V30 10579 N 1012.18 -1.3982 -2.54752 0
M  V30 10580 H 1011.72 -1.86035 -1.78182 0
M  V30 10581 H 1011.68 -0.701316 -3.06478 0
M  V30 10582 N 1015.45 0.186762 -1.56489 0
M  V30 10583 C 1016.38 1.23395 -1.98232 0
M  V30 10584 C 1017.37 1.4702 -0.855526 0
M  V30 10585 O 1018.55 1.58616 -1.12048 0
M  V30 10586 C 1015.68 2.57635 -2.32898 0
M  V30 10587 C 1014.63 2.48607 -3.48394 0
M  V30 10588 C 1013.96 3.87196 -3.68759 0
M  V30 10589 C 1015.26 2.00398 -4.82325 0
M  V30 10590 H 1016.95 0.887026 -2.85958 0
M  V30 10591 H 1014.5 0.42525 -1.37578 0
M  V30 10592 H 1016.45 3.31082 -2.60696 0
M  V30 10593 H 1015.18 2.94084 -1.42064 0
M  V30 10594 H 1013.84 1.77615 -3.207 0
M  V30 10595 H 1013.48 4.21012 -2.75241 0
M  V30 10596 H 1013.18 3.82029 -4.46462 0
M  V30 10597 H 1014.71 4.62253 -3.98941 0
M  V30 10598 H 1016.12 2.6361 -5.091 0
M  V30 10599 H 1014.52 2.06214 -5.63556 0
M  V30 10600 H 1015.59 0.957562 -4.75351 0
M  V30 10601 N 1016.93 1.50896 0.454776 0
M  V30 10602 C 1017.86 1.73885 1.5584 0
M  V30 10603 C 1018.84 0.588172 1.59607 0
M  V30 10604 O 1020.03 0.829054 1.75614 0
M  V30 10605 C 1017.16 1.84796 2.94054 0
M  V30 10606 C 1016.11 3.00111 3.05152 0
M  V30 10607 C 1015.44 2.96183 4.45174 0
M  V30 10608 C 1016.74 4.40365 2.80849 0
M  V30 10609 H 1018.43 2.66292 1.36854 0
M  V30 10610 H 1015.98 1.28142 0.656936 0
M  V30 10611 H 1017.93 1.99462 3.71204 0
M  V30 10612 H 1016.66 0.890235 3.14233 0
M  V30 10613 H 1015.31 2.85121 2.30438 0
M  V30 10614 H 1014.96 1.98224 4.62295 0
M  V30 10615 H 1014.66 3.73608 4.53532 0
M  V30 10616 H 1016.19 3.1292 5.24322 0
M  V30 10617 H 1017.6 4.55795 3.47741 0
M  V30 10618 H 1016 5.19363 3.00636 0
M  V30 10619 H 1017.07 4.51606 1.76579 0
M  V30 10620 N 1018.41 -0.709066 1.40748 0
M  V30 10621 C 1019.66 -1.47119 1.39585 0
M  V30 10622 C 1019.99 -1.942 0.000245323 0
M  V30 10623 O 1019.26 -1.68609 -0.969593 0
M  V30 10624 C 1019.55 -2.69266 2.39099 0
M  V30 10625 C 1019.4 -2.28037 3.8771 0
M  V30 10626 C 1020.72 -3.71438 2.36055 0
M  V30 10627 H 1017.84 -0.533632 0.508336 0
M  V30 10628 H 1020.48 -0.808718 1.7193 0
M  V30 10629 H 1018.63 -3.25788 2.11647 0
M  V30 10630 H 1020.3 -1.76946 4.26014 0
M  V30 10631 H 1018.55 -1.59966 4.03229 0
M  V30 10632 H 1019.22 -3.15621 4.52866 0
M  V30 10633 H 1021.69 -3.24559 2.60385 0
M  V30 10634 H 1020.57 -4.54532 3.07721 0
M  V30 10635 H 1020.83 -4.20193 1.37443 0
M  V30 10636 N 1019.89 -1.26353 -0.941956 0
M  V30 10637 C 1020.84 -1.07842 -2.04056 0
M  V30 10638 C 1021.81 0.0163064 -1.66092 0
M  V30 10639 O 1022.99 -0.143313 -1.90261 0
M  V30 10640 C 1020.13 -0.716636 -3.37577 0
M  V30 10641 C 1019.24 -1.88754 -3.88582 0
M  V30 10642 C 1018.38 -1.46893 -5.10486 0
M  V30 10643 C 1017.42 -2.60819 -5.53751 0
M  V30 10644 N 1016.56 -2.19646 -6.66858 0
M  V30 10645 H 1021.4 -2.01856 -2.19221 0
M  V30 10646 H 1018.93 -1.00504 -1.07412 0
M  V30 10647 H 1020.89 -0.487768 -4.14339 0
M  V30 10648 H 1019.52 0.18653 -3.22261 0
M  V30 10649 H 1018.57 -2.22936 -3.08227 0
M  V30 10650 H 1019.88 -2.74264 -4.1663 0
M  V30 10651 H 1019.04 -1.20047 -5.94705 0
M  V30 10652 H 1017.78 -0.584721 -4.84182 0
M  V30 10653 H 1016.78 -2.88396 -4.6809 0
M  V30 10654 H 1018.01 -3.49838 -5.82057 0
M  V30 10655 H 1015.95 -1.33657 -6.4224 0
M  V30 10656 H 1015.87 -2.987 -6.94489 0
M  V30 10657 H 1017.14 -1.96009 -7.54454 0
M  V30 10658 N 1021.37 1.14642 -1.08144 0
M  V30 10659 C 1022.62 1.84964 -0.804437 0
M  V30 10660 C 1022.93 1.8369 0.672106 0
M  V30 10661 O 1024.14 2.49775 1.06417 0
M  V30 10662 C 1022.59 3.32015 -1.38904 0
M  V30 10663 C 1022.2 3.41713 -2.89718 0
M  V30 10664 C 1023.94 4.07467 -1.19041 0
M  V30 10665 C 1021.85 4.82958 -3.41329 0
M  V30 10666 H 1020.78 0.692932 -0.297256 0
M  V30 10667 H 1023.43 1.29255 -1.30251 0
M  V30 10668 H 1021.81 3.87445 -0.818679 0
M  V30 10669 H 1022.99 2.96347 -3.52867 0
M  V30 10670 H 1021.3 2.79713 -3.08463 0
M  V30 10671 H 1023.9 5.1172 -1.55069 0
M  V30 10672 H 1024.24 4.16097 -0.130027 0
M  V30 10673 H 1024.78 3.58329 -1.72757 0
M  V30 10674 H 1021.51 4.79515 -4.46929 0
M  V30 10675 H 1021.03 5.28873 -2.82937 0
M  V30 10676 H 1022.71 5.51841 -3.37759 0
M  V30 10677 N 1022.85 0.866709 1.31628 0
M  V30 10678 C 1024.09 0.475086 1.96437 0
M  V30 10679 C 1024.41 -0.975179 1.68865 0
M  V30 10680 O 1023.68 -1.68317 1.0023 0
M  V30 10681 H 1022.26 0.172695 0.726764 0
M  V30 10682 H 1024.93 1.10578 1.60494 0
M  V30 10683 H 1024.02 0.630123 3.05673 0
M  V30 10684 N 1024.32 -1.44642 0.625825 0
M  V30 10685 C 1025.6 -1.9551 0.0593587 0
M  V30 10686 C 1025.98 -1.56792 -1.41349 0
M  V30 10687 O 1025.33 -0.839373 -2.12525 0
M  V30 10688 C 1025.54 -3.47902 0.276647 0
M  V30 10689 C 1026.89 -4.24271 0.167044 0
M  V30 10690 O 1027.91 -3.55594 0.207731 0
M  V30 10691 O 1026.77 -5.46458 0.0675 0
M  V30 10692 H 1023.86 -0.826612 -0.0253422 0
M  V30 10693 H 1026.41 -1.54718 0.697159 0
M  V30 10694 H 1025.18 -3.69115 1.29885 0
M  V30 10695 H 1024.8 -3.95628 -0.395547 0
M  V30 10696 N 1025.8 -0.366053 -1.5329 0
M  V30 10697 C 1027.05 0.223493 -2.01263 0
M  V30 10698 C 1027.38 1.48736 -1.25331 0
M  V30 10699 O 1026.63 1.92805 -0.335341 0
M  V30 10700 C 1026.93 0.560906 -3.52971 0
M  V30 10701 C 1026.6 -0.60869 -4.46773 0
M  V30 10702 C 1025.26 -0.929609 -4.72135 0
M  V30 10703 C 1027.61 -1.39225 -5.02261 0
M  V30 10704 C 1024.94 -2.03606 -5.50238 0
M  V30 10705 C 1027.29 -2.48912 -5.81572 0
M  V30 10706 C 1025.95 -2.81538 -6.05221 0
M  V30 10707 H 1025.22 0.0817818 -0.736473 0
M  V30 10708 H 1027.87 -0.498613 -1.84895 0
M  V30 10709 H 1026.18 1.36403 -3.67289 0
M  V30 10710 H 1027.87 1.02931 -3.87564 0
M  V30 10711 H 1024.46 -0.348529 -4.27181 0
M  V30 10712 H 1028.65 -1.15757 -4.82612 0
M  V30 10713 H 1023.9 -2.29281 -5.6678 0
M  V30 10714 H 1028.08 -3.10044 -6.23575 0
M  V30 10715 H 1025.7 -3.67396 -6.65525 0
M  V30 10716 N 1027.28 1.57312 -0.0952337 0
M  V30 10717 C 1028.53 1.93974 0.567319 0
M  V30 10718 C 1028.85 0.977805 1.68713 0
M  V30 10719 O 1028.12 0.0298944 1.95877 0
M  V30 10720 H 1026.7 0.71612 0.212558 0
M  V30 10721 H 1029.36 1.94254 -0.158598 0
M  V30 10722 H 1028.46 2.964 0.977423 0
M  V30 10723 N 1028.76 -0.17846 1.56586 0
M  V30 10724 C 1029.69 -1.2496 1.90946 0
M  V30 10725 C 1030.67 -1.43136 0.771424 0
M  V30 10726 O 1031.85 -1.58258 1.02405 0
M  V30 10727 C 1028.98 -2.61368 2.15417 0
M  V30 10728 C 1028.03 -2.59969 3.3811 0
M  V30 10729 S 1028.86 -2.09756 4.9271 0
M  V30 10730 C 1030.01 -3.47956 5.20267 0
M  V30 10731 H 1030.25 -0.956287 2.815 0
M  V30 10732 H 1027.78 -0.382709 1.49582 0
M  V30 10733 H 1029.74 -3.39882 2.30197 0
M  V30 10734 H 1028.4 -2.87903 1.25582 0
M  V30 10735 H 1027.59 -3.60309 3.52411 0
M  V30 10736 H 1027.19 -1.89547 3.2241 0
M  V30 10737 H 1029.49 -4.43914 5.11807 0
M  V30 10738 H 1030.43 -3.38536 6.21932 0
M  V30 10739 H 1030.84 -3.43637 4.47855 0
M  V30 10740 N 1030.24 -1.51135 -0.446768 0
M  V30 10741 C 1031.46 -1.67411 -1.22427 0
M  V30 10742 C 1031.89 -0.367009 -1.84485 0
M  V30 10743 O 1031.24 0.67185 -1.68392 0
M  V30 10744 C 1031.29 -2.78473 -2.29096 0
M  V30 10745 O 1030.4 -2.41419 -3.34351 0
M  V30 10746 H 1029.74 -0.558512 -0.359111 0
M  V30 10747 H 1032.27 -1.97648 -0.5288 0
M  V30 10748 H 1032.28 -3.02277 -2.7403 0
M  V30 10749 H 1030.95 -3.73326 -1.83304 0
M  V30 10750 H 1029.53 -2.28152 -2.9496 0
M  V30 10751 N 1031.71 0.701592 -1.41122 0
M  V30 10752 C 1033.13 1.01143 -1.23459 0
M  V30 10753 C 1033.33 2.01144 -0.11968 0
M  V30 10754 O 1032.39 2.47132 0.517889 0
M  V30 10755 C 1033.7 1.54179 -2.58165 0
M  V30 10756 C 1035.25 1.66093 -2.65296 0
M  V30 10757 C 1035.72 2.22532 -4.00304 0
M  V30 10758 N 1037.21 2.299 -4.0212 0
M  V30 10759 C 1037.95 2.74584 -5.0338 0
M  V30 10760 N 1037.44 3.18917 -6.15032 0
M  V30 10761 N 1039.24 2.74094 -4.90743 0
M  V30 10762 H 1031.39 0.0390087 -2.12364 0
M  V30 10763 H 1033.65 0.0798848 -0.944628 0
M  V30 10764 H 1033.36 0.881587 -3.40472 0
M  V30 10765 H 1033.23 2.52488 -2.80231 0
M  V30 10766 H 1035.62 2.31227 -1.83352 0
M  V30 10767 H 1035.7 0.663461 -2.47046 0
M  V30 10768 H 1035.34 1.58016 -4.82694 0
M  V30 10769 H 1035.27 3.2302 -4.15891 0
M  V30 10770 H 1037.76 1.98607 -3.21502 0
M  V30 10771 H 1038.08 3.5162 -6.88174 0
M  V30 10772 H 1036.42 3.1684 -6.18577 0
M  V30 10773 H 1039.61 2.38804 -4.02604 0
M  V30 10774 H 1039.79 3.086 -5.69798 0
M  V30 10775 N 1033.19 1.2685 0.935242 0
M  V30 10776 C 1034.47 1.03483 1.65984 0
M  V30 10777 C 1034.85 -0.432859 2.06614 0
M  V30 10778 O 1034.2 -1.4145 1.79455 0
M  V30 10779 C 1034.41 1.98924 2.86758 0
M  V30 10780 C 1035.75 2.2787 3.58274 0
M  V30 10781 O 1036.78 1.96838 2.96873 0
M  V30 10782 O 1035.64 2.80734 4.68882 0
M  V30 10783 H 1032.73 0.393932 0.72715 0
M  V30 10784 H 1035.28 1.38085 0.986445 0
M  V30 10785 H 1034.05 2.9794 2.53668 0
M  V30 10786 H 1033.67 1.64839 3.6182 0
M  V30 10787 N 1034.67 -1.14067 1.0875 0
M  V30 10788 C 1035.92 -1.85459 0.82053 0
M  V30 10789 C 1036.25 -1.82923 -0.65213 0
M  V30 10790 O 1035.52 -1.26241 -1.47965 0
M  V30 10791 C 1035.81 -3.33937 1.34752 0
M  V30 10792 C 1035.66 -3.45026 2.88578 0
M  V30 10793 C 1036.98 -4.2915 0.975636 0
M  V30 10794 H 1034.1 -0.673384 0.299538 0
M  V30 10795 H 1036.74 -1.33927 1.34772 0
M  V30 10796 H 1034.89 -3.77953 0.899086 0
M  V30 10797 H 1036.56 -3.09771 3.41818 0
M  V30 10798 H 1034.81 -2.86124 3.26061 0
M  V30 10799 H 1035.48 -4.49408 3.20526 0
M  V30 10800 H 1037.95 -3.93168 1.36228 0
M  V30 10801 H 1036.83 -5.31489 1.37152 0
M  V30 10802 H 1037.09 -4.41945 -0.116956 0
M  V30 10803 N 1036.15 -0.873678 -1.31166 0
M  V30 10804 C 1037.38 -0.500317 -2.0045 0
M  V30 10805 C 1037.79 0.912716 -1.65729 0
M  V30 10806 O 1037.13 1.61001 -0.884563 0
M  V30 10807 C 1037.19 -0.58197 -3.54758 0
M  V30 10808 C 1036.86 -1.95728 -4.12964 0
M  V30 10809 C 1037.85 -2.92526 -4.29796 0
M  V30 10810 C 1035.54 -2.2596 -4.48606 0
M  V30 10811 C 1037.53 -4.17697 -4.81464 0
M  V30 10812 C 1035.22 -3.5138 -4.99976 0
M  V30 10813 C 1036.22 -4.47064 -5.16356 0
M  V30 10814 O 1035.9 -5.70259 -5.66621 0
M  V30 10815 H 1035.64 -0.193044 -0.64785 0
M  V30 10816 H 1038.19 -1.17768 -1.68285 0
M  V30 10817 H 1036.42 0.152326 -3.864 0
M  V30 10818 H 1038.11 -0.221506 -4.05295 0
M  V30 10819 H 1038.88 -2.70479 -4.02574 0
M  V30 10820 H 1034.75 -1.52258 -4.3513 0
M  V30 10821 H 1038.3 -4.92389 -4.94165 0
M  V30 10822 H 1034.2 -3.73269 -5.26631 0
M  V30 10823 H 1034.96 -5.72483 -5.84983 0
M  V30 10824 N 1037.63 1.44308 -0.633487 0
M  V30 10825 C 1038.85 2.06897 -0.144347 0
M  V30 10826 C 1039.28 1.47045 1.173 0
M  V30 10827 O 1038.63 0.572806 1.72013 0
M  V30 10828 C 1038.68 3.60571 -0.0456324 0
M  V30 10829 O 1037.79 4.0015 0.997682 0
M  V30 10830 H 1037.13 0.658427 -0.0858499 0
M  V30 10831 H 1039.66 1.85142 -0.870833 0
M  V30 10832 H 1039.67 4.07745 0.144178 0
M  V30 10833 H 1038.34 4.03515 -1.0074 0
M  V30 10834 H 1036.92 3.64603 0.782252 0
M  V30 10835 N 1039.1 0.374177 1.53094 0
M  V30 10836 C 1040.33 -0.213325 2.05797 0
M  V30 10837 C 1040.75 -1.41753 1.24706 0
M  V30 10838 O 1040.1 -1.80183 0.289868 0
M  V30 10839 C 1040.16 -0.598367 3.56513 0
M  V30 10840 O 1039.88 0.557983 4.34532 0
M  V30 10841 C 1041.38 -1.24334 4.25507 0
M  V30 10842 H 1038.6 -0.0357398 0.670048 0
M  V30 10843 H 1041.14 0.535035 1.97377 0
M  V30 10844 H 1039.3 -1.29663 3.65056 0
M  V30 10845 H 1039.71 0.244911 5.23928 0
M  V30 10846 H 1041.18 -1.46325 5.32253 0
M  V30 10847 H 1041.66 -2.20622 3.79766 0
M  V30 10848 H 1042.27 -0.586269 4.2124 0
M  V30 10849 N 1040.58 -1.57259 0.103575 0
M  V30 10850 C 1041.86 -1.86143 -0.600852 0
M  V30 10851 C 1042.24 -1.00198 -1.85805 0
M  V30 10852 O 1041.59 -0.0766791 -2.28371 0
M  V30 10853 C 1041.8 -3.36978 -0.908108 0
M  V30 10854 C 1043.15 -4.05228 -1.26788 0
M  V30 10855 O 1044.17 -3.41908 -0.998859 0
M  V30 10856 O 1043.03 -5.16971 -1.7721 0
M  V30 10857 H 1040.12 -0.770064 -0.301547 0
M  V30 10858 H 1042.67 -1.69147 0.136914 0
M  V30 10859 H 1041.44 -3.91296 -0.0165615 0
M  V30 10860 H 1041.06 -3.5935 -1.70156 0
M  V30 10861 N 1042.06 0.170153 -1.56679 0
M  V30 10862 C 1043.29 0.900826 -1.85927 0
M  V30 10863 C 1043.7 1.76285 -0.687033 0
M  V30 10864 O 1043.04 1.80276 0.353029 0
M  V30 10865 C 1043.1 1.82723 -3.096 0
M  V30 10866 C 1042.77 1.14469 -4.42432 0
M  V30 10867 C 1043.76 0.509598 -5.17396 0
M  V30 10868 C 1041.45 1.1411 -4.89167 0
M  V30 10869 C 1043.44 -0.119976 -6.37287 0
M  V30 10870 C 1041.13 0.507703 -6.08987 0
M  V30 10871 C 1042.13 -0.121731 -6.82892 0
M  V30 10872 O 1041.82 -0.74514 -8.00439 0
M  V30 10873 H 1041.55 0.267087 -0.621 0
M  V30 10874 H 1044.1 0.17474 -2.04655 0
M  V30 10875 H 1042.33 2.59367 -2.8682 0
M  V30 10876 H 1044.02 2.42784 -3.25285 0
M  V30 10877 H 1044.79 0.504341 -4.82371 0
M  V30 10878 H 1040.67 1.62043 -4.31582 0
M  V30 10879 H 1044.21 -0.611872 -6.94911 0
M  V30 10880 H 1040.11 0.510548 -6.43478 0
M  V30 10881 H 1040.88 -0.644506 -8.15959 0
M  V30 10882 N 1043.54 1.5137 0.438746 0
M  V30 10883 C 1044.77 1.6753 1.20901 0
M  V30 10884 C 1045.18 0.371573 1.85515 0
M  V30 10885 O 1044.52 -0.659701 1.71446 0
M  V30 10886 C 1044.58 2.73305 2.33548 0
M  V30 10887 C 1044.25 4.15944 1.89313 0
M  V30 10888 C 1045.24 5.00769 1.39736 0
M  V30 10889 C 1042.93 4.62036 1.97047 0
M  V30 10890 C 1044.92 6.29747 0.984773 0
M  V30 10891 C 1042.61 5.91011 1.554 0
M  V30 10892 C 1043.61 6.74693 1.06197 0
M  V30 10893 O 1043.29 8.01256 0.651407 0
M  V30 10894 H 1043.03 0.565404 0.370532 0
M  V30 10895 H 1045.58 1.98543 0.526296 0
M  V30 10896 H 1043.81 2.37604 3.05092 0
M  V30 10897 H 1045.5 2.78359 2.95417 0
M  V30 10898 H 1046.27 4.66363 1.33156 0
M  V30 10899 H 1042.14 3.97025 2.34291 0
M  V30 10900 H 1045.69 6.95015 0.600029 0
M  V30 10901 H 1041.59 6.24932 1.6165 0
M  V30 10902 H 1042.35 8.148 0.777382 0
M  V30 10903 N 1045.02 -0.694098 1.41492 0
M  V30 10904 C 1046.43 -1.00487 1.23994 0
M  V30 10905 C 1046.63 -2.01078 0.130346 0
M  V30 10906 O 1045.69 -2.47403 -0.504775 0
M  V30 10907 C 1047 -1.52808 2.58979 0
M  V30 10908 C 1048.55 -1.64684 2.66173 0
M  V30 10909 C 1049.02 -2.20406 4.01479 0
M  V30 10910 N 1050.52 -2.27765 4.03333 0
M  V30 10911 C 1051.25 -2.7191 5.04829 0
M  V30 10912 N 1050.75 -3.1565 6.16714 0
M  V30 10913 N 1052.54 -2.71487 4.9219 0
M  V30 10914 H 1044.69 -0.027746 2.12382 0
M  V30 10915 H 1046.95 -0.0748741 0.945039 0
M  V30 10916 H 1046.66 -0.863519 3.40934 0
M  V30 10917 H 1046.53 -2.50998 2.81566 0
M  V30 10918 H 1048.92 -2.30251 1.84576 0
M  V30 10919 H 1049 -0.65035 2.47395 0
M  V30 10920 H 1048.65 -1.55454 4.83525 0
M  V30 10921 H 1048.58 -3.2081 4.17599 0
M  V30 10922 H 1051.07 -1.96899 3.22551 0
M  V30 10923 H 1051.38 -3.47966 6.90029 0
M  V30 10924 H 1049.72 -3.13555 6.20248 0
M  V30 10925 H 1052.92 -2.36666 4.03865 0
M  V30 10926 H 1053.09 -3.05573 5.71427 0
M  V30 10927 N 1046.49 -1.27344 -0.928501 0
M  V30 10928 C 1047.74 -1.13804 -1.67859 0
M  V30 10929 C 1048.07 0.31555 -1.91619 0
M  V30 10930 O 1047.35 1.23087 -1.50599 0
M  V30 10931 C 1047.63 -1.9213 -3.04562 0
M  V30 10932 C 1047.48 -3.45468 -2.88048 0
M  V30 10933 C 1048.8 -1.72513 -4.04879 0
M  V30 10934 H 1045.92 -0.414796 -0.609191 0
M  V30 10935 H 1048.56 -1.5649 -1.07753 0
M  V30 10936 H 1046.71 -1.55853 -3.55868 0
M  V30 10937 H 1048.39 -3.9157 -2.43865 0
M  V30 10938 H 1046.63 -3.71849 -2.23407 0
M  V30 10939 H 1047.3 -3.95515 -3.85061 0
M  V30 10940 H 1049.78 -2.04143 -3.62581 0
M  V30 10941 H 1048.65 -2.29713 -4.98521 0
M  V30 10942 H 1048.91 -0.672856 -4.3695 0
M  V30 10943 N 1047.97 1.13488 -1.09353 0
M  V30 10944 C 1049.22 1.84383 -0.827488 0
M  V30 10945 C 1049.54 1.83892 0.648745 0
M  V30 10946 O 1048.81 1.29415 1.47066 0
M  V30 10947 H 1047.39 0.682732 -0.303127 0
M  V30 10948 H 1050.05 1.37477 -1.38152 0
M  V30 10949 H 1049.15 2.88919 -1.18035 0
M  V30 10950 N 1049.45 0.880621 1.30701 0
M  V30 10951 C 1050.7 0.495894 1.95922 0
M  V30 10952 C 1051.02 -0.957214 1.69889 0
M  V30 10953 O 1050.29 -1.67245 1.0201 0
M  V30 10954 H 1048.87 0.180394 0.724891 0
M  V30 10955 H 1051.53 1.12274 1.59313 0
M  V30 10956 H 1050.63 0.662508 3.04987 0
M  V30 10957 N 1050.93 -1.4397 0.641131 0
M  V30 10958 C 1051.88 -2.2786 -0.079879 0
M  V30 10959 C 1052.86 -1.39227 -0.80651 0
M  V30 10960 O 1054.06 -1.62956 -0.690969 0
M  V30 10961 C 1051.18 -3.26722 -1.05394 0
M  V30 10962 C 1050.27 -4.22842 -0.326411 0
M  V30 10963 N 1050.66 -5.016 0.650464 0
M  V30 10964 C 1048.96 -4.42349 -0.569507 0
M  V30 10965 C 1049.66 -5.71563 1.08121 0
M  V30 10966 N 1048.64 -5.41991 0.417932 0
M  V30 10967 H 1052.44 -2.86163 0.669906 0
M  V30 10968 H 1049.95 -1.55528 0.467433 0
M  V30 10969 H 1051.95 -3.85588 -1.58517 0
M  V30 10970 H 1050.61 -2.69979 -1.80392 0
M  V30 10971 H 1051.62 -5.07581 1.0287 0
M  V30 10972 H 1048.3 -3.96693 -1.30159 0
M  V30 10973 H 1049.69 -6.44805 1.88883 0
M  V30 10974 N 1052.41 -0.382291 -1.52893 0
M  V30 10975 C 1053.64 0.202408 -2.05908 0
M  V30 10976 C 1054.05 1.4109 -1.25456 0
M  V30 10977 O 1053.41 1.80027 -0.29942 0
M  V30 10978 C 1053.46 0.579452 -3.56826 0
M  V30 10979 O 1053.18 -0.58102 -4.3423 0
M  V30 10980 C 1054.68 1.22076 -4.2616 0
M  V30 10981 H 1051.9 0.0321859 -0.670228 0
M  V30 10982 H 1054.44 -0.545494 -1.9709 0
M  V30 10983 H 1052.6 1.27726 -3.65739 0
M  V30 10984 H 1053.01 -0.272693 -5.23791 0
M  V30 10985 H 1054.49 1.435 -5.33021 0
M  V30 10986 H 1054.96 2.18605 -3.80931 0
M  V30 10987 H 1055.57 0.563922 -4.21545 0
M  V30 10988 N 1053.89 1.57202 -0.111913 0
M  V30 10989 C 1054.82 2.10634 0.877983 0
M  V30 10990 C 1055.8 1.02098 1.26549 0
M  V30 10991 O 1056.98 1.29707 1.36779 0
M  V30 10992 C 1054.11 2.59721 2.174 0
M  V30 10993 C 1053.15 3.80074 1.93509 0
M  V30 10994 S 1053.99 5.22834 1.1578 0
M  V30 10995 C 1055.14 5.75284 2.46576 0
M  V30 10996 H 1055.38 2.94268 0.423483 0
M  V30 10997 H 1052.91 1.54065 0.101721 0
M  V30 10998 H 1054.87 2.88657 2.91868 0
M  V30 10999 H 1053.53 1.76281 2.59969 0
M  V30 11000 H 1052.72 4.12545 2.89522 0
M  V30 11001 H 1052.32 3.51718 1.27164 0
M  V30 11002 H 1054.61 5.84576 3.42457 0
M  V30 11003 H 1055.56 6.73493 2.1866 0
M  V30 11004 H 1055.97 5.03308 2.55619 0
M  V30 11005 N 1055.36 -0.161842 1.56767 0
M  V30 11006 C 1056.29 -1.20226 2.0017 0
M  V30 11007 C 1057.27 -1.4564 0.878807 0
M  V30 11008 O 1058.46 -1.56813 1.14557 0
M  V30 11009 C 1055.59 -2.53897 2.36968 0
M  V30 11010 C 1054.54 -2.43033 3.52305 0
M  V30 11011 C 1053.87 -3.81281 3.74872 0
M  V30 11012 C 1055.17 -1.927 4.85453 0
M  V30 11013 H 1056.86 -0.84142 2.87333 0
M  V30 11014 H 1054.41 -0.403309 1.38237 0
M  V30 11015 H 1056.36 -3.26893 2.6593 0
M  V30 11016 H 1055.09 -2.91787 1.46724 0
M  V30 11017 H 1053.75 -1.7249 3.23485 0
M  V30 11018 H 1053.39 -4.1658 2.81904 0
M  V30 11019 H 1053.09 -3.74877 4.52483 0
M  V30 11020 H 1054.62 -4.55848 4.06245 0
M  V30 11021 H 1056.03 -2.55477 5.13229 0
M  V30 11022 H 1054.43 -1.97222 5.66766 0
M  V30 11023 H 1055.5 -0.881816 4.76814 0
M  V30 11024 N 1056.84 -1.516 -0.430713 0
M  V30 11025 C 1058.25 -1.57 -1.01035 0
M  V30 11026 C 1058.6 -0.397439 -1.92132 0
M  V30 11027 O 1057.73 0.484954 -2.10896 0
M  V30 11028 C 1058.32 -2.84536 -1.83915 0
M  V30 11029 C 1056.88 -2.92485 -2.36917 0
M  V30 11030 C 1056.03 -2.5173 -1.16308 0
M  V30 11031 H 1058.98 -1.57281 -0.211734 0
M  V30 11032 H 1059 -2.68672 -2.69435 0
M  V30 11033 H 1058.51 -3.69858 -1.17586 0
M  V30 11034 H 1056.61 -2.11608 -3.0668 0
M  V30 11035 H 1056.73 -3.96277 -2.6926 0
M  V30 11036 H 1055.09 -2.05079 -1.51045 0
M  V30 11037 H 1055.87 -3.39403 -0.515793 0
M  V30 11038 N 1058.32 0.686584 -1.41858 0
M  V30 11039 C 1059.57 1.44235 -1.40994 0
M  V30 11040 C 1059.88 1.95583 -0.0254979 0
M  V30 11041 O 1061.09 2.71294 0.10576 0
M  V30 11042 C 1059.54 2.6086 -2.47952 0
M  V30 11043 C 1059.15 2.16259 -3.92347 0
M  V30 11044 C 1060.9 3.38441 -2.56237 0
M  V30 11045 C 1058.8 3.29896 -4.90838 0
M  V30 11046 H 1057.73 0.54181 -0.524364 0
M  V30 11047 H 1060.38 0.744486 -1.67719 0
M  V30 11048 H 1058.77 3.32957 -2.14373 0
M  V30 11049 H 1059.94 1.51392 -4.35221 0
M  V30 11050 H 1058.25 1.51648 -3.87804 0
M  V30 11051 H 1060.85 4.23052 -3.27003 0
M  V30 11052 H 1061.19 3.84238 -1.6021 0
M  V30 11053 H 1061.73 2.73406 -2.88953 0
M  V30 11054 H 1058.47 2.89104 -5.88302 0
M  V30 11055 H 1057.99 3.93584 -4.52606 0
M  V30 11056 H 1059.67 3.95541 -5.12012 0
M  V30 11057 N 1059.8 1.27835 0.921735 0
M  V30 11058 C 1061.21 1.05369 1.19873 0
M  V30 11059 C 1061.41 -0.208997 2.00413 0
M  V30 11060 O 1060.47 -0.912861 2.35421 0
M  V30 11061 C 1061.78 2.29658 1.94108 0
M  V30 11062 C 1063.33 2.34756 2.07023 0
M  V30 11063 C 1063.81 3.5879 2.84664 0
M  V30 11064 N 1065.3 3.59383 2.9223 0
M  V30 11065 C 1066.03 4.52029 3.52785 0
M  V30 11066 N 1065.53 5.54986 4.14683 0
M  V30 11067 N 1067.32 4.39641 3.50246 0
M  V30 11068 H 1059.47 2.08903 0.383819 0
M  V30 11069 H 1061.73 0.919065 0.232429 0
M  V30 11070 H 1061.44 3.21604 1.4235 0
M  V30 11071 H 1061.31 2.35444 2.94696 0
M  V30 11072 H 1063.7 1.43312 2.57965 0
M  V30 11073 H 1063.78 2.32969 1.05636 0
M  V30 11074 H 1063.43 4.50574 2.34404 0
M  V30 11075 H 1063.36 3.57829 3.86349 0
M  V30 11076 H 1065.85 2.84927 2.48244 0
M  V30 11077 H 1066.16 6.21837 4.58845 0
M  V30 11078 H 1064.51 5.58822 4.13211 0
M  V30 11079 H 1067.7 3.58413 3.01094 0
M  V30 11080 H 1067.87 5.12033 3.97148 0
M  V30 11081 N 1061.28 -1.12907 1.09954 0
M  V30 11082 C 1062.52 -1.84786 0.850039 0
M  V30 11083 C 1062.88 -1.82214 -0.617724 0
M  V30 11084 O 1062.17 -1.25319 -1.44934 0
M  V30 11085 C 1062.36 -3.31885 1.32616 0
M  V30 11086 C 1062.19 -3.48782 2.83868 0
M  V30 11087 C 1060.96 -3.62708 3.51811 0
M  V30 11088 C 1063.16 -3.44367 3.8199 0
M  V30 11089 N 1061.14 -3.67921 4.91434 0
M  V30 11090 C 1062.51 -3.56015 5.07596 0
M  V30 11091 C 1064.57 -3.27801 3.74768 0
M  V30 11092 C 1063.27 -3.52807 6.26833 0
M  V30 11093 C 1065.3 -3.25904 4.93499 0
M  V30 11094 C 1064.66 -3.38108 6.1795 0
M  V30 11095 H 1060.76 -0.692126 0.363986 0
M  V30 11096 H 1063.34 -1.35208 1.40096 0
M  V30 11097 H 1061.51 -3.80016 0.802625 0
M  V30 11098 H 1063.25 -3.91598 1.02142 0
M  V30 11099 H 1060 -3.64613 3.02248 0
M  V30 11100 H 1060.42 -3.74204 5.64181 0
M  V30 11101 H 1065.07 -3.17264 2.7947 0
M  V30 11102 H 1062.78 -3.62116 7.22425 0
M  V30 11103 H 1066.37 -3.14275 4.89615 0
M  V30 11104 H 1065.25 -3.36607 7.08283 0
M  V30 11105 N 1062.75 -0.88754 -1.30232 0
M  V30 11106 C 1063.69 -0.300814 -2.26209 0
M  V30 11107 C 1064.66 0.580088 -1.519 0
M  V30 11108 O 1065.85 0.529611 -1.80907 0
M  V30 11109 C 1062.98 0.572336 -3.33829 0
M  V30 11110 C 1062.02 -0.239589 -4.25827 0
M  V30 11111 S 1062.85 -1.62953 -5.10104 0
M  V30 11112 C 1064.01 -0.762979 -6.21232 0
M  V30 11113 H 1064.24 -1.11435 -2.75626 0
M  V30 11114 H 1061.78 -0.687123 -1.38268 0
M  V30 11115 H 1063.73 1.07036 -3.963 0
M  V30 11116 H 1062.4 1.35999 -2.83131 0
M  V30 11117 H 1061.59 0.426854 -5.02189 0
M  V30 11118 H 1061.19 -0.670325 -3.67944 0
M  V30 11119 H 1063.48 0.0189354 -6.77497 0
M  V30 11120 H 1064.43 -1.49829 -6.92067 0
M  V30 11121 H 1064.83 -0.322747 -5.63577 0
M  V30 11122 N 1064.23 1.43628 -0.648757 0
M  V30 11123 C 1065.64 1.85142 -0.24066 0
M  V30 11124 C 1065.99 1.54304 1.21181 0
M  V30 11125 O 1065.12 0.989792 1.92437 0
M  V30 11126 C 1065.71 3.3606 -0.429999 0
M  V30 11127 C 1064.27 3.76323 -0.0762588 0
M  V30 11128 C 1063.42 2.67382 -0.734999 0
M  V30 11129 H 1066.37 1.33844 -0.852734 0
M  V30 11130 H 1066.39 3.79102 0.325836 0
M  V30 11131 H 1065.9 3.58474 -1.48721 0
M  V30 11132 H 1064.01 3.59521 0.978529 0
M  V30 11133 H 1064.12 4.76498 -0.498612 0
M  V30 11134 H 1062.48 2.54141 -0.168644 0
M  V30 11135 H 1063.27 2.92625 -1.79515 0
M  V30 11136 N 1065.71 0.390394 1.52688 0
M  V30 11137 C 1067.12 -0.083394 1.86514 0
M  V30 11138 C 1067.47 -1.46057 1.31003 0
M  V30 11139 O 1066.6 -2.06663 0.641809 0
M  V30 11140 C 1067.19 -0.158102 3.38431 0
M  V30 11141 C 1065.75 -0.576186 3.71964 0
M  V30 11142 C 1064.9 0.261156 2.76068 0
M  V30 11143 H 1067.85 0.608226 1.46582 0
M  V30 11144 H 1067.87 -0.977023 3.67742 0
M  V30 11145 H 1067.38 0.844365 3.78803 0
M  V30 11146 H 1065.48 -1.58598 3.37161 0
M  V30 11147 H 1065.6 -0.333577 4.77937 0
M  V30 11148 H 1063.96 -0.273737 2.53225 0
M  V30 11149 H 1064.74 1.26162 3.19277 0
M  V30 11150 N 1067.19 -1.57141 0.120249 0
M  V30 11151 C 1068.1 -2.18925 -0.843155 0
M  V30 11152 C 1069.11 -1.16575 -1.29175 0
M  V30 11153 O 1070.29 -1.4905 -1.35448 0
M  V30 11154 C 1067.36 -2.7775 -2.075 0
M  V30 11155 C 1066.42 -3.95139 -1.6782 0
M  V30 11156 C 1065.65 -4.51149 -2.85132 0
M  V30 11157 O 1065.87 -4.06056 -4.00593 0
M  V30 11158 O 1064.81 -5.41815 -2.62145 0
M  V30 11159 H 1068.63 -3.01707 -0.347357 0
M  V30 11160 H 1066.22 -1.49028 -0.105427 0
M  V30 11161 H 1068.1 -3.15243 -2.79643 0
M  V30 11162 H 1066.77 -1.97998 -2.56083 0
M  V30 11163 H 1065.68 -3.62412 -0.927807 0
M  V30 11164 H 1067.01 -4.7633 -1.23977 0
M  V30 11165 N 1068.67 0.153526 -1.5685 0
M  V30 11166 C 1069.89 0.886343 -1.87507 0
M  V30 11167 C 1070.32 1.74244 -0.708565 0
M  V30 11168 O 1069.67 1.78045 0.341997 0
M  V30 11169 C 1069.72 1.72428 -3.16703 0
M  V30 11170 O 1068.83 2.82784 -3.00178 0
M  V30 11171 H 1068.17 0.247259 -0.616246 0
M  V30 11172 H 1070.7 0.146306 -2.04076 0
M  V30 11173 H 1070.71 2.12062 -3.4856 0
M  V30 11174 H 1069.38 1.09558 -4.01211 0
M  V30 11175 H 1067.96 2.46604 -2.79716 0
M  V30 11176 N 1070.14 1.51827 0.422667 0
M  V30 11177 C 1071.39 1.6445 1.16786 0
M  V30 11178 C 1071.71 0.373792 1.91995 0
M  V30 11179 O 1072.91 0.379621 2.68833 0
M  V30 11180 C 1071.37 2.90488 2.12473 0
M  V30 11181 C 1070.98 4.24617 1.42844 0
M  V30 11182 C 1072.72 3.12472 2.87335 0
M  V30 11183 C 1070.63 5.41791 2.371 0
M  V30 11184 H 1069.56 0.612561 0.439641 0
M  V30 11185 H 1072.21 1.78305 0.433534 0
M  V30 11186 H 1070.59 2.703 2.89402 0
M  V30 11187 H 1071.76 4.55239 0.71372 0
M  V30 11188 H 1070.08 4.08628 0.800769 0
M  V30 11189 H 1072.68 3.9719 3.57973 0
M  V30 11190 H 1073.02 2.26148 3.49518 0
M  V30 11191 H 1073.55 3.33069 2.17509 0
M  V30 11192 H 1070.29 6.3042 1.79584 0
M  V30 11193 H 1069.81 5.15526 3.06583 0
M  V30 11194 H 1071.49 5.74329 2.97918 0
M  V30 11195 N 1071.62 -0.679052 1.4222 0
M  V30 11196 C 1072.56 -1.80369 1.39794 0
M  V30 11197 C 1073.53 -1.60462 0.262806 0
M  V30 11198 O 1074.72 -1.82992 0.452352 0
M  V30 11199 C 1071.84 -3.17305 1.18471 0
M  V30 11200 C 1070.89 -3.55969 2.34922 0
M  V30 11201 S 1071.72 -3.58884 3.97445 0
M  V30 11202 C 1072.88 -4.98519 3.78457 0
M  V30 11203 H 1073.11 -1.82152 2.34964 0
M  V30 11204 H 1070.65 -0.84932 1.28942 0
M  V30 11205 H 1072.6 -3.96348 1.06856 0
M  V30 11206 H 1071.26 -3.13112 0.248944 0
M  V30 11207 H 1070.46 -4.55491 2.1574 0
M  V30 11208 H 1070.06 -2.84275 2.4303 0
M  V30 11209 H 1072.35 -5.86481 3.39184 0
M  V30 11210 H 1073.29 -5.22748 4.77641 0
M  V30 11211 H 1073.7 -4.70836 3.11406 0
M  V30 11212 N 1073.1 -1.28322 -0.914942 0
M  V30 11213 C 1074.33 -1.18083 -1.69529 0
M  V30 11214 C 1074.74 0.263274 -1.87359 0
M  V30 11215 O 1074.08 1.18988 -1.39955 0
M  V30 11216 C 1074.14 -1.8062 -3.10832 0
M  V30 11217 C 1073.81 -3.29861 -3.16292 0
M  V30 11218 C 1074.8 -4.26313 -2.97578 0
M  V30 11219 C 1072.49 -3.70797 -3.38843 0
M  V30 11220 C 1074.48 -5.61677 -3.01326 0
M  V30 11221 C 1072.17 -5.06287 -3.42223 0
M  V30 11222 C 1073.17 -6.01537 -3.23485 0
M  V30 11223 O 1072.86 -7.34556 -3.26624 0
M  V30 11224 H 1072.59 -0.410931 -0.53676 0
M  V30 11225 H 1075.14 -1.6994 -1.15367 0
M  V30 11226 H 1073.37 -1.23255 -3.66531 0
M  V30 11227 H 1075.06 -1.64915 -3.70888 0
M  V30 11228 H 1075.83 -3.96023 -2.79984 0
M  V30 11229 H 1071.71 -2.97124 -3.52475 0
M  V30 11230 H 1075.25 -6.36 -2.86618 0
M  V30 11231 H 1071.15 -5.36228 -3.59346 0
M  V30 11232 H 1071.92 -7.43167 -3.42994 0
M  V30 11233 N 1074.58 1.12322 -1.10551 0
M  V30 11234 C 1075.99 1.35858 -0.837543 0
M  V30 11235 C 1076.19 1.94062 0.54241 0
M  V30 11236 O 1075.25 2.1676 1.29505 0
M  V30 11237 C 1076.56 2.299 -1.9382 0
M  V30 11238 C 1078.11 2.43488 -1.96679 0
M  V30 11239 C 1078.59 3.40846 -3.05922 0
M  V30 11240 N 1080.08 3.48404 -3.05236 0
M  V30 11241 C 1080.81 4.2365 -3.86405 0
M  V30 11242 N 1080.31 5.01951 -4.77512 0
M  V30 11243 N 1082.1 4.19068 -3.74618 0
M  V30 11244 H 1074.25 0.729002 -1.99498 0
M  V30 11245 H 1076.52 0.38339 -0.867016 0
M  V30 11246 H 1076.22 1.94309 -2.9315 0
M  V30 11247 H 1076.1 3.30033 -1.82641 0
M  V30 11248 H 1078.48 2.78359 -0.979813 0
M  V30 11249 H 1078.56 1.43239 -2.11934 0
M  V30 11250 H 1078.21 3.06704 -4.04839 0
M  V30 11251 H 1078.14 4.40927 -2.87907 0
M  V30 11252 H 1080.63 2.92545 -2.39219 0
M  V30 11253 H 1080.94 5.56707 -5.36002 0
M  V30 11254 H 1079.29 5.01143 -4.8154 0
M  V30 11255 H 1082.48 3.5698 -3.02792 0
M  V30 11256 H 1082.65 4.77455 -4.38111 0
M  V30 11257 N 1076.06 0.894434 1.2976 0
M  V30 11258 C 1077 0.366586 2.2787 0
M  V30 11259 C 1077.97 -0.548425 1.56785 0
M  V30 11260 O 1079.16 -0.474804 1.84798 0
M  V30 11261 C 1076.3 -0.404531 3.42721 0
M  V30 11262 C 1075.41 0.540774 4.28602 0
M  V30 11263 C 1074.55 -0.246875 5.30626 0
M  V30 11264 C 1073.59 0.693294 6.08161 0
M  V30 11265 N 1072.72 -0.059619 7.02075 0
M  V30 11266 H 1077.56 1.20834 2.72402 0
M  V30 11267 H 1075.1 0.607205 1.33983 0
M  V30 11268 H 1077.06 -0.86762 4.08079 0
M  V30 11269 H 1075.69 -1.21078 2.99232 0
M  V30 11270 H 1074.74 1.12237 3.63465 0
M  V30 11271 H 1076.05 1.26065 4.82606 0
M  V30 11272 H 1075.21 -0.771398 6.01776 0
M  V30 11273 H 1073.94 -0.999918 4.77339 0
M  V30 11274 H 1072.95 1.22936 5.35879 0
M  V30 11275 H 1074.17 1.44558 6.63536 0
M  V30 11276 H 1072.12 -0.795026 6.51165 0
M  V30 11277 H 1072.04 0.60045 7.53612 0
M  V30 11278 H 1073.31 -0.564577 7.77453 0
M  V30 11279 N 1077.53 -1.43282 0.656365 0
M  V30 11280 C 1078.78 -2.01776 0.171039 0
M  V30 11281 C 1079.11 -1.51795 -1.21609 0
M  V30 11282 O 1078.36 -0.702864 -1.82643 0
M  V30 11283 C 1078.66 -3.57148 0.134225 0
M  V30 11284 C 1078.33 -4.26488 1.46352 0
M  V30 11285 C 1076.99 -4.45146 1.82753 0
M  V30 11286 C 1079.34 -4.65728 2.33981 0
M  V30 11287 C 1076.67 -5.0031 3.06443 0
M  V30 11288 C 1079.02 -5.22263 3.56966 0
M  V30 11289 C 1077.69 -5.39136 3.93559 0
M  V30 11290 H 1076.96 -0.738352 0.0625878 0
M  V30 11291 H 1079.6 -1.71716 0.847697 0
M  V30 11292 H 1077.91 -3.86768 -0.625892 0
M  V30 11293 H 1079.61 -4.00168 -0.258207 0
M  V30 11294 H 1076.2 -4.12313 1.1703 0
M  V30 11295 H 1080.38 -4.51003 2.07148 0
M  V30 11296 H 1075.64 -5.11559 3.34839 0
M  V30 11297 H 1079.81 -5.51614 4.25082 0
M  V30 11298 H 1077.44 -5.81646 4.89481 0
M  V30 11299 N 1079.01 -0.398486 -1.52479 0
M  V30 11300 C 1080.24 0.180557 -2.06111 0
M  V30 11301 C 1080.66 1.39751 -1.26945 0
M  V30 11302 O 1080.01 1.79699 -0.318497 0
M  V30 11303 C 1080.06 0.541573 -3.5742 0
M  V30 11304 O 1079.79 -0.627043 -4.33589 0
M  V30 11305 C 1081.29 1.17549 -4.27431 0
M  V30 11306 H 1078.51 0.0250754 -0.670531 0
M  V30 11307 H 1081.05 -0.566368 -1.96501 0
M  V30 11308 H 1079.21 1.23839 -3.67073 0
M  V30 11309 H 1079.62 -0.328233 -5.23472 0
M  V30 11310 H 1081.09 1.37839 -5.34513 0
M  V30 11311 H 1081.57 2.14553 -3.83228 0
M  V30 11312 H 1082.18 0.51918 -4.22119 0
M  V30 11313 N 1080.49 1.57075 -0.12858 0
M  V30 11314 C 1081.72 1.99876 0.534544 0
M  V30 11315 C 1082.13 1.00843 1.59612 0
M  V30 11316 O 1081.49 0.00268947 1.825 0
M  V30 11317 C 1081.54 3.42654 1.15198 0
M  V30 11318 O 1081.26 4.37899 0.132823 0
M  V30 11319 C 1082.76 4.00637 1.8975 0
M  V30 11320 H 1079.98 0.656073 0.140744 0
M  V30 11321 H 1082.53 2.03337 -0.217742 0
M  V30 11322 H 1080.68 3.40101 1.85499 0
M  V30 11323 H 1081.1 5.21253 0.582682 0
M  V30 11324 H 1082.57 5.02592 2.28266 0
M  V30 11325 H 1083.05 3.40313 2.7764 0
M  V30 11326 H 1083.65 4.06764 1.2419 0
M  V30 11327 N 1081.97 -0.145205 1.5693 0
M  V30 11328 C 1082.88 -1.19864 2.01667 0
M  V30 11329 C 1083.9 -1.46909 0.932402 0
M  V30 11330 O 1085.07 -1.58543 1.24201 0
M  V30 11331 C 1082.14 -2.51174 2.38982 0
M  V30 11332 C 1081.2 -2.3176 3.61366 0
M  V30 11333 C 1080.43 -3.56809 3.96892 0
M  V30 11334 O 1080.65 -4.63063 3.33059 0
M  V30 11335 O 1079.59 -3.49366 4.9013 0
M  V30 11336 H 1083.41 -0.848821 2.91597 0
M  V30 11337 H 1081 -0.354063 1.45144 0
M  V30 11338 H 1082.88 -3.28587 2.63835 0
M  V30 11339 H 1081.56 -2.85683 1.52207 0
M  V30 11340 H 1080.46 -1.52293 3.41698 0
M  V30 11341 H 1081.8 -2.02167 4.48764 0
M  V30 11342 N 1083.45 -1.52049 -0.414609 0
M  V30 11343 C 1084.67 -1.6997 -1.18848 0
M  V30 11344 C 1085.1 -0.406058 -1.83665 0
M  V30 11345 O 1084.46 0.635981 -1.69779 0
M  V30 11346 C 1084.5 -2.8327 -2.23138 0
M  V30 11347 O 1083.61 -2.48457 -3.29155 0
M  V30 11348 H 1082.95 -0.566003 -0.347183 0
M  V30 11349 H 1085.48 -1.98726 -0.486757 0
M  V30 11350 H 1085.49 -3.08022 -2.67557 0
M  V30 11351 H 1084.16 -3.7713 -1.75344 0
M  V30 11352 H 1082.74 -2.34357 -2.90054 0
M  V30 11353 N 1084.93 0.6715 -1.42579 0
M  V30 11354 C 1086.2 1.42766 -1.33706 0
M  V30 11355 C 1086.58 2.11086 0.0239748 0
M  V30 11356 O 1085.93 2.03479 1.03964 0
M  V30 11357 C 1086.14 2.42739 -2.50756 0
M  V30 11358 C 1087.49 3.07284 -2.93021 0
M  V30 11359 O 1088.51 2.53066 -2.50671 0
M  V30 11360 O 1087.37 4.05541 -3.66331 0
M  V30 11361 H 1084.47 0.636955 -0.527463 0
M  V30 11362 H 1087.01 0.699946 -1.54593 0
M  V30 11363 H 1085.78 1.91076 -3.41476 0
M  V30 11364 H 1085.41 3.22986 -2.31874 0
M  V30 11365 N 1086.4 1.28806 0.908124 0
M  V30 11366 C 1087.65 1.1646 1.66027 0
M  V30 11367 C 1087.98 -0.285025 1.92097 0
M  V30 11368 O 1087.26 -1.20675 1.52538 0
M  V30 11369 C 1087.54 1.96951 3.01467 0
M  V30 11370 C 1087.39 3.50007 2.82515 0
M  V30 11371 C 1088.71 1.78932 4.02084 0
M  V30 11372 H 1085.83 0.424435 0.602515 0
M  V30 11373 H 1088.47 1.58185 1.0525 0
M  V30 11374 H 1086.62 1.61495 3.53344 0
M  V30 11375 H 1088.3 3.95401 2.37605 0
M  V30 11376 H 1086.54 3.75356 2.17463 0
M  V30 11377 H 1087.21 4.01591 3.7872 0
M  V30 11378 H 1089.69 2.09885 3.59287 0
M  V30 11379 H 1088.56 2.37615 4.94803 0
M  V30 11380 H 1088.82 0.742286 4.35824 0
M  V30 11381 N 1087.88 -1.11734 1.11145 0
M  V30 11382 C 1089.13 -1.83874 0.86959 0
M  V30 11383 C 1089.48 -1.82859 -0.598363 0
M  V30 11384 O 1088.78 -1.26849 -1.43596 0
M  V30 11385 C 1088.97 -3.3046 1.36129 0
M  V30 11386 C 1088.8 -3.45752 2.87551 0
M  V30 11387 C 1087.57 -3.58956 3.55638 0
M  V30 11388 C 1089.77 -3.40296 3.85621 0
M  V30 11389 N 1087.75 -3.62688 4.95309 0
M  V30 11390 C 1089.12 -3.50611 5.11343 0
M  V30 11391 C 1091.17 -3.23808 3.78223 0
M  V30 11392 C 1089.88 -3.46138 6.3054 0
M  V30 11393 C 1091.9 -3.20651 4.96927 0
M  V30 11394 C 1091.27 -3.31534 6.21502 0
M  V30 11395 H 1087.36 -0.688226 0.371306 0
M  V30 11396 H 1089.95 -1.33715 1.41522 0
M  V30 11397 H 1088.12 -3.79144 0.842885 0
M  V30 11398 H 1089.85 -3.90493 1.0629 0
M  V30 11399 H 1086.61 -3.61387 3.06098 0
M  V30 11400 H 1087.03 -3.68199 5.68118 0
M  V30 11401 H 1091.67 -3.14282 2.8282 0
M  V30 11402 H 1089.39 -3.54433 7.26225 0
M  V30 11403 H 1092.98 -3.09064 4.9292 0
M  V30 11404 H 1091.86 -3.29076 7.11814 0
M  V30 11405 N 1089.36 -0.901303 -1.29284 0
M  V30 11406 C 1090.58 -0.542823 -2.0017 0
M  V30 11407 C 1091.01 0.865583 -1.67001 0
M  V30 11408 O 1090.37 1.5764 -0.895502 0
M  V30 11409 C 1090.42 -0.743987 -3.52842 0
M  V30 11410 O 1089.52 0.202771 -4.11901 0
M  V30 11411 H 1088.86 -0.211903 -0.62928 0
M  V30 11412 H 1091.39 -1.21333 -1.64741 0
M  V30 11413 H 1091.4 -0.64926 -4.02801 0
M  V30 11414 H 1090.08 -1.77077 -3.7632 0
M  V30 11415 H 1088.65 0.0603637 -3.72851 0
M  V30 11416 N 1090.84 1.42931 -0.663954 0
M  V30 11417 C 1091.77 2.33499 0.00731327 0
M  V30 11418 C 1092.75 1.50074 0.800733 0
M  V30 11419 O 1093.93 1.78708 0.760062 0
M  V30 11420 C 1091.06 3.33569 0.966897 0
M  V30 11421 C 1090.02 4.27064 0.282839 0
M  V30 11422 C 1089.34 5.17257 1.35461 0
M  V30 11423 C 1090.64 5.1564 -0.831438 0
M  V30 11424 H 1092.34 2.89879 -0.749044 0
M  V30 11425 H 1089.88 1.39385 -0.361656 0
M  V30 11426 H 1091.84 3.95833 1.44549 0
M  V30 11427 H 1090.56 2.75469 1.75455 0
M  V30 11428 H 1089.22 3.6618 -0.175417 0
M  V30 11429 H 1088.87 4.5549 2.13397 0
M  V30 11430 H 1088.57 5.80634 0.902098 0
M  V30 11431 H 1090.09 5.82395 1.83436 0
M  V30 11432 H 1091.51 5.71651 -0.434534 0
M  V30 11433 H 1089.9 5.87794 -1.20908 0
M  V30 11434 H 1090.97 4.54687 -1.68487 0
M  V30 11435 N 1092.32 0.406567 1.52266 0
M  V30 11436 C 1093.56 -0.169717 2.01386 0
M  V30 11437 C 1093.88 -1.45864 1.29417 0
M  V30 11438 O 1093.15 -1.9136 0.419327 0
M  V30 11439 H 1091.73 -0.0657075 0.744105 0
M  V30 11440 H 1094.4 0.542221 1.87206 0
M  V30 11441 H 1093.49 -0.367659 3.09927 0
M  V30 11442 N 1093.79 -1.57004 0.136909 0
M  V30 11443 C 1095.04 -1.96087 -0.517477 0
M  V30 11444 C 1095.37 -1.0213 -1.65176 0
M  V30 11445 O 1094.65 -0.0617958 -1.94402 0
M  V30 11446 C 1094.93 -3.44958 -1.03323 0
M  V30 11447 C 1094.78 -4.49691 0.0988609 0
M  V30 11448 C 1096.1 -3.96091 -1.91832 0
M  V30 11449 H 1093.22 -0.712978 -0.186632 0
M  V30 11450 H 1095.86 -1.88767 0.216095 0
M  V30 11451 H 1094.01 -3.51327 -1.65836 0
M  V30 11452 H 1095.69 -4.55409 0.734847 0
M  V30 11453 H 1093.93 -4.271 0.75947 0
M  V30 11454 H 1094.6 -5.51165 -0.303554 0
M  V30 11455 H 1097.08 -3.92139 -1.39164 0
M  V30 11456 H 1095.95 -5.00742 -2.24831 0
M  V30 11457 H 1096.21 -3.37846 -2.85153 0
M  V30 11458 N 1095.27 0.136881 -1.57004 0
M  V30 11459 C 1096.52 0.849031 -1.84172 0
M  V30 11460 C 1096.85 1.80359 -0.720027 0
M  V30 11461 O 1096.13 1.92538 0.275584 0
M  V30 11462 C 1096.41 1.61465 -3.21871 0
M  V30 11463 C 1096.26 0.680902 -4.44616 0
M  V30 11464 C 1097.58 2.57488 -3.56914 0
M  V30 11465 H 1094.7 0.307209 -0.669919 0
M  V30 11466 H 1097.34 0.113862 -1.89659 0
M  V30 11467 H 1095.49 2.24137 -3.17325 0
M  V30 11468 H 1097.16 0.0644094 -4.61255 0
M  V30 11469 H 1095.41 -0.00883629 -4.33799 0
M  V30 11470 H 1096.08 1.25286 -5.37594 0
M  V30 11471 H 1098.55 2.0493 -3.62136 0
M  V30 11472 H 1097.43 3.08101 -4.54274 0
M  V30 11473 H 1097.69 3.39321 -2.83397 0
M  V30 11474 N 1096.75 1.52266 0.40654 0
M  V30 11475 C 1097.68 1.78755 1.50229 0
M  V30 11476 C 1098.66 0.638652 1.57655 0
M  V30 11477 O 1099.85 0.884505 1.72888 0
M  V30 11478 C 1096.98 1.94057 2.88026 0
M  V30 11479 C 1095.93 3.09667 2.95449 0
M  V30 11480 C 1095.26 3.10196 4.35526 0
M  V30 11481 C 1096.56 4.49077 2.66697 0
M  V30 11482 H 1098.25 2.70511 1.28313 0
M  V30 11483 H 1095.8 1.30167 0.615836 0
M  V30 11484 H 1097.75 2.11171 3.64671 0
M  V30 11485 H 1096.47 0.989755 3.11242 0
M  V30 11486 H 1095.13 2.92308 2.2125 0
M  V30 11487 H 1094.78 2.12831 4.55754 0
M  V30 11488 H 1094.48 3.87847 4.41416 0
M  V30 11489 H 1096 3.29443 5.14101 0
M  V30 11490 H 1097.42 4.66628 3.33064 0
M  V30 11491 H 1095.82 5.28665 2.8396 0
M  V30 11492 H 1096.89 4.56995 1.62122 0
M  V30 11493 N 1098.23 -0.663929 1.42933 0
M  V30 11494 C 1099.47 -1.42446 1.45192 0
M  V30 11495 C 1099.83 -1.92269 0.0710678 0
M  V30 11496 O 1099.12 -1.68688 -0.908565 0
M  V30 11497 C 1099.32 -2.62976 2.4203 0
M  V30 11498 C 1099.15 -2.24948 3.89395 0
M  V30 11499 C 1097.92 -2.13786 4.57847 0
M  V30 11500 C 1100.11 -1.85907 4.79524 0
M  V30 11501 N 1098.1 -1.68976 5.90187 0
M  V30 11502 C 1099.47 -1.52099 6.01054 0
M  V30 11503 C 1101.52 -1.72995 4.6688 0
M  V30 11504 C 1100.22 -1.06673 7.11346 0
M  V30 11505 C 1102.25 -1.28975 5.77165 0
M  V30 11506 C 1101.61 -0.960968 6.97814 0
M  V30 11507 H 1097.71 -0.517312 0.58644 0
M  V30 11508 H 1100.3 -0.765097 1.79037 0
M  V30 11509 H 1098.47 -3.26586 2.10229 0
M  V30 11510 H 1100.2 -3.29624 2.34798 0
M  V30 11511 H 1096.95 -2.33203 4.12206 0
M  V30 11512 H 1097.38 -1.48964 6.60408 0
M  V30 11513 H 1102.02 -1.97057 3.7407 0
M  V30 11514 H 1099.74 -0.813591 8.03994 0
M  V30 11515 H 1103.32 -1.19489 5.69398 0
M  V30 11516 H 1102.2 -0.625522 7.81701 0
M  V30 11517 N 1099.71 -1.29285 -0.901281 0
M  V30 11518 C 1100.62 -1.16161 -2.03823 0
M  V30 11519 C 1101.63 -0.0852298 -1.73791 0
M  V30 11520 O 1102.81 -0.29699 -1.99198 0
M  V30 11521 C 1099.87 -0.837586 -3.3643 0
M  V30 11522 C 1098.93 -1.99764 -3.7999 0
M  V30 11523 C 1098.17 -1.68898 -5.0627 0
M  V30 11524 O 1098.39 -0.609177 -5.67138 0
M  V30 11525 O 1097.32 -2.53648 -5.45845 0
M  V30 11526 H 1101.15 -2.11635 -2.17817 0
M  V30 11527 H 1098.74 -1.08722 -1.02468 0
M  V30 11528 H 1100.62 -0.671376 -4.16017 0
M  V30 11529 H 1099.29 0.0873811 -3.23582 0
M  V30 11530 H 1098.2 -2.21908 -3.01177 0
M  V30 11531 H 1099.53 -2.90376 -3.9742 0
M  V30 11532 N 1101.18 1.11143 -1.11736 0
M  V30 11533 C 1102.43 1.82311 -0.862875 0
M  V30 11534 C 1102.75 1.85735 0.613326 0
M  V30 11535 O 1103.95 2.53034 0.984168 0
M  V30 11536 C 1102.41 3.27427 -1.49396 0
M  V30 11537 C 1102.02 3.32323 -3.00443 0
M  V30 11538 C 1103.76 4.03474 -1.31944 0
M  V30 11539 C 1101.67 4.71855 -3.56521 0
M  V30 11540 H 1100.6 0.683124 -0.31915 0
M  V30 11541 H 1103.25 1.25045 -1.34298 0
M  V30 11542 H 1101.63 3.84644 -0.941528 0
M  V30 11543 H 1102.8 2.84971 -3.62117 0
M  V30 11544 H 1101.12 2.69758 -3.17206 0
M  V30 11545 H 1103.72 5.06528 -1.71271 0
M  V30 11546 H 1104.06 4.15473 -0.262339 0
M  V30 11547 H 1104.59 3.52652 -1.84069 0
M  V30 11548 H 1101.33 4.65054 -4.61958 0
M  V30 11549 H 1100.85 5.19604 -2.99619 0
M  V30 11550 H 1102.53 5.40816 -3.55144 0
M  V30 11551 N 1102.66 0.908147 1.28804 0
M  V30 11552 C 1103.91 0.538404 1.95211 0
M  V30 11553 C 1104.24 -0.916886 1.71533 0
M  V30 11554 O 1103.49 -1.66643 1.02609 0
M  V30 11555 C 1103.79 0.787327 3.4862 0
M  V30 11556 C 1103.46 2.22129 3.92389 0
M  V30 11557 C 1102.12 2.61336 4.04051 0
M  V30 11558 C 1104.47 3.15471 4.14883 0
M  V30 11559 C 1101.8 3.93048 4.3558 0
M  V30 11560 C 1104.15 4.46741 4.47889 0
M  V30 11561 C 1102.82 4.85809 4.57761 0
M  V30 11562 H 1102.09 0.197016 0.714329 0
M  V30 11563 H 1104.73 1.14841 1.53244 0
M  V30 11564 H 1103.04 0.0944731 3.91686 0
M  V30 11565 H 1104.73 0.480503 3.98111 0
M  V30 11566 H 1101.32 1.90704 3.83836 0
M  V30 11567 H 1105.51 2.86391 4.05332 0
M  V30 11568 H 1100.76 4.23027 4.41428 0
M  V30 11569 H 1104.94 5.19087 4.64243 0
M  V30 11570 H 1102.57 5.87904 4.81947 0
M  V30 11571 N 1104.14 -1.42577 0.671525 0
M  V30 11572 C 1105.37 -2.05924 0.200731 0
M  V30 11573 C 1105.78 -1.50434 -1.14083 0
M  V30 11574 O 1105.14 -0.642845 -1.70803 0
M  V30 11575 C 1105.19 -3.61289 0.123505 0
M  V30 11576 O 1104.91 -4.1472 1.41205 0
M  V30 11577 C 1106.41 -4.41743 -0.371178 0
M  V30 11578 H 1103.63 -0.663746 0.0983958 0
M  V30 11579 H 1106.18 -1.82771 0.917338 0
M  V30 11580 H 1104.33 -3.83565 -0.543769 0
M  V30 11581 H 1104.75 -5.0856 1.28325 0
M  V30 11582 H 1106.22 -5.50731 -0.374128 0
M  V30 11583 H 1106.7 -4.16092 -1.40585 0
M  V30 11584 H 1107.3 -4.24478 0.264244 0
M  V30 11585 N 1105.62 -0.414636 -1.52048 0
M  V30 11586 C 1106.85 0.158456 -2.05991 0
M  V30 11587 C 1107.26 1.38947 -1.28415 0
M  V30 11588 O 1106.6 1.80698 -0.330728 0
M  V30 11589 C 1106.66 0.568392 -3.54978 0
M  V30 11590 C 1106.33 -0.552654 -4.53646 0
M  V30 11591 C 1107.32 -1.41791 -5.00191 0
M  V30 11592 C 1105.01 -0.726917 -4.97012 0
M  V30 11593 C 1107 -2.44234 -5.88752 0
M  V30 11594 C 1104.69 -1.75464 -5.85368 0
M  V30 11595 C 1105.69 -2.61075 -6.31133 0
M  V30 11596 O 1105.37 -3.62087 -7.17738 0
M  V30 11597 H 1105.11 0.0214746 -0.675659 0
M  V30 11598 H 1107.66 -0.585825 -1.96869 0
M  V30 11599 H 1105.89 1.36504 -3.61806 0
M  V30 11600 H 1107.58 1.07003 -3.91542 0
M  V30 11601 H 1108.35 -1.29471 -4.67399 0
M  V30 11602 H 1104.22 -0.0701964 -4.60947 0
M  V30 11603 H 1107.77 -3.1109 -6.24395 0
M  V30 11604 H 1103.67 -1.87813 -6.17573 0
M  V30 11605 H 1104.43 -3.58396 -7.35863 0
M  V30 11606 N 1107.1 1.56929 -0.145233 0
M  V30 11607 C 1108.34 1.95681 0.50532 0
M  V30 11608 C 1108.67 1.03098 1.65516 0
M  V30 11609 O 1107.94 0.0921961 1.95683 0
M  V30 11610 H 1106.52 0.72252 0.189668 0
M  V30 11611 H 1109.18 1.93651 -0.220318 0
M  V30 11612 H 1108.27 2.99359 0.882631 0
M  V30 11613 N 1108.58 -0.128553 1.57075 0
M  V30 11614 C 1109.52 -1.15812 1.9964 0
M  V30 11615 C 1110.49 -1.41679 0.86696 0
M  V30 11616 O 1111.68 -1.53705 1.13046 0
M  V30 11617 C 1108.82 -2.48198 2.39774 0
M  V30 11618 C 1107.93 -2.29348 3.66092 0
M  V30 11619 C 1107.07 -3.54898 3.95248 0
M  V30 11620 C 1106.1 -3.31164 5.14779 0
M  V30 11621 N 1105.24 -4.48891 5.39853 0
M  V30 11622 H 1110.08 -0.788136 2.87389 0
M  V30 11623 H 1107.62 -0.377682 1.42169 0
M  V30 11624 H 1109.58 -3.25414 2.61077 0
M  V30 11625 H 1108.21 -2.83108 1.5508 0
M  V30 11626 H 1107.26 -1.43095 3.5246 0
M  V30 11627 H 1108.57 -2.07781 4.53463 0
M  V30 11628 H 1107.72 -4.40536 4.17148 0
M  V30 11629 H 1106.46 -3.79487 3.06335 0
M  V30 11630 H 1105.47 -2.43915 4.92733 0
M  V30 11631 H 1106.69 -3.07954 6.05261 0
M  V30 11632 H 1104.64 -4.73619 4.53895 0
M  V30 11633 H 1104.56 -4.30394 6.21528 0
M  V30 11634 H 1105.82 -5.35691 5.66265 0
M  V30 11635 N 1110.05 -1.5248 -0.398459 0
M  V30 11636 C 1110.99 -1.72826 -1.50545 0
M  V30 11637 C 1112 -0.608683 -1.50993 0
M  V30 11638 O 1113.19 -0.88413 -1.55066 0
M  V30 11639 C 1110.29 -1.76327 -2.89417 0
M  V30 11640 C 1109.46 -3.05491 -3.1304 0
M  V30 11641 C 1108.52 -3.00663 -4.31843 0
M  V30 11642 O 1107.55 -3.74548 -4.28605 0
M  V30 11643 N 1108.75 -2.19191 -5.37527 0
M  V30 11644 H 1111.51 -2.68333 -1.33482 0
M  V30 11645 H 1109.07 -1.5085 -0.587875 0
M  V30 11646 H 1111.07 -1.70616 -3.66977 0
M  V30 11647 H 1109.64 -0.882476 -2.99885 0
M  V30 11648 H 1108.86 -3.24767 -2.23428 0
M  V30 11649 H 1110.14 -3.90915 -3.25673 0
M  V30 11650 H 1109.54 -1.58613 -5.43009 0
M  V30 11651 H 1108.1 -2.19328 -6.1379 0
M  V30 11652 N 1111.53 0.65634 -1.43283 0
M  V30 11653 C 1112.94 1.23744 -1.39801 0
M  V30 11654 C 1113.29 1.95942 -0.100507 0
M  V30 11655 O 1112.42 2.01063 0.800161 0
M  V30 11656 C 1113.01 2.25062 -2.53244 0
M  V30 11657 C 1111.57 2.78657 -2.53036 0
M  V30 11658 C 1110.72 1.53251 -2.31105 0
M  V30 11659 H 1113.67 0.448553 -1.52229 0
M  V30 11660 H 1113.69 3.07174 -2.24553 0
M  V30 11661 H 1113.2 1.72487 -3.47664 0
M  V30 11662 H 1111.3 3.35304 -1.62487 0
M  V30 11663 H 1111.42 3.26414 -3.507 0
M  V30 11664 H 1109.78 1.80487 -1.79713 0
M  V30 11665 H 1110.56 1.02615 -3.27605 0
M  V30 11666 N 1113.01 1.29761 0.894412 0
M  V30 11667 C 1114.26 1.19224 1.64794 0
M  V30 11668 C 1114.61 -0.252648 1.90734 0
M  V30 11669 O 1113.9 -1.17881 1.51045 0
M  V30 11670 C 1114.1 1.94458 2.99868 0
M  V30 11671 C 1113.93 3.46115 2.87114 0
M  V30 11672 C 1112.7 4.15469 2.87599 0
M  V30 11673 C 1114.89 4.41518 2.63754 0
M  V30 11674 N 1112.88 5.53453 2.65637 0
M  V30 11675 C 1114.25 5.66999 2.50823 0
M  V30 11676 C 1116.3 4.31221 2.48903 0
M  V30 11677 C 1115.01 6.83351 2.24554 0
M  V30 11678 C 1117.03 5.4733 2.24018 0
M  V30 11679 C 1116.39 6.71786 2.11856 0
M  V30 11680 H 1112.49 0.491294 0.608403 0
M  V30 11681 H 1115.08 1.63656 1.05474 0
M  V30 11682 H 1113.25 1.52432 3.57238 0
M  V30 11683 H 1114.98 1.76142 3.64357 0
M  V30 11684 H 1111.73 3.67217 2.9908 0
M  V30 11685 H 1112.16 6.26037 2.57695 0
M  V30 11686 H 1116.8 3.35689 2.57046 0
M  V30 11687 H 1114.52 7.78933 2.15149 0
M  V30 11688 H 1118.1 5.41265 2.13363 0
M  V30 11689 H 1116.98 7.60113 1.92867 0
M  V30 11690 N 1114.49 -1.10549 1.12324 0
M  V30 11691 C 1115.72 -1.86 0.899312 0
M  V30 11692 C 1116.13 -1.80881 -0.554854 0
M  V30 11693 O 1115.47 -1.19485 -1.39531 0
M  V30 11694 C 1115.53 -3.35384 1.29452 0
M  V30 11695 C 1115.19 -3.64263 2.75974 0
M  V30 11696 C 1116.19 -3.60962 3.74169 0
M  V30 11697 C 1113.88 -3.92976 3.1285 0
M  V30 11698 C 1115.87 -3.85966 5.07256 0
M  V30 11699 C 1113.56 -4.17637 4.4612 0
M  V30 11700 C 1114.56 -4.14122 5.43132 0
M  V30 11701 O 1114.24 -4.38156 6.73999 0
M  V30 11702 H 1113.98 -0.594743 0.321337 0
M  V30 11703 H 1116.53 -1.40674 1.49667 0
M  V30 11704 H 1114.76 -3.81361 0.640358 0
M  V30 11705 H 1116.45 -3.9222 1.04491 0
M  V30 11706 H 1117.21 -3.38819 3.47025 0
M  V30 11707 H 1113.09 -3.94843 2.3795 0
M  V30 11708 H 1116.64 -3.83138 5.82967 0
M  V30 11709 H 1112.53 -4.39258 4.72993 0
M  V30 11710 H 1113.3 -4.55677 6.79927 0
M  V30 11711 N 1115.97 -0.914965 -1.28321 0
M  V30 11712 C 1116.9 -0.361578 -2.2633 0
M  V30 11713 C 1117.91 0.500637 -1.54911 0
M  V30 11714 O 1119.1 0.31532 -1.75693 0
M  V30 11715 C 1116.2 0.501693 -3.35166 0
M  V30 11716 C 1115.37 -0.338289 -4.3609 0
M  V30 11717 C 1114.43 0.460267 -5.24183 0
M  V30 11718 O 1113.46 -0.127594 -5.69057 0
M  V30 11719 N 1114.66 1.76302 -5.5308 0
M  V30 11720 H 1117.42 -1.20402 -2.74451 0
M  V30 11721 H 1114.99 -0.781042 -1.41814 0
M  V30 11722 H 1116.98 1.04268 -3.91037 0
M  V30 11723 H 1115.55 1.24485 -2.86744 0
M  V30 11724 H 1114.77 -1.06064 -3.79663 0
M  V30 11725 H 1116.06 -0.912996 -5.00542 0
M  V30 11726 H 1115.45 2.26314 -5.18458 0
M  V30 11727 H 1114.01 2.25081 -6.11704 0
M  V30 11728 N 1117.44 1.42219 -0.679077 0
M  V30 11729 C 1118.37 2.33493 -0.0174528 0
M  V30 11730 C 1119.35 1.50915 0.78477 0
M  V30 11731 O 1120.54 1.79504 0.741065 0
M  V30 11732 C 1117.67 3.34576 0.931463 0
M  V30 11733 C 1116.62 4.2734 0.237527 0
M  V30 11734 C 1115.95 5.18664 1.29967 0
M  V30 11735 C 1117.25 5.14729 -0.886082 0
M  V30 11736 H 1118.94 2.89068 -0.779748 0
M  V30 11737 H 1116.49 1.38993 -0.376419 0
M  V30 11738 H 1118.44 3.97343 1.40343 0
M  V30 11739 H 1117.17 2.77315 1.72523 0
M  V30 11740 H 1115.83 3.65973 -0.214245 0
M  V30 11741 H 1115.47 4.57727 2.08554 0
M  V30 11742 H 1115.17 5.81558 0.840463 0
M  V30 11743 H 1116.7 5.84308 1.77249 0
M  V30 11744 H 1118.11 5.71158 -0.495141 0
M  V30 11745 H 1116.51 5.86478 -1.27135 0
M  V30 11746 H 1117.58 4.52874 -1.733 0
M  V30 11747 N 1118.92 0.422693 1.51826 0
M  V30 11748 C 1120.15 -0.15017 2.06856 0
M  V30 11749 C 1120.57 -1.36946 1.28948 0
M  V30 11750 O 1119.93 -1.78393 0.32338 0
M  V30 11751 C 1119.98 -0.465563 3.57582 0
M  V30 11752 O 1119.08 -1.55442 3.81984 0
M  V30 11753 H 1118.42 -0.00827931 0.663948 0
M  V30 11754 H 1120.95 0.599806 1.95611 0
M  V30 11755 H 1120.96 -0.720279 4.01592 0
M  V30 11756 H 1119.64 0.425679 4.13716 0
M  V30 11757 H 1118.21 -1.29081 3.49846 0
M  V30 11758 N 1120.4 -1.5685 0.153553 0
M  V30 11759 C 1121.35 -2.18385 -0.800667 0
M  V30 11760 C 1122.34 -1.14272 -1.25053 0
M  V30 11761 O 1123.55 -1.32509 -1.21825 0
M  V30 11762 H 1119.92 -0.699352 -0.276425 0
M  V30 11763 H 1121.89 -2.97287 -0.257535 0
M  V30 11764 C 1120.64 -2.82497 -2.02708 0
M  V30 11765 H 1119.97 -3.62328 -1.68992 0
M  V30 11766 H 1121.41 -3.29047 -2.67403 0
M  V30 11767 C 1119.86 -1.81343 -2.8393 0
M  V30 11768 O 1120.39 -1.28793 -3.80493 0
M  V30 11769 N 1118.6 -1.50499 -2.48593 0
M  V30 11770 H 1118.15 -1.93425 -1.70131 0
M  V30 11771 H 1118.11 -0.830672 -3.03228 0
M  V30 11772 N 1121.88 0.120221 -1.57141 0
M  V30 11773 C 1122.83 1.16654 -2.01233 0
M  V30 11774 C 1123.82 1.42943 -0.909053 0
M  V30 11775 O 1125.03 1.4292 -1.09426 0
M  V30 11776 H 1121.4 0.393289 -0.640958 0
M  V30 11777 H 1123.37 0.768156 -2.88343 0
M  V30 11778 C 1122.12 2.4854 -2.43152 0
M  V30 11779 H 1121.44 2.29149 -3.27614 0
M  V30 11780 H 1122.88 3.20315 -2.77802 0
M  V30 11781 C 1121.34 3.1103 -1.29468 0
M  V30 11782 O 1121.87 3.97042 -0.609982 0
M  V30 11783 N 1120.08 2.70888 -1.05205 0
M  V30 11784 H 1119.63 2.01039 -1.61062 0
M  V30 11785 H 1119.58 3.13028 -0.293347 0
M  V30 11786 N 1123.36 1.52689 0.390367 0
M  V30 11787 C 1124.27 1.8029 1.50108 0
M  V30 11788 C 1125.28 0.689582 1.59752 0
M  V30 11789 O 1126.46 0.977024 1.76114 0
M  V30 11790 C 1123.52 1.96475 2.85654 0
M  V30 11791 C 1122.58 3.2039 2.85743 0
M  V30 11792 C 1121.82 3.35793 4.14824 0
M  V30 11793 O 1122.04 2.56033 5.09709 0
M  V30 11794 O 1120.97 4.2904 4.22147 0
M  V30 11795 H 1124.8 2.74605 1.29715 0
M  V30 11796 H 1122.39 1.37763 0.578074 0
M  V30 11797 H 1124.27 2.08835 3.66013 0
M  V30 11798 H 1122.94 1.05351 3.06077 0
M  V30 11799 H 1121.85 3.13473 2.0417 0
M  V30 11800 H 1123.18 4.11356 2.70272 0
M  V30 11801 N 1124.83 -0.648732 1.43629 0
M  V30 11802 C 1126.08 -1.41066 1.45699 0
M  V30 11803 C 1126.41 -1.94024 0.082612 0
M  V30 11804 O 1125.69 -1.7257 -0.897207 0
M  V30 11805 C 1125.97 -2.58882 2.50304 0
M  V30 11806 C 1125.82 -2.11387 3.97033 0
M  V30 11807 C 1127.14 -3.61092 2.51597 0
M  V30 11808 H 1124.26 -0.511591 0.530512 0
M  V30 11809 H 1126.9 -0.735069 1.75205 0
M  V30 11810 H 1125.05 -3.16518 2.25274 0
M  V30 11811 H 1126.73 -1.58718 4.33136 0
M  V30 11812 H 1124.97 -1.4272 4.0965 0
M  V30 11813 H 1125.64 -2.96129 4.65845 0
M  V30 11814 H 1128.12 -3.13223 2.73917 0
M  V30 11815 H 1126.99 -4.41071 3.26722 0
M  V30 11816 H 1127.25 -4.13985 1.55141 0
M  V30 11817 N 1126.31 -1.30234 -0.887518 0
M  V30 11818 C 1127.56 -1.18277 -1.63381 0
M  V30 11819 C 1127.87 0.262079 -1.93836 0
M  V30 11820 O 1129.08 0.503127 -2.66797 0
M  V30 11821 C 1127.54 -2.06944 -2.94452 0
M  V30 11822 C 1127.14 -3.56323 -2.71547 0
M  V30 11823 C 1128.89 -2.03743 -3.7241 0
M  V30 11824 C 1126.8 -4.37054 -3.98419 0
M  V30 11825 H 1125.73 -0.439087 -0.612959 0
M  V30 11826 H 1128.38 -1.54964 -0.982779 0
M  V30 11827 H 1126.76 -1.63138 -3.60835 0
M  V30 11828 H 1127.93 -4.08261 -2.13681 0
M  V30 11829 H 1126.25 -3.61321 -2.06969 0
M  V30 11830 H 1128.84 -2.61312 -4.66497 0
M  V30 11831 H 1129.19 -1.02029 -4.03603 0
M  V30 11832 H 1129.72 -2.45657 -3.12886 0
M  V30 11833 H 1126.46 -5.39453 -3.72385 0
M  V30 11834 H 1125.98 -3.89881 -4.55799 0
M  V30 11835 H 1127.66 -4.48356 -4.66462 0
M  V30 11836 N 1127.79 1.09952 -1.12909 0
M  V30 11837 C 1128.7 2.19999 -0.81471 0
M  V30 11838 C 1129.72 1.72864 0.19851 0
M  V30 11839 O 1130.89 2.01376 0.0308832 0
M  V30 11840 C 1127.96 3.45573 -0.279363 0
M  V30 11841 C 1127.02 4.07417 -1.35314 0
M  V30 11842 C 1126.25 5.26996 -0.843247 0
M  V30 11843 O 1126.47 5.69495 0.321164 0
M  V30 11844 O 1125.41 5.79826 -1.61511 0
M  V30 11845 H 1129.23 2.49333 -1.73398 0
M  V30 11846 H 1126.82 1.18784 -0.906128 0
M  V30 11847 H 1128.7 4.21398 0.0140531 0
M  V30 11848 H 1127.38 3.17854 0.612401 0
M  V30 11849 H 1126.28 3.33253 -1.6998 0
M  V30 11850 H 1127.62 4.39349 -2.21885 0
M  V30 11851 N 1129.27 0.921757 1.27833 0
M  V30 11852 C 1130.51 0.566288 1.96399 0
M  V30 11853 C 1130.87 -0.875149 1.70895 0
M  V30 11854 O 1132.07 -1.3386 2.33099 0
M  V30 11855 C 1130.34 0.876329 3.4649 0
M  V30 11856 S 1131.9 0.628481 4.34276 0
M  V30 11857 H 1128.72 0.209246 0.679512 0
M  V30 11858 H 1131.32 1.18892 1.55193 0
M  V30 11859 H 1130.03 1.92319 3.62549 0
M  V30 11860 H 1129.56 0.242658 3.92651 0
M  V30 11861 H 1131.57 -0.516493 4.93505 0
M  V30 11862 N 1130.75 -1.41857 0.686609 0
M  V30 11863 C 1132 -2.00594 0.21095 0
M  V30 11864 C 1132.31 -1.54974 -1.19341 0
M  V30 11865 O 1133.51 -2.0621 -1.76607 0
M  V30 11866 C 1131.97 -3.58418 0.326261 0
M  V30 11867 C 1131.58 -4.13022 1.73542 0
M  V30 11868 C 1133.32 -4.24404 -0.0900816 0
M  V30 11869 C 1131.23 -5.6325 1.80287 0
M  V30 11870 H 1130.16 -0.75025 0.0751077 0
M  V30 11871 H 1132.81 -1.62442 0.853508 0
M  V30 11872 H 1131.19 -3.9413 -0.384394 0
M  V30 11873 H 1132.37 -3.88747 2.47411 0
M  V30 11874 H 1130.68 -3.5953 2.10065 0
M  V30 11875 H 1133.28 -5.34666 -0.060004 0
M  V30 11876 H 1133.62 -4.00745 -1.12733 0
M  V30 11877 H 1134.15 -3.93695 0.569979 0
M  V30 11878 H 1130.89 -5.91724 2.82034 0
M  V30 11879 H 1130.41 -5.89479 1.1079 0
M  V30 11880 H 1132.09 -6.2787 1.56167 0
M  V30 11881 N 1132.22 -0.430739 -1.51599 0
M  V30 11882 C 1133.45 0.136797 -2.06447 0
M  V30 11883 C 1133.87 1.37027 -1.29881 0
M  V30 11884 O 1133.22 1.78983 -0.356543 0
M  V30 11885 C 1133.28 0.465637 -3.58489 0
M  V30 11886 O 1133 -0.718873 -4.32162 0
M  V30 11887 C 1134.5 1.08456 -4.29828 0
M  V30 11888 H 1131.72 0.0108468 -0.670912 0
M  V30 11889 H 1134.26 -0.607921 -1.95255 0
M  V30 11890 H 1132.42 1.16025 -3.69617 0
M  V30 11891 H 1132.83 -0.439195 -5.22658 0
M  V30 11892 H 1134.3 1.2647 -5.37317 0
M  V30 11893 H 1134.78 2.06376 -3.87693 0
M  V30 11894 H 1135.39 0.429525 -4.23125 0
M  V30 11895 N 1133.7 1.56767 -0.161869 0
M  V30 11896 C 1134.63 2.1466 0.803356 0
M  V30 11897 C 1135.65 1.09977 1.20037 0
M  V30 11898 O 1136.84 1.37199 1.14187 0
M  V30 11899 C 1133.94 2.66663 2.09151 0
M  V30 11900 C 1133.11 3.95904 1.85953 0
M  V30 11901 C 1132.17 4.33067 2.98897 0
M  V30 11902 O 1131.19 5.01119 2.69942 0
M  V30 11903 N 1132.4 3.93856 4.26448 0
M  V30 11904 H 1135.16 2.98108 0.308472 0
M  V30 11905 H 1132.72 1.61886 0.0212238 0
M  V30 11906 H 1134.71 2.88528 2.83784 0
M  V30 11907 H 1133.28 1.87856 2.49857 0
M  V30 11908 H 1132.5 3.82513 0.952751 0
M  V30 11909 H 1133.79 4.8033 1.67811 0
M  V30 11910 H 1133.19 3.39051 4.52836 0
M  V30 11911 H 1131.75 4.20741 4.97815 0
M  V30 11912 N 1135.18 -0.111886 1.57202 0
M  V30 11913 C 1136.43 -0.816794 1.84859 0
M  V30 11914 C 1136.75 -1.80079 0.748113 0
M  V30 11915 O 1136.02 -1.94578 -0.227235 0
M  V30 11916 H 1134.6 -0.304633 0.682061 0
M  V30 11917 H 1137.26 -0.097513 1.94656 0
M  V30 11918 H 1136.36 -1.35768 2.81022 0
M  V30 11919 N 1136.66 -1.52894 -0.382264 0
M  V30 11920 C 1138.07 -1.42295 -0.722802 0
M  V30 11921 C 1138.27 -0.548717 -1.93885 0
M  V30 11922 O 1137.33 -0.0247431 -2.52488 0
M  V30 11923 C 1138.64 -2.85246 -0.9516 0
M  V30 11924 C 1140.19 -2.94768 -1.05265 0
M  V30 11925 C 1140.67 -4.38745 -1.31404 0
M  V30 11926 N 1142.16 -4.421 -1.38211 0
M  V30 11927 C 1142.89 -5.50592 -1.60113 0
M  V30 11928 N 1142.39 -6.69158 -1.79442 0
M  V30 11929 N 1144.18 -5.38145 -1.62347 0
M  V30 11930 H 1136.33 -2.0825 0.417816 0
M  V30 11931 H 1138.6 -0.939753 0.124776 0
M  V30 11932 H 1138.3 -3.51459 -0.130088 0
M  V30 11933 H 1138.18 -3.27903 -1.86439 0
M  V30 11934 H 1140.56 -2.28718 -1.86472 0
M  V30 11935 H 1140.64 -2.55529 -0.117619 0
M  V30 11936 H 1140.29 -5.05363 -0.507038 0
M  V30 11937 H 1140.22 -4.75542 -2.26202 0
M  V30 11938 H 1142.71 -3.56644 -1.24954 0
M  V30 11939 H 1143.02 -7.47615 -1.95681 0
M  V30 11940 H 1141.37 -6.72175 -1.76653 0
M  V30 11941 H 1144.56 -4.44485 -1.46803 0
M  V30 11942 H 1144.73 -6.22764 -1.79077 0
M  V30 11943 N 1138.14 0.641106 -1.43971 0
M  V30 11944 C 1139.38 1.40291 -1.46445 0
M  V30 11945 C 1139.72 1.93978 -0.0929004 0
M  V30 11946 O 1138.99 1.73043 0.888043 0
M  V30 11947 C 1139.27 2.57551 -2.51673 0
M  V30 11948 C 1139.13 2.09279 -3.98149 0
M  V30 11949 C 1140.45 3.59752 -2.53508 0
M  V30 11950 H 1137.57 0.508771 -0.533218 0
M  V30 11951 H 1140.21 0.725767 -1.75592 0
M  V30 11952 H 1138.36 3.15319 -2.2695 0
M  V30 11953 H 1140.03 1.56418 -4.33971 0
M  V30 11954 H 1138.27 1.40545 -4.10402 0
M  V30 11955 H 1138.94 2.93655 -4.67409 0
M  V30 11956 H 1141.42 3.11766 -2.75574 0
M  V30 11957 H 1140.3 4.39332 -3.29057 0
M  V30 11958 H 1140.56 4.13156 -1.57335 0
M  V30 11959 N 1139.62 1.30703 0.880598 0
M  V30 11960 C 1140.55 1.20033 2.00286 0
M  V30 11961 C 1141.53 0.0899614 1.69862 0
M  V30 11962 O 1142.71 0.272747 1.92275 0
M  V30 11963 C 1139.84 0.895902 3.35546 0
M  V30 11964 C 1138.8 1.96468 3.80242 0
M  V30 11965 C 1138.12 1.51316 5.12843 0
M  V30 11966 C 1139.42 3.37637 3.98496 0
M  V30 11967 H 1141.12 2.13922 2.0947 0
M  V30 11968 H 1138.66 1.02989 1.00644 0
M  V30 11969 H 1140.61 0.807899 4.13583 0
M  V30 11970 H 1139.34 -0.0786636 3.26505 0
M  V30 11971 H 1138 2.0424 3.04437 0
M  V30 11972 H 1137.65 0.52674 5.00234 0
M  V30 11973 H 1137.35 2.22807 5.43719 0
M  V30 11974 H 1138.87 1.43903 5.93401 0
M  V30 11975 H 1140.28 3.326 4.66959 0
M  V30 11976 H 1138.68 4.07253 4.40755 0
M  V30 11977 H 1139.75 3.79205 3.02211 0
M  V30 11978 N 1141.09 -1.09351 1.1349 0
M  V30 11979 C 1142.03 -2.15852 0.770763 0
M  V30 11980 C 1143.04 -1.61468 -0.207866 0
M  V30 11981 O 1144.23 -1.78496 0.0124385 0
M  V30 11982 C 1141.33 -3.38681 0.121871 0
M  V30 11983 C 1140.5 -4.22477 1.13279 0
M  V30 11984 C 1139.56 -5.23728 0.509448 0
M  V30 11985 O 1138.59 -5.57052 1.16967 0
M  V30 11986 N 1139.79 -5.76041 -0.718159 0
M  V30 11987 H 1142.55 -2.47696 1.6872 0
M  V30 11988 H 1140.11 -1.25074 1.02801 0
M  V30 11989 H 1142.11 -4.03531 -0.307404 0
M  V30 11990 H 1140.68 -3.04718 -0.697527 0
M  V30 11991 H 1139.9 -3.53753 1.73933 0
M  V30 11992 H 1141.18 -4.75288 1.81601 0
M  V30 11993 H 1140.58 -5.51183 -1.27331 0
M  V30 11994 H 1139.14 -6.4262 -1.09008 0
M  V30 11995 N 1142.57 -0.928524 -1.27343 0
M  V30 11996 C 1143.99 -0.62889 -1.46687 0
M  V30 11997 C 1144.19 0.821592 -1.83989 0
M  V30 11998 O 1143.24 1.59941 -1.95385 0
M  V30 11999 C 1144.56 -1.57947 -2.55878 0
M  V30 12000 C 1146.1 -1.58778 -2.69738 0
M  V30 12001 C 1146.58 -2.52535 -3.82087 0
M  V30 12002 N 1148.07 -2.50747 -3.89462 0
M  V30 12003 C 1148.81 -3.19981 -4.75814 0
M  V30 12004 N 1148.3 -3.98598 -5.66649 0
M  V30 12005 N 1150.09 -3.08996 -4.69551 0
M  V30 12006 H 1142.25 -1.86625 -1.01414 0
M  V30 12007 H 1144.51 -0.801293 -0.50659 0
M  V30 12008 H 1144.21 -2.61427 -2.35264 0
M  V30 12009 H 1144.09 -1.3218 -3.53282 0
M  V30 12010 H 1146.48 -0.560292 -2.89732 0
M  V30 12011 H 1146.56 -1.88594 -1.72817 0
M  V30 12012 H 1146.2 -3.55395 -3.62846 0
M  V30 12013 H 1146.13 -2.20015 -4.78436 0
M  V30 12014 H 1148.62 -1.93651 -3.24511 0
M  V30 12015 H 1148.93 -4.4841 -6.29403 0
M  V30 12016 H 1147.28 -4.02701 -5.66442 0
M  V30 12017 H 1150.47 -2.4707 -3.97585 0
M  V30 12018 H 1150.64 -3.63223 -5.36631 0
M  V30 12019 N 1144.05 1.41491 -0.694123 0
M  V30 12020 C 1145.46 1.84283 -0.299439 0
M  V30 12021 C 1145.81 1.58081 1.16211 0
M  V30 12022 O 1144.94 1.05051 1.89191 0
M  V30 12023 C 1145.53 3.34522 -0.536696 0
M  V30 12024 C 1144.09 3.7589 -0.195944 0
M  V30 12025 C 1143.24 2.64908 -0.819692 0
M  V30 12026 H 1146.19 1.31063 -0.894884 0
M  V30 12027 H 1146.21 3.79947 0.205062 0
M  V30 12028 H 1145.72 3.53561 -1.6005 0
M  V30 12029 H 1143.82 3.62452 0.863655 0
M  V30 12030 H 1143.94 4.74671 -0.649954 0
M  V30 12031 H 1142.3 2.53476 -0.249412 0
M  V30 12032 H 1143.08 2.86765 -1.88734 0
M  V30 12033 N 1145.53 0.438773 1.51369 0
M  V30 12034 C 1146.94 0.0911416 1.5934 0
M  V30 12035 C 1147.14 -1.39962 1.44958 0
M  V30 12036 O 1146.2 -2.16968 1.29155 0
M  V30 12037 C 1147.51 0.612531 2.94395 0
M  V30 12038 C 1149.06 0.573098 3.07709 0
M  V30 12039 C 1149.54 1.07149 4.4529 0
M  V30 12040 N 1151.03 1.02953 4.51614 0
M  V30 12041 C 1151.76 1.38602 5.56397 0
M  V30 12042 N 1151.26 1.81543 6.68591 0
M  V30 12043 N 1153.05 1.30409 5.46763 0
M  V30 12044 H 1145.2 1.40872 1.58962 0
M  V30 12045 H 1147.46 0.580589 0.749414 0
M  V30 12046 H 1147.17 1.65562 3.10294 0
M  V30 12047 H 1147.04 0.0382375 3.77181 0
M  V30 12048 H 1149.43 -0.461006 2.91477 0
M  V30 12049 H 1149.51 1.18381 2.26759 0
M  V30 12050 H 1149.16 2.10406 4.62268 0
M  V30 12051 H 1149.09 0.437297 5.24781 0
M  V30 12052 H 1151.58 0.714208 3.7109 0
M  V30 12053 H 1151.89 2.06977 7.44567 0
M  V30 12054 H 1150.24 1.8547 6.69795 0
M  V30 12055 H 1153.43 0.967272 4.57997 0
M  V30 12056 H 1153.6 1.5852 6.28312 0
M  V30 12057 N 1147.01 -1.56678 0.170181 0
M  V30 12058 C 1148.23 -2.01223 -0.481362 0
M  V30 12059 C 1148.65 -1.05039 -1.56883 0
M  V30 12060 O 1148.01 -0.0510751 -1.82429 0
M  V30 12061 C 1148.06 -3.45588 -1.06073 0
M  V30 12062 O 1147.78 -4.38097 -0.0166754 0
M  V30 12063 C 1149.28 -4.05527 -1.79061 0
M  V30 12064 H 1146.5 -0.659574 -0.1233 0
M  V30 12065 H 1149.04 -2.02689 0.271576 0
M  V30 12066 H 1147.2 -3.449 -1.76417 0
M  V30 12067 H 1147.61 -5.22615 -0.444276 0
M  V30 12068 H 1149.09 -5.08467 -2.1486 0
M  V30 12069 H 1149.56 -3.47554 -2.68519 0
M  V30 12070 H 1150.17 -4.09914 -1.13361 0
M  V30 12071 N 1148.48 0.103547 -1.57259 0
M  V30 12072 C 1149.72 0.814289 -1.8748 0
M  V30 12073 C 1150.09 1.76312 -0.760126 0
M  V30 12074 O 1151.29 2.51659 -0.944514 0
M  V30 12075 C 1149.56 1.53119 -3.22938 0
M  V30 12076 S 1151.12 2.28138 -3.74831 0
M  V30 12077 H 1147.94 0.271464 -0.657136 0
M  V30 12078 H 1150.54 0.07183 -1.95368 0
M  V30 12079 H 1149.24 0.826397 -4.01994 0
M  V30 12080 H 1148.77 2.31372 -3.18167 0
M  V30 12081 H 1150.79 3.54132 -3.4757 0
M  V30 12082 N 1149.96 1.53094 0.37415 0
M  V30 12083 C 1151.37 1.60641 0.951381 0
M  V30 12084 C 1151.72 0.468474 1.90525 0
M  V30 12085 O 1150.85 -0.406347 2.12551 0
M  V30 12086 C 1151.44 2.91166 1.73228 0
M  V30 12087 C 1150 3.01077 2.25898 0
M  V30 12088 C 1149.15 2.55873 1.06885 0
M  V30 12089 H 1152.1 1.57959 0.153214 0
M  V30 12090 H 1152.12 2.78487 2.59278 0
M  V30 12091 H 1151.63 3.73968 1.03778 0
M  V30 12092 H 1149.73 2.22844 2.98615 0
M  V30 12093 H 1149.85 4.05998 2.54367 0
M  V30 12094 H 1148.21 2.10544 1.43329 0
M  V30 12095 H 1148.99 3.41084 0.38947 0
M  V30 12096 N 1151.44 -0.633461 1.44309 0
M  V30 12097 C 1152.37 -1.75868 1.4698 0
M  V30 12098 C 1153.38 -1.58691 0.363469 0
M  V30 12099 O 1154.57 -1.67048 0.629075 0
M  V30 12100 C 1151.67 -3.1356 1.28582 0
M  V30 12101 C 1150.85 -3.57217 2.52418 0
M  V30 12102 C 1149.91 -4.73779 2.28954 0
M  V30 12103 O 1148.93 -4.8221 3.02428 0
M  V30 12104 N 1150.13 -5.65324 1.31866 0
M  V30 12105 H 1152.9 -1.74048 2.43983 0
M  V30 12106 H 1150.46 -0.817952 1.39718 0
M  V30 12107 H 1152.45 -3.89255 1.10736 0
M  V30 12108 H 1151.02 -3.10036 0.399529 0
M  V30 12109 H 1150.24 -2.71755 2.85557 0
M  V30 12110 H 1151.53 -3.83136 3.3479 0
M  V30 12111 H 1150.93 -5.61204 0.71179 0
M  V30 12112 H 1149.48 -6.40659 1.19998 0
M  V30 12113 N 1152.92 -1.31168 -0.873655 0
M  V30 12114 C 1153.83 -1.20458 -2.01313 0
M  V30 12115 C 1154.84 -0.122074 -1.73571 0
M  V30 12116 O 1156.02 -0.339176 -1.98523 0
M  V30 12117 C 1153.09 -0.90876 -3.34578 0
M  V30 12118 C 1152.15 -2.07779 -3.75668 0
M  V30 12119 C 1151.38 -1.79599 -5.02573 0
M  V30 12120 O 1151.6 -0.729338 -5.65718 0
M  V30 12121 O 1150.54 -2.65169 -5.40341 0
M  V30 12122 H 1154.36 -2.16207 -2.13279 0
M  V30 12123 H 1151.95 -1.10871 -1.00139 0
M  V30 12124 H 1153.83 -0.759469 -4.145 0
M  V30 12125 H 1152.5 0.0187249 -3.23695 0
M  V30 12126 H 1151.41 -2.28247 -2.96402 0
M  V30 12127 H 1152.74 -2.9874 -3.91172 0
M  V30 12128 N 1154.4 1.08748 -1.14068 0
M  V30 12129 C 1155.64 1.81333 -0.908081 0
M  V30 12130 C 1155.98 1.85826 0.564112 0
M  V30 12131 O 1155.25 1.33157 1.41773 0
M  V30 12132 C 1155.53 3.27127 -1.50531 0
M  V30 12133 C 1155.39 3.30865 -3.04711 0
M  V30 12134 C 1156.71 4.24006 -1.17928 0
M  V30 12135 H 1153.82 0.658326 -0.331325 0
M  V30 12136 H 1156.47 1.27345 -1.41008 0
M  V30 12137 H 1154.62 3.73233 -1.07839 0
M  V30 12138 H 1156.29 2.93109 -3.56209 0
M  V30 12139 H 1154.53 2.70241 -3.39341 0
M  V30 12140 H 1155.2 4.33603 -3.41603 0
M  V30 12141 H 1157.68 3.86221 -1.54831 0
M  V30 12142 H 1156.55 5.2434 -1.62353 0
M  V30 12143 H 1156.82 4.42 -0.0940349 0
M  V30 12144 N 1155.87 0.935264 1.26849 0
M  V30 12145 C 1157.1 0.595384 1.97835 0
M  V30 12146 C 1157.51 -0.832605 1.69895 0
M  V30 12147 O 1156.86 -1.56597 0.960371 0
M  V30 12148 C 1156.92 0.750567 3.51578 0
M  V30 12149 C 1156.58 2.15208 4.03156 0
M  V30 12150 C 1157.58 3.12699 4.15349 0
M  V30 12151 C 1155.26 2.47106 4.37314 0
M  V30 12152 C 1157.26 4.40193 4.60987 0
M  V30 12153 C 1154.94 3.74834 4.82641 0
M  V30 12154 C 1155.94 4.7119 4.94438 0
M  V30 12155 O 1155.63 5.96644 5.38768 0
M  V30 12156 H 1155.36 0.223734 0.637902 0
M  V30 12157 H 1157.92 1.25663 1.62475 0
M  V30 12158 H 1156.15 0.0322039 3.86687 0
M  V30 12159 H 1157.84 0.414625 4.03777 0
M  V30 12160 H 1158.6 2.89378 3.89211 0
M  V30 12161 H 1154.48 1.72846 4.2737 0
M  V30 12162 H 1158.02 5.15406 4.70109 0
M  V30 12163 H 1153.92 3.9797 5.08222 0
M  V30 12164 H 1154.69 5.99741 5.57003 0
M  V30 12165 N 1157.35 -1.41121 0.701616 0
M  V30 12166 C 1158.26 -2.34565 0.0407815 0
M  V30 12167 C 1159.28 -1.56555 -0.75937 0
M  V30 12168 O 1160.45 -1.89008 -0.695542 0
M  V30 12169 C 1157.52 -3.35347 -0.879954 0
M  V30 12170 C 1156.58 -4.29241 -0.0713279 0
M  V30 12171 C 1155.81 -5.25209 -0.948211 0
M  V30 12172 O 1156.04 -5.26781 -2.18766 0
M  V30 12173 O 1154.97 -6.00605 -0.394657 0
M  V30 12174 H 1158.8 -2.92666 0.811188 0
M  V30 12175 H 1156.38 -1.42077 0.461991 0
M  V30 12176 H 1158.26 -3.9719 -1.40776 0
M  V30 12177 H 1156.94 -2.7968 -1.62975 0
M  V30 12178 H 1155.85 -3.70727 0.50122 0
M  V30 12179 H 1157.18 -4.88022 0.639935 0
M  V30 12180 N 1158.83 -0.446794 -1.51134 0
M  V30 12181 C 1159.76 0.350229 -2.30858 0
M  V30 12182 C 1160.74 1.0125 -1.36684 0
M  V30 12183 O 1161.93 1.01433 -1.65605 0
M  V30 12184 C 1159.06 1.4464 -3.15748 0
M  V30 12185 C 1158.01 0.907102 -4.18277 0
M  V30 12186 C 1157.34 2.09974 -4.91747 0
M  V30 12187 C 1158.64 -0.0649758 -5.2226 0
M  V30 12188 H 1160.33 -0.315105 -2.97737 0
M  V30 12189 H 1157.88 -0.152985 -1.43185 0
M  V30 12190 H 1159.83 2.01127 -3.70305 0
M  V30 12191 H 1158.55 2.14016 -2.46708 0
M  V30 12192 H 1157.21 0.364382 -3.64785 0
M  V30 12193 H 1156.86 2.77991 -4.19202 0
M  V30 12194 H 1156.56 1.74523 -5.61084 0
M  V30 12195 H 1158.08 2.66996 -5.49131 0
M  V30 12196 H 1159.5 0.4099 -5.71833 0
M  V30 12197 H 1157.9 -0.332529 -5.99178 0
M  V30 12198 H 1158.97 -0.998681 -4.74504 0
M  V30 12199 N 1160.31 1.56586 -0.178487 0
M  V30 12200 C 1161.24 2.14168 0.787856 0
M  V30 12201 C 1162.22 1.07374 1.22105 0
M  V30 12202 O 1163.4 1.35391 1.31154 0
M  V30 12203 C 1160.53 2.68708 2.06189 0
M  V30 12204 C 1159.58 3.8794 1.77215 0
M  V30 12205 S 1160.41 5.27274 0.935002 0
M  V30 12206 C 1161.57 5.85224 2.21954 0
M  V30 12207 H 1161.8 2.958 0.298293 0
M  V30 12208 H 1159.33 1.54357 0.0362853 0
M  V30 12209 H 1161.29 3.00777 2.79363 0
M  V30 12210 H 1159.95 1.87149 2.52258 0
M  V30 12211 H 1159.14 4.24453 2.71764 0
M  V30 12212 H 1158.75 3.56795 1.12132 0
M  V30 12213 H 1161.04 5.98575 3.17355 0
M  V30 12214 H 1161.98 6.82162 1.89898 0
M  V30 12215 H 1162.39 5.13697 2.34042 0
M  V30 12216 N 1161.79 -0.095206 1.57312 0
M  V30 12217 C 1162.72 -1.11627 2.05089 0
M  V30 12218 C 1163.7 -1.41782 0.939787 0
M  V30 12219 O 1164.88 -1.51813 1.21105 0
M  V30 12220 C 1162.01 -2.43618 2.47523 0
M  V30 12221 C 1160.97 -2.27872 3.62296 0
M  V30 12222 C 1160.29 -3.65038 3.90706 0
M  V30 12223 C 1161.59 -1.71936 4.93189 0
M  V30 12224 H 1163.29 -0.718795 2.90644 0
M  V30 12225 H 1160.83 -0.344315 1.39823 0
M  V30 12226 H 1162.79 -3.1532 2.79556 0
M  V30 12227 H 1161.51 -2.85301 1.58968 0
M  V30 12228 H 1160.17 -1.58615 3.3051 0
M  V30 12229 H 1159.82 -4.04249 2.99319 0
M  V30 12230 H 1159.52 -3.55349 4.67976 0
M  V30 12231 H 1161.04 -4.38208 4.25213 0
M  V30 12232 H 1162.45 -2.33479 5.23603 0
M  V30 12233 H 1160.85 -1.73006 5.74621 0
M  V30 12234 H 1161.92 -0.678789 4.80125 0
M  V30 12235 N 1163.26 -1.53291 -0.366026 0
M  V30 12236 C 1164.51 -1.69117 -1.10653 0
M  V30 12237 C 1164.83 -0.445327 -1.89847 0
M  V30 12238 O 1164.1 0.540616 -1.88293 0
M  V30 12239 H 1162.68 -0.623446 -0.41149 0
M  V30 12240 H 1165.35 -1.90479 -0.412749 0
M  V30 12241 H 1164.44 -2.55205 -1.79658 0
M  V30 12242 N 1164.74 0.6258 -1.44643 0
M  V30 12243 C 1165.98 1.39676 -1.49232 0
M  V30 12244 C 1166.35 1.91601 -0.123682 0
M  V30 12245 O 1167.55 2.68764 -0.0442486 0
M  V30 12246 C 1165.82 2.52704 -2.52736 0
M  V30 12247 S 1167.38 3.40795 -2.76413 0
M  V30 12248 H 1164.2 0.476436 -0.527759 0
M  V30 12249 H 1166.8 0.72394 -1.81602 0
M  V30 12250 H 1165.5 2.12876 -3.50873 0
M  V30 12251 H 1165.03 3.24806 -2.21956 0
M  V30 12252 H 1167.05 4.5031 -2.08412 0
M  V30 12253 N 1166.22 1.31629 0.866686 0
M  V30 12254 C 1167.47 1.22693 1.62228 0
M  V30 12255 C 1167.82 -0.212134 1.91227 0
M  V30 12256 O 1167.11 -1.1465 1.53512 0
M  V30 12257 C 1167.31 2.00775 2.95676 0
M  V30 12258 C 1167.14 3.52128 2.79708 0
M  V30 12259 C 1165.91 4.21476 2.78722 0
M  V30 12260 C 1168.11 4.47013 2.5433 0
M  V30 12261 N 1166.09 5.58963 2.53838 0
M  V30 12262 C 1167.46 5.72192 2.3874 0
M  V30 12263 C 1169.51 4.36404 2.39701 0
M  V30 12264 C 1168.22 6.8796 2.10008 0
M  V30 12265 C 1170.24 5.51959 2.12358 0
M  V30 12266 C 1169.6 6.76129 1.97559 0
M  V30 12267 H 1165.7 0.504088 0.597845 0
M  V30 12268 H 1168.29 1.65856 1.01979 0
M  V30 12269 H 1166.46 1.59975 3.53924 0
M  V30 12270 H 1168.19 1.83831 3.60539 0
M  V30 12271 H 1164.95 3.73478 2.91224 0
M  V30 12272 H 1165.37 6.31362 2.44358 0
M  V30 12273 H 1170.01 3.41066 2.49868 0
M  V30 12274 H 1167.73 7.83321 1.98578 0
M  V30 12275 H 1171.32 5.45669 2.01834 0
M  V30 12276 H 1170.2 7.64033 1.76701 0
M  V30 12277 N 1167.7 -1.08142 1.14644 0
M  V30 12278 C 1168.63 -2.15022 0.793614 0
M  V30 12279 C 1169.64 -1.61679 -0.190729 0
M  V30 12280 O 1170.83 -1.78472 0.0313696 0
M  V30 12281 C 1167.93 -3.38532 0.157785 0
M  V30 12282 C 1167.11 -4.21252 1.17753 0
M  V30 12283 C 1166.17 -5.23158 0.564968 0
M  V30 12284 O 1165.19 -5.5578 1.22869 0
M  V30 12285 N 1166.39 -5.7677 -0.657022 0
M  V30 12286 H 1169.16 -2.45893 1.71338 0
M  V30 12287 H 1166.72 -1.23976 1.04122 0
M  V30 12288 H 1168.71 -4.03834 -0.264586 0
M  V30 12289 H 1167.28 -3.05441 -0.665168 0
M  V30 12290 H 1166.5 -3.51888 1.77675 0
M  V30 12291 H 1167.79 -4.73335 1.86632 0
M  V30 12292 H 1167.19 -5.52503 -1.21478 0
M  V30 12293 H 1165.74 -6.4374 -1.02186 0
M  V30 12294 N 1169.18 -0.941978 -1.26351 0
M  V30 12295 C 1170.59 -0.644413 -1.46012 0
M  V30 12296 C 1170.79 0.802031 -1.84851 0
M  V30 12297 O 1169.85 1.57859 -1.9707 0
M  V30 12298 C 1171.16 -1.60652 -2.54188 0
M  V30 12299 C 1172.71 -1.6163 -2.68038 0
M  V30 12300 C 1173.19 -2.56573 -3.79387 0
M  V30 12301 N 1174.68 -2.54863 -3.8678 0
M  V30 12302 C 1175.41 -3.2501 -4.72394 0
M  V30 12303 N 1174.91 -4.04586 -5.6239 0
M  V30 12304 N 1176.7 -3.13958 -4.66247 0
M  V30 12305 H 1168.85 -1.8769 -0.994293 0
M  V30 12306 H 1171.11 -0.806621 -0.498063 0
M  V30 12307 H 1170.82 -2.63907 -2.32478 0
M  V30 12308 H 1170.69 -1.3592 -3.5186 0
M  V30 12309 H 1173.08 -0.59099 -2.89122 0
M  V30 12310 H 1173.16 -1.90417 -1.70807 0
M  V30 12311 H 1172.81 -3.59223 -3.59056 0
M  V30 12312 H 1172.74 -2.25077 -4.76076 0
M  V30 12313 H 1175.23 -1.97082 -3.22439 0
M  V30 12314 H 1175.54 -4.55061 -6.24612 0
M  V30 12315 H 1173.89 -4.08687 -5.62139 0
M  V30 12316 H 1177.08 -2.51273 -3.94943 0
M  V30 12317 H 1177.25 -3.68894 -5.32749 0
M  V30 12318 N 1170.66 1.40747 -0.709091 0
M  V30 12319 C 1171.57 2.3454 -0.0532205 0
M  V30 12320 C 1172.58 1.56956 0.751057 0
M  V30 12321 O 1173.76 1.89375 0.685509 0
M  V30 12322 C 1170.82 3.35809 0.862157 0
M  V30 12323 C 1169.88 4.29273 0.0485632 0
M  V30 12324 C 1169.12 5.25705 0.920345 0
M  V30 12325 O 1169.34 5.27933 2.15969 0
M  V30 12326 O 1168.27 6.00806 0.3628 0
M  V30 12327 H 1172.1 2.92232 -0.826698 0
M  V30 12328 H 1169.68 1.4183 -0.469519 0
M  V30 12329 H 1171.57 3.97931 1.38668 0
M  V30 12330 H 1170.24 2.8054 1.61489 0
M  V30 12331 H 1169.15 3.70456 -0.520873 0
M  V30 12332 H 1170.48 4.87676 -0.665807 0
M  V30 12333 N 1172.13 0.454803 1.50895 0
M  V30 12334 C 1173.54 -0.00421212 1.867 0
M  V30 12335 C 1173.9 -1.4037 1.3708 0
M  V30 12336 O 1173.02 -2.03755 0.728884 0
M  V30 12337 C 1173.62 -0.0144196 3.38797 0
M  V30 12338 C 1172.17 -0.417905 3.74073 0
M  V30 12339 C 1171.32 0.37801 2.74711 0
M  V30 12340 H 1174.27 0.669849 1.4387 0
M  V30 12341 H 1174.29 -0.820172 3.71555 0
M  V30 12342 H 1173.81 1.00427 3.74881 0
M  V30 12343 H 1171.91 -1.44155 3.43584 0
M  V30 12344 H 1172.02 -0.130568 4.78922 0
M  V30 12345 H 1170.38 -0.166089 2.54158 0
M  V30 12346 H 1171.17 1.3959 3.13639 0
M  V30 12347 N 1173.61 -1.56489 0.186789 0
M  V30 12348 C 1174.56 -2.15311 -0.750024 0
M  V30 12349 C 1175.55 -1.09156 -1.18211 0
M  V30 12350 O 1176.74 -1.3524 -1.14189 0
M  V30 12351 C 1173.87 -2.80952 -1.97284 0
M  V30 12352 C 1172.95 -3.94286 -1.56204 0
M  V30 12353 N 1173.34 -4.98406 -0.861705 0
M  V30 12354 C 1171.64 -4.05733 -1.85194 0
M  V30 12355 C 1172.34 -5.77977 -0.657078 0
M  V30 12356 N 1171.32 -5.30116 -1.20326 0
M  V30 12357 H 1175.12 -2.93176 -0.206148 0
M  V30 12358 H 1172.63 -1.62395 -0.0133163 0
M  V30 12359 H 1174.63 -3.21479 -2.65437 0
M  V30 12360 H 1173.29 -2.04572 -2.52152 0
M  V30 12361 H 1174.3 -5.15302 -0.518067 0
M  V30 12362 H 1170.98 -3.40472 -2.4163 0
M  V30 12363 H 1172.37 -6.71822 -0.102123 0
M  V30 12364 N 1175.09 0.086862 -1.5736 0
M  V30 12365 C 1176.02 1.13614 -1.97907 0
M  V30 12366 C 1177 1.38395 -0.853564 0
M  V30 12367 O 1178.18 1.52018 -1.11457 0
M  V30 12368 C 1175.31 2.48364 -2.30289 0
M  V30 12369 C 1174.36 2.39814 -3.52692 0
M  V30 12370 S 1175.19 1.80673 -5.04101 0
M  V30 12371 C 1176.35 3.17031 -5.39669 0
M  V30 12372 H 1176.58 0.790538 -2.86597 0
M  V30 12373 H 1174.11 0.294847 -1.51559 0
M  V30 12374 H 1176.07 3.25883 -2.49621 0
M  V30 12375 H 1174.73 2.80091 -1.42154 0
M  V30 12376 H 1173.92 3.3915 -3.72818 0
M  V30 12377 H 1173.53 1.70427 -3.32912 0
M  V30 12378 H 1175.82 4.13319 -5.36818 0
M  V30 12379 H 1176.76 3.017 -6.40611 0
M  V30 12380 H 1177.17 3.16942 -4.67128 0
M  V30 12381 N 1176.57 1.53483 0.357892 0
M  V30 12382 C 1177.98 1.43426 0.700073 0
M  V30 12383 C 1178.18 0.579493 1.92987 0
M  V30 12384 O 1177.24 0.0649086 2.52417 0
M  V30 12385 C 1178.55 2.86723 0.906099 0
M  V30 12386 C 1180.1 2.96405 1.00563 0
M  V30 12387 C 1180.58 4.4078 1.24407 0
M  V30 12388 N 1182.07 4.44243 1.3116 0
M  V30 12389 C 1182.8 5.53069 1.51333 0
M  V30 12390 N 1182.3 6.71928 1.68774 0
M  V30 12391 N 1184.09 5.40659 1.53765 0
M  V30 12392 H 1176.24 2.07559 -0.450894 0
M  V30 12393 H 1178.5 0.937649 -0.139711 0
M  V30 12394 H 1178.21 3.51622 0.0741579 0
M  V30 12395 H 1178.08 3.30827 1.81199 0
M  V30 12396 H 1180.47 2.31656 1.8281 0
M  V30 12397 H 1180.55 2.55684 0.0769512 0
M  V30 12398 H 1180.2 5.06105 0.426575 0
M  V30 12399 H 1180.13 4.7908 2.18608 0
M  V30 12400 H 1182.62 3.58587 1.19265 0
M  V30 12401 H 1182.93 7.50634 1.83762 0
M  V30 12402 H 1181.28 6.749 1.65937 0
M  V30 12403 H 1184.47 4.46764 1.39713 0
M  V30 12404 H 1184.64 6.25535 1.69146 0
M  V30 12405 N 1178.05 -0.61812 1.44973 0
M  V30 12406 C 1178.99 -1.72942 1.52838 0
M  V30 12407 C 1179.96 -1.6181 0.375056 0
M  V30 12408 O 1181.15 -1.81544 0.587075 0
M  V30 12409 C 1178.29 -3.11228 1.49101 0
M  V30 12410 C 1177.4 -3.33243 2.74906 0
M  V30 12411 C 1176.54 -4.61574 2.62912 0
M  V30 12412 C 1175.57 -4.76811 3.8382 0
M  V30 12413 N 1174.71 -5.96432 3.70424 0
M  V30 12414 H 1179.55 -1.65556 2.47781 0
M  V30 12415 H 1177.09 -0.807411 1.2296 0
M  V30 12416 H 1179.05 -3.9122 1.44923 0
M  V30 12417 H 1177.68 -3.17598 0.577163 0
M  V30 12418 H 1176.73 -2.471 2.89216 0
M  V30 12419 H 1178.04 -3.40377 3.64616 0
M  V30 12420 H 1177.19 -5.49746 2.56641 0
M  V30 12421 H 1175.93 -4.5682 1.70784 0
M  V30 12422 H 1174.94 -3.87066 3.90461 0
M  V30 12423 H 1176.16 -4.83371 4.77001 0
M  V30 12424 H 1174.11 -5.92742 2.81057 0
M  V30 12425 H 1174.03 -6.0468 4.5376 0
M  V30 12426 H 1175.29 -6.8713 3.68067 0
M  V30 12427 N 1179.52 -1.32087 -0.859693 0
M  V30 12428 C 1180.47 -1.20549 -1.98924 0
M  V30 12429 C 1181.47 -0.111422 -1.69033 0
M  V30 12430 O 1182.67 -0.27401 -1.77902 0
M  V30 12431 H 1179.05 -0.373538 -0.652667 0
M  V30 12432 H 1181.02 -2.16091 -2.05785 0
M  V30 12433 C 1179.77 -0.940226 -3.34746 0
M  V30 12434 H 1179.09 -1.77427 -3.58273 0
M  V30 12435 H 1180.53 -0.899712 -4.14344 0
M  V30 12436 C 1178.99 0.357042 -3.35003 0
M  V30 12437 O 1179.52 1.37054 -3.77596 0
M  V30 12438 N 1177.72 0.37723 -2.88141 0
M  V30 12439 H 1177.27 -0.448051 -2.53674 0
M  V30 12440 H 1177.23 1.24509 -2.88695 0
M  V30 12441 N 1181 1.07532 -1.15215 0
M  V30 12442 C 1182.25 1.79474 -0.920439 0
M  V30 12443 C 1182.56 1.87593 0.553926 0
M  V30 12444 O 1183.77 2.56037 0.903169 0
M  V30 12445 C 1182.23 3.22509 -1.59738 0
M  V30 12446 C 1181.83 3.22596 -3.10863 0
M  V30 12447 C 1183.58 3.99072 -1.44714 0
M  V30 12448 C 1181.48 4.60273 -3.71352 0
M  V30 12449 H 1180.41 0.672625 -0.340722 0
M  V30 12450 H 1183.07 1.2071 -1.38208 0
M  V30 12451 H 1181.45 3.81454 -1.06342 0
M  V30 12452 H 1182.62 2.73306 -3.70999 0
M  V30 12453 H 1180.94 2.5953 -3.25627 0
M  V30 12454 H 1183.53 5.00823 -1.87299 0
M  V30 12455 H 1183.88 4.14428 -0.394386 0
M  V30 12456 H 1184.41 3.46617 -1.95195 0
M  V30 12457 H 1181.15 4.50122 -4.76519 0
M  V30 12458 H 1180.67 5.09809 -3.15998 0
M  V30 12459 H 1182.35 5.29243 -3.7217 0
M  V30 12460 N 1182.48 0.948665 1.2585 0
M  V30 12461 C 1183.43 0.462904 2.2611 0
M  V30 12462 C 1184.4 -0.481433 1.5897 0
M  V30 12463 O 1185.58 -0.395997 1.86645 0
M  V30 12464 C 1182.72 -0.258808 3.44128 0
M  V30 12465 C 1181.84 0.722072 4.25923 0
M  V30 12466 C 1180.97 -0.0215958 5.31196 0
M  V30 12467 C 1180.01 0.950612 6.04673 0
M  V30 12468 N 1179.15 0.238209 7.01696 0
M  V30 12469 H 1183.99 1.32279 2.67032 0
M  V30 12470 H 1181.52 0.663485 1.31287 0
M  V30 12471 H 1183.48 -0.693759 4.11391 0
M  V30 12472 H 1182.11 -1.08278 3.04098 0
M  V30 12473 H 1181.16 1.27552 3.58378 0
M  V30 12474 H 1182.48 1.46421 4.76825 0
M  V30 12475 H 1181.63 -0.51547 6.04506 0
M  V30 12476 H 1180.37 -0.796563 4.81151 0
M  V30 12477 H 1179.37 1.45554 5.30183 0
M  V30 12478 H 1180.6 1.72571 6.56808 0
M  V30 12479 H 1178.54 -0.518129 6.53951 0
M  V30 12480 H 1178.46 0.919542 7.50387 0
M  V30 12481 H 1179.73 -0.234325 7.79148 0
M  V30 12482 N 1183.96 -1.40369 0.716545 0
M  V30 12483 C 1185.21 -2.00473 0.255959 0
M  V30 12484 C 1185.53 -1.57104 -1.15514 0
M  V30 12485 O 1184.8 -0.810925 -1.78328 0
M  V30 12486 H 1183.38 -0.741357 0.0916427 0
M  V30 12487 H 1186.04 -1.71692 0.922389 0
M  V30 12488 H 1185.14 -3.10752 0.289806 0
M  V30 12489 N 1185.44 -0.462799 -1.50652 0
M  V30 12490 C 1186.69 0.0966838 -2.01468 0
M  V30 12491 C 1187 1.41529 -1.35014 0
M  V30 12492 O 1188.2 2.05923 -1.76941 0
M  V30 12493 C 1186.66 0.222826 -3.5921 0
M  V30 12494 C 1186.27 -1.08686 -4.34616 0
M  V30 12495 C 1188.01 0.734711 -4.18094 0
M  V30 12496 C 1185.92 -0.924964 -5.84122 0
M  V30 12497 H 1184.85 0.0399078 -0.752943 0
M  V30 12498 H 1187.5 -0.596437 -1.73536 0
M  V30 12499 H 1185.88 0.979539 -3.83694 0
M  V30 12500 H 1187.06 -1.85388 -4.21862 0
M  V30 12501 H 1185.37 -1.52922 -3.87303 0
M  V30 12502 H 1187.97 0.872734 -5.2753 0
M  V30 12503 H 1188.31 1.72389 -3.7893 0
M  V30 12504 H 1188.84 0.0356139 -3.97784 0
M  V30 12505 H 1185.58 -1.88727 -6.27744 0
M  V30 12506 H 1185.1 -0.198181 -5.99473 0
M  V30 12507 H 1186.78 -0.588262 -6.4432 0
M  V30 12508 N 1186.91 1.56388 -0.195085 0
M  V30 12509 C 1187.86 2.15705 0.738595 0
M  V30 12510 C 1188.85 1.09782 1.1763 0
M  V30 12511 O 1190.04 1.35844 1.1347 0
M  V30 12512 C 1187.17 2.81994 1.95791 0
M  V30 12513 C 1186.26 3.95108 1.54111 0
M  V30 12514 N 1186.65 4.98856 0.835261 0
M  V30 12515 C 1184.94 4.06709 1.8304 0
M  V30 12516 C 1185.65 5.78317 0.626417 0
M  V30 12517 N 1184.62 5.30746 1.17513 0
M  V30 12518 H 1188.42 2.93281 0.190597 0
M  V30 12519 H 1185.94 1.62399 0.00470391 0
M  V30 12520 H 1187.93 3.22883 2.63728 0
M  V30 12521 H 1186.59 2.05906 2.51063 0
M  V30 12522 H 1187.61 5.1557 0.490732 0
M  V30 12523 H 1184.28 3.41749 2.39821 0
M  V30 12524 H 1185.67 6.71867 0.0664935 0
M  V30 12525 N 1188.39 -0.0785156 1.57404 0
M  V30 12526 C 1189.62 -0.792042 1.9114 0
M  V30 12527 C 1190.04 -1.71458 0.790408 0
M  V30 12528 O 1189.39 -1.80959 -0.236662 0
M  V30 12529 C 1189.44 -1.59138 3.24588 0
M  V30 12530 O 1189.16 -0.705931 4.32375 0
M  V30 12531 C 1190.67 -2.4065 3.72293 0
M  V30 12532 H 1187.89 -0.225566 0.63195 0
M  V30 12533 H 1190.43 -0.0507929 2.04437 0
M  V30 12534 H 1188.58 -2.28498 3.12838 0
M  V30 12535 H 1189 -1.26121 5.09111 0
M  V30 12536 H 1190.47 -2.92204 4.68317 0
M  V30 12537 H 1190.95 -3.1987 3.00965 0
M  V30 12538 H 1191.56 -1.7646 3.86965 0
M  V30 12539 N 1189.87 -1.5367 -0.349747 0
M  V30 12540 C 1190.8 -1.84208 -1.43492 0
M  V30 12541 C 1191.78 -0.696725 -1.55177 0
M  V30 12542 O 1192.97 -0.948061 -1.69486 0
M  V30 12543 C 1190.1 -2.04613 -2.80625 0
M  V30 12544 C 1189.05 -3.20419 -2.83753 0
M  V30 12545 C 1188.38 -3.26147 -4.23713 0
M  V30 12546 C 1189.68 -4.58666 -2.49846 0
M  V30 12547 H 1191.37 -2.75087 -1.18185 0
M  V30 12548 H 1188.92 -1.32363 -0.567101 0
M  V30 12549 H 1190.87 -2.2456 -3.56582 0
M  V30 12550 H 1189.59 -1.10459 -3.07354 0
M  V30 12551 H 1188.25 -3.00318 -2.10249 0
M  V30 12552 H 1187.9 -2.29599 -4.47541 0
M  V30 12553 H 1187.6 -4.03963 -4.26717 0
M  V30 12554 H 1189.12 -3.48296 -5.0152 0
M  V30 12555 H 1190.54 -4.78668 -3.15516 0
M  V30 12556 H 1188.94 -5.3884 -2.64144 0
M  V30 12557 H 1190.01 -4.62697 -1.4505 0
M  V30 12558 N 1191.35 0.610423 -1.45298 0
M  V30 12559 C 1192.28 1.73207 -1.56594 0
M  V30 12560 C 1193.26 1.64893 -0.417651 0
M  V30 12561 O 1194.44 1.83336 -0.64043 0
M  V30 12562 C 1191.57 3.11803 -1.52959 0
M  V30 12563 C 1190.53 3.34925 -2.66475 0
M  V30 12564 C 1189.85 4.73764 -2.47894 0
M  V30 12565 C 1191.15 3.25456 -4.08504 0
M  V30 12566 H 1192.85 1.6401 -2.50482 0
M  V30 12567 H 1190.39 0.787621 -1.20551 0
M  V30 12568 H 1192.35 3.90065 -1.59458 0
M  V30 12569 H 1191.07 3.21833 -0.55599 0
M  V30 12570 H 1189.73 2.59051 -2.59399 0
M  V30 12571 H 1189.38 4.80524 -1.4868 0
M  V30 12572 H 1189.08 4.90191 -3.24016 0
M  V30 12573 H 1190.6 5.54231 -2.56243 0
M  V30 12574 H 1192.02 3.93597 -4.16839 0
M  V30 12575 H 1190.41 3.53414 -4.84994 0
M  V30 12576 H 1191.48 2.22939 -4.30612 0
M  V30 12577 N 1192.83 1.32541 0.852676 0
M  V30 12578 C 1193.76 1.17471 1.96807 0
M  V30 12579 C 1194.77 0.109198 1.62433 0
M  V30 12580 O 1195.96 0.358342 1.74866 0
M  V30 12581 C 1193.06 0.776328 3.29888 0
M  V30 12582 C 1192.23 1.93055 3.9249 0
M  V30 12583 C 1191.29 1.51539 5.03907 0
M  V30 12584 O 1190.32 2.22771 5.23796 0
M  V30 12585 N 1191.52 0.412533 5.79032 0
M  V30 12586 H 1194.29 2.13551 2.10276 0
M  V30 12587 H 1191.85 1.25104 1.02764 0
M  V30 12588 H 1193.84 0.48096 4.01832 0
M  V30 12589 H 1192.41 -0.0933749 3.12461 0
M  V30 12590 H 1191.63 2.39231 3.13309 0
M  V30 12591 H 1192.92 2.70321 4.3105 0
M  V30 12592 H 1192.31 -0.180286 5.65413 0
M  V30 12593 H 1190.87 0.17678 6.5156 0
M  V30 12594 N 1194.3 -1.0692 1.15784 0
M  V30 12595 C 1195.25 -2.16335 0.854506 0
M  V30 12596 C 1196.25 -1.68505 -0.173868 0
M  V30 12597 O 1197.45 -1.79977 -0.0284722 0
M  V30 12598 H 1193.83 -0.706103 0.258694 0
M  V30 12599 H 1195.8 -2.39135 1.78486 0
M  V30 12600 C 1194.55 -3.45778 0.365042 0
M  V30 12601 H 1193.87 -3.82971 1.14776 0
M  V30 12602 H 1195.31 -4.23567 0.191504 0
M  V30 12603 C 1193.77 -3.24258 -0.914253 0
M  V30 12604 O 1194.3 -3.49236 -1.98487 0
M  V30 12605 N 1192.51 -2.77722 -0.855501 0
M  V30 12606 H 1192.05 -2.57595 0.0159233 0
M  V30 12607 H 1192.01 -2.63702 -1.71198 0
M  V30 12608 N 1195.78 -0.955326 -1.25345 0
M  V30 12609 C 1196.71 -0.494145 -2.28211 0
M  V30 12610 C 1197.69 0.459875 -1.63766 0
M  V30 12611 O 1198.88 0.358679 -1.90859 0
M  V30 12612 C 1196.01 0.228228 -3.46549 0
M  V30 12613 C 1194.96 -0.640601 -4.23179 0
M  V30 12614 C 1194.29 0.212553 -5.34277 0
M  V30 12615 C 1195.59 -1.91906 -4.85767 0
M  V30 12616 H 1197.28 -1.35391 -2.67039 0
M  V30 12617 H 1194.83 -0.652462 -1.2837 0
M  V30 12618 H 1196.78 0.561995 -4.17636 0
M  V30 12619 H 1195.51 1.12224 -3.06714 0
M  V30 12620 H 1194.16 -0.957462 -3.53876 0
M  V30 12621 H 1193.81 1.10634 -4.90682 0
M  V30 12622 H 1193.51 -0.365473 -5.86462 0
M  V30 12623 H 1195.04 0.541271 -6.08196 0
M  V30 12624 H 1196.45 -1.65165 -5.48993 0
M  V30 12625 H 1194.85 -2.44279 -5.48131 0
M  V30 12626 H 1195.92 -2.62173 -4.07914 0
M  V30 12627 N 1197.26 1.39987 -0.723979 0
M  V30 12628 C 1198.22 2.29041 -0.0854583 0
M  V30 12629 C 1199.22 1.45777 0.678657 0
M  V30 12630 O 1200.41 1.66588 0.509311 0
M  V30 12631 C 1197.55 3.29115 0.88859 0
M  V30 12632 H 1198.74 2.87006 -0.869903 0
M  V30 12633 H 1196.29 1.48449 -0.489136 0
M  V30 12634 H 1197.03 2.76184 1.69979 0
M  V30 12635 H 1196.81 3.90593 0.343454 0
M  V30 12636 H 1198.3 3.95778 1.33227 0
M  V30 12637 N 1198.74 0.470782 1.50404 0
M  V30 12638 C 1199.69 -0.32355 2.28521 0
M  V30 12639 C 1200.66 -0.987472 1.3356 0
M  V30 12640 O 1201.84 -0.999969 1.62497 0
M  V30 12641 C 1198.98 -1.39977 3.15437 0
M  V30 12642 C 1198.09 -0.750656 4.25428 0
M  V30 12643 C 1197.23 -1.80474 4.99602 0
M  V30 12644 C 1196.27 -1.13586 6.01469 0
M  V30 12645 N 1195.41 -2.13279 6.68922 0
M  V30 12646 H 1200.25 0.348902 2.9595 0
M  V30 12647 H 1197.78 0.183908 1.45946 0
M  V30 12648 H 1199.74 -2.0354 3.6418 0
M  V30 12649 H 1198.37 -2.04139 2.50054 0
M  V30 12650 H 1197.42 -0.00247092 3.804 0
M  V30 12651 H 1198.73 -0.222638 4.98303 0
M  V30 12652 H 1197.89 -2.51619 5.52062 0
M  V30 12653 H 1196.63 -2.36657 4.26433 0
M  V30 12654 H 1195.63 -0.410042 5.48269 0
M  V30 12655 H 1196.86 -0.580935 6.76611 0
M  V30 12656 H 1194.8 -2.68479 5.98544 0
M  V30 12657 H 1194.72 -1.65461 7.37671 0
M  V30 12658 H 1195.99 -2.83804 7.26 0
M  V30 12659 N 1200.22 -1.56282 0.203376 0
M  V30 12660 C 1201.18 -2.18233 -0.700489 0
M  V30 12661 C 1202.18 -1.13908 -1.13497 0
M  V30 12662 O 1203.37 -1.39246 -1.04672 0
M  V30 12663 C 1200.5 -2.79107 -1.95735 0
M  V30 12664 H 1201.7 -2.99469 -0.160649 0
M  V30 12665 H 1199.25 -1.56232 -0.0462475 0
M  V30 12666 H 1199.98 -2.01691 -2.53951 0
M  V30 12667 H 1199.77 -3.55486 -1.65446 0
M  V30 12668 H 1201.26 -3.2665 -2.60172 0
M  V30 12669 N 1201.7 0.070167 -1.57444 0
M  V30 12670 C 1202.92 0.785703 -1.91941 0
M  V30 12671 C 1203.35 1.70243 -0.799932 0
M  V30 12672 O 1202.7 1.79608 0.247139 0
M  V30 12673 C 1202.75 1.55398 -3.25398 0
M  V30 12674 O 1201.86 2.66475 -3.14746 0
M  V30 12675 H 1201.2 0.214245 -0.628486 0
M  V30 12676 H 1203.73 0.0379243 -2.04565 0
M  V30 12677 H 1203.74 1.93287 -3.5931 0
M  V30 12678 H 1202.41 0.881366 -4.06454 0
M  V30 12679 H 1200.99 2.3143 -2.92394 0
M  V30 12680 N 1203.17 1.53854 0.341593 0
M  V30 12681 C 1204.58 1.62623 0.917093 0
M  V30 12682 C 1204.94 0.508781 1.89488 0
M  V30 12683 O 1204.06 -0.361171 2.13365 0
M  V30 12684 C 1204.66 2.94775 1.67012 0
M  V30 12685 C 1203.21 3.058 2.19461 0
M  V30 12686 C 1202.36 2.58082 1.01433 0
M  V30 12687 H 1205.31 1.58248 0.119674 0
M  V30 12688 H 1205.33 2.83924 2.53313 0
M  V30 12689 H 1204.85 3.76085 0.958221 0
M  V30 12690 H 1202.95 2.29128 2.93821 0
M  V30 12691 H 1203.06 4.11302 2.45698 0
M  V30 12692 H 1201.42 2.13537 1.38831 0
M  V30 12693 H 1202.21 3.41833 0.317033 0
M  V30 12694 N 1204.65 -0.602709 1.4562 0
M  V30 12695 C 1205.9 -1.36359 1.50113 0
M  V30 12696 C 1206.23 -1.93663 0.144297 0
M  V30 12697 O 1205.51 -1.75337 -0.841851 0
M  V30 12698 C 1205.79 -2.50788 2.58413 0
M  V30 12699 C 1205.64 -1.98649 4.03557 0
M  V30 12700 C 1206.96 -3.52905 2.62957 0
M  V30 12701 H 1204.08 -0.494455 0.54652 0
M  V30 12702 H 1206.72 -0.678957 1.77455 0
M  V30 12703 H 1204.87 -3.09191 2.3523 0
M  V30 12704 H 1206.54 -1.44857 4.37966 0
M  V30 12705 H 1204.79 -1.29615 4.13984 0
M  V30 12706 H 1205.46 -2.81159 4.7503 0
M  V30 12707 H 1207.93 -3.0435 2.83743 0
M  V30 12708 H 1206.81 -4.30454 3.40589 0
M  V30 12709 H 1207.07 -4.0884 1.68233 0
M  V30 12710 N 1206.13 -1.32992 -0.845635 0
M  V30 12711 C 1207.36 -1.26903 -1.63031 0
M  V30 12712 C 1207.77 0.163589 -1.88491 0
M  V30 12713 O 1207.11 1.11402 -1.46066 0
M  V30 12714 C 1207.17 -1.96843 -3.00821 0
M  V30 12715 C 1206.84 -3.46164 -2.98362 0
M  V30 12716 C 1207.83 -4.41488 -2.74562 0
M  V30 12717 C 1205.52 -3.88237 -3.18712 0
M  V30 12718 C 1207.51 -5.7686 -2.71129 0
M  V30 12719 C 1205.2 -5.23715 -3.14905 0
M  V30 12720 C 1206.2 -6.17838 -2.91144 0
M  V30 12721 O 1205.89 -7.50836 -2.87228 0
M  V30 12722 H 1205.62 -0.438806 -0.514223 0
M  V30 12723 H 1208.17 -1.75817 -1.06196 0
M  V30 12724 H 1206.4 -1.42511 -3.59482 0
M  V30 12725 H 1208.09 -1.84343 -3.61625 0
M  V30 12726 H 1208.86 -4.10308 -2.58598 0
M  V30 12727 H 1204.74 -3.1539 -3.36229 0
M  V30 12728 H 1208.28 -6.50299 -2.52502 0
M  V30 12729 H 1204.18 -5.54523 -3.30416 0
M  V30 12730 H 1204.94 -7.60304 -3.03118 0
M  V30 12731 N 1207.61 1.06304 -1.1635 0
M  V30 12732 C 1208.54 2.15745 -0.893103 0
M  V30 12733 C 1209.52 1.69341 0.160531 0
M  V30 12734 O 1210.7 1.94196 0.0126526 0
M  V30 12735 C 1207.83 3.45066 -0.393287 0
M  V30 12736 C 1206.79 4.04978 -1.38482 0
M  V30 12737 C 1206.11 5.29507 -0.743409 0
M  V30 12738 C 1207.41 4.4377 -2.75438 0
M  V30 12739 H 1209.11 2.38622 -1.80831 0
M  V30 12740 H 1206.65 1.14681 -0.870878 0
M  V30 12741 H 1208.61 4.20964 -0.191607 0
M  V30 12742 H 1207.33 3.21808 0.557426 0
M  V30 12743 H 1205.99 3.31136 -1.57304 0
M  V30 12744 H 1205.64 5.02545 0.213787 0
M  V30 12745 H 1205.34 5.7055 -1.40521 0
M  V30 12746 H 1206.86 6.08102 -0.551746 0
M  V30 12747 H 1208.28 5.1075 -2.60398 0
M  V30 12748 H 1206.67 4.95797 -3.38091 0
M  V30 12749 H 1207.74 3.54636 -3.30699 0
M  V30 12750 N 1209.09 0.96196 1.24836 0
M  V30 12751 C 1210.36 0.537809 1.88061 0
M  V30 12752 C 1210.74 -0.985023 1.8671 0
M  V30 12753 O 1210.09 -1.85394 1.33572 0
M  V30 12754 C 1210.3 1.12279 3.30446 0
M  V30 12755 C 1211.65 1.20414 4.07168 0
M  V30 12756 O 1212.67 1.07488 3.39595 0
M  V30 12757 O 1211.53 1.4078 5.28056 0
M  V30 12758 H 1208.63 0.178491 0.807509 0
M  V30 12759 H 1211.17 1.05586 1.32852 0
M  V30 12760 H 1209.94 2.16578 3.25898 0
M  V30 12761 H 1209.57 0.58843 3.93222 0
M  V30 12762 N 1210.56 -1.39601 0.731392 0
M  V30 12763 C 1211.81 -1.99821 0.274661 0
M  V30 12764 C 1212.13 -1.58693 -1.1435 0
M  V30 12765 O 1213.33 -2.11724 -1.69957 0
M  V30 12766 C 1211.79 -3.57199 0.440124 0
M  V30 12767 C 1211.4 -4.07292 1.86594 0
M  V30 12768 C 1213.14 -4.24476 0.0449851 0
M  V30 12769 C 1211.05 -5.57229 1.98115 0
M  V30 12770 H 1209.98 -0.747481 0.0989383 0
M  V30 12771 H 1212.63 -1.59645 0.904755 0
M  V30 12772 H 1211.01 -3.95153 -0.25881 0
M  V30 12773 H 1212.18 -3.80679 2.59654 0
M  V30 12774 H 1210.5 -3.52665 2.21397 0
M  V30 12775 H 1213.1 -5.34587 0.110126 0
M  V30 12776 H 1213.44 -4.04129 -0.999269 0
M  V30 12777 H 1213.97 -3.91683 0.694942 0
M  V30 12778 H 1210.71 -5.82452 3.00716 0
M  V30 12779 H 1210.23 -5.85656 1.29487 0
M  V30 12780 H 1211.91 -6.22584 1.76063 0
M  V30 12781 N 1212.04 -0.478751 -1.50152 0
M  V30 12782 C 1212.97 0.301182 -2.31549 0
M  V30 12783 C 1213.95 0.983276 -1.38801 0
M  V30 12784 O 1215.14 0.978973 -1.67719 0
M  V30 12785 C 1212.27 1.3791 -3.18745 0
M  V30 12786 C 1211.22 0.818175 -4.20107 0
M  V30 12787 C 1210.55 1.99496 -4.9609 0
M  V30 12788 C 1211.85 -0.17574 -5.22004 0
M  V30 12789 H 1213.54 -0.378188 -2.97002 0
M  V30 12790 H 1211.09 -0.183323 -1.42828 0
M  V30 12791 H 1213.04 1.93227 -3.74488 0
M  V30 12792 H 1211.77 2.08735 -2.51192 0
M  V30 12793 H 1210.42 0.286924 -3.65475 0
M  V30 12794 H 1210.07 2.69036 -4.25004 0
M  V30 12795 H 1209.77 1.62582 -5.6466 0
M  V30 12796 H 1211.3 2.55288 -5.54671 0
M  V30 12797 H 1212.71 0.288513 -5.72574 0
M  V30 12798 H 1211.11 -0.459549 -5.98338 0
M  V30 12799 H 1212.18 -1.09911 -4.72279 0
M  V30 12800 N 1213.52 1.56172 -0.211661 0
M  V30 12801 C 1214.77 1.97648 0.421871 0
M  V30 12802 C 1215.09 1.10026 1.60995 0
M  V30 12803 O 1214.36 0.175109 1.95116 0
M  V30 12804 H 1212.94 0.729914 0.158852 0
M  V30 12805 H 1215.6 1.92542 -0.302254 0
M  V30 12806 H 1214.7 3.02834 0.754868 0
M  V30 12807 O 1215.04 0.0750807 1.61325 0
M  V30 12808 H 1215.73 -0.530633 1.8629 0
M  V30 END ATOM
M  V30 BEGIN BOND
M  V30 END BOND
M  V30 END CTAB
M  END
$$$$
