drugbank_target|P55210 Caspase-7 (DB03384; DB05408; DB06255)
 OpenBabel12092120003D

  0  0  0     0  0            999 V3000
M  V30 BEGIN CTAB
M  V30 COUNTS 4747 4795 0 0 0
M  V30 BEGIN ATOM
M  V30 1 H -0.908 1.98254 -0.117106 0
M  V30 2 N 0 1.576 0 0
M  V30 3 C 0.933 2.03868 1.02534 0
M  V30 4 C 1.911 0.928543 1.3348 0
M  V30 5 O 3.095 1.19667 1.45644 0
M  V30 6 C 0.222 2.43627 2.35294 0
M  V30 7 C -0.732 3.65373 2.2001 0
M  V30 8 S 0.101 5.13292 1.52614 0
M  V30 9 C 1.257 5.56322 2.86805 0
M  V30 10 H 1.49 2.90518 0.631377 0
M  V30 11 H -0.977 1.52953 0.210867 0
M  V30 12 H 0.981 2.67203 3.11629 0
M  V30 13 H -0.358 1.57376 2.7183 0
M  V30 14 H -1.165 3.90944 3.18086 0
M  V30 15 H -1.563 3.418 1.51819 0
M  V30 16 H 0.729 5.58782 3.83104 0
M  V30 17 H 1.672 6.56266 2.65933 0
M  V30 18 H 2.08 4.83886 2.90714 0
M  V30 19 N 1.4781 -0.272755 1.55222 0
M  V30 20 C 2.4411 -1.32041 1.87344 0
M  V30 21 C 3.4411 -1.42342 0.74803 0
M  V30 22 O 4.6311 -1.41488 1.0162 0
M  V30 23 C 1.7631 -2.70173 2.07893 0
M  V30 24 H 2.9561 -1.04789 2.80997 0
M  V30 25 H 0.5091 -0.51083 1.47717 0
M  V30 26 H 1.2441 -3.02605 1.16622 0
M  V30 27 H 1.0291 -2.64082 2.89833 0
M  V30 28 H 2.5191 -3.45869 2.34017 0
M  V30 29 N 2.9562 -1.48159 -0.537278 0
M  V30 30 C 4.2332 -1.46291 -1.29839 0
M  V30 31 C 4.6132 -0.170613 -2.10409 0
M  V30 32 O 3.9612 0.847746 -2.12192 0
M  V30 33 C 4.1712 -2.72055 -2.18603 0
M  V30 34 C 5.5192 -3.20087 -2.7898 0
M  V30 35 O 6.5432 -2.72921 -2.28894 0
M  V30 36 O 5.4022 -4.02138 -3.70064 0
M  V30 37 H 2.4962 -0.583906 -0.585647 0
M  V30 38 H 5.0422 -1.60384 -0.554534 0
M  V30 39 H 3.8142 -3.57628 -1.58801 0
M  V30 40 H 3.4372 -2.60646 -3.00249 0
M  V30 41 N 4.4343 0.785586 -1.36625 0
M  V30 42 C 5.7113 1.53198 -1.21613 0
M  V30 43 C 6.0913 2.10187 0.196113 0
M  V30 44 O 5.4393 1.94318 1.20219 0
M  V30 45 C 5.6493 2.62388 -2.30116 0
M  V30 46 C 6.9973 3.30167 -2.66974 0
M  V30 47 O 8.0213 2.72674 -2.29188 0
M  V30 48 O 6.8803 4.34077 -3.32023 0
M  V30 49 H 3.9743 0.677865 -0.473738 0
M  V30 50 H 6.5203 0.823739 -1.48367 0
M  V30 51 H 5.2923 2.18299 -3.24748 0
M  V30 52 H 4.9153 3.40827 -2.0475 0
M  V30 53 N 5.9124 1.20967 1.01018 0
M  V30 54 C 6.8444 0.922059 2.09835 0
M  V30 55 C 7.8574 -0.0927106 1.62536 0
M  V30 56 O 9.0464 0.139127 1.77957 0
M  V30 57 C 6.1464 0.362004 3.36961 0
M  V30 58 C 5.3194 1.42986 4.13369 0
M  V30 59 C 4.3784 0.879976 5.1879 0
M  V30 60 O 3.4044 1.56219 5.47343 0
M  V30 61 N 4.6064 -0.307396 5.79686 0
M  V30 62 H 7.3714 1.8588 2.35093 0
M  V30 63 H 4.9324 1.11422 1.1746 0
M  V30 64 H 6.9244 -0.0201474 4.04695 0
M  V30 65 H 5.4944 -0.479437 3.08902 0
M  V30 66 H 4.7144 1.98608 3.40512 0
M  V30 67 H 6.0024 2.14885 4.61196 0
M  V30 68 H 5.4004 -0.878796 5.58832 0
M  V30 69 H 3.9574 -0.631115 6.48737 0
M  V30 70 N 7.3905 -1.2043 1.01659 0
M  V30 71 C 8.6385 -1.89423 0.704522 0
M  V30 72 C 8.9595 -1.79231 -0.768197 0
M  V30 73 O 8.2295 -1.1947 -1.55254 0
M  V30 74 H 6.8095 -0.701178 0.257602 0
M  V30 75 H 9.4715 -1.4626 1.28818 0
M  V30 76 H 8.5675 -2.96052 0.987916 0
M  V30 77 N 8.8686 -0.792821 -1.36206 0
M  V30 78 C 10.1086 -0.372238 -2.00982 0
M  V30 79 C 10.4726 1.03749 -1.61555 0
M  V30 80 O 11.6736 1.55934 -2.18948 0
M  V30 81 C 9.9446 -0.534566 -3.5338 0
M  V30 82 S 11.5036 -0.202365 -4.38333 0
M  V30 83 H 8.3216 -0.142044 -0.696667 0
M  V30 84 H 10.9236 -1.03206 -1.66039 0
M  V30 85 H 9.6276 -1.5608 -3.79562 0
M  V30 86 H 9.1586 0.141065 -3.93147 0
M  V30 87 H 11.1736 0.994869 -4.86124 0
M  V30 88 N 10.3467 1.47872 -0.545128 0
M  V30 89 C 11.5957 2.01695 -0.0145033 0
M  V30 90 C 11.9087 1.42609 1.33873 0
M  V30 91 O 13.1147 1.88021 1.95858 0
M  V30 92 C 11.5707 3.59892 0.0245068 0
M  V30 93 C 11.1787 4.27966 -1.32475 0
M  V30 94 C 12.9227 4.21507 0.50316 0
M  V30 95 C 10.8297 5.78136 -1.2455 0
M  V30 96 H 9.7597 0.753998 -0.00165172 0
M  V30 97 H 12.4107 1.69985 -0.691175 0
M  V30 98 H 10.7927 3.88509 0.766575 0
M  V30 99 H 11.9667 4.11003 -2.08357 0
M  V30 100 H 10.2817 3.78286 -1.74036 0
M  V30 101 H 12.8787 5.31538 0.580656 0
M  V30 102 H 13.2217 3.87855 1.51243 0
M  V30 103 H 13.7547 3.97376 -0.183681 0
M  V30 104 H 10.4937 6.16388 -2.23039 0
M  V30 105 H 10.0137 5.97469 -0.528282 0
M  V30 106 H 11.6927 6.40099 -0.942488 0
M  V30 107 N 11.8248 0.280983 1.55075 0
M  V30 108 C 12.7348 -0.61388 2.26426 0
M  V30 109 C 13.7508 -1.16521 1.29224 0
M  V30 110 O 14.9268 -1.19426 1.62171 0
M  V30 111 C 11.9918 -1.7788 2.9759 0
M  V30 112 C 11.0528 -1.26355 4.10284 0
M  V30 113 C 10.2858 -2.37295 4.78045 0
M  V30 114 O 10.5088 -3.56777 4.45047 0
M  V30 115 O 9.4428 -2.05119 5.65871 0
M  V30 116 H 13.2688 -0.0356932 3.03679 0
M  V30 117 H 10.8538 0.0481686 1.49322 0
M  V30 118 H 12.7358 -2.45791 3.42293 0
M  V30 119 H 11.4108 -2.34397 2.23249 0
M  V30 120 H 10.3178 -0.550735 3.70024 0
M  V30 121 H 11.6508 -0.744065 4.86543 0
M  V30 122 N 13.3029 -1.57598 0.00835791 0
M  V30 123 C 14.2129 -2.12385 -0.996487 0
M  V30 124 C 15.2289 -1.07108 -1.37127 0
M  V30 125 O 16.4049 -1.39055 -1.4569 0
M  V30 126 C 13.4699 -2.62314 -2.26699 0
M  V30 127 C 12.5309 -3.82225 -1.95456 0
M  V30 128 C 11.7639 -4.29763 -3.16449 0
M  V30 129 O 11.9869 -3.76584 -4.28416 0
M  V30 130 O 10.9209 -5.21832 -2.99958 0
M  V30 131 H 14.7469 -2.98479 -0.560725 0
M  V30 132 H 12.3319 -1.47903 -0.210987 0
M  V30 133 H 14.2139 -2.94589 -3.01322 0
M  V30 134 H 12.8889 -1.79313 -2.69497 0
M  V30 135 H 11.7959 -3.54909 -1.18282 0
M  V30 136 H 13.1289 -4.66324 -1.57489 0
M  V30 137 N 14.781 0.264519 -1.55364 0
M  V30 138 C 15.713 1.34965 -1.85248 0
M  V30 139 C 16.726 1.45136 -0.737525 0
M  V30 140 O 17.915 1.46801 -1.01547 0
M  V30 141 C 15.015 2.73008 -2.00797 0
M  V30 142 C 14.188 2.85324 -3.31525 0
M  V30 143 C 13.247 4.04097 -3.37034 0
M  V30 144 O 12.273 3.94455 -4.10358 0
M  V30 145 N 13.475 5.16458 -2.65049 0
M  V30 146 H 16.24 1.09672 -2.78913 0
M  V30 147 H 13.801 0.454635 -1.55386 0
M  V30 148 H 15.793 3.50772 -2.01844 0
M  V30 149 H 14.363 2.91087 -1.1396 0
M  V30 150 H 13.583 1.94377 -3.42945 0
M  V30 151 H 14.871 2.9049 -4.17724 0
M  V30 152 H 14.269 5.27181 -2.05175 0
M  V30 153 H 12.826 5.92422 -2.71809 0
M  V30 154 N 16.2591 1.48442 0.529413 0
M  V30 155 C 17.5071 1.56179 1.28267 0
M  V30 156 C 17.8281 0.237721 1.93546 0
M  V30 157 O 17.0981 -0.740779 1.81354 0
M  V30 158 H 15.6781 0.575367 0.476405 0
M  V30 159 H 18.3401 1.84909 0.61602 0
M  V30 160 H 17.4361 2.34312 2.06165 0
M  V30 161 N 17.7372 -0.778329 1.37039 0
M  V30 162 C 18.9832 -1.53892 1.32079 0
M  V30 163 C 19.3162 -1.9396 -0.0965386 0
M  V30 164 O 18.5912 -1.63568 -1.05242 0
M  V30 165 C 18.8742 -2.80847 2.25382 0
M  V30 166 C 18.7272 -2.47076 3.75864 0
M  V30 167 C 20.0462 -3.82741 2.1725 0
M  V30 168 H 17.1652 -0.558303 0.48111 0
M  V30 169 H 19.8072 -0.893397 1.67685 0
M  V30 170 H 17.9572 -3.35931 1.95148 0
M  V30 171 H 19.6292 -1.97957 4.16666 0
M  V30 172 H 17.8722 -1.79863 3.94755 0
M  V30 173 H 18.5432 -3.37798 4.36574 0
M  V30 174 H 21.0192 -3.37133 2.43887 0
M  V30 175 H 19.8952 -4.69303 2.84686 0
M  V30 176 H 20.1562 -4.2652 1.16331 0
M  V30 177 N 19.2153 -1.21501 -1.00376 0
M  V30 178 C 20.1253 -0.991447 -2.12621 0
M  V30 179 C 21.1413 0.0568446 -1.73907 0
M  V30 180 O 22.3173 -0.13348 -2.00957 0
M  V30 181 C 19.3823 -0.560312 -3.42142 0
M  V30 182 C 18.4433 -1.68096 -3.95022 0
M  V30 183 C 17.6763 -1.2703 -5.18362 0
M  V30 184 O 17.8993 -0.144438 -5.70217 0
M  V30 185 O 16.8333 -2.08269 -5.64719 0
M  V30 186 H 20.6593 -1.93158 -2.34358 0
M  V30 187 H 18.2443 -0.999999 -1.10997 0
M  V30 188 H 20.1263 -0.329724 -4.20108 0
M  V30 189 H 18.8013 0.351089 -3.2179 0
M  V30 190 H 17.7083 -1.96597 -3.18278 0
M  V30 191 H 19.0413 -2.56983 -4.19786 0
M  V30 192 N 20.6934 1.19889 -1.02296 0
M  V30 193 C 21.9704 1.85148 -0.630832 0
M  V30 194 C 22.3504 1.91385 0.890782 0
M  V30 195 O 21.6984 1.42642 1.78509 0
M  V30 196 C 21.9084 3.24442 -1.28602 0
M  V30 197 C 23.2564 4.00663 -1.4055 0
M  V30 198 O 24.2804 3.33818 -1.24273 0
M  V30 199 O 23.1394 5.20387 -1.66913 0
M  V30 200 H 20.2334 0.797613 -0.218499 0
M  V30 201 H 22.7794 1.27427 -1.12074 0
M  V30 202 H 21.5514 3.14704 -2.32545 0
M  V30 203 H 21.1744 3.89802 -0.7836 0
M  V30 204 N 22.1715 0.800033 1.35784 0
M  V30 205 C 23.3965 0.388511 2.03729 0
M  V30 206 C 23.8215 -0.990481 1.5991 0
M  V30 207 O 23.1795 -1.64013 0.772612 0
M  V30 208 C 23.2275 0.4726 3.5749 0
M  V30 209 O 22.3315 -0.51646 4.09153 0
M  V30 210 H 21.6725 0.163271 0.643614 0
M  V30 211 H 24.2025 1.0841 1.73518 0
M  V30 212 H 24.2125 0.34003 4.06581 0
M  V30 213 H 22.8875 1.47848 3.88734 0
M  V30 214 H 21.4645 -0.344673 3.71304 0
M  V30 215 N 23.6496 -1.47581 0.552962 0
M  V30 216 C 24.6126 -2.28439 -0.186605 0
M  V30 217 C 25.6126 -1.36706 -0.84665 0
M  V30 218 O 26.8026 -1.59378 -0.703164 0
M  V30 219 C 23.9346 -3.16264 -1.2724 0
M  V30 220 H 25.1276 -2.95294 0.523609 0
M  V30 221 H 22.6806 -1.532 0.309745 0
M  V30 222 H 23.4156 -2.54091 -2.01514 0
M  V30 223 H 23.2006 -3.83769 -0.803968 0
M  V30 224 H 24.6906 -3.77198 -1.79196 0
M  V30 225 N 25.1277 -0.289203 -1.54924 0
M  V30 226 C 26.0757 0.607966 -2.24514 0
M  V30 227 C 27.0697 1.14655 -1.24702 0
M  V30 228 O 28.2757 1.09856 -1.4259 0
M  V30 229 H 24.6507 0.21464 -0.720718 0
M  V30 230 H 26.6217 -0.00164182 -2.984 0
M  V30 231 C 25.3707 1.77406 -2.99036 0
M  V30 232 H 24.6937 1.36884 -3.75637 0
M  V30 233 H 26.1337 2.37814 -3.51028 0
M  V30 234 C 24.5927 2.67107 -2.05318 0
M  V30 235 O 25.1227 3.6787 -1.61353 0
M  V30 236 N 23.3287 2.34582 -1.71521 0
M  V30 237 H 22.8757 1.52688 -2.07471 0
M  V30 238 H 22.8337 2.94867 -1.0909 0
M  V30 239 N 26.6058 1.57591 -0.0167156 0
M  V30 240 C 27.5158 2.1291 0.98521 0
M  V30 241 C 28.5318 1.07834 1.36557 0
M  V30 242 O 29.7078 1.39826 1.44951 0
M  V30 243 C 26.7728 2.63512 2.25305 0
M  V30 244 C 25.8338 3.83256 1.93426 0
M  V30 245 C 25.0668 4.31435 3.14165 0
M  V30 246 O 25.2898 3.78851 4.26413 0
M  V30 247 O 24.2238 5.23416 2.97186 0
M  V30 248 H 28.0498 2.98772 0.544888 0
M  V30 249 H 25.6348 1.48012 0.203141 0
M  V30 250 H 27.5168 2.96183 2.99756 0
M  V30 251 H 26.1918 1.8074 2.68542 0
M  V30 252 H 25.0988 3.55531 1.16398 0
M  V30 253 H 26.4318 4.67153 1.55013 0
M  V30 254 N 28.0839 -0.256276 1.55502 0
M  V30 255 C 29.3609 -1.00789 1.67633 0
M  V30 256 C 29.7409 -2.03706 0.553826 0
M  V30 257 O 29.0889 -2.24145 -0.443969 0
M  V30 258 C 29.2989 -1.64968 3.07549 0
M  V30 259 C 30.6469 -2.15505 3.65845 0
M  V30 260 O 31.6709 -1.74925 3.1029 0
M  V30 261 O 30.5299 -2.89986 4.63217 0
M  V30 262 H 27.6239 -0.468553 0.681459 0
M  V30 263 H 30.1699 -0.250806 1.67836 0
M  V30 264 H 28.9419 -0.904785 3.80696 0
M  V30 265 H 28.5649 -2.47321 3.11317 0
M  V30 266 N 29.562 -1.4872 -0.521534 0
M  V30 267 C 30.787 -1.61101 -1.30618 0
M  V30 268 C 31.212 -0.274611 -1.86085 0
M  V30 269 O 30.57 0.754937 -1.64834 0
M  V30 270 C 30.618 -2.66709 -2.4269 0
M  V30 271 O 29.722 -2.24456 -3.45967 0
M  V30 272 H 29.063 -0.539921 -0.386499 0
M  V30 273 H 31.593 -1.94767 -0.626645 0
M  V30 274 H 31.603 -2.88245 -2.88754 0
M  V30 275 H 30.278 -3.63727 -2.01682 0
M  V30 276 H 28.855 -2.13168 -3.05964 0
M  V30 277 N 31.0401 0.771051 -1.3745 0
M  V30 278 C 32.2861 1.5319 -1.32894 0
M  V30 279 C 32.6191 1.94008 0.0862511 0
M  V30 280 O 31.8941 1.64124 1.04373 0
M  V30 281 C 32.1771 2.79648 -2.26868 0
M  V30 282 C 32.0301 2.45079 -3.77169 0
M  V30 283 C 33.3491 3.81583 -2.19277 0
M  V30 284 H 30.4681 0.555744 -0.484064 0
M  V30 285 H 33.1101 0.884492 -1.68157 0
M  V30 286 H 31.2601 3.34891 -1.96926 0
M  V30 287 H 32.9321 1.95745 -4.1771 0
M  V30 288 H 31.1751 1.77767 -3.95704 0
M  V30 289 H 31.8461 3.35478 -4.38359 0
M  V30 290 H 34.3221 3.35835 -2.45671 0
M  V30 291 H 33.1981 4.67787 -2.87171 0
M  V30 292 H 33.4591 4.25897 -1.18592 0
M  V30 293 N 32.5182 1.22032 0.997298 0
M  V30 294 C 33.7952 0.950823 1.70935 0
M  V30 295 C 34.1752 -0.535292 2.042 0
M  V30 296 O 33.5232 -1.50217 1.72183 0
M  V30 297 C 33.7332 1.84386 2.96315 0
M  V30 298 C 35.0812 2.09732 3.69185 0
M  V30 299 O 36.1052 1.81798 3.06314 0
M  V30 300 O 34.9642 2.57018 4.82291 0
M  V30 301 H 32.0582 0.357204 0.745878 0
M  V30 302 H 34.6042 1.32997 1.05404 0
M  V30 303 H 33.3762 2.84928 2.68201 0
M  V30 304 H 32.9992 1.46602 3.69586 0
M  V30 305 N 33.9963 -1.19345 1.0293 0
M  V30 306 C 34.9593 -2.20793 0.615069 0
M  V30 307 C 35.9593 -1.57553 -0.321533 0
M  V30 308 O 37.1493 -1.73862 -0.108483 0
M  V30 309 C 34.2813 -3.40754 -0.0999222 0
M  V30 310 H 35.4743 -2.58955 1.51269 0
M  V30 311 H 33.0273 -1.3303 0.820534 0
M  V30 312 H 33.7623 -3.0811 -1.01187 0
M  V30 313 H 33.5473 -3.87889 0.57309 0
M  V30 314 H 35.0373 -4.15898 -0.376645 0
M  V30 315 N 35.4744 -0.807222 -1.35358 0
M  V30 316 C 36.4214 -0.216037 -2.29787 0
M  V30 317 C 37.3914 0.650278 -1.52842 0
M  V30 318 O 38.5764 0.595227 -1.81278 0
M  V30 319 C 35.7164 0.628893 -3.39321 0
M  V30 320 C 34.8294 -0.257927 -4.31229 0
M  V30 321 C 33.9644 0.595069 -5.27856 0
M  V30 322 C 33.0034 -0.292111 -6.11403 0
M  V30 323 N 32.1404 0.520895 -7.00165 0
M  V30 324 H 36.9804 -1.02671 -2.79755 0
M  V30 325 H 34.5174 -0.517839 -1.37684 0
M  V30 326 H 36.4754 1.13393 -4.01494 0
M  V30 327 H 35.1054 1.40482 -2.90628 0
M  V30 328 H 34.1574 -0.881076 -3.70056 0
M  V30 329 H 35.4694 -0.940759 -4.89848 0
M  V30 330 H 34.6234 1.16522 -5.95405 0
M  V30 331 H 33.3624 1.31146 -4.69736 0
M  V30 332 H 32.3674 -0.874525 -5.428 0
M  V30 333 H 33.5924 -1.00638 -6.71602 0
M  V30 334 H 31.5384 1.22125 -6.44532 0
M  V30 335 H 31.4554 -0.103877 -7.55929 0
M  V30 336 H 32.7234 1.0743 -7.72062 0
M  V30 337 N 36.9525 1.47285 -0.560781 0
M  V30 338 C 38.3635 1.86258 -0.128343 0
M  V30 339 C 38.7145 1.46699 1.30284 0
M  V30 340 O 37.8395 0.871698 1.98067 0
M  V30 341 C 38.4345 3.38044 -0.22614 0
M  V30 342 C 36.9935 3.76096 0.151283 0
M  V30 343 C 36.1405 2.71335 -0.572084 0
M  V30 344 H 39.0915 1.38752 -0.770297 0
M  V30 345 H 39.1125 3.76441 0.554322 0
M  V30 346 H 38.6245 3.66806 -1.26788 0
M  V30 347 H 36.7255 3.52951 1.19399 0
M  V30 348 H 36.8385 4.78641 -0.209765 0
M  V30 349 H 35.2025 2.54696 -0.0147653 0
M  V30 350 H 35.9855 3.02938 -1.61504 0
M  V30 351 N 38.4306 0.297415 1.54768 0
M  V30 352 C 39.7076 -0.365847 1.92148 0
M  V30 353 C 40.0876 -1.71975 1.22424 0
M  V30 354 O 39.4356 -2.25666 0.358739 0
M  V30 355 C 39.6456 -0.484056 3.45627 0
M  V30 356 C 40.9936 -0.756594 4.17805 0
M  V30 357 O 42.0176 -0.568007 3.51642 0
M  V30 358 O 40.8766 -1.11863 5.34929 0
M  V30 359 H 37.9706 -0.203919 0.801465 0
M  V30 360 H 40.5166 0.34521 1.66152 0
M  V30 361 H 39.2886 0.467865 3.88493 0
M  V30 362 H 38.9116 -1.24372 3.77647 0
M  V30 363 N 39.9087 -1.5758 0.0250728 0
M  V30 364 C 41.3247 -1.56124 -0.331282 0
M  V30 365 C 41.5247 -1.03029 -1.73169 0
M  V30 366 O 40.5807 -0.675215 -2.43305 0
M  V30 367 C 41.8937 -3.00139 -0.183584 0
M  V30 368 C 43.4417 -3.11946 -0.256654 0
M  V30 369 C 43.9167 -4.57793 -0.137792 0
M  V30 370 N 45.4077 -4.6279 -0.194904 0
M  V30 371 C 46.1427 -5.7326 -0.126655 0
M  V30 372 N 45.6387 -6.928 -0.00755288 0
M  V30 373 N 47.4317 -5.61811 -0.180348 0
M  V30 374 H 39.5827 -1.90424 0.94087 0
M  V30 375 H 41.8457 -0.875761 0.362968 0
M  V30 376 H 41.5517 -3.4292 0.780927 0
M  V30 377 H 41.4257 -3.64899 -0.955448 0
M  V30 378 H 43.8127 -2.69079 -1.21162 0
M  V30 379 H 43.8937 -2.49915 0.545517 0
M  V30 380 H 43.5377 -5.01339 0.813739 0
M  V30 381 H 43.4677 -5.17798 -0.958775 0
M  V30 382 H 45.9587 -3.76807 -0.287267 0
M  V30 383 H 46.2717 -7.72791 0.0379428 0
M  V30 384 H 44.6167 -6.94995 0.0271731 0
M  V30 385 H 47.8077 -4.6731 -0.271767 0
M  V30 386 H 47.9807 -6.47882 -0.123697 0
M  V30 387 N 41.3868 0.248026 -1.55636 0
M  V30 388 C 42.6118 0.998028 -1.81808 0
M  V30 389 C 43.0368 1.78207 -0.601979 0
M  V30 390 O 42.3948 1.75653 0.448961 0
M  V30 391 C 42.4428 1.9125 -3.05705 0
M  V30 392 O 41.5468 3.00406 -2.82542 0
M  V30 393 H 40.8878 0.284045 -0.600179 0
M  V30 394 H 43.4178 0.269357 -2.02819 0
M  V30 395 H 43.4278 2.32737 -3.35108 0
M  V30 396 H 42.1028 1.33602 -3.93857 0
M  V30 397 H 40.6798 2.63056 -2.64303 0
M  V30 398 N 42.8649 1.48995 0.513639 0
M  V30 399 C 44.0899 1.61792 1.29762 0
M  V30 400 C 44.5149 0.284475 1.85936 0
M  V30 401 O 43.8729 -0.746185 1.65232 0
M  V30 402 C 43.9209 2.67993 2.41272 0
M  V30 403 O 43.0249 2.26287 3.44772 0
M  V30 404 H 42.3659 0.541963 0.38363 0
M  V30 405 H 44.8959 1.95097 0.616307 0
M  V30 406 H 44.9059 2.89772 2.87221 0
M  V30 407 H 43.5809 3.64791 1.9975 0
M  V30 408 H 42.1579 2.14788 3.04829 0
M  V30 409 N 44.343 -0.763751 1.37857 0
M  V30 410 C 45.59 -1.52257 1.33506 0
M  V30 411 C 45.918 -1.94343 -0.078022 0
M  V30 412 O 45.173 -1.64958 -1.05297 0
M  V30 413 C 45.472 -2.79499 2.22745 0
M  V30 414 C 45.138 -2.56426 3.70886 0
M  V30 415 C 43.8 -2.49842 4.11257 0
M  V30 416 C 46.152 -2.36008 4.64704 0
M  V30 417 C 43.48 -2.20841 5.43549 0
M  V30 418 C 45.832 -2.0853 5.97242 0
M  V30 419 C 44.496 -2.00396 6.36709 0
M  V30 420 H 43.766 -0.557149 0.488534 0
M  V30 421 H 46.413 -0.879073 1.70131 0
M  V30 422 H 44.718 -3.48447 1.79142 0
M  V30 423 H 46.415 -3.37413 2.16688 0
M  V30 424 H 43.005 -2.62416 3.38874 0
M  V30 425 H 47.189 -2.40079 4.34368 0
M  V30 426 H 42.445 -2.13045 5.73081 0
M  V30 427 H 46.619 -1.91732 6.69486 0
M  V30 428 H 44.246 -1.77688 7.39142 0
M  V30 429 N 45.8211 -1.22559 -0.990812 0
M  V30 430 C 47.0671 -1.05297 -1.73322 0
M  V30 431 C 47.4001 0.410655 -1.89808 0
M  V30 432 O 46.6751 1.30439 -1.44277 0
M  V30 433 C 46.9581 -1.76713 -3.13759 0
M  V30 434 C 46.8111 -3.30684 -3.04907 0
M  V30 435 C 48.1301 -1.52121 -4.12974 0
M  V30 436 H 45.2491 -0.38392 -0.629106 0
M  V30 437 H 47.8911 -1.50926 -1.15418 0
M  V30 438 H 46.0411 -1.37924 -3.63193 0
M  V30 439 H 47.7131 -3.7893 -2.63077 0
M  V30 440 H 45.9561 -3.60253 -2.41661 0
M  V30 441 H 46.6271 -3.75833 -4.04294 0
M  V30 442 H 49.1031 -1.85819 -3.72304 0
M  V30 443 H 47.9791 -2.04582 -5.0935 0
M  V30 444 H 48.2401 -0.454257 -4.3976 0
M  V30 445 N 47.2992 1.18797 -1.03562 0
M  V30 446 C 48.7102 1.70322 -0.764676 0
M  V30 447 C 49.0612 1.82708 0.714996 0
M  V30 448 O 48.1862 1.50299 1.55689 0
M  V30 449 C 48.7812 3.09356 -1.38145 0
M  V30 450 C 47.3402 3.58114 -1.15895 0
M  V30 451 C 46.4872 2.34798 -1.4753 0
M  V30 452 H 49.4382 1.03543 -1.20268 0
M  V30 453 H 49.4592 3.72378 -0.781977 0
M  V30 454 H 48.9712 3.00309 -2.45837 0
M  V30 455 H 47.0722 3.72464 -0.100544 0
M  V30 456 H 47.1852 4.4184 -1.8524 0
M  V30 457 H 45.5492 2.38464 -0.894829 0
M  V30 458 H 46.3322 2.28375 -2.56319 0
M  V30 459 N 48.7773 0.814389 1.34928 0
M  V30 460 C 50.0023 0.410097 2.03305 0
M  V30 461 C 50.4273 -0.973464 1.60951 0
M  V30 462 O 49.7853 -1.63185 0.789964 0
M  V30 463 C 49.8333 0.51049 3.56968 0
M  V30 464 O 48.9373 -0.473035 4.09678 0
M  V30 465 H 48.2783 0.170088 0.641846 0
M  V30 466 H 50.8083 1.10244 1.72358 0
M  V30 467 H 50.8183 0.383135 4.06197 0
M  V30 468 H 49.4933 1.51963 3.87144 0
M  V30 469 H 48.0703 -0.305272 3.71648 0
M  V30 470 N 50.2554 -1.46986 0.568584 0
M  V30 471 C 51.1854 -2.32946 -0.160753 0
M  V30 472 C 52.1664 -1.44487 -0.897631 0
M  V30 473 O 53.3514 -1.73327 -0.875867 0
M  V30 474 C 50.4814 -3.26494 -1.18403 0
M  V30 475 C 49.4354 -4.24282 -0.562895 0
M  V30 476 C 48.7614 -5.07236 -1.69163 0
M  V30 477 C 50.0614 -5.19989 0.490761 0
M  V30 478 H 51.7554 -2.94175 0.556916 0
M  V30 479 H 49.3014 -1.4146 0.26927 0
M  V30 480 H 51.2544 -3.85477 -1.70251 0
M  V30 481 H 49.9784 -2.63343 -1.93179 0
M  V30 482 H 48.6374 -3.66541 -0.0656164 0
M  V30 483 H 48.2854 -4.4048 -2.42871 0
M  V30 484 H 47.9854 -5.7345 -1.28174 0
M  V30 485 H 49.5094 -5.6908 -2.21314 0
M  V30 486 H 50.9234 -5.73271 0.0579047 0
M  V30 487 H 49.3204 -5.94469 0.820165 0
M  V30 488 H 50.3904 -4.64777 1.3824 0
M  V30 489 N 51.7335 -0.305618 -1.54608 0
M  V30 490 C 52.9805 0.302298 -2.00231 0
M  V30 491 C 53.3085 1.5354 -1.19398 0
M  V30 492 O 52.5635 1.93973 -0.259423 0
M  V30 493 C 52.8625 0.698983 -3.50498 0
M  V30 494 C 52.5285 -0.432903 -4.48817 0
M  V30 495 C 51.1905 -0.743622 -4.75419 0
M  V30 496 C 53.5425 -1.19409 -5.07337 0
M  V30 497 C 50.8705 -1.81857 -5.57804 0
M  V30 498 C 53.2225 -2.25899 -5.90891 0
M  V30 499 C 51.8865 -2.57572 -6.15803 0
M  V30 500 H 51.1565 0.110619 -0.732697 0
M  V30 501 H 53.8035 -0.425674 -1.86709 0
M  V30 502 H 52.1085 1.50711 -3.61654 0
M  V30 503 H 53.8055 1.1806 -3.83227 0
M  V30 504 H 50.3955 -0.18063 -4.28219 0
M  V30 505 H 54.5795 -0.967295 -4.86782 0
M  V30 506 H 49.8355 -2.06864 -5.75341 0
M  V30 507 H 54.0095 -2.85335 -6.35261 0
M  V30 508 H 51.6365 -3.40998 -6.7943 0
M  V30 509 N 53.2116 1.57565 -0.0334293 0
M  V30 510 C 54.4366 1.96689 0.657895 0
M  V30 511 C 54.8616 0.910057 1.64619 0
M  V30 512 O 54.2196 -0.128598 1.80843 0
M  V30 513 C 54.2676 3.34905 1.33683 0
M  V30 514 O 53.3716 3.31574 2.45219 0
M  V30 515 H 52.7126 0.641205 0.172489 0
M  V30 516 H 55.2426 2.04372 -0.0965621 0
M  V30 517 H 55.2526 3.71234 1.69262 0
M  V30 518 H 53.9276 4.11366 0.612411 0
M  V30 519 H 52.5046 3.06968 2.11719 0
M  V30 520 N 54.6897 -0.239769 1.55765 0
M  V30 521 C 55.6367 -1.29696 1.90913 0
M  V30 522 C 56.6067 -1.47478 0.764164 0
M  V30 523 O 57.7917 -1.61345 1.01845 0
M  V30 524 C 54.9317 -2.64598 2.21544 0
M  V30 525 C 54.0447 -2.54765 3.48882 0
M  V30 526 C 53.1797 -3.82069 3.69049 0
M  V30 527 C 52.2187 -3.66883 4.89963 0
M  V30 528 N 51.3557 -4.86094 5.06614 0
M  V30 529 H 56.1957 -0.990224 2.81067 0
M  V30 530 H 53.7327 -0.477684 1.39128 0
M  V30 531 H 55.6907 -3.43132 2.3731 0
M  V30 532 H 54.3207 -2.93405 1.34585 0
M  V30 533 H 53.3727 -1.67763 3.41409 0
M  V30 534 H 54.6847 -2.39457 4.37563 0
M  V30 535 H 53.8387 -4.69046 3.84812 0
M  V30 536 H 52.5777 -4.00282 2.78614 0
M  V30 537 H 51.5827 -2.78289 4.74168 0
M  V30 538 H 52.8077 -3.50157 5.81865 0
M  V30 539 H 50.7537 -5.04655 4.19117 0
M  V30 540 H 50.6707 -4.73443 5.89396 0
M  V30 541 H 51.9387 -5.74549 5.26795 0
M  V30 542 N 56.1678 -1.49265 -0.50573 0
M  V30 543 C 57.1148 -1.65585 -1.6078 0
M  V30 544 C 58.0848 -0.497396 -1.58478 0
M  V30 545 O 59.2698 -0.72385 -1.76536 0
M  V30 546 C 56.4098 -1.72408 -2.98948 0
M  V30 547 C 55.5228 -2.99525 -3.11301 0
M  V30 548 C 54.6578 -2.97356 -4.40174 0
M  V30 549 C 53.6968 -4.19074 -4.46143 0
M  V30 550 N 52.8338 -4.14841 -5.66437 0
M  V30 551 H 57.6738 -2.59688 -1.46172 0
M  V30 552 H 55.2108 -1.28761 -0.711261 0
M  V30 553 H 57.1688 -1.74344 -3.79025 0
M  V30 554 H 55.7988 -0.817753 -3.1227 0
M  V30 555 H 54.8508 -3.07222 -2.24318 0
M  V30 556 H 56.1628 -3.89518 -3.11572 0
M  V30 557 H 55.3168 -2.97829 -5.28567 0
M  V30 558 H 54.0558 -2.05133 -4.42461 0
M  V30 559 H 53.0608 -4.1885 -3.56153 0
M  V30 560 H 54.2858 -5.12483 -4.45575 0
M  V30 561 H 52.2318 -3.25453 -5.69575 0
M  V30 562 H 52.1488 -4.98564 -5.68304 0
M  V30 563 H 53.4168 -4.1941 -6.57051 0
M  V30 564 N 57.6459 0.756429 -1.3826 0
M  V30 565 C 58.5929 1.87011 -1.35261 0
M  V30 566 C 59.5629 1.64695 -0.215616 0
M  V30 567 O 60.7479 1.864 -0.407399 0
M  V30 568 C 57.8879 3.24275 -1.18068 0
M  V30 569 C 57.0009 3.58442 -2.41129 0
M  V30 570 C 56.1359 4.84994 -2.16689 0
M  V30 571 C 55.1749 5.11939 -3.35537 0
M  V30 572 N 54.3119 6.29685 -3.10549 0
M  V30 573 H 59.1519 1.8891 -2.30472 0
M  V30 574 H 56.6889 0.923373 -1.14509 0
M  V30 575 H 58.6469 4.03479 -1.06116 0
M  V30 576 H 57.2769 3.21711 -0.264973 0
M  V30 577 H 56.3289 2.74103 -2.63764 0
M  V30 578 H 57.6409 3.74283 -3.29717 0
M  V30 579 H 56.7949 5.72135 -2.01857 0
M  V30 580 H 55.5339 4.71286 -1.25462 0
M  V30 581 H 54.5389 4.23268 -3.50891 0
M  V30 582 H 55.7639 5.27546 -4.27635 0
M  V30 583 H 53.7099 6.17306 -2.21967 0
M  V30 584 H 53.6269 6.46014 -3.92686 0
M  V30 585 H 54.8949 7.19722 -2.99367 0
M  V30 586 N 59.124 1.23083 0.984299 0
M  V30 587 C 60.071 1.00854 2.07598 0
M  V30 588 C 61.041 -0.0726709 1.65941 0
M  V30 589 O 62.226 0.0786535 1.90638 0
M  V30 590 C 59.366 0.601645 3.39815 0
M  V30 591 C 58.479 1.75456 3.94765 0
M  V30 592 C 57.614 1.29482 5.15177 0
M  V30 593 C 56.653 2.41873 5.62284 0
M  V30 594 N 55.79 1.96885 6.73929 0
M  V30 595 H 60.63 1.943 2.25946 0
M  V30 596 H 58.167 0.968001 1.10762 0
M  V30 597 H 60.125 0.346854 4.15756 0
M  V30 598 H 58.755 -0.295803 3.21442 0
M  V30 599 H 57.807 2.12346 3.15616 0
M  V30 600 H 59.119 2.59965 4.25699 0
M  V30 601 H 58.273 0.997923 5.98437 0
M  V30 602 H 57.012 0.420046 4.85888 0
M  V30 603 H 56.017 2.72342 4.77608 0
M  V30 604 H 57.242 3.29881 5.93595 0
M  V30 605 H 55.188 1.11782 6.46406 0
M  V30 606 H 55.105 2.74956 7.04227 0
M  V30 607 H 56.373 1.70289 7.60672 0
M  V30 608 N 60.6021 -1.18246 1.0419 0
M  V30 609 C 61.5501 -2.23968 0.627792 0
M  V30 610 C 62.5441 -1.65828 -0.346019 0
M  V30 611 O 63.7501 -1.78733 -0.213175 0
M  V30 612 H 60.1251 -0.728939 0.184802 0
M  V30 613 H 62.0961 -2.56202 1.52981 0
M  V30 614 C 60.8451 -3.47699 0.00796591 0
M  V30 615 H 60.1681 -3.92734 0.748347 0
M  V30 616 H 61.6081 -4.23294 -0.24455 0
M  V30 617 C 60.0671 -3.13153 -1.24246 0
M  V30 618 O 60.5971 -3.27003 -2.33307 0
M  V30 619 N 58.8031 -2.67467 -1.13622 0
M  V30 620 H 58.3501 -2.56396 -0.248734 0
M  V30 621 H 58.3081 -2.44724 -1.97377 0
M  V30 622 N 62.0802 -0.821533 -1.34494 0
M  V30 623 C 63.3262 -0.409552 -1.98622 0
M  V30 624 C 63.6592 1.0244 -1.64984 0
M  V30 625 O 62.9342 1.71325 -0.920758 0
M  V30 626 C 63.2172 -0.610458 -3.54888 0
M  V30 627 C 63.0702 -2.09043 -3.98273 0
M  V30 628 C 64.3892 -0.0455379 -4.40076 0
M  V30 629 H 61.5082 -0.15028 -0.721516 0
M  V30 630 H 64.1502 -1.03384 -1.59411 0
M  V30 631 H 62.3002 -0.079044 -3.8842 0
M  V30 632 H 63.9722 -2.68537 -3.75081 0
M  V30 633 H 62.2152 -2.58139 -3.48635 0
M  V30 634 H 62.8862 -2.18182 -5.07051 0
M  V30 635 H 65.3622 -0.499557 -4.1309 0
M  V30 636 H 64.2382 -0.215922 -5.48475 0
M  V30 637 H 64.4992 1.04939 -4.29465 0
M  V30 638 N 63.5583 1.46682 -0.576371 0
M  V30 639 C 64.7863 2.06798 -0.0649635 0
M  V30 640 C 65.2013 1.42612 1.23723 0
M  V30 641 O 64.5583 0.529203 1.74659 0
M  V30 642 C 64.6093 3.6132 0.114202 0
M  V30 643 O 64.3303 4.23104 -1.13644 0
M  V30 644 C 65.8313 4.38349 0.66069 0
M  V30 645 H 63.0513 0.668778 -0.0545616 0
M  V30 646 H 65.5953 1.88404 -0.795237 0
M  V30 647 H 63.7503 3.79162 0.794673 0
M  V30 648 H 64.1643 5.15894 -0.946253 0
M  V30 649 H 65.6383 5.47081 0.73526 0
M  V30 650 H 66.1153 4.05953 1.67627 0
M  V30 651 H 66.7213 4.25297 0.0152951 0
M  V30 652 N 65.0364 0.313813 1.54444 0
M  V30 653 C 65.9694 -0.598866 2.20202 0
M  V30 654 C 66.9474 -1.12318 1.17573 0
M  V30 655 O 68.1314 -1.18899 1.46271 0
M  V30 656 C 65.2584 -1.82071 2.85601 0
M  V30 657 C 64.3044 -1.42851 4.01865 0
M  V30 658 S 65.1374 -0.473512 5.33402 0
M  V30 659 C 66.2934 -1.70286 6.0229 0
M  V30 660 H 66.5264 -0.0402532 2.97273 0
M  V30 661 H 64.0594 0.0979165 1.54089 0
M  V30 662 H 66.0174 -2.52184 3.23904 0
M  V30 663 H 64.6784 -2.3505 2.08351 0
M  V30 664 H 63.8714 -2.33871 4.46453 0
M  V30 665 H 63.4734 -0.807198 3.65185 0
M  V30 666 H 65.7654 -2.64168 6.23876 0
M  V30 667 H 66.7084 -1.29932 6.96077 0
M  V30 668 H 67.1164 -1.88541 5.32083 0
M  V30 669 N 66.5145 -1.57545 0.0417849 0
M  V30 670 C 67.9305 -1.56467 -0.314704 0
M  V30 671 C 68.1305 -1.04859 -1.72066 0
M  V30 672 O 67.1865 -0.700983 -2.42575 0
M  V30 673 C 68.4995 -3.00317 -0.15174 0
M  V30 674 C 70.0475 -3.12201 -0.223553 0
M  V30 675 C 70.5225 -4.57913 -0.0892295 0
M  V30 676 N 72.0135 -4.6297 -0.145808 0
M  V30 677 C 72.7485 -5.73362 -0.0658459 0
M  V30 678 N 72.2445 -6.92769 0.0659282 0
M  V30 679 N 74.0375 -5.6197 -0.12075 0
M  V30 680 H 66.1885 -1.89416 0.961014 0
M  V30 681 H 68.4515 -0.871862 0.372237 0
M  V30 682 H 68.1575 -3.42073 0.817254 0
M  V30 683 H 68.0315 -3.65892 -0.916692 0
M  V30 684 H 70.4185 -2.70349 -1.18301 0
M  V30 685 H 70.4995 -2.49323 0.571994 0
M  V30 686 H 70.1435 -5.00448 0.866867 0
M  V30 687 H 70.0735 -5.18786 -0.903802 0
M  V30 688 H 72.5645 -3.7709 -0.247286 0
M  V30 689 H 72.8775 -7.72707 0.119905 0
M  V30 690 H 71.2225 -6.94927 0.100885 0
M  V30 691 H 74.4135 -4.67572 -0.222187 0
M  V30 692 H 74.5865 -6.47977 -0.0549735 0
M  V30 693 N 67.9926 0.231505 -1.5589 0
M  V30 694 C 69.2176 0.978689 -1.82856 0
M  V30 695 C 69.6426 1.77559 -0.620846 0
M  V30 696 O 69.0006 1.76119 0.430305 0
M  V30 697 C 69.0486 1.87997 -3.07716 0
M  V30 698 O 68.1526 2.97393 -2.85712 0
M  V30 699 H 67.4936 0.277663 -0.603158 0
M  V30 700 H 70.0236 0.24783 -2.03093 0
M  V30 701 H 70.0336 2.2917 -3.37558 0
M  V30 702 H 68.7086 1.29417 -3.95252 0
M  V30 703 H 67.2856 2.60238 -2.67078 0
M  V30 704 N 69.4707 1.49531 0.497807 0
M  V30 705 C 70.7197 1.58426 1.24837 0
M  V30 706 C 71.0327 0.277643 1.93619 0
M  V30 707 O 72.2387 0.24517 2.70391 0
M  V30 708 C 70.6947 2.79538 2.26686 0
M  V30 709 C 70.3027 4.16971 1.63828 0
M  V30 710 C 72.0467 2.97764 3.0255 0
M  V30 711 C 69.9537 5.29301 2.63807 0
M  V30 712 H 68.8837 0.58989 0.469623 0
M  V30 713 H 71.5347 1.75923 0.521857 0
M  V30 714 H 69.9167 2.55542 3.02514 0
M  V30 715 H 71.0907 4.51116 0.939711 0
M  V30 716 H 69.4057 4.04129 1.00342 0
M  V30 717 H 72.0027 3.78856 3.77323 0
M  V30 718 H 72.3457 2.08448 3.60354 0
M  V30 719 H 72.8787 3.21815 2.33838 0
M  V30 720 H 69.6177 6.20687 2.10779 0
M  V30 721 H 69.1377 4.99606 3.31894 0
M  V30 722 H 70.8167 5.58768 3.2617 0
M  V30 723 N 70.9488 -0.749086 1.3866 0
M  V30 724 C 71.8958 -1.86291 1.36251 0
M  V30 725 C 72.8658 -1.64578 0.224347 0
M  V30 726 O 74.0508 -1.86181 0.417279 0
M  V30 727 C 71.1908 -3.23644 1.19786 0
M  V30 728 C 70.3038 -3.57158 2.43027 0
M  V30 729 C 69.4388 -4.83838 2.19258 0
M  V30 730 C 68.4778 -5.10152 3.38247 0
M  V30 731 N 67.6148 -6.28029 3.13884 0
M  V30 732 H 72.4548 -1.87685 2.3147 0
M  V30 733 H 69.9918 -0.917287 1.14997 0
M  V30 734 H 71.9498 -4.0291 1.08254 0
M  V30 735 H 70.5798 -3.21566 0.282031 0
M  V30 736 H 69.6318 -2.72701 2.65214 0
M  V30 737 H 70.9438 -3.7253 3.31697 0
M  V30 738 H 70.0978 -5.71057 2.04888 0
M  V30 739 H 68.8368 -4.70614 1.2796 0
M  V30 740 H 67.8418 -4.21401 3.53131 0
M  V30 741 H 69.0668 -5.25271 4.30427 0
M  V30 742 H 67.0128 -6.1612 2.25238 0
M  V30 743 H 66.9298 -6.43922 3.96106 0
M  V30 744 H 68.1978 -7.18124 3.03179 0
M  V30 745 N 72.4269 -1.23603 -0.977757 0
M  V30 746 C 73.6549 -1.09646 -1.75458 0
M  V30 747 C 74.0699 0.351859 -1.85492 0
M  V30 748 O 73.4269 1.24327 -1.336 0
M  V30 749 C 73.4779 -1.71895 -3.18016 0
M  V30 750 O 73.1989 -3.11063 -3.08498 0
M  V30 751 C 74.6999 -1.63415 -4.12081 0
M  V30 752 H 71.9199 -0.38359 -0.550545 0
M  V30 753 H 74.4639 -1.63507 -1.22824 0
M  V30 754 H 72.6189 -1.22061 -3.67668 0
M  V30 755 H 73.0329 -3.41305 -3.9826 0
M  V30 756 H 74.5069 -2.11669 -5.09804 0
M  V30 757 H 74.9839 -0.593462 -4.35172 0
M  V30 758 H 75.5899 -2.12628 -3.68334 0
M  V30 759 N 73.905 1.17692 -1.04816 0
M  V30 760 C 75.133 1.91786 -0.776254 0
M  V30 761 C 75.548 1.76604 0.667577 0
M  V30 762 O 74.905 1.10067 1.45573 0
M  V30 763 C 74.956 3.42967 -1.14263 0
M  V30 764 O 74.677 3.57678 -2.52978 0
M  V30 765 C 76.178 4.34144 -0.896311 0
M  V30 766 H 73.398 0.608624 -0.282519 0
M  V30 767 H 75.942 1.49268 -1.39783 0
M  V30 768 H 74.097 3.83245 -0.565874 0
M  V30 769 H 74.511 4.51319 -2.67229 0
M  V30 770 H 75.985 5.38744 -1.20244 0
M  V30 771 H 76.462 4.38876 0.168636 0
M  V30 772 H 77.068 3.99574 -1.45672 0
M  V30 773 N 75.3831 0.828654 1.34056 0
M  V30 774 C 76.7991 0.515135 1.51058 0
M  V30 775 C 76.9991 -0.959581 1.77184 0
M  V30 776 O 76.0551 -1.74382 1.82612 0
M  V30 777 C 77.3681 1.37963 2.67183 0
M  V30 778 C 78.9161 1.37735 2.81066 0
M  V30 779 C 79.3911 2.22645 4.00241 0
M  V30 780 N 80.8821 2.203 4.07458 0
M  V30 781 C 81.6171 2.82744 4.98842 0
M  V30 782 N 81.1131 3.54201 5.9541 0
M  V30 783 N 82.9061 2.72268 4.91759 0
M  V30 784 H 75.0571 1.78343 1.15358 0
M  V30 785 H 77.3201 0.760304 0.566252 0
M  V30 786 H 77.0261 2.42714 2.54525 0
M  V30 787 H 76.9001 1.0484 3.62338 0
M  V30 788 H 79.2871 0.337593 2.93163 0
M  V30 789 H 79.3681 1.74859 1.86703 0
M  V30 790 H 79.0121 3.26674 3.88905 0
M  V30 791 H 78.9421 1.82869 4.93829 0
M  V30 792 H 81.4331 1.68327 3.38341 0
M  V30 793 H 81.7461 3.9908 6.61782 0
M  V30 794 H 80.0911 3.58308 5.95517 0
M  V30 795 H 83.2821 2.16014 4.15278 0
M  V30 796 H 83.4551 3.21219 5.62781 0
M  V30 797 N 76.8612 -1.46375 0.584142 0
M  V30 798 C 78.1382 -1.956 0.0033388 0
M  V30 799 C 78.5182 -1.52679 -1.45782 0
M  V30 800 O 77.8662 -0.77816 -2.14842 0
M  V30 801 C 78.0762 -3.48551 0.176891 0
M  V30 802 C 79.4242 -4.24576 0.0454609 0
M  V30 803 O 80.4482 -3.56043 0.105801 0
M  V30 804 O 79.3072 -5.46427 -0.0890376 0
M  V30 805 H 76.4012 -0.825547 -0.0490066 0
M  V30 806 H 78.9472 -1.56652 0.65256 0
M  V30 807 H 77.7192 -3.72683 1.1926 0
M  V30 808 H 77.3422 -3.94332 -0.508695 0
M  V30 809 N 78.3393 -0.321999 -1.54275 0
M  V30 810 C 79.7553 0.0306999 -1.5957 0
M  V30 811 C 79.9553 1.50614 -1.33857 0
M  V30 812 O 79.0113 2.2619 -1.12223 0
M  V30 813 C 80.3243 -0.386122 -2.98211 0
M  V30 814 C 81.8723 -0.336647 -3.11184 0
M  V30 815 C 82.3473 -0.728607 -4.52167 0
M  V30 816 N 83.8383 -0.681952 -4.58152 0
M  V30 817 C 84.5733 -0.957449 -5.6535 0
M  V30 818 N 84.0693 -1.3 -6.80494 0
M  V30 819 N 85.8623 -0.883113 -5.55119 0
M  V30 820 H 78.0133 -1.28332 -1.69247 0
M  V30 821 H 80.2763 -0.521716 -0.791528 0
M  V30 822 H 79.9823 -1.41404 -3.22022 0
M  V30 823 H 79.8563 0.249662 -3.76373 0
M  V30 824 H 82.2433 0.682058 -2.8711 0
M  V30 825 H 82.3243 -1.00734 -2.3513 0
M  V30 826 H 81.9683 -1.74522 -4.76974 0
M  V30 827 H 81.8983 -0.0356152 -5.26588 0
M  V30 828 H 84.3893 -0.428985 -3.75457 0
M  V30 829 H 84.7023 -1.49563 -7.58189 0
M  V30 830 H 83.0473 -1.33824 -6.81994 0
M  V30 831 H 86.2383 -0.615001 -4.64042 0
M  V30 832 H 86.4113 -1.10118 -6.38575 0
M  V30 833 N 79.8174 1.5752 -0.0501392 0
M  V30 834 C 81.0634 1.92936 0.624798 0
M  V30 835 C 81.3964 0.928685 1.70555 0
M  V30 836 O 80.6714 -0.0454779 1.94447 0
M  V30 837 C 80.9544 3.38737 1.22185 0
M  V30 838 C 80.8074 4.49552 0.149218 0
M  V30 839 C 82.1264 3.84913 2.13378 0
M  V30 840 H 79.2454 0.701604 0.225657 0
M  V30 841 H 81.8874 1.89671 -0.111693 0
M  V30 842 H 80.0374 3.4165 1.84953 0
M  V30 843 H 81.7094 4.58768 -0.482648 0
M  V30 844 H 79.9524 4.30638 -0.522841 0
M  V30 845 H 80.6234 5.48653 0.606966 0
M  V30 846 H 83.0994 3.8387 1.60572 0
M  V30 847 H 81.9754 4.87584 2.52097 0
M  V30 848 H 82.2364 3.21611 3.03346 0
M  V30 849 N 81.2955 -0.223234 1.56011 0
M  V30 850 C 82.7065 -0.790368 1.69145 0
M  V30 851 C 83.0575 -1.85055 0.651845 0
M  V30 852 O 82.1825 -2.15498 -0.197359 0
M  V30 853 C 82.7775 -1.4404 3.06656 0
M  V30 854 C 81.3365 -1.95494 3.2165 0
M  V30 855 C 80.4835 -0.814506 2.65068 0
M  V30 856 H 83.4345 0.00139011 1.587 0
M  V30 857 H 83.4555 -2.30916 3.0242 0
M  V30 858 H 82.9675 -0.668543 3.82298 0
M  V30 859 H 81.0685 -2.75487 2.50874 0
M  V30 860 H 81.1815 -2.13607 4.28846 0
M  V30 861 H 79.5455 -1.22137 2.23505 0
M  V30 862 H 80.3285 -0.0553515 3.43255 0
M  V30 863 N 82.7736 -1.49793 -0.48987 0
M  V30 864 C 84.0016 -1.63568 -1.26701 0
M  V30 865 C 84.4166 -0.311465 -1.86213 0
M  V30 866 O 83.7736 0.704416 -1.68357 0
M  V30 867 C 83.8246 -2.71284 -2.38929 0
M  V30 868 O 83.5456 -3.9857 -1.81861 0
M  V30 869 C 85.0466 -2.95864 -3.3012 0
M  V30 870 H 82.2666 -0.550342 -0.383881 0
M  V30 871 H 84.8106 -1.95898 -0.586864 0
M  V30 872 H 82.9656 -2.417 -3.02753 0
M  V30 873 H 83.3796 -4.57993 -2.55622 0
M  V30 874 H 84.8536 -3.74941 -4.05121 0
M  V30 875 H 85.3306 -2.06206 -3.87783 0
M  V30 876 H 85.9366 -3.26907 -2.72051 0
M  V30 877 N 84.2517 0.741722 -1.39055 0
M  V30 878 C 85.4817 1.52876 -1.3897 0
M  V30 879 C 85.8897 1.8919 0.0193266 0
M  V30 880 O 85.2327 1.54138 0.999356 0
M  V30 881 C 85.2947 2.84929 -2.19216 0
M  V30 882 C 84.9587 2.71086 -3.67915 0
M  V30 883 C 85.9557 2.40084 -4.61146 0
M  V30 884 C 83.6407 2.88168 -4.11418 0
M  V30 885 C 85.6347 2.26335 -5.95862 0
M  V30 886 C 83.3217 2.74037 -5.46211 0
M  V30 887 C 84.3197 2.43166 -6.38247 0
M  V30 888 O 84.0077 2.29115 -7.70559 0
M  V30 889 H 83.7397 0.479252 -0.476753 0
M  V30 890 H 86.2937 0.924751 -1.83405 0
M  V30 891 H 84.5237 3.47564 -1.69518 0
M  V30 892 H 86.2127 3.46509 -2.11392 0
M  V30 893 H 86.9787 2.26545 -4.28838 0
M  V30 894 H 82.8577 3.11191 -3.40119 0
M  V30 895 H 86.4017 2.0216 -6.67665 0
M  V30 896 H 82.2987 2.87153 -5.78112 0
M  V30 897 H 83.0667 2.44237 -7.81211 0
M  V30 898 N 85.7298 1.2412 0.971189 0
M  V30 899 C 86.6618 0.988349 2.06795 0
M  V30 900 C 87.6748 -0.0409541 1.62748 0
M  V30 901 O 88.8638 0.195673 1.77424 0
M  V30 902 C 85.9638 0.469023 3.35639 0
M  V30 903 C 85.1368 1.56065 4.08611 0
M  V30 904 C 84.1958 1.04458 5.15728 0
M  V30 905 O 83.2218 1.73553 5.42096 0
M  V30 906 N 84.4238 -0.122817 5.8037 0
M  V30 907 H 87.1888 1.93265 2.29061 0
M  V30 908 H 84.7498 1.15102 1.13856 0
M  V30 909 H 86.7418 0.108613 4.04554 0
M  V30 910 H 85.3118 -0.380919 3.1027 0
M  V30 911 H 84.5318 2.09341 3.34021 0
M  V30 912 H 85.8198 2.29449 4.54126 0
M  V30 913 H 85.2178 -0.700563 5.61345 0
M  V30 914 H 83.7748 -0.424404 6.50417 0
M  V30 915 N 87.2079 -1.17134 1.05439 0
M  V30 916 C 88.4379 -1.91094 0.785274 0
M  V30 917 C 88.8459 -1.77198 -0.663142 0
M  V30 918 O 88.1889 -1.10835 -1.46497 0
M  V30 919 C 88.2509 -3.42594 1.08949 0
M  V30 920 C 87.9149 -3.80274 2.53458 0
M  V30 921 C 88.9119 -3.82912 3.51673 0
M  V30 922 C 86.5969 -4.11162 2.88532 0
M  V30 923 C 88.5909 -4.15913 4.83006 0
M  V30 924 C 86.2779 -4.43831 4.20068 0
M  V30 925 C 87.2759 -4.46185 5.17115 0
M  V30 926 O 86.9639 -4.78083 6.46291 0
M  V30 927 H 86.6959 -0.613073 0.284811 0
M  V30 928 H 89.2499 -1.49461 1.40893 0
M  V30 929 H 87.4799 -3.84534 0.408741 0
M  V30 930 H 89.1689 -3.97817 0.805991 0
M  V30 931 H 89.9349 -3.5917 3.25917 0
M  V30 932 H 85.8139 -4.085 2.13656 0
M  V30 933 H 89.3579 -4.17665 5.5875 0
M  V30 934 H 85.2549 -4.67037 4.45586 0
M  V30 935 H 86.0229 -4.9593 6.51149 0
M  V30 936 N 88.686 -0.835752 -1.33615 0
M  V30 937 C 89.634 -0.255238 -2.31195 0
M  V30 938 C 90.628 0.61107 -1.57995 0
M  V30 939 O 91.834 0.500979 -1.72888 0
M  V30 940 H 88.209 -0.0638085 -0.749288 0
M  V30 941 H 90.18 -1.09283 -2.77669 0
M  V30 942 C 88.929 0.55754 -3.43201 0
M  V30 943 H 88.252 -0.0997553 -3.99676 0
M  V30 944 H 89.692 0.929622 -4.13683 0
M  V30 945 C 88.151 1.73515 -2.88781 0
M  V30 946 O 88.681 2.83376 -2.84712 0
M  V30 947 N 86.887 1.55603 -2.4543 0
M  V30 948 H 86.434 0.662354 -2.48939 0
M  V30 949 H 86.392 2.34545 -2.09371 0
M  V30 950 N 90.1641 1.46063 -0.591896 0
M  V30 951 C 91.0971 2.27452 0.184617 0
M  V30 952 C 92.0751 1.36188 0.888351 0
M  V30 953 O 93.2591 1.65606 0.90039 0
M  V30 954 C 90.3861 3.14162 1.26571 0
M  V30 955 C 89.4321 4.21255 0.666814 0
M  V30 956 S 90.2651 5.33034 -0.513345 0
M  V30 957 C 91.4211 6.23311 0.56872 0
M  V30 958 H 91.6541 2.92963 -0.505939 0
M  V30 959 H 89.1871 1.49676 -0.379014 0
M  V30 960 H 91.1451 3.6468 1.88463 0
M  V30 961 H 89.8061 2.47946 1.92826 0
M  V30 962 H 88.9991 4.81788 1.47974 0
M  V30 963 H 88.6011 3.73797 0.123359 0
M  V30 964 H 90.8931 6.61758 1.45198 0
M  V30 965 H 91.8361 7.081 -7.23824e-05 0
M  V30 966 H 92.2441 5.57646 0.876996 0
M  V30 967 N 91.6422 0.330177 1.54103 0
M  V30 968 C 92.5902 -0.548226 2.26047 0
M  V30 969 C 93.5842 -1.11309 1.27698 0
M  V30 970 O 94.7902 -1.06036 1.45452 0
M  V30 971 H 91.1652 -0.195456 0.726155 0
M  V30 972 H 93.1362 0.0807567 2.98291 0
M  V30 973 C 91.8852 -1.69415 3.03634 0
M  V30 974 H 91.2082 -1.26876 3.79134 0
M  V30 975 H 92.6482 -2.28423 3.5721 0
M  V30 976 C 91.1072 -2.61569 2.12328 0
M  V30 977 O 91.6372 -3.63462 1.7105 0
M  V30 978 N 89.8432 -2.29952 1.77681 0
M  V30 979 H 89.3902 -1.47134 2.11446 0
M  V30 980 H 89.3482 -2.91871 1.16869 0
M  V30 981 N 93.1203 -1.57491 0.0584922 0
M  V30 982 C 94.3673 -1.92978 -0.613648 0
M  V30 983 C 94.6953 -0.937461 -1.70417 0
M  V30 984 O 93.9503 0.049078 -1.95638 0
M  V30 985 C 94.2493 -3.3513 -1.24188 0
M  V30 986 C 93.9153 -4.50037 -0.278826 0
M  V30 987 C 92.5773 -4.81198 -0.0138447 0
M  V30 988 C 94.9293 -5.19807 0.380777 0
M  V30 989 C 92.2573 -5.79473 0.918052 0
M  V30 990 C 94.6093 -6.19079 1.30091 0
M  V30 991 C 93.2733 -6.48665 1.57449 0
M  V30 992 H 92.5433 -0.706157 -0.22455 0
M  V30 993 H 95.1903 -1.91082 0.126533 0
M  V30 994 H 93.4953 -3.33429 -2.05749 0
M  V30 995 H 95.1923 -3.59871 -1.769 0
M  V30 996 H 91.7823 -4.25726 -0.495539 0
M  V30 997 H 95.9663 -4.95939 0.189158 0
M  V30 998 H 91.2223 -6.00727 1.1374 0
M  V30 999 H 95.3963 -6.7225 1.81804 0
M  V30 1000 H 93.0233 -7.24628 2.29822 0
M  V30 1001 N 94.5984 0.214957 -1.56127 0
M  V30 1002 C 95.5084 1.28727 -1.96129 0
M  V30 1003 C 96.5244 1.50916 -0.866044 0
M  V30 1004 O 97.7004 1.63918 -1.17016 0
M  V30 1005 C 94.7654 2.61569 -2.27558 0
M  V30 1006 C 93.8264 2.47625 -3.50685 0
M  V30 1007 C 93.0594 3.74132 -3.80606 0
M  V30 1008 O 93.2824 4.77438 -3.12104 0
M  V30 1009 O 92.2164 3.70849 -4.74083 0
M  V30 1010 H 96.0424 0.977855 -2.87527 0
M  V30 1011 H 93.6274 0.418358 -1.43423 0
M  V30 1012 H 95.5094 3.40012 -2.48938 0
M  V30 1013 H 94.1844 2.92178 -1.39332 0
M  V30 1014 H 93.0914 1.67361 -3.34576 0
M  V30 1015 H 94.4244 2.21954 -4.39315 0
M  V30 1016 N 96.0765 1.50051 0.48192 0
M  V30 1017 C 97.0235 1.68122 1.58125 0
M  V30 1018 C 97.9935 0.522545 1.57666 0
M  V30 1019 O 99.1785 0.751844 1.75362 0
M  V30 1020 C 96.3185 1.77142 2.96167 0
M  V30 1021 C 95.4315 3.0444 3.06497 0
M  V30 1022 C 94.5665 3.04321 4.35387 0
M  V30 1023 C 93.6055 4.26118 4.3942 0
M  V30 1024 N 92.7425 4.238 5.59766 0
M  V30 1025 H 97.5825 2.6198 1.42022 0
M  V30 1026 H 95.1195 1.29877 0.690687 0
M  V30 1027 H 97.0775 1.80352 3.76203 0
M  V30 1028 H 95.7075 0.867329 3.1093 0
M  V30 1029 H 94.7595 3.10752 2.19402 0
M  V30 1030 H 96.0715 3.94426 3.05336 0
M  V30 1031 H 95.2255 3.062 5.23762 0
M  V30 1032 H 93.9645 2.12147 4.39141 0
M  V30 1033 H 92.9695 4.24463 3.49444 0
M  V30 1034 H 94.1945 5.19507 4.37366 0
M  V30 1035 H 92.1405 3.34474 5.64326 0
M  V30 1036 H 92.0575 5.07542 5.60301 0
M  V30 1037 H 93.3255 4.2981 6.50295 0
M  V30 1038 N 97.5546 -0.734337 1.39446 0
M  V30 1039 C 98.4846 -1.86155 1.40955 0
M  V30 1040 C 99.4656 -1.67898 0.272827 0
M  V30 1041 O 100.651 -1.88207 0.478743 0
M  V30 1042 C 97.7806 -3.23912 1.25294 0
M  V30 1043 C 96.7346 -3.56808 2.36373 0
M  V30 1044 C 96.0606 -4.93508 2.058 0
M  V30 1045 C 97.3606 -3.59713 3.78687 0
M  V30 1046 H 99.0546 -1.8515 2.35287 0
M  V30 1047 H 96.6006 -0.889367 1.13253 0
M  V30 1048 H 98.5536 -4.02443 1.2497 0
M  V30 1049 H 97.2776 -3.25446 0.274308 0
M  V30 1050 H 95.9366 -2.80606 2.35914 0
M  V30 1051 H 95.5846 -4.91623 1.06374 0
M  V30 1052 H 95.2846 -5.16486 2.80208 0
M  V30 1053 H 96.8086 -5.74396 2.07128 0
M  V30 1054 H 98.2226 -4.2832 3.81071 0
M  V30 1055 H 96.6196 -3.94209 4.52459 0
M  V30 1056 H 97.6896 -2.59504 4.09617 0
M  V30 1057 N 99.0327 -1.24633 -0.964593 0
M  V30 1058 C 100.281 -1.08573 -1.70459 0
M  V30 1059 C 100.602 0.375655 -1.91347 0
M  V30 1060 O 99.8717 1.26779 -1.49345 0
M  V30 1061 H 98.4517 -0.398784 -0.631649 0
M  V30 1062 H 101.114 -1.56601 -1.16026 0
M  V30 1063 H 100.21 -1.58623 -2.68785 0
M  V30 1064 N 100.511 1.16574 -1.06058 0
M  V30 1065 C 101.458 2.20883 -0.669263 0
M  V30 1066 C 102.428 1.62729 0.332918 0
M  V30 1067 O 103.613 1.895 0.222346 0
M  V30 1068 C 100.753 3.45049 -0.0593572 0
M  V30 1069 C 99.8658 4.17458 -1.11143 0
M  V30 1070 C 99.0008 5.29135 -0.467916 0
M  V30 1071 C 98.0398 5.93343 -1.50369 0
M  V30 1072 N 97.1768 6.96516 -0.883706 0
M  V30 1073 H 102.017 2.53709 -1.5632 0
M  V30 1074 H 99.5538 1.24616 -0.781625 0
M  V30 1075 H 101.512 4.16033 0.311771 0
M  V30 1076 H 100.142 3.12781 0.797992 0
M  V30 1077 H 99.1938 3.45101 -1.60029 0
M  V30 1078 H 100.506 4.61307 -1.89731 0
M  V30 1079 H 99.6598 6.06684 -0.0436871 0
M  V30 1080 H 98.3988 4.86443 0.349864 0
M  V30 1081 H 97.4038 5.14517 -1.93784 0
M  V30 1082 H 98.6288 6.38114 -2.32352 0
M  V30 1083 H 96.5748 6.55943 -0.086595 0
M  V30 1084 H 96.4918 7.38723 -1.607 0
M  V30 1085 H 97.7598 7.77993 -0.484543 0
M  V30 1086 N 101.989 0.842826 1.3317 0
M  V30 1087 C 103.229 0.446574 1.99462 0
M  V30 1088 C 103.593 -0.976818 1.65295 0
M  V30 1089 O 104.794 -1.477 2.24584 0
M  V30 1090 C 103.065 0.665353 3.51152 0
M  V30 1091 S 104.624 0.364911 4.3728 0
M  V30 1092 H 101.442 0.167803 0.690915 0
M  V30 1093 H 104.044 1.09297 1.62094 0
M  V30 1094 H 102.748 1.7006 3.73507 0
M  V30 1095 H 102.279 0.00494568 3.934 0
M  V30 1096 H 104.294 -0.813761 4.89482 0
M  V30 1097 N 103.467 -1.45747 0.599634 0
M  V30 1098 C 104.716 -2.01502 0.0893511 0
M  V30 1099 C 105.029 -1.4748 -1.28488 0
M  V30 1100 O 106.235 -1.95161 -1.88745 0
M  V30 1101 C 104.691 -3.59735 0.109082 0
M  V30 1102 C 104.299 -4.22754 1.48267 0
M  V30 1103 C 106.043 -4.23085 -0.346374 0
M  V30 1104 C 103.95 -5.73115 1.45921 0
M  V30 1105 H 102.88 -0.753417 0.0296347 0
M  V30 1106 H 105.531 -1.67303 0.753788 0
M  V30 1107 H 103.913 -3.91087 -0.621854 0
M  V30 1108 H 105.087 -4.02987 2.23468 0
M  V30 1109 H 103.402 -3.71567 1.87955 0
M  V30 1110 H 105.999 -5.33327 -0.38298 0
M  V30 1111 H 106.342 -3.93201 -1.36743 0
M  V30 1112 H 106.875 -3.9642 0.331038 0
M  V30 1113 H 103.614 -6.07685 2.45762 0
M  V30 1114 H 103.134 -5.95097 0.749665 0
M  V30 1115 H 104.813 -6.3616 1.17941 0
M  V30 1116 N 104.945 -0.338344 -1.53925 0
M  V30 1117 C 106.194 0.260732 -2.00008 0
M  V30 1118 C 106.507 1.52073 -1.23017 0
M  V30 1119 O 107.713 2.19672 -1.5955 0
M  V30 1120 C 106.169 0.51515 -3.56194 0
M  V30 1121 C 105.777 -0.728645 -4.42035 0
M  V30 1122 C 107.521 1.07337 -4.10706 0
M  V30 1123 C 105.428 -0.445315 -5.89721 0
M  V30 1124 H 104.358 0.101205 -0.747177 0
M  V30 1125 H 107.009 -0.452866 -1.77824 0
M  V30 1126 H 105.391 1.28932 -3.74423 0
M  V30 1127 H 106.565 -1.50352 -4.35581 0
M  V30 1128 H 104.88 -1.20813 -3.98489 0
M  V30 1129 H 107.477 1.30022 -5.18651 0
M  V30 1130 H 107.82 2.0273 -3.63602 0
M  V30 1131 H 108.353 0.360034 -3.96167 0
M  V30 1132 H 105.092 -1.36883 -6.41049 0
M  V30 1133 H 104.612 0.291569 -5.99091 0
M  V30 1134 H 106.291 -0.0606218 -6.46972 0
M  V30 1135 N 106.423 1.57458 -0.0668435 0
M  V30 1136 C 107.672 1.92477 0.602947 0
M  V30 1137 C 107.985 0.948419 1.71068 0
M  V30 1138 O 109.191 1.19124 2.43971 0
M  V30 1139 C 107.647 3.41903 1.12383 0
M  V30 1140 C 107.255 4.47975 0.04737 0
M  V30 1141 C 108.999 3.85931 1.76797 0
M  V30 1142 C 106.906 5.88529 0.582022 0
M  V30 1143 H 105.836 0.718387 0.22899 0
M  V30 1144 H 108.487 1.82978 -0.138276 0
M  V30 1145 H 106.869 3.46459 1.91787 0
M  V30 1146 H 108.043 4.55029 -0.726978 0
M  V30 1147 H 106.358 4.13384 -0.500243 0
M  V30 1148 H 108.955 4.88322 2.17821 0
M  V30 1149 H 109.298 3.23029 2.62599 0
M  V30 1150 H 109.831 3.83958 1.04024 0
M  V30 1151 H 106.57 6.55065 -0.238721 0
M  V30 1152 H 106.09 5.85004 1.324 0
M  V30 1153 H 107.769 6.38258 1.05999 0
M  V30 1154 N 107.901 -0.206675 1.56239 0
M  V30 1155 C 108.849 -1.27571 1.94495 0
M  V30 1156 C 109.843 -1.47737 0.828862 0
M  V30 1157 O 111.049 -1.48735 1.0138 0
M  V30 1158 H 107.424 -0.428029 0.6183 0
M  V30 1159 H 109.395 -0.925961 2.8367 0
M  V30 1160 C 108.144 -2.61568 2.29079 0
M  V30 1161 H 107.467 -2.46863 3.14482 0
M  V30 1162 H 108.907 -3.35144 2.5972 0
M  V30 1163 C 107.366 -3.17695 1.12123 0
M  V30 1164 O 107.896 -3.99801 0.390153 0
M  V30 1165 N 106.102 -2.76276 0.901097 0
M  V30 1166 H 105.649 -2.09613 1.49733 0
M  V30 1167 H 105.607 -3.1417 0.120319 0
M  V30 1168 N 109.379 -1.50304 -0.473955 0
M  V30 1169 C 110.327 -1.69482 -1.59307 0
M  V30 1170 C 111.321 -0.560669 -1.59853 0
M  V30 1171 O 112.527 -0.741087 -1.64036 0
M  V30 1172 H 108.902 -0.534892 -0.528578 0
M  V30 1173 H 110.873 -2.63364 -1.40293 0
M  V30 1174 C 109.622 -1.80354 -2.97267 0
M  V30 1175 H 108.945 -2.67012 -2.97564 0
M  V30 1176 H 110.385 -1.97798 -3.75036 0
M  V30 1177 C 108.844 -0.55448 -3.32306 0
M  V30 1178 O 109.374 0.307661 -4.0052 0
M  V30 1179 N 107.58 -0.409354 -2.87702 0
M  V30 1180 H 107.127 -1.11196 -2.32364 0
M  V30 1181 H 107.085 0.425223 -3.11511 0
M  V30 1182 N 110.857 0.726932 -1.39834 0
M  V30 1183 C 111.804 1.841 -1.39197 0
M  V30 1184 C 112.774 1.642 -0.250502 0
M  V30 1185 O 113.959 1.85494 -0.446846 0
M  V30 1186 C 111.099 3.21697 -1.24919 0
M  V30 1187 C 110.212 3.53247 -2.48678 0
M  V30 1188 C 109.347 4.80289 -2.26928 0
M  V30 1189 C 108.386 5.04707 -3.4632 0
M  V30 1190 N 107.523 6.22956 -3.23836 0
M  V30 1191 H 112.363 1.83979 -2.34427 0
M  V30 1192 H 109.9 0.898876 -1.16442 0
M  V30 1193 H 111.858 4.01137 -1.1465 0
M  V30 1194 H 110.488 3.21076 -0.333153 0
M  V30 1195 H 109.54 2.68447 -2.69519 0
M  V30 1196 H 110.852 3.67205 -3.37582 0
M  V30 1197 H 110.006 5.67725 -2.13947 0
M  V30 1198 H 108.745 4.68519 -1.35431 0
M  V30 1199 H 107.75 4.1573 -3.5979 0
M  V30 1200 H 108.975 5.18357 -4.38729 0
M  V30 1201 H 106.921 6.12459 -2.35011 0
M  V30 1202 H 106.838 6.37539 -4.063 0
M  V30 1203 H 108.106 7.1321 -3.14566 0
M  V30 1204 N 112.336 1.25143 0.95797 0
M  V30 1205 C 113.284 1.05019 2.07542 0
M  V30 1206 C 114.278 -0.0178751 1.69391 0
M  V30 1207 O 115.484 0.137472 1.79474 0
M  V30 1208 H 111.859 0.32265 0.679265 0
M  V30 1209 H 113.83 1.99759 2.21673 0
M  V30 1210 C 112.579 0.682074 3.40944 0
M  V30 1211 H 111.902 1.49573 3.70767 0
M  V30 1212 H 113.342 0.580945 4.20001 0
M  V30 1213 C 111.801 -0.611608 3.31302 0
M  V30 1214 O 112.331 -1.65465 3.66038 0
M  V30 1215 N 110.537 -0.595982 2.84423 0
M  V30 1216 H 110.084 0.253192 2.56353 0
M  V30 1217 H 110.042 -1.46173 2.78354 0
M  V30 1218 N 113.814 -1.1601 1.06675 0
M  V30 1219 C 115.061 -1.86633 0.785781 0
M  V30 1220 C 115.389 -1.81929 -0.687896 0
M  V30 1221 O 114.644 -1.23253 -1.52011 0
M  V30 1222 C 114.943 -3.35547 1.23057 0
M  V30 1223 C 114.609 -3.60448 2.70902 0
M  V30 1224 C 113.271 -3.66954 3.11285 0
M  V30 1225 C 115.623 -3.7071 3.66365 0
M  V30 1226 C 112.951 -3.81225 4.45965 0
M  V30 1227 C 115.303 -3.86503 5.00797 0
M  V30 1228 C 113.967 -3.91252 5.40813 0
M  V30 1229 H 113.237 -0.682937 0.287538 0
M  V30 1230 H 115.884 -1.37146 1.33654 0
M  V30 1231 H 114.189 -3.87193 0.59907 0
M  V30 1232 H 115.886 -3.88583 0.990163 0
M  V30 1233 H 112.476 -3.56021 2.38636 0
M  V30 1234 H 116.66 -3.64991 3.36296 0
M  V30 1235 H 111.916 -3.83155 4.76447 0
M  V30 1236 H 116.09 -3.93385 5.74649 0
M  V30 1237 H 113.717 -4.02062 6.45174 0
M  V30 1238 N 115.292 -0.849877 -1.32721 0
M  V30 1239 C 116.569 -0.372405 -1.92022 0
M  V30 1240 C 116.949 1.1435 -1.77447 0
M  V30 1241 O 116.297 1.96296 -1.16962 0
M  V30 1242 C 116.507 -0.831482 -3.3895 0
M  V30 1243 C 117.855 -0.845882 -4.16089 0
M  V30 1244 O 118.879 -0.775806 -3.47649 0
M  V30 1245 O 117.738 -0.943753 -5.38289 0
M  V30 1246 H 114.832 -0.107667 -0.819961 0
M  V30 1247 H 117.378 -0.93646 -1.41522 0
M  V30 1248 H 116.15 -1.87448 -3.4348 0
M  V30 1249 H 115.773 -0.24461 -3.96847 0
M  V30 1250 N 116.77 1.45427 -0.607355 0
M  V30 1251 C 117.717 2.3053 0.111625 0
M  V30 1252 C 118.687 1.4209 0.860216 0
M  V30 1253 O 119.872 1.71019 0.845998 0
M  V30 1254 C 117.012 3.26992 1.10319 0
M  V30 1255 C 116.125 4.30535 0.355493 0
M  V30 1256 C 115.26 5.14105 1.33676 0
M  V30 1257 C 114.299 6.09376 0.576862 0
M  V30 1258 N 113.436 6.85727 1.5074 0
M  V30 1259 H 118.276 2.91477 -0.620093 0
M  V30 1260 H 115.813 1.43631 -0.317594 0
M  V30 1261 H 117.771 3.81385 1.6912 0
M  V30 1262 H 116.401 2.67799 1.80232 0
M  V30 1263 H 115.453 3.78805 -0.348023 0
M  V30 1264 H 116.765 4.98235 -0.237423 0
M  V30 1265 H 115.919 5.72897 1.99684 0
M  V30 1266 H 114.658 4.46423 1.9636 0
M  V30 1267 H 113.663 5.49715 -0.0968519 0
M  V30 1268 H 114.888 6.79085 -0.0449341 0
M  V30 1269 H 112.834 6.20735 2.12189 0
M  V30 1270 H 112.751 7.49778 0.967913 0
M  V30 1271 H 114.019 7.4906 2.15706 0
M  V30 1272 N 118.248 0.346503 1.53744 0
M  V30 1273 C 119.494 -0.249473 2.0126 0
M  V30 1274 C 119.827 -1.49965 1.23386 0
M  V30 1275 O 119.102 -1.91811 0.32229 0
M  V30 1276 C 119.385 -0.560643 3.55709 0
M  V30 1277 C 119.238 0.701836 4.44291 0
M  V30 1278 C 120.557 -1.36905 4.18264 0
M  V30 1279 H 117.676 -0.0891987 0.731582 0
M  V30 1280 H 120.318 0.467624 1.84156 0
M  V30 1281 H 118.468 -1.17156 3.70414 0
M  V30 1282 H 120.14 1.33974 4.41417 0
M  V30 1283 H 118.383 1.32612 4.13033 0
M  V30 1284 H 119.054 0.43933 5.50249 0
M  V30 1285 H 121.53 -0.852448 4.07275 0
M  V30 1286 H 120.406 -1.55553 5.26398 0
M  V30 1287 H 120.667 -2.37203 3.73078 0
M  V30 1288 N 119.726 -1.57421 0.075193 0
M  V30 1289 C 120.954 -1.97946 -0.602076 0
M  V30 1290 C 121.369 -0.953674 -1.62943 0
M  V30 1291 O 120.726 0.0592551 -1.82404 0
M  V30 1292 C 120.777 -3.38546 -1.26762 0
M  V30 1293 O 120.498 -4.37195 -0.281376 0
M  V30 1294 C 121.999 -3.93966 -2.03239 0
M  V30 1295 H 119.219 -0.650918 -0.162931 0
M  V30 1296 H 121.763 -2.03959 0.148601 0
M  V30 1297 H 119.918 -3.33609 -1.96936 0
M  V30 1298 H 120.332 -5.18975 -0.759267 0
M  V30 1299 H 121.806 -4.94555 -2.45193 0
M  V30 1300 H 122.283 -3.30693 -2.8903 0
M  V30 1301 H 122.889 -4.02315 -1.37924 0
M  V30 1302 N 121.204 0.198386 -1.56346 0
M  V30 1303 C 122.452 0.91747 -1.80075 0
M  V30 1304 C 122.773 1.83929 -0.647692 0
M  V30 1305 O 122.043 1.93029 0.334166 0
M  V30 1306 H 120.623 0.341774 -0.664228 0
M  V30 1307 H 123.285 0.204684 -1.93822 0
M  V30 1308 H 122.381 1.51055 -2.7311 0
M  V30 1309 N 122.682 1.50554 0.465978 0
M  V30 1310 C 123.615 1.64436 1.58227 0
M  V30 1311 C 124.593 0.492367 1.54966 0
M  V30 1312 O 125.777 0.712536 1.74514 0
M  V30 1313 C 122.904 1.63165 2.96808 0
M  V30 1314 C 121.95 2.83987 3.18204 0
M  V30 1315 S 122.783 4.45219 2.97557 0
M  V30 1316 C 123.939 4.46649 4.3847 0
M  V30 1317 H 124.172 2.58861 1.46213 0
M  V30 1318 H 121.705 1.3988 0.653678 0
M  V30 1319 H 123.663 1.63116 3.76701 0
M  V30 1320 H 122.324 0.69967 3.06208 0
M  V30 1321 H 121.517 2.79416 4.19455 0
M  V30 1322 H 121.119 2.81629 2.46092 0
M  V30 1323 H 123.411 4.20526 5.31191 0
M  V30 1324 H 124.354 5.48295 4.48082 0
M  V30 1325 H 124.762 3.76296 4.20787 0
M  V30 1326 N 124.16 -0.719506 1.40217 0
M  V30 1327 C 125.408 -1.47641 1.3801 0
M  V30 1328 C 125.729 -1.94992 -0.018145 0
M  V30 1329 O 124.999 -1.70073 -0.972207 0
M  V30 1330 H 123.579 -0.547744 0.507923 0
M  V30 1331 H 126.241 -0.853187 1.75233 0
M  V30 1332 H 125.337 -2.35112 2.05253 0
M  V30 1333 N 125.638 -1.25649 -0.95132 0
M  V30 1334 C 126.884 -1.10757 -1.69884 0
M  V30 1335 C 127.217 0.350061 -1.91019 0
M  V30 1336 O 126.492 1.25783 -1.48354 0
M  V30 1337 C 126.775 -1.86606 -3.07978 0
M  V30 1338 C 126.628 -3.40217 -2.94232 0
M  V30 1339 C 127.947 -1.65182 -4.07925 0
M  V30 1340 H 125.066 -0.40374 -0.616574 0
M  V30 1341 H 127.708 -1.54521 -1.10558 0
M  V30 1342 H 125.858 -1.49409 -3.58621 0
M  V30 1343 H 127.53 -3.87108 -2.50889 0
M  V30 1344 H 125.773 -3.67759 -2.30078 0
M  V30 1345 H 126.444 -3.88505 -3.92133 0
M  V30 1346 H 128.92 -1.9757 -3.66204 0
M  V30 1347 H 127.796 -2.20683 -5.02583 0
M  V30 1348 H 128.057 -0.593933 -4.38092 0
M  V30 1349 N 127.117 1.15442 -1.07289 0
M  V30 1350 C 128.533 1.38201 -0.798288 0
M  V30 1351 C 128.733 1.92429 0.597769 0
M  V30 1352 O 127.789 2.12962 1.3566 0
M  V30 1353 C 129.102 2.35357 -1.87156 0
M  V30 1354 C 130.65 2.49021 -1.89624 0
M  V30 1355 C 131.125 3.49468 -2.96034 0
M  V30 1356 N 132.616 3.57003 -2.95132 0
M  V30 1357 C 133.351 4.34543 -3.74112 0
M  V30 1358 N 132.847 5.15421 -4.6294 0
M  V30 1359 N 134.64 4.29625 -3.62462 0
M  V30 1360 H 126.791 0.78584 -1.97328 0
M  V30 1361 H 129.054 0.408065 -0.855679 0
M  V30 1362 H 128.76 2.02626 -2.87464 0
M  V30 1363 H 128.634 3.35129 -1.73114 0
M  V30 1364 H 131.021 2.81051 -0.899687 0
M  V30 1365 H 131.102 1.4925 -2.07745 0
M  V30 1366 H 130.746 3.18173 -3.95889 0
M  V30 1367 H 130.676 4.48992 -2.75161 0
M  V30 1368 H 133.167 2.99276 -2.30743 0
M  V30 1369 H 133.48 5.7183 -5.19837 0
M  V30 1370 H 131.825 5.14729 -4.66989 0
M  V30 1371 H 135.016 3.65505 -2.92444 0
M  V30 1372 H 135.189 4.89807 -4.24256 0
M  V30 1373 N 128.595 0.856903 1.32268 0
M  V30 1374 C 129.543 0.291987 2.3076 0
M  V30 1375 C 130.537 -0.585857 1.58947 0
M  V30 1376 O 131.743 -0.47341 1.73663 0
M  V30 1377 H 128.118 0.075721 0.748178 0
M  V30 1378 H 130.089 1.13687 2.75895 0
M  V30 1379 C 128.838 -0.502869 3.44044 0
M  V30 1380 H 128.161 0.163328 3.99466 0
M  V30 1381 H 129.601 -0.863691 4.1511 0
M  V30 1382 C 128.06 -1.68898 2.91505 0
M  V30 1383 O 128.59 -2.78811 2.89184 0
M  V30 1384 N 126.796 -1.51679 2.47875 0
M  V30 1385 H 126.343 -0.622666 2.49961 0
M  V30 1386 H 126.301 -2.31184 2.13076 0
M  V30 1387 N 130.073 -1.45103 0.615059 0
M  V30 1388 C 131.321 -2.01784 0.112955 0
M  V30 1389 C 131.642 -1.48504 -1.26378 0
M  V30 1390 O 130.912 -0.682245 -1.83636 0
M  V30 1391 H 129.492 -0.745993 0.0387668 0
M  V30 1392 H 132.154 -1.77808 0.798141 0
M  V30 1393 H 131.25 -3.12025 0.0684069 0
M  V30 1394 N 131.551 -0.354651 -1.53558 0
M  V30 1395 C 132.779 0.239515 -2.05509 0
M  V30 1396 C 133.194 1.4333 -1.2289 0
M  V30 1397 O 132.551 1.80538 -0.266899 0
M  V30 1398 C 132.602 0.643719 -3.55723 0
M  V30 1399 O 132.323 -0.502602 -4.35207 0
M  V30 1400 C 133.824 1.29743 -4.23889 0
M  V30 1401 H 131.044 0.0442697 -0.669538 0
M  V30 1402 H 133.588 -0.509856 -1.98042 0
M  V30 1403 H 131.743 1.34302 -3.63376 0
M  V30 1404 H 132.157 -0.178172 -5.24197 0
M  V30 1405 H 133.631 1.53091 -5.30346 0
M  V30 1406 H 134.108 2.25441 -3.76926 0
M  V30 1407 H 134.714 0.639865 -4.20459 0
M  V30 1408 N 133.029 1.57378 -0.0835403 0
M  V30 1409 C 134.306 1.85363 0.624507 0
M  V30 1410 C 134.686 0.978239 1.87066 0
M  V30 1411 O 134.034 0.0475908 2.2845 0
M  V30 1412 C 134.244 3.35795 0.950947 0
M  V30 1413 C 135.592 4.03581 1.31939 0
M  V30 1414 O 136.616 3.40609 1.04232 0
M  V30 1415 O 135.475 5.14672 1.83779 0
M  V30 1416 H 132.569 0.766162 0.311329 0
M  V30 1417 H 135.115 1.69307 -0.115362 0
M  V30 1418 H 133.887 3.91244 0.0663899 0
M  V30 1419 H 133.51 3.57154 1.74719 0
M  V30 1420 N 134.507 -0.190092 1.56449 0
M  V30 1421 C 135.454 -1.23557 1.94942 0
M  V30 1422 C 136.424 -1.44972 0.810696 0
M  V30 1423 O 137.609 -1.58023 1.06927 0
M  V30 1424 C 134.749 -2.57416 2.2985 0
M  V30 1425 C 133.862 -2.43537 3.5681 0
M  V30 1426 C 132.997 -3.70134 3.81017 0
M  V30 1427 C 132.036 -3.51109 5.01387 0
M  V30 1428 N 131.173 -4.6973 5.21822 0
M  V30 1429 H 136.013 -0.900304 2.84075 0
M  V30 1430 H 133.55 -0.43318 1.40577 0
M  V30 1431 H 135.508 -3.35409 2.48106 0
M  V30 1432 H 134.138 -2.88975 1.43852 0
M  V30 1433 H 133.19 -1.56816 3.46573 0
M  V30 1434 H 134.502 -2.25415 4.4496 0
M  V30 1435 H 133.656 -4.56566 3.9954 0
M  V30 1436 H 132.395 -3.91215 2.91207 0
M  V30 1437 H 131.4 -2.63063 4.82782 0
M  V30 1438 H 132.625 -3.31468 5.9271 0
M  V30 1439 H 130.571 -4.91065 4.34961 0
M  V30 1440 H 130.488 -4.54452 6.0416 0
M  V30 1441 H 131.756 -5.57499 5.44808 0
M  V30 1442 N 135.985 -1.50799 -0.457987 0
M  V30 1443 C 137.262 -1.52968 -1.21902 0
M  V30 1444 C 137.642 -0.281906 -2.09209 0
M  V30 1445 O 136.99 0.734076 -2.16388 0
M  V30 1446 C 137.2 -2.8326 -2.03875 0
M  V30 1447 C 138.548 -3.34425 -2.6162 0
M  V30 1448 O 139.572 -2.8467 -2.14106 0
M  V30 1449 O 138.431 -4.21188 -3.48228 0
M  V30 1450 H 135.525 -0.614129 -0.553873 0
M  V30 1451 H 138.071 -1.63098 -0.468739 0
M  V30 1452 H 136.843 -3.65543 -1.39621 0
M  V30 1453 H 136.466 -2.76195 -2.8601 0
M  V30 1454 N 137.463 0.71206 -1.40597 0
M  V30 1455 C 138.426 1.80785 -1.40888 0
M  V30 1456 C 139.426 1.57937 -0.302103 0
M  V30 1457 O 140.616 1.64913 -0.561182 0
M  V30 1458 C 137.748 3.18927 -1.20409 0
M  V30 1459 H 138.941 1.81924 -2.38419 0
M  V30 1460 H 136.494 0.91805 -1.26497 0
M  V30 1461 H 137.229 3.23436 -0.236522 0
M  V30 1462 H 137.014 3.36911 -2.00582 0
M  V30 1463 H 138.504 3.98949 -1.23408 0
M  V30 1464 N 138.941 1.26152 0.944643 0
M  V30 1465 C 139.851 1.09176 2.07648 0
M  V30 1466 C 140.867 0.0261935 1.7398 0
M  V30 1467 O 142.043 0.229208 2.00091 0
M  V30 1468 C 139.108 0.722915 3.39079 0
M  V30 1469 C 138.169 1.86752 3.86552 0
M  V30 1470 C 137.402 1.51617 5.11711 0
M  V30 1471 O 137.625 0.416331 5.68879 0
M  V30 1472 O 136.559 2.34975 5.54139 0
M  V30 1473 H 140.385 2.0412 2.24875 0
M  V30 1474 H 137.97 1.05182 1.061 0
M  V30 1475 H 139.852 0.529787 4.18056 0
M  V30 1476 H 138.527 -0.197159 3.23099 0
M  V30 1477 H 137.434 2.11558 3.08535 0
M  V30 1478 H 138.767 2.76719 4.07047 0
M  V30 1479 N 140.419 -1.14872 1.07899 0
M  V30 1480 C 141.382 -2.17986 0.708161 0
M  V30 1481 C 142.382 -1.58775 -0.25442 0
M  V30 1482 O 143.572 -1.74166 -0.034645 0
M  V30 1483 C 140.704 -3.40871 0.0446929 0
M  V30 1484 H 141.897 -2.52306 1.62116 0
M  V30 1485 H 139.45 -1.2943 0.876218 0
M  V30 1486 H 140.185 -3.12124 -0.880281 0
M  V30 1487 H 139.97 -3.8511 0.737091 0
M  V30 1488 H 141.46 -4.17121 -0.19991 0
M  V30 1489 N 141.898 -0.863906 -1.31812 0
M  V30 1490 C 142.828 -0.330843 -2.31144 0
M  V30 1491 C 143.809 0.575005 -1.60087 0
M  V30 1492 O 144.994 0.493304 -1.8783 0
M  V30 1493 C 142.124 0.47374 -3.44054 0
M  V30 1494 C 141.078 -0.338481 -4.26659 0
M  V30 1495 C 140.404 0.591412 -5.31419 0
M  V30 1496 C 141.704 -1.56926 -4.98168 0
M  V30 1497 H 143.398 -1.16086 -2.75979 0
M  V30 1498 H 140.944 -0.559657 -1.32679 0
M  V30 1499 H 142.897 0.857143 -4.12591 0
M  V30 1500 H 141.621 1.33721 -2.9797 0
M  V30 1501 H 140.28 -0.703754 -3.59782 0
M  V30 1502 H 139.928 1.45199 -4.81587 0
M  V30 1503 H 139.628 0.0519022 -5.87577 0
M  V30 1504 H 141.152 0.97179 -6.02817 0
M  V30 1505 H 142.566 -1.25764 -5.59336 0
M  V30 1506 H 140.963 -2.04739 -5.64094 0
M  V30 1507 H 142.033 -2.32544 -4.25501 0
M  V30 1508 N 143.376 1.44774 -0.622745 0
M  V30 1509 C 144.623 2.02121 -0.1239 0
M  V30 1510 C 144.951 1.48915 1.25118 0
M  V30 1511 O 144.206 0.660045 1.84233 0
M  V30 1512 C 144.505 3.57364 -0.0508323 0
M  V30 1513 C 144.171 4.29787 -1.36358 0
M  V30 1514 C 142.833 4.4929 -1.72314 0
M  V30 1515 C 145.185 4.71062 -2.23048 0
M  V30 1516 C 142.513 5.07325 -2.94682 0
M  V30 1517 C 144.865 5.30452 -3.44679 0
M  V30 1518 C 143.529 5.48175 -3.80868 0
M  V30 1519 H 142.799 0.739612 -0.0453381 0
M  V30 1520 H 145.446 1.73648 -0.807389 0
M  V30 1521 H 143.751 3.85202 0.715991 0
M  V30 1522 H 145.448 3.99456 0.351533 0
M  V30 1523 H 142.038 4.14932 -1.07375 0
M  V30 1524 H 146.222 4.55715 -1.96565 0
M  V30 1525 H 141.478 5.19235 -3.22809 0
M  V30 1526 H 145.652 5.61385 -4.12092 0
M  V30 1527 H 143.279 5.92912 -4.75773 0
M  V30 1528 N 144.854 0.36279 1.53368 0
M  V30 1529 C 145.801 -0.485008 2.25646 0
M  V30 1530 C 146.771 -1.07982 1.2621 0
M  V30 1531 O 147.956 -1.11284 1.54986 0
M  V30 1532 C 145.096 -1.62023 3.04701 0
M  V30 1533 C 144.209 -1.05086 4.19024 0
M  V30 1534 C 143.344 -2.15496 4.85525 0
M  V30 1535 C 142.383 -1.5601 5.91884 0
M  V30 1536 N 141.52 -2.60241 6.52088 0
M  V30 1537 H 146.36 0.137864 2.97681 0
M  V30 1538 H 143.897 0.0798061 1.46883 0
M  V30 1539 H 145.855 -2.28887 3.48807 0
M  V30 1540 H 144.485 -2.2138 2.34927 0
M  V30 1541 H 143.537 -0.27259 3.79422 0
M  V30 1542 H 144.849 -0.575926 4.95464 0
M  V30 1543 H 144.003 -2.90186 5.32801 0
M  V30 1544 H 142.742 -2.66341 4.08551 0
M  V30 1545 H 141.747 -0.798338 5.43973 0
M  V30 1546 H 142.972 -1.05994 6.70777 0
M  V30 1547 H 140.918 -3.10304 5.77968 0
M  V30 1548 H 140.835 -2.17426 7.24059 0
M  V30 1549 H 142.103 -3.34641 7.04014 0
M  V30 1550 N 146.332 -1.57332 0.0918853 0
M  V30 1551 C 147.572 -1.96117 -0.575988 0
M  V30 1552 C 147.936 -0.972499 -1.65549 0
M  V30 1553 O 149.137 -1.24872 -2.38034 0
M  V30 1554 C 147.408 -3.39407 -1.11973 0
M  V30 1555 S 148.967 -4.00185 -1.79992 0
M  V30 1556 H 145.785 -0.685682 -0.188045 0
M  V30 1557 H 148.387 -1.94755 0.170525 0
M  V30 1558 H 147.091 -4.09131 -0.322504 0
M  V30 1559 H 146.622 -3.44358 -1.90214 0
M  V30 1560 H 148.637 -3.88728 -3.08391 0
M  V30 1561 N 147.81 0.181792 -1.56548 0
M  V30 1562 C 149.057 0.900097 -1.81396 0
M  V30 1563 C 149.385 1.82695 -0.667281 0
M  V30 1564 O 148.64 1.92614 0.346146 0
M  V30 1565 C 148.939 1.73728 -3.12335 0
M  V30 1566 C 148.605 0.960255 -4.40556 0
M  V30 1567 C 147.267 0.745766 -4.75386 0
M  V30 1568 C 149.619 0.414477 -5.19549 0
M  V30 1569 C 146.947 -0.0257694 -5.86694 0
M  V30 1570 C 149.299 -0.343916 -6.31664 0
M  V30 1571 C 147.963 -0.569301 -6.65068 0
M  V30 1572 H 147.233 0.329369 -0.663775 0
M  V30 1573 H 149.88 0.165647 -1.90782 0
M  V30 1574 H 148.185 2.54081 -2.98245 0
M  V30 1575 H 149.882 2.29591 -3.28769 0
M  V30 1576 H 146.472 1.13746 -4.13231 0
M  V30 1577 H 150.656 0.567554 -4.93044 0
M  V30 1578 H 145.912 -0.210233 -6.11038 0
M  V30 1579 H 150.086 -0.774133 -6.92084 0
M  V30 1580 H 147.713 -1.16903 -7.51158 0
M  V30 1581 N 149.288 1.51039 0.449983 0
M  V30 1582 C 150.704 1.38934 0.785462 0
M  V30 1583 C 150.904 0.461817 1.96136 0
M  V30 1584 O 149.96 -0.0877389 2.52348 0
M  V30 1585 C 151.273 2.80724 1.0777 0
M  V30 1586 C 152.821 2.89787 1.1829 0
M  V30 1587 C 153.296 4.32457 1.50815 0
M  V30 1588 N 154.787 4.35505 1.57764 0
M  V30 1589 C 155.522 5.42914 1.84477 0
M  V30 1590 N 155.018 6.60502 2.09068 0
M  V30 1591 N 156.811 5.3038 1.86155 0
M  V30 1592 H 148.962 2.09904 -0.324647 0
M  V30 1593 H 151.225 0.944378 -0.0827957 0
M  V30 1594 H 150.931 3.50531 0.286498 0
M  V30 1595 H 150.805 3.19273 2.00859 0
M  V30 1596 H 153.192 2.20186 1.96474 0
M  V30 1597 H 153.273 2.54752 0.231314 0
M  V30 1598 H 152.917 5.02603 0.731622 0
M  V30 1599 H 152.847 4.64995 2.47158 0
M  V30 1600 H 155.338 3.50724 1.40715 0
M  V30 1601 H 155.651 7.38158 2.28785 0
M  V30 1602 H 153.996 6.63639 2.06416 0
M  V30 1603 H 157.187 4.37505 1.66454 0
M  V30 1604 H 157.36 6.1417 2.06637 0
M  V30 1605 N 150.766 -0.704594 1.40972 0
M  V30 1606 C 151.991 -1.49858 1.43378 0
M  V30 1607 C 152.416 -1.88061 0.038184 0
M  V30 1608 O 151.774 -1.5402 -0.956425 0
M  V30 1609 C 151.822 -2.74333 2.34038 0
M  V30 1610 O 150.926 -3.7147 1.7912 0
M  V30 1611 H 150.267 -0.45139 0.486974 0
M  V30 1612 H 152.797 -0.866832 1.8533 0
M  V30 1613 H 152.807 -3.22741 2.49604 0
M  V30 1614 H 151.482 -2.45863 3.35446 0
M  V30 1615 H 150.059 -3.30363 1.72958 0
M  V30 1616 N 152.244 -1.26651 -0.937939 0
M  V30 1617 C 153.174 -1.10993 -2.05433 0
M  V30 1618 C 154.155 -0.0142161 -1.70094 0
M  V30 1619 O 155.34 -0.186837 -1.93299 0
M  V30 1620 C 152.47 -0.745561 -3.39203 0
M  V30 1621 C 151.424 -1.79337 -3.88616 0
M  V30 1622 C 150.75 -1.28324 -5.19073 0
M  V30 1623 C 152.05 -3.19553 -4.13138 0
M  V30 1624 H 153.744 -2.0438 -2.1879 0
M  V30 1625 H 151.29 -0.984041 -1.05131 0
M  V30 1626 H 153.243 -0.622888 -4.16771 0
M  V30 1627 H 151.967 0.22401 -3.25831 0
M  V30 1628 H 150.626 -1.90477 -3.13231 0
M  V30 1629 H 150.274 -0.303414 -5.02084 0
M  V30 1630 H 149.974 -1.98369 -5.53103 0
M  V30 1631 H 151.498 -1.1733 -5.99221 0
M  V30 1632 H 152.912 -3.11471 -4.81309 0
M  V30 1633 H 151.309 -3.87218 -4.58457 0
M  V30 1634 H 152.379 -3.65368 -3.18801 0
M  V30 1635 N 153.722 1.14298 -1.08507 0
M  V30 1636 C 154.97 1.84993 -0.813763 0
M  V30 1637 C 155.291 1.83405 0.662393 0
M  V30 1638 O 154.561 1.28319 1.48024 0
M  V30 1639 H 153.141 0.684966 -0.298045 0
M  V30 1640 H 155.803 1.385 -1.37126 0
M  V30 1641 H 154.899 2.89788 -1.15884 0
M  V30 1642 N 155.201 0.870884 1.31352 0
M  V30 1643 C 156.448 0.482273 1.96673 0
M  V30 1644 C 156.776 -0.965638 1.68836 0
M  V30 1645 O 156.031 -1.69514 0.977937 0
M  V30 1646 C 156.33 0.687157 3.50732 0
M  V30 1647 C 155.996 2.108 3.9859 0
M  V30 1648 C 154.658 2.49656 4.1137 0
M  V30 1649 C 157.01 3.03459 4.23748 0
M  V30 1650 C 154.338 3.80412 4.46659 0
M  V30 1651 C 156.69 4.3373 4.60501 0
M  V30 1652 C 155.354 4.725 4.71487 0
M  V30 1653 H 154.624 0.176476 0.719679 0
M  V30 1654 H 157.271 1.10405 1.56471 0
M  V30 1655 H 155.576 -0.0177476 3.91796 0
M  V30 1656 H 157.273 0.366284 3.99324 0
M  V30 1657 H 153.863 1.79633 3.8914 0
M  V30 1658 H 158.047 2.74665 4.13368 0
M  V30 1659 H 153.303 4.1021 4.53362 0
M  V30 1660 H 157.477 5.05578 4.78919 0
M  V30 1661 H 155.104 5.73859 4.98588 0
M  V30 1662 N 156.679 -1.44442 0.630414 0
M  V30 1663 C 157.956 -1.9549 0.0655657 0
M  V30 1664 C 158.336 -1.5724 -1.40851 0
M  V30 1665 O 157.684 -0.846116 -2.12257 0
M  V30 1666 C 157.894 -3.47812 0.287691 0
M  V30 1667 C 159.242 -4.24216 0.180513 0
M  V30 1668 O 160.266 -3.55526 0.219019 0
M  V30 1669 O 159.125 -5.46434 0.0848493 0
M  V30 1670 H 156.219 -0.826688 -0.0227177 0
M  V30 1671 H 158.765 -1.54496 0.702068 0
M  V30 1672 H 157.537 -3.687 1.31056 0
M  V30 1673 H 157.16 -3.95751 -0.382984 0
M  V30 1674 N 158.157 -0.370918 -1.53173 0
M  V30 1675 C 159.403 0.217423 -2.01631 0
M  V30 1676 C 159.736 1.47983 -1.25756 0
M  V30 1677 O 159.011 1.91274 -0.352764 0
M  V30 1678 C 159.294 0.503982 -3.56556 0
M  V30 1679 C 159.147 -0.77243 -4.43118 0
M  V30 1680 C 160.466 1.30234 -4.20389 0
M  V30 1681 H 157.585 0.0775486 -0.732909 0
M  V30 1682 H 160.227 -0.496863 -1.83388 0
M  V30 1683 H 158.377 1.11248 -3.72231 0
M  V30 1684 H 160.049 -1.4098 -4.39229 0
M  V30 1685 H 158.292 -1.39167 -4.10871 0
M  V30 1686 H 158.963 -0.526815 -5.4948 0
M  V30 1687 H 161.439 0.787546 -4.08579 0
M  V30 1688 H 160.315 1.47158 -5.28806 0
M  V30 1689 H 160.576 2.31237 -3.76805 0
M  V30 1690 N 159.635 1.57281 -0.100228 0
M  V30 1691 C 160.884 1.93713 0.561984 0
M  V30 1692 C 161.197 0.984492 1.69018 0
M  V30 1693 O 162.403 1.24273 2.41389 0
M  V30 1694 C 160.859 3.4421 1.05106 0
M  V30 1695 C 160.467 4.47975 -0.0476628 0
M  V30 1696 C 162.211 3.89595 1.68571 0
M  V30 1697 C 160.118 5.89631 0.457055 0
M  V30 1698 H 159.048 0.723082 0.2137 0
M  V30 1699 H 161.699 1.82644 -0.177057 0
M  V30 1700 H 160.081 3.50449 1.84395 0
M  V30 1701 H 161.255 4.53385 -0.823333 0
M  V30 1702 H 159.57 4.1223 -0.587816 0
M  V30 1703 H 162.167 4.92832 2.07414 0
M  V30 1704 H 162.51 3.28526 2.55688 0
M  V30 1705 H 163.043 3.86078 0.958562 0
M  V30 1706 H 159.782 6.54411 -0.377616 0
M  V30 1707 H 159.302 5.87681 1.19962 0
M  V30 1708 H 160.981 6.40363 0.92437 0
M  V30 1709 N 161.113 -0.173488 1.56642 0
M  V30 1710 C 162.359 -0.891784 1.8214 0
M  V30 1711 C 162.692 -1.8199 0.677736 0
M  V30 1712 O 161.967 -1.91842 -0.320446 0
M  V30 1713 C 162.25 -1.68933 3.18015 0
M  V30 1714 C 162.103 -0.784487 4.42906 0
M  V30 1715 C 163.422 -2.65748 3.50808 0
M  V30 1716 H 160.541 -0.322761 0.662567 0
M  V30 1717 H 163.183 -0.158095 1.89341 0
M  V30 1718 H 161.333 -2.31482 3.12007 0
M  V30 1719 H 163.005 -0.172046 4.60979 0
M  V30 1720 H 161.248 -0.0924117 4.33702 0
M  V30 1721 H 161.919 -1.37799 5.34524 0
M  V30 1722 H 164.395 -2.13327 3.57255 0
M  V30 1723 H 163.271 -3.18619 4.4696 0
M  V30 1724 H 163.532 -3.45842 2.75401 0
M  V30 1725 N 162.591 -1.51276 -0.441967 0
M  V30 1726 C 163.821 -1.67273 -1.21257 0
M  V30 1727 C 164.229 -0.367624 -1.85594 0
M  V30 1728 O 163.572 0.663349 -1.71305 0
M  V30 1729 C 163.634 -2.72807 -2.34129 0
M  V30 1730 C 163.298 -4.1554 -1.90198 0
M  V30 1731 C 164.295 -5.00471 -1.40801 0
M  V30 1732 C 161.98 -4.61616 -1.9803 0
M  V30 1733 C 163.974 -6.29536 -0.998174 0
M  V30 1734 C 161.661 -5.90679 -1.56658 0
M  V30 1735 C 162.659 -6.74466 -1.07633 0
M  V30 1736 O 162.347 -8.01116 -0.668459 0
M  V30 1737 H 162.079 -0.564614 -0.371734 0
M  V30 1738 H 164.633 -1.9843 -0.530521 0
M  V30 1739 H 162.863 -2.36954 -3.05597 0
M  V30 1740 H 164.552 -2.77729 -2.96009 0
M  V30 1741 H 165.318 -4.66079 -1.34148 0
M  V30 1742 H 161.197 -3.96526 -2.35135 0
M  V30 1743 H 164.741 -6.94885 -0.61482 0
M  V30 1744 H 160.638 -6.24586 -1.62979 0
M  V30 1745 H 161.406 -8.14633 -0.794722 0
M  V30 1746 N 164.069 0.697108 -1.41344 0
M  V30 1747 C 165.017 1.83237 -1.43272 0
M  V30 1748 C 166.011 1.66522 -0.310947 0
M  V30 1749 O 167.217 1.73402 -0.482899 0
M  V30 1750 H 163.592 0.603802 -0.448249 0
M  V30 1751 H 165.563 1.78727 -2.38954 0
M  V30 1752 C 164.312 3.21245 -1.33029 0
M  V30 1753 H 163.635 3.34723 -2.18633 0
M  V30 1754 H 165.075 4.00763 -1.38439 0
M  V30 1755 C 163.534 3.36873 -0.0424635 0
M  V30 1756 O 164.064 3.91177 0.913421 0
M  V30 1757 N 162.27 2.90581 0.0331145 0
M  V30 1758 H 161.817 2.46577 -0.745506 0
M  V30 1759 H 161.775 3.01416 0.894199 0
M  V30 1760 N 165.547 1.27147 0.931209 0
M  V30 1761 C 166.824 1.0401 1.65654 0
M  V30 1762 C 167.204 -0.426297 2.06751 0
M  V30 1763 O 166.552 -1.40879 1.79904 0
M  V30 1764 C 166.762 1.99834 2.86125 0
M  V30 1765 C 168.11 2.29007 3.57549 0
M  V30 1766 O 169.134 1.97779 2.96246 0
M  V30 1767 O 167.993 2.82222 4.67989 0
M  V30 1768 H 165.087 0.396239 0.725895 0
M  V30 1769 H 167.633 1.38397 0.982056 0
M  V30 1770 H 166.405 2.98744 2.52721 0
M  V30 1771 H 166.028 1.65987 3.61295 0
M  V30 1772 N 167.025 -1.13721 1.09112 0
M  V30 1773 C 168.265 -1.86576 0.834801 0
M  V30 1774 C 168.629 -1.81435 -0.628122 0
M  V30 1775 O 169.83 -2.49497 -1.00024 0
M  V30 1776 C 168.101 -3.30872 1.35124 0
M  V30 1777 S 169.66 -4.21257 1.22832 0
M  V30 1778 H 166.478 -0.643666 0.302017 0
M  V30 1779 H 169.08 -1.37085 1.39385 0
M  V30 1780 H 167.784 -3.32166 2.41027 0
M  V30 1781 H 167.315 -3.85423 0.788185 0
M  V30 1782 H 169.33 -4.95884 0.177191 0
M  V30 1783 N 168.503 -0.877838 -1.30888 0
M  V30 1784 C 169.728 -0.506629 -2.01117 0
M  V30 1785 C 170.153 0.895564 -1.65412 0
M  V30 1786 O 169.511 1.5923 -0.866922 0
M  V30 1787 C 169.559 -0.680223 -3.54126 0
M  V30 1788 O 168.663 0.277033 -4.11468 0
M  V30 1789 H 168.004 -0.200518 -0.633 0
M  V30 1790 H 170.534 -1.18342 -1.66902 0
M  V30 1791 H 170.544 -0.5765 -4.03907 0
M  V30 1792 H 169.219 -1.70261 -3.79452 0
M  V30 1793 H 167.796 0.127606 -3.72682 0
M  V30 1794 N 169.982 1.44106 -0.638065 0
M  V30 1795 C 171.222 2.03858 -0.148733 0
M  V30 1796 C 171.586 1.49153 1.20903 0
M  V30 1797 O 172.787 2.00452 1.79088 0
M  V30 1798 C 171.058 3.57117 -0.142314 0
M  V30 1799 S 172.617 4.37897 0.281385 0
M  V30 1800 H 169.435 0.708069 -0.0644912 0
M  V30 1801 H 172.037 1.7639 -0.843009 0
M  V30 1802 H 170.741 3.94436 -1.13349 0
M  V30 1803 H 170.272 3.89205 0.572988 0
M  V30 1804 H 172.287 4.72218 1.52395 0
M  V30 1805 N 171.46 0.379036 1.52974 0
M  V30 1806 C 172.423 -0.448865 2.24762 0
M  V30 1807 C 173.423 -0.998689 1.26027 0
M  V30 1808 O 174.613 -0.882313 1.50203 0
M  V30 1809 C 171.745 -1.62872 2.99476 0
M  V30 1810 H 172.938 0.179491 2.99362 0
M  V30 1811 H 170.491 0.13096 1.5575 0
M  V30 1812 H 171.226 -2.29479 2.29151 0
M  V30 1813 H 171.011 -1.24128 3.71934 0
M  V30 1814 H 172.501 -2.2151 3.5401 0
M  V30 1815 N 172.938 -1.57226 0.108567 0
M  V30 1816 C 173.885 -2.14756 -0.845481 0
M  V30 1817 C 174.855 -1.06971 -1.27068 0
M  V30 1818 O 176.04 -1.34827 -1.35005 0
M  V30 1819 C 173.18 -2.74298 -2.09415 0
M  V30 1820 C 172.293 -3.96358 -1.71826 0
M  V30 1821 C 171.428 -4.44021 -2.9158 0
M  V30 1822 C 170.467 -5.58637 -2.50181 0
M  V30 1823 N 169.604 -6.01091 -3.62814 0
M  V30 1824 H 174.444 -2.95961 -0.348035 0
M  V30 1825 H 171.981 -1.46226 -0.160106 0
M  V30 1826 H 173.939 -3.06945 -2.82561 0
M  V30 1827 H 172.569 -1.95801 -2.56636 0
M  V30 1828 H 171.621 -3.69939 -0.885947 0
M  V30 1829 H 172.933 -4.79504 -1.37394 0
M  V30 1830 H 172.087 -4.78522 -3.72963 0
M  V30 1831 H 170.826 -3.59803 -3.29231 0
M  V30 1832 H 169.831 -5.23751 -1.67228 0
M  V30 1833 H 171.056 -6.44613 -2.13659 0
M  V30 1834 H 169.002 -5.19817 -4.00158 0
M  V30 1835 H 168.919 -6.79066 -3.32273 0
M  V30 1836 H 170.187 -6.40227 -4.44668 0
M  V30 1837 N 174.416 0.165178 -1.56732 0
M  V30 1838 C 175.349 1.23336 -1.91998 0
M  V30 1839 C 176.327 1.42476 -0.783531 0
M  V30 1840 O 177.511 1.57384 -1.03743 0
M  V30 1841 C 174.638 2.59533 -2.17625 0
M  V30 1842 C 173.684 2.57093 -3.40302 0
M  V30 1843 S 174.517 2.05571 -4.9447 0
M  V30 1844 C 175.673 3.43532 -5.23198 0
M  V30 1845 H 175.906 0.932387 -2.82301 0
M  V30 1846 H 173.439 0.370013 -1.49901 0
M  V30 1847 H 175.397 3.37918 -2.3307 0
M  V30 1848 H 174.058 2.86827 -1.28019 0
M  V30 1849 H 173.251 3.57308 -3.55453 0
M  V30 1850 H 172.853 1.86806 -3.24005 0
M  V30 1851 H 175.145 4.39559 -5.15552 0
M  V30 1852 H 176.088 3.33251 -6.2478 0
M  V30 1853 H 176.496 3.39828 -4.50752 0
M  V30 1854 N 175.894 1.51508 0.433938 0
M  V30 1855 C 176.826 1.69266 1.54537 0
M  V30 1856 C 177.839 0.573276 1.52373 0
M  V30 1857 O 179.028 0.847698 1.57087 0
M  V30 1858 C 176.128 1.69524 2.93453 0
M  V30 1859 C 175.301 2.98101 3.20085 0
M  V30 1860 C 174.36 2.90502 4.38742 0
M  V30 1861 O 173.386 3.64442 4.3723 0
M  V30 1862 N 174.588 2.06586 5.42496 0
M  V30 1863 H 177.353 2.65145 1.39708 0
M  V30 1864 H 174.914 1.49437 0.622922 0
M  V30 1865 H 176.906 1.62004 3.70859 0
M  V30 1866 H 175.476 0.812245 3.01863 0
M  V30 1867 H 174.696 3.19464 2.30947 0
M  V30 1868 H 175.984 3.83207 3.34708 0
M  V30 1869 H 175.382 1.45896 5.46563 0
M  V30 1870 H 173.939 2.04943 6.18742 0
M  V30 1871 N 177.372 -0.689602 1.41712 0
M  V30 1872 C 178.649 -1.44457 1.31877 0
M  V30 1873 C 179.029 -2.11039 -0.0508537 0
M  V30 1874 O 178.377 -2.02138 -1.06547 0
M  V30 1875 C 178.587 -2.45913 2.47645 0
M  V30 1876 C 179.935 -3.10991 2.89084 0
M  V30 1877 O 180.959 -2.56238 2.47428 0
M  V30 1878 O 179.818 -4.10174 3.61137 0
M  V30 1879 H 176.912 -0.64362 0.519309 0
M  V30 1880 H 179.458 -0.719576 1.53689 0
M  V30 1881 H 178.23 -1.95409 3.39015 0
M  V30 1882 H 177.853 -3.25913 2.27742 0
M  V30 1883 N 178.85 -1.27639 -0.924453 0
M  V30 1884 C 179.78 -1.13166 -2.04244 0
M  V30 1885 C 180.761 -0.032256 -1.70069 0
M  V30 1886 O 181.946 -0.207328 -1.9309 0
M  V30 1887 C 179.076 -0.781496 -3.38393 0
M  V30 1888 C 178.03 -1.83449 -3.86692 0
M  V30 1889 C 177.356 -1.33822 -5.17683 0
M  V30 1890 C 178.656 -3.23917 -4.09726 0
M  V30 1891 H 180.35 -2.06689 -2.1661 0
M  V30 1892 H 177.896 -0.995136 -1.04082 0
M  V30 1893 H 179.849 -0.667057 -4.16087 0
M  V30 1894 H 178.573 0.189439 -3.2605 0
M  V30 1895 H 177.232 -1.93789 -3.11193 0
M  V30 1896 H 176.88 -0.35665 -5.01734 0
M  V30 1897 H 176.58 -2.04224 -5.50968 0
M  V30 1898 H 178.104 -1.23679 -5.97943 0
M  V30 1899 H 179.518 -3.16559 -4.77978 0
M  V30 1900 H 177.915 -3.92059 -4.54324 0
M  V30 1901 H 178.985 -3.68729 -3.14908 0
M  V30 1902 N 180.328 1.1314 -1.09713 0
M  V30 1903 C 181.258 2.20748 -0.761102 0
M  V30 1904 C 182.239 1.68061 0.262566 0
M  V30 1905 O 183.424 1.93765 0.129977 0
M  V30 1906 C 180.554 3.46812 -0.184054 0
M  V30 1907 C 179.508 4.12606 -1.13757 0
M  V30 1908 C 178.834 5.33031 -0.422083 0
M  V30 1909 C 180.134 4.59603 -2.48118 0
M  V30 1910 H 181.828 2.49113 -1.66082 0
M  V30 1911 H 179.374 1.19734 -0.799987 0
M  V30 1912 H 181.327 4.21353 0.0631215 0
M  V30 1913 H 180.051 3.17851 0.750868 0
M  V30 1914 H 178.71 3.40036 -1.37007 0
M  V30 1915 H 178.358 5.00335 0.517072 0
M  V30 1916 H 178.058 5.77999 -1.05788 0
M  V30 1917 H 179.582 6.10325 -0.183277 0
M  V30 1918 H 180.996 5.25552 -2.29059 0
M  V30 1919 H 179.393 5.15321 -3.07514 0
M  V30 1920 H 180.463 3.73971 -3.08665 0
M  V30 1921 N 181.806 0.884767 1.30421 0
M  V30 1922 C 182.753 0.349642 2.28136 0
M  V30 1923 C 183.723 -0.560061 1.56373 0
M  V30 1924 O 184.908 -0.488524 1.8444 0
M  V30 1925 C 182.048 -0.42999 3.42411 0
M  V30 1926 C 181.161 0.508907 4.28992 0
M  V30 1927 C 180.296 -0.286301 5.30428 0
M  V30 1928 C 179.335 0.648079 6.08659 0
M  V30 1929 N 178.472 -0.111792 7.02011 0
M  V30 1930 H 183.312 1.18807 2.73293 0
M  V30 1931 H 180.849 0.597231 1.3443 0
M  V30 1932 H 182.807 -0.897923 4.07423 0
M  V30 1933 H 181.437 -1.23299 2.98324 0
M  V30 1934 H 180.489 1.09533 3.64289 0
M  V30 1935 H 181.801 1.22475 4.8353 0
M  V30 1936 H 180.955 -0.816098 6.01186 0
M  V30 1937 H 179.694 -1.03536 4.76583 0
M  V30 1938 H 178.699 1.18951 5.36778 0
M  V30 1939 H 179.924 1.39623 6.64592 0
M  V30 1940 H 177.87 -0.843395 6.50556 0
M  V30 1941 H 177.787 0.544429 7.54037 0
M  V30 1942 H 179.055 -0.622339 7.77012 0
M  V30 1943 N 183.284 -1.43765 0.645699 0
M  V30 1944 C 184.231 -2.30745 -0.0504648 0
M  V30 1945 C 185.201 -1.4432 -0.822241 0
M  V30 1946 O 186.386 -1.73202 -0.800358 0
M  V30 1947 C 183.526 -3.29802 -1.0161 0
M  V30 1948 C 182.639 -4.31326 -0.241219 0
M  V30 1949 C 181.774 -5.17469 -1.19998 0
M  V30 1950 C 180.813 -6.10691 -0.415094 0
M  V30 1951 N 179.95 -6.89483 -1.32506 0
M  V30 1952 H 184.79 -2.8973 0.697155 0
M  V30 1953 H 182.327 -1.42738 0.355563 0
M  V30 1954 H 184.285 -3.85734 -1.58949 0
M  V30 1955 H 182.915 -2.72483 -1.73069 0
M  V30 1956 H 181.967 -3.77749 0.448334 0
M  V30 1957 H 183.279 -4.9743 0.369437 0
M  V30 1958 H 182.433 -5.7799 -1.84424 0
M  V30 1959 H 181.172 -4.51473 -1.84455 0
M  V30 1960 H 180.177 -5.49265 0.242565 0
M  V30 1961 H 181.402 -6.78727 0.224966 0
M  V30 1962 H 179.348 -6.26142 -1.95657 0
M  V30 1963 H 179.265 -7.52081 -0.768783 0
M  V30 1964 H 180.533 -7.54516 -1.9577 0
M  V30 1965 N 184.763 -0.387143 -1.52771 0
M  V30 1966 C 185.726 0.436939 -2.24997 0
M  V30 1967 C 186.726 0.991991 -1.26555 0
M  V30 1968 O 187.916 0.874335 -1.50669 0
M  V30 1969 C 185.048 1.61281 -3.00335 0
M  V30 1970 H 186.241 -0.195365 -2.99263 0
M  V30 1971 H 183.794 -0.139218 -1.55679 0
M  V30 1972 H 184.529 2.2826 -2.30364 0
M  V30 1973 H 184.314 1.22154 -3.72587 0
M  V30 1974 H 185.804 2.19629 -3.5518 0
M  V30 1975 N 186.241 1.57166 -0.116904 0
M  V30 1976 C 187.466 1.999 0.55271 0
M  V30 1977 C 187.891 0.996039 1.59564 0
M  V30 1978 O 187.249 -0.032556 1.81271 0
M  V30 1979 C 187.297 3.4152 1.15742 0
M  V30 1980 O 186.401 3.44106 2.27299 0
M  V30 1981 H 185.742 0.649447 0.138258 0
M  V30 1982 H 188.272 2.03573 -0.204759 0
M  V30 1983 H 188.282 3.79684 1.49346 0
M  V30 1984 H 186.957 4.14034 0.393493 0
M  V30 1985 H 185.534 3.17759 1.9515 0
M  V30 1986 N 187.719 -0.156864 1.56817 0
M  V30 1987 C 188.629 -1.2136 2.00771 0
M  V30 1988 C 189.645 -1.47598 0.921459 0
M  V30 1989 O 190.821 -1.59462 1.2302 0
M  V30 1990 C 187.886 -2.52943 2.37109 0
M  V30 1991 C 186.947 -2.34439 3.59634 0
M  V30 1992 C 186.18 -3.59748 3.94229 0
M  V30 1993 O 186.403 -4.65526 3.29609 0
M  V30 1994 O 185.337 -3.52998 4.8752 0
M  V30 1995 H 189.163 -0.870468 2.90958 0
M  V30 1996 H 186.748 -0.36484 1.44877 0
M  V30 1997 H 188.63 -3.30538 2.61386 0
M  V30 1998 H 187.305 -2.86806 1.5008 0
M  V30 1999 H 186.212 -1.54828 3.40557 0
M  V30 2000 H 187.545 -2.05496 4.4725 0
M  V30 2001 N 189.197 -1.51736 -0.425897 0
M  V30 2002 C 190.107 -1.76738 -1.54275 0
M  V30 2003 C 191.123 -0.65211 -1.61318 0
M  V30 2004 O 192.299 -0.935654 -1.78346 0
M  V30 2005 C 189.364 -1.89755 -2.90162 0
M  V30 2006 C 188.425 -3.13633 -2.93143 0
M  V30 2007 C 187.658 -3.2602 -4.22548 0
M  V30 2008 O 187.881 -2.44067 -5.15546 0
M  V30 2009 O 186.815 -4.19071 -4.32046 0
M  V30 2010 H 190.641 -2.71502 -1.36089 0
M  V30 2011 H 188.226 -1.36376 -0.610069 0
M  V30 2012 H 190.108 -2.00236 -3.70788 0
M  V30 2013 H 188.783 -0.981785 -3.08452 0
M  V30 2014 H 187.69 -3.08622 -2.11431 0
M  V30 2015 H 189.023 -4.04936 -2.798 0
M  V30 2016 N 190.675 0.682077 -1.42076 0
M  V30 2017 C 191.952 1.43755 -1.32642 0
M  V30 2018 C 192.332 2.11063 0.0396611 0
M  V30 2019 O 191.68 2.02701 1.05474 0
M  V30 2020 C 191.89 2.44596 -2.48946 0
M  V30 2021 C 193.238 3.09454 -2.9073 0
M  V30 2022 O 194.262 2.54922 -2.48783 0
M  V30 2023 O 193.121 4.08253 -3.63307 0
M  V30 2024 H 190.215 0.640857 -0.522715 0
M  V30 2025 H 192.761 0.711415 -1.54068 0
M  V30 2026 H 191.533 1.93609 -3.40046 0
M  V30 2027 H 191.156 3.24701 -2.29467 0
M  V30 2028 N 192.153 1.28127 0.917671 0
M  V30 2029 C 193.103 1.08361 2.00604 0
M  V30 2030 C 194.087 0.00847518 1.60898 0
M  V30 2031 O 195.279 0.228167 1.75523 0
M  V30 2032 C 192.408 0.743376 3.35155 0
M  V30 2033 C 191.494 1.85716 3.81275 0
M  V30 2034 N 191.885 3.09822 3.99805 0
M  V30 2035 C 190.183 1.74612 4.10398 0
M  V30 2036 C 190.884 3.82368 4.38372 0
M  V30 2037 N 189.86 3.10192 4.4641 0
M  V30 2038 H 193.662 2.02531 2.12975 0
M  V30 2039 H 191.176 1.18989 1.10523 0
M  V30 2040 H 193.173 0.582859 4.12805 0
M  V30 2041 H 191.833 -0.190595 3.2414 0
M  V30 2042 H 192.844 3.45475 3.85833 0
M  V30 2043 H 189.521 0.883657 4.08041 0
M  V30 2044 H 190.911 4.89082 4.60704 0
M  V30 2045 N 193.631 -1.12557 1.10312 0
M  V30 2046 C 194.859 -1.87864 0.866873 0
M  V30 2047 C 195.274 -1.79588 -0.582557 0
M  V30 2048 O 194.631 -1.16887 -1.40156 0
M  V30 2049 C 194.682 -3.37125 1.30496 0
M  V30 2050 O 194.403 -3.45201 2.69755 0
M  V30 2051 C 195.904 -4.29373 1.10243 0
M  V30 2052 H 193.124 -0.594452 0.311236 0
M  V30 2053 H 195.668 -1.42429 1.46745 0
M  V30 2054 H 193.823 -3.80109 0.748081 0
M  V30 2055 H 194.237 -4.38056 2.88457 0
M  V30 2056 H 195.711 -5.32394 1.45811 0
M  V30 2057 H 196.188 -4.39181 0.0409492 0
M  V30 2058 H 196.794 -3.92169 1.64571 0
M  V30 2059 N 195.109 -0.891671 -1.2995 0
M  V30 2060 C 196.057 -0.353066 -2.29905 0
M  V30 2061 C 197.051 0.543509 -1.60444 0
M  V30 2062 O 198.257 0.4272 -1.74857 0
M  V30 2063 H 194.632 -0.095531 -0.745907 0
M  V30 2064 H 196.603 -1.20961 -2.72784 0
M  V30 2065 C 195.352 0.411475 -3.45257 0
M  V30 2066 H 194.675 -0.269182 -3.98893 0
M  V30 2067 H 196.115 0.753328 -4.17254 0
M  V30 2068 C 194.574 1.6111 -2.9588 0
M  V30 2069 O 195.104 2.71045 -2.96475 0
M  V30 2070 N 193.31 1.45054 -2.51809 0
M  V30 2071 H 192.857 0.556175 -2.51524 0
M  V30 2072 H 192.815 2.25453 -2.1913 0
M  V30 2073 N 196.587 1.43421 -0.653314 0
M  V30 2074 C 197.55 2.29182 0.0287951 0
M  V30 2075 C 198.55 1.42213 0.750465 0
M  V30 2076 O 199.74 1.63843 0.591701 0
M  V30 2077 C 196.872 3.24278 1.05151 0
M  V30 2078 H 198.065 2.90985 -0.725786 0
M  V30 2079 H 195.618 1.50702 -0.414545 0
M  V30 2080 H 196.353 2.6737 1.83532 0
M  V30 2081 H 196.138 3.88396 0.537687 0
M  V30 2082 H 197.628 3.88647 1.52786 0
M  V30 2083 N 198.065 0.39524 1.52563 0
M  V30 2084 C 199.028 -0.425001 2.25225 0
M  V30 2085 C 200.028 -0.985266 1.27079 0
M  V30 2086 O 201.218 -0.866332 1.5113 0
M  V30 2087 C 198.35 -1.59686 3.01186 0
M  V30 2088 H 199.543 0.211233 2.99155 0
M  V30 2089 H 197.096 0.147472 1.55603 0
M  V30 2090 H 197.831 -2.27035 2.31572 0
M  V30 2091 H 197.616 -1.20176 3.73229 0
M  V30 2092 H 199.106 -2.17743 3.5634 0
M  V30 2093 N 199.544 -1.57102 0.125237 0
M  V30 2094 C 200.784 -1.97294 -0.534259 0
M  V30 2095 C 201.148 -1.0074 -1.63449 0
M  V30 2096 O 202.349 -1.29893 -2.35332 0
M  V30 2097 C 200.62 -3.41705 -1.04748 0
M  V30 2098 S 202.179 -4.03913 -1.71463 0
M  V30 2099 H 198.997 -0.689517 -0.173458 0
M  V30 2100 H 201.599 -1.94349 0.211797 0
M  V30 2101 H 200.303 -4.09723 -0.235649 0
M  V30 2102 H 199.834 -3.48315 -1.82867 0
M  V30 2103 H 201.849 -3.95182 -3.00077 0
M  V30 2104 N 201.022 0.148545 -1.56898 0
M  V30 2105 C 202.269 0.861418 -1.83264 0
M  V30 2106 C 202.597 1.81239 -0.705883 0
M  V30 2107 O 201.852 1.93305 0.305212 0
M  V30 2108 C 202.151 1.67064 -3.1595 0
M  V30 2109 C 201.817 0.866591 -4.42494 0
M  V30 2110 C 200.479 0.644762 -4.76861 0
M  V30 2111 C 202.831 0.30418 -5.20312 0
M  V30 2112 C 200.159 -0.15021 -5.86508 0
M  V30 2113 C 202.511 -0.477824 -6.30793 0
M  V30 2114 C 201.175 -0.710244 -6.63711 0
M  V30 2115 H 200.445 0.315215 -0.670612 0
M  V30 2116 H 203.092 0.125142 -1.91091 0
M  V30 2117 H 201.397 2.47698 -3.03567 0
M  V30 2118 H 203.094 2.22566 -3.33565 0
M  V30 2119 H 199.684 1.04955 -4.15551 0
M  V30 2120 H 203.868 0.462844 -4.94137 0
M  V30 2121 H 199.124 -0.339796 -6.10455 0
M  V30 2122 H 203.298 -0.92076 -6.90286 0
M  V30 2123 H 200.925 -1.3281 -7.48509 0
M  V30 2124 N 202.5 1.5196 0.417844 0
M  V30 2125 C 203.463 1.74065 1.49111 0
M  V30 2126 C 204.463 0.610537 1.48758 0
M  V30 2127 O 205.653 0.87832 1.50437 0
M  V30 2128 C 202.785 1.81502 2.88565 0
M  V30 2129 H 203.978 2.69869 1.30807 0
M  V30 2130 H 201.531 1.42244 0.647785 0
M  V30 2131 H 202.266 0.875813 3.1225 0
M  V30 2132 H 202.051 2.63651 2.90225 0
M  V30 2133 H 203.541 2.00376 3.66387 0
M  V30 2134 N 203.978 -0.674533 1.42435 0
M  V30 2135 C 205.218 -1.4466 1.44405 0
M  V30 2136 C 205.582 -1.91911 0.0585784 0
M  V30 2137 O 206.783 -2.68759 -0.0469991 0
M  V30 2138 C 205.054 -2.61136 2.44013 0
M  V30 2139 S 206.613 -3.49981 2.64687 0
M  V30 2140 H 203.431 -0.494074 0.511284 0
M  V30 2141 H 206.033 -0.785162 1.7904 0
M  V30 2142 H 204.737 -2.24662 3.43446 0
M  V30 2143 H 204.268 -3.32153 2.10803 0
M  V30 2144 H 206.283 -4.57124 1.93007 0
M  V30 2145 N 205.456 -1.28612 -0.910864 0
M  V30 2146 C 206.705 -1.15311 -1.65488 0
M  V30 2147 C 207.018 0.296999 -1.93332 0
M  V30 2148 O 208.224 0.551168 -2.65847 0
M  V30 2149 C 206.68 -2.01599 -2.98137 0
M  V30 2150 C 206.288 -3.51367 -2.7793 0
M  V30 2151 C 208.032 -1.96993 -3.76024 0
M  V30 2152 C 205.939 -4.29797 -4.06237 0
M  V30 2153 H 204.869 -0.42796 -0.620779 0
M  V30 2154 H 207.52 -1.53166 -1.01057 0
M  V30 2155 H 205.902 -1.56603 -3.63719 0
M  V30 2156 H 207.076 -4.0434 -2.21011 0
M  V30 2157 H 205.391 -3.57529 -2.13452 0
M  V30 2158 H 207.988 -2.52856 -4.71135 0
M  V30 2159 H 208.331 -0.94733 -4.05378 0
M  V30 2160 H 208.864 -2.39973 -3.17266 0
M  V30 2161 H 205.603 -5.32648 -3.82055 0
M  V30 2162 H 205.123 -3.81596 -4.62757 0
M  V30 2163 H 206.802 -4.39869 -4.74473 0
M  V30 2164 N 206.934 1.1197 -1.10907 0
M  V30 2165 C 207.864 2.19928 -0.784473 0
M  V30 2166 C 208.845 1.6833 0.244726 0
M  V30 2167 O 210.03 1.93892 0.109418 0
M  V30 2168 C 207.16 3.46597 -0.220827 0
M  V30 2169 C 206.114 4.11376 -1.18127 0
M  V30 2170 C 205.44 5.32554 -0.478594 0
M  V30 2171 C 206.74 4.56945 -2.52979 0
M  V30 2172 H 208.434 2.47337 -1.68715 0
M  V30 2173 H 205.98 1.18879 -0.812642 0
M  V30 2174 H 207.933 4.21396 0.0184278 0
M  V30 2175 H 206.657 3.1863 0.717113 0
M  V30 2176 H 205.316 3.38564 -1.40606 0
M  V30 2177 H 204.964 5.00856 0.463976 0
M  V30 2178 H 204.664 5.76844 -1.11912 0
M  V30 2179 H 206.188 6.10096 -0.248 0
M  V30 2180 H 207.602 5.23093 -2.3462 0
M  V30 2181 H 205.999 5.1203 -3.12962 0
M  V30 2182 H 207.069 3.70676 -3.12614 0
M  V30 2183 N 208.412 0.89855 1.29475 0
M  V30 2184 C 209.342 0.39201 2.30186 0
M  V30 2185 C 210.323 -0.532359 1.61555 0
M  V30 2186 O 211.508 -0.443331 1.89072 0
M  V30 2187 C 208.638 -0.382353 3.45189 0
M  V30 2188 C 207.592 0.451483 4.25612 0
M  V30 2189 C 206.918 -0.450307 5.328 0
M  V30 2190 C 208.218 1.70079 4.93832 0
M  V30 2191 H 209.912 1.23362 2.72804 0
M  V30 2192 H 207.458 0.594638 1.31149 0
M  V30 2193 H 209.411 -0.747451 4.14718 0
M  V30 2194 H 208.135 -1.25774 3.01411 0
M  V30 2195 H 206.794 0.798897 3.57789 0
M  V30 2196 H 206.442 -1.32379 4.85268 0
M  V30 2197 H 206.142 0.103902 5.87508 0
M  V30 2198 H 207.666 -0.811623 6.05182 0
M  V30 2199 H 209.08 1.40549 5.55805 0
M  V30 2200 H 207.477 2.19623 5.58467 0
M  V30 2201 H 208.547 2.43744 4.19186 0
M  V30 2202 N 209.89 -1.43072 0.660911 0
M  V30 2203 C 211.115 -2.06584 0.183805 0
M  V30 2204 C 211.54 -1.49257 -1.14472 0
M  V30 2205 O 210.898 -0.605528 -1.70889 0
M  V30 2206 C 210.946 -3.60418 0.114434 0
M  V30 2207 O 210.05 -4.01981 -0.921137 0
M  V30 2208 H 209.391 -0.656669 0.0983994 0
M  V30 2209 H 211.921 -1.83447 0.906006 0
M  V30 2210 H 211.931 -4.07946 -0.0663394 0
M  V30 2211 H 210.606 -4.01519 1.08422 0
M  V30 2212 H 209.183 -3.66029 -0.71253 0
M  V30 2213 N 211.368 -0.403325 -1.52352 0
M  V30 2214 C 212.318 0.442244 -2.2367 0
M  V30 2215 C 213.302 1.01823 -1.24583 0
M  V30 2216 O 214.494 0.942005 -1.49851 0
M  V30 2217 C 211.623 1.5615 -3.05732 0
M  V30 2218 C 210.709 0.996575 -4.12225 0
M  V30 2219 N 211.1 0.157804 -5.05554 0
M  V30 2220 C 209.398 1.26767 -4.27605 0
M  V30 2221 C 210.099 -0.155853 -5.81491 0
M  V30 2222 N 209.075 0.451775 -5.41719 0
M  V30 2223 H 212.877 -0.204964 -2.93184 0
M  V30 2224 H 210.391 -0.213418 -1.60992 0
M  V30 2225 H 212.388 2.17981 -3.55373 0
M  V30 2226 H 211.048 2.21139 -2.37755 0
M  V30 2227 H 212.059 -0.206049 -5.1749 0
M  V30 2228 H 208.736 1.91757 -3.70858 0
M  V30 2229 H 210.126 -0.836329 -6.66675 0
M  V30 2230 N 212.846 1.57033 -0.133567 0
M  V30 2231 C 214.094 1.953 0.519848 0
M  V30 2232 C 214.415 1.01866 1.66278 0
M  V30 2233 O 213.685 0.0776513 1.95746 0
M  V30 2234 H 212.265 0.721091 0.195032 0
M  V30 2235 H 214.927 1.93809 -0.205921 0
M  V30 2236 H 214.023 2.98695 0.904854 0
M  V30 2237 N 214.325 -0.140222 1.56975 0
M  V30 2238 C 215.235 -1.19223 2.02047 0
M  V30 2239 C 216.251 -1.46612 0.937062 0
M  V30 2240 O 217.427 -1.58148 1.24704 0
M  V30 2241 C 214.492 -2.50414 2.39778 0
M  V30 2242 C 213.553 -2.30612 3.621 0
M  V30 2243 C 212.786 -3.55547 3.98023 0
M  V30 2244 O 213.009 -4.62004 3.34528 0
M  V30 2245 O 211.943 -3.47808 4.91237 0
M  V30 2246 H 215.769 -0.839559 2.91865 0
M  V30 2247 H 213.354 -0.349453 1.45256 0
M  V30 2248 H 215.236 -3.27747 2.64877 0
M  V30 2249 H 213.911 -2.85198 1.53114 0
M  V30 2250 H 212.818 -1.51207 3.4218 0
M  V30 2251 H 214.151 -2.00741 4.49404 0
M  V30 2252 N 215.803 -1.52179 -0.40978 0
M  V30 2253 C 216.713 -1.78364 -1.52392 0
M  V30 2254 C 217.729 -0.669183 -1.60617 0
M  V30 2255 O 218.905 -0.954518 -1.77344 0
M  V30 2256 C 215.97 -1.92822 -2.88133 0
M  V30 2257 C 215.031 -3.16725 -2.898 0
M  V30 2258 C 214.264 -3.30483 -4.19067 0
M  V30 2259 O 214.487 -2.49522 -5.12928 0
M  V30 2260 O 213.421 -4.2363 -4.27576 0
M  V30 2261 H 217.247 -2.72931 -1.33201 0
M  V30 2262 H 214.832 -1.37016 -0.59557 0
M  V30 2263 H 216.714 -2.04157 -3.68643 0
M  V30 2264 H 215.389 -1.01444 -3.07393 0
M  V30 2265 H 214.296 -3.10848 -2.08146 0
M  V30 2266 H 215.629 -4.07881 -2.75489 0
M  V30 2267 N 217.281 0.66697 -1.42791 0
M  V30 2268 C 218.229 1.80157 -1.47127 0
M  V30 2269 C 219.223 1.65825 -0.346199 0
M  V30 2270 O 220.429 1.72338 -0.519572 0
M  V30 2271 H 216.804 0.594158 -0.460956 0
M  V30 2272 H 218.775 1.73619 -2.42692 0
M  V30 2273 C 217.524 3.18351 -1.39813 0
M  V30 2274 H 216.847 3.3001 -2.25684 0
M  V30 2275 H 218.287 3.97736 -1.46908 0
M  V30 2276 C 216.746 3.36707 -0.11391 0
M  V30 2277 O 217.276 3.93027 0.830241 0
M  V30 2278 N 215.482 2.90586 -0.0285295 0
M  V30 2279 H 215.029 2.4494 -0.79764 0
M  V30 2280 H 214.987 3.03245 0.830063 0
M  V30 2281 N 218.759 1.29093 0.90403 0
M  V30 2282 C 220.005 1.16986 1.65656 0
M  V30 2283 C 220.338 -0.278925 1.92186 0
M  V30 2284 O 219.613 -1.2019 1.5292 0
M  V30 2285 C 219.896 1.97908 3.0084 0
M  V30 2286 C 219.749 3.50903 2.81403 0
M  V30 2287 C 221.068 1.80208 4.01513 0
M  V30 2288 H 218.187 0.426346 0.601164 0
M  V30 2289 H 220.829 1.58518 1.04747 0
M  V30 2290 H 218.979 1.62616 3.52829 0
M  V30 2291 H 220.651 3.96153 2.36348 0
M  V30 2292 H 218.894 3.76045 2.1627 0
M  V30 2293 H 219.565 4.02791 3.77443 0
M  V30 2294 H 222.041 2.11025 3.58619 0
M  V30 2295 H 220.917 2.39184 4.94047 0
M  V30 2296 H 221.178 0.756119 4.35586 0
M  V30 2297 N 220.237 -1.11381 1.11499 0
M  V30 2298 C 221.486 -1.82494 0.858993 0
M  V30 2299 C 221.799 -1.85605 -0.617278 0
M  V30 2300 O 223.005 -2.52824 -0.989552 0
M  V30 2301 C 221.461 -3.27745 1.48699 0
M  V30 2302 C 221.069 -3.32961 2.99735 0
M  V30 2303 C 222.813 -4.03754 1.31085 0
M  V30 2304 C 220.72 -4.72612 3.55516 0
M  V30 2305 H 219.65 -0.683802 0.317696 0
M  V30 2306 H 222.301 -1.25331 1.34031 0
M  V30 2307 H 220.683 -3.84844 0.933339 0
M  V30 2308 H 221.857 -2.85741 3.61509 0
M  V30 2309 H 220.172 -2.70433 3.16631 0
M  V30 2310 H 222.769 -5.06891 1.70192 0
M  V30 2311 H 223.112 -4.15527 0.253496 0
M  V30 2312 H 223.645 -3.53043 1.83318 0
M  V30 2313 H 220.384 -4.66036 4.60967 0
M  V30 2314 H 219.904 -5.2024 2.98513 0
M  V30 2315 H 221.583 -5.4157 3.53992 0
M  V30 2316 N 221.715 -0.905404 -1.28997 0
M  V30 2317 C 222.945 -0.549049 -1.99171 0
M  V30 2318 C 223.353 0.87203 -1.67906 0
M  V30 2319 O 222.696 1.58796 -0.923561 0
M  V30 2320 C 222.758 -0.668306 -3.53234 0
M  V30 2321 C 222.422 -2.0574 -4.08069 0
M  V30 2322 C 223.419 -3.0292 -4.22534 0
M  V30 2323 C 221.104 -2.36833 -4.42962 0
M  V30 2324 C 223.098 -4.29314 -4.71135 0
M  V30 2325 C 220.785 -3.63467 -4.91258 0
M  V30 2326 C 221.783 -4.59522 -5.053 0
M  V30 2327 O 221.471 -5.83907 -5.52546 0
M  V30 2328 H 221.203 -0.208784 -0.64295 0
M  V30 2329 H 223.757 -1.21836 -1.65363 0
M  V30 2330 H 221.987 0.0580547 -3.86656 0
M  V30 2331 H 223.676 -0.320273 -4.04634 0
M  V30 2332 H 224.442 -2.80216 -3.95859 0
M  V30 2333 H 220.321 -1.62824 -4.31288 0
M  V30 2334 H 223.865 -5.04293 -4.8201 0
M  V30 2335 H 219.762 -3.86 -5.17372 0
M  V30 2336 H 220.53 -5.86578 -5.70849 0
M  V30 2337 N 223.193 1.4272 -0.668489 0
M  V30 2338 C 224.441 2.01226 -0.187769 0
M  V30 2339 C 224.762 1.53092 1.2078 0
M  V30 2340 O 224.032 0.74993 1.80977 0
M  V30 2341 H 222.612 0.744041 -0.0664272 0
M  V30 2342 H 225.274 1.74723 -0.863583 0
M  V30 2343 H 224.37 3.11556 -0.184166 0
M  V30 2344 N 224.671 0.411399 1.52136 0
M  V30 2345 C 225.618 -0.412975 2.27075 0
M  V30 2346 C 226.588 -1.03912 1.29582 0
M  V30 2347 O 227.773 -1.06296 1.58448 0
M  V30 2348 C 224.913 -1.52247 3.09701 0
M  V30 2349 C 224.026 -0.917021 4.22155 0
M  V30 2350 C 223.161 -1.9994 4.92135 0
M  V30 2351 C 222.2 -1.37101 5.96548 0
M  V30 2352 N 221.337 -2.39364 6.60038 0
M  V30 2353 H 226.177 0.232499 2.97092 0
M  V30 2354 H 223.714 0.126496 1.46555 0
M  V30 2355 H 225.672 -2.17674 3.55913 0
M  V30 2356 H 224.302 -2.13794 2.41851 0
M  V30 2357 H 223.354 -0.151742 3.80097 0
M  V30 2358 H 224.666 -0.418006 4.97045 0
M  V30 2359 H 223.82 -2.73088 5.41763 0
M  V30 2360 H 222.559 -2.53208 4.16818 0
M  V30 2361 H 221.564 -0.624873 5.46237 0
M  V30 2362 H 222.789 -0.845998 6.7381 0
M  V30 2363 H 220.735 -2.91759 5.87548 0
M  V30 2364 H 220.652 -1.9428 7.3061 0
M  V30 2365 H 221.92 -3.12074 7.14304 0
M  V30 2366 N 226.149 -1.5696 0.141893 0
M  V30 2367 C 227.426 -1.87553 -0.555281 0
M  V30 2368 C 227.806 -1.04699 -1.83306 0
M  V30 2369 O 227.154 -0.132346 -2.28116 0
M  V30 2370 C 227.364 -3.39093 -0.825664 0
M  V30 2371 C 228.712 -4.08199 -1.16869 0
M  V30 2372 O 229.736 -3.44242 -0.915185 0
M  V30 2373 O 228.595 -5.21139 -1.6455 0
M  V30 2374 H 225.689 -0.777188 -0.282679 0
M  V30 2375 H 228.235 -1.68763 0.17812 0
M  V30 2376 H 227.007 -3.91221 0.0788633 0
M  V30 2377 H 226.63 -3.63393 -1.61343 0
M  V30 2378 N 227.627 0.131896 -1.57047 0
M  V30 2379 C 228.875 0.840269 -1.83804 0
M  V30 2380 C 229.196 1.81017 -0.72512 0
M  V30 2381 O 228.466 1.94272 0.251995 0
M  V30 2382 H 227.046 0.313294 -0.678127 0
M  V30 2383 H 229.708 0.122294 -1.94516 0
M  V30 2384 H 228.804 1.39335 -2.79271 0
M  V30 2385 N 229.106 1.52395 0.401703 0
M  V30 2386 C 230.352 1.67065 1.14966 0
M  V30 2387 C 230.685 0.403052 1.89971 0
M  V30 2388 O 229.96 -0.598774 1.85054 0
M  V30 2389 C 230.243 2.8975 2.13815 0
M  V30 2390 C 230.096 4.26578 1.42658 0
M  V30 2391 C 231.415 3.07965 3.14397 0
M  V30 2392 H 228.534 0.607968 0.416587 0
M  V30 2393 H 231.176 1.84965 0.434511 0
M  V30 2394 H 229.326 2.74619 2.74803 0
M  V30 2395 H 230.998 4.53451 0.847329 0
M  V30 2396 H 229.241 4.27639 0.72849 0
M  V30 2397 H 229.912 5.08483 2.14823 0
M  V30 2398 H 232.388 3.22043 2.63491 0
M  V30 2399 H 231.264 3.95308 3.80819 0
M  V30 2400 H 231.525 2.21611 3.82545 0
M  V30 2401 N 230.584 -0.659388 1.43143 0
M  V30 2402 C 231.812 -1.44723 1.47861 0
M  V30 2403 C 232.227 -1.88563 0.0945886 0
M  V30 2404 O 231.584 -1.59108 -0.893915 0
M  V30 2405 C 231.635 -2.68627 2.41913 0
M  V30 2406 O 231.356 -2.26623 3.74932 0
M  V30 2407 C 232.857 -3.62045 2.55809 0
M  V30 2408 H 230.077 -0.444801 0.502387 0
M  V30 2409 H 232.621 -0.808916 1.87821 0
M  V30 2410 H 230.776 -3.28613 2.05164 0
M  V30 2411 H 231.19 -3.06745 4.2545 0
M  V30 2412 H 232.664 -4.45666 3.25708 0
M  V30 2413 H 233.141 -4.08981 1.60099 0
M  V30 2414 H 233.747 -3.07944 2.93344 0
M  V30 2415 N 232.062 -1.29571 -0.897171 0
M  V30 2416 C 233.473 -1.15964 -1.46319 0
M  V30 2417 C 233.824 0.244267 -1.94674 0
M  V30 2418 O 232.949 1.13998 -1.83939 0
M  V30 2419 C 233.544 -2.09906 -2.65942 0
M  V30 2420 C 232.103 -2.00314 -3.18671 0
M  V30 2421 C 231.25 -2.00687 -1.91363 0
M  V30 2422 H 234.201 -1.42019 -0.708268 0
M  V30 2423 H 234.222 -1.67276 -3.41759 0
M  V30 2424 H 233.734 -3.12075 -2.30718 0
M  V30 2425 H 231.835 -1.01242 -3.58582 0
M  V30 2426 H 231.948 -2.88102 -3.82798 0
M  V30 2427 H 230.312 -1.45319 -2.09175 0
M  V30 2428 H 231.095 -3.04566 -1.58413 0
M  V30 2429 N 233.54 1.10788 -1.12088 0
M  V30 2430 C 234.789 1.82036 -0.868659 0
M  V30 2431 C 235.102 1.85929 0.607426 0
M  V30 2432 O 236.308 2.53346 0.97613 0
M  V30 2433 C 234.764 3.26951 -1.50435 0
M  V30 2434 C 234.372 3.31367 -3.01496 0
M  V30 2435 C 236.116 4.03053 -1.33225 0
M  V30 2436 C 234.023 4.7072 -3.58017 0
M  V30 2437 H 232.953 0.682108 -0.321318 0
M  V30 2438 H 235.604 1.24618 -1.34694 0
M  V30 2439 H 233.986 3.84343 -0.953735 0
M  V30 2440 H 235.16 2.83819 -3.6302 0
M  V30 2441 H 233.475 2.6875 -3.18061 0
M  V30 2442 H 236.072 5.05981 -1.72878 0
M  V30 2443 H 236.415 4.15387 -0.275529 0
M  V30 2444 H 236.948 3.52066 -1.85188 0
M  V30 2445 H 233.687 4.63585 -4.63432 0
M  V30 2446 H 233.207 5.1865 -3.01268 0
M  V30 2447 H 234.886 5.39685 -3.56859 0
M  V30 2448 N 235.018 0.912232 1.28515 0
M  V30 2449 C 235.965 0.397954 2.27343 0
M  V30 2450 C 236.935 -0.526766 1.57526 0
M  V30 2451 O 238.12 -0.449292 1.85435 0
M  V30 2452 C 235.26 -0.357263 3.43246 0
M  V30 2453 C 234.373 0.599788 4.27816 0
M  V30 2454 C 233.508 -0.173725 5.30916 0
M  V30 2455 C 232.547 0.777039 6.07148 0
M  V30 2456 N 231.684 0.0371398 7.0209 0
M  V30 2457 H 236.524 1.24577 2.70711 0
M  V30 2458 H 234.061 0.625612 1.33133 0
M  V30 2459 H 236.019 -0.8113 4.09236 0
M  V30 2460 H 234.649 -1.16943 3.00872 0
M  V30 2461 H 233.701 1.17235 3.61884 0
M  V30 2462 H 235.013 1.32704 4.80823 0
M  V30 2463 H 234.167 -0.688394 6.02782 0
M  V30 2464 H 232.906 -0.934041 4.78672 0
M  V30 2465 H 231.911 1.3031 5.34134 0
M  V30 2466 H 233.136 1.53689 6.61481 0
M  V30 2467 H 231.082 -0.705213 6.52198 0
M  V30 2468 H 230.999 0.704249 7.52713 0
M  V30 2469 H 232.267 -0.457383 7.78157 0
M  V30 2470 N 236.496 -1.42363 0.676048 0
M  V30 2471 C 237.773 -1.95183 0.127726 0
M  V30 2472 C 238.153 -1.61641 -1.35777 0
M  V30 2473 O 237.501 -0.913216 -2.09458 0
M  V30 2474 C 237.711 -3.46721 0.398199 0
M  V30 2475 C 239.059 -4.23427 0.315383 0
M  V30 2476 O 240.083 -3.54649 0.332016 0
M  V30 2477 O 238.942 -5.45888 0.25865 0
M  V30 2478 H 236.036 -0.826992 0.00359427 0
M  V30 2479 H 238.582 -1.52184 0.750864 0
M  V30 2480 H 237.354 -3.64344 1.4272 0
M  V30 2481 H 236.977 -3.96769 -0.256885 0
M  V30 2482 N 237.974 -0.419461 -1.51915 0
M  V30 2483 C 238.904 0.391813 -2.30189 0
M  V30 2484 C 239.885 1.03699 -1.34836 0
M  V30 2485 O 241.07 1.04403 -1.63748 0
M  V30 2486 C 238.2 1.50312 -3.13087 0
M  V30 2487 C 237.154 0.9824 -4.16573 0
M  V30 2488 C 236.48 2.18809 -4.8788 0
M  V30 2489 C 237.78 0.0292356 -5.22292 0
M  V30 2490 H 239.474 -0.26135 -2.98257 0
M  V30 2491 H 237.02 -0.127134 -1.43438 0
M  V30 2492 H 238.973 2.07773 -3.66617 0
M  V30 2493 H 237.697 2.18431 -2.42807 0
M  V30 2494 H 236.356 0.430119 -3.64068 0
M  V30 2495 H 236.004 2.85507 -4.14119 0
M  V30 2496 H 235.704 1.84615 -5.57845 0
M  V30 2497 H 237.228 2.76858 -5.44226 0
M  V30 2498 H 238.642 0.512976 -5.71 0
M  V30 2499 H 237.039 -0.2244 -5.9968 0
M  V30 2500 H 238.109 -0.912931 -4.76228 0
M  V30 2501 N 239.452 1.56882 -0.150215 0
M  V30 2502 C 240.68 2.00593 0.506948 0
M  V30 2503 C 241.095 1.03033 1.58208 0
M  V30 2504 O 240.452 0.0278396 1.82479 0
M  V30 2505 C 240.503 3.44209 1.10465 0
M  V30 2506 O 240.224 4.3804 0.0724636 0
M  V30 2507 C 241.725 4.03214 1.84211 0
M  V30 2508 H 238.945 0.65795 0.13169 0
M  V30 2509 H 241.489 2.03018 -0.245743 0
M  V30 2510 H 239.644 3.42625 1.80795 0
M  V30 2511 H 240.058 5.22007 0.510793 0
M  V30 2512 H 241.532 5.0569 2.21318 0
M  V30 2513 H 242.009 3.44107 2.72923 0
M  V30 2514 H 242.615 4.08437 1.18572 0
M  V30 2515 N 240.93 -0.123565 1.57115 0
M  V30 2516 C 241.893 -1.13583 1.99076 0
M  V30 2517 C 242.893 -1.34564 0.880296 0
M  V30 2518 O 244.083 -1.31158 1.14644 0
M  V30 2519 C 241.215 -2.49128 2.32698 0
M  V30 2520 H 242.408 -0.775287 2.89706 0
M  V30 2521 H 239.961 -0.36771 1.51913 0
M  V30 2522 H 240.696 -2.90111 1.44934 0
M  V30 2523 H 240.481 -2.35255 3.13684 0
M  V30 2524 H 241.971 -3.2199 2.65918 0
M  V30 2525 N 242.408 -1.52605 -0.393616 0
M  V30 2526 C 243.358 -1.73436 -1.48 0
M  V30 2527 C 244.342 -0.588386 -1.49756 0
M  V30 2528 O 245.534 -0.846047 -1.5547 0
M  V30 2529 C 242.663 -1.90247 -2.85764 0
M  V30 2530 C 241.749 -3.10763 -2.88595 0
M  V30 2531 N 242.14 -4.33196 -2.61103 0
M  V30 2532 C 240.438 -3.10914 -3.19763 0
M  V30 2533 C 241.139 -5.1477 -2.70899 0
M  V30 2534 N 240.115 -4.50356 -3.04435 0
M  V30 2535 H 243.917 -2.65727 -1.25563 0
M  V30 2536 H 241.431 -1.5085 -0.601513 0
M  V30 2537 H 243.428 -2.03291 -3.63976 0
M  V30 2538 H 242.088 -0.991663 -3.09186 0
M  V30 2539 H 243.099 -4.61408 -2.35209 0
M  V30 2540 H 239.776 -2.29626 -3.4868 0
M  V30 2541 H 241.166 -6.22355 -2.53227 0
M  V30 2542 N 243.887 0.651787 -1.4349 0
M  V30 2543 C 245.134 1.41167 -1.45183 0
M  V30 2544 C 245.462 1.94349 -0.0766601 0
M  V30 2545 O 244.717 1.72804 0.918555 0
M  V30 2546 C 245.016 2.60914 -2.44251 0
M  V30 2547 C 244.682 2.26142 -3.9009 0
M  V30 2548 C 243.344 2.16371 -4.2981 0
M  V30 2549 C 245.696 1.98334 -4.81989 0
M  V30 2550 C 243.024 1.7695 -5.5938 0
M  V30 2551 C 245.376 1.6041 -6.11924 0
M  V30 2552 C 244.04 1.49166 -6.5062 0
M  V30 2553 H 243.31 0.516566 -0.531263 0
M  V30 2554 H 245.957 0.741099 -1.76579 0
M  V30 2555 H 244.262 3.3311 -2.06265 0
M  V30 2556 H 245.959 3.19127 -2.42815 0
M  V30 2557 H 242.549 2.34658 -3.58655 0
M  V30 2558 H 246.733 2.04803 -4.52072 0
M  V30 2559 H 241.989 1.66831 -5.88198 0
M  V30 2560 H 246.163 1.37925 -6.82605 0
M  V30 2561 H 243.79 1.1839 -7.50925 0
M  V30 2562 N 245.365 1.30045 0.890287 0
M  V30 2563 C 246.781 1.08261 1.17268 0
M  V30 2564 C 246.981 -0.160063 2.00863 0
M  V30 2565 O 246.037 -0.855181 2.37577 0
M  V30 2566 C 247.35 2.34323 1.8845 0
M  V30 2567 C 248.898 2.39735 2.01237 0
M  V30 2568 C 249.373 3.65625 2.7583 0
M  V30 2569 N 250.864 3.66402 2.83379 0
M  V30 2570 C 251.599 4.60498 3.41657 0
M  V30 2571 N 251.095 5.64933 4.01026 0
M  V30 2572 N 252.888 4.48051 3.39421 0
M  V30 2573 H 245.039 2.09777 0.332762 0
M  V30 2574 H 247.302 0.92446 0.209948 0
M  V30 2575 H 247.008 3.2498 1.34465 0
M  V30 2576 H 246.882 2.4256 2.88867 0
M  V30 2577 H 249.269 1.4956 2.54393 0
M  V30 2578 H 249.35 2.35476 0.999232 0
M  V30 2579 H 248.994 4.56156 2.23347 0
M  V30 2580 H 248.924 3.67144 3.77509 0
M  V30 2581 H 251.415 2.90896 2.41222 0
M  V30 2582 H 251.728 6.32841 4.43545 0
M  V30 2583 H 250.073 5.68732 3.99461 0
M  V30 2584 H 253.264 3.65649 2.92264 0
M  V30 2585 H 253.437 5.21565 3.84544 0
M  V30 2586 N 246.843 -1.10192 1.12674 0
M  V30 2587 C 248.091 -1.81845 0.881861 0
M  V30 2588 C 248.412 -1.85737 -0.593867 0
M  V30 2589 O 247.682 -1.33724 -1.4316 0
M  V30 2590 H 246.262 -0.673432 0.323261 0
M  V30 2591 H 248.924 -1.33316 1.42172 0
M  V30 2592 H 248.02 -2.85288 1.2656 0
M  V30 2593 N 248.321 -0.919034 -1.28029 0
M  V30 2594 C 249.598 -0.473668 -1.89778 0
M  V30 2595 C 249.978 1.04783 -1.83259 0
M  V30 2596 O 249.326 1.8982 -1.27202 0
M  V30 2597 C 249.536 -1.00998 -3.34066 0
M  V30 2598 C 250.884 -1.06525 -4.1102 0
M  V30 2599 O 251.908 -0.958996 -3.43048 0
M  V30 2600 O 250.767 -1.22776 -5.3253 0
M  V30 2601 H 247.861 -0.15098 -0.813101 0
M  V30 2602 H 250.407 -1.01016 -1.36359 0
M  V30 2603 H 249.179 -2.05392 -3.33061 0
M  V30 2604 H 248.802 -0.454626 -3.94992 0
M  V30 2605 N 249.799 1.42003 -0.683588 0
M  V30 2606 C 251.215 1.55625 -0.353976 0
M  V30 2607 C 251.415 1.66151 1.14 0
M  V30 2608 O 250.471 1.63329 1.92561 0
M  V30 2609 C 251.784 2.80171 -1.092 0
M  V30 2610 C 253.332 2.93954 -1.07518 0
M  V30 2611 C 253.807 4.21372 -1.79471 0
M  V30 2612 N 255.298 4.28303 -1.76381 0
M  V30 2613 C 256.033 5.25729 -2.28904 0
M  V30 2614 N 255.529 6.29254 -2.89846 0
M  V30 2615 N 257.322 5.17586 -2.19228 0
M  V30 2616 H 249.473 1.33415 -1.6527 0
M  V30 2617 H 251.736 0.64282 -0.696769 0
M  V30 2618 H 251.442 2.78561 -2.14701 0
M  V30 2619 H 251.316 3.7133 -0.662862 0
M  V30 2620 H 253.703 2.95086 -0.028475 0
M  V30 2621 H 253.784 2.04002 -1.54328 0
M  V30 2622 H 253.428 4.21001 -2.84114 0
M  V30 2623 H 253.358 5.10275 -1.30104 0
M  V30 2624 H 255.849 3.54119 -1.31939 0
M  V30 2625 H 256.162 6.99964 -3.27522 0
M  V30 2626 H 254.507 6.29791 -2.93919 0
M  V30 2627 H 257.698 4.35631 -1.71299 0
M  V30 2628 H 257.871 5.93348 -2.60466 0
M  V30 2629 N 251.277 0.427512 1.51691 0
M  V30 2630 C 252.517 -0.141524 2.03909 0
M  V30 2631 C 252.881 -1.40811 1.30523 0
M  V30 2632 O 254.082 -2.05676 1.73063 0
M  V30 2633 C 252.353 -0.364962 3.55532 0
M  V30 2634 S 253.912 -0.898812 4.29496 0
M  V30 2635 H 250.73 -0.0364542 0.710065 0
M  V30 2636 H 253.332 0.584659 1.86553 0
M  V30 2637 H 252.036 0.56336 4.06515 0
M  V30 2638 H 251.567 -1.1185 3.77164 0
M  V30 2639 H 253.582 -2.17747 4.45871 0
M  V30 2640 N 252.755 -1.56801 0.158532 0
M  V30 2641 C 253.702 -2.17337 -0.776729 0
M  V30 2642 C 254.672 -1.1096 -1.23601 0
M  V30 2643 O 255.857 -1.39054 -1.30647 0
M  V30 2644 C 252.997 -2.80822 -2.00582 0
M  V30 2645 C 252.11 -4.01624 -1.59129 0
M  V30 2646 C 251.245 -4.53072 -2.77306 0
M  V30 2647 C 250.284 -5.66314 -2.32282 0
M  V30 2648 N 249.421 -6.12329 -3.43508 0
M  V30 2649 H 254.261 -2.96918 -0.253701 0
M  V30 2650 H 251.798 -1.46661 -0.113504 0
M  V30 2651 H 253.756 -3.15779 -2.72652 0
M  V30 2652 H 252.386 -2.03866 -2.50277 0
M  V30 2653 H 251.438 -3.72571 -0.767806 0
M  V30 2654 H 252.75 -4.83633 -1.2207 0
M  V30 2655 H 251.904 -4.90145 -3.57551 0
M  V30 2656 H 250.643 -3.70095 -3.17617 0
M  V30 2657 H 249.648 -5.28806 -1.5048 0
M  V30 2658 H 250.873 -6.51085 -1.93043 0
M  V30 2659 H 248.819 -5.32284 -3.83418 0
M  V30 2660 H 248.736 -6.89293 -3.105 0
M  V30 2661 H 250.004 -6.5405 -4.24075 0
M  V30 2662 N 254.233 0.115231 -1.57178 0
M  V30 2663 C 255.461 0.836437 -1.89239 0
M  V30 2664 C 255.876 1.73256 -0.750175 0
M  V30 2665 O 255.233 1.80357 0.278832 0
M  V30 2666 C 255.284 1.66671 -3.20785 0
M  V30 2667 O 255.005 0.806652 -4.3061 0
M  V30 2668 C 256.506 2.49274 -3.66575 0
M  V30 2669 H 253.726 0.240253 -0.626514 0
M  V30 2670 H 256.27 0.0984932 -2.04263 0
M  V30 2671 H 254.425 2.35737 -3.0742 0
M  V30 2672 H 254.839 1.37969 -5.06028 0
M  V30 2673 H 256.313 3.03055 -4.6137 0
M  V30 2674 H 256.79 3.26807 -2.93417 0
M  V30 2675 H 257.396 1.85443 -3.82741 0
M  V30 2676 N 255.711 1.52812 0.385517 0
M  V30 2677 C 256.641 1.80808 1.47752 0
M  V30 2678 C 257.622 0.660318 1.5676 0
M  V30 2679 O 258.807 0.908246 1.71652 0
M  V30 2680 C 255.937 1.98008 2.85324 0
M  V30 2681 C 254.891 3.13709 2.91154 0
M  V30 2682 C 254.217 3.16169 4.31209 0
M  V30 2683 C 255.517 4.52709 2.60483 0
M  V30 2684 H 257.211 2.72253 1.24573 0
M  V30 2685 H 254.757 1.31003 0.597839 0
M  V30 2686 H 256.71 2.16176 3.61726 0
M  V30 2687 H 255.434 1.03255 3.09848 0
M  V30 2688 H 254.093 2.95329 2.17201 0
M  V30 2689 H 253.741 2.19092 4.52778 0
M  V30 2690 H 253.441 3.93894 4.36029 0
M  V30 2691 H 254.965 3.36496 5.09512 0
M  V30 2692 H 256.379 4.71173 3.26602 0
M  V30 2693 H 254.776 5.32528 2.76648 0
M  V30 2694 H 255.846 4.59186 1.55809 0
M  V30 2695 N 257.189 -0.644168 1.43834 0
M  V30 2696 C 258.119 -1.76814 1.52509 0
M  V30 2697 C 259.1 -1.65823 0.379052 0
M  V30 2698 O 260.285 -1.84781 0.597466 0
M  V30 2699 C 257.415 -3.15288 1.4564 0
M  V30 2700 C 256.369 -3.41053 2.58586 0
M  V30 2701 C 255.695 -4.79421 2.36769 0
M  V30 2702 C 256.995 -3.34902 4.00797 0
M  V30 2703 H 258.689 -1.69812 2.46586 0
M  V30 2704 H 256.235 -0.815542 1.1868 0
M  V30 2705 H 258.188 -3.93681 1.50311 0
M  V30 2706 H 256.912 -3.23043 0.480725 0
M  V30 2707 H 255.571 -2.65035 2.53282 0
M  V30 2708 H 255.219 -4.83863 1.37424 0
M  V30 2709 H 254.919 -4.9762 3.12487 0
M  V30 2710 H 256.443 -5.6006 2.43238 0
M  V30 2711 H 257.857 -4.03218 4.07539 0
M  V30 2712 H 256.254 -3.64637 4.76613 0
M  V30 2713 H 257.324 -2.32928 4.25291 0
M  V30 2714 N 258.668 -1.30515 -0.883378 0
M  V30 2715 C 259.578 -1.18959 -2.02203 0
M  V30 2716 C 260.594 -0.109172 -1.73657 0
M  V30 2717 O 261.77 -0.324413 -1.9877 0
M  V30 2718 C 258.835 -0.883871 -3.35244 0
M  V30 2719 C 257.896 -2.04982 -3.77201 0
M  V30 2720 C 257.129 -1.75859 -5.03894 0
M  V30 2721 O 257.352 -0.687276 -5.66244 0
M  V30 2722 O 256.286 -2.61146 -5.42297 0
M  V30 2723 H 260.112 -2.14616 -2.1488 0
M  V30 2724 H 257.697 -1.10124 -1.0096 0
M  V30 2725 H 259.579 -0.728644 -4.15053 0
M  V30 2726 H 258.254 0.0427798 -3.23672 0
M  V30 2727 H 257.161 -2.26038 -2.9809 0
M  V30 2728 H 258.494 -2.95825 -3.93381 0
M  V30 2729 N 260.146 1.09593 -1.13257 0
M  V30 2730 C 261.093 2.1618 -0.808381 0
M  V30 2731 C 262.063 1.64517 0.228754 0
M  V30 2732 O 263.248 1.9053 0.101381 0
M  V30 2733 C 260.388 3.43973 -0.278675 0
M  V30 2734 C 259.501 4.09545 -1.37466 0
M  V30 2735 C 258.636 5.25088 -0.803479 0
M  V30 2736 C 257.675 5.82579 -1.87799 0
M  V30 2737 N 256.812 6.89486 -1.32488 0
M  V30 2738 H 261.652 2.43254 -1.72138 0
M  V30 2739 H 259.189 1.19392 -0.859294 0
M  V30 2740 H 261.147 4.17174 0.0465583 0
M  V30 2741 H 259.777 3.17223 0.597459 0
M  V30 2742 H 258.829 3.34226 -1.81652 0
M  V30 2743 H 260.141 4.48307 -2.18684 0
M  V30 2744 H 259.295 6.05178 -0.429427 0
M  V30 2745 H 258.034 4.87684 0.0397956 0
M  V30 2746 H 257.039 5.01152 -2.26113 0
M  V30 2747 H 258.264 6.22045 -2.72463 0
M  V30 2748 H 256.21 6.54064 -0.503575 0
M  V30 2749 H 256.127 7.27007 -2.07355 0
M  V30 2750 H 257.395 7.73336 -0.978336 0
M  V30 2751 N 261.624 0.925811 1.2754 0
M  V30 2752 C 263.035 0.610102 1.7645 0
M  V30 2753 C 263.386 -0.874723 1.75622 0
M  V30 2754 O 262.511 -1.68444 1.35851 0
M  V30 2755 C 263.106 1.10073 3.20421 0
M  V30 2756 C 261.665 0.835723 3.67005 0
M  V30 2757 C 260.812 1.26054 2.46993 0
M  V30 2758 H 263.763 1.10579 1.13833 0
M  V30 2759 H 263.784 0.447557 3.77859 0
M  V30 2760 H 263.296 2.18143 3.20991 0
M  V30 2761 H 261.397 -0.231249 3.71882 0
M  V30 2762 H 261.51 1.45193 4.56569 0
M  V30 2763 H 259.874 0.679111 2.45479 0
M  V30 2764 H 260.657 2.34984 2.50275 0
M  V30 2765 N 263.102 -1.41638 0.69111 0
M  V30 2766 C 264.049 -2.30789 0.0229705 0
M  V30 2767 C 265.019 -1.46863 -0.775911 0
M  V30 2768 O 266.204 -1.75661 -0.74485 0
M  V30 2769 C 263.344 -3.32868 -0.910666 0
M  V30 2770 C 262.457 -4.31875 -0.103874 0
M  V30 2771 C 261.592 -5.21024 -1.03475 0
M  V30 2772 C 260.631 -6.11702 -0.220598 0
M  V30 2773 N 259.768 -6.93349 -1.10504 0
M  V30 2774 H 264.608 -2.87366 0.788978 0
M  V30 2775 H 262.145 -1.41535 0.400794 0
M  V30 2776 H 264.103 -3.90596 -1.46597 0
M  V30 2777 H 262.733 -2.77851 -1.64312 0
M  V30 2778 H 261.785 -3.76131 0.568285 0
M  V30 2779 H 263.097 -4.96003 0.527504 0
M  V30 2780 H 262.251 -5.83565 -1.65943 0
M  V30 2781 H 260.99 -4.57112 -1.69999 0
M  V30 2782 H 259.995 -5.48215 0.417187 0
M  V30 2783 H 261.22 -6.77668 0.440784 0
M  V30 2784 H 259.166 -6.3205 -1.75638 0
M  V30 2785 H 259.083 -7.54146 -0.529125 0
M  V30 2786 H 260.351 -7.60362 -1.71667 0
M  V30 2787 N 264.58 -0.43555 -1.51462 0
M  V30 2788 C 265.51 0.367376 -2.30592 0
M  V30 2789 C 266.491 1.02263 -1.35928 0
M  V30 2790 O 267.676 1.02661 -1.64847 0
M  V30 2791 C 264.806 1.46983 -3.14664 0
M  V30 2792 C 263.76 0.938161 -4.17591 0
M  V30 2793 C 263.086 2.13622 -4.90173 0
M  V30 2794 C 264.386 -0.0261621 -5.22293 0
M  V30 2795 H 266.08 -0.292969 -2.97963 0
M  V30 2796 H 263.626 -0.14234 -1.43295 0
M  V30 2797 H 265.579 2.03873 -3.688 0
M  V30 2798 H 264.303 2.15843 -2.4511 0
M  V30 2799 H 262.962 0.391481 -3.64504 0
M  V30 2800 H 262.61 2.81098 -4.17124 0
M  V30 2801 H 262.31 1.78688 -5.59772 0
M  V30 2802 H 263.834 2.7107 -5.47132 0
M  V30 2803 H 265.248 0.452384 -5.71512 0
M  V30 2804 H 263.645 -0.287992 -5.99409 0
M  V30 2805 H 264.715 -0.963391 -4.75233 0
M  V30 2806 N 266.058 1.56714 -0.166846 0
M  V30 2807 C 267.305 1.96747 0.479252 0
M  V30 2808 C 267.633 1.05263 1.63554 0
M  V30 2809 O 266.888 0.0858098 1.95512 0
M  V30 2810 C 267.187 3.42889 1.00806 0
M  V30 2811 C 266.853 4.50889 -0.0318574 0
M  V30 2812 C 265.515 4.8015 -0.317675 0
M  V30 2813 C 267.867 5.15949 -0.737956 0
M  V30 2814 C 265.195 5.71772 -1.31506 0
M  V30 2815 C 267.547 6.08647 -1.72429 0
M  V30 2816 C 266.211 6.36277 -2.0176 0
M  V30 2817 H 265.481 0.719949 0.175371 0
M  V30 2818 H 268.128 1.89756 -0.257864 0
M  V30 2819 H 266.433 3.4681 1.82291 0
M  V30 2820 H 268.13 3.71203 1.51689 0
M  V30 2821 H 264.72 4.28128 0.201088 0
M  V30 2822 H 268.904 4.93458 -0.530351 0
M  V30 2823 H 264.16 5.91465 -1.54853 0
M  V30 2824 H 268.334 6.58129 -2.27682 0
M  V30 2825 H 265.961 7.07075 -2.79194 0
M  V30 2826 N 267.536 -0.106894 1.57237 0
M  V30 2827 C 268.783 -0.812526 1.85484 0
M  V30 2828 C 269.111 -1.79304 0.753687 0
M  V30 2829 O 268.366 -1.94047 -0.253853 0
M  V30 2830 C 268.665 -1.58628 3.20268 0
M  V30 2831 C 268.331 -0.748967 4.44636 0
M  V30 2832 C 266.993 -0.518104 4.78403 0
M  V30 2833 C 269.345 -0.166122 5.20935 0
M  V30 2834 C 266.673 0.305659 5.85903 0
M  V30 2835 C 269.025 0.644899 6.29304 0
M  V30 2836 C 267.689 0.885965 6.61594 0
M  V30 2837 H 266.959 -0.297324 0.678734 0
M  V30 2838 H 269.606 -0.0744332 1.91355 0
M  V30 2839 H 267.911 -2.39562 3.10028 0
M  V30 2840 H 269.608 -2.13643 3.39349 0
M  V30 2841 H 266.198 -0.939006 4.18187 0
M  V30 2842 H 270.382 -0.33167 4.95191 0
M  V30 2843 H 265.638 0.501528 6.0934 0
M  V30 2844 H 269.812 1.10345 6.87602 0
M  V30 2845 H 267.439 1.52609 7.44725 0
M  V30 2846 N 269.014 -1.53014 -0.377408 0
M  V30 2847 C 270.263 -1.67845 -1.11853 0
M  V30 2848 C 270.576 -0.430625 -1.90801 0
M  V30 2849 O 271.782 -0.459261 -2.67587 0
M  V30 2850 C 270.238 -2.96668 -2.03756 0
M  V30 2851 C 269.846 -4.28671 -1.30175 0
M  V30 2852 C 271.59 -3.20865 -2.77932 0
M  V30 2853 C 269.497 -5.48591 -2.20911 0
M  V30 2854 H 268.427 -0.625343 -0.421263 0
M  V30 2855 H 271.078 -1.79514 -0.380409 0
M  V30 2856 H 269.46 -2.78773 -2.8125 0
M  V30 2857 H 270.634 -4.57157 -0.578259 0
M  V30 2858 H 268.949 -4.10825 -0.679108 0
M  V30 2859 H 271.546 -4.07642 -3.46024 0
M  V30 2860 H 271.889 -2.36424 -3.4265 0
M  V30 2861 H 272.422 -3.39379 -2.07525 0
M  V30 2862 H 269.161 -6.35474 -1.6079 0
M  V30 2863 H 268.681 -5.244 -2.91144 0
M  V30 2864 H 270.36 -5.8292 -2.80736 0
M  V30 2865 N 270.492 0.636531 -1.44174 0
M  V30 2866 C 271.424 1.7618 -1.46606 0
M  V30 2867 C 272.437 1.58768 -0.360091 0
M  V30 2868 O 273.626 1.67181 -0.625518 0
M  V30 2869 C 270.726 3.13833 -1.27915 0
M  V30 2870 C 269.899 3.57753 -2.51658 0
M  V30 2871 C 268.958 4.74265 -2.27945 0
M  V30 2872 O 267.984 4.82852 -3.01401 0
M  V30 2873 N 269.186 5.65604 -1.30662 0
M  V30 2874 H 271.951 1.74567 -2.43612 0
M  V30 2875 H 269.512 0.820924 -1.39544 0
M  V30 2876 H 271.504 3.8949 -1.09907 0
M  V30 2877 H 270.074 3.10121 -0.39293 0
M  V30 2878 H 269.294 2.72362 -2.84978 0
M  V30 2879 H 270.582 3.83847 -3.33974 0
M  V30 2880 H 269.98 5.61354 -0.699844 0
M  V30 2881 H 268.537 6.40913 -1.18634 0
M  V30 2882 N 271.97 1.30982 0.876444 0
M  V30 2883 C 272.933 1.18054 1.96459 0
M  V30 2884 C 273.933 0.109399 1.60427 0
M  V30 2885 O 275.123 0.358173 1.70478 0
M  V30 2886 C 272.255 0.810616 3.31122 0
M  V30 2887 H 273.448 2.14735 2.09354 0
M  V30 2888 H 271.001 1.145 1.06392 0
M  V30 2889 H 271.736 -0.155322 3.23928 0
M  V30 2890 H 271.521 1.58481 3.58645 0
M  V30 2891 H 273.011 0.743876 4.10921 0
M  V30 2892 N 273.449 -1.08991 1.13837 0
M  V30 2893 C 274.689 -1.82867 0.913183 0
M  V30 2894 C 275.053 -1.83936 -0.550604 0
M  V30 2895 O 276.254 -2.53515 -0.893515 0
M  V30 2896 C 274.525 -3.24843 1.49036 0
M  V30 2897 S 276.084 -4.15669 1.40588 0
M  V30 2898 H 272.902 -0.630278 0.329046 0
M  V30 2899 H 275.504 -1.31049 1.45073 0
M  V30 2900 H 274.208 -3.21644 2.54899 0
M  V30 2901 H 273.739 -3.81734 0.950947 0
M  V30 2902 H 275.754 -4.94686 0.387353 0
M  V30 2903 N 274.927 -0.932562 -1.27047 0
M  V30 2904 C 276.343 -0.633544 -1.46487 0
M  V30 2905 C 276.543 0.815746 -1.84249 0
M  V30 2906 O 275.599 1.59319 -1.95892 0
M  V30 2907 C 276.912 -1.58758 -2.55375 0
M  V30 2908 C 278.46 -1.59634 -2.69232 0
M  V30 2909 C 278.935 -2.53747 -3.81283 0
M  V30 2910 N 280.426 -2.51982 -3.88664 0
M  V30 2911 C 281.161 -3.21491 -4.74796 0
M  V30 2912 N 280.657 -4.00395 -5.65381 0
M  V30 2913 N 282.45 -3.10485 -4.68568 0
M  V30 2914 H 274.601 -1.86946 -1.00821 0
M  V30 2915 H 276.864 -0.802897 -0.504044 0
M  V30 2916 H 276.57 -2.62172 -2.34432 0
M  V30 2917 H 276.444 -1.33301 -3.52861 0
M  V30 2918 H 278.831 -0.569488 -2.89553 0
M  V30 2919 H 278.912 -1.89142 -1.72218 0
M  V30 2920 H 278.556 -3.56545 -3.61715 0
M  V30 2921 H 278.486 -2.21532 -4.77735 0
M  V30 2922 H 280.977 -1.94681 -3.23895 0
M  V30 2923 H 281.29 -4.50406 -6.27976 0
M  V30 2924 H 279.635 -4.04498 -5.65161 0
M  V30 2925 H 282.826 -2.48331 -3.96799 0
M  V30 2926 H 282.999 -3.64925 -5.35475 0
M  V30 2927 N 276.405 1.4127 -0.698611 0
M  V30 2928 C 277.653 2.00782 -0.230409 0
M  V30 2929 C 277.974 1.5562 1.17505 0
M  V30 2930 O 277.244 0.78815 1.79346 0
M  V30 2931 H 275.824 0.742464 -0.0821944 0
M  V30 2932 H 278.486 1.72852 -0.90045 0
M  V30 2933 H 277.582 3.11095 -0.25021 0
M  V30 2934 N 277.883 0.443576 1.51229 0
M  V30 2935 C 279.111 -0.11929 2.06556 0
M  V30 2936 C 279.526 -1.35921 1.31038 0
M  V30 2937 O 278.883 -1.78675 0.371704 0
M  V30 2938 C 278.934 -0.435228 3.5887 0
M  V30 2939 O 278.655 0.755486 4.31537 0
M  V30 2940 C 280.156 -1.04808 4.30732 0
M  V30 2941 H 277.376 -0.0051584 0.67098 0
M  V30 2942 H 279.92 0.624453 1.94733 0
M  V30 2943 H 278.075 -1.12887 3.70588 0
M  V30 2944 H 278.489 0.483491 5.22267 0
M  V30 2945 H 279.963 -1.2191 5.3837 0
M  V30 2946 H 280.44 -2.03081 3.89429 0
M  V30 2947 H 281.046 -0.393637 4.23474 0
M  V30 2948 N 279.361 -1.56624 0.175154 0
M  V30 2949 C 280.271 -2.21741 -0.766042 0
M  V30 2950 C 281.287 -1.21023 -1.25018 0
M  V30 2951 O 282.463 -1.53697 -1.3015 0
M  V30 2952 C 279.528 -2.84839 -1.97655 0
M  V30 2953 C 278.589 -4.00769 -1.53892 0
M  V30 2954 C 277.822 -4.60849 -2.69173 0
M  V30 2955 O 278.045 -4.19823 -3.86141 0
M  V30 2956 O 276.979 -5.50655 -2.43028 0
M  V30 2957 H 280.805 -3.02738 -0.241585 0
M  V30 2958 H 278.39 -1.49305 -0.053222 0
M  V30 2959 H 280.272 -3.24834 -2.68442 0
M  V30 2960 H 278.947 -2.06836 -2.48999 0
M  V30 2961 H 277.854 -3.65436 -0.80044 0
M  V30 2962 H 279.187 -4.80376 -1.07236 0
M  V30 2963 N 280.839 0.0985539 -1.57292 0
M  V30 2964 C 281.769 1.12064 -2.04851 0
M  V30 2965 C 282.75 1.41981 -0.936767 0
M  V30 2966 O 283.935 1.52071 -1.20781 0
M  V30 2967 C 281.065 2.44144 -2.47004 0
M  V30 2968 C 280.019 2.28643 -3.6181 0
M  V30 2969 C 279.345 3.65869 -3.89929 0
M  V30 2970 C 280.645 1.72986 -4.92822 0
M  V30 2971 H 282.339 0.724979 -2.9049 0
M  V30 2972 H 279.885 0.34729 -1.39749 0
M  V30 2973 H 281.838 3.15914 -2.78884 0
M  V30 2974 H 280.562 2.85639 -1.5836 0
M  V30 2975 H 279.221 1.59318 -3.30172 0
M  V30 2976 H 278.869 4.04885 -2.98458 0
M  V30 2977 H 278.569 3.56344 -4.67218 0
M  V30 2978 H 280.093 4.39112 -4.2428 0
M  V30 2979 H 281.507 2.34593 -5.23105 0
M  V30 2980 H 279.904 1.74229 -5.74251 0
M  V30 2981 H 280.974 0.689007 -4.7998 0
M  V30 2982 N 282.317 1.53212 0.369288 0
M  V30 2983 C 283.594 1.59815 1.12776 0
M  V30 2984 C 283.974 0.403402 2.0721 0
M  V30 2985 O 283.322 -0.606667 2.20299 0
M  V30 2986 C 283.532 2.94664 1.87013 0
M  V30 2987 C 284.88 3.49109 2.41677 0
M  V30 2988 O 285.904 2.96669 1.97144 0
M  V30 2989 O 284.763 4.40775 3.23079 0
M  V30 2990 H 281.857 0.645376 0.517125 0
M  V30 2991 H 284.403 1.65553 0.37285 0
M  V30 2992 H 283.175 3.73061 1.18071 0
M  V30 2993 H 282.798 2.92401 2.69421 0
M  V30 2994 N 283.795 -0.628877 1.44509 0
M  V30 2995 C 285.072 -1.38733 1.37886 0
M  V30 2996 C 285.452 -2.11065 0.0387008 0
M  V30 2997 O 284.8 -2.06476 -0.97878 0
M  V30 2998 C 285.01 -2.35188 2.57852 0
M  V30 2999 C 286.358 -2.9845 3.02014 0
M  V30 3000 O 287.382 -2.45513 2.58073 0
M  V30 3001 O 286.241 -3.94487 3.78209 0
M  V30 3002 H 283.335 -0.621015 0.54614 0
M  V30 3003 H 285.881 -0.653744 1.56602 0
M  V30 3004 H 284.653 -1.80855 3.46998 0
M  V30 3005 H 284.276 -3.1596 2.4136 0
M  V30 3006 N 285.273 -1.31445 -0.869486 0
M  V30 3007 C 286.521 -1.20918 -1.61936 0
M  V30 3008 C 286.842 0.232683 -1.93607 0
M  V30 3009 O 286.112 1.15352 -1.58338 0
M  V30 3010 H 284.692 -0.44454 -0.600328 0
M  V30 3011 H 287.354 -1.64776 -1.0409 0
M  V30 3012 H 286.45 -1.78124 -2.56278 0
M  V30 3013 N 286.751 1.08385 -1.14413 0
M  V30 3014 C 288 1.80153 -0.907076 0
M  V30 3015 C 288.313 1.87176 0.567851 0
M  V30 3016 O 289.519 2.55359 0.922172 0
M  V30 3017 C 287.975 3.23687 -1.57336 0
M  V30 3018 C 287.583 3.24897 -3.08457 0
M  V30 3019 C 289.327 4.00136 -1.41744 0
M  V30 3020 C 287.234 4.6302 -3.67921 0
M  V30 3021 H 286.164 0.675139 -0.335714 0
M  V30 3022 H 288.815 1.21733 -1.37307 0
M  V30 3023 H 287.197 3.82234 -1.03505 0
M  V30 3024 H 288.371 2.76055 -3.68958 0
M  V30 3025 H 286.686 2.61943 -3.2369 0
M  V30 3026 H 289.283 5.02201 -1.83572 0
M  V30 3027 H 289.626 4.14709 -0.363576 0
M  V30 3028 H 290.159 3.48058 -1.92614 0
M  V30 3029 H 286.898 4.5365 -4.73161 0
M  V30 3030 H 286.418 5.12143 -3.12201 0
M  V30 3031 H 288.097 5.31994 -3.68227 0
M  V30 3032 N 288.23 0.939286 1.26551 0
M  V30 3033 C 289.162 0.404704 2.25599 0
M  V30 3034 C 290.175 -0.470983 1.55838 0
M  V30 3035 O 291.364 -0.281734 1.76263 0
M  V30 3036 C 288.464 -0.43764 3.36062 0
M  V30 3037 C 287.637 0.421449 4.35365 0
M  V30 3038 C 286.696 -0.36015 5.24966 0
M  V30 3039 O 285.722 0.236167 5.6871 0
M  V30 3040 N 286.924 -1.65715 5.56344 0
M  V30 3041 H 289.689 1.25618 2.72103 0
M  V30 3042 H 287.25 0.807963 1.40298 0
M  V30 3043 H 289.242 -0.967866 3.92956 0
M  V30 3044 H 287.812 -1.18991 2.89067 0
M  V30 3045 H 287.032 1.1329 3.7757 0
M  V30 3046 H 288.32 1.00835 4.98708 0
M  V30 3047 H 287.718 -2.16378 5.22682 0
M  V30 3048 H 286.275 -2.13366 6.15888 0
M  V30 3049 N 289.708 -1.40897 0.706093 0
M  V30 3050 C 290.671 -2.29131 0.0562841 0
M  V30 3051 C 291.671 -1.44901 -0.697166 0
M  V30 3052 O 292.861 -1.65926 -0.530484 0
M  V30 3053 C 289.993 -3.27957 -0.93043 0
M  V30 3054 H 291.186 -2.88091 0.833284 0
M  V30 3055 H 288.739 -1.4906 0.470192 0
M  V30 3056 H 289.474 -2.73997 -1.73482 0
M  V30 3057 H 289.259 -3.90124 -0.393166 0
M  V30 3058 H 290.749 -3.94049 -1.38256 0
M  V30 3059 N 291.186 -0.45159 -1.50991 0
M  V30 3060 C 292.463 0.170707 -1.94854 0
M  V30 3061 C 292.843 1.58788 -1.39103 0
M  V30 3062 O 292.191 2.20913 -0.583921 0
M  V30 3063 C 292.401 0.133929 -3.48743 0
M  V30 3064 C 293.749 0.33248 -4.23296 0
M  V30 3065 O 294.773 0.211403 -3.55572 0
M  V30 3066 O 293.632 0.57486 -5.43468 0
M  V30 3067 H 290.726 0.122264 -0.817912 0
M  V30 3068 H 293.272 -0.510594 -1.61836 0
M  V30 3069 H 292.044 -0.856283 -3.81816 0
M  V30 3070 H 291.667 0.857529 -3.88242 0
M  V30 3071 N 292.664 1.56529 -0.183458 0
M  V30 3072 C 293.889 2.02064 0.467428 0
M  V30 3073 C 294.314 1.06282 1.55196 0
M  V30 3074 O 293.672 0.0443565 1.81246 0
M  V30 3075 C 293.72 3.46122 1.01153 0
M  V30 3076 O 292.824 3.53437 2.12499 0
M  V30 3077 H 292.165 0.654726 0.110588 0
M  V30 3078 H 294.695 2.02521 -0.290917 0
M  V30 3079 H 294.705 3.85676 1.33108 0
M  V30 3080 H 293.38 4.15331 0.217533 0
M  V30 3081 H 291.957 3.2575 1.81497 0
M  V30 3082 N 294.142 -0.090211 1.57342 0
M  V30 3083 C 295.39 -0.791241 1.85967 0
M  V30 3084 C 295.711 -1.7903 0.772859 0
M  V30 3085 O 294.981 -1.94872 -0.200398 0
M  V30 3086 H 293.561 -0.295205 0.686195 0
M  V30 3087 H 296.223 -0.0706782 1.94772 0
M  V30 3088 H 295.319 -1.31882 2.82867 0
M  V30 3089 N 295.62 -1.53406 -0.361157 0
M  V30 3090 C 297.031 -1.61442 -0.937728 0
M  V30 3091 C 297.382 -0.48461 -1.90121 0
M  V30 3092 O 296.507 0.388312 -2.12888 0
M  V30 3093 C 297.102 -2.92624 -1.70753 0
M  V30 3094 C 295.661 -3.02981 -2.23337 0
M  V30 3095 C 294.808 -2.5677 -1.04712 0
M  V30 3096 H 297.759 -1.58083 -0.139816 0
M  V30 3097 H 297.78 -2.80675 -2.56908 0
M  V30 3098 H 297.292 -3.74834 -1.00604 0
M  V30 3099 H 295.393 -2.25368 -2.96715 0
M  V30 3100 H 295.506 -4.0814 -2.50916 0
M  V30 3101 H 293.87 -2.11752 -1.41539 0
M  V30 3102 H 294.653 -3.41402 -0.360539 0
M  V30 3103 N 297.098 0.621204 -1.44841 0
M  V30 3104 C 298.347 1.37658 -1.47422 0
M  V30 3105 C 298.66 1.95264 -0.114629 0
M  V30 3106 O 299.866 2.71494 -0.0180199 0
M  V30 3107 C 298.322 2.49285 -2.59586 0
M  V30 3108 C 297.93 1.98149 -4.01797 0
M  V30 3109 C 299.674 3.26409 -2.71399 0
M  V30 3110 C 297.581 3.07178 -5.05367 0
M  V30 3111 H 296.511 0.517344 -0.548517 0
M  V30 3112 H 299.162 0.667257 -1.70938 0
M  V30 3113 H 297.544 3.22839 -2.29328 0
M  V30 3114 H 298.718 1.31395 -4.41669 0
M  V30 3115 H 297.033 1.33812 -3.94314 0
M  V30 3116 H 299.63 4.07706 -3.45948 0
M  V30 3117 H 299.973 3.76535 -1.77559 0
M  V30 3118 H 300.506 2.5995 -3.01116 0
M  V30 3119 H 297.245 2.61985 -6.00869 0
M  V30 3120 H 296.765 3.72542 -4.70077 0
M  V30 3121 H 298.444 3.71789 -5.29511 0
M  V30 3122 N 298.576 1.31904 0.862503 0
M  V30 3123 C 299.524 1.20125 1.9918 0
M  V30 3124 C 300.518 0.107824 1.69056 0
M  V30 3125 O 301.724 0.270223 1.7796 0
M  V30 3126 H 298.099 0.372148 0.65346 0
M  V30 3127 H 300.07 2.15652 2.06244 0
M  V30 3128 C 298.819 0.933099 3.34946 0
M  V30 3129 H 298.142 1.76664 3.5865 0
M  V30 3130 H 299.582 0.890892 4.14535 0
M  V30 3131 C 298.041 -0.364172 3.34926 0
M  V30 3132 O 298.571 -1.37858 3.77304 0
M  V30 3133 N 296.777 -0.383362 2.8806 0
M  V30 3134 H 296.324 0.442651 2.53768 0
M  V30 3135 H 296.282 -1.25123 2.8843 0
M  V30 3136 N 300.054 -1.07777 1.14986 0
M  V30 3137 C 301.331 -1.7699 0.832695 0
M  V30 3138 C 301.711 -2.001 -0.672561 0
M  V30 3139 O 301.059 -1.61598 -1.6155 0
M  V30 3140 C 301.269 -3.08139 1.63863 0
M  V30 3141 C 302.617 -3.8256 1.84208 0
M  V30 3142 O 303.641 -3.17939 1.60603 0
M  V30 3143 O 302.5 -4.98612 2.23714 0
M  V30 3144 H 299.594 -0.768389 0.305791 0
M  V30 3145 H 302.14 -1.14182 1.25541 0
M  V30 3146 H 300.912 -2.86909 2.6608 0
M  V30 3147 H 300.535 -3.78678 1.21197 0
M  V30 3148 N 301.532 -0.945985 -1.26051 0
M  V30 3149 C 302.76 -0.613025 -1.9761 0
M  V30 3150 C 303.175 0.813035 -1.70397 0
M  V30 3151 O 302.532 1.54274 -0.974979 0
M  V30 3152 C 302.583 -0.85159 -3.51326 0
M  V30 3153 O 302.304 -2.22157 -3.77595 0
M  V30 3154 C 303.805 -0.529831 -4.40122 0
M  V30 3155 H 301.025 -0.230593 -0.630133 0
M  V30 3156 H 303.569 -1.268 -1.60443 0
M  V30 3157 H 301.724 -0.243151 -3.86636 0
M  V30 3158 H 302.138 -2.2852 -4.721 0
M  V30 3159 H 303.612 -0.747348 -5.46917 0
M  V30 3160 H 304.089 0.535341 -4.35925 0
M  V30 3161 H 304.695 -1.11721 -4.10364 0
M  V30 3162 N 303.011 1.40521 -0.713556 0
M  V30 3163 C 304.288 1.94775 -0.17943 0
M  V30 3164 C 304.668 1.65184 1.31444 0
M  V30 3165 O 304.016 0.968429 2.06963 0
M  V30 3166 C 304.226 3.45543 -0.489986 0
M  V30 3167 C 305.574 4.22442 -0.427536 0
M  V30 3168 O 306.598 3.53644 -0.425929 0
M  V30 3169 O 305.457 5.4501 -0.403292 0
M  V30 3170 H 302.551 0.826606 -0.0255192 0
M  V30 3171 H 305.097 1.5014 -0.790949 0
M  V30 3172 H 303.869 3.60432 -1.5233 0
M  V30 3173 H 303.492 3.97311 0.151598 0
M  V30 3174 N 304.489 0.459591 1.5075 0
M  V30 3175 C 305.452 -0.329093 2.26825 0
M  V30 3176 C 306.452 -0.930481 1.31144 0
M  V30 3177 O 307.642 -0.801453 1.54669 0
M  V30 3178 C 304.774 -1.46768 3.07688 0
M  V30 3179 H 305.967 0.337924 2.9799 0
M  V30 3180 H 303.52 0.213336 1.54837 0
M  V30 3181 H 304.255 -2.17009 2.40993 0
M  V30 3182 H 304.04 -1.04238 3.77991 0
M  V30 3183 H 305.53 -2.02433 3.65254 0
M  V30 3184 N 305.967 -1.56429 0.191757 0
M  V30 3185 C 306.915 -2.20273 -0.747174 0
M  V30 3186 C 307.909 -1.17288 -1.22229 0
M  V30 3187 O 309.115 -1.35441 -1.18557 0
M  V30 3188 H 305.49 -0.705885 -0.259289 0
M  V30 3189 H 307.461 -2.97826 -0.184963 0
M  V30 3190 C 306.21 -2.87356 -1.95759 0
M  V30 3191 H 305.533 -3.66341 -1.60106 0
M  V30 3192 H 306.973 -3.3547 -2.59299 0
M  V30 3193 C 305.432 -1.88213 -2.79423 0
M  V30 3194 O 305.962 -1.38033 -3.7724 0
M  V30 3195 N 304.168 -1.56516 -2.44849 0
M  V30 3196 H 303.715 -1.97516 -1.65364 0
M  V30 3197 H 303.673 -0.904369 -3.01112 0
M  V30 3198 N 307.445 0.0818655 -1.57387 0
M  V30 3199 C 308.856 0.634871 -1.75574 0
M  V30 3200 C 309.207 1.78435 -0.815809 0
M  V30 3201 O 308.332 2.164 0.0025366 0
M  V30 3202 C 308.927 1.15845 -3.18379 0
M  V30 3203 C 307.486 1.65741 -3.37945 0
M  V30 3204 C 306.633 0.572549 -2.71325 0
M  V30 3205 H 309.584 -0.144268 -1.58043 0
M  V30 3206 H 309.605 2.02751 -3.21982 0
M  V30 3207 H 309.117 0.321631 -3.86765 0
M  V30 3208 H 307.218 2.51781 -2.74658 0
M  V30 3209 H 307.331 1.74129 -4.46336 0
M  V30 3210 H 305.695 1.01518 -2.33594 0
M  V30 3211 H 306.478 -0.253918 -3.4236 0
M  V30 3212 N 308.923 1.53595 0.353017 0
M  V30 3213 C 310.339 1.43648 0.695516 0
M  V30 3214 C 310.539 0.585617 1.92802 0
M  V30 3215 O 309.595 0.0729223 2.52395 0
M  V30 3216 C 310.908 2.8701 0.896991 0
M  V30 3217 C 312.456 2.96723 0.996209 0
M  V30 3218 C 312.931 4.41173 1.23007 0
M  V30 3219 N 314.422 4.44657 1.29749 0
M  V30 3220 C 315.157 5.53547 1.49577 0
M  V30 3221 N 314.653 6.72461 1.66639 0
M  V30 3222 N 316.446 5.41145 1.52048 0
M  V30 3223 H 308.597 2.07415 -0.457481 0
M  V30 3224 H 310.86 0.9372 -0.142687 0
M  V30 3225 H 310.566 3.51644 0.0629938 0
M  V30 3226 H 310.44 3.31401 1.80148 0
M  V30 3227 H 312.827 2.32235 1.82074 0
M  V30 3228 H 312.908 2.55707 0.0688331 0
M  V30 3229 H 312.552 5.06238 0.410505 0
M  V30 3230 H 312.482 4.79772 2.17086 0
M  V30 3231 H 314.973 3.58963 1.18126 0
M  V30 3232 H 315.286 7.51214 1.81378 0
M  V30 3233 H 313.631 6.75423 1.63794 0
M  V30 3234 H 316.822 4.47205 1.38294 0
M  V30 3235 H 316.995 6.26068 1.67159 0
M  V30 3236 N 310.401 -0.613514 1.45168 0
M  V30 3237 C 311.631 -1.39743 1.52169 0
M  V30 3238 C 312.039 -1.88596 0.151086 0
M  V30 3239 O 311.382 -1.6251 -0.856521 0
M  V30 3240 C 311.444 -2.64035 2.43979 0
M  V30 3241 C 311.108 -2.36861 3.90827 0
M  V30 3242 C 312.105 -1.97591 4.80889 0
M  V30 3243 C 309.79 -2.49956 4.35692 0
M  V30 3244 C 311.784 -1.71768 6.1382 0
M  V30 3245 C 309.471 -2.23747 5.68665 0
M  V30 3246 C 310.469 -1.84714 6.57548 0
M  V30 3247 O 310.157 -1.58809 7.88058 0
M  V30 3248 H 309.889 -0.434382 0.517966 0
M  V30 3249 H 312.443 -0.75587 1.90986 0
M  V30 3250 H 310.673 -3.3089 2.00122 0
M  V30 3251 H 312.362 -3.26069 2.41731 0
M  V30 3252 H 313.128 -1.87015 4.47493 0
M  V30 3253 H 309.007 -2.79305 3.66756 0
M  V30 3254 H 312.551 -1.41227 6.83155 0
M  V30 3255 H 308.448 -2.33938 6.01617 0
M  V30 3256 H 309.216 -1.7291 8.00028 0
M  V30 3257 N 311.879 -1.3236 -0.855495 0
M  V30 3258 C 312.826 -1.21225 -1.964 0
M  V30 3259 C 313.796 -0.0946204 -1.6583 0
M  V30 3260 O 314.981 -0.27002 -1.8888 0
M  V30 3261 C 312.121 -0.940419 -3.32039 0
M  V30 3262 C 311.234 -2.14276 -3.75113 0
M  V30 3263 C 310.369 -1.80648 -4.9954 0
M  V30 3264 C 309.408 -2.97208 -5.35102 0
M  V30 3265 N 308.545 -2.63678 -6.50706 0
M  V30 3266 H 313.385 -2.16042 -2.05255 0
M  V30 3267 H 310.922 -1.07451 -1.00463 0
M  V30 3268 H 312.88 -0.763311 -4.10158 0
M  V30 3269 H 311.51 -0.0290413 -3.22787 0
M  V30 3270 H 310.562 -2.43017 -2.92655 0
M  V30 3271 H 311.874 -3.01468 -3.97389 0
M  V30 3272 H 311.028 -1.59484 -5.85363 0
M  V30 3273 H 309.767 -0.906678 -4.79198 0
M  V30 3274 H 308.772 -3.19004 -4.47791 0
M  V30 3275 H 309.997 -3.87918 -5.57401 0
M  V30 3276 H 307.943 -1.76238 -6.31883 0
M  V30 3277 H 307.86 -3.444 -6.72997 0
M  V30 3278 H 309.128 -2.45942 -7.39684 0
M  V30 3279 N 313.357 1.07166 -1.15556 0
M  V30 3280 C 314.606 1.79181 -0.926132 0
M  V30 3281 C 314.919 1.87768 0.547967 0
M  V30 3282 O 316.125 2.56323 0.895036 0
M  V30 3283 C 314.581 3.22 -1.60761 0
M  V30 3284 C 314.189 3.21607 -3.11886 0
M  V30 3285 C 315.933 3.9861 -1.4598 0
M  V30 3286 C 313.84 4.59092 -3.72812 0
M  V30 3287 H 312.77 0.67154 -0.342856 0
M  V30 3288 H 315.421 1.2027 -1.3859 0
M  V30 3289 H 313.803 3.81115 -1.07553 0
M  V30 3290 H 314.977 2.72127 -3.71865 0
M  V30 3291 H 313.292 2.58495 -3.2645 0
M  V30 3292 H 315.889 5.00225 -1.88888 0
M  V30 3293 H 316.232 4.143 -0.407541 0
M  V30 3294 H 316.765 3.45996 -1.96295 0
M  V30 3295 H 313.504 4.48606 -4.77946 0
M  V30 3296 H 313.024 5.08803 -3.17616 0
M  V30 3297 H 314.703 5.28059 -3.73848 0
M  V30 3298 N 314.835 0.952656 1.25548 0
M  V30 3299 C 316.246 0.647392 1.75116 0
M  V30 3300 C 316.597 -0.837274 1.77438 0
M  V30 3301 O 315.722 -1.65525 1.39393 0
M  V30 3302 C 316.317 1.16845 3.18014 0
M  V30 3303 C 314.876 0.913382 3.6515 0
M  V30 3304 C 314.023 1.31265 2.44264 0
M  V30 3305 H 316.974 1.12968 1.11462 0
M  V30 3306 H 316.995 0.527606 3.76824 0
M  V30 3307 H 316.507 2.24902 3.16292 0
M  V30 3308 H 314.608 -0.152316 3.72289 0
M  V30 3309 H 314.721 1.54845 4.53387 0
M  V30 3310 H 313.085 0.731028 2.43984 0
M  V30 3311 H 313.868 2.40239 2.45234 0
M  V30 3312 N 316.313 -1.40141 0.720998 0
M  V30 3313 C 317.559 -2.01084 0.263231 0
M  V30 3314 C 317.892 -1.57052 -1.14229 0
M  V30 3315 O 317.167 -0.793027 -1.77599 0
M  V30 3316 C 317.45 -3.58401 0.349344 0
M  V30 3317 C 317.303 -4.12491 1.79363 0
M  V30 3318 C 318.622 -4.39231 -0.276351 0
M  V30 3319 H 315.741 -0.730572 0.0971228 0
M  V30 3320 H 318.383 -1.66543 0.914518 0
M  V30 3321 H 316.533 -3.87958 -0.205165 0
M  V30 3322 H 318.205 -3.93711 2.40394 0
M  V30 3323 H 316.448 -3.66576 2.31958 0
M  V30 3324 H 317.119 -5.21646 1.80524 0
M  V30 3325 H 319.595 -4.15637 0.196184 0
M  V30 3326 H 318.471 -5.48586 -0.185681 0
M  V30 3327 H 318.732 -4.20643 -1.36059 0
M  V30 3328 N 317.792 -0.46758 -1.50504 0
M  V30 3329 C 318.702 0.33382 -2.32213 0
M  V30 3330 C 319.718 0.999323 -1.42441 0
M  V30 3331 O 320.894 0.988068 -1.75497 0
M  V30 3332 C 317.959 1.4035 -3.17022 0
M  V30 3333 C 317.02 0.754961 -4.2261 0
M  V30 3334 C 316.253 1.77367 -5.03365 0
M  V30 3335 O 316.476 2.99976 -4.8515 0
M  V30 3336 O 315.41 1.34744 -5.86624 0
M  V30 3337 H 319.236 -0.334067 -3.01857 0
M  V30 3338 H 316.821 -0.229496 -1.47627 0
M  V30 3339 H 318.703 2.02318 -3.69656 0
M  V30 3340 H 317.378 2.05492 -2.5011 0
M  V30 3341 H 316.285 0.0964244 -3.73976 0
M  V30 3342 H 317.618 0.146545 -4.91982 0
M  V30 3343 N 319.27 1.56325 -0.20005 0
M  V30 3344 C 320.233 2.18084 0.705132 0
M  V30 3345 C 321.233 1.13666 1.1374 0
M  V30 3346 O 322.423 1.39023 1.04968 0
M  V30 3347 C 319.555 2.78689 1.96329 0
M  V30 3348 H 320.748 2.99435 0.167023 0
M  V30 3349 H 318.301 1.56221 0.0495725 0
M  V30 3350 H 319.036 2.0115 2.5438 0
M  V30 3351 H 318.821 3.55133 1.66202 0
M  V30 3352 H 320.311 3.26096 2.60866 0
M  V30 3353 N 320.748 -0.0735177 1.57428 0
M  V30 3354 C 322.025 -0.805903 1.78226 0
M  V30 3355 C 322.405 -1.95874 0.787189 0
M  V30 3356 O 321.753 -2.2779 -0.180029 0
M  V30 3357 C 321.963 -1.28045 3.24662 0
M  V30 3358 C 323.311 -1.71453 3.88444 0
M  V30 3359 O 324.335 -1.37616 3.28543 0
M  V30 3360 O 323.194 -2.34093 4.93825 0
M  V30 3361 H 320.288 -0.386041 0.73137 0
M  V30 3362 H 322.834 -0.0537269 1.69615 0
M  V30 3363 H 321.606 -0.455476 3.8864 0
M  V30 3364 H 321.229 -2.094 3.37991 0
M  V30 3365 N 322.226 -1.5378 -0.344866 0
M  V30 3366 C 323.473 -1.70963 -1.08526 0
M  V30 3367 C 323.801 -0.472126 -1.88683 0
M  V30 3368 O 323.056 0.546116 -1.87926 0
M  V30 3369 C 323.355 -2.92407 -2.05506 0
M  V30 3370 C 323.021 -4.28066 -1.41671 0
M  V30 3371 C 321.683 -4.64951 -1.2399 0
M  V30 3372 C 324.035 -5.12344 -0.956726 0
M  V30 3373 C 321.363 -5.83733 -0.589277 0
M  V30 3374 C 323.715 -6.3179 -0.320015 0
M  V30 3375 C 322.379 -6.67372 -0.130881 0
M  V30 3376 H 321.649 -0.625598 -0.397124 0
M  V30 3377 H 324.296 -1.87995 -0.36469 0
M  V30 3378 H 322.601 -2.69973 -2.8394 0
M  V30 3379 H 324.298 -3.02895 -2.62784 0
M  V30 3380 H 320.888 -3.99034 -1.56429 0
M  V30 3381 H 325.072 -4.8438 -1.08118 0
M  V30 3382 H 320.328 -6.09877 -0.431344 0
M  V30 3383 H 324.502 -6.96386 0.0445072 0
M  V30 3384 H 322.129 -7.59273 0.375318 0
M  V30 3385 N 323.704 0.605807 -1.45491 0
M  V30 3386 C 324.634 1.72709 -1.57143 0
M  V30 3387 C 325.615 1.6476 -0.422884 0
M  V30 3388 O 326.8 1.83132 -0.646247 0
M  V30 3389 C 323.93 3.11316 -1.53948 0
M  V30 3390 C 322.884 3.34077 -2.67537 0
M  V30 3391 C 322.21 4.72975 -2.49397 0
M  V30 3392 C 323.51 3.24158 -4.09535 0
M  V30 3393 H 325.204 1.63214 -2.51001 0
M  V30 3394 H 322.75 0.78379 -1.208 0
M  V30 3395 H 324.703 3.89557 -1.60696 0
M  V30 3396 H 323.427 3.21655 -0.566205 0
M  V30 3397 H 322.086 2.58227 -2.6022 0
M  V30 3398 H 321.734 4.8005 -1.50205 0
M  V30 3399 H 321.434 4.8916 -3.25571 0
M  V30 3400 H 322.958 5.53414 -2.58002 0
M  V30 3401 H 324.372 3.92271 -4.18086 0
M  V30 3402 H 322.769 3.51872 -4.86113 0
M  V30 3403 H 323.839 2.2157 -4.31317 0
M  V30 3404 N 325.182 1.32811 0.848464 0
M  V30 3405 C 326.429 1.23724 1.60308 0
M  V30 3406 C 326.757 -0.1994 1.93475 0
M  V30 3407 O 326.012 -1.15406 1.5805 0
M  V30 3408 C 326.311 2.04831 2.92881 0
M  V30 3409 C 325.977 3.54125 2.79117 0
M  V30 3410 C 324.639 3.94829 2.7507 0
M  V30 3411 C 326.991 4.49036 2.64606 0
M  V30 3412 C 324.319 5.28675 2.544 0
M  V30 3413 C 326.671 5.83033 2.4547 0
M  V30 3414 C 325.335 6.22931 2.39819 0
M  V30 3415 H 324.605 0.452737 0.586609 0
M  V30 3416 H 327.252 1.64301 0.983743 0
M  V30 3417 H 325.557 1.57001 3.58968 0
M  V30 3418 H 327.254 1.95164 3.50303 0
M  V30 3419 H 323.844 3.21801 2.83094 0
M  V30 3420 H 328.028 4.18505 2.66772 0
M  V30 3421 H 323.284 5.58637 2.48465 0
M  V30 3422 H 327.458 6.56186 2.33222 0
M  V30 3423 H 325.085 7.26584 2.23562 0
M  V30 3424 N 326.66 -1.06551 1.16123 0
M  V30 3425 C 327.623 -2.12132 0.867906 0
M  V30 3426 C 328.623 -1.60224 -0.135944 0
M  V30 3427 O 329.813 -1.73943 0.0946422 0
M  V30 3428 C 326.945 -3.396 0.297419 0
M  V30 3429 H 328.138 -2.39586 1.80385 0
M  V30 3430 H 325.691 -1.22574 0.969812 0
M  V30 3431 H 326.426 -3.17794 -0.64633 0
M  V30 3432 H 326.211 -3.78581 1.02073 0
M  V30 3433 H 327.701 -4.17455 0.110052 0
M  V30 3434 N 328.138 -0.959301 -1.25041 0
M  V30 3435 C 329.368 -0.63303 -1.96663 0
M  V30 3436 C 329.776 0.800031 -1.71453 0
M  V30 3437 O 329.119 1.54736 -0.99008 0
M  V30 3438 C 329.181 -0.817523 -3.50081 0
M  V30 3439 C 328.845 -2.22863 -3.98975 0
M  V30 3440 C 329.842 -3.20569 -4.09306 0
M  V30 3441 C 327.527 -2.55407 -4.32519 0
M  V30 3442 C 329.521 -4.4891 -4.52503 0
M  V30 3443 C 327.208 -3.83976 -4.754 0
M  V30 3444 C 328.206 -4.8054 -4.85356 0
M  V30 3445 O 327.894 -6.06817 -5.27284 0
M  V30 3446 H 327.626 -0.235866 -0.633516 0
M  V30 3447 H 330.18 -1.2874 -1.60047 0
M  V30 3448 H 328.41 -0.105992 -3.86555 0
M  V30 3449 H 330.099 -0.491604 -4.02912 0
M  V30 3450 H 330.865 -2.96753 -3.83618 0
M  V30 3451 H 326.744 -1.8097 -4.23994 0
M  V30 3452 H 330.288 -5.24283 -4.60188 0
M  V30 3453 H 326.185 -4.07596 -5.00535 0
M  V30 3454 H 326.953 -6.10262 -5.45457 0
M  V30 3455 N 329.616 1.39756 -0.72842 0
M  V30 3456 C 330.841 2.05472 -0.282159 0
M  V30 3457 C 331.266 1.54549 1.07221 0
M  V30 3458 O 330.624 0.686372 1.67805 0
M  V30 3459 C 330.672 3.59462 -0.286264 0
M  V30 3460 O 329.776 4.05918 0.728298 0
M  V30 3461 H 329.117 0.651226 -0.129618 0
M  V30 3462 H 331.647 1.78915 -0.992499 0
M  V30 3463 H 331.657 4.07798 -0.128373 0
M  V30 3464 H 330.332 3.95889 -1.27456 0
M  V30 3465 H 328.909 3.69012 0.537081 0
M  V30 3466 N 331.094 0.475555 1.50254 0
M  V30 3467 C 332.322 -0.0754493 2.06762 0
M  V30 3468 C 332.737 -1.33111 1.33891 0
M  V30 3469 O 332.094 -1.77846 0.40952 0
M  V30 3470 C 332.145 -0.359008 3.59713 0
M  V30 3471 O 331.866 0.846851 4.29837 0
M  V30 3472 C 333.367 -0.956484 4.32858 0
M  V30 3473 H 330.587 0.00907525 0.670939 0
M  V30 3474 H 333.131 0.665618 1.93364 0
M  V30 3475 H 331.286 -1.05001 3.72899 0
M  V30 3476 H 331.7 0.594162 5.21124 0
M  V30 3477 H 333.174 -1.10463 5.40834 0
M  V30 3478 H 333.651 -1.94775 3.93649 0
M  V30 3479 H 334.257 -0.303723 4.24214 0
M  V30 3480 N 332.573 -1.56217 0.208337 0
M  V30 3481 C 333.819 -1.98242 -0.427552 0
M  V30 3482 C 334.152 -1.09554 -1.60348 0
M  V30 3483 O 333.427 -0.15035 -1.93918 0
M  V30 3484 C 333.71 -3.4931 -0.874907 0
M  V30 3485 C 333.563 -4.48773 0.303751 0
M  V30 3486 C 334.882 -4.04424 -1.73577 0
M  V30 3487 H 332.001 -0.720744 -0.153936 0
M  V30 3488 H 334.643 -1.87586 0.30192 0
M  V30 3489 H 332.793 -3.58522 -1.49648 0
M  V30 3490 H 334.465 -4.51586 0.941682 0
M  V30 3491 H 332.708 -4.23194 0.953375 0
M  V30 3492 H 333.379 -5.51976 -0.0519883 0
M  V30 3493 H 335.855 -3.98075 -1.21143 0
M  V30 3494 H 334.731 -5.1047 -2.01771 0
M  V30 3495 H 334.992 -3.50494 -2.69456 0
M  V30 3496 N 334.051 0.0651679 -1.57465 0
M  V30 3497 C 335.462 0.616213 -1.76238 0
M  V30 3498 C 335.813 1.7756 -0.834689 0
M  V30 3499 O 334.938 2.1639 -0.0204156 0
M  V30 3500 C 335.533 1.12462 -3.1959 0
M  V30 3501 C 334.092 1.62147 -3.39684 0
M  V30 3502 C 333.239 0.543739 -2.71917 0
M  V30 3503 H 336.19 -0.161022 -1.57881 0
M  V30 3504 H 336.211 1.99324 -3.24114 0
M  V30 3505 H 335.723 0.280592 -3.87084 0
M  V30 3506 H 333.824 2.48854 -2.77313 0
M  V30 3507 H 333.937 1.69385 -4.48158 0
M  V30 3508 H 332.301 0.990352 -2.34657 0
M  V30 3509 H 333.084 -0.290216 -3.42071 0
M  V30 3510 N 335.529 1.53961 0.336706 0
M  V30 3511 C 336.777 1.71197 1.07405 0
M  V30 3512 C 337.098 0.481475 1.88962 0
M  V30 3513 O 336.368 -0.504585 1.8929 0
M  V30 3514 H 334.948 0.631185 0.399517 0
M  V30 3515 H 337.61 1.91232 0.376323 0
M  V30 3516 H 336.706 2.58587 1.74755 0
M  V30 3517 N 337.007 -0.598083 1.45811 0
M  V30 3518 C 338.237 -1.38121 1.53643 0
M  V30 3519 C 338.645 -1.88425 0.171081 0
M  V30 3520 O 337.988 -1.63409 -0.839237 0
M  V30 3521 C 338.05 -2.61432 2.46766 0
M  V30 3522 C 337.714 -2.32702 3.93318 0
M  V30 3523 C 338.711 -1.92479 4.82957 0
M  V30 3524 C 336.396 -2.45321 4.38318 0
M  V30 3525 C 338.39 -1.65248 6.15607 0
M  V30 3526 C 336.077 -2.17703 5.71007 0
M  V30 3527 C 337.075 -1.7773 6.5947 0
M  V30 3528 O 336.763 -1.50441 7.89698 0
M  V30 3529 H 336.495 -0.428863 0.522544 0
M  V30 3530 H 339.049 -0.73557 1.91777 0
M  V30 3531 H 337.279 -3.28749 2.0362 0
M  V30 3532 H 338.968 -3.23487 2.45175 0
M  V30 3533 H 339.734 -1.82258 4.49452 0
M  V30 3534 H 335.613 -2.75399 3.69697 0
M  V30 3535 H 339.157 -1.33973 6.84614 0
M  V30 3536 H 335.054 -2.27544 6.04065 0
M  V30 3537 H 335.822 -1.64415 8.01817 0
M  V30 3538 N 338.485 -1.33259 -0.841409 0
M  V30 3539 C 339.715 -1.2742 -1.62628 0
M  V30 3540 C 340.123 0.157604 -1.88542 0
M  V30 3541 O 339.466 1.10938 -1.46419 0
M  V30 3542 C 339.528 -1.97797 -3.00194 0
M  V30 3543 C 339.192 -3.47109 -2.97261 0
M  V30 3544 C 340.189 -4.42358 -2.73159 0
M  V30 3545 C 337.874 -3.89247 -3.17478 0
M  V30 3546 C 339.868 -5.77718 -2.69296 0
M  V30 3547 C 337.555 -5.24713 -3.13241 0
M  V30 3548 C 338.553 -6.1876 -2.89181 0
M  V30 3549 O 338.241 -7.51745 -2.84843 0
M  V30 3550 H 337.973 -0.440436 -0.512827 0
M  V30 3551 H 340.527 -1.76153 -1.05638 0
M  V30 3552 H 338.757 -1.43652 -3.59028 0
M  V30 3553 H 340.446 -1.8549 -3.61038 0
M  V30 3554 H 341.212 -4.11127 -2.57294 0
M  V30 3555 H 337.091 -3.16456 -3.35226 0
M  V30 3556 H 340.635 -6.51097 -2.50436 0
M  V30 3557 H 336.532 -5.55569 -3.28654 0
M  V30 3558 H 337.3 -7.61262 -3.00702 0
M  V30 3559 N 339.963 1.05934 -1.16686 0
M  V30 3560 C 341.188 1.83029 -0.975455 0
M  V30 3561 C 341.613 1.82096 0.471452 0
M  V30 3562 O 340.971 1.22443 1.33706 0
M  V30 3563 C 341.019 3.27372 -1.51195 0
M  V30 3564 O 340.123 4.06054 -0.720701 0
M  V30 3565 H 339.464 0.566194 -0.346872 0
M  V30 3566 H 341.994 1.33541 -1.55009 0
M  V30 3567 H 342.004 3.78186 -1.53099 0
M  V30 3568 H 340.679 3.27366 -2.56523 0
M  V30 3569 H 339.256 3.64812 -0.772458 0
M  V30 3570 N 341.441 0.965919 1.2453 0
M  V30 3571 C 342.687 0.637349 1.93156 0
M  V30 3572 C 343.042 -0.818261 1.74133 0
M  V30 3573 O 342.335 -1.58079 1.08266 0
M  V30 3574 C 342.529 0.945428 3.44669 0
M  V30 3575 C 342.358 2.42944 3.78429 0
M  V30 3576 C 341.128 3.08895 3.9989 0
M  V30 3577 C 343.326 3.40941 3.8505 0
M  V30 3578 N 341.308 4.47052 4.20735 0
M  V30 3579 C 342.679 4.64448 4.10717 0
M  V30 3580 C 344.734 3.35624 3.67779 0
M  V30 3581 C 343.437 5.83292 4.20907 0
M  V30 3582 C 345.463 4.53818 3.79214 0
M  V30 3583 C 344.825 5.76114 4.05304 0
M  V30 3584 H 340.924 0.284034 0.728594 0
M  V30 3585 H 343.508 1.24041 1.50073 0
M  V30 3586 H 341.679 0.371193 3.86622 0
M  V30 3587 H 343.411 0.575613 4.00586 0
M  V30 3588 H 340.166 2.59432 3.96222 0
M  V30 3589 H 340.59 5.18634 4.35141 0
M  V30 3590 H 345.232 2.4211 3.46616 0
M  V30 3591 H 342.95 6.77236 4.40883 0
M  V30 3592 H 346.536 4.51263 3.67224 0
M  V30 3593 H 345.416 6.66045 4.13949 0
M  V30 3594 N 342.919 -1.39368 0.735821 0
M  V30 3595 C 344.335 -1.54204 0.411492 0
M  V30 3596 C 344.535 -1.70268 -1.07755 0
M  V30 3597 O 343.591 -1.70364 -1.86366 0
M  V30 3598 C 344.904 -2.75925 1.19523 0
M  V30 3599 C 346.452 -2.89761 1.18354 0
M  V30 3600 C 346.927 -4.14421 1.94986 0
M  V30 3601 N 348.418 -4.21462 1.92156 0
M  V30 3602 C 349.153 -5.16871 2.48258 0
M  V30 3603 N 348.649 -6.18063 3.13001 0
M  V30 3604 N 350.442 -5.09093 2.38287 0
M  V30 3605 H 342.593 -1.27189 1.70108 0
M  V30 3606 H 344.856 -0.616517 0.720147 0
M  V30 3607 H 344.562 -2.70401 2.24892 0
M  V30 3608 H 344.436 -3.68614 0.800222 0
M  V30 3609 H 346.823 -2.94777 0.137975 0
M  V30 3610 H 346.904 -1.98133 1.61793 0
M  V30 3611 H 346.548 -4.10166 2.99543 0
M  V30 3612 H 346.478 -5.05095 1.48953 0
M  V30 3613 H 348.969 -3.48979 1.44991 0
M  V30 3614 H 349.282 -6.87326 3.53275 0
M  V30 3615 H 347.627 -6.18448 3.17091 0
M  V30 3616 H 350.818 -4.28973 1.8735 0
M  V30 3617 H 350.991 -5.83272 2.82308 0
M  V30 3618 N 344.397 -0.483516 -1.5 0
M  V30 3619 C 345.622 0.0667119 -2.07293 0
M  V30 3620 C 346.047 1.3164 -1.3436 0
M  V30 3621 O 345.405 1.76945 -0.394987 0
M  V30 3622 C 345.453 0.321126 -3.59167 0
M  V30 3623 O 344.557 1.39927 -3.87936 0
M  V30 3624 H 343.898 -0.0184758 -0.663743 0
M  V30 3625 H 346.428 -0.678125 -1.93035 0
M  V30 3626 H 346.438 0.557906 -4.04168 0
M  V30 3627 H 345.113 -0.592007 -4.11665 0
M  V30 3628 H 343.69 1.14882 -3.54763 0
M  V30 3629 N 345.875 1.56104 -0.216619 0
M  V30 3630 C 347.286 1.844 0.292128 0
M  V30 3631 C 347.637 1.13788 1.59833 0
M  V30 3632 O 346.762 0.405888 2.12559 0
M  V30 3633 C 347.357 3.3452 0.53681 0
M  V30 3634 C 345.916 3.63151 0.989876 0
M  V30 3635 C 345.063 2.77255 0.0502302 0
M  V30 3636 H 348.014 1.52481 -0.439926 0
M  V30 3637 H 348.035 3.54459 1.38345 0
M  V30 3638 H 347.547 3.85885 -0.414031 0
M  V30 3639 H 345.648 3.17238 1.95425 0
M  V30 3640 H 345.761 4.71177 0.867698 0
M  V30 3641 H 344.125 2.48555 0.556117 0
M  V30 3642 H 344.908 3.31416 -0.89544 0
M  V30 3643 N 347.353 -0.0568162 1.57498 0
M  V30 3644 C 348.601 -0.751617 1.87604 0
M  V30 3645 C 348.922 -1.77351 0.81066 0
M  V30 3646 O 348.192 -1.95254 -0.159018 0
M  V30 3647 H 346.772 -0.280583 0.692302 0
M  V30 3648 H 349.434 -0.0293483 1.94878 0
M  V30 3649 H 348.53 -1.25852 2.856 0
M  V30 3650 N 348.832 -1.54138 -0.328536 0
M  V30 3651 C 350.248 -1.44736 -0.672574 0
M  V30 3652 C 350.448 -0.616217 -1.91846 0
M  V30 3653 O 349.504 -0.113067 -2.52247 0
M  V30 3654 C 350.817 -2.884 -0.851217 0
M  V30 3655 C 352.365 -2.98271 -0.948877 0
M  V30 3656 C 352.84 -4.43074 -1.15973 0
M  V30 3657 N 354.331 -4.46665 -1.22658 0
M  V30 3658 C 355.066 -5.55857 -1.40751 0
M  V30 3659 N 354.562 -6.75026 -1.5592 0
M  V30 3660 N 356.355 -5.43495 -1.4342 0
M  V30 3661 H 348.506 -2.06661 0.490421 0
M  V30 3662 H 350.769 -0.934812 0.157579 0
M  V30 3663 H 350.475 -3.51699 -0.00704236 0
M  V30 3664 H 350.349 -3.34225 -1.74853 0
M  V30 3665 H 352.736 -2.35102 -1.78356 0
M  V30 3666 H 352.817 -2.55785 -0.0281435 0
M  V30 3667 H 352.461 -5.06827 -0.329915 0
M  V30 3668 H 352.391 -4.83165 -2.09426 0
M  V30 3669 H 354.882 -3.60797 -1.124 0
M  V30 3670 H 355.195 -7.54004 -1.69404 0
M  V30 3671 H 353.54 -6.77944 -1.53027 0
M  V30 3672 H 356.731 -4.49349 -1.31162 0
M  V30 3673 H 356.904 -6.28649 -1.57178 0
M  V30 3674 N 350.31 0.590341 -1.46126 0
M  V30 3675 C 351.558 1.34616 -1.50742 0
M  V30 3676 C 351.879 1.94363 -0.157486 0
M  V30 3677 O 351.149 1.78136 0.815136 0
M  V30 3678 H 349.729 0.499789 -0.555175 0
M  V30 3679 H 352.391 0.691953 -1.82203 0
M  V30 3680 H 351.487 2.15678 -2.25587 0
M  V30 3681 N 351.788 1.33704 0.83433 0
M  V30 3682 C 353.013 1.28615 1.62705 0
M  V30 3683 C 353.438 -0.139242 1.87584 0
M  V30 3684 O 352.796 -1.09734 1.4432 0
M  V30 3685 C 352.844 2.07139 2.95171 0
M  V30 3686 O 351.948 1.4331 3.86699 0
M  V30 3687 H 351.289 0.44226 0.49528 0
M  V30 3688 H 353.819 1.76335 1.03766 0
M  V30 3689 H 353.829 2.18073 3.44831 0
M  V30 3690 H 352.504 3.10779 2.76386 0
M  V30 3691 H 351.081 1.4105 3.45195 0
M  V30 3692 N 353.266 -1.05314 1.17247 0
M  V30 3693 C 354.512 -1.78699 0.971513 0
M  V30 3694 C 354.867 -1.85932 -0.494692 0
M  V30 3695 O 354.16 -1.34716 -1.36243 0
M  V30 3696 C 354.354 -3.2229 1.54479 0
M  V30 3697 C 354.183 -3.29052 3.06521 0
M  V30 3698 C 352.953 -3.3841 3.75242 0
M  V30 3699 C 355.151 -3.18095 4.04129 0
M  V30 3700 N 353.133 -3.34289 5.14902 0
M  V30 3701 C 354.504 -3.21331 5.30232 0
M  V30 3702 C 356.559 -3.02049 3.95817 0
M  V30 3703 C 355.262 -3.10169 6.4899 0
M  V30 3704 C 357.288 -2.92228 5.14156 0
M  V30 3705 C 356.65 -2.96096 6.39145 0
M  V30 3706 H 352.749 -0.66628 0.409383 0
M  V30 3707 H 355.333 -1.25553 1.4881 0
M  V30 3708 H 353.504 -3.7381 1.05455 0
M  V30 3709 H 355.236 -3.83905 1.28059 0
M  V30 3710 H 351.991 -3.43621 3.25917 0
M  V30 3711 H 352.415 -3.35702 5.87906 0
M  V30 3712 H 357.057 -2.97897 3.00029 0
M  V30 3713 H 354.775 -3.13076 7.44989 0
M  V30 3714 H 358.361 -2.80885 5.09505 0
M  V30 3715 H 357.241 -2.88568 7.29176 0
M  V30 3716 N 354.744 -0.972509 -1.24016 0
M  V30 3717 C 355.991 -0.637034 -1.92219 0
M  V30 3718 C 356.319 0.828418 -1.75976 0
M  V30 3719 O 355.574 1.61206 -1.10955 0
M  V30 3720 C 355.873 -0.963694 -3.44162 0
M  V30 3721 C 355.539 -2.41807 -3.80579 0
M  V30 3722 C 354.201 -2.81556 -3.9023 0
M  V30 3723 C 356.553 -3.36172 -3.98293 0
M  V30 3724 C 353.881 -4.14702 -4.15017 0
M  V30 3725 C 356.233 -4.68952 -4.24578 0
M  V30 3726 C 354.897 -5.08472 -4.32449 0
M  V30 3727 H 354.167 -0.233107 -0.703379 0
M  V30 3728 H 356.814 -1.2249 -1.47202 0
M  V30 3729 H 355.119 -0.29365 -3.90698 0
M  V30 3730 H 356.816 -0.682449 -3.9515 0
M  V30 3731 H 353.406 -2.09988 -3.73635 0
M  V30 3732 H 357.59 -3.06644 -3.90234 0
M  V30 3733 H 352.846 -4.4494 -4.19331 0
M  V30 3734 H 357.02 -5.42037 -4.37229 0
M  V30 3735 H 354.647 -6.11665 -4.51409 0
M  V30 3736 N 356.222 1.38976 -0.743202 0
M  V30 3737 C 357.468 2.0064 -0.295189 0
M  V30 3738 C 357.801 1.5885 1.11716 0
M  V30 3739 O 357.076 0.821181 1.76315 0
M  V30 3740 C 357.359 3.578 -0.406318 0
M  V30 3741 C 357.212 4.09586 -1.85903 0
M  V30 3742 C 358.531 4.39616 0.206439 0
M  V30 3743 H 355.65 0.728935 -0.108733 0
M  V30 3744 H 358.292 1.65067 -0.940897 0
M  V30 3745 H 356.442 3.88235 0.143419 0
M  V30 3746 H 358.114 3.89837 -2.46627 0
M  V30 3747 H 356.357 3.6284 -2.3776 0
M  V30 3748 H 357.028 5.18708 -1.888 0
M  V30 3749 H 359.504 4.15273 -0.262283 0
M  V30 3750 H 358.38 5.48812 0.0983819 0
M  V30 3751 H 358.641 4.22754 1.2935 0
M  V30 3752 N 357.7 0.491464 1.49741 0
M  V30 3753 C 358.632 -0.328609 2.26832 0
M  V30 3754 C 359.645 -0.939113 1.32983 0
M  V30 3755 O 360.834 -0.824067 1.58339 0
M  V30 3756 C 357.934 -1.47675 3.05033 0
M  V30 3757 C 357.107 -0.975305 4.26388 0
M  V30 3758 C 356.166 -1.99991 4.86714 0
M  V30 3759 O 355.192 -1.57229 5.47054 0
M  V30 3760 N 356.394 -3.32962 4.75517 0
M  V30 3761 H 359.159 0.332377 2.97851 0
M  V30 3762 H 356.72 0.323441 1.58636 0
M  V30 3763 H 358.712 -2.15954 3.42266 0
M  V30 3764 H 357.282 -2.04206 2.36683 0
M  V30 3765 H 356.502 -0.117723 3.94024 0
M  V30 3766 H 357.79 -0.618531 5.05026 0
M  V30 3767 H 357.188 -3.70399 4.27576 0
M  V30 3768 H 355.745 -3.96982 5.16961 0
M  V30 3769 N 359.178 -1.55987 0.224894 0
M  V30 3770 C 360.141 -2.19178 -0.670348 0
M  V30 3771 C 361.141 -1.15461 -1.11917 0
M  V30 3772 O 362.331 -1.40675 -1.02743 0
M  V30 3773 C 359.463 -2.81777 -1.9187 0
M  V30 3774 H 360.656 -2.99662 -0.119364 0
M  V30 3775 H 358.209 -1.5628 -0.0247128 0
M  V30 3776 H 358.944 -2.05172 -2.51147 0
M  V30 3777 H 358.729 -3.57732 -1.60531 0
M  V30 3778 H 360.219 -3.30205 -2.55645 0
M  V30 3779 N 360.656 0.0484629 -1.57525 0
M  V30 3780 C 361.586 1.0549 -2.08313 0
M  V30 3781 C 362.567 1.38929 -0.981463 0
M  V30 3782 O 363.752 1.48151 -1.25558 0
M  V30 3783 C 360.882 2.36162 -2.54646 0
M  V30 3784 C 359.836 2.17016 -3.68901 0
M  V30 3785 C 359.162 3.53278 -4.01371 0
M  V30 3786 C 360.462 1.57219 -4.98076 0
M  V30 3787 H 362.156 0.632195 -2.92649 0
M  V30 3788 H 359.702 0.302654 -1.40784 0
M  V30 3789 H 361.655 3.06882 -2.88793 0
M  V30 3790 H 360.379 2.80456 -1.67368 0
M  V30 3791 H 359.038 1.48733 -3.35073 0
M  V30 3792 H 358.686 3.95185 -3.11188 0
M  V30 3793 H 358.386 3.41299 -4.78318 0
M  V30 3794 H 359.91 4.25391 -4.38035 0
M  V30 3795 H 361.324 2.17832 -5.30304 0
M  V30 3796 H 359.721 1.55871 -5.79503 0
M  V30 3797 H 360.791 0.535956 -4.81929 0
M  V30 3798 N 362.134 1.5431 0.320358 0
M  V30 3799 C 363.374 1.74395 1.0661 0
M  V30 3800 C 363.738 0.508602 1.85141 0
M  V30 3801 O 364.939 0.586856 2.62316 0
M  V30 3802 C 363.21 2.98619 1.96371 0
M  V30 3803 S 364.769 3.39621 2.77854 0
M  V30 3804 H 361.587 0.613204 0.359863 0
M  V30 3805 H 364.189 1.9249 0.341727 0
M  V30 3806 H 362.893 3.86673 1.3752 0
M  V30 3807 H 362.424 2.83055 2.73209 0
M  V30 3808 H 364.439 2.95172 3.98858 0
M  V30 3809 N 363.613 -0.582584 1.46437 0
M  V30 3810 C 364.838 -1.37168 1.55563 0
M  V30 3811 C 365.263 -1.87061 0.19743 0
M  V30 3812 O 364.621 -1.61572 -0.822451 0
M  V30 3813 C 364.669 -2.53511 2.56446 0
M  V30 3814 O 363.773 -3.54953 2.09958 0
M  V30 3815 H 363.114 -0.408494 0.523477 0
M  V30 3816 H 365.644 -0.706646 1.9201 0
M  V30 3817 H 365.654 -3.00426 2.76058 0
M  V30 3818 H 364.329 -2.16549 3.55076 0
M  V30 3819 H 362.906 -3.14516 2.00334 0
M  V30 3820 N 365.091 -1.34144 -0.827227 0
M  V30 3821 C 366.34 -1.25602 -1.5782 0
M  V30 3822 C 366.653 0.173445 -1.94829 0
M  V30 3823 O 367.859 0.380984 -2.68814 0
M  V30 3824 C 366.315 -2.20151 -2.84713 0
M  V30 3825 C 365.923 -3.68331 -2.55021 0
M  V30 3826 C 367.667 -2.20508 -3.62735 0
M  V30 3827 C 365.574 -4.54762 -3.78082 0
M  V30 3828 H 364.504 -0.466573 -0.592306 0
M  V30 3829 H 367.155 -1.59283 -0.911116 0
M  V30 3830 H 365.537 -1.79417 -3.53023 0
M  V30 3831 H 366.711 -4.17577 -1.94849 0
M  V30 3832 H 365.026 -3.7038 -1.90283 0
M  V30 3833 H 367.623 -2.82306 -4.54101 0
M  V30 3834 H 367.966 -1.20322 -3.98533 0
M  V30 3835 H 368.499 -2.59664 -3.01362 0
M  V30 3836 H 365.238 -5.55867 -3.47407 0
M  V30 3837 H 364.758 -4.10254 -4.37552 0
M  V30 3838 H 366.437 -4.69153 -4.45538 0
M  V30 3839 N 366.569 1.04691 -1.17803 0
M  V30 3840 C 367.499 2.14494 -0.92275 0
M  V30 3841 C 368.48 1.69546 0.137179 0
M  V30 3842 O 369.665 1.94195 -0.0141108 0
M  V30 3843 C 366.795 3.44491 -0.440803 0
M  V30 3844 C 365.749 4.03031 -1.4405 0
M  V30 3845 C 365.075 5.28432 -0.81631 0
M  V30 3846 C 366.375 4.39932 -2.81527 0
M  V30 3847 H 368.069 2.36107 -1.84103 0
M  V30 3848 H 365.615 1.1347 -0.886599 0
M  V30 3849 H 367.568 4.2066 -0.249602 0
M  V30 3850 H 366.292 3.22546 0.513025 0
M  V30 3851 H 364.951 3.28937 -1.61853 0
M  V30 3852 H 364.599 5.02792 0.144511 0
M  V30 3853 H 364.299 5.68559 -1.48371 0
M  V30 3854 H 365.823 6.07284 -0.635496 0
M  V30 3855 H 367.237 5.07113 -2.67412 0
M  V30 3856 H 365.634 4.9109 -3.44892 0
M  V30 3857 H 366.704 3.50045 -3.35554 0
M  V30 3858 N 368.047 0.979072 1.23499 0
M  V30 3859 C 368.957 0.526431 2.28617 0
M  V30 3860 C 369.973 -0.418126 1.68901 0
M  V30 3861 O 371.149 -0.288372 1.99325 0
M  V30 3862 C 368.214 -0.165235 3.46306 0
M  V30 3863 C 367.275 0.82056 4.21385 0
M  V30 3864 C 366.508 0.161807 5.33455 0
M  V30 3865 O 366.731 -1.04742 5.60701 0
M  V30 3866 O 365.665 0.859708 5.95729 0
M  V30 3867 H 369.491 1.4006 2.69475 0
M  V30 3868 H 367.076 0.746643 1.29405 0
M  V30 3869 H 368.958 -0.553287 4.17752 0
M  V30 3870 H 367.633 -1.01419 3.07402 0
M  V30 3871 H 366.54 1.25929 3.52268 0
M  V30 3872 H 367.873 1.63828 4.64135 0
M  V30 3873 N 369.525 -1.3858 0.750561 0
M  V30 3874 C 370.435 -2.34278 0.122825 0
M  V30 3875 C 371.451 -1.59116 -0.704131 0
M  V30 3876 O 372.627 -1.91326 -0.628987 0
M  V30 3877 C 369.692 -3.38221 -0.762086 0
M  V30 3878 C 368.753 -4.29227 0.078896 0
M  V30 3879 C 367.986 -5.28205 -0.763874 0
M  V30 3880 O 368.209 -5.34112 -2.00201 0
M  V30 3881 O 367.143 -6.01618 -0.18428 0
M  V30 3882 H 370.969 -2.89649 0.913088 0
M  V30 3883 H 368.554 -1.40374 0.511417 0
M  V30 3884 H 370.436 -4.01872 -1.26793 0
M  V30 3885 H 369.111 -2.85211 -1.5309 0
M  V30 3886 H 368.018 -3.68747 0.630621 0
M  V30 3887 H 369.351 -4.85484 0.810289 0
M  V30 3888 N 371.003 -0.499398 -1.49478 0
M  V30 3889 C 371.953 0.299103 -2.2603 0
M  V30 3890 C 372.937 0.936934 -1.30807 0
M  V30 3891 O 374.129 0.844798 -1.55538 0
M  V30 3892 C 371.258 1.36391 -3.15044 0
M  V30 3893 C 370.344 0.732398 -4.17728 0
M  V30 3894 N 370.735 -0.164028 -5.05534 0
M  V30 3895 C 369.033 0.993162 -4.34801 0
M  V30 3896 C 369.734 -0.525345 -5.79323 0
M  V30 3897 N 368.71 0.106348 -5.43496 0
M  V30 3898 H 372.512 -0.391003 -2.91287 0
M  V30 3899 H 370.026 -0.31537 -1.59308 0
M  V30 3900 H 372.023 1.94939 -3.68516 0
M  V30 3901 H 370.683 2.05571 -2.51338 0
M  V30 3902 H 371.694 -0.534736 -5.15132 0
M  V30 3903 H 368.371 1.67783 -3.82302 0
M  V30 3904 H 369.761 -1.25862 -6.60006 0
M  V30 3905 N 372.481 1.55866 -0.233164 0
M  V30 3906 C 373.729 1.9821 0.394593 0
M  V30 3907 C 374.05 1.12234 1.59463 0
M  V30 3908 O 373.32 0.201981 1.94856 0
M  V30 3909 H 371.9 0.732034 0.148778 0
M  V30 3910 H 374.562 1.92107 -0.32876 0
M  V30 3911 H 373.658 3.03845 0.713063 0
M  V30 3912 N 373.959 -0.0401083 1.57549 0
M  V30 3913 C 374.906 -1.04413 2.05831 0
M  V30 3914 C 375.876 -1.36585 0.945184 0
M  V30 3915 O 377.061 -1.47112 1.21502 0
M  V30 3916 C 374.201 -2.34336 2.53339 0
M  V30 3917 C 373.314 -2.08419 3.78398 0
M  V30 3918 C 372.449 -3.32133 4.14561 0
M  V30 3919 C 371.488 -3.01721 5.3257 0
M  V30 3920 N 370.625 -4.17855 5.64218 0
M  V30 3921 H 375.465 -0.625442 2.91363 0
M  V30 3922 H 373.002 -0.297218 1.44066 0
M  V30 3923 H 374.96 -3.10234 2.78946 0
M  V30 3924 H 373.59 -2.73948 1.7074 0
M  V30 3925 H 372.642 -1.23069 3.59942 0
M  V30 3926 H 373.954 -1.81978 4.64419 0
M  V30 3927 H 373.108 -4.16406 4.41238 0
M  V30 3928 H 371.847 -3.61678 3.2717 0
M  V30 3929 H 370.852 -2.15849 5.05657 0
M  V30 3930 H 372.077 -2.73466 6.21605 0
M  V30 3931 H 370.023 -4.47372 4.79786 0
M  V30 3932 H 369.94 -3.94798 6.44725 0
M  V30 3933 H 371.208 -5.03033 5.95465 0
M  V30 3934 N 375.437 -1.54477 -0.31217 0
M  V30 3935 C 376.714 -1.63891 -1.06767 0
M  V30 3936 C 377.094 -0.480028 -2.0557 0
M  V30 3937 O 376.442 0.524487 -2.22399 0
M  V30 3938 C 376.652 -3.01402 -1.75948 0
M  V30 3939 C 378 -3.57838 -2.28554 0
M  V30 3940 O 379.024 -3.03782 -1.85998 0
M  V30 3941 O 377.883 -4.52462 -3.06497 0
M  V30 3942 H 374.977 -0.664125 -0.492816 0
M  V30 3943 H 377.523 -1.66823 -0.311149 0
M  V30 3944 H 376.295 -3.77187 -1.04144 0
M  V30 3945 H 375.918 -3.02199 -2.58383 0
M  V30 3946 N 376.915 0.57481 -1.46744 0
M  V30 3947 C 377.845 1.69337 -1.60771 0
M  V30 3948 C 378.826 1.63825 -0.457736 0
M  V30 3949 O 380.011 1.8172 -0.684947 0
M  V30 3950 C 377.141 3.0798 -1.60517 0
M  V30 3951 C 376.095 3.28327 -2.74564 0
M  V30 3952 C 375.421 4.67578 -2.59373 0
M  V30 3953 C 376.721 3.15398 -4.16319 0
M  V30 3954 H 378.415 1.57853 -2.54407 0
M  V30 3955 H 375.961 0.75799 -1.22436 0
M  V30 3956 H 377.914 3.86061 -1.68923 0
M  V30 3957 H 376.638 3.20381 -0.634305 0
M  V30 3958 H 375.297 2.52649 -2.65639 0
M  V30 3959 H 374.945 4.76755 -1.60353 0
M  V30 3960 H 374.645 4.82144 -3.35873 0
M  V30 3961 H 376.169 5.47817 -2.69682 0
M  V30 3962 H 377.583 3.83315 -4.26313 0
M  V30 3963 H 375.98 3.41482 -4.93468 0
M  V30 3964 H 377.05 2.12372 -4.3592 0
M  V30 3965 N 378.394 1.34581 0.820102 0
M  V30 3966 C 379.304 1.28471 1.96297 0
M  V30 3967 C 380.32 0.191902 1.72939 0
M  V30 3968 O 381.496 0.418879 1.96996 0
M  V30 3969 C 378.561 1.04281 3.30645 0
M  V30 3970 C 377.622 2.22745 3.66992 0
M  V30 3971 C 376.855 1.997 4.9493 0
M  V30 3972 O 377.078 0.956656 5.6232 0
M  V30 3973 O 376.012 2.86723 5.2922 0
M  V30 3974 H 379.838 2.24624 2.04396 0
M  V30 3975 H 377.423 1.14816 0.955913 0
M  V30 3976 H 379.305 0.925841 4.11104 0
M  V30 3977 H 377.98 0.111697 3.23507 0
M  V30 3978 H 376.887 2.40003 2.86966 0
M  V30 3979 H 378.22 3.14257 3.78819 0
M  V30 3980 N 379.872 -1.04064 1.18357 0
M  V30 3981 C 381.121 -1.76662 0.973313 0
M  V30 3982 C 381.434 -1.89154 -0.497991 0
M  V30 3983 O 382.64 -2.58606 -0.826762 0
M  V30 3984 C 381.096 -3.17624 1.69242 0
M  V30 3985 C 380.704 -3.13225 3.20303 0
M  V30 3986 C 382.448 -3.946 1.56497 0
M  V30 3987 C 380.355 -4.49046 3.84853 0
M  V30 3988 H 379.285 -0.662214 0.36054 0
M  V30 3989 H 381.936 -1.16553 1.41731 0
M  V30 3990 H 380.318 -3.78129 1.1762 0
M  V30 3991 H 381.492 -2.62172 3.78949 0
M  V30 3992 H 379.807 -2.49749 3.33189 0
M  V30 3993 H 382.404 -4.95042 2.02084 0
M  V30 3994 H 382.747 -4.13074 0.517243 0
M  V30 3995 H 383.28 -3.4067 2.05399 0
M  V30 3996 H 380.019 -4.35777 4.89672 0
M  V30 3997 H 379.539 -5.00203 3.30994 0
M  V30 3998 H 381.218 -5.17961 3.87718 0
M  V30 3999 N 381.35 -0.985608 -1.22978 0
M  V30 4000 C 382.283 -0.47487 -2.23204 0
M  V30 4001 C 383.261 0.460865 -1.55932 0
M  V30 4002 O 384.445 0.388105 -1.84461 0
M  V30 4003 C 381.572 0.312427 -3.37256 0
M  V30 4004 C 380.618 -0.568219 -4.22698 0
M  V30 4005 S 381.451 -2.01919 -4.95973 0
M  V30 4006 C 382.607 -1.24118 -6.1347 0
M  V30 4007 H 382.84 -1.32419 -2.66181 0
M  V30 4008 H 380.373 -0.792005 -1.32539 0
M  V30 4009 H 382.331 0.760645 -4.03391 0
M  V30 4010 H 380.992 1.13693 -2.92801 0
M  V30 4011 H 380.185 0.0371657 -5.03986 0
M  V30 4012 H 379.787 -0.952897 -3.61657 0
M  V30 4013 H 382.079 -0.505121 -6.75614 0
M  V30 4014 H 383.022 -2.02907 -6.78406 0
M  V30 4015 H 383.43 -0.757669 -5.59392 0
M  V30 4016 N 382.828 1.3818 -0.7579 0
M  V30 4017 C 383.76 2.2901 -0.0932177 0
M  V30 4018 C 384.773 1.47958 0.679136 0
M  V30 4019 O 385.962 1.70773 0.519514 0
M  V30 4020 C 383.062 3.26953 0.89192 0
M  V30 4021 C 382.235 4.37045 0.176303 0
M  V30 4022 C 381.294 5.15148 1.07281 0
M  V30 4023 O 380.32 5.66616 0.541728 0
M  V30 4024 N 381.522 5.28542 2.40049 0
M  V30 4025 H 384.287 2.86694 -0.873303 0
M  V30 4026 H 381.848 1.50007 -0.609054 0
M  V30 4027 H 383.84 3.76083 1.49479 0
M  V30 4028 H 382.41 2.70136 1.57306 0
M  V30 4029 H 381.63 3.89493 -0.607328 0
M  V30 4030 H 382.918 5.07801 -0.318718 0
M  V30 4031 H 382.316 4.88285 2.85647 0
M  V30 4032 H 380.873 5.8103 2.95376 0
M  V30 4033 N 384.306 0.507319 1.49211 0
M  V30 4034 C 385.555 -0.0368315 2.01666 0
M  V30 4035 C 385.868 -1.37459 1.39156 0
M  V30 4036 O 387.074 -2.00579 1.82976 0
M  V30 4037 C 385.53 -0.116089 3.59713 0
M  V30 4038 C 385.138 1.2154 4.31198 0
M  V30 4039 C 386.882 -0.610268 4.2009 0
M  V30 4040 C 384.789 1.09796 5.81119 0
M  V30 4041 H 383.719 -0.0175376 0.753796 0
M  V30 4042 H 386.37 0.647691 1.71689 0
M  V30 4043 H 384.752 -0.8652 3.86433 0
M  V30 4044 H 385.926 1.9783 4.16173 0
M  V30 4045 H 384.241 1.64352 3.82593 0
M  V30 4046 H 386.838 -0.715742 5.29888 0
M  V30 4047 H 387.181 -1.61064 3.8388 0
M  V30 4048 H 387.714 0.0824916 3.97714 0
M  V30 4049 H 384.453 2.0728 6.21864 0
M  V30 4050 H 383.973 0.376058 5.9862 0
M  V30 4051 H 385.652 0.779281 6.4229 0
M  V30 4052 N 385.784 -1.5574 0.241426 0
M  V30 4053 C 386.714 -2.24133 -0.654722 0
M  V30 4054 C 387.695 -1.21974 -1.1856 0
M  V30 4055 O 388.88 -1.50612 -1.22595 0
M  V30 4056 C 386.01 -2.93659 -1.85423 0
M  V30 4057 C 384.964 -4.0246 -1.45636 0
M  V30 4058 C 384.29 -4.59383 -2.73626 0
M  V30 4059 C 385.59 -5.18468 -0.631506 0
M  V30 4060 H 387.284 -2.99281 -0.0844353 0
M  V30 4061 H 384.83 -1.43947 -0.0391707 0
M  V30 4062 H 386.783 -3.40203 -2.48676 0
M  V30 4063 H 385.507 -2.15991 -2.44981 0
M  V30 4064 H 384.166 -3.56676 -0.847202 0
M  V30 4065 H 383.814 -3.78422 -3.3137 0
M  V30 4066 H 383.514 -5.32826 -2.4773 0
M  V30 4067 H 385.038 -5.08658 -3.37786 0
M  V30 4068 H 386.452 -5.61272 -1.1682 0
M  V30 4069 H 384.849 -5.98266 -0.468831 0
M  V30 4070 H 385.919 -4.8358 0.357506 0
M  V30 4071 N 387.262 0.0317525 -1.57568 0
M  V30 4072 C 388.49 0.734949 -1.93407 0
M  V30 4073 C 388.905 1.69036 -0.84096 0
M  V30 4074 O 388.262 1.81582 0.182836 0
M  V30 4075 C 388.313 1.49432 -3.29169 0
M  V30 4076 O 388.034 0.577261 -4.3428 0
M  V30 4077 C 389.535 2.29492 -3.79273 0
M  V30 4078 H 386.755 0.206706 -0.638368 0
M  V30 4079 H 389.299 -0.00992046 -2.04498 0
M  V30 4080 H 387.454 2.1911 -3.19483 0
M  V30 4081 H 387.868 1.10952 -5.1263 0
M  V30 4082 H 389.342 2.78172 -4.76785 0
M  V30 4083 H 389.819 3.10794 -3.10328 0
M  V30 4084 H 390.425 1.64894 -3.92033 0
M  V30 4085 N 388.74 1.54641 0.303973 0
M  V30 4086 C 390.156 1.45788 0.649463 0
M  V30 4087 C 390.356 0.64666 1.90842 0
M  V30 4088 O 389.412 0.153183 2.52035 0
M  V30 4089 C 390.725 2.89718 0.805227 0
M  V30 4090 C 392.273 2.99742 0.901305 0
M  V30 4091 C 392.748 4.44863 1.08909 0
M  V30 4092 N 394.239 4.48559 1.15536 0
M  V30 4093 C 394.974 5.58026 1.3189 0
M  V30 4094 N 394.47 6.77422 1.45161 0
M  V30 4095 N 396.263 5.45708 1.34755 0
M  V30 4096 H 388.414 2.05854 -0.523237 0
M  V30 4097 H 390.677 0.932186 -0.172431 0
M  V30 4098 H 390.383 3.51666 -0.0489108 0
M  V30 4099 H 390.257 3.36964 1.69513 0
M  V30 4100 H 392.644 2.3791 1.74593 0
M  V30 4101 H 392.725 2.55797 -0.0125531 0
M  V30 4102 H 392.369 5.07288 0.249241 0
M  V30 4103 H 392.299 4.86436 2.01713 0
M  V30 4104 H 394.79 3.6254 1.06646 0
M  V30 4105 H 395.103 7.56604 1.57387 0
M  V30 4106 H 393.448 6.80292 1.42223 0
M  V30 4107 H 396.639 4.51378 1.23996 0
M  V30 4108 H 396.812 6.3107 1.47157 0
M  V30 4109 N 390.218 -0.567019 1.47046 0
M  V30 4110 C 391.464 -1.32658 1.53394 0
M  V30 4111 C 391.797 -1.93254 0.19148 0
M  V30 4112 O 391.072 -1.77338 -0.798844 0
M  V30 4113 C 391.355 -2.44412 2.64452 0
M  V30 4114 C 391.208 -1.88749 4.08282 0
M  V30 4115 C 392.527 -3.46387 2.71485 0
M  V30 4116 H 389.646 -0.48098 0.558415 0
M  V30 4117 H 392.288 -0.635481 1.79058 0
M  V30 4118 H 390.438 -3.03363 2.427 0
M  V30 4119 H 392.11 -1.34134 4.41368 0
M  V30 4120 H 390.353 -1.19481 4.17021 0
M  V30 4121 H 391.024 -2.69491 4.81745 0
M  V30 4122 H 393.5 -2.9734 2.91081 0
M  V30 4123 H 392.376 -4.2202 3.50985 0
M  V30 4124 H 392.637 -4.04616 1.78153 0
M  V30 4125 N 391.696 -1.35014 -0.812953 0
M  V30 4126 C 392.644 -1.27435 -1.94585 0
M  V30 4127 C 393.638 -0.170494 -1.6854 0
M  V30 4128 O 394.844 -0.336085 -1.76835 0
M  V30 4129 H 391.219 -0.396144 -0.639198 0
M  V30 4130 H 393.19 -2.23158 -1.98098 0
M  V30 4131 C 391.939 -1.05677 -3.31252 0
M  V30 4132 H 391.262 -1.89853 -3.51846 0
M  V30 4133 H 392.702 -1.04413 -4.10943 0
M  V30 4134 C 391.161 0.239615 -3.36047 0
M  V30 4135 O 391.691 1.23759 -3.8216 0
M  V30 4136 N 389.897 0.276186 -2.89285 0
M  V30 4137 H 389.444 -0.53653 -2.51951 0
M  V30 4138 H 389.402 1.14332 -2.92875 0
M  V30 4139 N 393.175 1.03435 -1.18907 0
M  V30 4140 C 394.452 1.73778 -0.89781 0
M  V30 4141 C 394.832 2.02458 0.597832 0
M  V30 4142 O 394.18 1.67482 1.55441 0
M  V30 4143 C 394.39 3.01845 -1.75187 0
M  V30 4144 C 395.738 3.7546 -1.9828 0
M  V30 4145 O 396.762 3.11759 -1.72293 0
M  V30 4146 O 395.621 4.89966 -2.42065 0
M  V30 4147 H 392.715 0.75651 -0.334098 0
M  V30 4148 H 395.261 1.09444 -1.29693 0
M  V30 4149 H 394.033 2.76836 -2.76545 0
M  V30 4150 H 393.656 3.73919 -1.35167 0
M  V30 4151 N 394.653 0.992116 1.22453 0
M  V30 4152 C 396.069 0.702713 1.43297 0
M  V30 4153 C 396.269 -0.726909 1.87932 0
M  V30 4154 O 395.325 -1.49792 2.0327 0
M  V30 4155 C 396.638 1.70762 2.47509 0
M  V30 4156 C 398.186 1.72298 2.61309 0
M  V30 4157 C 398.661 2.71649 3.68742 0
M  V30 4158 N 400.152 2.70239 3.76199 0
M  V30 4159 C 400.887 3.43778 4.58917 0
M  V30 4160 N 400.383 4.26914 5.45633 0
M  V30 4161 N 402.176 3.32487 4.5322 0
M  V30 4162 H 394.327 1.91543 0.917871 0
M  V30 4163 H 396.59 0.826031 0.465162 0
M  V30 4164 H 396.296 2.73059 2.21657 0
M  V30 4165 H 396.17 1.49985 3.46099 0
M  V30 4166 H 398.557 0.706989 2.86506 0
M  V30 4167 H 398.638 1.97143 1.62997 0
M  V30 4168 H 398.282 3.73397 3.44292 0
M  V30 4169 H 398.212 2.44074 4.66622 0
M  V30 4170 H 400.703 2.09912 3.14237 0
M  V30 4171 H 401.016 4.79855 6.05771 0
M  V30 4172 H 399.361 4.31002 5.45218 0
M  V30 4173 H 402.552 2.6698 3.84499 0
M  V30 4174 H 402.725 3.90058 5.17454 0
M  V30 4175 N 396.131 -1.37776 0.765217 0
M  V30 4176 C 397.377 -2.00145 0.327072 0
M  V30 4177 C 397.71 -1.60607 -1.09175 0
M  V30 4178 O 396.985 -0.849127 -1.74986 0
M  V30 4179 C 397.268 -3.57109 0.46319 0
M  V30 4180 C 397.121 -4.06576 1.92395 0
M  V30 4181 C 398.44 -4.39888 -0.136473 0
M  V30 4182 H 395.559 -0.727113 0.120316 0
M  V30 4183 H 398.201 -1.63549 0.967039 0
M  V30 4184 H 396.351 -3.88414 -0.0816358 0
M  V30 4185 H 398.023 -3.85864 2.52798 0
M  V30 4186 H 396.266 -3.59011 2.43503 0
M  V30 4187 H 396.937 -5.15639 1.97028 0
M  V30 4188 H 399.413 -4.14803 0.328317 0
M  V30 4189 H 398.289 -5.48899 -0.0110582 0
M  V30 4190 H 398.55 -4.24758 -1.22608 0
M  V30 4191 N 397.609 -0.515225 -1.4894 0
M  V30 4192 C 398.572 0.244681 -2.2789 0
M  V30 4193 C 399.572 0.881166 -1.34507 0
M  V30 4194 O 400.762 0.743497 -1.57537 0
M  V30 4195 C 397.894 1.35247 -3.12923 0
M  V30 4196 H 399.087 -0.448289 -2.96531 0
M  V30 4197 H 396.64 -0.270656 -1.53939 0
M  V30 4198 H 397.375 2.07916 -2.48881 0
M  V30 4199 H 397.16 0.901374 -3.81599 0
M  V30 4200 H 398.65 1.88737 -3.72516 0
M  V30 4201 N 399.087 1.5561 -0.249682 0
M  V30 4202 C 400.503 1.59254 0.105103 0
M  V30 4203 C 400.703 1.26685 1.56694 0
M  V30 4204 O 399.759 1.0155 2.31179 0
M  V30 4205 C 401.072 2.99687 -0.246592 0
M  V30 4206 C 402.62 3.12416 -0.191118 0
M  V30 4207 C 403.095 4.55074 -0.516885 0
M  V30 4208 N 404.586 4.60835 -0.467489 0
M  V30 4209 C 405.321 5.69201 -0.69268 0
M  V30 4210 N 404.817 6.85817 -0.981146 0
M  V30 4211 N 406.61 5.58635 -0.623198 0
M  V30 4212 H 398.761 1.75049 -1.20298 0
M  V30 4213 H 401.024 0.815003 -0.484225 0
M  V30 4214 H 400.73 3.28267 -1.26228 0
M  V30 4215 H 400.604 3.74798 0.424962 0
M  V30 4216 H 402.991 2.83615 0.815247 0
M  V30 4217 H 403.072 2.39573 -0.896563 0
M  V30 4218 H 402.716 4.84596 -1.52082 0
M  V30 4219 H 402.646 5.26181 0.210068 0
M  V30 4220 H 405.137 3.7705 -0.253373 0
M  V30 4221 H 405.45 7.64341 -1.14032 0
M  V30 4222 H 403.795 6.87494 -1.01865 0
M  V30 4223 H 406.986 4.66406 -0.397863 0
M  V30 4224 H 407.159 6.43017 -0.802093 0
M  V30 4225 N 400.565 -0.0233959 1.57583 0
M  V30 4226 C 401.515 -1.03023 2.03397 0
M  V30 4227 C 402.499 -1.31701 0.924315 0
M  V30 4228 O 403.691 -1.31191 1.18819 0
M  V30 4229 C 400.82 -2.32961 2.52159 0
M  V30 4230 C 399.906 -2.07349 3.69956 0
M  V30 4231 N 400.297 -1.51814 4.82479 0
M  V30 4232 C 398.595 -2.37606 3.77438 0
M  V30 4233 C 399.296 -1.42136 5.64068 0
M  V30 4234 N 398.272 -1.89891 5.09355 0
M  V30 4235 H 402.074 -0.594962 2.87815 0
M  V30 4236 H 399.588 -0.229586 1.60769 0
M  V30 4237 H 401.585 -3.05906 2.83244 0
M  V30 4238 H 400.245 -2.77162 1.69149 0
M  V30 4239 H 401.256 -1.20008 5.03804 0
M  V30 4240 H 397.933 -2.84842 3.05239 0
M  V30 4241 H 399.323 -0.996405 6.64471 0
M  V30 4242 N 402.043 -1.548 -0.295768 0
M  V30 4243 C 403.29 -1.74329 -1.03032 0
M  V30 4244 C 403.618 -0.531915 -1.87085 0
M  V30 4245 O 402.873 0.486052 -1.89568 0
M  V30 4246 C 403.172 -2.98797 -1.961 0
M  V30 4247 C 402.838 -4.32356 -1.2798 0
M  V30 4248 C 401.5 -4.68661 -1.09135 0
M  V30 4249 C 403.852 -5.15128 -0.793243 0
M  V30 4250 C 401.18 -5.85312 -0.403269 0
M  V30 4251 C 403.532 -6.32488 -0.118854 0
M  V30 4252 C 402.196 -6.6745 0.0815043 0
M  V30 4253 H 401.466 -0.637916 -0.37702 0
M  V30 4254 H 404.113 -1.8906 -0.304696 0
M  V30 4255 H 402.418 -2.78869 -2.75207 0
M  V30 4256 H 404.115 -3.11102 -2.53015 0
M  V30 4257 H 400.705 -4.03808 -1.43655 0
M  V30 4258 H 404.889 -4.87575 -0.92653 0
M  V30 4259 H 400.145 -6.1094 -0.237098 0
M  V30 4260 H 404.319 -6.95892 0.266035 0
M  V30 4261 H 401.946 -7.57695 0.616685 0
M  V30 4262 N 403.521 0.559213 -1.47345 0
M  V30 4263 C 404.431 1.69388 -1.62311 0
M  V30 4264 C 405.447 1.6648 -0.505993 0
M  V30 4265 O 406.623 1.85964 -0.773262 0
M  V30 4266 C 403.688 3.05894 -1.63185 0
M  V30 4267 C 402.749 3.19885 -2.86307 0
M  V30 4268 C 401.982 4.49879 -2.87131 0
M  V30 4269 O 402.205 5.35217 -1.97229 0
M  V30 4270 O 401.139 4.67618 -3.78968 0
M  V30 4271 H 404.965 1.59706 -2.58317 0
M  V30 4272 H 402.55 0.728989 -1.30407 0
M  V30 4273 H 404.432 3.87133 -1.66451 0
M  V30 4274 H 403.107 3.15964 -0.70345 0
M  V30 4275 H 402.014 2.38052 -2.88587 0
M  V30 4276 H 403.347 3.14718 -3.78435 0
M  V30 4277 N 404.999 1.35443 0.805782 0
M  V30 4278 C 406.224 1.32037 1.59941 0
M  V30 4279 C 406.649 -0.0994215 1.87837 0
M  V30 4280 O 406.007 -1.06648 1.46615 0
M  V30 4281 C 406.055 2.13354 2.90711 0
M  V30 4282 O 405.159 1.5148 3.83572 0
M  V30 4283 H 404.5 0.452666 0.485787 0
M  V30 4284 H 407.03 1.78496 1.00002 0
M  V30 4285 H 407.04 2.25338 3.40128 0
M  V30 4286 H 405.715 3.16572 2.69732 0
M  V30 4287 H 404.292 1.4834 3.42125 0
M  V30 4288 N 406.477 -1.02803 1.19454 0
M  V30 4289 C 407.409 -2.11181 0.890807 0
M  V30 4290 C 408.422 -1.6238 -0.116829 0
M  V30 4291 O 409.611 -1.78144 0.112694 0
M  V30 4292 C 406.711 -3.37461 0.311942 0
M  V30 4293 C 405.884 -4.15446 1.36834 0
M  V30 4294 C 404.943 -5.20039 0.802864 0
M  V30 4295 O 403.969 -5.49602 1.48077 0
M  V30 4296 N 405.171 -5.79165 -0.393417 0
M  V30 4297 H 407.936 -2.37827 1.82369 0
M  V30 4298 H 405.497 -1.19101 1.09666 0
M  V30 4299 H 407.489 -4.0462 -0.0802225 0
M  V30 4300 H 406.059 -3.08156 -0.52524 0
M  V30 4301 H 405.279 -3.43423 1.93531 0
M  V30 4302 H 406.567 -4.64335 2.08015 0
M  V30 4303 H 405.965 -5.57466 -0.961658 0
M  V30 4304 H 404.522 -6.47729 -0.727351 0
M  V30 4305 N 407.956 -0.998596 -1.21925 0
M  V30 4306 C 409.181 -0.696015 -1.95372 0
M  V30 4307 C 409.606 0.733826 -1.73195 0
M  V30 4308 O 408.964 1.50242 -1.01474 0
M  V30 4309 C 409.012 -1.01466 -3.4603 0
M  V30 4310 O 408.116 -0.116415 -4.12236 0
M  V30 4311 H 407.457 -0.259938 -0.611006 0
M  V30 4312 H 409.987 -1.33711 -1.54863 0
M  V30 4313 H 409.997 -0.958855 -3.96573 0
M  V30 4314 H 408.672 -2.05653 -3.61497 0
M  V30 4315 H 407.249 -0.228193 -3.72201 0
M  V30 4316 N 409.434 1.37368 -0.772513 0
M  V30 4317 C 410.711 1.93839 -0.26188 0
M  V30 4318 C 411.091 1.7061 1.24319 0
M  V30 4319 O 410.439 1.05534 2.02669 0
M  V30 4320 C 410.649 3.43154 -0.636102 0
M  V30 4321 C 411.997 4.20249 -0.606324 0
M  V30 4322 O 413.021 3.5152 -0.575538 0
M  V30 4323 O 411.88 5.42809 -0.634086 0
M  V30 4324 H 408.974 0.82478 -0.0605555 0
M  V30 4325 H 411.52 1.4665 -0.853917 0
M  V30 4326 H 410.292 3.53647 -1.6748 0
M  V30 4327 H 409.915 3.97596 -0.0170516 0
M  V30 4328 N 410.912 0.523116 1.48665 0
M  V30 4329 C 412.189 -0.0775449 1.95446 0
M  V30 4330 C 412.569 -1.5197 1.4652 0
M  V30 4331 O 411.917 -2.17876 0.688657 0
M  V30 4332 C 412.127 0.0326135 3.48985 0
M  V30 4333 C 413.475 -0.130141 4.24401 0
M  V30 4334 O 414.499 -0.0415142 3.56176 0
M  V30 4335 O 413.358 -0.31491 5.45592 0
M  V30 4336 H 410.452 -0.0831012 0.822814 0
M  V30 4337 H 412.998 0.587227 1.59216 0
M  V30 4338 H 411.77 1.03748 3.77296 0
M  V30 4339 H 411.393 -0.671317 3.91892 0
M  V30 4340 N 412.39 -1.55475 0.257931 0
M  V30 4341 C 413.801 -1.8511 -0.243135 0
M  V30 4342 C 414.152 -1.17986 -1.5676 0
M  V30 4343 O 413.277 -0.462102 -2.11409 0
M  V30 4344 C 413.872 -3.35826 -0.447929 0
M  V30 4345 C 412.431 -3.65647 -0.893245 0
M  V30 4346 C 411.578 -2.7729 0.0232965 0
M  V30 4347 H 414.529 -1.51261 0.480199 0
M  V30 4348 H 414.55 -3.58002 -1.28898 0
M  V30 4349 H 414.062 -3.84652 0.516196 0
M  V30 4350 H 412.163 -3.22308 -1.86945 0
M  V30 4351 H 412.276 -4.73312 -0.742469 0
M  V30 4352 H 410.64 -2.49942 -0.490021 0
M  V30 4353 H 411.423 -3.28926 0.982994 0
M  V30 4354 N 413.868 0.0150385 -1.57593 0
M  V30 4355 C 414.818 1.01943 -2.0394 0
M  V30 4356 C 415.802 1.31209 -0.931286 0
M  V30 4357 O 416.994 1.30559 -1.19513 0
M  V30 4358 C 414.123 2.31621 -2.53391 0
M  V30 4359 C 413.209 2.05384 -3.7105 0
M  V30 4360 N 413.6 1.49253 -4.83278 0
M  V30 4361 C 411.898 2.35601 -3.78693 0
M  V30 4362 C 412.599 1.39143 -5.64813 0
M  V30 4363 N 411.575 1.87187 -5.10355 0
M  V30 4364 H 415.377 0.57969 -2.88126 0
M  V30 4365 H 412.891 0.221056 -1.60888 0
M  V30 4366 H 414.888 3.044 -2.84862 0
M  V30 4367 H 413.548 2.76261 -1.70616 0
M  V30 4368 H 414.559 1.17334 -5.04433 0
M  V30 4369 H 411.236 2.8322 -3.06746 0
M  V30 4370 H 412.626 0.961153 -6.6499 0
M  V30 4371 N 415.346 1.54954 0.287554 0
M  V30 4372 C 416.593 1.74873 1.02106 0
M  V30 4373 C 416.921 0.541829 1.86801 0
M  V30 4374 O 416.176 -0.475992 1.89823 0
M  V30 4375 C 416.475 2.99833 1.94512 0
M  V30 4376 C 416.141 4.33029 1.25686 0
M  V30 4377 C 414.803 4.69233 1.06649 0
M  V30 4378 C 417.155 5.15542 0.765913 0
M  V30 4379 C 414.483 5.85518 0.372222 0
M  V30 4380 C 416.835 6.32542 0.0853101 0
M  V30 4381 C 415.499 6.67398 -0.1169 0
M  V30 4382 H 414.769 0.639906 0.373632 0
M  V30 4383 H 417.416 1.89219 0.294665 0
M  V30 4384 H 415.721 2.80325 2.73725 0
M  V30 4385 H 417.418 3.1244 2.51361 0
M  V30 4386 H 414.008 4.04564 1.41512 0
M  V30 4387 H 418.192 4.88059 0.90066 0
M  V30 4388 H 413.448 6.11057 0.204695 0
M  V30 4389 H 417.622 6.95741 -0.302936 0
M  V30 4390 H 415.249 7.57357 -0.656859 0
M  V30 4391 N 416.824 -0.551391 1.4764 0
M  V30 4392 C 417.774 -1.65362 1.56969 0
M  V30 4393 C 418.758 -1.55098 0.428189 0
M  V30 4394 O 419.95 -1.63481 0.678441 0
M  V30 4395 C 417.079 -3.04129 1.59249 0
M  V30 4396 C 416.165 -3.19576 2.78804 0
M  V30 4397 N 416.556 -3.05067 4.03445 0
M  V30 4398 C 414.854 -3.50588 2.75688 0
M  V30 4399 C 415.555 -3.2336 4.83543 0
M  V30 4400 N 414.531 -3.4996 4.15968 0
M  V30 4401 H 418.333 -1.52722 2.51104 0
M  V30 4402 H 415.847 -0.756303 1.43714 0
M  V30 4403 H 417.844 -3.83278 1.64024 0
M  V30 4404 H 416.504 -3.17877 0.662148 0
M  V30 4405 H 417.515 -2.82273 4.34215 0
M  V30 4406 H 414.192 -3.70827 1.91817 0
M  V30 4407 H 415.582 -3.17061 5.92387 0
M  V30 4408 N 418.302 -1.35869 -0.798587 0
M  V30 4409 C 419.212 -1.31578 -1.94228 0
M  V30 4410 C 420.228 -0.21939 -1.72611 0
M  V30 4411 O 421.404 -0.450167 -1.96305 0
M  V30 4412 C 418.469 -1.09528 -3.28944 0
M  V30 4413 C 417.53 -2.28556 -3.63402 0
M  V30 4414 C 416.763 -2.07549 -4.9169 0
M  V30 4415 O 416.986 -1.046 -5.60727 0
M  V30 4416 O 415.92 -2.95106 -5.24591 0
M  V30 4417 H 419.746 -2.27847 -2.00796 0
M  V30 4418 H 417.331 -1.16322 -0.937526 0
M  V30 4419 H 419.213 -0.991127 -4.09579 0
M  V30 4420 H 417.888 -0.16315 -3.23289 0
M  V30 4421 H 416.795 -2.44538 -2.83112 0
M  V30 4422 H 418.128 -3.20244 -3.73771 0
M  V30 4423 N 419.78 1.02168 -1.19998 0
M  V30 4424 C 420.727 2.10601 -0.944228 0
M  V30 4425 C 421.697 1.65639 0.123664 0
M  V30 4426 O 422.882 1.9079 -0.0199941 0
M  V30 4427 C 420.022 3.41504 -0.496865 0
M  V30 4428 C 419.135 3.99973 -1.63234 0
M  V30 4429 C 418.27 5.18915 -1.13579 0
M  V30 4430 C 417.309 5.69456 -2.24468 0
M  V30 4431 N 416.446 6.79665 -1.76068 0
M  V30 4432 H 421.286 2.31814 -1.8726 0
M  V30 4433 H 418.823 1.13686 -0.933483 0
M  V30 4434 H 420.781 4.16626 -0.218843 0
M  V30 4435 H 419.411 3.2038 0.394508 0
M  V30 4436 H 418.463 3.21997 -2.0254 0
M  V30 4437 H 419.775 4.33492 -2.46752 0
M  V30 4438 H 418.929 6.01222 -0.813429 0
M  V30 4439 H 417.668 4.8695 -0.270434 0
M  V30 4440 H 416.673 4.85757 -2.57526 0
M  V30 4441 H 417.898 6.03459 -3.11472 0
M  V30 4442 H 415.844 6.49538 -0.918516 0
M  V30 4443 H 415.761 7.12349 -2.5317 0
M  V30 4444 H 417.029 7.65549 -1.46817 0
M  V30 4445 N 421.258 1.00505 1.21394 0
M  V30 4446 C 422.205 0.565496 2.23765 0
M  V30 4447 C 423.175 -0.408466 1.60999 0
M  V30 4448 O 424.36 -0.310503 1.88257 0
M  V30 4449 C 421.5 -0.101667 3.4495 0
M  V30 4450 C 420.613 0.915479 4.22188 0
M  V30 4451 C 419.748 0.220574 5.30742 0
M  V30 4452 C 418.787 1.22527 5.99711 0
M  V30 4453 N 417.924 0.557831 6.9988 0
M  V30 4454 H 422.764 1.44314 2.60725 0
M  V30 4455 H 420.301 0.722643 1.28126 0
M  V30 4456 H 422.259 -0.505504 4.14126 0
M  V30 4457 H 420.889 -0.94303 3.08718 0
M  V30 4458 H 419.941 1.43756 3.52191 0
M  V30 4459 H 421.253 1.68005 4.69655 0
M  V30 4460 H 420.407 -0.239368 6.06228 0
M  V30 4461 H 419.146 -0.576401 4.84282 0
M  V30 4462 H 418.151 1.69571 5.22997 0
M  V30 4463 H 419.376 2.02332 6.48258 0
M  V30 4464 H 417.322 -0.219486 6.55633 0
M  V30 4465 H 417.239 1.26065 7.45415 0
M  V30 4466 H 418.507 0.121095 7.79406 0
M  V30 4467 N 422.737 -1.36956 0.779787 0
M  V30 4468 C 423.669 -2.28833 0.129639 0
M  V30 4469 C 424.682 -1.4902 -0.655511 0
M  V30 4470 O 425.871 -1.71578 -0.492279 0
M  V30 4471 C 422.971 -3.2833 -0.839792 0
M  V30 4472 C 422.144 -4.3727 -0.10675 0
M  V30 4473 C 421.203 -5.16789 -0.990717 0
M  V30 4474 O 420.229 -5.67406 -0.451516 0
M  V30 4475 N 421.431 -5.32294 -2.3161 0
M  V30 4476 H 424.196 -2.85268 0.918803 0
M  V30 4477 H 421.757 -1.49019 0.632841 0
M  V30 4478 H 423.749 -3.78413 -1.43477 0
M  V30 4479 H 422.319 -2.72605 -1.52988 0
M  V30 4480 H 421.539 -3.88478 0.669216 0
M  V30 4481 H 422.827 -5.07229 0.399464 0
M  V30 4482 H 422.225 -4.92768 -2.77843 0
M  V30 4483 H 420.782 -5.85656 -2.86095 0
M  V30 4484 N 424.215 -0.530993 -1.48385 0
M  V30 4485 C 425.464 0.00474348 -2.01699 0
M  V30 4486 C 425.777 1.35227 -1.41325 0
M  V30 4487 O 426.983 1.97643 -1.86144 0
M  V30 4488 C 425.439 0.0588473 -3.59852 0
M  V30 4489 C 425.047 -1.28385 -4.2921 0
M  V30 4490 C 426.791 0.543358 -4.21008 0
M  V30 4491 C 424.698 -1.19028 -5.79298 0
M  V30 4492 H 423.628 0.00554317 -0.75398 0
M  V30 4493 H 426.279 -0.674924 -1.70637 0
M  V30 4494 H 424.661 0.803612 -3.8776 0
M  V30 4495 H 425.835 -2.04426 -4.12973 0
M  V30 4496 H 424.15 -1.70418 -3.7993 0
M  V30 4497 H 426.747 0.631351 -5.3096 0
M  V30 4498 H 427.09 1.54937 -3.86394 0
M  V30 4499 H 427.623 -0.145754 -3.97533 0
M  V30 4500 H 424.362 -2.17147 -6.18488 0
M  V30 4501 H 423.882 -0.471246 -5.97946 0
M  V30 4502 H 425.561 -0.881365 -6.40969 0
M  V30 4503 N 425.693 1.55336 -0.266172 0
M  V30 4504 C 427.104 1.85236 0.233315 0
M  V30 4505 C 427.455 1.18816 1.56132 0
M  V30 4506 O 426.58 0.473307 2.11161 0
M  V30 4507 C 427.175 3.36059 0.430113 0
M  V30 4508 C 425.734 3.66116 0.873842 0
M  V30 4509 C 424.881 2.77274 -0.0380016 0
M  V30 4510 H 427.832 1.51004 -0.488214 0
M  V30 4511 H 427.853 3.58681 1.26998 0
M  V30 4512 H 427.365 3.84373 -0.536588 0
M  V30 4513 H 425.466 3.23295 1.85233 0
M  V30 4514 H 425.579 4.73699 0.717358 0
M  V30 4515 H 423.943 2.50198 0.476759 0
M  V30 4516 H 424.726 3.284 -1.00042 0
M  V30 4517 N 427.171 -0.0066808 1.57599 0
M  V30 4518 C 428.411 -0.697501 1.92131 0
M  V30 4519 C 428.775 -1.71306 0.867071 0
M  V30 4520 O 429.976 -2.45377 1.09743 0
M  V30 4521 C 428.247 -1.32978 3.3174 0
M  V30 4522 S 429.806 -2.04665 3.88146 0
M  V30 4523 H 426.624 -0.230555 0.672581 0
M  V30 4524 H 429.226 0.0484026 1.9544 0
M  V30 4525 H 427.93 -0.57772 4.06313 0
M  V30 4526 H 427.461 -2.11376 3.31789 0
M  V30 4527 H 429.476 -3.32097 3.68682 0
M  V30 4528 N 428.649 -1.55105 -0.279332 0
M  V30 4529 C 429.895 -1.75672 -1.01327 0
M  V30 4530 C 430.228 -0.552739 -1.86168 0
M  V30 4531 O 429.503 0.449827 -1.89227 0
M  V30 4532 C 429.786 -3.05825 -1.90114 0
M  V30 4533 C 429.639 -4.36565 -1.08309 0
M  V30 4534 C 430.958 -3.31975 -2.8893 0
M  V30 4535 H 428.077 -0.639149 -0.366957 0
M  V30 4536 H 430.719 -1.87833 -0.286154 0
M  V30 4537 H 428.869 -2.95588 -2.52111 0
M  V30 4538 H 430.541 -4.58751 -0.484314 0
M  V30 4539 H 428.784 -4.32076 -0.386362 0
M  V30 4540 H 429.455 -5.23946 -1.73737 0
M  V30 4541 H 431.931 -3.41963 -2.37067 0
M  V30 4542 H 430.807 -4.2432 -3.48201 0
M  V30 4543 H 431.068 -2.51309 -3.63725 0
M  V30 4544 N 430.127 0.543554 -1.4793 0
M  V30 4545 C 431.373 1.30201 -1.55485 0
M  V30 4546 C 431.706 1.92925 -0.222201 0
M  V30 4547 O 430.981 1.78586 0.77053 0
M  V30 4548 C 431.264 2.40174 -2.68307 0
M  V30 4549 C 431.117 1.8223 -4.11233 0
M  V30 4550 C 432.436 3.42024 -2.76961 0
M  V30 4551 H 429.555 0.472036 -0.565996 0
M  V30 4552 H 432.197 0.606914 -1.80046 0
M  V30 4553 H 430.347 2.99463 -2.47495 0
M  V30 4554 H 432.019 1.27096 -4.43446 0
M  V30 4555 H 430.262 1.12832 -4.18869 0
M  V30 4556 H 430.933 2.61793 -4.85972 0
M  V30 4557 H 433.409 2.92672 -2.95774 0
M  V30 4558 H 432.285 4.16383 -3.57654 0
M  V30 4559 H 432.546 4.0173 -1.84568 0
M  V30 4560 N 431.605 1.3629 0.791371 0
M  V30 4561 C 432.83 1.33726 1.58531 0
M  V30 4562 C 433.255 -0.0794933 1.87932 0
M  V30 4563 O 432.613 -1.05087 1.47738 0
M  V30 4564 C 432.661 2.16425 2.88431 0
M  V30 4565 O 431.765 1.5554 3.81944 0
M  V30 4566 H 431.106 0.457793 0.480959 0
M  V30 4567 H 433.636 1.79547 0.981031 0
M  V30 4568 H 433.646 2.28933 3.37718 0
M  V30 4569 H 432.321 3.19415 2.66359 0
M  V30 4570 H 430.898 1.51961 3.40532 0
M  V30 4571 N 433.083 -1.0153 1.20538 0
M  V30 4572 C 434.016 -2.09759 0.898695 0
M  V30 4573 C 434.994 -1.61909 -0.149733 0
M  V30 4574 O 436.178 -1.88486 -0.0230293 0
M  V30 4575 C 433.305 -3.36913 0.347512 0
M  V30 4576 C 432.351 -4.03655 1.37713 0
M  V30 4577 S 433.184 -4.47402 2.94265 0
M  V30 4578 C 434.34 -5.77756 2.40726 0
M  V30 4579 H 434.573 -2.3545 1.81523 0
M  V30 4580 H 432.106 -1.14665 1.03399 0
M  V30 4581 H 434.064 -4.10484 0.0360518 0
M  V30 4582 H 432.725 -3.09291 -0.547546 0
M  V30 4583 H 431.918 -4.9514 0.940872 0
M  V30 4584 H 431.52 -3.36313 1.63614 0
M  V30 4585 H 433.812 -6.52994 1.80569 0
M  V30 4586 H 434.755 -6.2618 3.30612 0
M  V30 4587 H 435.163 -5.34081 1.82806 0
M  V30 4588 N 434.561 -1.01147 -1.20859 0
M  V30 4589 C 435.491 -0.597663 -2.25722 0
M  V30 4590 C 436.472 0.384744 -1.65692 0
M  V30 4591 O 437.657 0.271303 -1.92296 0
M  V30 4592 C 434.787 0.0700149 -3.47229 0
M  V30 4593 C 433.741 -0.832843 -4.19819 0
M  V30 4594 C 433.067 -0.0312202 -5.34691 0
M  V30 4595 C 434.367 -2.1385 -4.76514 0
M  V30 4596 H 436.061 -1.47423 -2.60589 0
M  V30 4597 H 433.607 -0.710301 -1.25263 0
M  V30 4598 H 435.56 0.37103 -4.19763 0
M  V30 4599 H 434.284 0.981259 -3.11511 0
M  V30 4600 H 432.943 -1.11778 -3.49144 0
M  V30 4601 H 432.591 0.881515 -4.95215 0
M  V30 4602 H 432.291 -0.632434 -5.84187 0
M  V30 4603 H 433.815 0.26346 -6.10031 0
M  V30 4604 H 435.229 -1.9002 -5.40893 0
M  V30 4605 H 433.626 -2.69012 -5.36426 0
M  V30 4606 H 434.696 -2.80495 -3.95538 0
M  V30 4607 N 436.039 1.36541 -0.78704 0
M  V30 4608 C 437.267 2.03561 -0.370199 0
M  V30 4609 C 437.682 1.59347 1.01263 0
M  V30 4610 O 437.039 0.781781 1.64907 0
M  V30 4611 C 437.09 3.59033 -0.421614 0
M  V30 4612 O 436.811 4.01634 -1.7499 0
M  V30 4613 C 438.312 4.433 0.00489763 0
M  V30 4614 H 435.532 0.653346 -0.152904 0
M  V30 4615 H 438.076 1.74566 -1.06522 0
M  V30 4616 H 436.231 3.86746 0.224971 0
M  V30 4617 H 436.645 4.96217 -1.69909 0
M  V30 4618 H 438.119 5.51939 -0.0822184 0
M  V30 4619 H 438.596 4.26285 1.05723 0
M  V30 4620 H 439.202 4.20843 -0.614085 0
M  V30 4621 N 437.518 0.538854 1.48102 0
M  V30 4622 C 438.465 -0.219042 2.29758 0
M  V30 4623 C 439.435 -0.925562 1.37922 0
M  V30 4624 O 440.62 -0.924855 1.66886 0
M  V30 4625 C 437.76 -1.25452 3.2149 0
M  V30 4626 C 436.873 -0.555943 4.28408 0
M  V30 4627 C 436.008 -1.57512 5.0731 0
M  V30 4628 C 435.047 -0.860498 6.06021 0
M  V30 4629 N 434.184 -1.82564 6.77949 0
M  V30 4630 H 439.024 0.483449 2.94052 0
M  V30 4631 H 436.561 0.250247 1.44956 0
M  V30 4632 H 438.519 -1.86727 3.7308 0
M  V30 4633 H 437.149 -1.92528 2.591 0
M  V30 4634 H 436.201 0.170938 3.80016 0
M  V30 4635 H 437.513 0.00474616 4.988 0
M  V30 4636 H 436.667 -2.26191 5.62959 0
M  V30 4637 H 435.406 -2.16972 4.36778 0
M  V30 4638 H 434.411 -0.159686 5.49568 0
M  V30 4639 H 435.636 -0.271897 6.78555 0
M  V30 4640 H 433.582 -2.40915 6.10161 0
M  V30 4641 H 433.499 -1.31662 7.44447 0
M  V30 4642 H 434.767 -2.50414 7.38182 0
M  V30 4643 N 438.996 -1.55193 0.274407 0
M  V30 4644 C 439.906 -2.26164 -0.623473 0
M  V30 4645 C 440.922 -1.28729 -1.17068 0
M  V30 4646 O 442.098 -1.61663 -1.20112 0
M  V30 4647 C 439.163 -2.96833 -1.7914 0
M  V30 4648 C 438.224 -4.09745 -1.28093 0
M  V30 4649 C 437.457 -4.77034 -2.3932 0
M  V30 4650 O 437.68 -4.4353 -3.5866 0
M  V30 4651 O 436.614 -5.64996 -2.07516 0
M  V30 4652 H 440.44 -3.03661 -0.0485661 0
M  V30 4653 H 438.025 -1.49341 0.0418382 0
M  V30 4654 H 439.907 -3.41248 -2.4724 0
M  V30 4655 H 438.582 -2.22253 -2.35341 0
M  V30 4656 H 437.489 -3.69787 -0.566416 0
M  V30 4657 H 438.822 -4.86224 -0.764683 0
M  V30 4658 N 440.474 -0.00167713 -1.576 0
M  V30 4659 C 441.404 0.988091 -2.11563 0
M  V30 4660 C 442.385 1.35736 -1.02517 0
M  V30 4661 O 443.57 1.44082 -1.30208 0
M  V30 4662 C 440.7 2.27941 -2.62031 0
M  V30 4663 C 439.654 2.0517 -3.75619 0
M  V30 4664 C 438.98 3.4033 -4.12407 0
M  V30 4665 C 440.28 1.41294 -5.02825 0
M  V30 4666 H 441.974 0.538771 -2.94513 0
M  V30 4667 H 439.52 0.257712 -1.41675 0
M  V30 4668 H 441.473 2.97539 -2.9841 0
M  V30 4669 H 440.197 2.74989 -1.76205 0
M  V30 4670 H 438.856 1.37998 -3.39635 0
M  V30 4671 H 438.504 3.85085 -3.23603 0
M  V30 4672 H 438.204 3.25909 -4.88935 0
M  V30 4673 H 439.728 4.1124 -4.51347 0
M  V30 4674 H 441.142 2.00851 -5.36965 0
M  V30 4675 H 439.539 1.37356 -5.84169 0
M  V30 4676 H 440.609 0.382362 -4.8339 0
M  V30 4677 N 441.952 1.55251 0.271103 0
M  V30 4678 C 443.182 1.79713 1.01916 0
M  V30 4679 C 443.59 0.571613 1.80359 0
M  V30 4680 O 442.933 -0.468853 1.77616 0
M  V30 4681 C 442.995 2.97138 2.02359 0
M  V30 4682 C 442.659 4.34104 1.42837 0
M  V30 4683 C 443.656 5.13019 0.843071 0
M  V30 4684 C 441.341 4.80765 1.455 0
M  V30 4685 C 443.335 6.36729 0.292333 0
M  V30 4686 C 441.022 6.0443 0.900402 0
M  V30 4687 C 442.02 6.8225 0.32007 0
M  V30 4688 O 441.708 8.03582 -0.226031 0
M  V30 4689 H 441.44 0.602431 0.306681 0
M  V30 4690 H 443.994 2.03097 0.306701 0
M  V30 4691 H 442.224 2.6945 2.77369 0
M  V30 4692 H 443.913 3.08907 2.63309 0
M  V30 4693 H 444.679 4.781 0.815178 0
M  V30 4694 H 440.558 4.20202 1.89609 0
M  V30 4695 H 444.102 6.97414 -0.161274 0
M  V30 4696 H 439.999 6.3883 0.925541 0
M  V30 4697 H 440.767 8.18418 -0.115572 0
M  V30 4698 N 443.43 -0.535701 1.48216 0
M  V30 4699 C 444.677 -1.29183 1.55942 0
M  V30 4700 C 445.005 -1.93125 0.230857 0
M  V30 4701 O 444.26 -1.79556 -0.778331 0
M  V30 4702 C 444.559 -2.4068 2.64212 0
M  V30 4703 C 444.225 -1.94428 4.06827 0
M  V30 4704 C 442.887 -1.81532 4.45645 0
M  V30 4705 C 445.239 -1.59405 4.96225 0
M  V30 4706 C 442.567 -1.31939 5.71672 0
M  V30 4707 C 444.919 -1.11276 6.22736 0
M  V30 4708 C 443.583 -0.969924 6.60416 0
M  V30 4709 H 442.853 -0.472715 0.570632 0
M  V30 4710 H 445.5 -0.598437 1.81909 0
M  V30 4711 H 443.805 -3.15666 2.32083 0
M  V30 4712 H 445.502 -2.98822 2.67407 0
M  V30 4713 H 442.092 -2.05415 3.76168 0
M  V30 4714 H 446.276 -1.68231 4.66917 0
M  V30 4715 H 441.532 -1.19562 5.99596 0
M  V30 4716 H 445.706 -0.832453 6.91407 0
M  V30 4717 H 443.333 -0.583436 7.57958 0
M  V30 4718 N 444.908 -1.36708 -0.784132 0
M  V30 4719 C 446.133 -1.34565 -1.5782 0
M  V30 4720 C 446.558 0.0695257 -1.87971 0
M  V30 4721 O 445.916 1.04302 -1.48293 0
M  V30 4722 C 445.964 -2.17952 -2.87279 0
M  V30 4723 O 445.068 -1.57563 -3.81114 0
M  V30 4724 H 444.409 -0.460337 -0.478524 0
M  V30 4725 H 446.939 -1.80064 -0.971495 0
M  V30 4726 H 446.949 -2.30721 -3.365 0
M  V30 4727 H 445.624 -3.20823 -2.64661 0
M  V30 4728 H 444.201 -1.53764 -3.39722 0
M  V30 4729 N 446.386 1.0089 -1.21074 0
M  V30 4730 C 447.318 2.09737 -0.924291 0
M  V30 4731 C 448.331 1.62546 0.0909809 0
M  V30 4732 O 449.52 1.77942 -0.141021 0
M  V30 4733 C 446.62 3.36922 -0.36559 0
M  V30 4734 C 445.793 4.13216 -1.43426 0
M  V30 4735 C 444.852 5.18696 -0.885496 0
M  V30 4736 O 443.878 5.47176 -1.56801 0
M  V30 4737 N 445.08 5.79718 0.301227 0
M  V30 4738 H 447.845 2.34895 -1.8613 0
M  V30 4739 H 445.406 1.17341 -1.11546 0
M  V30 4740 H 447.398 4.04697 0.0158407 0
M  V30 4741 H 445.968 3.08952 0.476149 0
M  V30 4742 H 445.188 3.40301 -1.9897 0
M  V30 4743 H 446.476 4.60967 -2.15376 0
M  V30 4744 H 445.874 5.58926 0.872849 0
M  V30 4745 H 444.431 6.48804 0.624211 0
M  V30 4746 O 447.903 1.14481 1.13914 0
M  V30 4747 H 448.594 0.866659 1.7323 0
M  V30 END ATOM
M  V30 BEGIN BOND
M  V30 END BOND
M  V30 END CTAB
M  END
$$$$
