drugbank_target|P04035 3-hydroxy-3-methylglutaryl-coenzyme A reductase (DB00157; DB00175; DB00227; DB00439; DB00641; DB01076; DB01095; DB01098; DB01992; DB03169; DB03461; DB04377; DB04447; DB05317; DB06693; DB08860; DB09061; DB14009; DB14011)
 OpenBabel12092119343D

  0  0  0     0  0            999 V3000
M  V30 BEGIN CTAB
M  V30 COUNTS 13740 13855 0 0 0
M  V30 BEGIN ATOM
M  V30 1 H -0.908 1.98254 -0.117106 0
M  V30 2 N 0 1.576 0 0
M  V30 3 C 0.933 2.03868 1.02534 0
M  V30 4 C 1.911 0.928543 1.3348 0
M  V30 5 O 3.095 1.19667 1.45644 0
M  V30 6 C 0.222 2.43627 2.35294 0
M  V30 7 C -0.732 3.65373 2.2001 0
M  V30 8 S 0.101 5.13292 1.52614 0
M  V30 9 C 1.257 5.56322 2.86805 0
M  V30 10 H 1.49 2.90518 0.631377 0
M  V30 11 H -0.977 1.52953 0.210867 0
M  V30 12 H 0.981 2.67203 3.11629 0
M  V30 13 H -0.358 1.57376 2.7183 0
M  V30 14 H -1.165 3.90944 3.18086 0
M  V30 15 H -1.563 3.418 1.51819 0
M  V30 16 H 0.729 5.58782 3.83104 0
M  V30 17 H 1.672 6.56266 2.65933 0
M  V30 18 H 2.08 4.83886 2.90714 0
M  V30 19 N 1.4781 -0.272755 1.55222 0
M  V30 20 C 2.4081 -1.34136 1.91127 0
M  V30 21 C 3.3891 -1.51513 0.773168 0
M  V30 22 O 4.5741 -1.64552 1.03132 0
M  V30 23 C 1.7041 -2.70083 2.1834 0
M  V30 24 C 0.6581 -2.67437 3.34158 0
M  V30 25 C -0.0159 -4.06938 3.46851 0
M  V30 26 C 1.2841 -2.26686 4.70543 0
M  V30 27 H 2.9781 -1.04333 2.80633 0
M  V30 28 H 0.5241 -0.500454 1.35024 0
M  V30 29 H 2.4771 -3.44952 2.42046 0
M  V30 30 H 1.2011 -3.01469 1.25634 0
M  V30 31 H -0.1399 -1.95026 3.1042 0
M  V30 32 H -0.4919 -4.35547 2.51611 0
M  V30 33 H -0.7919 -4.06062 4.2472 0
M  V30 34 H 0.7321 -4.83545 3.72849 0
M  V30 35 H 2.1461 -2.91277 4.93792 0
M  V30 36 H 0.5431 -2.36971 5.5133 0
M  V30 37 H 1.6131 -1.21818 4.69349 0
M  V30 38 N 2.9562 -1.48159 -0.537278 0
M  V30 39 C 4.1812 -1.59707 -1.32319 0
M  V30 40 C 4.6062 -0.254859 -1.86365 0
M  V30 41 O 3.9642 0.772378 -1.64024 0
M  V30 42 C 4.0122 -2.6412 -2.45505 0
M  V30 43 O 3.1162 -2.20774 -3.48328 0
M  V30 44 H 2.4572 -0.535791 -0.392204 0
M  V30 45 H 4.9872 -1.94092 -0.647268 0
M  V30 46 H 4.9972 -2.85166 -2.91795 0
M  V30 47 H 3.6722 -3.61567 -2.05528 0
M  V30 48 H 2.2492 -2.09911 -3.08207 0
M  V30 49 N 4.4343 0.785586 -1.36625 0
M  V30 50 C 5.8503 1.08419 -1.17122 0
M  V30 51 C 6.0503 2.015 0.00208491 0
M  V30 52 O 5.1063 2.43551 0.666278 0
M  V30 53 C 6.4193 1.69498 -2.48377 0
M  V30 54 C 7.9673 1.81821 -2.54775 0
M  V30 55 C 8.4423 2.46315 -3.86126 0
M  V30 56 N 9.9333 2.53779 -3.87492 0
M  V30 57 C 10.6683 3.045 -4.85868 0
M  V30 58 N 10.1643 3.55499 -5.94637 0
M  V30 59 N 11.9573 3.03247 -4.73284 0
M  V30 60 H 4.1083 0.167264 -2.1174 0
M  V30 61 H 6.3713 0.13682 -0.938075 0
M  V30 62 H 6.0773 1.08571 -3.34522 0
M  V30 63 H 5.9513 2.6896 -2.64462 0
M  V30 64 H 8.3383 2.41884 -1.69045 0
M  V30 65 H 8.4193 0.811532 -2.42586 0
M  V30 66 H 8.0633 1.86895 -4.72263 0
M  V30 67 H 7.9933 3.47561 -3.95612 0
M  V30 68 H 10.4843 2.17672 -3.08913 0
M  V30 69 H 10.7973 3.92562 -6.65669 0
M  V30 70 H 9.1423 3.5364 -5.98301 0
M  V30 71 H 12.3333 2.62696 -3.87438 0
M  V30 72 H 12.5063 3.42467 -5.50109 0
M  V30 73 N 5.9124 1.20967 1.01018 0
M  V30 74 C 6.8424 0.988272 2.11555 0
M  V30 75 C 7.8234 -0.0849778 1.69888 0
M  V30 76 O 9.0084 0.0738202 1.9406 0
M  V30 77 C 6.1384 0.546528 3.42973 0
M  V30 78 C 5.0924 1.56375 3.9841 0
M  V30 79 C 4.4184 0.97842 5.25672 0
M  V30 80 C 5.7184 2.94922 4.31066 0
M  V30 81 H 7.4124 1.91276 2.30334 0
M  V30 82 H 4.9584 0.921073 1.1069 0
M  V30 83 H 6.9114 0.378839 4.19694 0
M  V30 84 H 5.6354 -0.413598 3.23971 0
M  V30 85 H 4.2944 1.71891 3.23804 0
M  V30 86 H 3.9424 0.0101688 5.02999 0
M  V30 87 H 3.6424 1.65784 5.63728 0
M  V30 88 H 5.1664 0.821939 6.05043 0
M  V30 89 H 6.5804 2.8288 4.9865 0
M  V30 90 H 4.9774 3.5983 4.80253 0
M  V30 91 H 6.0474 3.4616 3.39561 0
M  V30 92 N 7.3905 -1.2043 1.01659 0
M  V30 93 C 8.6375 -1.89797 0.705917 0
M  V30 94 C 8.9655 -1.78848 -0.764439 0
M  V30 95 O 8.2205 -1.16694 -1.57102 0
M  V30 96 C 8.5195 -3.40464 1.08714 0
M  V30 97 C 8.1855 -3.71614 2.5537 0
M  V30 98 C 6.8475 -3.79826 2.95441 0
M  V30 99 C 9.1995 -3.85915 3.50313 0
M  V30 100 C 6.5275 -3.99797 4.29394 0
M  V30 101 C 8.8795 -4.07396 4.83954 0
M  V30 102 C 7.5435 -4.13837 5.23732 0
M  V30 103 H 6.8135 -0.694518 0.258313 0
M  V30 104 H 9.4605 -1.42691 1.27717 0
M  V30 105 H 7.7655 -3.89385 0.434309 0
M  V30 106 H 9.4625 -3.92433 0.824461 0
M  V30 107 H 6.0525 -3.65822 2.23321 0
M  V30 108 H 10.2365 -3.78926 3.20513 0
M  V30 109 H 5.4925 -4.03018 4.59768 0
M  V30 110 H 9.6665 -4.17404 5.57447 0
M  V30 111 H 7.2935 -4.29064 6.27541 0
M  V30 112 N 8.8686 -0.792821 -1.36206 0
M  V30 113 C 10.2846 -0.474903 -1.52371 0
M  V30 114 C 10.4846 1.00622 -1.74578 0
M  V30 115 O 9.5406 1.79162 -1.77924 0
M  V30 116 C 10.8536 -1.3083 -2.70747 0
M  V30 117 C 12.4016 -1.30234 -2.84619 0
M  V30 118 C 12.8766 -2.11956 -4.06004 0
M  V30 119 N 14.3676 -2.09419 -4.13156 0
M  V30 120 C 15.1026 -2.69419 -5.06163 0
M  V30 121 N 14.5986 -3.3829 -6.04592 0
M  V30 122 N 16.3916 -2.59134 -4.98804 0
M  V30 123 H 8.5426 -1.75222 -1.20046 0
M  V30 124 H 10.8056 -0.745024 -0.586211 0
M  V30 125 H 10.5116 -2.35881 -2.6087 0
M  V30 126 H 10.3856 -0.95196 -3.6499 0
M  V30 127 H 12.7726 -0.259748 -2.93955 0
M  V30 128 H 12.8536 -1.69847 -1.91274 0
M  V30 129 H 12.4976 -3.16248 -3.97429 0
M  V30 130 H 12.4276 -1.69711 -4.98503 0
M  V30 131 H 14.9186 -1.59297 -3.42685 0
M  V30 132 H 15.2316 -3.81394 -6.7213 0
M  V30 133 H 13.5766 -3.42393 -6.04807 0
M  V30 134 H 16.7676 -2.04927 -4.20859 0
M  V30 135 H 16.9406 -3.06185 -5.711 0
M  V30 136 N 10.3467 1.47872 -0.545128 0
M  V30 137 C 11.2797 2.2675 0.256885 0
M  V30 138 C 12.2577 1.33293 0.931228 0
M  V30 139 O 13.4417 1.62657 0.95262 0
M  V30 140 C 10.5687 3.09976 1.36501 0
M  V30 141 C 9.6147 4.1892 0.800496 0
M  V30 142 S 10.4477 5.34397 -0.343505 0
M  V30 143 C 11.6037 6.21186 0.766733 0
M  V30 144 H 11.8367 2.94425 -0.412479 0
M  V30 145 H 9.3697 1.50806 -0.331204 0
M  V30 146 H 11.3277 3.585 1.9997 0
M  V30 147 H 9.9887 2.41686 2.00616 0
M  V30 148 H 9.1817 4.76836 1.63227 0
M  V30 149 H 8.7837 3.73215 0.242217 0
M  V30 150 H 11.0757 6.56804 1.66178 0
M  V30 151 H 12.0187 7.07742 0.225204 0
M  V30 152 H 12.4267 5.54574 1.05396 0
M  V30 153 N 11.8248 0.280983 1.55075 0
M  V30 154 C 12.7748 -0.618585 2.19448 0
M  V30 155 C 13.7588 -1.11401 1.16098 0
M  V30 156 O 14.9508 -1.0581 1.41891 0
M  V30 157 C 12.0798 -1.79951 2.92357 0
M  V30 158 C 11.1658 -1.321 4.03002 0
M  V30 159 N 11.5568 -0.559044 5.02701 0
M  V30 160 C 9.8548 -1.60346 4.16179 0
M  V30 161 C 10.5558 -0.306722 5.80891 0
M  V30 162 N 9.5318 -0.880825 5.36416 0
M  V30 163 H 13.3338 -0.0286638 2.93886 0
M  V30 164 H 10.8478 0.0848104 1.62178 0
M  V30 165 H 12.8448 -2.45531 3.36927 0
M  V30 166 H 11.5048 -2.39333 2.19431 0
M  V30 167 H 12.5158 -0.205827 5.17491 0
M  V30 168 H 9.1928 -2.20621 3.54447 0
M  V30 169 H 10.5828 0.30391 6.71212 0
M  V30 170 N 13.3029 -1.57598 0.00835791 0
M  V30 171 C 14.5509 -1.90551 -0.6734 0
M  V30 172 C 14.8719 -0.883301 -1.73847 0
M  V30 173 O 14.1419 0.0781442 -1.95744 0
M  V30 174 H 12.7219 -0.703312 -0.251717 0
M  V30 175 H 15.3839 -1.94833 0.0512592 0
M  V30 176 H 14.4799 -2.9056 -1.13935 0
M  V30 177 N 14.781 0.264519 -1.55364 0
M  V30 178 C 15.711 1.33121 -1.91836 0
M  V30 179 C 16.692 1.51101 -0.781192 0
M  V30 180 O 17.877 1.64003 -1.04003 0
M  V30 181 C 15.007 2.68921 -2.19769 0
M  V30 182 C 13.961 2.65661 -3.35571 0
M  V30 183 C 13.287 4.05093 -3.49004 0
M  V30 184 C 14.587 2.24187 -4.71739 0
M  V30 185 H 16.281 1.02844 -2.81182 0
M  V30 186 H 13.827 0.493286 -1.35287 0
M  V30 187 H 15.78 3.43663 -2.43872 0
M  V30 188 H 14.504 3.00799 -1.27231 0
M  V30 189 H 13.163 1.93377 -3.1145 0
M  V30 190 H 12.811 4.34206 -2.53917 0
M  V30 191 H 12.511 4.03804 -4.26868 0
M  V30 192 H 14.035 4.81561 -3.75408 0
M  V30 193 H 15.449 2.88654 -4.9533 0
M  V30 194 H 13.846 2.34044 -5.52579 0
M  V30 195 H 14.916 1.19327 -4.69988 0
M  V30 196 N 16.2591 1.48442 0.529413 0
M  V30 197 C 17.5061 1.56488 1.28521 0
M  V30 198 C 17.8341 0.239042 1.93025 0
M  V30 199 O 17.0891 -0.770713 1.79885 0
M  V30 200 C 17.3881 2.6523 2.39558 0
M  V30 201 C 17.0541 4.07648 1.92702 0
M  V30 202 C 15.7161 4.46411 1.79641 0
M  V30 203 C 18.0681 4.96896 1.573 0
M  V30 204 C 15.3961 5.72226 1.29514 0
M  V30 205 C 17.7481 6.23202 1.08636 0
M  V30 206 C 16.4121 6.60821 0.941919 0
M  V30 207 H 15.6821 0.572631 0.470292 0
M  V30 208 H 18.3291 1.82161 0.59072 0
M  V30 209 H 16.6341 2.33419 3.14679 0
M  V30 210 H 18.3311 2.68671 2.97686 0
M  V30 211 H 14.9211 3.77036 2.03819 0
M  V30 212 H 19.1051 4.67626 1.66251 0
M  V30 213 H 14.3611 6.00097 1.17019 0
M  V30 214 H 18.5351 6.91753 0.803136 0
M  V30 215 H 16.1621 7.58198 0.5513 0
M  V30 216 N 17.7372 -0.778329 1.37039 0
M  V30 217 C 18.9832 -1.53892 1.32079 0
M  V30 218 C 19.3162 -1.9396 -0.0965386 0
M  V30 219 O 18.5912 -1.63568 -1.05242 0
M  V30 220 C 18.8742 -2.80847 2.25382 0
M  V30 221 C 18.7272 -2.47076 3.75864 0
M  V30 222 C 20.0462 -3.82741 2.1725 0
M  V30 223 H 17.1652 -0.558303 0.48111 0
M  V30 224 H 19.8072 -0.893397 1.67685 0
M  V30 225 H 17.9572 -3.35931 1.95148 0
M  V30 226 H 19.6292 -1.97957 4.16666 0
M  V30 227 H 17.8722 -1.79863 3.94755 0
M  V30 228 H 18.5432 -3.37798 4.36574 0
M  V30 229 H 21.0192 -3.37133 2.43887 0
M  V30 230 H 19.8952 -4.69303 2.84686 0
M  V30 231 H 20.1562 -4.2652 1.16331 0
M  V30 232 N 19.2153 -1.21501 -1.00376 0
M  V30 233 C 20.1783 -0.976927 -2.07337 0
M  V30 234 C 21.1783 0.0525322 -1.60714 0
M  V30 235 O 22.3683 -0.184869 -1.73216 0
M  V30 236 C 19.5003 -0.473423 -3.37597 0
M  V30 237 H 20.6933 -1.92587 -2.29892 0
M  V30 238 H 18.2463 -1.03217 -1.17371 0
M  V30 239 H 18.9813 0.480379 -3.20722 0
M  V30 240 H 18.7663 -1.216 -3.72768 0
M  V30 241 H 20.2563 -0.32675 -4.1632 0
M  V30 242 N 20.6934 1.19889 -1.02296 0
M  V30 243 C 21.9184 1.9393 -0.735237 0
M  V30 244 C 22.3434 1.74639 0.698782 0
M  V30 245 O 21.7014 1.04481 1.48167 0
M  V30 246 C 21.7494 3.43916 -1.08417 0
M  V30 247 O 20.8534 4.11917 -0.199446 0
M  V30 248 H 20.1944 0.605645 -0.272196 0
M  V30 249 H 22.7244 1.52137 -1.36804 0
M  V30 250 H 22.7344 3.9456 -1.03856 0
M  V30 251 H 21.4094 3.5728 -2.12894 0
M  V30 252 H 19.9864 3.71666 -0.303136 0
M  V30 253 N 22.1715 0.800033 1.35784 0
M  V30 254 C 23.1215 0.178654 2.27299 0
M  V30 255 C 24.1055 -0.643667 1.47464 0
M  V30 256 O 25.2975 -0.502 1.69732 0
M  V30 257 C 22.4265 -0.677194 3.36555 0
M  V30 258 C 21.5125 0.154497 4.23818 0
M  V30 259 N 21.9035 1.21427 4.91008 0
M  V30 260 C 20.2015 -0.0649462 4.45953 0
M  V30 261 C 20.9025 1.72147 5.55644 0
M  V30 262 N 19.8785 1.02897 5.33773 0
M  V30 263 H 23.6805 0.989637 2.76737 0
M  V30 264 H 21.1945 0.64054 1.49234 0
M  V30 265 H 23.1915 -1.13835 4.01058 0
M  V30 266 H 21.8515 -1.4866 2.8867 0
M  V30 267 H 22.8625 1.59684 4.92668 0
M  V30 268 H 19.5395 -0.844016 4.0888 0
M  V30 269 H 20.9295 2.60683 6.19269 0
M  V30 270 N 23.6496 -1.47581 0.552962 0
M  V30 271 C 25.0606 -1.86324 0.118463 0
M  V30 272 C 25.4116 -1.46006 -1.3106 0
M  V30 273 O 24.5366 -0.861182 -1.98526 0
M  V30 274 C 25.1316 -3.3816 0.20821 0
M  V30 275 C 23.6906 -3.7601 -0.171226 0
M  V30 276 C 22.8376 -2.71634 0.557686 0
M  V30 277 H 25.7886 -1.39159 0.762928 0
M  V30 278 H 25.8096 -3.76141 -0.574278 0
M  V30 279 H 25.3216 -3.67473 1.24841 0
M  V30 280 H 23.4226 -3.52313 -1.21269 0
M  V30 281 H 23.5356 -4.78745 0.184379 0
M  V30 282 H 21.8996 -2.547 0.00125792 0
M  V30 283 H 22.6826 -3.0379 1.59896 0
M  V30 284 N 25.1277 -0.289203 -1.54924 0
M  V30 285 C 26.3737 0.316922 -2.00916 0
M  V30 286 C 26.7287 1.52424 -1.17408 0
M  V30 287 O 26.0217 1.90097 -0.239536 0
M  V30 288 C 26.2157 0.736119 -3.49737 0
M  V30 289 C 26.0447 -0.429036 -4.47649 0
M  V30 290 C 24.8147 -0.917311 -4.96904 0
M  V30 291 C 27.0127 -1.27016 -4.98369 0
M  V30 292 N 24.9947 -2.05046 -5.78644 0
M  V30 293 C 26.3657 -2.25097 -5.77695 0
M  V30 294 C 28.4207 -1.30188 -4.80578 0
M  V30 295 C 27.1237 -3.26114 -6.41126 0
M  V30 296 C 29.1497 -2.30057 -5.44819 0
M  V30 297 C 28.5117 -3.2687 -6.23968 0
M  V30 298 H 24.6107 0.0807535 -0.777819 0
M  V30 299 H 27.1947 -0.416434 -1.90194 0
M  V30 300 H 25.3657 1.43867 -3.60773 0
M  V30 301 H 27.0977 1.32078 -3.82541 0
M  V30 302 H 23.8527 -0.494248 -4.71014 0
M  V30 303 H 24.2767 -2.62108 -6.24202 0
M  V30 304 H 28.9187 -0.567163 -4.18979 0
M  V30 305 H 26.6367 -4.00512 -7.01866 0
M  V30 306 H 30.2227 -2.33271 -5.32988 0
M  V30 307 H 29.1027 -4.02883 -6.72796 0
M  V30 308 N 26.6058 1.57591 -0.0167156 0
M  V30 309 C 27.5158 2.1291 0.98521 0
M  V30 310 C 28.5318 1.07834 1.36557 0
M  V30 311 O 29.7078 1.39826 1.44951 0
M  V30 312 C 26.7728 2.63512 2.25305 0
M  V30 313 C 25.8338 3.83256 1.93426 0
M  V30 314 C 25.0668 4.31435 3.14165 0
M  V30 315 O 25.2898 3.78851 4.26413 0
M  V30 316 O 24.2238 5.23416 2.97186 0
M  V30 317 H 28.0498 2.98772 0.544888 0
M  V30 318 H 25.6348 1.48012 0.203141 0
M  V30 319 H 27.5168 2.96183 2.99756 0
M  V30 320 H 26.1918 1.8074 2.68542 0
M  V30 321 H 25.0988 3.55531 1.16398 0
M  V30 322 H 26.4318 4.67153 1.55013 0
M  V30 323 N 28.0839 -0.256276 1.55502 0
M  V30 324 C 29.3299 -0.987079 1.77157 0
M  V30 325 C 29.6629 -1.85327 0.580315 0
M  V30 326 O 28.9379 -1.89874 -0.421686 0
M  V30 327 C 29.2209 -1.85553 3.08613 0
M  V30 328 C 29.0739 -1.01816 4.38125 0
M  V30 329 C 30.3929 -2.8397 3.36228 0
M  V30 330 H 27.5119 -0.357428 0.644526 0
M  V30 331 H 30.1539 -0.258239 1.88237 0
M  V30 332 H 28.3039 -2.47695 2.99298 0
M  V30 333 H 29.9759 -0.416159 4.59419 0
M  V30 334 H 28.2189 -0.322178 4.32602 0
M  V30 335 H 28.8899 -1.65939 5.26468 0
M  V30 336 H 31.3659 -2.31964 3.45445 0
M  V30 337 H 30.2419 -3.41864 4.29442 0
M  V30 338 H 30.5029 -3.59955 2.56681 0
M  V30 339 N 29.562 -1.4872 -0.521534 0
M  V30 340 C 30.811 -1.56419 -1.27341 0
M  V30 341 C 31.124 -0.246805 -1.94037 0
M  V30 342 O 32.33 -0.202122 -2.70747 0
M  V30 343 C 30.786 -2.75896 -2.31105 0
M  V30 344 C 30.394 -4.14311 -1.70441 0
M  V30 345 C 32.138 -2.92913 -3.07249 0
M  V30 346 C 30.045 -5.25038 -2.72194 0
M  V30 347 H 28.975 -0.582344 -0.478949 0
M  V30 348 H 31.626 -1.75071 -0.549779 0
M  V30 349 H 30.008 -2.50697 -3.06541 0
M  V30 350 H 31.182 -4.49564 -1.01136 0
M  V30 351 H 29.497 -4.02482 -1.06759 0
M  V30 352 H 32.094 -3.72805 -3.83302 0
M  V30 353 H 32.437 -2.02689 -3.63625 0
M  V30 354 H 32.97 -3.18054 -2.38928 0
M  V30 355 H 29.709 -6.17255 -2.20627 0
M  V30 356 H 29.229 -4.94263 -3.39801 0
M  V30 357 H 30.908 -5.53508 -3.35019 0
M  V30 358 N 31.0401 0.771051 -1.3745 0
M  V30 359 C 32.2861 1.5319 -1.32894 0
M  V30 360 C 32.6191 1.94008 0.0862511 0
M  V30 361 O 31.8941 1.64124 1.04373 0
M  V30 362 C 32.1771 2.79648 -2.26868 0
M  V30 363 C 32.0301 2.45079 -3.77169 0
M  V30 364 C 33.3491 3.81583 -2.19277 0
M  V30 365 H 30.4681 0.555744 -0.484064 0
M  V30 366 H 33.1101 0.884492 -1.68157 0
M  V30 367 H 31.2601 3.34891 -1.96926 0
M  V30 368 H 32.9321 1.95745 -4.1771 0
M  V30 369 H 31.1751 1.77767 -3.95704 0
M  V30 370 H 31.8461 3.35478 -4.38359 0
M  V30 371 H 34.3221 3.35835 -2.45671 0
M  V30 372 H 33.1981 4.67787 -2.87171 0
M  V30 373 H 33.4591 4.25897 -1.18592 0
M  V30 374 N 32.5182 1.22032 0.997298 0
M  V30 375 C 33.7662 1.04016 1.73278 0
M  V30 376 C 34.0872 -0.426255 1.90284 0
M  V30 377 O 33.3572 -1.30694 1.45931 0
M  V30 378 H 31.9372 0.381897 0.642 0
M  V30 379 H 34.5992 1.5347 1.20137 0
M  V30 380 H 33.6952 1.51441 2.72896 0
M  V30 381 N 33.9963 -1.19345 1.0293 0
M  V30 382 C 35.2243 -1.92997 0.745644 0
M  V30 383 C 35.6393 -1.75519 -0.695589 0
M  V30 384 O 34.9963 -1.07737 -1.47306 0
M  V30 385 C 35.0473 -3.44741 1.08792 0
M  V30 386 O 34.7683 -3.61658 2.47256 0
M  V30 387 C 36.2693 -4.35515 0.827129 0
M  V30 388 H 33.4893 -0.613042 0.272801 0
M  V30 389 H 36.0333 -1.51473 1.3739 0
M  V30 390 H 34.1883 -3.84097 0.504832 0
M  V30 391 H 34.6023 -4.55514 2.60015 0
M  V30 392 H 36.0763 -5.40589 1.11658 0
M  V30 393 H 36.5533 -4.38552 -0.238436 0
M  V30 394 H 37.1593 -4.01841 1.39297 0
M  V30 395 N 35.4744 -0.807222 -1.35358 0
M  V30 396 C 36.7204 -0.388463 -1.99045 0
M  V30 397 C 37.0534 1.04184 -1.63888 0
M  V30 398 O 36.3284 1.72292 -0.902535 0
M  V30 399 C 36.6114 -0.572783 -3.55515 0
M  V30 400 C 36.4644 -2.04807 -4.00468 0
M  V30 401 C 37.7834 0.00114064 -4.401 0
M  V30 402 H 34.9024 -0.142619 -0.723069 0
M  V30 403 H 37.5444 -1.01687 -1.60498 0
M  V30 404 H 35.6944 -0.0378425 -3.88482 0
M  V30 405 H 37.3664 -2.64544 -3.77908 0
M  V30 406 H 35.6094 -2.54427 -3.51353 0
M  V30 407 H 36.2804 -2.12792 -5.09337 0
M  V30 408 H 38.7564 -0.455716 -4.13597 0
M  V30 409 H 37.6324 -0.157737 -5.48673 0
M  V30 410 H 37.8934 1.09488 -4.28328 0
M  V30 411 N 36.9525 1.47285 -0.560781 0
M  V30 412 C 38.1805 2.06855 -0.0430262 0
M  V30 413 C 38.5955 1.41291 1.25229 0
M  V30 414 O 37.9525 0.510648 1.7521 0
M  V30 415 C 38.0035 3.61178 0.152518 0
M  V30 416 O 37.7245 4.24285 -1.0915 0
M  V30 417 C 39.2255 4.37624 0.707145 0
M  V30 418 H 36.4455 0.669319 -0.0474652 0
M  V30 419 H 38.9895 1.89237 -0.77521 0
M  V30 420 H 37.1445 3.78298 0.834843 0
M  V30 421 H 37.5585 5.16868 -0.891482 0
M  V30 422 H 39.0325 5.46271 0.793244 0
M  V30 423 H 39.5095 4.04152 1.71923 0
M  V30 424 H 40.1155 4.25257 0.0604027 0
M  V30 425 N 38.4306 0.297415 1.54768 0
M  V30 426 C 39.3606 -0.573494 2.26348 0
M  V30 427 C 40.3416 -1.14085 1.26169 0
M  V30 428 O 41.5266 -1.17086 1.54934 0
M  V30 429 C 38.6566 -1.74716 3.00153 0
M  V30 430 C 37.6106 -1.31032 4.07449 0
M  V30 431 C 36.9366 -2.56887 4.68949 0
M  V30 432 C 38.2366 -0.444183 5.20408 0
M  V30 433 H 39.9306 0.0235131 2.99391 0
M  V30 434 H 37.4766 0.0127488 1.43994 0
M  V30 435 H 39.4296 -2.3625 3.48947 0
M  V30 436 H 38.1536 -2.37035 2.24682 0
M  V30 437 H 36.8126 -0.718066 3.59499 0
M  V30 438 H 36.4606 -3.17512 3.90122 0
M  V30 439 H 36.1606 -2.2836 5.41411 0
M  V30 440 H 37.6846 -3.19229 5.20505 0
M  V30 441 H 39.0986 -0.9651 5.65118 0
M  V30 442 H 37.4956 -0.252846 5.99567 0
M  V30 443 H 38.5656 0.531609 4.81977 0
M  V30 444 N 39.9087 -1.5758 0.0250728 0
M  V30 445 C 41.1367 -1.9593 -0.664747 0
M  V30 446 C 41.5517 -0.901352 -1.65895 0
M  V30 447 O 40.9087 0.117255 -1.82123 0
M  V30 448 C 40.9597 -3.34342 -1.37468 0
M  V30 449 O 40.6807 -4.36079 -0.420324 0
M  V30 450 C 42.1817 -3.873 -2.1567 0
M  V30 451 H 39.4017 -0.645405 -0.183557 0
M  V30 452 H 41.9457 -2.04329 0.0836372 0
M  V30 453 H 40.1007 -3.27175 -2.0745 0
M  V30 454 H 40.5147 -5.16297 -0.923991 0
M  V30 455 H 41.9887 -4.86504 -2.60803 0
M  V30 456 H 42.4657 -3.21331 -2.99405 0
M  V30 457 H 43.0717 -3.97723 -1.50654 0
M  V30 458 N 41.3868 0.248026 -1.55636 0
M  V30 459 C 42.6358 0.974134 -1.76617 0
M  V30 460 C 42.9488 1.86528 -0.588796 0
M  V30 461 O 44.1548 2.62805 -0.681594 0
M  V30 462 C 42.6108 1.78213 -3.12679 0
M  V30 463 C 42.2188 0.93843 -4.38061 0
M  V30 464 C 43.9628 2.50104 -3.42999 0
M  V30 465 C 41.8698 1.74225 -5.65155 0
M  V30 466 H 40.7998 0.36745 -0.658405 0
M  V30 467 H 43.4508 0.22884 -1.82067 0
M  V30 468 H 41.8328 2.56933 -3.01333 0
M  V30 469 H 43.0068 0.193635 -4.60393 0
M  V30 470 H 41.3218 0.332905 -4.15067 0
M  V30 471 H 43.9188 3.10694 -4.3517 0
M  V30 472 H 44.2618 3.21662 -2.64271 0
M  V30 473 H 44.7948 1.78395 -3.55556 0
M  V30 474 H 41.5338 1.07043 -6.46701 0
M  V30 475 H 41.0538 2.46235 -5.46926 0
M  V30 476 H 42.7328 2.30967 -6.0437 0
M  V30 477 N 42.8649 1.48995 0.513639 0
M  V30 478 C 44.1049 1.59452 1.27885 0
M  V30 479 C 44.4689 0.269479 1.90099 0
M  V30 480 O 45.6699 0.249139 2.67643 0
M  V30 481 C 43.9409 2.71277 2.32688 0
M  V30 482 S 45.4999 3.01604 3.18717 0
M  V30 483 H 42.3179 0.562565 0.434789 0
M  V30 484 H 44.9199 1.86595 0.583301 0
M  V30 485 H 43.6239 3.66089 1.8549 0
M  V30 486 H 43.1549 2.46086 3.06929 0
M  V30 487 H 45.1699 2.42155 4.331 0
M  V30 488 N 44.343 -0.763751 1.37857 0
M  V30 489 C 45.276 -1.88486 1.28639 0
M  V30 490 C 46.254 -1.61757 0.165363 0
M  V30 491 O 47.438 -1.85391 0.340948 0
M  V30 492 C 44.565 -3.23884 0.990811 0
M  V30 493 C 43.611 -3.69514 2.12983 0
M  V30 494 S 44.444 -3.82244 3.75033 0
M  V30 495 C 45.6 -5.20477 3.47641 0
M  V30 496 H 45.833 -1.96017 2.23527 0
M  V30 497 H 43.366 -0.925684 1.23574 0
M  V30 498 H 45.324 -4.02081 0.827101 0
M  V30 499 H 43.985 -3.14044 0.0592832 0
M  V30 500 H 43.178 -4.67696 1.87821 0
M  V30 501 H 42.78 -2.98441 2.25408 0
M  V30 502 H 45.072 -6.05905 3.03125 0
M  V30 503 H 46.015 -5.50655 4.4518 0
M  V30 504 H 46.423 -4.88793 2.82385 0
M  V30 505 N 45.8211 -1.22559 -0.990812 0
M  V30 506 C 46.7541 -0.940773 -2.07905 0
M  V30 507 C 47.7321 0.117082 -1.62178 0
M  V30 508 O 48.9161 -0.0149506 -1.88494 0
M  V30 509 C 46.0431 -0.415321 -3.36144 0
M  V30 510 C 45.0891 -1.45818 -4.00799 0
M  V30 511 S 45.9221 -3.03219 -4.41382 0
M  V30 512 C 47.0781 -2.52317 -5.72789 0
M  V30 513 H 47.3111 -1.8623 -2.31745 0
M  V30 514 H 44.8441 -1.05688 -1.12558 0
M  V30 515 H 46.8021 -0.118747 -4.10328 0
M  V30 516 H 45.4631 0.485121 -3.10331 0
M  V30 517 H 44.6561 -1.04044 -4.93144 0
M  V30 518 H 44.2581 -1.70356 -3.32949 0
M  V30 519 H 46.5501 -1.93688 -6.49224 0
M  V30 520 H 47.4931 -3.43161 -6.19392 0
M  V30 521 H 47.9011 -1.93529 -5.30289 0
M  V30 522 N 47.2992 1.18797 -1.03562 0
M  V30 523 C 48.5242 1.9314 -0.755764 0
M  V30 524 C 48.9492 1.7537 0.68022 0
M  V30 525 O 48.3072 1.06046 1.47051 0
M  V30 526 C 48.3552 3.42747 -1.12058 0
M  V30 527 O 47.4592 4.11683 -0.243124 0
M  V30 528 H 46.8002 0.602724 -0.278604 0
M  V30 529 H 49.3302 1.50678 -1.3841 0
M  V30 530 H 49.3402 3.93437 -1.08035 0
M  V30 531 H 48.0152 3.55002 -2.16672 0
M  V30 532 H 46.5922 3.71323 -0.342539 0
M  V30 533 N 48.7773 0.814389 1.34928 0
M  V30 534 C 49.7103 0.175641 2.27523 0
M  V30 535 C 50.6883 -0.662953 1.48471 0
M  V30 536 O 51.8723 -0.628545 1.77712 0
M  V30 537 C 48.9993 -0.755516 3.30166 0
M  V30 538 C 48.0453 0.00445305 4.265 0
M  V30 539 S 48.8783 1.34582 5.18313 0
M  V30 540 C 50.0343 0.419315 6.24494 0
M  V30 541 H 50.2673 0.960691 2.8135 0
M  V30 542 H 47.8003 0.609846 1.41846 0
M  V30 543 H 49.7583 -1.28723 3.89796 0
M  V30 544 H 48.4193 -1.51402 2.75202 0
M  V30 545 H 47.6123 -0.703077 4.99072 0
M  V30 546 H 47.2143 0.466447 3.7108 0
M  V30 547 H 49.5063 -0.392432 6.76362 0
M  V30 548 H 50.4493 1.11446 6.99275 0
M  V30 549 H 50.8573 0.0115389 5.64499 0
M  V30 550 N 50.2554 -1.46986 0.568584 0
M  V30 551 C 51.2034 -2.31858 -0.185649 0
M  V30 552 C 52.1974 -1.43624 -0.898249 0
M  V30 553 O 53.4034 -1.60327 -0.818242 0
M  V30 554 H 49.7784 -0.747866 -0.0787399 0
M  V30 555 H 51.7494 -2.93303 0.549191 0
M  V30 556 C 50.4984 -3.26513 -1.19519 0
M  V30 557 H 49.8214 -3.94377 -0.656285 0
M  V30 558 H 51.2614 -3.88707 -1.6936 0
M  V30 559 C 49.7204 -2.50847 -2.24894 0
M  V30 560 O 50.2504 -2.26119 -3.32014 0
M  V30 561 N 48.4564 -2.11656 -1.99124 0
M  V30 562 H 48.0034 -2.31966 -1.12024 0
M  V30 563 H 47.9614 -1.61347 -2.69842 0
M  V30 564 N 51.7335 -0.305618 -1.54608 0
M  V30 565 C 52.6665 0.610536 -2.19881 0
M  V30 566 C 53.6445 1.1294 -1.16976 0
M  V30 567 O 54.8285 1.19673 -1.45638 0
M  V30 568 C 51.9555 1.83583 -2.84631 0
M  V30 569 C 51.0015 1.4498 -4.01102 0
M  V30 570 S 51.8345 0.501793 -5.33144 0
M  V30 571 C 52.9905 1.73478 -6.01379 0
M  V30 572 H 53.2235 0.0560177 -2.97247 0
M  V30 573 H 50.7565 -0.0897434 -1.54139 0
M  V30 574 H 52.7145 2.53898 -3.22562 0
M  V30 575 H 51.3755 2.36152 -2.07102 0
M  V30 576 H 50.5685 2.36236 -4.45206 0
M  V30 577 H 50.1705 0.826553 -3.64752 0
M  V30 578 H 52.4625 2.67473 -6.22467 0
M  V30 579 H 53.4055 1.33622 -6.95378 0
M  V30 580 H 53.8135 1.9136 -5.31076 0
M  V30 581 N 53.2116 1.57565 -0.0334293 0
M  V30 582 C 54.4586 1.91978 0.644272 0
M  V30 583 C 54.7866 0.910231 1.71887 0
M  V30 584 O 54.0416 -0.0801961 1.95536 0
M  V30 585 C 54.3406 3.33112 1.29504 0
M  V30 586 C 54.0066 4.49537 0.350388 0
M  V30 587 C 52.6686 4.81115 0.0903974 0
M  V30 588 C 55.0206 5.20347 -0.298032 0
M  V30 589 C 52.3486 5.8086 -0.825746 0
M  V30 590 C 54.7006 6.2107 -1.20226 0
M  V30 591 C 53.3646 6.51088 -1.4711 0
M  V30 592 H 52.6346 0.702496 0.235756 0
M  V30 593 H 55.2816 1.91259 -0.0961176 0
M  V30 594 H 53.5866 3.30113 2.11028 0
M  V30 595 H 55.2836 3.57011 1.82603 0
M  V30 596 H 51.8736 4.24883 0.563205 0
M  V30 597 H 56.0576 4.96178 -0.110234 0
M  V30 598 H 51.3136 6.02461 -1.04169 0
M  V30 599 H 55.4876 6.75057 -1.71086 0
M  V30 600 H 53.1146 7.28193 -2.18264 0
M  V30 601 N 54.6897 -0.239769 1.55765 0
M  V30 602 C 55.9177 -0.98417 1.81994 0
M  V30 603 C 56.3327 -1.7867 0.610124 0
M  V30 604 O 55.6897 -1.77571 -0.421271 0
M  V30 605 C 55.7407 -1.91635 3.06526 0
M  V30 606 O 55.4617 -1.14629 4.22838 0
M  V30 607 C 56.9627 -2.77616 3.45607 0
M  V30 608 H 54.1827 -0.28928 0.605441 0
M  V30 609 H 56.7267 -0.260499 2.02834 0
M  V30 610 H 54.8817 -2.5942 2.87715 0
M  V30 611 H 55.2957 -1.77745 4.93464 0
M  V30 612 H 56.7697 -3.38759 4.35828 0
M  V30 613 H 57.2467 -3.4909 2.6652 0
M  V30 614 H 57.8527 -2.15271 3.66795 0
M  V30 615 N 56.1678 -1.49265 -0.50573 0
M  V30 616 C 57.4158 -1.582 -1.25766 0
M  V30 617 C 57.7368 -0.268482 -1.93143 0
M  V30 618 O 57.0068 0.711833 -1.8251 0
M  V30 619 H 55.5868 -0.582873 -0.467191 0
M  V30 620 H 58.2488 -1.85865 -0.586525 0
M  V30 621 H 57.3448 -2.37563 -2.02412 0
M  V30 622 N 57.6459 0.756429 -1.3826 0
M  V30 623 C 58.5939 1.89149 -1.35372 0
M  V30 624 C 59.5879 1.67691 -0.24004 0
M  V30 625 O 60.7939 1.75294 -0.408919 0
M  V30 626 H 57.1689 0.622271 -0.422236 0
M  V30 627 H 59.1399 1.88701 -2.31159 0
M  V30 628 C 57.8889 3.26599 -1.19284 0
M  V30 629 H 57.2119 3.43695 -2.0424 0
M  V30 630 H 58.6519 4.06274 -1.21316 0
M  V30 631 C 57.1109 3.3675 0.100454 0
M  V30 632 O 57.6409 3.86951 1.07851 0
M  V30 633 N 55.8469 2.90179 0.15633 0
M  V30 634 H 55.3939 2.49517 -0.640253 0
M  V30 635 H 55.3519 2.97352 1.02123 0
M  V30 636 N 59.124 1.23083 0.984299 0
M  V30 637 C 60.072 1.00593 2.09723 0
M  V30 638 C 61.066 -0.0538014 1.69315 0
M  V30 639 O 62.272 0.0993719 1.79725 0
M  V30 640 H 58.647 0.30817 0.685956 0
M  V30 641 H 60.618 1.95012 2.2586 0
M  V30 642 C 59.367 0.609601 3.42314 0
M  V30 643 H 58.69 1.41675 3.73856 0
M  V30 644 H 60.13 0.491726 4.21139 0
M  V30 645 C 58.589 -0.681745 3.2993 0
M  V30 646 O 59.119 -1.73192 3.62446 0
M  V30 647 N 57.325 -0.656178 2.83095 0
M  V30 648 H 56.872 0.198759 2.56832 0
M  V30 649 H 56.83 -1.52044 2.75191 0
M  V30 650 N 60.6021 -1.18246 1.0419 0
M  V30 651 C 61.5491 -2.2192 0.634037 0
M  V30 652 C 62.5191 -1.62179 -0.358765 0
M  V30 653 O 63.7041 -1.89122 -0.252466 0
M  V30 654 C 60.8441 -3.451 0.00445535 0
M  V30 655 C 59.9571 -4.19174 1.04487 0
M  V30 656 C 59.0921 -5.29813 0.383676 0
M  V30 657 C 58.1311 -5.9566 1.4091 0
M  V30 658 N 57.2681 -6.97834 0.772784 0
M  V30 659 H 62.1081 -2.56164 1.52263 0
M  V30 660 H 59.6451 -1.25843 0.761701 0
M  V30 661 H 61.6031 -4.15485 -0.377919 0
M  V30 662 H 60.2331 -3.11472 -0.847652 0
M  V30 663 H 59.2851 -3.47604 1.54518 0
M  V30 664 H 60.5971 -4.64267 1.82368 0
M  V30 665 H 59.7511 -6.06677 -0.0528366 0
M  V30 666 H 58.4901 -4.85825 -0.427208 0
M  V30 667 H 57.4951 -5.17535 1.85574 0
M  V30 668 H 58.7201 -6.4173 2.22171 0
M  V30 669 H 56.6661 -6.55998 -0.0177708 0
M  V30 670 H 56.5831 -7.41186 1.48928 0
M  V30 671 H 57.8511 -7.78665 0.36071 0
M  V30 672 N 62.0802 -0.821533 -1.34494 0
M  V30 673 C 63.3292 -0.405355 -1.97585 0
M  V30 674 C 63.6422 1.03677 -1.65863 0
M  V30 675 O 64.8482 1.55679 -2.22433 0
M  V30 676 C 63.3042 -0.673861 -3.53535 0
M  V30 677 C 62.9122 -2.12951 -3.94152 0
M  V30 678 C 64.6562 -0.32378 -4.23263 0
M  V30 679 C 62.5632 -2.34298 -5.43009 0
M  V30 680 H 61.4932 -0.147836 -0.739365 0
M  V30 681 H 64.1442 -1.00769 -1.53355 0
M  V30 682 H 62.5262 -0.00137554 -3.96 0
M  V30 683 H 63.7002 -2.84104 -3.62797 0
M  V30 684 H 62.0152 -2.44089 -3.37356 0
M  V30 685 H 64.6122 -0.461126 -5.32708 0
M  V30 686 H 64.9552 0.731586 -4.09821 0
M  V30 687 H 65.4882 -0.950786 -3.8627 0
M  V30 688 H 62.2272 -3.38335 -5.61435 0
M  V30 689 H 61.7472 -1.67687 -5.75883 0
M  V30 690 H 63.4262 -2.16588 -6.09671 0
M  V30 691 N 63.5583 1.46682 -0.576371 0
M  V30 692 C 64.7983 2.04306 -0.0621356 0
M  V30 693 C 65.1623 1.4389 1.2712 0
M  V30 694 O 66.3633 1.92675 1.87429 0
M  V30 695 C 64.6343 3.57399 0.00927922 0
M  V30 696 S 66.1933 4.36309 0.466859 0
M  V30 697 H 63.0113 0.710167 -0.0344016 0
M  V30 698 H 65.6133 1.79807 -0.767437 0
M  V30 699 H 64.3173 3.98889 -0.965178 0
M  V30 700 H 63.8483 3.86424 0.737547 0
M  V30 701 H 65.8633 4.6533 1.72287 0
M  V30 702 N 65.0364 0.313813 1.54444 0
M  V30 703 C 66.2844 -0.291099 1.99993 0
M  V30 704 C 66.6054 -1.53418 1.20366 0
M  V30 705 O 65.8754 -1.93544 0.302927 0
M  V30 706 H 64.4554 -0.110552 0.738774 0
M  V30 707 H 67.1174 0.428106 1.9014 0
M  V30 708 H 66.2134 -0.554268 3.07139 0
M  V30 709 N 66.5145 -1.57545 0.0417849 0
M  V30 710 C 67.7605 -1.93424 -0.629168 0
M  V30 711 C 68.1155 -0.919564 -1.69002 0
M  V30 712 O 67.4085 0.0626178 -1.91498 0
M  V30 713 C 67.6025 -3.33794 -1.27735 0
M  V30 714 C 67.4315 -4.48822 -0.280806 0
M  V30 715 C 66.2015 -5.05148 0.123869 0
M  V30 716 C 68.3995 -5.12148 0.470012 0
M  V30 717 N 66.3815 -6.03703 1.11426 0
M  V30 718 C 67.7525 -6.05921 1.31377 0
M  V30 719 C 69.8075 -4.95078 0.529343 0
M  V30 720 C 68.5105 -6.84459 2.21152 0
M  V30 721 C 70.5365 -5.74235 1.41448 0
M  V30 722 C 69.8985 -6.67634 2.24598 0
M  V30 723 H 65.9975 -0.755418 -0.202158 0
M  V30 724 H 68.5815 -1.94378 0.111923 0
M  V30 725 H 66.7525 -3.33635 -1.98852 0
M  V30 726 H 68.4845 -3.56988 -1.90635 0
M  V30 727 H 65.2395 -4.72923 -0.253178 0
M  V30 728 H 65.6635 -6.57674 1.60607 0
M  V30 729 H 70.3055 -4.22683 -0.0992798 0
M  V30 730 H 68.0235 -7.56151 2.85063 0
M  V30 731 H 71.6095 -5.63057 1.46484 0
M  V30 732 H 70.4895 -7.27817 2.9198 0
M  V30 733 N 67.9926 0.231505 -1.5589 0
M  V30 734 C 68.9406 1.30649 -1.92441 0
M  V30 735 C 69.9346 1.49037 -0.805254 0
M  V30 736 O 71.1406 1.50329 -0.990007 0
M  V30 737 H 67.5156 0.437812 -0.611412 0
M  V30 738 H 69.4866 0.970973 -2.82161 0
M  V30 739 C 68.2356 2.65179 -2.24889 0
M  V30 740 H 67.5586 2.51835 -3.10514 0
M  V30 741 H 68.9986 3.39234 -2.54355 0
M  V30 742 C 67.4576 3.19439 -1.07054 0
M  V30 743 O 67.9876 4.00371 -0.326499 0
M  V30 744 N 66.1936 2.77675 -0.85703 0
M  V30 745 H 65.7406 2.11969 -1.46379 0
M  V30 746 H 65.6986 3.14321 -0.0703223 0
M  V30 747 N 69.4707 1.49531 0.497807 0
M  V30 748 C 70.7007 1.62657 1.27382 0
M  V30 749 C 71.1087 0.298488 1.86831 0
M  V30 750 O 70.4517 -0.72647 1.68725 0
M  V30 751 C 70.5137 2.6393 2.44093 0
M  V30 752 C 70.1777 4.08195 2.05489 0
M  V30 753 C 71.1747 4.949 1.59279 0
M  V30 754 C 68.8597 4.53948 2.15026 0
M  V30 755 C 70.8537 6.25397 1.23113 0
M  V30 756 C 68.5407 5.84458 1.78473 0
M  V30 757 C 69.5387 6.70006 1.32591 0
M  V30 758 O 69.2267 7.98083 0.965327 0
M  V30 759 H 68.9587 0.550429 0.392434 0
M  V30 760 H 71.5127 1.96325 0.603801 0
M  V30 761 H 69.7427 2.25449 3.14181 0
M  V30 762 H 71.4317 2.66552 3.06113 0
M  V30 763 H 72.1977 4.60779 1.51354 0
M  V30 764 H 68.0767 3.87525 2.4969 0
M  V30 765 H 71.6207 6.92125 0.872299 0
M  V30 766 H 67.5177 6.18107 1.86048 0
M  V30 767 H 68.2857 8.11122 1.09652 0
M  V30 768 N 70.9488 -0.749086 1.3866 0
M  V30 769 C 71.8588 -1.89358 1.38494 0
M  V30 770 C 72.8748 -1.71708 0.281476 0
M  V30 771 O 74.0508 -1.94554 0.520643 0
M  V30 772 C 71.1158 -3.24782 1.21316 0
M  V30 773 C 70.1768 -3.54926 2.41508 0
M  V30 774 C 69.4098 -4.83888 2.2514 0
M  V30 775 O 69.6328 -5.56592 1.24746 0
M  V30 776 O 68.5668 -5.13612 3.13826 0
M  V30 777 H 72.3928 -1.92452 2.34938 0
M  V30 778 H 69.9778 -0.894981 1.19626 0
M  V30 779 H 71.8598 -4.05739 1.13814 0
M  V30 780 H 70.5348 -3.2249 0.279592 0
M  V30 781 H 69.4418 -2.74112 2.54585 0
M  V30 782 H 70.7748 -3.61983 3.3351 0
M  V30 783 N 72.4269 -1.23603 -0.977757 0
M  V30 784 C 73.6669 -1.08148 -1.73446 0
M  V30 785 C 74.0309 0.374785 -1.88307 0
M  V30 786 O 75.2319 0.650588 -2.60808 0
M  V30 787 C 73.5029 -1.78991 -3.0935 0
M  V30 788 S 75.0619 -1.79141 -4.00567 0
M  V30 789 H 71.8799 -0.386987 -0.596458 0
M  V30 790 H 74.4819 -1.5678 -1.16792 0
M  V30 791 H 73.1859 -2.8408 -2.96187 0
M  V30 792 H 72.7169 -1.30651 -3.71071 0
M  V30 793 H 74.7319 -0.851892 -4.88833 0
M  V30 794 N 73.905 1.17692 -1.04816 0
M  V30 795 C 75.316 1.69501 -0.782698 0
M  V30 796 C 75.667 1.83456 0.695577 0
M  V30 797 O 74.792 1.51942 1.54086 0
M  V30 798 C 75.387 3.07874 -1.41419 0
M  V30 799 C 73.946 3.56864 -1.19686 0
M  V30 800 C 73.093 2.3322 -1.50012 0
M  V30 801 H 76.044 1.02262 -1.2136 0
M  V30 802 H 76.065 3.71528 -0.821428 0
M  V30 803 H 75.577 2.97685 -2.49009 0
M  V30 804 H 73.678 3.72337 -0.140043 0
M  V30 805 H 73.791 4.39851 -1.89916 0
M  V30 806 H 72.155 2.37501 -0.920071 0
M  V30 807 H 72.938 2.25644 -2.58727 0
M  V30 808 N 75.3831 0.828654 1.34056 0
M  V30 809 C 76.3301 0.252567 2.29414 0
M  V30 810 C 77.3001 -0.62588 1.53857 0
M  V30 811 O 78.4851 -0.566312 1.82202 0
M  V30 812 C 75.6251 -0.574831 3.40279 0
M  V30 813 C 74.7381 0.326499 4.30764 0
M  V30 814 C 73.8731 -0.511016 5.28736 0
M  V30 815 C 72.9121 0.389342 6.1086 0
M  V30 816 N 72.0491 -0.409439 7.00905 0
M  V30 817 H 76.8891 1.07108 2.78086 0
M  V30 818 H 74.4261 0.539677 1.36843 0
M  V30 819 H 76.3841 -1.06992 4.03248 0
M  V30 820 H 75.0141 -1.35841 2.92826 0
M  V30 821 H 74.0661 0.939837 3.68607 0
M  V30 822 H 75.3781 1.01857 4.88289 0
M  V30 823 H 74.5321 -1.07035 5.97184 0
M  V30 824 H 73.2711 -1.23657 4.71763 0
M  V30 825 H 72.2761 0.960769 5.4134 0
M  V30 826 H 73.5011 1.1131 6.69916 0
M  V30 827 H 71.4471 -1.11856 6.46393 0
M  V30 828 H 71.3641 0.224126 7.55668 0
M  V30 829 H 72.6321 -0.951336 7.73673 0
M  V30 830 N 76.8612 -1.46375 0.584142 0
M  V30 831 C 78.1082 -2.02378 0.0702675 0
M  V30 832 C 78.4362 -1.45545 -1.29023 0
M  V30 833 O 77.6912 -0.610967 -1.85918 0
M  V30 834 C 77.9902 -3.57373 -0.0439342 0
M  V30 835 C 77.6562 -4.33252 1.24915 0
M  V30 836 C 76.3182 -4.53701 1.60341 0
M  V30 837 C 78.6702 -4.7681 2.1048 0
M  V30 838 C 75.9982 -5.1496 2.81128 0
M  V30 839 C 78.3502 -5.39404 3.30494 0
M  V30 840 C 77.0142 -5.5808 3.66201 0
M  V30 841 H 76.2842 -0.740554 0.0257127 0
M  V30 842 H 78.9312 -1.75727 0.761065 0
M  V30 843 H 77.2362 -3.83169 -0.817869 0
M  V30 844 H 78.9332 -3.98384 -0.457318 0
M  V30 845 H 75.5232 -4.17633 0.963364 0
M  V30 846 H 79.7072 -4.60766 1.84414 0
M  V30 847 H 74.9632 -5.27611 3.08928 0
M  V30 848 H 79.1372 -5.72114 3.97063 0
M  V30 849 H 76.7642 -6.05318 4.59885 0
M  V30 850 N 78.3393 -0.321999 -1.54275 0
M  V30 851 C 79.2493 0.553631 -2.27974 0
M  V30 852 C 80.2653 1.13054 -1.32268 0
M  V30 853 O 81.4413 1.15084 -1.6528 0
M  V30 854 C 78.5063 1.69927 -3.02201 0
M  V30 855 C 77.5673 1.15433 -4.1349 0
M  V30 856 C 76.8003 2.24537 -4.84168 0
M  V30 857 O 77.0233 3.44852 -4.5435 0
M  V30 858 O 75.9573 1.90044 -5.7111 0
M  V30 859 H 79.7833 -0.0448345 -3.03667 0
M  V30 860 H 77.3683 -0.0877418 -1.49142 0
M  V30 861 H 79.2503 2.3663 -3.48689 0
M  V30 862 H 77.9253 2.28395 -2.29385 0
M  V30 863 H 76.8323 0.452436 -3.71354 0
M  V30 864 H 78.1653 0.614805 -4.88345 0
M  V30 865 N 79.8174 1.5752 -0.0501392 0
M  V30 866 C 80.7274 2.14952 0.939827 0
M  V30 867 C 81.7434 1.10706 1.34239 0
M  V30 868 O 82.9194 1.42869 1.41952 0
M  V30 869 C 79.9844 2.68232 2.19665 0
M  V30 870 C 79.0454 3.87272 1.85253 0
M  V30 871 C 78.2784 4.38002 3.04943 0
M  V30 872 O 78.5014 3.87811 4.18281 0
M  V30 873 O 77.4354 5.29602 2.86017 0
M  V30 874 H 81.2614 2.9986 0.481392 0
M  V30 875 H 78.8464 1.4841 0.171699 0
M  V30 876 H 80.7284 3.02475 2.93406 0
M  V30 877 H 79.4034 1.86395 2.64648 0
M  V30 878 H 78.3104 3.5792 1.0883 0
M  V30 879 H 79.6434 4.70336 1.4507 0
M  V30 880 N 81.2955 -0.223234 1.56011 0
M  V30 881 C 82.5725 -0.972108 1.69733 0
M  V30 882 C 82.9525 -2.02485 0.59691 0
M  V30 883 O 82.3005 -2.25037 -0.396324 0
M  V30 884 C 82.5105 -1.58407 3.10979 0
M  V30 885 C 83.8585 -2.07696 3.70334 0
M  V30 886 O 84.8825 -1.68304 3.1393 0
M  V30 887 O 83.7415 -2.80096 4.69264 0
M  V30 888 H 80.8355 -0.453993 0.691245 0
M  V30 889 H 83.3815 -0.215149 1.68331 0
M  V30 890 H 82.1535 -0.823831 3.82529 0
M  V30 891 H 81.7765 -2.40661 3.16493 0
M  V30 892 N 82.7736 -1.49793 -0.48987 0
M  V30 893 C 84.0196 -1.60078 -1.24511 0
M  V30 894 C 84.3526 -0.291608 -1.91998 0
M  V30 895 O 83.6276 0.705647 -1.81248 0
M  V30 896 C 83.9106 -2.76791 -2.30345 0
M  V30 897 C 83.7636 -4.17535 -1.67286 0
M  V30 898 C 85.0826 -2.89111 -3.31817 0
M  V30 899 H 82.2016 -0.582645 -0.451324 0
M  V30 900 H 84.8436 -1.82117 -0.541612 0
M  V30 901 H 82.9936 -2.5813 -2.90346 0
M  V30 902 H 84.6656 -4.4774 -1.11026 0
M  V30 903 H 82.9086 -4.22665 -0.976577 0
M  V30 904 H 83.5796 -4.95094 -2.44103 0
M  V30 905 H 86.0556 -3.06133 -2.81819 0
M  V30 906 H 84.9316 -3.72433 -4.03219 0
M  V30 907 H 85.1926 -1.9893 -3.94815 0
M  V30 908 N 84.2517 0.741722 -1.39055 0
M  V30 909 C 85.1817 1.869 -1.39966 0
M  V30 910 C 86.1627 1.6804 -0.26392 0
M  V30 911 O 87.3477 1.88458 -0.468755 0
M  V30 912 C 84.4777 3.24572 -1.23574 0
M  V30 913 C 83.4317 3.58056 -2.34477 0
M  V30 914 C 82.7577 4.94593 -2.0318 0
M  V30 915 C 84.0577 3.61716 -3.76774 0
M  V30 916 H 85.7517 1.86395 -2.34302 0
M  V30 917 H 83.2977 0.895361 -1.1278 0
M  V30 918 H 85.2507 4.031 -1.22834 0
M  V30 919 H 83.9747 3.25587 -0.257045 0
M  V30 920 H 82.6337 2.81854 -2.34423 0
M  V30 921 H 82.2817 4.92181 -1.03765 0
M  V30 922 H 81.9817 5.17964 -2.77465 0
M  V30 923 H 83.5057 5.75486 -2.04079 0
M  V30 924 H 84.9197 4.30335 -3.78794 0
M  V30 925 H 83.3167 3.96603 -4.50362 0
M  V30 926 H 84.3867 2.61672 -4.08235 0
M  V30 927 N 85.7298 1.2412 0.971189 0
M  V30 928 C 86.9548 1.10667 1.75407 0
M  V30 929 C 87.3798 -0.337048 1.85056 0
M  V30 930 O 86.7378 -1.24396 1.31892 0
M  V30 931 C 86.7858 1.74726 3.15441 0
M  V30 932 O 85.8898 1.01566 3.99697 0
M  V30 933 H 85.2308 0.387341 0.539317 0
M  V30 934 H 87.7608 1.64358 1.2185 0
M  V30 935 H 87.7708 1.80341 3.6598 0
M  V30 936 H 86.4458 2.79773 3.07734 0
M  V30 937 H 85.0228 1.03713 3.58187 0
M  V30 938 N 87.2079 -1.17134 1.05439 0
M  V30 939 C 88.4329 -1.91913 0.786396 0
M  V30 940 C 88.8579 -1.7643 -0.652234 0
M  V30 941 O 88.2159 -1.08372 -1.45345 0
M  V30 942 C 88.2639 -3.40921 1.17497 0
M  V30 943 O 87.3679 -4.11244 0.308589 0
M  V30 944 H 86.7089 -0.598215 0.288158 0
M  V30 945 H 89.2389 -1.48457 1.4079 0
M  V30 946 H 89.2489 -3.91668 1.14281 0
M  V30 947 H 87.9239 -3.5151 2.22292 0
M  V30 948 H 86.5009 -3.70731 0.40157 0
M  V30 949 N 88.686 -0.835752 -1.33615 0
M  V30 950 C 89.963 -0.352017 -1.92406 0
M  V30 951 C 90.343 1.16225 -1.76224 0
M  V30 952 O 89.691 1.97526 -1.14873 0
M  V30 953 C 89.901 -0.795485 -3.39813 0
M  V30 954 C 91.249 -0.801703 -4.16963 0
M  V30 955 O 92.273 -0.738889 -3.48452 0
M  V30 956 O 91.132 -0.886607 -5.3926 0
M  V30 957 H 88.226 -0.0989641 -0.821057 0
M  V30 958 H 90.772 -0.921397 -1.42507 0
M  V30 959 H 89.544 -1.83795 -3.45449 0
M  V30 960 H 89.167 -0.202505 -3.97084 0
M  V30 961 N 90.1641 1.46063 -0.591896 0
M  V30 962 C 91.4131 2.01547 -0.0786637 0
M  V30 963 C 91.7261 1.46796 1.29268 0
M  V30 964 O 92.9321 1.94157 1.89777 0
M  V30 965 C 91.3881 3.59787 -0.0900024 0
M  V30 966 C 90.9961 4.23534 -1.46023 0
M  V30 967 C 92.7401 4.22895 0.368806 0
M  V30 968 C 90.6471 5.73881 -1.4288 0
M  V30 969 H 89.5771 0.753564 -0.0256388 0
M  V30 970 H 92.2281 1.677 -0.744905 0
M  V30 971 H 90.6101 3.90752 0.642586 0
M  V30 972 H 91.7841 4.04167 -2.21328 0
M  V30 973 H 90.0991 3.72558 -1.85982 0
M  V30 974 H 92.6961 5.33116 0.411258 0
M  V30 975 H 93.0391 3.9247 1.38827 0
M  V30 976 H 93.5721 3.9659 -0.31001 0
M  V30 977 H 90.3111 6.0898 -2.42536 0
M  V30 978 H 89.8311 5.95486 -0.718095 0
M  V30 979 H 91.5101 6.36776 -1.14565 0
M  V30 980 N 91.6422 0.330177 1.54103 0
M  V30 981 C 92.8912 -0.271336 1.99867 0
M  V30 982 C 93.2042 -1.52723 1.22209 0
M  V30 983 O 94.4102 -2.20515 1.58383 0
M  V30 984 C 92.8662 -0.534032 3.55916 0
M  V30 985 C 92.4742 0.705193 4.42415 0
M  V30 986 C 94.2182 -1.09514 4.1013 0
M  V30 987 C 92.1252 0.414035 5.89949 0
M  V30 988 H 91.0552 -0.105166 0.74663 0
M  V30 989 H 93.7062 0.443429 1.78062 0
M  V30 990 H 92.0882 -1.30915 3.73734 0
M  V30 991 H 93.2622 1.4804 4.36372 0
M  V30 992 H 91.5772 1.18698 3.99124 0
M  V30 993 H 94.1742 -1.3277 5.17954 0
M  V30 994 H 94.5172 -2.04656 3.62521 0
M  V30 995 H 95.0502 -0.381038 3.95971 0
M  V30 996 H 91.7892 1.33481 6.41766 0
M  V30 997 H 91.3092 -0.323336 5.98928 0
M  V30 998 H 92.9882 0.0263105 6.46995 0
M  V30 999 N 93.1203 -1.57491 0.0584922 0
M  V30 1000 C 94.3693 -1.92155 -0.613146 0
M  V30 1001 C 94.6823 -0.939334 -1.71569 0
M  V30 1002 O 95.8883 -1.17829 -2.44599 0
M  V30 1003 C 94.3443 -3.41303 -1.14195 0
M  V30 1004 C 93.9523 -4.47944 -0.0711265 0
M  V30 1005 C 95.6963 -3.84988 -1.78841 0
M  V30 1006 C 93.6033 -5.88212 -0.613225 0
M  V30 1007 H 92.5333 -0.717162 -0.232796 0
M  V30 1008 H 95.1843 -1.83049 0.12857 0
M  V30 1009 H 93.5663 -3.45437 -1.93621 0
M  V30 1010 H 94.7403 -4.55408 0.702836 0
M  V30 1011 H 93.0553 -4.13644 0.478313 0
M  V30 1012 H 95.6523 -4.87159 -2.20408 0
M  V30 1013 H 95.9953 -3.21632 -2.64308 0
M  V30 1014 H 96.5283 -3.83401 -1.06059 0
M  V30 1015 H 93.2673 -6.55183 0.203978 0
M  V30 1016 H 92.7873 -5.84294 -1.35501 0
M  V30 1017 H 94.4663 -6.37687 -1.09383 0
M  V30 1018 N 94.5984 0.214957 -1.56127 0
M  V30 1019 C 95.5284 1.2695 -1.95974 0
M  V30 1020 C 96.5094 1.48539 -0.828868 0
M  V30 1021 O 97.6944 1.60611 -1.09168 0
M  V30 1022 C 94.8244 2.61794 -2.28214 0
M  V30 1023 C 93.7784 2.54851 -3.43853 0
M  V30 1024 C 93.1044 3.93785 -3.61715 0
M  V30 1025 C 94.4044 2.09065 -4.78632 0
M  V30 1026 H 96.0984 0.93846 -2.84312 0
M  V30 1027 H 93.6444 0.449996 -1.36788 0
M  V30 1028 H 95.5974 3.35731 -2.54682 0
M  V30 1029 H 94.3214 2.96599 -1.36736 0
M  V30 1030 H 92.9804 1.8337 -3.17444 0
M  V30 1031 H 92.6284 4.25908 -2.67602 0
M  V30 1032 H 92.3284 3.90019 -4.39498 0
M  V30 1033 H 93.8524 4.69374 -3.90539 0
M  V30 1034 H 95.2664 2.7275 -5.04262 0
M  V30 1035 H 93.6634 2.16346 -5.59745 0
M  V30 1036 H 94.7334 1.04315 -4.73547 0
M  V30 1037 N 96.0765 1.50051 0.48192 0
M  V30 1038 C 97.3045 1.64237 1.25832 0
M  V30 1039 C 97.7195 0.321336 1.86045 0
M  V30 1040 O 97.0765 -0.695478 1.68729 0
M  V30 1041 C 97.1275 2.72548 2.37487 0
M  V30 1042 O 96.8485 3.99529 1.79745 0
M  V30 1043 C 98.3495 2.9761 3.28547 0
M  V30 1044 H 95.5695 0.55237 0.380957 0
M  V30 1045 H 98.1135 1.96207 0.576467 0
M  V30 1046 H 96.2685 2.43303 3.01467 0
M  V30 1047 H 96.6825 4.59342 2.5319 0
M  V30 1048 H 98.1565 3.77084 4.03127 0
M  V30 1049 H 98.6335 2.0826 3.86684 0
M  V30 1050 H 99.2395 3.28345 2.70314 0
M  V30 1051 N 97.5546 -0.734337 1.39446 0
M  V30 1052 C 98.8036 -1.48937 1.36017 0
M  V30 1053 C 99.1166 -1.95557 -0.0409005 0
M  V30 1054 O 100.323 -2.70779 -0.19778 0
M  V30 1055 C 98.7786 -2.69125 2.38955 0
M  V30 1056 C 98.3866 -2.29452 3.8478 0
M  V30 1057 C 100.131 -3.46944 2.44603 0
M  V30 1058 C 98.0376 -3.46366 4.79358 0
M  V30 1059 H 96.9676 -0.559296 0.505672 0
M  V30 1060 H 99.6186 -0.800983 1.65095 0
M  V30 1061 H 98.0006 -3.40041 2.02948 0
M  V30 1062 H 99.1746 -1.66077 4.29831 0
M  V30 1063 H 97.4896 -1.64723 3.82433 0
M  V30 1064 H 100.087 -4.33907 3.12456 0
M  V30 1065 H 100.43 -3.89454 1.47076 0
M  V30 1066 H 100.963 -2.83056 2.79507 0
M  V30 1067 H 97.7016 -3.08905 5.78151 0
M  V30 1068 H 97.2216 -4.08719 4.38986 0
M  V30 1069 H 98.9006 -4.12691 4.98292 0
M  V30 1070 N 99.0327 -1.24633 -0.964593 0
M  V30 1071 C 100.261 -1.11501 -1.74285 0
M  V30 1072 C 100.676 0.332165 -1.85855 0
M  V30 1073 O 100.033 1.22903 -1.34911 0
M  V30 1074 C 100.084 -1.75258 -3.16175 0
M  V30 1075 O 99.8047 -3.14318 -3.05182 0
M  V30 1076 C 101.306 -1.67776 -4.10324 0
M  V30 1077 H 98.5257 -0.389407 -0.546446 0
M  V30 1078 H 101.07 -1.64801 -1.21083 0
M  V30 1079 H 99.2247 -1.25954 -3.66353 0
M  V30 1080 H 99.6387 -3.4551 -3.94618 0
M  V30 1081 H 101.113 -2.17064 -5.0753 0
M  V30 1082 H 101.59 -0.639584 -4.34518 0
M  V30 1083 H 102.196 -2.16522 -3.66058 0
M  V30 1084 N 100.511 1.16574 -1.06058 0
M  V30 1085 C 101.927 1.3904 -0.783585 0
M  V30 1086 C 102.127 1.91784 0.618145 0
M  V30 1087 O 101.183 2.11511 1.37911 0
M  V30 1088 C 102.496 2.37329 -1.84649 0
M  V30 1089 C 104.044 2.51018 -1.86973 0
M  V30 1090 C 104.519 3.52588 -2.92311 0
M  V30 1091 N 106.01 3.60113 -2.91329 0
M  V30 1092 C 106.745 4.38486 -3.69482 0
M  V30 1093 N 106.241 5.20302 -4.57447 0
M  V30 1094 N 108.034 4.33446 -3.57885 0
M  V30 1095 H 100.185 0.806725 -1.96483 0
M  V30 1096 H 102.448 0.417117 -0.851303 0
M  V30 1097 H 102.154 2.05663 -2.85299 0
M  V30 1098 H 102.028 3.36946 -1.6955 0
M  V30 1099 H 104.415 2.81989 -0.869827 0
M  V30 1100 H 104.496 1.51445 -2.0615 0
M  V30 1101 H 104.14 3.22354 -3.92492 0
M  V30 1102 H 104.07 4.51886 -2.70383 0
M  V30 1103 H 106.561 3.01707 -2.27555 0
M  V30 1104 H 106.874 5.77311 -5.13743 0
M  V30 1105 H 105.219 5.19653 -4.61503 0
M  V30 1106 H 108.41 3.68586 -2.88551 0
M  V30 1107 H 108.583 4.94279 -4.19037 0
M  V30 1108 N 101.989 0.842826 1.3317 0
M  V30 1109 C 103.229 0.446574 1.99462 0
M  V30 1110 C 103.593 -0.976818 1.65295 0
M  V30 1111 O 104.794 -1.477 2.24584 0
M  V30 1112 C 103.065 0.665353 3.51152 0
M  V30 1113 S 104.624 0.364911 4.3728 0
M  V30 1114 H 101.442 0.167803 0.690915 0
M  V30 1115 H 104.044 1.09297 1.62094 0
M  V30 1116 H 102.748 1.7006 3.73507 0
M  V30 1117 H 102.279 0.00494568 3.934 0
M  V30 1118 H 104.294 -0.813761 4.89482 0
M  V30 1119 N 103.467 -1.45747 0.599634 0
M  V30 1120 C 104.716 -2.01502 0.0893511 0
M  V30 1121 C 105.029 -1.4748 -1.28488 0
M  V30 1122 O 106.235 -1.95161 -1.88745 0
M  V30 1123 C 104.691 -3.59735 0.109082 0
M  V30 1124 C 104.299 -4.22754 1.48267 0
M  V30 1125 C 106.043 -4.23085 -0.346374 0
M  V30 1126 C 103.95 -5.73115 1.45921 0
M  V30 1127 H 102.88 -0.753417 0.0296347 0
M  V30 1128 H 105.531 -1.67303 0.753788 0
M  V30 1129 H 103.913 -3.91087 -0.621854 0
M  V30 1130 H 105.087 -4.02987 2.23468 0
M  V30 1131 H 103.402 -3.71567 1.87955 0
M  V30 1132 H 105.999 -5.33327 -0.38298 0
M  V30 1133 H 106.342 -3.93201 -1.36743 0
M  V30 1134 H 106.875 -3.9642 0.331038 0
M  V30 1135 H 103.614 -6.07685 2.45762 0
M  V30 1136 H 103.134 -5.95097 0.749665 0
M  V30 1137 H 104.813 -6.3616 1.17941 0
M  V30 1138 N 104.945 -0.338344 -1.53925 0
M  V30 1139 C 105.908 0.508299 -2.23493 0
M  V30 1140 C 106.908 1.03175 -1.23335 0
M  V30 1141 O 108.098 0.921826 -1.47811 0
M  V30 1142 C 105.23 1.70754 -2.95052 0
M  V30 1143 H 106.423 -0.100058 -2.99733 0
M  V30 1144 H 103.976 -0.0896198 -1.56043 0
M  V30 1145 H 104.711 2.35474 -2.22986 0
M  V30 1146 H 104.496 1.33946 -3.68512 0
M  V30 1147 H 105.986 2.30818 -3.48013 0
M  V30 1148 N 106.423 1.57458 -0.0668435 0
M  V30 1149 C 107.672 1.92477 0.602947 0
M  V30 1150 C 107.985 0.948419 1.71068 0
M  V30 1151 O 109.191 1.19124 2.43971 0
M  V30 1152 C 107.647 3.41903 1.12383 0
M  V30 1153 C 107.255 4.47975 0.04737 0
M  V30 1154 C 108.999 3.85931 1.76797 0
M  V30 1155 C 106.906 5.88529 0.582022 0
M  V30 1156 H 105.836 0.718387 0.22899 0
M  V30 1157 H 108.487 1.82978 -0.138276 0
M  V30 1158 H 106.869 3.46459 1.91787 0
M  V30 1159 H 108.043 4.55029 -0.726978 0
M  V30 1160 H 106.358 4.13384 -0.500243 0
M  V30 1161 H 108.955 4.88322 2.17821 0
M  V30 1162 H 109.298 3.23029 2.62599 0
M  V30 1163 H 109.831 3.83958 1.04024 0
M  V30 1164 H 106.57 6.55065 -0.238721 0
M  V30 1165 H 106.09 5.85004 1.324 0
M  V30 1166 H 107.769 6.38258 1.05999 0
M  V30 1167 N 107.901 -0.206675 1.56239 0
M  V30 1168 C 108.831 -1.25909 1.96645 0
M  V30 1169 C 109.812 -1.48097 0.836734 0
M  V30 1170 O 110.997 -1.6003 1.10019 0
M  V30 1171 C 108.127 -2.6058 2.29599 0
M  V30 1172 C 107.081 -2.53024 3.452 0
M  V30 1173 C 106.407 -3.91861 3.63798 0
M  V30 1174 C 107.707 -2.06524 4.79734 0
M  V30 1175 H 109.401 -0.923369 2.84806 0
M  V30 1176 H 106.947 -0.442735 1.37025 0
M  V30 1177 H 108.9 -3.34375 2.56459 0
M  V30 1178 H 107.624 -2.95869 1.38307 0
M  V30 1179 H 106.283 -1.81684 3.18412 0
M  V30 1180 H 105.931 -4.24483 2.69857 0
M  V30 1181 H 105.631 -3.87683 4.4156 0
M  V30 1182 H 107.155 -4.67296 3.93022 0
M  V30 1183 H 108.569 -2.70072 5.05702 0
M  V30 1184 H 106.966 -2.13374 5.60885 0
M  V30 1185 H 108.036 -1.01802 4.74093 0
M  V30 1186 N 109.379 -1.50304 -0.473955 0
M  V30 1187 C 110.609 -1.64663 -1.24778 0
M  V30 1188 C 111.017 -0.328174 -1.86332 0
M  V30 1189 O 110.36 0.699536 -1.69859 0
M  V30 1190 C 110.422 -2.6778 -2.39863 0
M  V30 1191 C 110.086 -4.11413 -1.98969 0
M  V30 1192 C 111.083 -4.97372 -1.51385 0
M  V30 1193 C 108.768 -4.57312 -2.07777 0
M  V30 1194 C 110.762 -6.27277 -1.13148 0
M  V30 1195 C 108.449 -5.87223 -1.69152 0
M  V30 1196 C 109.447 -6.72031 -1.21915 0
M  V30 1197 O 109.135 -7.99518 -0.838237 0
M  V30 1198 H 108.867 -0.556602 -0.383627 0
M  V30 1199 H 111.421 -1.9726 -0.572491 0
M  V30 1200 H 109.651 -2.30419 -3.10554 0
M  V30 1201 H 111.34 -2.71388 -3.01833 0
M  V30 1202 H 112.106 -4.63128 -1.44004 0
M  V30 1203 H 107.985 -3.91449 -2.43493 0
M  V30 1204 H 111.529 -6.93425 -0.762077 0
M  V30 1205 H 107.426 -6.20989 -1.76191 0
M  V30 1206 H 108.194 -8.12764 -0.967339 0
M  V30 1207 N 110.857 0.726932 -1.39834 0
M  V30 1208 C 112.106 1.48214 -1.36805 0
M  V30 1209 C 112.419 1.95576 0.0305291 0
M  V30 1210 O 113.625 2.7088 0.183417 0
M  V30 1211 C 112.081 2.67854 -2.40379 0
M  V30 1212 C 111.689 2.27408 -3.85992 0
M  V30 1213 C 113.433 3.45641 -2.46439 0
M  V30 1214 C 111.34 3.43819 -4.81189 0
M  V30 1215 H 110.27 0.556606 -0.508631 0
M  V30 1216 H 112.921 0.792216 -1.65518 0
M  V30 1217 H 111.303 3.3896 -2.04749 0
M  V30 1218 H 112.477 1.63795 -4.30706 0
M  V30 1219 H 110.792 1.62692 -3.83302 0
M  V30 1220 H 113.389 4.32244 -3.14753 0
M  V30 1221 H 113.732 3.88669 -1.49139 0
M  V30 1222 H 114.265 2.8157 -2.81004 0
M  V30 1223 H 111.004 3.05834 -5.79781 0
M  V30 1224 H 110.524 4.06385 -4.41148 0
M  V30 1225 H 112.203 4.10043 -5.00474 0
M  V30 1226 N 112.336 1.25143 0.95797 0
M  V30 1227 C 113.566 1.12261 1.73439 0
M  V30 1228 C 113.974 -0.326715 1.86358 0
M  V30 1229 O 113.317 -1.2367 1.35836 0
M  V30 1230 C 113.379 1.69966 3.16784 0
M  V30 1231 C 113.043 3.18936 3.27305 0
M  V30 1232 C 114.04 4.15968 3.11877 0
M  V30 1233 C 111.725 3.59083 3.51234 0
M  V30 1234 C 113.719 5.51126 3.20217 0
M  V30 1235 C 111.406 4.9438 3.5921 0
M  V30 1236 C 112.404 5.90211 3.43716 0
M  V30 1237 O 112.092 7.23046 3.51368 0
M  V30 1238 H 111.824 0.392476 0.550399 0
M  V30 1239 H 114.378 1.65927 1.21068 0
M  V30 1240 H 112.608 1.10744 3.70503 0
M  V30 1241 H 114.297 1.52232 3.76272 0
M  V30 1242 H 115.063 3.86292 2.93264 0
M  V30 1243 H 110.942 2.84989 3.62356 0
M  V30 1244 H 114.486 6.25905 3.0804 0
M  V30 1245 H 110.383 5.23723 3.77339 0
M  V30 1246 H 111.151 7.31097 3.6802 0
M  V30 1247 N 113.814 -1.1601 1.06675 0
M  V30 1248 C 115.061 -1.86633 0.785781 0
M  V30 1249 C 115.389 -1.81929 -0.687896 0
M  V30 1250 O 114.644 -1.23253 -1.52011 0
M  V30 1251 C 114.943 -3.35547 1.23057 0
M  V30 1252 C 114.609 -3.60448 2.70902 0
M  V30 1253 C 113.271 -3.66954 3.11285 0
M  V30 1254 C 115.623 -3.7071 3.66365 0
M  V30 1255 C 112.951 -3.81225 4.45965 0
M  V30 1256 C 115.303 -3.86503 5.00797 0
M  V30 1257 C 113.967 -3.91252 5.40813 0
M  V30 1258 H 113.237 -0.682937 0.287538 0
M  V30 1259 H 115.884 -1.37146 1.33654 0
M  V30 1260 H 114.189 -3.87193 0.59907 0
M  V30 1261 H 115.886 -3.88583 0.990163 0
M  V30 1262 H 112.476 -3.56021 2.38636 0
M  V30 1263 H 116.66 -3.64991 3.36296 0
M  V30 1264 H 111.916 -3.83155 4.76447 0
M  V30 1265 H 116.09 -3.93385 5.74649 0
M  V30 1266 H 113.717 -4.02062 6.45174 0
M  V30 1267 N 115.292 -0.849877 -1.32721 0
M  V30 1268 C 116.224 -0.248332 -2.27851 0
M  V30 1269 C 117.237 0.577218 -1.52224 0
M  V30 1270 O 118.426 0.402489 -1.73903 0
M  V30 1271 C 115.526 0.668107 -3.32249 0
M  V30 1272 C 114.699 -0.120534 -4.37234 0
M  V30 1273 C 113.758 0.720932 -5.21238 0
M  V30 1274 O 112.784 0.156166 -5.68986 0
M  V30 1275 N 113.986 2.03647 -5.43607 0
M  V30 1276 H 116.751 -1.06575 -2.80111 0
M  V30 1277 H 114.312 -0.709395 -1.45531 0
M  V30 1278 H 116.304 1.23627 -3.85355 0
M  V30 1279 H 114.874 1.38621 -2.80184 0
M  V30 1280 H 114.094 -0.870108 -3.84477 0
M  V30 1281 H 115.382 -0.662406 -5.0447 0
M  V30 1282 H 114.78 2.51871 -5.06535 0
M  V30 1283 H 113.337 2.55287 -5.99727 0
M  V30 1284 N 116.77 1.45427 -0.607355 0
M  V30 1285 C 118.017 2.02241 -0.102455 0
M  V30 1286 C 118.345 1.4758 1.26691 0
M  V30 1287 O 117.6 0.640468 1.84923 0
M  V30 1288 C 117.899 3.57398 -0.0129263 0
M  V30 1289 C 117.565 4.3121 -1.31792 0
M  V30 1290 C 116.227 4.51092 -1.67539 0
M  V30 1291 C 118.579 4.73401 -2.18039 0
M  V30 1292 C 115.907 5.10422 -2.89285 0
M  V30 1293 C 118.259 5.34078 -3.39034 0
M  V30 1294 C 116.923 5.52184 -3.75033 0
M  V30 1295 H 116.193 0.740051 -0.037491 0
M  V30 1296 H 118.84 1.74494 -0.788926 0
M  V30 1297 H 117.145 3.84421 0.756806 0
M  V30 1298 H 118.842 3.99061 0.393881 0
M  V30 1299 H 115.432 4.16047 -1.02968 0
M  V30 1300 H 119.616 4.57774 -1.91721 0
M  V30 1301 H 114.872 5.22629 -3.17283 0
M  V30 1302 H 119.046 5.65724 -4.06115 0
M  V30 1303 H 116.673 5.97925 -4.69457 0
M  V30 1304 N 118.248 0.346503 1.53744 0
M  V30 1305 C 119.18 -0.543316 2.22667 0
M  V30 1306 C 120.193 -1.06159 1.23427 0
M  V30 1307 O 121.382 -0.971235 1.49764 0
M  V30 1308 C 118.482 -1.76076 2.89569 0
M  V30 1309 C 117.655 -1.37727 4.15151 0
M  V30 1310 C 116.714 -2.45471 4.65436 0
M  V30 1311 O 115.74 -2.08655 5.29577 0
M  V30 1312 N 116.942 -3.7677 4.41616 0
M  V30 1313 H 119.707 0.0469703 2.99663 0
M  V30 1314 H 117.268 0.170766 1.60997 0
M  V30 1315 H 119.26 -2.47593 3.20125 0
M  V30 1316 H 117.83 -2.25835 2.16142 0
M  V30 1317 H 117.05 -0.492746 3.91108 0
M  V30 1318 H 118.338 -1.09708 4.96832 0
M  V30 1319 H 117.736 -4.09467 3.90325 0
M  V30 1320 H 116.293 -4.44448 4.7677 0
M  V30 1321 N 119.726 -1.57421 0.075193 0
M  V30 1322 C 120.674 -2.14124 -0.908508 0
M  V30 1323 C 121.668 -1.07898 -1.30592 0
M  V30 1324 O 122.874 -1.26273 -1.28277 0
M  V30 1325 H 119.249 -0.684707 -0.310935 0
M  V30 1326 H 121.22 -2.95634 -0.405374 0
M  V30 1327 C 119.969 -2.72044 -2.16535 0
M  V30 1328 H 119.292 -3.53456 -1.86839 0
M  V30 1329 H 120.732 -3.15311 -2.83469 0
M  V30 1330 C 119.191 -1.66968 -2.92615 0
M  V30 1331 O 119.721 -1.0967 -3.86439 0
M  V30 1332 N 117.927 -1.37923 -2.55784 0
M  V30 1333 H 117.474 -1.84706 -1.79559 0
M  V30 1334 H 117.432 -0.67852 -3.06991 0
M  V30 1335 N 121.204 0.198386 -1.56346 0
M  V30 1336 C 122.134 1.24865 -1.9731 0
M  V30 1337 C 123.115 1.47651 -0.844576 0
M  V30 1338 O 124.3 1.59444 -1.10866 0
M  V30 1339 C 121.43 2.59358 -2.30977 0
M  V30 1340 C 120.384 2.5119 -3.46537 0
M  V30 1341 C 119.71 3.89926 -3.65871 0
M  V30 1342 C 121.01 2.03977 -4.80823 0
M  V30 1343 H 122.704 0.908252 -2.85291 0
M  V30 1344 H 120.25 0.435462 -1.37258 0
M  V30 1345 H 122.203 3.33011 -2.58228 0
M  V30 1346 H 120.927 2.95132 -1.39874 0
M  V30 1347 H 119.586 1.79993 -3.19371 0
M  V30 1348 H 119.234 4.23046 -2.72105 0
M  V30 1349 H 118.934 3.85336 -4.4361 0
M  V30 1350 H 120.458 4.65205 -3.95495 0
M  V30 1351 H 121.872 2.67386 -5.07127 0
M  V30 1352 H 120.269 2.10397 -5.62008 0
M  V30 1353 H 121.339 0.992861 -4.74626 0
M  V30 1354 N 122.682 1.50554 0.465978 0
M  V30 1355 C 124.098 1.38093 0.800154 0
M  V30 1356 C 124.298 0.440988 1.96615 0
M  V30 1357 O 123.354 -0.114499 2.5224 0
M  V30 1358 C 124.667 2.79565 1.10742 0
M  V30 1359 C 126.215 2.88516 1.21357 0
M  V30 1360 C 126.69 4.30833 1.55393 0
M  V30 1361 N 128.181 4.33807 1.62375 0
M  V30 1362 C 128.916 5.40927 1.90225 0
M  V30 1363 N 128.412 6.58247 2.16062 0
M  V30 1364 N 130.205 5.28376 1.9177 0
M  V30 1365 H 122.356 2.10237 -0.302366 0
M  V30 1366 H 124.619 0.945203 -0.0727746 0
M  V30 1367 H 124.325 3.50208 0.323661 0
M  V30 1368 H 124.199 3.17125 2.04234 0
M  V30 1369 H 126.586 2.1809 1.98799 0
M  V30 1370 H 126.667 2.54492 0.258321 0
M  V30 1371 H 126.311 5.01799 0.784889 0
M  V30 1372 H 126.241 4.62347 2.52076 0
M  V30 1373 H 128.732 3.49212 1.44427 0
M  V30 1374 H 129.045 7.3569 2.36601 0
M  V30 1375 H 127.39 6.61413 2.13444 0
M  V30 1376 H 130.581 4.35715 1.71085 0
M  V30 1377 H 130.754 6.11944 2.13139 0
M  V30 1378 N 124.16 -0.719506 1.40217 0
M  V30 1379 C 125.092 -1.84428 1.36084 0
M  V30 1380 C 126.105 -1.60597 0.266913 0
M  V30 1381 O 127.294 -1.70544 0.526983 0
M  V30 1382 C 124.394 -3.20757 1.094 0
M  V30 1383 C 123.567 -3.71817 2.30372 0
M  V30 1384 C 122.626 -4.86748 1.99907 0
M  V30 1385 O 121.652 -4.99603 2.72737 0
M  V30 1386 N 122.854 -5.7226 0.974635 0
M  V30 1387 H 125.619 -1.88473 2.33019 0
M  V30 1388 H 123.18 -0.900885 1.3452 0
M  V30 1389 H 125.172 -3.95235 0.870116 0
M  V30 1390 H 123.742 -3.11884 0.211452 0
M  V30 1391 H 122.962 -2.88514 2.68614 0
M  V30 1392 H 124.25 -4.02666 3.11026 0
M  V30 1393 H 123.648 -5.6448 0.371368 0
M  V30 1394 H 122.205 -6.46739 0.810656 0
M  V30 1395 N 125.638 -1.25649 -0.95132 0
M  V30 1396 C 126.568 -1.08808 -2.06599 0
M  V30 1397 C 127.549 0.00382547 -1.701 0
M  V30 1398 O 128.734 -0.166325 -1.93486 0
M  V30 1399 C 125.864 -0.709542 -3.39975 0
M  V30 1400 C 124.818 -1.75206 -3.90496 0
M  V30 1401 C 124.144 -1.22811 -5.20405 0
M  V30 1402 C 125.444 -3.15153 -4.16504 0
M  V30 1403 H 127.138 -2.02048 -2.20946 0
M  V30 1404 H 124.684 -0.972835 -1.06169 0
M  V30 1405 H 126.637 -0.578649 -4.17408 0
M  V30 1406 H 125.361 0.258556 -3.25575 0
M  V30 1407 H 124.02 -1.87145 -3.15234 0
M  V30 1408 H 123.668 -0.250145 -5.02378 0
M  V30 1409 H 123.368 -1.92492 -5.55176 0
M  V30 1410 H 124.892 -1.10968 -6.00432 0
M  V30 1411 H 126.306 -3.06349 -4.84586 0
M  V30 1412 H 124.703 -3.82333 -4.62538 0
M  V30 1413 H 125.773 -3.61966 -3.22658 0
M  V30 1414 N 127.117 1.15442 -1.07289 0
M  V30 1415 C 128.365 1.85845 -0.794096 0
M  V30 1416 C 128.686 1.82692 0.681809 0
M  V30 1417 O 127.956 1.26741 1.49377 0
M  V30 1418 H 126.536 0.688089 -0.290763 0
M  V30 1419 H 129.198 1.39947 -1.3565 0
M  V30 1420 H 128.294 2.91001 -1.12804 0
M  V30 1421 N 128.595 0.856903 1.32268 0
M  V30 1422 C 129.82 0.474569 2.01897 0
M  V30 1423 C 130.245 -0.921766 1.63967 0
M  V30 1424 O 129.603 -1.60589 0.84148 0
M  V30 1425 C 129.651 0.623799 3.55164 0
M  V30 1426 O 128.755 -0.342459 4.10976 0
M  V30 1427 H 128.096 0.190422 0.63611 0
M  V30 1428 H 130.626 1.15672 1.68764 0
M  V30 1429 H 130.636 0.512169 4.04773 0
M  V30 1430 H 129.311 1.64202 3.82113 0
M  V30 1431 H 127.888 -0.18688 3.72431 0
M  V30 1432 N 130.073 -1.45103 0.615059 0
M  V30 1433 C 131.02 -2.30586 -0.0993978 0
M  V30 1434 C 131.99 -1.42544 -0.852669 0
M  V30 1435 O 133.175 -1.71465 -0.836917 0
M  V30 1436 C 130.315 -3.27572 -1.08583 0
M  V30 1437 C 129.428 -4.30717 -0.332656 0
M  V30 1438 C 128.563 -5.14807 -1.30947 0
M  V30 1439 C 127.602 -6.09673 -0.544538 0
M  V30 1440 N 126.739 -6.86517 -1.47101 0
M  V30 1441 H 131.579 -2.91144 0.635542 0
M  V30 1442 H 129.116 -1.4346 0.325206 0
M  V30 1443 H 131.074 -3.82276 -1.67095 0
M  V30 1444 H 129.704 -2.68751 -1.78809 0
M  V30 1445 H 128.756 -3.78615 0.368107 0
M  V30 1446 H 130.068 -4.98102 0.263842 0
M  V30 1447 H 129.222 -5.73948 -1.96643 0
M  V30 1448 H 127.961 -4.47458 -1.9399 0
M  V30 1449 H 126.966 -5.49656 0.126003 0
M  V30 1450 H 128.191 -6.79052 0.080947 0
M  V30 1451 H 126.137 -6.21851 -2.08895 0
M  V30 1452 H 126.054 -7.50281 -0.928137 0
M  V30 1453 H 127.322 -7.50194 -2.11731 0
M  V30 1454 N 131.551 -0.354651 -1.53558 0
M  V30 1455 C 132.781 0.239167 -2.05211 0
M  V30 1456 C 133.189 1.43879 -1.22863 0
M  V30 1457 O 132.532 1.81857 -0.259565 0
M  V30 1458 C 132.594 0.707251 -3.52474 0
M  V30 1459 C 132.258 -0.374212 -4.55465 0
M  V30 1460 C 133.255 -1.22054 -5.0537 0
M  V30 1461 C 130.94 -0.531323 -4.99482 0
M  V30 1462 C 132.934 -2.20942 -5.97882 0
M  V30 1463 C 130.621 -1.52358 -5.91802 0
M  V30 1464 C 131.619 -2.36108 -6.40892 0
M  V30 1465 O 131.307 -3.33643 -7.31394 0
M  V30 1466 H 131.039 0.0479716 -0.674296 0
M  V30 1467 H 133.593 -0.508121 -1.99016 0
M  V30 1468 H 131.823 1.50596 -3.56171 0
M  V30 1469 H 133.512 1.22285 -3.87042 0
M  V30 1470 H 134.278 -1.1103 -4.7212 0
M  V30 1471 H 130.157 0.110738 -4.60867 0
M  V30 1472 H 133.701 -2.86348 -6.36121 0
M  V30 1473 H 129.598 -1.63434 -6.24467 0
M  V30 1474 H 130.366 -3.29244 -7.4936 0
M  V30 1475 N 133.029 1.57378 -0.0835403 0
M  V30 1476 C 134.278 1.93106 0.582498 0
M  V30 1477 C 134.591 0.96651 1.70053 0
M  V30 1478 O 135.797 1.21705 2.42693 0
M  V30 1479 C 134.253 3.43076 1.08751 0
M  V30 1480 C 133.861 4.48 -0.000146404 0
M  V30 1481 C 135.605 3.87785 1.72694 0
M  V30 1482 C 133.512 5.89113 0.519568 0
M  V30 1483 H 132.442 0.720775 0.221358 0
M  V30 1484 H 135.093 1.82821 -0.157675 0
M  V30 1485 H 133.475 3.48474 1.88101 0
M  V30 1486 H 134.649 4.54233 -0.775199 0
M  V30 1487 H 132.964 4.1283 -0.54406 0
M  V30 1488 H 135.561 4.90604 2.1263 0
M  V30 1489 H 135.904 3.25796 2.59158 0
M  V30 1490 H 136.437 3.8504 0.999457 0
M  V30 1491 H 133.176 6.54775 -0.308186 0
M  V30 1492 H 132.696 5.86376 1.26188 0
M  V30 1493 H 134.375 6.39346 0.992237 0
M  V30 1494 N 134.507 -0.190092 1.56449 0
M  V30 1495 C 135.437 -1.23816 1.97969 0
M  V30 1496 C 136.418 -1.47201 0.852395 0
M  V30 1497 O 137.603 -1.58854 1.1171 0
M  V30 1498 C 134.733 -2.5813 2.3235 0
M  V30 1499 C 133.687 -2.49348 3.47864 0
M  V30 1500 C 133.013 -3.8798 3.67934 0
M  V30 1501 C 134.313 -2.01424 4.81898 0
M  V30 1502 H 136.007 -0.89311 2.85769 0
M  V30 1503 H 133.553 -0.428177 1.37487 0
M  V30 1504 H 135.506 -3.31637 2.59991 0
M  V30 1505 H 134.23 -2.94386 1.41438 0
M  V30 1506 H 132.889 -1.78297 3.20321 0
M  V30 1507 H 132.537 -4.21597 2.74344 0
M  V30 1508 H 132.237 -3.82978 4.45648 0
M  V30 1509 H 133.761 -4.63101 3.97957 0
M  V30 1510 H 135.175 -2.64693 5.08538 0
M  V30 1511 H 133.572 -2.07413 5.63116 0
M  V30 1512 H 134.642 -0.967677 4.75146 0
M  V30 1513 N 135.985 -1.50799 -0.457987 0
M  V30 1514 C 137.233 -1.62121 -1.2067 0
M  V30 1515 C 137.554 -0.329793 -1.92191 0
M  V30 1516 O 136.824 0.653409 -1.84682 0
M  V30 1517 H 135.404 -0.597441 -0.448411 0
M  V30 1518 H 138.066 -1.87637 -0.527096 0
M  V30 1519 H 137.162 -2.43882 -1.94751 0
M  V30 1520 N 137.463 0.71206 -1.40597 0
M  V30 1521 C 138.712 1.46754 -1.38369 0
M  V30 1522 C 139.025 1.95598 0.0097839 0
M  V30 1523 O 140.231 2.71059 0.154677 0
M  V30 1524 C 138.687 2.65289 -2.43207 0
M  V30 1525 C 138.295 2.23301 -3.88382 0
M  V30 1526 C 140.039 3.43008 -2.50091 0
M  V30 1527 C 137.946 3.38696 -4.84808 0
M  V30 1528 H 136.876 0.55118 -0.514506 0
M  V30 1529 H 139.527 0.774616 -1.66349 0
M  V30 1530 H 137.909 3.36769 -2.08332 0
M  V30 1531 H 139.083 1.59218 -4.32419 0
M  V30 1532 H 137.398 1.58618 -3.85006 0
M  V30 1533 H 139.995 4.28881 -3.1932 0
M  V30 1534 H 140.338 3.87065 -1.53253 0
M  V30 1535 H 140.871 2.78574 -2.83974 0
M  V30 1536 H 137.61 2.99668 -5.82992 0
M  V30 1537 H 137.13 4.01683 -4.45433 0
M  V30 1538 H 138.809 4.04712 -5.04794 0
M  V30 1539 N 138.941 1.26152 0.944643 0
M  V30 1540 C 139.904 1.07474 2.0244 0
M  V30 1541 C 140.904 0.0242064 1.60782 0
M  V30 1542 O 142.094 0.267302 1.72137 0
M  V30 1543 C 139.226 0.633956 3.34953 0
M  V30 1544 H 140.419 2.03336 2.20442 0
M  V30 1545 H 137.972 1.087 1.12312 0
M  V30 1546 H 138.707 -0.326811 3.22649 0
M  V30 1547 H 138.492 1.39247 3.66542 0
M  V30 1548 H 139.982 0.52501 4.14287 0
M  V30 1549 N 140.419 -1.14872 1.07899 0
M  V30 1550 C 141.667 -1.85422 0.803941 0
M  V30 1551 C 141.988 -1.83051 -0.67211 0
M  V30 1552 O 141.258 -1.27532 -1.48703 0
M  V30 1553 H 139.838 -0.686537 0.294408 0
M  V30 1554 H 142.5 -1.39226 1.3639 0
M  V30 1555 H 141.596 -2.90399 1.14346 0
M  V30 1556 N 141.898 -0.863906 -1.31812 0
M  V30 1557 C 142.828 -0.330843 -2.31144 0
M  V30 1558 C 143.809 0.575005 -1.60087 0
M  V30 1559 O 144.994 0.493304 -1.8783 0
M  V30 1560 C 142.124 0.47374 -3.44054 0
M  V30 1561 C 141.078 -0.338481 -4.26659 0
M  V30 1562 C 140.404 0.591412 -5.31419 0
M  V30 1563 C 141.704 -1.56926 -4.98168 0
M  V30 1564 H 143.398 -1.16086 -2.75979 0
M  V30 1565 H 140.944 -0.559657 -1.32679 0
M  V30 1566 H 142.897 0.857143 -4.12591 0
M  V30 1567 H 141.621 1.33721 -2.9797 0
M  V30 1568 H 140.28 -0.703754 -3.59782 0
M  V30 1569 H 139.928 1.45199 -4.81587 0
M  V30 1570 H 139.628 0.0519022 -5.87577 0
M  V30 1571 H 141.152 0.97179 -6.02817 0
M  V30 1572 H 142.566 -1.25764 -5.59336 0
M  V30 1573 H 140.963 -2.04739 -5.64094 0
M  V30 1574 H 142.033 -2.32544 -4.25501 0
M  V30 1575 N 143.376 1.44774 -0.622745 0
M  V30 1576 C 144.623 2.02121 -0.1239 0
M  V30 1577 C 144.951 1.48915 1.25118 0
M  V30 1578 O 144.206 0.660045 1.84233 0
M  V30 1579 C 144.505 3.57364 -0.0508323 0
M  V30 1580 C 144.171 4.29787 -1.36358 0
M  V30 1581 C 142.833 4.4929 -1.72314 0
M  V30 1582 C 145.185 4.71062 -2.23048 0
M  V30 1583 C 142.513 5.07325 -2.94682 0
M  V30 1584 C 144.865 5.30452 -3.44679 0
M  V30 1585 C 143.529 5.48175 -3.80868 0
M  V30 1586 H 142.799 0.739612 -0.0453381 0
M  V30 1587 H 145.446 1.73648 -0.807389 0
M  V30 1588 H 143.751 3.85202 0.715991 0
M  V30 1589 H 145.448 3.99456 0.351533 0
M  V30 1590 H 142.038 4.14932 -1.07375 0
M  V30 1591 H 146.222 4.55715 -1.96565 0
M  V30 1592 H 141.478 5.19235 -3.22809 0
M  V30 1593 H 145.652 5.61385 -4.12092 0
M  V30 1594 H 143.279 5.92912 -4.75773 0
M  V30 1595 N 144.854 0.36279 1.53368 0
M  V30 1596 C 146.082 -0.228613 2.05633 0
M  V30 1597 C 146.497 -1.42676 1.23649 0
M  V30 1598 O 145.854 -1.80394 0.27647 0
M  V30 1599 C 145.905 -0.624845 3.56059 0
M  V30 1600 O 145.626 0.525675 4.34935 0
M  V30 1601 C 147.127 -1.27493 4.24571 0
M  V30 1602 H 144.347 -0.0407183 0.669763 0
M  V30 1603 H 146.891 0.520352 1.97769 0
M  V30 1604 H 145.046 -1.32373 3.64083 0
M  V30 1605 H 145.46 0.205969 5.24095 0
M  V30 1606 H 146.934 -1.50277 5.31151 0
M  V30 1607 H 147.411 -2.23439 3.78116 0
M  V30 1608 H 148.017 -0.617558 4.20792 0
M  V30 1609 N 146.332 -1.57332 0.0918853 0
M  V30 1610 C 147.581 -1.93412 -0.572249 0
M  V30 1611 C 147.894 -0.975515 -1.69538 0
M  V30 1612 O 149.1 -1.22991 -2.42045 0
M  V30 1613 C 147.556 -3.43648 -1.0693 0
M  V30 1614 C 147.164 -4.47994 0.0239049 0
M  V30 1615 C 148.908 -3.88695 -1.70635 0
M  V30 1616 C 146.815 -5.89381 -0.488319 0
M  V30 1617 H 145.745 -0.721939 -0.217532 0
M  V30 1618 H 148.396 -1.82735 0.167369 0
M  V30 1619 H 146.778 -3.49466 -1.8625 0
M  V30 1620 H 147.952 -4.53815 0.799277 0
M  V30 1621 H 146.267 -4.12536 0.565946 0
M  V30 1622 H 148.864 -4.91725 -2.10025 0
M  V30 1623 H 149.207 -3.27166 -2.57426 0
M  V30 1624 H 149.74 -3.85564 -0.979023 0
M  V30 1625 H 146.479 -6.54602 0.342906 0
M  V30 1626 H 145.999 -5.87037 -1.23077 0
M  V30 1627 H 147.678 -6.39863 -0.958317 0
M  V30 1628 N 147.81 0.181792 -1.56548 0
M  V30 1629 C 149.057 0.900097 -1.81396 0
M  V30 1630 C 149.385 1.82695 -0.667281 0
M  V30 1631 O 148.64 1.92614 0.346146 0
M  V30 1632 C 148.939 1.73728 -3.12335 0
M  V30 1633 C 148.605 0.960255 -4.40556 0
M  V30 1634 C 147.267 0.745766 -4.75386 0
M  V30 1635 C 149.619 0.414477 -5.19549 0
M  V30 1636 C 146.947 -0.0257694 -5.86694 0
M  V30 1637 C 149.299 -0.343916 -6.31664 0
M  V30 1638 C 147.963 -0.569301 -6.65068 0
M  V30 1639 H 147.233 0.329369 -0.663775 0
M  V30 1640 H 149.88 0.165647 -1.90782 0
M  V30 1641 H 148.185 2.54081 -2.98245 0
M  V30 1642 H 149.882 2.29591 -3.28769 0
M  V30 1643 H 146.472 1.13746 -4.13231 0
M  V30 1644 H 150.656 0.567554 -4.93044 0
M  V30 1645 H 145.912 -0.210233 -6.11038 0
M  V30 1646 H 150.086 -0.774133 -6.92084 0
M  V30 1647 H 147.713 -1.16903 -7.51158 0
M  V30 1648 N 149.288 1.51039 0.449983 0
M  V30 1649 C 150.513 1.6715 1.22783 0
M  V30 1650 C 150.938 0.363081 1.84563 0
M  V30 1651 O 150.296 -0.675433 1.68249 0
M  V30 1652 C 150.344 2.77985 2.29689 0
M  V30 1653 O 149.448 2.40707 3.34864 0
M  V30 1654 H 148.789 0.557746 0.360299 0
M  V30 1655 H 151.319 1.97535 0.533005 0
M  V30 1656 H 151.329 3.01693 2.74673 0
M  V30 1657 H 150.004 3.72935 1.84098 0
M  V30 1658 H 148.581 2.27523 2.95445 0
M  V30 1659 N 150.766 -0.704594 1.40972 0
M  V30 1660 C 151.991 -1.49858 1.43378 0
M  V30 1661 C 152.416 -1.88061 0.038184 0
M  V30 1662 O 151.774 -1.5402 -0.956425 0
M  V30 1663 C 151.822 -2.74333 2.34038 0
M  V30 1664 O 150.926 -3.7147 1.7912 0
M  V30 1665 H 150.267 -0.45139 0.486974 0
M  V30 1666 H 152.797 -0.866832 1.8533 0
M  V30 1667 H 152.807 -3.22741 2.49604 0
M  V30 1668 H 151.482 -2.45863 3.35446 0
M  V30 1669 H 150.059 -3.30363 1.72958 0
M  V30 1670 N 152.244 -1.26651 -0.937939 0
M  V30 1671 C 153.491 -1.12387 -1.6845 0
M  V30 1672 C 153.819 0.332208 -1.91642 0
M  V30 1673 O 153.074 1.2602 -1.49725 0
M  V30 1674 C 153.373 -1.84168 -3.06295 0
M  V30 1675 C 153.039 -3.34056 -3.02849 0
M  V30 1676 C 151.701 -3.74942 -3.01616 0
M  V30 1677 C 154.053 -4.29741 -2.9491 0
M  V30 1678 C 151.381 -5.09894 -2.90215 0
M  V30 1679 C 153.733 -5.64738 -2.8505 0
M  V30 1680 C 152.397 -6.0493 -2.82162 0
M  V30 1681 H 151.667 -0.411252 -0.616403 0
M  V30 1682 H 154.314 -1.57134 -1.09459 0
M  V30 1683 H 152.619 -1.319 -3.6893 0
M  V30 1684 H 154.316 -1.70569 -3.62915 0
M  V30 1685 H 150.906 -3.01534 -3.0459 0
M  V30 1686 H 155.09 -3.99133 -2.94969 0
M  V30 1687 H 150.346 -5.40194 -2.86358 0
M  V30 1688 H 154.52 -6.38561 -2.77872 0
M  V30 1689 H 152.147 -7.09457 -2.73084 0
M  V30 1690 N 153.722 1.14298 -1.08507 0
M  V30 1691 C 154.968 1.85633 -0.816581 0
M  V30 1692 C 155.301 1.82784 0.656021 0
M  V30 1693 O 154.576 1.25926 1.48233 0
M  V30 1694 C 154.859 3.34223 -1.34041 0
M  V30 1695 C 154.712 3.45639 -2.87843 0
M  V30 1696 C 156.031 4.29356 -0.9665 0
M  V30 1697 H 153.15 0.67402 -0.298104 0
M  V30 1698 H 155.792 1.34214 -1.34487 0
M  V30 1699 H 153.942 3.78144 -0.89104 0
M  V30 1700 H 155.614 3.10498 -3.41158 0
M  V30 1701 H 153.857 2.86817 -3.25451 0
M  V30 1702 H 154.528 4.50089 -3.19569 0
M  V30 1703 H 157.004 3.93457 -1.35391 0
M  V30 1704 H 155.88 5.3178 -1.3602 0
M  V30 1705 H 156.141 4.41919 0.126362 0
M  V30 1706 N 155.201 0.870884 1.31352 0
M  V30 1707 C 156.448 0.482273 1.96673 0
M  V30 1708 C 156.776 -0.965638 1.68836 0
M  V30 1709 O 156.031 -1.69514 0.977937 0
M  V30 1710 C 156.33 0.687157 3.50732 0
M  V30 1711 C 155.996 2.108 3.9859 0
M  V30 1712 C 154.658 2.49656 4.1137 0
M  V30 1713 C 157.01 3.03459 4.23748 0
M  V30 1714 C 154.338 3.80412 4.46659 0
M  V30 1715 C 156.69 4.3373 4.60501 0
M  V30 1716 C 155.354 4.725 4.71487 0
M  V30 1717 H 154.624 0.176476 0.719679 0
M  V30 1718 H 157.271 1.10405 1.56471 0
M  V30 1719 H 155.576 -0.0177476 3.91796 0
M  V30 1720 H 157.273 0.366284 3.99324 0
M  V30 1721 H 153.863 1.79633 3.8914 0
M  V30 1722 H 158.047 2.74665 4.13368 0
M  V30 1723 H 153.303 4.1021 4.53362 0
M  V30 1724 H 157.477 5.05578 4.78919 0
M  V30 1725 H 155.104 5.73859 4.98588 0
M  V30 1726 N 156.679 -1.44442 0.630414 0
M  V30 1727 C 157.904 -2.06927 0.139944 0
M  V30 1728 C 158.329 -1.46795 -1.17613 0
M  V30 1729 O 157.687 -0.569144 -1.72135 0
M  V30 1730 C 157.735 -3.6058 0.0379581 0
M  V30 1731 O 156.839 -3.99937 -1.0062 0
M  V30 1732 H 156.18 -0.658608 0.0844483 0
M  V30 1733 H 158.71 -1.85327 0.866891 0
M  V30 1734 H 158.72 -4.07714 -0.152856 0
M  V30 1735 H 157.395 -4.03728 0.998809 0
M  V30 1736 H 155.972 -3.64436 -0.79001 0
M  V30 1737 N 158.157 -0.370918 -1.53173 0
M  V30 1738 C 159.385 0.217704 -2.05751 0
M  V30 1739 C 159.8 1.42018 -1.24404 0
M  V30 1740 O 159.157 1.80245 -0.286033 0
M  V30 1741 C 159.208 0.605954 -3.56385 0
M  V30 1742 O 158.929 -0.548734 -4.3465 0
M  V30 1743 C 160.43 1.2524 -4.25241 0
M  V30 1744 H 157.65 0.0371659 -0.66997 0
M  V30 1745 H 160.194 -0.530832 -1.9749 0
M  V30 1746 H 158.349 1.3044 -3.6478 0
M  V30 1747 H 158.763 -0.23376 -5.23979 0
M  V30 1748 H 160.237 1.47458 -5.3194 0
M  V30 1749 H 160.714 2.2143 -3.79296 0
M  V30 1750 H 161.32 0.595233 -4.21114 0
M  V30 1751 N 159.635 1.57281 -0.100228 0
M  V30 1752 C 160.881 1.94826 0.563101 0
M  V30 1753 C 161.214 0.982475 1.67514 0
M  V30 1754 O 160.489 0.0164069 1.94493 0
M  V30 1755 C 160.772 3.42453 1.11346 0
M  V30 1756 C 160.625 4.498 0.00612081 0
M  V30 1757 C 161.944 3.91506 2.01024 0
M  V30 1758 H 159.063 0.708428 0.203221 0
M  V30 1759 H 161.705 1.8922 -0.171979 0
M  V30 1760 H 159.855 3.47361 1.7399 0
M  V30 1761 H 161.527 4.57 -0.628357 0
M  V30 1762 H 159.77 4.28756 -0.659581 0
M  V30 1763 H 160.441 5.50306 0.432109 0
M  V30 1764 H 162.917 3.88784 1.48278 0
M  V30 1765 H 161.793 4.95358 2.36457 0
M  V30 1766 H 162.054 3.31099 2.92961 0
M  V30 1767 N 161.113 -0.173488 1.56642 0
M  V30 1768 C 162.359 -0.891784 1.8214 0
M  V30 1769 C 162.692 -1.8199 0.677736 0
M  V30 1770 O 161.967 -1.91842 -0.320446 0
M  V30 1771 C 162.25 -1.68933 3.18015 0
M  V30 1772 C 162.103 -0.784487 4.42906 0
M  V30 1773 C 163.422 -2.65748 3.50808 0
M  V30 1774 H 160.541 -0.322761 0.662567 0
M  V30 1775 H 163.183 -0.158095 1.89341 0
M  V30 1776 H 161.333 -2.31482 3.12007 0
M  V30 1777 H 163.005 -0.172046 4.60979 0
M  V30 1778 H 161.248 -0.0924117 4.33702 0
M  V30 1779 H 161.919 -1.37799 5.34524 0
M  V30 1780 H 164.395 -2.13327 3.57255 0
M  V30 1781 H 163.271 -3.18619 4.4696 0
M  V30 1782 H 163.532 -3.45842 2.75401 0
M  V30 1783 N 162.591 -1.51276 -0.441967 0
M  V30 1784 C 163.84 -1.6295 -1.18871 0
M  V30 1785 C 164.153 -0.349312 -1.92456 0
M  V30 1786 O 165.359 -0.345355 -2.69295 0
M  V30 1787 C 163.815 -2.87759 -2.16155 0
M  V30 1788 C 163.423 -4.22764 -1.48239 0
M  V30 1789 C 165.167 -3.08788 -2.91291 0
M  V30 1790 C 163.074 -5.38728 -2.4398 0
M  V30 1791 H 162.004 -0.606913 -0.447406 0
M  V30 1792 H 164.655 -1.77739 -0.456205 0
M  V30 1793 H 163.037 -2.66593 -2.92821 0
M  V30 1794 H 164.211 -4.54293 -0.771635 0
M  V30 1795 H 162.526 -4.07575 -0.852741 0
M  V30 1796 H 165.123 -3.92599 -3.63002 0
M  V30 1797 H 165.466 -2.21679 -3.5237 0
M  V30 1798 H 165.999 -3.30272 -2.21733 0
M  V30 1799 H 162.738 -6.28082 -1.87598 0
M  V30 1800 H 162.258 -5.1158 -3.13123 0
M  V30 1801 H 163.937 -5.70489 -3.05207 0
M  V30 1802 N 164.069 0.697108 -1.41344 0
M  V30 1803 C 165.019 1.80313 -1.39539 0
M  V30 1804 C 166.003 1.58618 -0.270001 0
M  V30 1805 O 167.195 1.69477 -0.510551 0
M  V30 1806 C 164.324 3.18606 -1.27848 0
M  V30 1807 C 163.41 3.46001 -2.45244 0
M  V30 1808 N 163.801 3.44103 -3.70711 0
M  V30 1809 C 162.099 3.76542 -2.39023 0
M  V30 1810 C 162.8 3.7036 -4.48563 0
M  V30 1811 N 161.776 3.90027 -3.78655 0
M  V30 1812 H 165.578 1.77207 -2.34468 0
M  V30 1813 H 163.092 0.897031 -1.35378 0
M  V30 1814 H 165.089 3.97833 -1.24637 0
M  V30 1815 H 163.749 3.22925 -0.339032 0
M  V30 1816 H 164.76 3.2452 -4.03618 0
M  V30 1817 H 161.437 3.88241 -1.53542 0
M  V30 1818 H 162.827 3.75042 -5.57488 0
M  V30 1819 N 165.547 1.27147 0.931209 0
M  V30 1820 C 166.794 1.13278 1.67852 0
M  V30 1821 C 167.122 -0.32204 1.91815 0
M  V30 1822 O 166.377 -1.25224 1.50391 0
M  V30 1823 C 166.676 1.8579 3.05314 0
M  V30 1824 C 166.342 3.35657 3.01073 0
M  V30 1825 C 165.004 3.76536 2.99623 0
M  V30 1826 C 167.356 4.31299 2.92627 0
M  V30 1827 C 164.684 5.11426 2.87506 0
M  V30 1828 C 167.036 5.66242 2.82051 0
M  V30 1829 C 165.7 6.06418 2.7895 0
M  V30 1830 H 164.97 0.414515 0.614214 0
M  V30 1831 H 167.617 1.57712 1.08624 0
M  V30 1832 H 165.922 1.33854 3.68226 0
M  V30 1833 H 167.619 1.72491 3.62005 0
M  V30 1834 H 164.209 3.03146 3.02986 0
M  V30 1835 H 168.393 4.00692 2.92848 0
M  V30 1836 H 163.649 5.41705 2.83489 0
M  V30 1837 H 167.823 6.40026 2.74481 0
M  V30 1838 H 165.45 7.10895 2.69318 0
M  V30 1839 N 167.025 -1.13721 1.09112 0
M  V30 1840 C 167.955 -2.21148 0.749385 0
M  V30 1841 C 168.936 -1.6792 -0.271475 0
M  V30 1842 O 170.121 -1.93693 -0.140251 0
M  V30 1843 C 167.251 -3.46905 0.165659 0
M  V30 1844 C 166.205 -4.13203 1.11567 0
M  V30 1845 C 165.531 -5.33248 0.393809 0
M  V30 1846 C 166.831 -4.60912 2.45678 0
M  V30 1847 H 168.525 -2.4999 1.64758 0
M  V30 1848 H 166.071 -1.20156 0.793626 0
M  V30 1849 H 168.024 -4.21313 -0.085466 0
M  V30 1850 H 166.748 -3.17449 -0.767714 0
M  V30 1851 H 165.407 -3.40758 1.35202 0
M  V30 1852 H 165.055 -5.00054 -0.543599 0
M  V30 1853 H 164.755 -5.78552 1.02721 0
M  V30 1854 H 166.279 -6.10413 0.150908 0
M  V30 1855 H 167.693 -5.26759 2.26269 0
M  V30 1856 H 166.09 -5.16944 3.04776 0
M  V30 1857 H 167.16 -3.75603 3.06677 0
M  V30 1858 N 168.503 -0.877838 -1.30888 0
M  V30 1859 C 169.78 -0.413052 -1.91189 0
M  V30 1860 C 170.16 1.1056 -1.79832 0
M  V30 1861 O 169.508 1.93771 -1.21099 0
M  V30 1862 C 169.718 -0.903191 -3.3711 0
M  V30 1863 C 171.066 -0.93395 -4.14201 0
M  V30 1864 O 172.09 -0.849373 -3.45925 0
M  V30 1865 O 170.949 -1.05772 -5.36167 0
M  V30 1866 H 168.043 -0.125035 -0.817493 0
M  V30 1867 H 170.589 -0.966269 -1.39504 0
M  V30 1868 H 169.361 -1.94692 -3.39427 0
M  V30 1869 H 168.984 -0.328732 -3.96239 0
M  V30 1870 N 169.982 1.44106 -0.638065 0
M  V30 1871 C 170.929 2.30715 0.062701 0
M  V30 1872 C 171.899 1.43882 0.829883 0
M  V30 1873 O 173.084 1.72775 0.809532 0
M  V30 1874 C 170.224 3.29258 1.03358 0
M  V30 1875 C 169.337 4.31192 0.26409 0
M  V30 1876 C 168.472 5.16825 1.22741 0
M  V30 1877 C 167.511 6.10462 0.447475 0
M  V30 1878 N 166.648 6.8877 1.36161 0
M  V30 1879 H 171.488 2.90096 -0.681781 0
M  V30 1880 H 169.025 1.42925 -0.347988 0
M  V30 1881 H 170.983 3.84886 1.60992 0
M  V30 1882 H 169.613 2.71562 1.74511 0
M  V30 1883 H 168.665 3.77981 -0.428295 0
M  V30 1884 H 169.977 4.97619 -0.343052 0
M  V30 1885 H 169.131 5.77004 1.87487 0
M  V30 1886 H 167.87 4.50488 1.86847 0
M  V30 1887 H 166.875 5.49386 -0.213433 0
M  V30 1888 H 168.1 6.78837 -0.188968 0
M  V30 1889 H 166.046 6.25096 1.98975 0
M  V30 1890 H 165.963 7.51663 0.808656 0
M  V30 1891 H 167.231 7.53467 1.99769 0
M  V30 1892 N 171.46 0.379036 1.52974 0
M  V30 1893 C 172.37 -0.468639 2.29872 0
M  V30 1894 C 173.386 -1.08067 1.36373 0
M  V30 1895 O 174.562 -1.08871 1.69438 0
M  V30 1896 C 171.627 -1.58594 3.083 0
M  V30 1897 C 170.688 -1.00007 4.17489 0
M  V30 1898 C 169.921 -2.06413 4.92168 0
M  V30 1899 O 170.144 -3.27751 4.66835 0
M  V30 1900 O 169.078 -1.68717 5.7777 0
M  V30 1901 H 172.904 0.157508 3.03291 0
M  V30 1902 H 170.489 0.143035 1.48714 0
M  V30 1903 H 172.371 -2.23525 3.57232 0
M  V30 1904 H 171.046 -2.19724 2.37703 0
M  V30 1905 H 169.953 -0.314299 3.72777 0
M  V30 1906 H 171.286 -0.433135 4.90291 0
M  V30 1907 N 172.938 -1.57226 0.108567 0
M  V30 1908 C 173.868 -2.17778 -0.84232 0
M  V30 1909 C 174.849 -1.11487 -1.2847 0
M  V30 1910 O 176.034 -1.39681 -1.34918 0
M  V30 1911 C 173.164 -2.76888 -2.09644 0
M  V30 1912 C 172.118 -3.88669 -1.79221 0
M  V30 1913 C 171.444 -4.34541 -3.11574 0
M  V30 1914 C 172.744 -5.11251 -1.06864 0
M  V30 1915 H 174.438 -2.97489 -0.337774 0
M  V30 1916 H 171.984 -1.43097 -0.161025 0
M  V30 1917 H 173.937 -3.17904 -2.76614 0
M  V30 1918 H 172.661 -1.94451 -2.62405 0
M  V30 1919 H 171.32 -3.48213 -1.14644 0
M  V30 1920 H 170.968 -3.48977 -3.62249 0
M  V30 1921 H 170.668 -5.09914 -2.91996 0
M  V30 1922 H 172.192 -4.782 -3.7968 0
M  V30 1923 H 173.606 -5.49352 -1.63968 0
M  V30 1924 H 172.003 -5.9214 -0.974178 0
M  V30 1925 H 173.073 -4.8487 -0.0536168 0
M  V30 1926 N 174.416 0.165178 -1.56732 0
M  V30 1927 C 175.644 0.896218 -1.86482 0
M  V30 1928 C 176.059 1.75555 -0.694675 0
M  V30 1929 O 175.416 1.79379 0.33607 0
M  V30 1930 C 175.467 1.76792 -3.1532 0
M  V30 1931 O 175.188 0.943239 -4.27825 0
M  V30 1932 C 176.689 2.6081 -3.58459 0
M  V30 1933 H 173.909 0.260064 -0.618553 0
M  V30 1934 H 176.453 0.163428 -2.03846 0
M  V30 1935 H 174.608 2.45398 -2.99764 0
M  V30 1936 H 175.022 1.53998 -5.01383 0
M  V30 1937 H 176.496 3.17579 -4.51495 0
M  V30 1938 H 176.973 3.35977 -2.82872 0
M  V30 1939 H 177.579 1.97526 -3.76648 0
M  V30 1940 N 175.894 1.51508 0.433938 0
M  V30 1941 C 177.142 1.6402 1.18075 0
M  V30 1942 C 177.463 0.360328 1.91642 0
M  V30 1943 O 176.733 -0.623945 1.85698 0
M  V30 1944 H 175.313 0.6045 0.43885 0
M  V30 1945 H 177.975 1.88452 0.497178 0
M  V30 1946 H 177.071 2.46949 1.90847 0
M  V30 1947 N 177.372 -0.689602 1.41712 0
M  V30 1948 C 178.302 -1.81577 1.46806 0
M  V30 1949 C 179.283 -1.66945 0.326105 0
M  V30 1950 O 180.468 -1.86588 0.538377 0
M  V30 1951 C 177.598 -3.19762 1.35535 0
M  V30 1952 C 176.552 -3.49107 2.47605 0
M  V30 1953 C 175.878 -4.86711 2.21397 0
M  V30 1954 C 177.178 -3.47483 3.89939 0
M  V30 1955 H 178.872 -1.7757 2.41058 0
M  V30 1956 H 176.418 -0.852887 1.16025 0
M  V30 1957 H 178.371 -3.98263 1.3771 0
M  V30 1958 H 177.095 -3.24409 0.377708 0
M  V30 1959 H 175.754 -2.72959 2.44722 0
M  V30 1960 H 175.402 -4.8799 1.21961 0
M  V30 1961 H 175.102 -5.0731 2.96497 0
M  V30 1962 H 176.626 -5.67515 2.25297 0
M  V30 1963 H 178.04 -4.1598 3.94505 0
M  V30 1964 H 176.437 -3.79615 4.64771 0
M  V30 1965 H 177.507 -2.46341 4.17665 0
M  V30 1966 N 178.85 -1.27639 -0.924453 0
M  V30 1967 C 179.798 -1.10485 -2.04685 0
M  V30 1968 C 180.792 -0.0270421 -1.69378 0
M  V30 1969 O 181.998 -0.185008 -1.79047 0
M  V30 1970 H 178.373 -0.340546 -0.670472 0
M  V30 1971 H 180.344 -2.05566 -2.16298 0
M  V30 1972 C 179.093 -0.772229 -3.39016 0
M  V30 1973 H 178.416 -1.59351 -3.66671 0
M  V30 1974 H 179.856 -0.692097 -4.18313 0
M  V30 1975 C 178.315 0.523554 -3.32807 0
M  V30 1976 O 178.845 1.55702 -3.70297 0
M  V30 1977 N 177.051 0.520363 -2.85903 0
M  V30 1978 H 176.598 -0.32107 -2.55591 0
M  V30 1979 H 176.556 1.38742 -2.82131 0
M  V30 1980 N 180.328 1.1314 -1.09713 0
M  V30 1981 C 181.238 2.22242 -0.751367 0
M  V30 1982 C 182.254 1.72224 0.247938 0
M  V30 1983 O 183.43 2.01205 0.0885463 0
M  V30 1984 C 180.495 3.46231 -0.180274 0
M  V30 1985 C 179.556 4.11125 -1.2359 0
M  V30 1986 C 178.789 5.29195 -0.691966 0
M  V30 1987 O 179.012 5.68342 0.48414 0
M  V30 1988 O 177.946 5.84214 -1.44838 0
M  V30 1989 H 181.772 2.54197 -1.66186 0
M  V30 1990 H 179.357 1.21331 -0.871735 0
M  V30 1991 H 181.239 4.21185 0.134739 0
M  V30 1992 H 179.914 3.1597 0.703185 0
M  V30 1993 H 178.821 3.37985 -1.60366 0
M  V30 1994 H 180.154 4.45524 -2.09211 0
M  V30 1995 N 181.806 0.884767 1.30421 0
M  V30 1996 C 182.769 0.356277 2.26414 0
M  V30 1997 C 183.769 -0.501124 1.52792 0
M  V30 1998 O 184.959 -0.30831 1.7145 0
M  V30 1999 C 182.091 -0.492316 3.37326 0
M  V30 2000 H 183.284 1.20389 2.74675 0
M  V30 2001 H 180.837 0.661607 1.41607 0
M  V30 2002 H 181.572 -1.36052 2.94381 0
M  V30 2003 H 181.357 0.121832 3.91911 0
M  V30 2004 H 182.847 -0.853871 4.08777 0
M  V30 2005 N 183.284 -1.43765 0.645699 0
M  V30 2006 C 184.214 -2.33471 -0.0370477 0
M  V30 2007 C 185.195 -1.49042 -0.819779 0
M  V30 2008 O 186.38 -1.77726 -0.782758 0
M  V30 2009 C 183.51 -3.32311 -1.0093 0
M  V30 2010 C 182.464 -4.2667 -0.337201 0
M  V30 2011 C 181.79 -5.1549 -1.42037 0
M  V30 2012 C 183.09 -5.16657 0.765706 0
M  V30 2013 H 184.784 -2.90809 0.712069 0
M  V30 2014 H 182.33 -1.39834 0.343876 0
M  V30 2015 H 184.283 -3.9396 -1.49578 0
M  V30 2016 H 183.007 -2.73213 -1.78948 0
M  V30 2017 H 181.666 -3.66374 0.128771 0
M  V30 2018 H 181.314 -4.52735 -2.1918 0
M  V30 2019 H 181.014 -5.79438 -0.975966 0
M  V30 2020 H 182.538 -5.80012 -1.90838 0
M  V30 2021 H 183.952 -5.72158 0.361702 0
M  V30 2022 H 182.349 -5.89286 1.13413 0
M  V30 2023 H 183.419 -4.56796 1.62683 0
M  V30 2024 N 184.763 -0.387143 -1.52771 0
M  V30 2025 C 186.174 0.0873634 -1.86495 0
M  V30 2026 C 186.525 1.46336 -1.30691 0
M  V30 2027 O 185.65 2.068 -0.637409 0
M  V30 2028 C 186.245 0.165305 -3.38396 0
M  V30 2029 C 184.804 0.584101 -3.7184 0
M  V30 2030 C 183.951 -0.255279 -2.76122 0
M  V30 2031 H 186.902 -0.605104 -1.46711 0
M  V30 2032 H 186.923 0.984848 -3.67534 0
M  V30 2033 H 186.435 -0.836301 -3.78982 0
M  V30 2034 H 184.536 1.59315 -3.36823 0
M  V30 2035 H 184.649 0.343749 -4.77865 0
M  V30 2036 H 183.013 0.279126 -2.53166 0
M  V30 2037 H 183.796 -1.25482 -3.19545 0
M  V30 2038 N 186.241 1.57166 -0.116904 0
M  V30 2039 C 187.488 1.95123 0.541603 0
M  V30 2040 C 187.816 1.00006 1.6682 0
M  V30 2041 O 187.071 0.0235658 1.95686 0
M  V30 2042 C 187.37 3.39508 1.11664 0
M  V30 2043 C 187.036 4.50762 0.111606 0
M  V30 2044 C 185.698 4.80918 -0.164758 0
M  V30 2045 C 188.05 5.18036 -0.573438 0
M  V30 2046 C 185.378 5.75666 -1.13249 0
M  V30 2047 C 187.73 6.13824 -1.52978 0
M  V30 2048 C 186.394 6.42374 -1.81415 0
M  V30 2049 H 185.664 0.714005 0.198187 0
M  V30 2050 H 188.311 1.9048 -0.197365 0
M  V30 2051 H 186.616 3.40835 1.93232 0
M  V30 2052 H 188.313 3.66189 1.63422 0
M  V30 2053 H 184.903 4.27272 0.337192 0
M  V30 2054 H 189.087 4.94896 -0.373092 0
M  V30 2055 H 184.343 5.96092 -1.35958 0
M  V30 2056 H 188.517 6.65039 -2.06629 0
M  V30 2057 H 186.144 7.15599 -2.56557 0
M  V30 2058 N 187.719 -0.156864 1.56817 0
M  V30 2059 C 188.966 -0.871125 1.82805 0
M  V30 2060 C 189.294 -1.81611 0.696262 0
M  V30 2061 O 188.549 -1.93141 -0.315459 0
M  V30 2062 C 188.848 -1.68737 3.1506 0
M  V30 2063 C 188.514 -0.890045 4.42028 0
M  V30 2064 C 187.176 -0.670042 4.76512 0
M  V30 2065 C 189.528 -0.331769 5.20143 0
M  V30 2066 C 186.856 0.119104 5.86579 0
M  V30 2067 C 189.208 0.444365 6.31037 0
M  V30 2068 C 187.872 0.675035 6.64078 0
M  V30 2069 H 187.142 -0.318767 0.668931 0
M  V30 2070 H 189.789 -0.135274 1.91022 0
M  V30 2071 H 188.094 -2.49304 3.0225 0
M  V30 2072 H 189.791 -2.24331 3.3238 0
M  V30 2073 H 186.381 -1.07157 4.14988 0
M  V30 2074 H 190.565 -0.489043 4.93885 0
M  V30 2075 H 185.821 0.307417 6.10627 0
M  V30 2076 H 189.995 0.884139 6.90765 0
M  V30 2077 H 187.622 1.28839 7.49203 0
M  V30 2078 N 189.197 -1.51736 -0.425897 0
M  V30 2079 C 190.127 -1.76827 -1.52494 0
M  V30 2080 C 191.108 -0.618524 -1.58456 0
M  V30 2081 O 192.293 -0.862416 -1.74 0
M  V30 2082 C 189.423 -1.90374 -2.90474 0
M  V30 2083 C 188.377 -3.0588 -2.99369 0
M  V30 2084 C 187.703 -3.04625 -4.3944 0
M  V30 2085 C 189.003 -4.45644 -2.72394 0
M  V30 2086 H 190.697 -2.68855 -1.31748 0
M  V30 2087 H 188.243 -1.29372 -0.632362 0
M  V30 2088 H 190.196 -2.0651 -3.6733 0
M  V30 2089 H 188.92 -0.95004 -3.12477 0
M  V30 2090 H 187.579 -2.89467 -2.24954 0
M  V30 2091 H 187.227 -2.0701 -4.58428 0
M  V30 2092 H 186.927 -3.82195 -4.46319 0
M  V30 2093 H 188.451 -3.22869 -5.18255 0
M  V30 2094 H 189.865 -4.62348 -3.38979 0
M  V30 2095 H 188.262 -5.25006 -2.9067 0
M  V30 2096 H 189.332 -4.54893 -1.67929 0
M  V30 2097 N 190.675 0.682077 -1.42076 0
M  V30 2098 C 191.605 1.80796 -1.47767 0
M  V30 2099 C 192.586 1.6677 -0.334954 0
M  V30 2100 O 193.771 1.863 -0.548264 0
M  V30 2101 C 190.901 3.19038 -1.37229 0
M  V30 2102 C 189.855 3.47789 -2.49453 0
M  V30 2103 C 189.181 4.8553 -2.23975 0
M  V30 2104 C 190.481 3.45411 -3.91776 0
M  V30 2105 H 192.175 1.7629 -2.41997 0
M  V30 2106 H 189.721 0.846721 -1.16476 0
M  V30 2107 H 191.674 3.97528 -1.39821 0
M  V30 2108 H 190.398 3.24204 -0.394907 0
M  V30 2109 H 189.057 2.71657 -2.46166 0
M  V30 2110 H 188.705 4.87337 -1.24547 0
M  V30 2111 H 188.405 5.0573 -2.99184 0
M  V30 2112 H 189.929 5.66312 -2.28304 0
M  V30 2113 H 191.343 4.13882 -3.96705 0
M  V30 2114 H 189.74 3.77145 -4.66778 0
M  V30 2115 H 190.81 2.44122 -4.18966 0
M  V30 2116 N 192.153 1.28127 0.917671 0
M  V30 2117 C 193.083 1.14248 2.03641 0
M  V30 2118 C 194.064 0.0412748 1.7005 0
M  V30 2119 O 195.249 0.217566 1.92977 0
M  V30 2120 C 192.379 0.799431 3.37974 0
M  V30 2121 C 191.333 1.85497 3.85713 0
M  V30 2122 C 190.659 1.36565 5.16966 0
M  V30 2123 C 191.959 3.26085 4.08002 0
M  V30 2124 H 193.653 2.07835 2.15511 0
M  V30 2125 H 191.199 1.00064 1.03553 0
M  V30 2126 H 193.152 0.689114 4.15727 0
M  V30 2127 H 191.876 -0.172145 3.26146 0
M  V30 2128 H 190.535 1.95437 3.10161 0
M  V30 2129 H 190.183 0.383253 5.01538 0
M  V30 2130 H 189.883 2.07143 5.49878 0
M  V30 2131 H 191.407 1.26848 5.97279 0
M  V30 2132 H 192.821 3.19089 4.76293 0
M  V30 2133 H 191.218 3.94462 4.52238 0
M  V30 2134 H 192.288 3.70394 3.12948 0
M  V30 2135 N 193.631 -1.12557 1.10312 0
M  V30 2136 C 194.88 -1.83395 0.839588 0
M  V30 2137 C 195.193 -1.84939 -0.636929 0
M  V30 2138 O 196.399 -2.51761 -1.01631 0
M  V30 2139 C 194.855 -3.29303 1.45215 0
M  V30 2140 C 194.463 -3.36122 2.96186 0
M  V30 2141 C 196.207 -4.05121 1.26796 0
M  V30 2142 C 194.114 -4.76357 3.50483 0
M  V30 2143 H 193.044 -0.687133 0.310425 0
M  V30 2144 H 195.695 -1.26746 1.32694 0
M  V30 2145 H 194.077 -3.85812 0.892469 0
M  V30 2146 H 195.251 -2.89559 3.58458 0
M  V30 2147 H 193.566 -2.73776 3.13745 0
M  V30 2148 H 196.163 -5.08668 1.64806 0
M  V30 2149 H 196.506 -4.15773 0.209409 0
M  V30 2150 H 197.039 -3.54967 1.79563 0
M  V30 2151 H 193.778 -4.70899 4.55998 0
M  V30 2152 H 193.298 -5.23377 2.92978 0
M  V30 2153 H 194.977 -5.45294 3.48228 0
M  V30 2154 N 195.109 -0.891671 -1.2995 0
M  V30 2155 C 196.386 -0.433307 -1.9074 0
M  V30 2156 C 196.766 1.08646 -1.80995 0
M  V30 2157 O 196.114 1.92476 -1.23147 0
M  V30 2158 C 196.324 -0.938895 -3.36134 0
M  V30 2159 C 197.672 -0.977829 -4.13187 0
M  V30 2160 O 198.696 -0.886015 -3.45005 0
M  V30 2161 O 197.555 -1.11453 -5.35015 0
M  V30 2162 H 194.649 -0.133699 -0.816121 0
M  V30 2163 H 197.195 -0.981011 -1.38471 0
M  V30 2164 H 195.967 -1.98281 -3.37343 0
M  V30 2165 H 195.59 -0.37074 -3.95868 0
M  V30 2166 N 196.587 1.43421 -0.653314 0
M  V30 2167 C 197.517 2.33487 0.0246656 0
M  V30 2168 C 198.498 1.49475 0.811863 0
M  V30 2169 O 199.683 1.78139 0.773322 0
M  V30 2170 C 196.813 3.32841 0.99166 0
M  V30 2171 C 195.767 4.26842 0.314568 0
M  V30 2172 C 195.093 5.16236 1.39302 0
M  V30 2173 C 196.393 5.16243 -0.793095 0
M  V30 2174 H 198.087 2.90427 -0.727481 0
M  V30 2175 H 195.633 1.39649 -0.351287 0
M  V30 2176 H 197.586 3.94747 1.47487 0
M  V30 2177 H 196.31 2.74158 1.77497 0
M  V30 2178 H 194.969 3.663 -0.148199 0
M  V30 2179 H 194.617 4.53891 2.16776 0
M  V30 2180 H 194.317 5.79948 0.945223 0
M  V30 2181 H 195.841 5.81015 1.87759 0
M  V30 2182 H 197.255 5.71958 -0.392039 0
M  V30 2183 H 195.652 5.88676 -1.16536 0
M  V30 2184 H 196.722 4.55927 -1.65103 0
M  V30 2185 N 198.065 0.39524 1.52563 0
M  V30 2186 C 199.29 -0.187456 2.06551 0
M  V30 2187 C 199.715 -1.39249 1.26457 0
M  V30 2188 O 199.073 -1.78947 0.291151 0
M  V30 2189 C 199.121 -0.529985 3.56684 0
M  V30 2190 O 198.225 -1.62307 3.79118 0
M  V30 2191 H 197.566 -0.0202537 0.663691 0
M  V30 2192 H 200.096 0.564426 1.96661 0
M  V30 2193 H 200.106 -0.792598 4.00227 0
M  V30 2194 H 198.781 0.350987 4.14416 0
M  V30 2195 H 197.358 -1.3537 3.47461 0
M  V30 2196 N 199.544 -1.57102 0.125237 0
M  V30 2197 C 200.96 -1.57915 -0.231322 0
M  V30 2198 C 201.16 -1.13833 -1.66266 0
M  V30 2199 O 200.216 -0.828581 -2.38518 0
M  V30 2200 C 201.529 -3.00699 0.00766489 0
M  V30 2201 C 203.077 -3.12947 -0.0577483 0
M  V30 2202 C 203.552 -4.57742 0.153626 0
M  V30 2203 N 205.043 -4.63092 0.0998073 0
M  V30 2204 C 205.778 -5.72905 0.238174 0
M  V30 2205 N 205.274 -6.91445 0.433057 0
M  V30 2206 N 207.067 -5.6182 0.177308 0
M  V30 2207 H 199.218 -1.84055 1.06007 0
M  V30 2208 H 201.481 -0.850905 0.417929 0
M  V30 2209 H 201.187 -3.3726 0.997431 0
M  V30 2210 H 201.061 -3.70236 -0.721452 0
M  V30 2211 H 203.448 -2.7624 -1.03804 0
M  V30 2212 H 203.529 -2.4594 0.70335 0
M  V30 2213 H 203.173 -4.95149 1.13092 0
M  V30 2214 H 203.103 -5.22848 -0.627534 0
M  V30 2215 H 205.594 -3.77871 -0.047051 0
M  V30 2216 H 205.907 -7.70985 0.529332 0
M  V30 2217 H 204.252 -6.93415 0.469109 0
M  V30 2218 H 207.443 -4.68093 0.0259748 0
M  V30 2219 H 207.616 -6.47357 0.288582 0
M  V30 2220 N 201.022 0.148545 -1.56898 0
M  V30 2221 C 201.985 1.16736 -1.97244 0
M  V30 2222 C 202.985 1.35947 -0.858777 0
M  V30 2223 O 204.175 1.32966 -1.12542 0
M  V30 2224 C 201.307 2.52798 -2.28705 0
M  V30 2225 H 202.5 0.821279 -2.88435 0
M  V30 2226 H 200.053 0.391831 -1.51309 0
M  V30 2227 H 200.788 2.92381 -1.403 0
M  V30 2228 H 200.573 2.40216 -3.09901 0
M  V30 2229 H 202.063 3.26179 -2.60762 0
M  V30 2230 N 202.5 1.5196 0.417844 0
M  V30 2231 C 203.725 1.69717 1.1921 0
M  V30 2232 C 204.15 0.402148 1.83751 0
M  V30 2233 O 203.508 -0.639593 1.69643 0
M  V30 2234 C 203.556 2.82794 2.2374 0
M  V30 2235 O 202.66 2.47756 3.29683 0
M  V30 2236 H 202.001 0.565263 0.348387 0
M  V30 2237 H 204.531 1.98621 0.490985 0
M  V30 2238 H 204.541 3.07452 2.68212 0
M  V30 2239 H 203.216 3.76756 1.76146 0
M  V30 2240 H 201.793 2.33739 2.90552 0
M  V30 2241 N 203.978 -0.674533 1.42435 0
M  V30 2242 C 205.206 -1.46283 1.46317 0
M  V30 2243 C 205.621 -1.88653 0.0745836 0
M  V30 2244 O 204.978 -1.58151 -0.91074 0
M  V30 2245 C 205.029 -2.71178 2.3905 0
M  V30 2246 O 204.75 -2.30586 3.72507 0
M  V30 2247 C 206.251 -3.64738 2.51955 0
M  V30 2248 H 203.471 -0.450104 0.497642 0
M  V30 2249 H 206.015 -0.828792 1.86953 0
M  V30 2250 H 204.17 -3.3077 2.01667 0
M  V30 2251 H 204.584 -3.11241 4.22172 0
M  V30 2252 H 206.058 -4.49096 3.20962 0
M  V30 2253 H 206.535 -4.10656 1.55752 0
M  V30 2254 H 207.141 -3.11038 2.90061 0
M  V30 2255 N 205.456 -1.28612 -0.910864 0
M  V30 2256 C 206.386 -1.15326 -2.03032 0
M  V30 2257 C 207.367 -0.0502924 -1.70026 0
M  V30 2258 O 208.552 -0.227797 -1.92859 0
M  V30 2259 C 205.682 -0.817343 -3.37545 0
M  V30 2260 C 204.636 -1.8754 -3.84724 0
M  V30 2261 C 203.962 -1.39305 -5.16235 0
M  V30 2262 C 205.262 -3.28244 -4.06267 0
M  V30 2263 H 206.956 -2.08975 -2.14406 0
M  V30 2264 H 204.502 -1.00612 -1.03021 0
M  V30 2265 H 206.455 -0.711151 -4.15356 0
M  V30 2266 H 205.179 0.154846 -3.26233 0
M  V30 2267 H 203.838 -1.97079 -3.09121 0
M  V30 2268 H 203.486 -0.409846 -5.01328 0
M  V30 2269 H 203.186 -2.10057 -5.48771 0
M  V30 2270 H 204.71 -1.30014 -5.96598 0
M  V30 2271 H 206.124 -3.21611 -4.74594 0
M  V30 2272 H 204.521 -3.96855 -4.5014 0
M  V30 2273 H 205.591 -3.72048 -3.10979 0
M  V30 2274 N 206.934 1.1197 -1.10907 0
M  V30 2275 C 207.897 2.16031 -0.765707 0
M  V30 2276 C 208.897 1.59393 0.212235 0
M  V30 2277 O 210.087 1.74196 -0.0115441 0
M  V30 2278 C 207.219 3.40632 -0.135053 0
M  V30 2279 H 208.412 2.47919 -1.68748 0
M  V30 2280 H 205.965 1.27061 -0.910226 0
M  V30 2281 H 206.7 3.14348 0.797218 0
M  V30 2282 H 206.485 3.8302 -0.838937 0
M  V30 2283 H 207.975 4.17505 0.0892469 0
M  V30 2284 N 208.412 0.89855 1.29475 0
M  V30 2285 C 209.359 0.373819 2.27753 0
M  V30 2286 C 210.329 -0.543444 1.56958 0
M  V30 2287 O 211.514 -0.468934 1.84948 0
M  V30 2288 C 208.654 -0.393648 3.42848 0
M  V30 2289 C 207.767 0.554379 4.28428 0
M  V30 2290 C 206.902 -0.230026 5.30702 0
M  V30 2291 C 205.941 0.712599 6.07938 0
M  V30 2292 N 205.078 -0.0373283 7.0209 0
M  V30 2293 H 209.918 1.21699 2.72017 0
M  V30 2294 H 207.455 0.611456 1.33789 0
M  V30 2295 H 209.413 -0.85466 4.08352 0
M  V30 2296 H 208.043 -1.20128 2.99615 0
M  V30 2297 H 207.095 1.13391 3.63107 0
M  V30 2298 H 208.407 1.27597 4.82204 0
M  V30 2299 H 207.561 -0.752288 6.02018 0
M  V30 2300 H 206.3 -0.984758 4.77654 0
M  V30 2301 H 205.305 1.24637 5.35486 0
M  V30 2302 H 206.53 1.46664 6.63074 0
M  V30 2303 H 204.476 -0.774348 6.51414 0
M  V30 2304 H 204.393 0.624374 7.53417 0
M  V30 2305 H 205.661 -0.539891 7.77628 0
M  V30 2306 N 209.89 -1.43072 0.660911 0
M  V30 2307 C 211.137 -2.01721 0.177445 0
M  V30 2308 C 211.465 -1.5218 -1.21126 0
M  V30 2309 O 210.72 -0.708659 -1.82419 0
M  V30 2310 C 211.019 -3.57103 0.145563 0
M  V30 2311 C 210.685 -4.26021 1.47705 0
M  V30 2312 C 209.347 -4.44563 1.84165 0
M  V30 2313 C 211.699 -4.64983 2.35458 0
M  V30 2314 C 209.027 -4.99334 3.0803 0
M  V30 2315 C 211.379 -5.21127 3.58622 0
M  V30 2316 C 210.043 -5.37884 3.95268 0
M  V30 2317 H 209.313 -0.73815 0.0649317 0
M  V30 2318 H 211.96 -1.71446 0.853144 0
M  V30 2319 H 210.265 -3.86965 -0.61361 0
M  V30 2320 H 211.962 -4.00248 -0.2455 0
M  V30 2321 H 208.552 -4.11939 1.18339 0
M  V30 2322 H 212.736 -4.50343 2.08579 0
M  V30 2323 H 207.992 -5.10493 3.36462 0
M  V30 2324 H 212.166 -5.50262 4.26831 0
M  V30 2325 H 209.793 -5.80089 4.91325 0
M  V30 2326 N 211.368 -0.403325 -1.52352 0
M  V30 2327 C 212.331 0.413051 -2.25447 0
M  V30 2328 C 213.331 0.978513 -1.276 0
M  V30 2329 O 214.521 0.858305 -1.51587 0
M  V30 2330 C 211.653 1.58087 -3.02029 0
M  V30 2331 H 212.846 -0.227094 -2.99039 0
M  V30 2332 H 210.399 -0.155722 -1.55522 0
M  V30 2333 H 211.134 2.25804 -2.32772 0
M  V30 2334 H 210.919 1.18195 -3.73861 0
M  V30 2335 H 212.409 2.1585 -3.57489 0
M  V30 2336 N 212.846 1.57033 -0.133567 0
M  V30 2337 C 213.776 2.1909 0.807567 0
M  V30 2338 C 214.757 1.13517 1.26681 0
M  V30 2339 O 215.942 1.41809 1.32679 0
M  V30 2340 C 213.072 2.80188 2.05212 0
M  V30 2341 C 212.026 3.91471 1.73015 0
M  V30 2342 C 211.352 4.39443 3.04622 0
M  V30 2343 C 212.652 5.12886 0.987168 0
M  V30 2344 H 214.346 2.97988 0.290403 0
M  V30 2345 H 211.892 1.43335 0.138239 0
M  V30 2346 H 213.845 3.22264 2.71521 0
M  V30 2347 H 212.569 1.98601 2.59278 0
M  V30 2348 H 211.228 3.49993 1.0909 0
M  V30 2349 H 210.876 3.54695 3.56651 0
M  V30 2350 H 210.576 5.14495 2.83847 0
M  V30 2351 H 212.1 4.8418 3.72024 0
M  V30 2352 H 213.514 5.51891 1.55208 0
M  V30 2353 H 211.911 5.93615 0.87985 0
M  V30 2354 H 212.981 4.84894 -0.0235286 0
M  V30 2355 N 214.325 -0.140222 1.56975 0
M  V30 2356 C 215.55 -0.870414 1.88251 0
M  V30 2357 C 215.975 -1.73637 0.723312 0
M  V30 2358 O 215.333 -1.78329 -0.32689 0
M  V30 2359 C 215.381 -1.69737 3.18154 0
M  V30 2360 O 214.485 -2.80229 3.02565 0
M  V30 2361 H 213.826 -0.242025 0.61832 0
M  V30 2362 H 216.356 -0.128999 2.04193 0
M  V30 2363 H 216.366 -2.09099 3.50345 0
M  V30 2364 H 215.041 -1.06152 4.02125 0
M  V30 2365 H 213.618 -2.44224 2.81796 0
M  V30 2366 N 215.803 -1.52179 -0.40978 0
M  V30 2367 C 217.028 -1.70347 -1.18308 0
M  V30 2368 C 217.453 -0.411887 -1.83535 0
M  V30 2369 O 216.811 0.630587 -1.6998 0
M  V30 2370 C 216.859 -2.83977 -2.22238 0
M  V30 2371 O 215.963 -2.495 -3.28365 0
M  V30 2372 H 215.304 -0.567103 -0.345384 0
M  V30 2373 H 217.834 -1.98879 -0.480445 0
M  V30 2374 H 217.844 -3.0887 -2.66577 0
M  V30 2375 H 216.519 -3.77685 -1.74146 0
M  V30 2376 H 215.096 -2.35277 -2.89308 0
M  V30 2377 N 217.281 0.66697 -1.42791 0
M  V30 2378 C 218.229 1.80157 -1.47127 0
M  V30 2379 C 219.223 1.65825 -0.346199 0
M  V30 2380 O 220.429 1.72338 -0.519572 0
M  V30 2381 H 216.804 0.594158 -0.460956 0
M  V30 2382 H 218.775 1.73619 -2.42692 0
M  V30 2383 C 217.524 3.18351 -1.39813 0
M  V30 2384 H 216.847 3.3001 -2.25684 0
M  V30 2385 H 218.287 3.97736 -1.46908 0
M  V30 2386 C 216.746 3.36707 -0.11391 0
M  V30 2387 O 217.276 3.93027 0.830241 0
M  V30 2388 N 215.482 2.90586 -0.0285295 0
M  V30 2389 H 215.029 2.4494 -0.79764 0
M  V30 2390 H 214.987 3.03245 0.830063 0
M  V30 2391 N 218.759 1.29093 0.90403 0
M  V30 2392 C 219.984 1.19809 1.69294 0
M  V30 2393 C 220.409 -0.238481 1.86582 0
M  V30 2394 O 219.767 -1.1723 1.383 0
M  V30 2395 C 219.815 1.91202 3.05736 0
M  V30 2396 O 218.919 1.22611 3.93752 0
M  V30 2397 H 218.26 0.415385 0.518027 0
M  V30 2398 H 220.79 1.70586 1.12967 0
M  V30 2399 H 220.8 1.99487 3.55906 0
M  V30 2400 H 219.475 2.95692 2.92471 0
M  V30 2401 H 218.052 1.22554 3.52186 0
M  V30 2402 N 220.237 -1.11381 1.11499 0
M  V30 2403 C 221.169 -2.17207 0.731704 0
M  V30 2404 C 222.182 -1.61066 -0.236957 0
M  V30 2405 O 223.371 -1.78489 -0.0197591 0
M  V30 2406 C 220.471 -3.38846 0.0607624 0
M  V30 2407 C 219.644 -4.24451 1.0564 0
M  V30 2408 C 218.703 -5.24562 0.4149 0
M  V30 2409 O 217.729 -5.59071 1.069 0
M  V30 2410 N 218.931 -5.74651 -0.821943 0
M  V30 2411 H 221.696 -2.50699 1.64225 0
M  V30 2412 H 219.257 -1.26908 1.00529 0
M  V30 2413 H 221.249 -4.02911 -0.380139 0
M  V30 2414 H 219.819 -3.03411 -0.752376 0
M  V30 2415 H 219.039 -3.56833 1.67524 0
M  V30 2416 H 220.327 -4.78486 1.72998 0
M  V30 2417 H 219.725 -5.48797 -1.37252 0
M  V30 2418 H 218.282 -6.40549 -1.20582 0
M  V30 2419 N 221.715 -0.905404 -1.28997 0
M  V30 2420 C 222.992 -0.453513 -1.9027 0
M  V30 2421 C 223.372 1.06721 -1.82137 0
M  V30 2422 O 222.72 1.91159 -1.25182 0
M  V30 2423 C 222.93 -0.974494 -3.35119 0
M  V30 2424 C 224.278 -1.0216 -4.12127 0
M  V30 2425 O 225.302 -0.922557 -3.44046 0
M  V30 2426 O 224.161 -1.17121 -5.33802 0
M  V30 2427 H 221.255 -0.142347 -0.814657 0
M  V30 2428 H 223.801 -0.995642 -1.37423 0
M  V30 2429 H 222.573 -2.01848 -3.35221 0
M  V30 2430 H 222.196 -0.412706 -3.95452 0
M  V30 2431 N 223.193 1.4272 -0.668489 0
M  V30 2432 C 224.103 2.34596 0.0139753 0
M  V30 2433 C 225.119 1.5474 0.795703 0
M  V30 2434 O 226.295 1.87334 0.739466 0
M  V30 2435 C 223.36 3.33202 0.957982 0
M  V30 2436 C 222.421 4.28957 0.17149 0
M  V30 2437 C 221.654 5.22853 1.07053 0
M  V30 2438 O 221.877 5.21531 2.31001 0
M  V30 2439 O 220.811 5.9952 0.534727 0
M  V30 2440 H 224.637 2.9448 -0.742661 0
M  V30 2441 H 222.222 1.43117 -0.428705 0
M  V30 2442 H 224.104 3.93796 1.50008 0
M  V30 2443 H 222.779 2.758 1.69458 0
M  V30 2444 H 221.686 3.71796 -0.414558 0
M  V30 2445 H 223.019 4.89383 -0.52586 0
M  V30 2446 N 224.671 0.411399 1.52136 0
M  V30 2447 C 225.917 -0.163888 2.02137 0
M  V30 2448 C 226.25 -1.44597 1.29636 0
M  V30 2449 O 225.525 -1.90272 0.403353 0
M  V30 2450 C 225.808 -0.40927 3.57767 0
M  V30 2451 C 225.661 0.889643 4.40914 0
M  V30 2452 C 226.98 -1.19042 4.23694 0
M  V30 2453 H 224.099 -0.0580896 0.734707 0
M  V30 2454 H 226.741 0.54531 1.82007 0
M  V30 2455 H 224.891 -1.0134 3.7505 0
M  V30 2456 H 226.563 1.52575 4.35337 0
M  V30 2457 H 224.806 1.50011 4.07037 0
M  V30 2458 H 225.477 0.672314 5.4789 0
M  V30 2459 H 227.953 -0.678942 4.10524 0
M  V30 2460 H 226.829 -1.33086 5.32522 0
M  V30 2461 H 227.09 -2.21166 3.82803 0
M  V30 2462 N 226.149 -1.5696 0.141893 0
M  V30 2463 C 227.565 -1.58151 -0.21456 0
M  V30 2464 C 227.765 -1.1559 -1.65049 0
M  V30 2465 O 226.821 -0.853832 -2.37626 0
M  V30 2466 C 228.134 -3.00674 0.0395576 0
M  V30 2467 C 229.682 -3.1299 -0.0245529 0
M  V30 2468 C 230.157 -4.57554 0.202167 0
M  V30 2469 N 231.648 -4.62961 0.148919 0
M  V30 2470 C 232.383 -5.7262 0.298924 0
M  V30 2471 N 231.879 -6.90947 0.50637 0
M  V30 2472 N 233.672 -5.61601 0.236886 0
M  V30 2473 H 225.823 -1.8292 1.07953 0
M  V30 2474 H 228.086 -0.846425 0.42693 0
M  V30 2475 H 227.792 -3.36183 1.03315 0
M  V30 2476 H 227.666 -3.70981 -0.682143 0
M  V30 2477 H 230.053 -2.77326 -1.00869 0
M  V30 2478 H 230.134 -2.4518 0.729396 0
M  V30 2479 H 229.778 -4.93922 1.18338 0
M  V30 2480 H 229.708 -5.23484 -0.572044 0
M  V30 2481 H 232.199 -3.77899 -0.00697015 0
M  V30 2482 H 232.512 -7.7038 0.611076 0
M  V30 2483 H 230.857 -6.92878 0.542628 0
M  V30 2484 H 234.048 -4.68039 0.0756209 0
M  V30 2485 H 234.221 -6.47015 0.357227 0
M  V30 2486 N 227.627 0.131896 -1.57047 0
M  V30 2487 C 228.537 1.1815 -2.02676 0
M  V30 2488 C 229.553 1.46113 -0.944824 0
M  V30 2489 O 230.729 1.57485 -1.25541 0
M  V30 2490 C 227.794 2.49139 -2.41103 0
M  V30 2491 C 226.855 2.28688 -3.63318 0
M  V30 2492 C 226.088 3.53431 -3.99903 0
M  V30 2493 O 226.311 4.60223 -3.36973 0
M  V30 2494 O 225.245 3.45198 -4.93074 0
M  V30 2495 H 229.071 0.824069 -2.92306 0
M  V30 2496 H 226.656 0.341745 -1.45439 0
M  V30 2497 H 228.538 3.26338 -2.66611 0
M  V30 2498 H 227.213 2.84382 -1.54624 0
M  V30 2499 H 226.12 1.4939 -3.42977 0
M  V30 2500 H 227.453 1.98355 -4.50462 0
M  V30 2501 N 229.106 1.52395 0.401703 0
M  V30 2502 C 230.054 1.7689 1.51039 0
M  V30 2503 C 231.048 0.636298 1.56996 0
M  V30 2504 O 232.254 0.818507 1.60314 0
M  V30 2505 H 228.629 0.559502 0.502456 0
M  V30 2506 H 230.6 2.69757 1.27568 0
M  V30 2507 C 229.349 1.94331 2.88324 0
M  V30 2508 H 228.672 2.80905 2.84486 0
M  V30 2509 H 230.112 2.15466 3.65172 0
M  V30 2510 C 228.571 0.712396 3.29282 0
M  V30 2511 O 229.101 -0.116218 4.01532 0
M  V30 2512 N 227.307 0.546154 2.85422 0
M  V30 2513 H 226.854 1.22156 2.26794 0
M  V30 2514 H 226.812 -0.276113 3.13185 0
M  V30 2515 N 230.584 -0.659388 1.43143 0
M  V30 2516 C 231.833 -1.41518 1.43721 0
M  V30 2517 C 232.146 -1.95499 0.0628176 0
M  V30 2518 O 233.352 -2.71446 -0.0539683 0
M  V30 2519 C 231.808 -2.5608 2.52885 0
M  V30 2520 C 231.416 -2.08733 3.96402 0
M  V30 2521 C 233.16 -3.3349 2.62649 0
M  V30 2522 C 231.067 -3.20469 4.97045 0
M  V30 2523 H 229.997 -0.531705 0.534608 0
M  V30 2524 H 232.648 -0.712343 1.69109 0
M  V30 2525 H 231.03 -3.28805 2.20688 0
M  V30 2526 H 232.204 -1.43059 4.3803 0
M  V30 2527 H 230.519 -1.44219 3.90627 0
M  V30 2528 H 233.116 -4.16734 3.35017 0
M  V30 2529 H 233.459 -3.8111 1.67513 0
M  V30 2530 H 233.992 -2.67842 2.94118 0
M  V30 2531 H 230.731 -2.77824 5.93712 0
M  V30 2532 H 230.251 -3.84874 4.60034 0
M  V30 2533 H 231.93 -3.85698 5.19467 0
M  V30 2534 N 232.062 -1.29571 -0.897171 0
M  V30 2535 C 233.025 -1.14913 -1.98312 0
M  V30 2536 C 234.025 -0.0838629 -1.60581 0
M  V30 2537 O 235.215 -0.331006 -1.71026 0
M  V30 2538 C 232.347 -0.757835 -3.3237 0
M  V30 2539 H 233.54 -2.11377 -2.12743 0
M  V30 2540 H 231.093 -1.12793 -1.08201 0
M  V30 2541 H 231.828 0.206837 -3.2364 0
M  V30 2542 H 231.613 -1.52755 -3.61121 0
M  V30 2543 H 233.103 -0.678408 -4.12053 0
M  V30 2544 N 233.54 1.10788 -1.12088 0
M  V30 2545 C 234.956 1.34691 -0.856186 0
M  V30 2546 C 235.156 1.94791 0.515615 0
M  V30 2547 O 234.212 2.18524 1.26505 0
M  V30 2548 C 235.525 2.27208 -1.9697 0
M  V30 2549 C 237.073 2.40755 -2.00016 0
M  V30 2550 C 237.548 3.36598 -3.1059 0
M  V30 2551 N 239.039 3.44164 -3.10008 0
M  V30 2552 C 239.774 4.18284 -3.92206 0
M  V30 2553 N 239.27 4.95322 -4.84384 0
M  V30 2554 N 241.063 4.13865 -3.80357 0
M  V30 2555 H 233.214 0.70144 -2.00483 0
M  V30 2556 H 235.477 0.371405 -0.872217 0
M  V30 2557 H 235.183 1.90251 -2.958 0
M  V30 2558 H 235.057 3.27485 -1.87172 0
M  V30 2559 H 237.444 2.76982 -1.01808 0
M  V30 2560 H 237.525 1.40305 -2.13888 0
M  V30 2561 H 237.169 3.01096 -4.09028 0
M  V30 2562 H 237.099 4.36918 -2.93956 0
M  V30 2563 H 239.59 2.8922 -2.43228 0
M  V30 2564 H 239.903 5.49267 -5.43623 0
M  V30 2565 H 238.248 4.94459 -4.884 0
M  V30 2566 H 241.439 3.52773 -3.07683 0
M  V30 2567 H 241.612 4.71372 -4.44649 0
M  V30 2568 N 235.018 0.912232 1.28515 0
M  V30 2569 C 236.266 0.543523 1.94654 0
M  V30 2570 C 236.587 -0.9155 1.72173 0
M  V30 2571 O 235.857 -1.64708 1.06058 0
M  V30 2572 H 234.437 0.198017 0.720277 0
M  V30 2573 H 237.099 1.16126 1.56527 0
M  V30 2574 H 236.195 0.736684 3.03281 0
M  V30 2575 N 236.496 -1.42363 0.676048 0
M  V30 2576 C 237.429 -2.28141 -0.0516916 0
M  V30 2577 C 238.407 -1.41135 -0.807439 0
M  V30 2578 O 239.591 -1.70573 -0.802305 0
M  V30 2579 C 236.718 -3.21007 -1.08039 0
M  V30 2580 C 235.764 -4.24426 -0.420076 0
M  V30 2581 S 236.597 -5.29134 0.823246 0
M  V30 2582 C 237.753 -6.25566 -0.204344 0
M  V30 2583 H 237.986 -2.89515 0.675884 0
M  V30 2584 H 235.519 -1.47211 0.465635 0
M  V30 2585 H 237.477 -3.75048 -1.66881 0
M  V30 2586 H 236.138 -2.58766 -1.78042 0
M  V30 2587 H 235.331 -4.89596 -1.19633 0
M  V30 2588 H 234.933 -3.7388 0.0947845 0
M  V30 2589 H 237.225 -6.69098 -1.06369 0
M  V30 2590 H 238.168 -7.06895 0.412915 0
M  V30 2591 H 238.576 -5.61811 -0.55038 0
M  V30 2592 N 237.974 -0.419461 -1.51915 0
M  V30 2593 C 238.937 0.389116 -2.25873 0
M  V30 2594 C 239.937 0.964924 -1.28631 0
M  V30 2595 O 241.127 0.842179 -1.52489 0
M  V30 2596 C 238.259 1.54874 -3.03689 0
M  V30 2597 H 239.452 -0.258799 -2.98781 0
M  V30 2598 H 237.005 -0.172209 -1.55348 0
M  V30 2599 H 237.74 2.23323 -2.35154 0
M  V30 2600 H 237.525 1.14223 -3.75094 0
M  V30 2601 H 239.015 2.12046 -3.59759 0
M  V30 2602 N 239.452 1.56882 -0.150215 0
M  V30 2603 C 240.701 1.95403 0.500071 0
M  V30 2604 C 241.014 1.03777 1.658 0
M  V30 2605 O 242.22 1.31889 2.37313 0
M  V30 2606 C 240.676 3.4738 0.941018 0
M  V30 2607 C 240.284 4.47596 -0.190158 0
M  V30 2608 C 242.028 3.9476 1.56091 0
M  V30 2609 C 239.935 5.90787 0.269237 0
M  V30 2610 H 238.865 0.729515 0.190588 0
M  V30 2611 H 241.516 1.81988 -0.235074 0
M  V30 2612 H 239.898 3.56138 1.73152 0
M  V30 2613 H 241.072 4.50536 -0.967157 0
M  V30 2614 H 239.387 4.10151 -0.718666 0
M  V30 2615 H 241.984 4.99181 1.9163 0
M  V30 2616 H 242.327 3.36494 2.45107 0
M  V30 2617 H 242.86 3.88932 0.835249 0
M  V30 2618 H 239.599 6.52879 -0.585621 0
M  V30 2619 H 239.119 5.912 1.01204 0
M  V30 2620 H 240.798 6.42979 0.720176 0
M  V30 2621 N 240.93 -0.123565 1.57115 0
M  V30 2622 C 241.86 -1.15309 2.03042 0
M  V30 2623 C 242.841 -1.43454 0.914061 0
M  V30 2624 O 244.026 -1.53973 1.18347 0
M  V30 2625 C 241.156 -2.48043 2.43089 0
M  V30 2626 C 240.11 -2.3437 3.58127 0
M  V30 2627 C 239.436 -3.72026 3.84059 0
M  V30 2628 C 240.736 -1.80804 4.90007 0
M  V30 2629 H 242.43 -0.771102 2.893 0
M  V30 2630 H 239.976 -0.369479 1.39179 0
M  V30 2631 H 241.929 -3.20311 2.73823 0
M  V30 2632 H 240.653 -2.88122 1.53796 0
M  V30 2633 H 239.312 -1.64551 3.27595 0
M  V30 2634 H 238.96 -4.09582 2.91979 0
M  V30 2635 H 238.66 -3.63732 4.6149 0
M  V30 2636 H 240.184 -4.45806 4.1724 0
M  V30 2637 H 241.598 -2.42886 5.19307 0
M  V30 2638 H 239.995 -1.83343 5.71407 0
M  V30 2639 H 241.065 -0.76528 4.78823 0
M  V30 2640 N 242.408 -1.52605 -0.393616 0
M  V30 2641 C 243.656 -1.67093 -1.13685 0
M  V30 2642 C 243.977 -0.411011 -1.90619 0
M  V30 2643 O 243.247 0.574491 -1.87287 0
M  V30 2644 H 241.827 -0.615923 -0.422668 0
M  V30 2645 H 244.489 -1.89704 -0.447039 0
M  V30 2646 H 243.585 -2.51922 -1.84232 0
M  V30 2647 N 243.887 0.651787 -1.4349 0
M  V30 2648 C 245.298 1.233 -1.40193 0
M  V30 2649 C 245.649 1.9591 -0.106727 0
M  V30 2650 O 244.774 2.01316 0.793773 0
M  V30 2651 C 245.369 2.24257 -2.53957 0
M  V30 2652 C 243.928 2.77852 -2.5392 0
M  V30 2653 C 243.075 1.52517 -2.3159 0
M  V30 2654 H 246.026 0.443717 -1.52371 0
M  V30 2655 H 246.047 3.0646 -2.25528 0
M  V30 2656 H 245.559 1.71382 -3.4821 0
M  V30 2657 H 243.66 3.34786 -1.63551 0
M  V30 2658 H 243.773 3.25299 -3.51735 0
M  V30 2659 H 242.137 1.79915 -1.80285 0
M  V30 2660 H 242.92 1.01574 -3.27929 0
M  V30 2661 N 245.365 1.30045 0.890287 0
M  V30 2662 C 246.593 1.21472 1.67487 0
M  V30 2663 C 247.008 -0.223241 1.87476 0
M  V30 2664 O 246.365 -1.14828 1.41847 0
M  V30 2665 C 246.416 1.93394 3.05419 0
M  V30 2666 O 246.137 3.31576 2.86337 0
M  V30 2667 C 247.638 1.91414 3.99844 0
M  V30 2668 H 244.858 0.420604 0.522813 0
M  V30 2669 H 247.402 1.7158 1.11268 0
M  V30 2670 H 245.557 1.47099 3.58386 0
M  V30 2671 H 245.971 3.67929 3.73802 0
M  V30 2672 H 247.445 2.46285 4.94012 0
M  V30 2673 H 247.922 0.891833 4.3005 0
M  V30 2674 H 248.528 2.37496 3.52811 0
M  V30 2675 N 246.843 -1.10192 1.12674 0
M  V30 2676 C 248.09 -1.82205 0.883606 0
M  V30 2677 C 248.418 -1.8532 -0.590492 0
M  V30 2678 O 247.673 -1.31137 -1.45264 0
M  V30 2679 C 247.972 -3.28552 1.4067 0
M  V30 2680 C 247.638 -3.45582 2.89627 0
M  V30 2681 C 246.3 -3.49937 3.30299 0
M  V30 2682 C 248.652 -3.50768 3.85501 0
M  V30 2683 C 245.98 -3.57049 4.65546 0
M  V30 2684 C 248.332 -3.59414 5.20581 0
M  V30 2685 C 246.996 -3.62034 5.60792 0
M  V30 2686 H 246.266 -0.666735 0.323334 0
M  V30 2687 H 248.913 -1.29868 1.40736 0
M  V30 2688 H 247.218 -3.83473 0.80347 0
M  V30 2689 H 248.915 -3.82788 1.19475 0
M  V30 2690 H 245.505 -3.42871 2.57172 0
M  V30 2691 H 249.689 -3.46651 3.55171 0
M  V30 2692 H 244.945 -3.57361 4.96088 0
M  V30 2693 H 249.119 -3.62371 5.94693 0
M  V30 2694 H 246.746 -3.67298 6.6558 0
M  V30 2695 N 248.321 -0.919034 -1.28029 0
M  V30 2696 C 249.549 -0.570971 -1.98866 0
M  V30 2697 C 249.964 0.848996 -1.68634 0
M  V30 2698 O 249.321 1.56307 -0.942036 0
M  V30 2699 C 249.372 -0.776876 -3.53054 0
M  V30 2700 O 249.093 -2.14097 -3.82222 0
M  V30 2701 C 250.594 -0.436356 -4.41147 0
M  V30 2702 H 247.814 -0.217175 -0.634883 0
M  V30 2703 H 250.358 -1.23368 -1.63097 0
M  V30 2704 H 248.513 -0.161085 -3.87065 0
M  V30 2705 H 248.927 -2.18455 -4.76841 0
M  V30 2706 H 250.401 -0.63117 -5.4838 0
M  V30 2707 H 250.878 0.627686 -4.34692 0
M  V30 2708 H 251.484 -1.02991 -4.12641 0
M  V30 2709 N 249.799 1.42003 -0.683588 0
M  V30 2710 C 250.729 2.33487 -0.024866 0
M  V30 2711 C 251.71 1.51163 0.779975 0
M  V30 2712 O 252.895 1.79739 0.735362 0
M  V30 2713 C 250.025 3.3487 0.920836 0
M  V30 2714 C 248.979 4.27414 0.223958 0
M  V30 2715 C 248.305 5.19074 1.2832 0
M  V30 2716 C 249.605 5.14445 -0.90242 0
M  V30 2717 H 251.299 2.88819 -0.788921 0
M  V30 2718 H 248.845 1.38873 -0.38083 0
M  V30 2719 H 250.798 3.97787 1.39081 0
M  V30 2720 H 249.522 2.77861 1.71642 0
M  V30 2721 H 248.181 3.65904 -0.225864 0
M  V30 2722 H 247.829 4.58387 2.071 0
M  V30 2723 H 247.529 5.81822 0.821995 0
M  V30 2724 H 249.053 5.84867 1.75392 0
M  V30 2725 H 250.467 5.70998 -0.513272 0
M  V30 2726 H 248.864 5.86072 -1.28997 0
M  V30 2727 H 249.934 4.52322 -1.74737 0
M  V30 2728 N 251.277 0.427512 1.51691 0
M  V30 2729 C 252.554 -0.201684 1.94557 0
M  V30 2730 C 252.934 -1.60981 1.36559 0
M  V30 2731 O 252.282 -2.21814 0.548702 0
M  V30 2732 C 252.492 -0.189394 3.48486 0
M  V30 2733 C 253.84 -0.39978 4.22714 0
M  V30 2734 O 254.864 -0.267945 3.55191 0
M  V30 2735 O 253.723 -0.661249 5.42485 0
M  V30 2736 H 250.817 -0.135261 0.815864 0
M  V30 2737 H 253.363 0.484782 1.62628 0
M  V30 2738 H 252.135 0.795431 3.8313 0
M  V30 2739 H 251.758 -0.919187 3.86829 0
M  V30 2740 N 252.755 -1.56801 0.158532 0
M  V30 2741 C 253.718 -2.16138 -0.762705 0
M  V30 2742 C 254.718 -1.1061 -1.16713 0
M  V30 2743 O 255.908 -1.36191 -1.08617 0
M  V30 2744 C 253.04 -2.73386 -2.03649 0
M  V30 2745 H 254.233 -2.98886 -0.246354 0
M  V30 2746 H 251.786 -1.56035 -0.0909744 0
M  V30 2747 H 252.521 -1.94335 -2.59623 0
M  V30 2748 H 252.306 -3.50601 -1.75559 0
M  V30 2749 H 253.796 -3.19065 -2.6942 0
M  V30 2750 N 254.233 0.115231 -1.57178 0
M  V30 2751 C 255.163 1.1423 -2.03651 0
M  V30 2752 C 256.144 1.42967 -0.921655 0
M  V30 2753 O 257.329 1.53343 -1.19162 0
M  V30 2754 C 254.459 2.4675 -2.44401 0
M  V30 2755 C 253.413 2.32467 -3.59365 0
M  V30 2756 C 252.739 3.69984 -3.86026 0
M  V30 2757 C 254.039 1.78203 -4.90959 0
M  V30 2758 H 255.733 0.755749 -2.89705 0
M  V30 2759 H 253.279 0.362093 -1.39373 0
M  V30 2760 H 255.232 3.18854 -2.75517 0
M  V30 2761 H 253.956 2.87302 -1.55322 0
M  V30 2762 H 252.615 1.62811 -3.28463 0
M  V30 2763 H 252.263 4.08028 -2.94147 0
M  V30 2764 H 251.963 3.61279 -4.63412 0
M  V30 2765 H 253.487 4.43587 -4.19599 0
M  V30 2766 H 254.901 2.40128 -5.20587 0
M  V30 2767 H 253.298 1.8031 -5.72371 0
M  V30 2768 H 254.368 0.739876 -4.79222 0
M  V30 2769 N 255.711 1.52812 0.385517 0
M  V30 2770 C 256.957 1.68275 1.13188 0
M  V30 2771 C 257.29 0.423179 1.89533 0
M  V30 2772 O 256.565 -0.579113 1.85679 0
M  V30 2773 C 256.848 2.92001 2.1073 0
M  V30 2774 C 256.701 4.28067 1.38125 0
M  V30 2775 C 258.02 3.11283 3.11113 0
M  V30 2776 H 255.139 0.612352 0.410115 0
M  V30 2777 H 257.781 1.85415 0.414869 0
M  V30 2778 H 255.931 2.77519 2.71874 0
M  V30 2779 H 257.603 4.54324 0.799187 0
M  V30 2780 H 255.846 4.28388 0.683092 0
M  V30 2781 H 256.517 5.10733 2.09417 0
M  V30 2782 H 258.993 3.2482 2.6006 0
M  V30 2783 H 257.869 3.99325 3.76605 0
M  V30 2784 H 258.13 2.25656 3.80173 0
M  V30 2785 N 257.189 -0.644168 1.43834 0
M  V30 2786 C 258.099 -1.78563 1.52159 0
M  V30 2787 C 259.115 -1.69147 0.408069 0
M  V30 2788 O 260.291 -1.90156 0.663524 0
M  V30 2789 C 257.356 -3.14888 1.45073 0
M  V30 2790 C 256.417 -3.36034 2.6717 0
M  V30 2791 C 255.65 -4.65855 2.60413 0
M  V30 2792 O 255.873 -5.45805 1.65689 0
M  V30 2793 O 254.807 -4.88918 3.5106 0
M  V30 2794 H 258.633 -1.74494 2.48567 0
M  V30 2795 H 256.218 -0.80378 1.25935 0
M  V30 2796 H 258.1 -3.96179 1.43597 0
M  V30 2797 H 256.775 -3.19528 0.518037 0
M  V30 2798 H 255.682 -2.54472 2.74217 0
M  V30 2799 H 257.015 -3.36247 3.59442 0
M  V30 2800 N 258.668 -1.30515 -0.883378 0
M  V30 2801 C 259.908 -1.20716 -1.64946 0
M  V30 2802 C 260.272 0.234072 -1.90568 0
M  V30 2803 O 261.473 0.455335 -2.64915 0
M  V30 2804 C 259.744 -2.01444 -2.9522 0
M  V30 2805 S 261.303 -2.0836 -3.86175 0
M  V30 2806 H 258.121 -0.430165 -0.566109 0
M  V30 2807 H 260.723 -1.65011 -1.04841 0
M  V30 2808 H 259.427 -3.05268 -2.74298 0
M  V30 2809 H 258.958 -1.57817 -3.60357 0
M  V30 2810 H 260.973 -1.21215 -4.81167 0
M  V30 2811 N 260.146 1.09593 -1.13257 0
M  V30 2812 C 261.076 2.18214 -0.830946 0
M  V30 2813 C 262.057 1.68812 0.208966 0
M  V30 2814 O 263.242 1.9408 0.0682666 0
M  V30 2815 C 260.372 3.46051 -0.294296 0
M  V30 2816 C 259.326 4.08778 -1.26826 0
M  V30 2817 C 258.652 5.31419 -0.591449 0
M  V30 2818 C 259.952 4.51476 -2.62615 0
M  V30 2819 H 261.646 2.43703 -1.73923 0
M  V30 2820 H 259.192 1.17128 -0.837675 0
M  V30 2821 H 261.145 4.2134 -0.0709606 0
M  V30 2822 H 259.869 3.20079 0.649366 0
M  V30 2823 H 258.528 3.35505 -1.47756 0
M  V30 2824 H 258.176 5.01727 0.357633 0
M  V30 2825 H 257.876 5.74341 -1.24123 0
M  V30 2826 H 259.4 6.09433 -0.377355 0
M  V30 2827 H 260.814 5.17999 -2.45663 0
M  V30 2828 H 259.211 5.05277 -3.23752 0
M  V30 2829 H 260.281 3.63962 -3.20406 0
M  V30 2830 N 261.624 0.925811 1.2754 0
M  V30 2831 C 262.87 0.566092 1.94739 0
M  V30 2832 C 263.203 -0.890057 1.72603 0
M  V30 2833 O 262.478 -1.63467 1.05399 0
M  V30 2834 C 262.761 0.89054 3.48915 0
M  V30 2835 C 262.614 2.4003 3.80402 0
M  V30 2836 C 263.933 0.395101 4.38323 0
M  V30 2837 H 261.052 0.20714 0.707292 0
M  V30 2838 H 263.694 1.15725 1.50691 0
M  V30 2839 H 261.844 0.387452 3.86563 0
M  V30 2840 H 263.516 2.97494 3.52555 0
M  V30 2841 H 261.759 2.85028 3.2702 0
M  V30 2842 H 262.43 2.57785 4.8811 0
M  V30 2843 H 264.906 0.826241 4.07814 0
M  V30 2844 H 263.782 0.651086 5.45025 0
M  V30 2845 H 264.043 -0.704798 4.36446 0
M  V30 2846 N 263.102 -1.41638 0.69111 0
M  V30 2847 C 264.351 -2.00526 0.217318 0
M  V30 2848 C 264.664 -1.55353 -1.18848 0
M  V30 2849 O 265.87 -2.06769 -1.75951 0
M  V30 2850 C 264.326 -3.58313 0.337639 0
M  V30 2851 C 263.934 -4.12469 1.74852 0
M  V30 2852 C 265.678 -4.24431 -0.0766066 0
M  V30 2853 C 263.585 -5.62675 1.82074 0
M  V30 2854 H 262.515 -0.750008 0.0774893 0
M  V30 2855 H 265.166 -1.6217 0.858661 0
M  V30 2856 H 263.548 -3.9425 -0.371879 0
M  V30 2857 H 264.722 -3.8796 2.48644 0
M  V30 2858 H 263.037 -3.58861 2.11205 0
M  V30 2859 H 265.634 -5.34683 -0.0430284 0
M  V30 2860 H 265.977 -4.01101 -1.1146 0
M  V30 2861 H 266.51 -3.93512 0.582476 0
M  V30 2862 H 263.249 -5.90826 2.83911 0
M  V30 2863 H 262.769 -5.89124 1.12661 0
M  V30 2864 H 264.448 -6.27371 1.58159 0
M  V30 2865 N 264.58 -0.43555 -1.51462 0
M  V30 2866 C 265.828 0.131254 -2.01673 0
M  V30 2867 C 266.149 1.43368 -1.32177 0
M  V30 2868 O 265.419 1.90524 -0.455769 0
M  V30 2869 H 263.999 0.0514954 -0.745223 0
M  V30 2870 H 266.661 -0.577847 -1.86137 0
M  V30 2871 H 265.757 0.308446 -3.10572 0
M  V30 2872 N 266.058 1.56714 -0.166846 0
M  V30 2873 C 267.304 1.97039 0.479962 0
M  V30 2874 C 267.637 1.05264 1.63197 0
M  V30 2875 O 266.912 0.0988833 1.94248 0
M  V30 2876 C 267.195 3.46867 0.967212 0
M  V30 2877 C 267.048 4.49421 -0.18466 0
M  V30 2878 C 268.367 3.9968 1.84238 0
M  V30 2879 H 265.486 0.71641 0.172992 0
M  V30 2880 H 268.128 1.8832 -0.252079 0
M  V30 2881 H 266.278 3.54428 1.59101 0
M  V30 2882 H 267.95 4.53924 -0.821621 0
M  V30 2883 H 266.193 4.25573 -0.840837 0
M  V30 2884 H 266.864 5.51644 0.198317 0
M  V30 2885 H 269.34 3.94723 1.31655 0
M  V30 2886 H 268.216 5.04941 2.15234 0
M  V30 2887 H 268.477 3.43226 2.78654 0
M  V30 2888 N 267.536 -0.106894 1.57237 0
M  V30 2889 C 268.784 -0.810921 1.85117 0
M  V30 2890 C 269.105 -1.7984 0.753827 0
M  V30 2891 O 268.375 -1.94649 -0.221056 0
M  V30 2892 H 266.955 -0.302466 0.683025 0
M  V30 2893 H 269.617 -0.0913324 1.94686 0
M  V30 2894 H 268.713 -1.34875 2.81452 0
M  V30 2895 N 269.014 -1.53014 -0.377408 0
M  V30 2896 C 270.242 -1.72515 -1.14219 0
M  V30 2897 C 270.657 -0.448735 -1.8339 0
M  V30 2898 O 270.014 0.577592 -1.73119 0
M  V30 2899 C 270.065 -2.8826 -2.18148 0
M  V30 2900 O 269.786 -4.10962 -1.51795 0
M  V30 2901 C 271.287 -3.19536 -3.07264 0
M  V30 2902 H 268.507 -0.577301 -0.342001 0
M  V30 2903 H 271.051 -1.99712 -0.439935 0
M  V30 2904 H 269.206 -2.63492 -2.83991 0
M  V30 2905 H 269.62 -4.75693 -2.20945 0
M  V30 2906 H 271.094 -4.03959 -3.76193 0
M  V30 2907 H 271.571 -2.34403 -3.71419 0
M  V30 2908 H 272.177 -3.46186 -2.47053 0
M  V30 2909 N 270.492 0.636531 -1.44174 0
M  V30 2910 C 271.425 1.76139 -1.45087 0
M  V30 2911 C 272.403 1.59611 -0.310326 0
M  V30 2912 O 273.587 1.81568 -0.506477 0
M  V30 2913 C 270.714 3.13648 -1.27839 0
M  V30 2914 C 269.76 3.48838 -2.45386 0
M  V30 2915 S 270.593 3.46927 -4.07924 0
M  V30 2916 C 271.749 4.87064 -3.9309 0
M  V30 2917 H 271.982 1.75096 -2.40268 0
M  V30 2918 H 269.515 0.810666 -1.31406 0
M  V30 2919 H 271.473 3.93002 -1.18575 0
M  V30 2920 H 270.134 3.12235 -0.341787 0
M  V30 2921 H 269.327 4.48886 -2.29167 0
M  V30 2922 H 268.929 2.76935 -2.51362 0
M  V30 2923 H 271.221 5.76153 -3.56446 0
M  V30 2924 H 272.164 5.08337 -4.92949 0
M  V30 2925 H 272.572 4.61384 -3.25246 0
M  V30 2926 N 271.97 1.30982 0.876444 0
M  V30 2927 C 273.195 1.23373 1.66715 0
M  V30 2928 C 273.62 -0.19885 1.87046 0
M  V30 2929 O 272.978 -1.1427 1.40756 0
M  V30 2930 C 273.026 1.97644 3.01611 0
M  V30 2931 O 272.13 1.30935 3.91062 0
M  V30 2932 H 271.471 0.426279 0.509099 0
M  V30 2933 H 274.001 1.72944 1.09323 0
M  V30 2934 H 274.011 2.06992 3.51594 0
M  V30 2935 H 272.686 3.01829 2.86133 0
M  V30 2936 H 271.263 1.29996 3.49507 0
M  V30 2937 N 273.449 -1.08991 1.13837 0
M  V30 2938 C 274.697 -1.80899 0.901098 0
M  V30 2939 C 275.018 -1.86356 -0.574134 0
M  V30 2940 O 274.288 -1.35235 -1.41733 0
M  V30 2941 H 272.868 -0.669966 0.330386 0
M  V30 2942 H 275.53 -1.318 1.43578 0
M  V30 2943 H 274.626 -2.83929 1.29578 0
M  V30 2944 N 274.927 -0.932562 -1.27047 0
M  V30 2945 C 276.173 -0.576412 -1.94436 0
M  V30 2946 C 276.506 0.880891 -1.73072 0
M  V30 2947 O 275.781 1.62905 -1.06264 0
M  V30 2948 C 276.064 -0.909031 -3.48437 0
M  V30 2949 C 275.917 -2.42044 -3.79123 0
M  V30 2950 C 277.236 -0.418341 -4.38107 0
M  V30 2951 H 274.355 -0.210888 -0.706184 0
M  V30 2952 H 276.997 -1.16522 -1.50075 0
M  V30 2953 H 275.147 -0.407947 -3.86352 0
M  V30 2954 H 276.819 -2.99359 -3.50973 0
M  V30 2955 H 275.062 -2.86758 -3.25503 0
M  V30 2956 H 275.733 -2.6037 -4.86736 0
M  V30 2957 H 278.209 -0.847856 -4.0737 0
M  V30 2958 H 277.085 -0.679981 -5.44672 0
M  V30 2959 H 277.346 0.681642 -4.36814 0
M  V30 2960 N 276.405 1.4127 -0.698611 0
M  V30 2961 C 277.821 1.55241 -0.370462 0
M  V30 2962 C 278.021 1.67351 1.12231 0
M  V30 2963 O 277.077 1.65363 1.90818 0
M  V30 2964 C 278.39 2.78997 -1.12165 0
M  V30 2965 C 279.938 2.92797 -1.1063 0
M  V30 2966 C 280.413 4.19445 -1.8393 0
M  V30 2967 N 281.904 4.26409 -1.80914 0
M  V30 2968 C 282.639 5.23271 -2.34467 0
M  V30 2969 N 282.135 6.26145 -2.96504 0
M  V30 2970 N 283.928 5.15232 -2.24706 0
M  V30 2971 H 276.079 1.31654 -1.66676 0
M  V30 2972 H 278.342 0.635393 -0.703548 0
M  V30 2973 H 278.048 2.76268 -2.17644 0
M  V30 2974 H 277.922 3.70606 -0.702209 0
M  V30 2975 H 280.309 2.95039 -0.0597713 0
M  V30 2976 H 280.39 2.02353 -1.56483 0
M  V30 2977 H 280.034 4.17964 -2.88563 0
M  V30 2978 H 279.964 5.08866 -1.35509 0
M  V30 2979 H 282.455 3.527 -1.35687 0
M  V30 2980 H 282.768 6.96451 -3.34927 0
M  V30 2981 H 281.113 6.26638 -3.00583 0
M  V30 2982 H 284.304 4.33789 -1.7591 0
M  V30 2983 H 284.477 5.90552 -2.66745 0
M  V30 2984 N 277.883 0.443576 1.51229 0
M  V30 2985 C 278.815 -0.400608 2.25672 0
M  V30 2986 C 279.828 -0.980945 1.29928 0
M  V30 2987 O 281.017 -0.874024 1.55638 0
M  V30 2988 C 278.117 -1.57304 3.00181 0
M  V30 2989 C 277.29 -1.11046 4.23069 0
M  V30 2990 C 276.349 -2.15374 4.80105 0
M  V30 2991 O 275.375 -1.74554 5.41774 0
M  V30 2992 N 276.577 -3.47922 4.64683 0
M  V30 2993 H 279.342 0.23745 2.98758 0
M  V30 2994 H 276.903 0.272809 1.59585 0
M  V30 2995 H 278.895 -2.26733 3.35223 0
M  V30 2996 H 277.465 -2.11632 2.30066 0
M  V30 2997 H 276.685 -0.243019 3.9345 0
M  V30 2998 H 277.973 -0.778888 5.02803 0
M  V30 2999 H 277.371 -3.83815 4.15575 0
M  V30 3000 H 275.928 -4.13228 5.0407 0
M  V30 3001 N 279.361 -1.56624 0.175154 0
M  V30 3002 C 280.291 -2.21155 -0.749195 0
M  V30 3003 C 281.272 -1.16836 -1.23626 0
M  V30 3004 O 282.457 -1.45277 -1.28873 0
M  V30 3005 C 279.587 -2.8553 -1.97711 0
M  V30 3006 C 278.541 -3.95921 -1.62575 0
M  V30 3007 C 277.867 -4.47365 -2.92864 0
M  V30 3008 C 279.167 -5.15323 -0.850838 0
M  V30 3009 H 280.861 -2.98653 -0.211295 0
M  V30 3010 H 278.407 -1.43651 -0.100188 0
M  V30 3011 H 280.36 -3.2935 -2.62881 0
M  V30 3012 H 279.084 -2.05406 -2.53921 0
M  V30 3013 H 277.743 -3.52762 -0.997719 0
M  V30 3014 H 277.391 -3.64027 -3.47122 0
M  V30 3015 H 277.091 -5.21839 -2.70106 0
M  V30 3016 H 278.615 -4.93873 -3.59056 0
M  V30 3017 H 280.029 -5.55812 -1.40521 0
M  V30 3018 H 278.426 -5.95739 -0.722154 0
M  V30 3019 H 279.496 -4.84661 0.152082 0
M  V30 3020 N 280.839 0.0985539 -1.57292 0
M  V30 3021 C 281.749 1.13824 -2.05137 0
M  V30 3022 C 282.765 1.44076 -0.975604 0
M  V30 3023 O 283.941 1.54786 -1.28853 0
M  V30 3024 C 281.006 2.43969 -2.46333 0
M  V30 3025 C 280.067 2.2093 -3.68087 0
M  V30 3026 C 279.3 3.44869 -4.0731 0
M  V30 3027 O 279.523 4.52972 -3.46659 0
M  V30 3028 O 278.457 3.34661 -5.00285 0
M  V30 3029 H 282.283 0.761881 -2.93988 0
M  V30 3030 H 279.868 0.310818 -1.46131 0
M  V30 3031 H 281.75 3.20609 -2.73473 0
M  V30 3032 H 280.425 2.81038 -1.60621 0
M  V30 3033 H 279.332 1.42081 -3.46069 0
M  V30 3034 H 280.665 1.88755 -4.54568 0
M  V30 3035 N 282.317 1.53212 0.369288 0
M  V30 3036 C 283.566 1.68436 1.10961 0
M  V30 3037 C 283.879 0.440738 1.9057 0
M  V30 3038 O 285.085 0.473446 2.6734 0
M  V30 3039 C 283.541 2.97744 2.0218 0
M  V30 3040 C 283.149 4.29355 1.279 0
M  V30 3041 C 284.893 3.22334 2.76226 0
M  V30 3042 C 282.8 5.49755 2.17999 0
M  V30 3043 H 281.73 0.627568 0.41794 0
M  V30 3044 H 284.381 1.79713 0.370884 0
M  V30 3045 H 282.763 2.8026 2.79768 0
M  V30 3046 H 283.937 4.57458 0.554007 0
M  V30 3047 H 282.252 4.11179 0.657311 0
M  V30 3048 H 284.849 4.09471 3.43857 0
M  V30 3049 H 285.192 2.38238 3.41392 0
M  V30 3050 H 285.725 3.40475 2.05723 0
M  V30 3051 H 282.464 6.36318 1.57417 0
M  V30 3052 H 281.984 5.25937 2.88359 0
M  V30 3053 H 283.663 5.84401 2.77641 0
M  V30 3054 N 283.795 -0.628877 1.44509 0
M  V30 3055 C 284.728 -1.75367 1.46019 0
M  V30 3056 C 285.706 -1.59444 0.318787 0
M  V30 3057 O 286.89 -1.81297 0.516099 0
M  V30 3058 C 284.017 -3.12965 1.29501 0
M  V30 3059 C 283.063 -3.47532 2.47233 0
M  V30 3060 S 283.896 -3.44758 4.09758 0
M  V30 3061 C 285.052 -4.84973 3.95667 0
M  V30 3062 H 285.285 -1.7382 2.41193 0
M  V30 3063 H 282.818 -0.803686 1.31834 0
M  V30 3064 H 284.776 -3.92367 1.20658 0
M  V30 3065 H 283.437 -3.12049 0.358341 0
M  V30 3066 H 282.63 -4.47664 2.31544 0
M  V30 3067 H 282.232 -2.75598 2.52828 0
M  V30 3068 H 284.524 -5.74255 3.59496 0
M  V30 3069 H 285.467 -5.05716 4.95638 0
M  V30 3070 H 285.875 -4.59653 3.27688 0
M  V30 3071 N 285.273 -1.31445 -0.869486 0
M  V30 3072 C 286.513 -1.22458 -1.63656 0
M  V30 3073 C 286.877 0.213846 -1.90805 0
M  V30 3074 O 288.078 0.427212 -2.65383 0
M  V30 3075 C 286.349 -2.04564 -2.93067 0
M  V30 3076 S 287.908 -2.12445 -3.83944 0
M  V30 3077 H 284.726 -0.436145 -0.561514 0
M  V30 3078 H 287.328 -1.66114 -1.03085 0
M  V30 3079 H 286.032 -3.0816 -2.71045 0
M  V30 3080 H 285.563 -1.6163 -3.58663 0
M  V30 3081 H 287.578 -1.26312 -4.79854 0
M  V30 3082 N 286.751 1.08385 -1.14413 0
M  V30 3083 C 287.991 1.8238 -0.922868 0
M  V30 3084 C 288.355 1.84225 0.540842 0
M  V30 3085 O 289.556 2.53985 0.880058 0
M  V30 3086 C 287.827 3.24048 -1.50757 0
M  V30 3087 S 289.386 4.14917 -1.4279 0
M  V30 3088 H 286.204 0.628524 -0.332384 0
M  V30 3089 H 288.806 1.30278 -1.45766 0
M  V30 3090 H 287.51 3.20288 -2.56601 0
M  V30 3091 H 287.041 3.81224 -0.971178 0
M  V30 3092 H 289.056 4.94473 -0.413582 0
M  V30 3093 N 288.23 0.939286 1.26551 0
M  V30 3094 C 289.477 0.585847 1.9384 0
M  V30 3095 C 289.805 -0.874784 1.73718 0
M  V30 3096 O 289.06 -1.64092 1.06642 0
M  V30 3097 C 289.359 0.872106 3.46596 0
M  V30 3098 C 289.025 2.31632 3.86856 0
M  V30 3099 C 287.687 2.71111 3.97558 0
M  V30 3100 C 290.039 3.25494 4.07066 0
M  V30 3101 C 287.367 4.03553 4.25866 0
M  V30 3102 C 289.719 4.57531 4.36862 0
M  V30 3103 C 288.383 4.96828 4.45778 0
M  V30 3104 H 287.653 0.214377 0.709312 0
M  V30 3105 H 290.3 1.18544 1.50398 0
M  V30 3106 H 288.605 0.18996 3.91339 0
M  V30 3107 H 290.302 0.577442 3.96821 0
M  V30 3108 H 286.892 2.00008 3.79071 0
M  V30 3109 H 291.076 2.9619 3.98227 0
M  V30 3110 H 286.332 4.33665 4.30981 0
M  V30 3111 H 290.506 5.30254 4.51446 0
M  V30 3112 H 288.133 5.99482 4.67468 0
M  V30 3113 N 289.708 -1.40897 0.706093 0
M  V30 3114 C 290.956 -2.00657 0.241054 0
M  V30 3115 C 291.277 -1.56241 -1.16678 0
M  V30 3116 O 290.547 -0.79765 -1.78926 0
M  V30 3117 H 289.127 -0.742018 0.0861308 0
M  V30 3118 H 291.789 -1.72372 0.909604 0
M  V30 3119 H 290.885 -3.10958 0.266705 0
M  V30 3120 N 291.186 -0.45159 -1.50991 0
M  V30 3121 C 292.426 0.109066 -2.04109 0
M  V30 3122 C 292.79 1.38716 -1.32747 0
M  V30 3123 O 293.991 2.02896 -1.76314 0
M  V30 3124 C 292.262 0.308354 -3.56067 0
M  V30 3125 S 293.821 0.830369 -4.30872 0
M  V30 3126 H 290.639 0.0251531 -0.710555 0
M  V30 3127 H 293.241 -0.614264 -1.85599 0
M  V30 3128 H 291.945 -0.627962 -4.05567 0
M  V30 3129 H 291.476 1.05836 -3.78896 0
M  V30 3130 H 293.491 2.10626 -4.49279 0
M  V30 3131 N 292.664 1.56529 -0.183458 0
M  V30 3132 C 293.597 2.14417 0.781052 0
M  V30 3133 C 294.575 1.07761 1.21763 0
M  V30 3134 O 295.759 1.35807 1.30724 0
M  V30 3135 C 292.886 2.69361 2.05335 0
M  V30 3136 C 291.932 3.885 1.75982 0
M  V30 3137 S 292.765 5.27568 0.918256 0
M  V30 3138 C 293.921 5.85926 2.20095 0
M  V30 3139 H 294.154 2.95893 0.2889 0
M  V30 3140 H 291.687 1.54368 0.0313844 0
M  V30 3141 H 293.645 3.01662 2.78406 0
M  V30 3142 H 292.306 1.87949 2.51663 0
M  V30 3143 H 291.499 4.25314 2.70415 0
M  V30 3144 H 291.101 3.57149 1.10999 0
M  V30 3145 H 293.393 5.99579 3.15453 0
M  V30 3146 H 294.336 6.82761 1.87731 0
M  V30 3147 H 294.744 5.14438 2.32409 0
M  V30 3148 N 294.142 -0.090211 1.57342 0
M  V30 3149 C 295.367 -0.810082 1.90925 0
M  V30 3150 C 295.792 -1.71248 0.778187 0
M  V30 3151 O 295.15 -1.79278 -0.269991 0
M  V30 3152 C 295.198 -1.59529 3.23393 0
M  V30 3153 O 294.302 -2.70461 3.11327 0
M  V30 3154 H 293.643 -0.222231 0.625707 0
M  V30 3155 H 296.173 -0.0639716 2.045 0
M  V30 3156 H 296.183 -1.97847 3.5682 0
M  V30 3157 H 294.858 -0.933055 4.05299 0
M  V30 3158 H 293.435 -2.35135 2.89423 0
M  V30 3159 N 295.62 -1.53406 -0.361157 0
M  V30 3160 C 296.866 -1.70054 -1.10496 0
M  V30 3161 C 297.199 -0.453278 -1.88836 0
M  V30 3162 O 296.474 0.5495 -1.86576 0
M  V30 3163 C 296.757 -2.95317 -2.06058 0
M  V30 3164 C 296.61 -4.3021 -1.31298 0
M  V30 3165 C 297.929 -3.16193 -3.06121 0
M  V30 3166 H 295.048 -0.618799 -0.400321 0
M  V30 3167 H 297.69 -1.86052 -0.385318 0
M  V30 3168 H 295.84 -2.81809 -2.67425 0
M  V30 3169 H 297.512 -4.55538 -0.726807 0
M  V30 3170 H 295.755 -4.29421 -0.614853 0
M  V30 3171 H 296.426 -5.14 -2.01265 0
M  V30 3172 H 298.902 -3.28916 -2.5486 0
M  V30 3173 H 297.778 -4.05266 -3.70204 0
M  V30 3174 H 298.039 -2.31676 -3.76535 0
M  V30 3175 N 297.098 0.621204 -1.44841 0
M  V30 3176 C 298.028 1.74366 -1.55303 0
M  V30 3177 C 299.009 1.65199 -0.405385 0
M  V30 3178 O 300.194 1.83807 -0.626787 0
M  V30 3179 C 297.324 3.12931 -1.50637 0
M  V30 3180 C 296.278 3.36896 -2.63979 0
M  V30 3181 C 295.604 4.75594 -2.44366 0
M  V30 3182 C 296.904 3.28483 -4.06074 0
M  V30 3183 H 298.598 1.65867 -2.49256 0
M  V30 3184 H 296.144 0.796558 -1.19962 0
M  V30 3185 H 298.097 3.9124 -1.56555 0
M  V30 3186 H 296.821 3.22237 -0.532057 0
M  V30 3187 H 295.48 2.60972 -2.57467 0
M  V30 3188 H 295.128 4.81616 -1.45105 0
M  V30 3189 H 294.828 4.92586 -3.20364 0
M  V30 3190 H 296.352 5.5612 -2.52117 0
M  V30 3191 H 297.766 3.96684 -4.13902 0
M  V30 3192 H 296.163 3.57008 -4.82354 0
M  V30 3193 H 297.233 2.26133 -4.28943 0
M  V30 3194 N 298.576 1.31904 0.862503 0
M  V30 3195 C 299.539 1.20131 1.95195 0
M  V30 3196 C 300.539 0.126409 1.60302 0
M  V30 3197 O 301.729 0.376234 1.70089 0
M  V30 3198 C 298.861 0.845691 3.30244 0
M  V30 3199 H 300.054 2.16943 2.07064 0
M  V30 3200 H 297.607 1.15622 1.05172 0
M  V30 3201 H 298.342 -0.120957 3.24074 0
M  V30 3202 H 298.127 1.62276 3.56944 0
M  V30 3203 H 299.617 0.787418 4.10109 0
M  V30 3204 N 300.054 -1.07777 1.14986 0
M  V30 3205 C 301.002 -2.16964 0.838406 0
M  V30 3206 C 301.996 -1.68372 -0.186386 0
M  V30 3207 O 303.202 -1.79951 -0.0418465 0
M  V30 3208 H 299.577 -0.708006 0.253439 0
M  V30 3209 H 301.548 -2.40454 1.76704 0
M  V30 3210 C 300.297 -3.4604 0.339335 0
M  V30 3211 H 299.62 -3.83813 1.11927 0
M  V30 3212 H 301.06 -4.23698 0.160021 0
M  V30 3213 C 299.519 -3.23569 -0.938325 0
M  V30 3214 O 300.049 -3.47752 -2.01077 0
M  V30 3215 N 298.255 -2.77079 -0.876117 0
M  V30 3216 H 297.802 -2.576 -0.00322037 0
M  V30 3217 H 297.76 -2.62422 -1.73153 0
M  V30 3218 N 301.532 -0.945985 -1.26051 0
M  V30 3219 C 302.762 -0.612136 -1.97323 0
M  V30 3220 C 303.17 0.818171 -1.70595 0
M  V30 3221 O 302.513 1.55777 -0.973613 0
M  V30 3222 C 302.575 -0.780347 -3.50929 0
M  V30 3223 C 302.239 -2.18619 -4.01317 0
M  V30 3224 C 303.236 -3.16209 -4.12683 0
M  V30 3225 C 300.921 -2.50805 -4.35203 0
M  V30 3226 C 302.915 -4.44085 -4.57238 0
M  V30 3227 C 300.602 -3.78912 -4.79446 0
M  V30 3228 C 301.6 -4.75365 -4.90425 0
M  V30 3229 O 301.288 -6.01191 -5.3369 0
M  V30 3230 H 301.02 -0.229134 -0.635982 0
M  V30 3231 H 303.574 -1.27036 -1.61404 0
M  V30 3232 H 301.804 -0.0649864 -3.86645 0
M  V30 3233 H 303.493 -0.448842 -4.03411 0
M  V30 3234 H 304.259 -2.92668 -3.86744 0
M  V30 3235 H 300.138 -1.76463 -4.2589 0
M  V30 3236 H 303.682 -5.19373 -4.65723 0
M  V30 3237 H 299.579 -4.02265 -5.0483 0
M  V30 3238 H 300.347 -6.04442 -5.51899 0
M  V30 3239 N 303.011 1.40521 -0.713556 0
M  V30 3240 C 304.258 2.00923 -0.25219 0
M  V30 3241 C 304.586 1.56571 1.15395 0
M  V30 3242 O 303.841 0.775874 1.79663 0
M  V30 3243 C 304.14 3.56317 -0.278 0
M  V30 3244 C 303.806 4.20246 -1.63415 0
M  V30 3245 C 302.468 4.37422 -2.00538 0
M  V30 3246 C 304.82 4.55923 -2.52554 0
M  V30 3247 C 302.148 4.87558 -3.2635 0
M  V30 3248 C 304.5 5.07458 -3.77716 0
M  V30 3249 C 303.164 5.22843 -4.14959 0
M  V30 3250 H 302.434 0.735231 -0.0922829 0
M  V30 3251 H 305.081 1.68161 -0.916188 0
M  V30 3252 H 303.386 3.88976 0.469567 0
M  V30 3253 H 305.083 4.00883 0.0967819 0
M  V30 3254 H 301.673 4.07263 -1.33546 0
M  V30 3255 H 305.857 4.42291 -2.25149 0
M  V30 3256 H 301.113 4.97654 -3.55176 0
M  V30 3257 H 305.287 5.34041 -4.4696 0
M  V30 3258 H 302.914 5.61454 -5.12516 0
M  V30 3259 N 304.489 0.459591 1.5075 0
M  V30 3260 C 305.735 -0.0994966 2.02556 0
M  V30 3261 C 306.068 -1.40399 1.3417 0
M  V30 3262 O 305.343 -1.88892 0.463683 0
M  V30 3263 C 305.626 -0.295242 3.58888 0
M  V30 3264 C 305.479 1.02947 4.37861 0
M  V30 3265 C 306.798 -1.05502 4.27267 0
M  V30 3266 H 303.917 -0.034686 0.736183 0
M  V30 3267 H 306.559 0.602938 1.8018 0
M  V30 3268 H 304.709 -0.893563 3.78084 0
M  V30 3269 H 306.381 1.66348 4.30263 0
M  V30 3270 H 304.624 1.62885 4.02058 0
M  V30 3271 H 305.295 0.846281 5.45474 0
M  V30 3272 H 307.771 -0.547993 4.12476 0
M  V30 3273 H 306.647 -1.16077 5.36486 0
M  V30 3274 H 306.908 -2.08875 3.89645 0
M  V30 3275 N 305.967 -1.56429 0.191757 0
M  V30 3276 C 307.214 -1.97485 -0.447891 0
M  V30 3277 C 307.542 -1.07852 -1.61859 0
M  V30 3278 O 306.797 -0.116903 -1.95351 0
M  V30 3279 C 307.096 -3.44449 -0.953384 0
M  V30 3280 C 306.762 -4.50781 0.103586 0
M  V30 3281 C 305.424 -4.79584 0.394023 0
M  V30 3282 C 307.776 -5.1471 0.819946 0
M  V30 3283 C 305.104 -5.69607 1.40585 0
M  V30 3284 C 307.456 -6.05827 1.8209 0
M  V30 3285 C 306.12 -6.32987 2.11857 0
M  V30 3286 H 305.39 -0.722648 -0.163895 0
M  V30 3287 H 308.037 -1.89322 0.28802 0
M  V30 3288 H 306.342 -3.49666 -1.76751 0
M  V30 3289 H 308.039 -3.73569 -1.45765 0
M  V30 3290 H 304.629 -4.28394 -0.132951 0
M  V30 3291 H 308.813 -4.92552 0.608789 0
M  V30 3292 H 304.069 -5.88926 1.64243 0
M  V30 3293 H 308.243 -6.54424 2.38123 0
M  V30 3294 H 305.87 -7.02544 2.90407 0
M  V30 3295 N 307.445 0.0818655 -1.57387 0
M  V30 3296 C 308.378 1.12986 -1.98266 0
M  V30 3297 C 309.356 1.38123 -0.857954 0
M  V30 3298 O 310.54 1.51663 -1.1194 0
M  V30 3299 C 307.667 2.47632 -2.31076 0
M  V30 3300 C 306.713 2.38693 -3.53452 0
M  V30 3301 S 307.546 1.79071 -5.04672 0
M  V30 3302 C 308.702 3.15316 -5.40673 0
M  V30 3303 H 308.935 0.781435 -2.86846 0
M  V30 3304 H 306.468 0.290034 -1.51651 0
M  V30 3305 H 308.426 3.25089 -2.50654 0
M  V30 3306 H 307.087 2.79638 -1.43043 0
M  V30 3307 H 306.28 3.37964 -3.73893 0
M  V30 3308 H 305.882 1.69369 -3.33452 0
M  V30 3309 H 308.174 4.11613 -5.38127 0
M  V30 3310 H 309.117 2.99664 -6.41566 0
M  V30 3311 H 309.525 3.15457 -4.68132 0
M  V30 3312 N 308.923 1.53595 0.353017 0
M  V30 3313 C 310.151 1.74311 1.1146 0
M  V30 3314 C 310.566 0.477854 1.82653 0
M  V30 3315 O 309.923 -0.549977 1.74016 0
M  V30 3316 C 309.974 2.91694 2.13534 0
M  V30 3317 O 309.695 4.13325 1.45238 0
M  V30 3318 C 311.196 3.24384 3.02142 0
M  V30 3319 H 308.416 0.582669 0.332773 0
M  V30 3320 H 310.96 2.00386 0.408107 0
M  V30 3321 H 309.115 2.67977 2.79763 0
M  V30 3322 H 309.529 4.79148 2.13349 0
M  V30 3323 H 311.003 4.09893 3.69718 0
M  V30 3324 H 311.48 2.40282 3.67643 0
M  V30 3325 H 312.086 3.50073 2.41514 0
M  V30 3326 N 310.401 -0.613514 1.45168 0
M  V30 3327 C 311.648 -1.37268 1.48875 0
M  V30 3328 C 311.976 -1.94077 0.128161 0
M  V30 3329 O 311.231 -1.75178 -0.872416 0
M  V30 3330 C 311.53 -2.54347 2.51083 0
M  V30 3331 C 311.196 -2.1572 3.95949 0
M  V30 3332 C 309.858 -2.04899 4.35396 0
M  V30 3333 C 312.21 -1.85485 4.87078 0
M  V30 3334 C 309.538 -1.62057 5.63875 0
M  V30 3335 C 311.89 -1.4413 6.15962 0
M  V30 3336 C 310.554 -1.31863 6.54346 0
M  V30 3337 H 309.824 -0.502299 0.544773 0
M  V30 3338 H 312.471 -0.694021 1.78481 0
M  V30 3339 H 310.776 -3.27524 2.15024 0
M  V30 3340 H 312.473 -3.12577 2.51191 0
M  V30 3341 H 309.063 -2.25066 3.64751 0
M  V30 3342 H 313.247 -1.92745 4.57343 0
M  V30 3343 H 308.503 -1.51177 5.92415 0
M  V30 3344 H 312.677 -1.19778 6.86022 0
M  V30 3345 H 310.304 -0.984392 7.538 0
M  V30 3346 N 311.879 -1.3236 -0.855495 0
M  V30 3347 C 313.126 -1.22872 -1.60962 0
M  V30 3348 C 313.454 0.209658 -1.93367 0
M  V30 3349 O 312.709 1.16243 -1.57436 0
M  V30 3350 C 313.008 -2.03275 -2.93963 0
M  V30 3351 C 312.674 -3.5264 -2.80991 0
M  V30 3352 C 311.336 -3.93364 -2.7716 0
M  V30 3353 C 313.688 -4.47626 -2.66983 0
M  V30 3354 C 311.016 -5.27319 -2.572 0
M  V30 3355 C 313.368 -5.81723 -2.48558 0
M  V30 3356 C 312.032 -6.2165 -2.4312 0
M  V30 3357 H 311.302 -0.44962 -0.589001 0
M  V30 3358 H 313.949 -1.63777 -0.992442 0
M  V30 3359 H 312.254 -1.55095 -3.59795 0
M  V30 3360 H 313.951 -1.93303 -3.51333 0
M  V30 3361 H 310.541 -3.20295 -2.84797 0
M  V30 3362 H 314.725 -4.17084 -2.68988 0
M  V30 3363 H 309.981 -5.57311 -2.51424 0
M  V30 3364 H 314.155 -6.5494 -2.36699 0
M  V30 3365 H 311.782 -7.25388 -2.27412 0
M  V30 3366 N 313.357 1.07166 -1.15556 0
M  V30 3367 C 314.768 1.6127 -0.940693 0
M  V30 3368 C 315.119 1.89251 0.517551 0
M  V30 3369 O 314.244 1.65937 1.38903 0
M  V30 3370 C 314.839 2.92993 -1.7012 0
M  V30 3371 C 313.398 3.43832 -1.53156 0
M  V30 3372 C 312.545 2.1786 -1.71558 0
M  V30 3373 H 315.496 0.90229 -1.30554 0
M  V30 3374 H 315.517 3.62007 -1.17181 0
M  V30 3375 H 315.029 2.72596 -2.76248 0
M  V30 3376 H 313.13 3.69307 -0.494294 0
M  V30 3377 H 313.243 4.19747 -2.30975 0
M  V30 3378 H 311.607 2.2765 -1.14225 0
M  V30 3379 H 312.39 1.99956 -2.79056 0
M  V30 3380 N 314.835 0.952656 1.25548 0
M  V30 3381 C 315.798 0.475794 2.24207 0
M  V30 3382 C 316.798 -0.419428 1.55234 0
M  V30 3383 O 317.988 -0.216994 1.72843 0
M  V30 3384 C 315.12 -0.312814 3.39462 0
M  V30 3385 H 316.313 1.34779 2.67908 0
M  V30 3386 H 313.866 0.735739 1.37901 0
M  V30 3387 H 314.601 -1.20257 3.01179 0
M  V30 3388 H 314.386 0.329404 3.90714 0
M  V30 3389 H 315.876 -0.635986 4.12729 0
M  V30 3390 N 316.313 -1.40141 0.720998 0
M  V30 3391 C 317.553 -2.02644 0.267335 0
M  V30 3392 C 317.917 -1.55948 -1.12001 0
M  V30 3393 O 319.118 -2.10552 -1.67097 0
M  V30 3394 C 317.389 -3.55679 0.350281 0
M  V30 3395 S 318.948 -4.38793 -0.0256004 0
M  V30 3396 H 315.766 -0.703105 0.105664 0
M  V30 3397 H 318.368 -1.71175 0.944416 0
M  V30 3398 H 317.072 -3.87157 1.36153 0
M  V30 3399 H 316.603 -3.91883 -0.345096 0
M  V30 3400 H 318.618 -4.803 -1.24604 0
M  V30 3401 N 317.792 -0.46758 -1.50504 0
M  V30 3402 C 319.038 0.0887532 -2.02606 0
M  V30 3403 C 319.371 1.39686 -1.34913 0
M  V30 3404 O 318.646 1.88644 -0.473694 0
M  V30 3405 C 318.929 0.276206 -3.59039 0
M  V30 3406 C 318.782 -1.05267 -4.37309 0
M  V30 3407 C 320.101 1.03235 -4.27821 0
M  V30 3408 H 317.22 0.0307814 -0.736357 0
M  V30 3409 H 319.862 -0.612485 -1.79857 0
M  V30 3410 H 318.012 0.8735 -3.78553 0
M  V30 3411 H 319.684 -1.68628 -4.29374 0
M  V30 3412 H 317.927 -1.65015 -4.01189 0
M  V30 3413 H 318.598 -0.875197 -5.45018 0
M  V30 3414 H 321.074 0.526111 -4.12761 0
M  V30 3415 H 319.95 1.1323 -5.37094 0
M  V30 3416 H 320.211 2.06806 -3.90748 0
M  V30 3417 N 319.27 1.56325 -0.20005 0
M  V30 3418 C 320.495 2.02548 0.44597 0
M  V30 3419 C 320.92 1.07922 1.5406 0
M  V30 3420 O 320.278 0.0635775 1.81188 0
M  V30 3421 C 320.326 3.47175 0.974761 0
M  V30 3422 O 319.43 3.55671 2.08739 0
M  V30 3423 H 318.771 0.655862 0.103638 0
M  V30 3424 H 321.301 2.02201 -0.312381 0
M  V30 3425 H 321.311 3.87067 1.2901 0
M  V30 3426 H 319.986 4.15538 0.17347 0
M  V30 3427 H 318.563 3.27657 1.78032 0
M  V30 3428 N 320.748 -0.0735177 1.57428 0
M  V30 3429 C 321.678 -1.0879 2.06608 0
M  V30 3430 C 322.659 -1.40473 0.959237 0
M  V30 3431 O 323.844 -1.5013 1.23185 0
M  V30 3432 C 320.974 -2.40183 2.50857 0
M  V30 3433 C 319.928 -2.22858 3.65402 0
M  V30 3434 C 319.254 -3.59619 3.957 0
M  V30 3435 C 320.554 -1.65123 4.95511 0
M  V30 3436 H 322.248 -0.678673 2.91607 0
M  V30 3437 H 319.794 -0.325013 1.40284 0
M  V30 3438 H 321.747 -3.11437 2.83874 0
M  V30 3439 H 320.471 -2.83083 1.62885 0
M  V30 3440 H 319.13 -1.54045 3.32664 0
M  V30 3441 H 318.778 -4.00086 3.04861 0
M  V30 3442 H 318.478 -3.48866 4.72828 0
M  V30 3443 H 320.002 -4.32306 4.31212 0
M  V30 3444 H 321.416 -2.26241 5.26771 0
M  V30 3445 H 319.813 -1.65071 5.7695 0
M  V30 3446 H 320.883 -0.612559 4.81015 0
M  V30 3447 N 322.226 -1.5378 -0.344866 0
M  V30 3448 C 323.472 -1.71216 -1.08687 0
M  V30 3449 C 323.805 -0.473281 -1.88345 0
M  V30 3450 O 323.08 0.52968 -1.87149 0
M  V30 3451 C 323.363 -2.97486 -2.02914 0
M  V30 3452 C 323.216 -4.31579 -1.26727 0
M  V30 3453 C 324.535 -3.19422 -3.0275 0
M  V30 3454 H 321.654 -0.62301 -0.393735 0
M  V30 3455 H 324.296 -1.8645 -0.365563 0
M  V30 3456 H 322.446 -2.84629 -2.64421 0
M  V30 3457 H 324.118 -4.56284 -0.67845 0
M  V30 3458 H 322.361 -4.30049 -0.569273 0
M  V30 3459 H 323.032 -5.16106 -1.95803 0
M  V30 3460 H 325.508 -3.316 -2.51357 0
M  V30 3461 H 324.384 -4.09169 -3.65885 0
M  V30 3462 H 324.645 -2.35656 -3.74057 0
M  V30 3463 N 323.704 0.605807 -1.45491 0
M  V30 3464 C 324.634 1.72709 -1.57143 0
M  V30 3465 C 325.615 1.6476 -0.422884 0
M  V30 3466 O 326.8 1.83132 -0.646247 0
M  V30 3467 C 323.93 3.11316 -1.53948 0
M  V30 3468 C 322.884 3.34077 -2.67537 0
M  V30 3469 C 322.21 4.72975 -2.49397 0
M  V30 3470 C 323.51 3.24158 -4.09535 0
M  V30 3471 H 325.204 1.63214 -2.51001 0
M  V30 3472 H 322.75 0.78379 -1.208 0
M  V30 3473 H 324.703 3.89557 -1.60696 0
M  V30 3474 H 323.427 3.21655 -0.566205 0
M  V30 3475 H 322.086 2.58227 -2.6022 0
M  V30 3476 H 321.734 4.8005 -1.50205 0
M  V30 3477 H 321.434 4.8916 -3.25571 0
M  V30 3478 H 322.958 5.53414 -2.58002 0
M  V30 3479 H 324.372 3.92271 -4.18086 0
M  V30 3480 H 322.769 3.51872 -4.86113 0
M  V30 3481 H 323.839 2.2157 -4.31317 0
M  V30 3482 N 325.182 1.32811 0.848464 0
M  V30 3483 C 326.092 1.24278 1.98978 0
M  V30 3484 C 327.108 0.155176 1.73307 0
M  V30 3485 O 328.284 0.376999 1.9784 0
M  V30 3486 C 325.349 0.972444 3.32783 0
M  V30 3487 C 324.41 2.14911 3.71634 0
M  V30 3488 C 323.643 1.89157 4.99054 0
M  V30 3489 O 323.866 0.837165 5.64223 0
M  V30 3490 O 322.8 2.75433 5.35183 0
M  V30 3491 H 326.626 2.20238 2.09115 0
M  V30 3492 H 324.211 1.12762 0.980052 0
M  V30 3493 H 326.093 0.838432 4.12975 0
M  V30 3494 H 324.768 0.043051 3.23671 0
M  V30 3495 H 323.675 2.33862 2.91992 0
M  V30 3496 H 325.008 3.06151 3.85399 0
M  V30 3497 N 326.66 -1.06551 1.16123 0
M  V30 3498 C 327.59 -2.15935 0.88851 0
M  V30 3499 C 328.571 -1.69306 -0.164135 0
M  V30 3500 O 329.756 -1.94193 -0.0167857 0
M  V30 3501 C 326.886 -3.45149 0.385942 0
M  V30 3502 C 325.84 -4.05271 1.3762 0
M  V30 3503 C 325.166 -5.29664 0.732137 0
M  V30 3504 C 326.466 -4.44355 2.74493 0
M  V30 3505 H 328.16 -2.39006 1.80323 0
M  V30 3506 H 325.706 -1.14866 0.868435 0
M  V30 3507 H 327.659 -4.21004 0.182647 0
M  V30 3508 H 326.383 -3.21689 -0.564274 0
M  V30 3509 H 325.042 -3.3147 1.56599 0
M  V30 3510 H 324.69 -5.02499 -0.224483 0
M  V30 3511 H 324.39 -5.70848 1.39307 0
M  V30 3512 H 325.914 -6.08218 0.538802 0
M  V30 3513 H 327.328 -5.11303 2.59311 0
M  V30 3514 H 325.725 -4.96515 3.37035 0
M  V30 3515 H 326.795 -3.55339 3.29943 0
M  V30 3516 N 328.138 -0.959301 -1.25041 0
M  V30 3517 C 329.363 -0.633507 -1.97488 0
M  V30 3518 C 329.788 0.788555 -1.70773 0
M  V30 3519 O 329.146 1.53394 -0.966431 0
M  V30 3520 C 329.194 -0.904057 -3.49083 0
M  V30 3521 O 328.298 0.0147939 -4.12397 0
M  V30 3522 H 327.639 -0.240368 -0.618966 0
M  V30 3523 H 330.169 -1.28717 -1.59038 0
M  V30 3524 H 330.179 -0.832203 -3.99423 0
M  V30 3525 H 328.854 -1.94048 -3.67856 0
M  V30 3526 H 327.431 -0.109664 -3.72739 0
M  V30 3527 N 329.616 1.39756 -0.72842 0
M  V30 3528 C 331.032 1.5442 -0.403308 0
M  V30 3529 C 331.232 1.69694 1.08656 0
M  V30 3530 O 330.288 1.69373 1.87267 0
M  V30 3531 C 331.601 2.76555 -1.18058 0
M  V30 3532 C 333.149 2.90384 -1.16815 0
M  V30 3533 C 333.624 4.15449 -1.92785 0
M  V30 3534 N 335.115 4.22475 -1.89918 0
M  V30 3535 C 335.85 5.1818 -2.45514 0
M  V30 3536 N 335.346 6.19714 -3.09719 0
M  V30 3537 N 337.139 5.1035 -2.35584 0
M  V30 3538 H 329.29 1.28089 -1.69431 0
M  V30 3539 H 331.553 0.620327 -0.716867 0
M  V30 3540 H 331.259 2.7159 -2.23455 0
M  V30 3541 H 331.133 3.69033 -0.780662 0
M  V30 3542 H 333.52 2.94846 -0.12234 0
M  V30 3543 H 333.601 1.98988 -1.6074 0
M  V30 3544 H 333.245 4.11749 -2.97364 0
M  V30 3545 H 333.175 5.05877 -1.46272 0
M  V30 3546 H 335.666 3.49743 -1.43138 0
M  V30 3547 H 335.979 6.8919 -3.49625 0
M  V30 3548 H 334.324 6.20121 -3.13807 0
M  V30 3549 H 337.515 4.2996 -1.85072 0
M  V30 3550 H 337.688 5.84761 -2.79211 0
M  V30 3551 N 331.094 0.475555 1.50254 0
M  V30 3552 C 332.004 -0.321501 2.32387 0
M  V30 3553 C 333.02 -0.991755 1.42969 0
M  V30 3554 O 334.196 -0.978747 1.76018 0
M  V30 3555 C 331.261 -1.38667 3.17762 0
M  V30 3556 C 330.322 -0.732538 4.23004 0
M  V30 3557 C 329.555 -1.74695 5.04299 0
M  V30 3558 O 329.778 -2.97399 4.86734 0
M  V30 3559 O 328.712 -1.31631 5.8733 0
M  V30 3560 H 332.538 0.350071 3.01676 0
M  V30 3561 H 330.123 0.237321 1.47503 0
M  V30 3562 H 332.005 -2.00354 3.70724 0
M  V30 3563 H 330.68 -2.04163 2.51196 0
M  V30 3564 H 329.587 -0.0765902 3.74022 0
M  V30 3565 H 330.92 -0.120452 4.92053 0
M  V30 3566 N 332.573 -1.56217 0.208337 0
M  V30 3567 C 333.798 -2.02782 -0.435222 0
M  V30 3568 C 334.223 -1.08738 -1.53485 0
M  V30 3569 O 333.581 -0.0731855 -1.81152 0
M  V30 3570 C 333.629 -3.47687 -0.956335 0
M  V30 3571 O 332.733 -3.56773 -2.06849 0
M  V30 3572 H 332.074 -0.656403 -0.100158 0
M  V30 3573 H 334.604 -2.02033 0.3231 0
M  V30 3574 H 334.614 -3.87745 -1.26955 0
M  V30 3575 H 333.289 -4.15624 -0.15143 0
M  V30 3576 H 331.866 -3.28597 -1.76292 0
M  V30 3577 N 334.051 0.0651679 -1.57465 0
M  V30 3578 C 335.467 0.420105 -1.53972 0
M  V30 3579 C 335.667 1.78782 -0.929474 0
M  V30 3580 O 334.723 2.46771 -0.534839 0
M  V30 3581 C 336.036 0.355084 -2.98596 0
M  V30 3582 C 337.584 0.434792 -3.09965 0
M  V30 3583 C 338.059 0.399609 -4.56253 0
M  V30 3584 N 339.55 0.459488 -4.60915 0
M  V30 3585 C 340.285 0.454584 -5.71595 0
M  V30 3586 N 339.781 0.404102 -6.9162 0
M  V30 3587 N 341.574 0.501635 -5.59857 0
M  V30 3588 H 333.725 -0.830328 -1.95498 0
M  V30 3589 H 335.988 -0.312244 -0.895102 0
M  V30 3590 H 335.694 -0.583357 -3.46828 0
M  V30 3591 H 335.568 1.16275 -3.58831 0
M  V30 3592 H 337.955 1.36366 -2.61703 0
M  V30 3593 H 338.036 -0.40157 -2.52628 0
M  V30 3594 H 337.68 -0.525436 -5.05175 0
M  V30 3595 H 337.61 1.25359 -5.11461 0
M  V30 3596 H 340.101 0.502482 -3.74544 0
M  V30 3597 H 340.414 0.404468 -7.71741 0
M  V30 3598 H 338.759 0.37069 -6.94011 0
M  V30 3599 H 341.95 0.538812 -4.64989 0
M  V30 3600 H 342.123 0.494345 -6.46112 0
M  V30 3601 N 335.529 1.53961 0.336706 0
M  V30 3602 C 336.439 1.85432 1.43708 0
M  V30 3603 C 337.455 0.745053 1.57242 0
M  V30 3604 O 338.631 1.03804 1.72588 0
M  V30 3605 C 335.696 2.06349 2.78605 0
M  V30 3606 C 334.757 3.30191 2.74358 0
M  V30 3607 C 333.99 3.50101 4.02822 0
M  V30 3608 O 334.213 2.7371 5.00439 0
M  V30 3609 O 333.147 4.43547 4.06878 0
M  V30 3610 H 336.973 2.78975 1.20028 0
M  V30 3611 H 334.558 1.39701 0.52952 0
M  V30 3612 H 336.44 2.21513 3.58483 0
M  V30 3613 H 335.115 1.15995 3.02203 0
M  V30 3614 H 334.022 3.20425 1.93078 0
M  V30 3615 H 335.355 4.2056 2.55715 0
M  V30 3616 N 337.007 -0.598083 1.45811 0
M  V30 3617 C 338.255 -1.35413 1.50026 0
M  V30 3618 C 338.576 -1.94444 0.147177 0
M  V30 3619 O 337.846 -1.77701 -0.824571 0
M  V30 3620 H 336.426 -0.502727 0.552517 0
M  V30 3621 H 339.088 -0.701606 1.81834 0
M  V30 3622 H 338.184 -2.16871 2.2444 0
M  V30 3623 N 338.485 -1.33259 -0.841409 0
M  V30 3624 C 339.901 -1.12538 -1.13169 0
M  V30 3625 C 340.101 0.0854037 -2.01319 0
M  V30 3626 O 339.157 0.766417 -2.40587 0
M  V30 3627 C 340.47 -2.41156 -1.79623 0
M  V30 3628 C 342.018 -2.47038 -1.922 0
M  V30 3629 C 342.493 -3.7561 -2.6207 0
M  V30 3630 N 343.984 -3.76667 -2.69585 0
M  V30 3631 C 344.719 -4.72861 -3.2433 0
M  V30 3632 N 344.215 -5.79428 -3.79783 0
M  V30 3633 N 346.008 -4.6034 -3.22558 0
M  V30 3634 H 338.159 -2.10868 -0.254676 0
M  V30 3635 H 340.422 -0.931615 -0.175493 0
M  V30 3636 H 340.128 -3.29747 -1.22311 0
M  V30 3637 H 340.002 -2.53114 -2.79666 0
M  V30 3638 H 342.389 -1.58898 -2.48667 0
M  V30 3639 H 342.47 -2.39022 -0.911148 0
M  V30 3640 H 342.114 -4.64131 -2.06263 0
M  V30 3641 H 342.044 -3.80902 -3.63622 0
M  V30 3642 H 344.535 -2.99648 -2.30259 0
M  V30 3643 H 344.848 -6.48867 -4.19752 0
M  V30 3644 H 343.193 -5.83166 -3.78078 0
M  V30 3645 H 346.384 -3.76244 -2.78492 0
M  V30 3646 H 346.557 -5.35478 -3.64921 0
M  V30 3647 N 339.963 1.05934 -1.16686 0
M  V30 3648 C 341.374 1.60263 -0.957745 0
M  V30 3649 C 341.725 1.89789 0.49745 0
M  V30 3650 O 340.85 1.67401 1.37135 0
M  V30 3651 C 341.445 2.91172 -1.73218 0
M  V30 3652 C 340.004 3.42188 -1.56794 0
M  V30 3653 C 339.151 2.16028 -1.73859 0
M  V30 3654 H 342.102 0.888392 -1.31504 0
M  V30 3655 H 342.123 3.60744 -1.21014 0
M  V30 3656 H 341.635 2.6965 -2.79124 0
M  V30 3657 H 339.736 3.68762 -0.533437 0
M  V30 3658 H 339.849 4.17273 -2.35414 0
M  V30 3659 H 338.213 2.26426 -1.16633 0
M  V30 3660 H 338.996 1.96985 -2.81161 0
M  V30 3661 N 341.441 0.965919 1.2453 0
M  V30 3662 C 342.69 0.622437 1.91856 0
M  V30 3663 C 343.003 -0.846006 1.76358 0
M  V30 3664 O 344.209 -1.29993 2.38357 0
M  V30 3665 C 342.665 1.0626 3.43856 0
M  V30 3666 C 342.273 2.55437 3.68043 0
M  V30 3667 C 344.017 0.792183 4.17043 0
M  V30 3668 C 341.924 2.93196 5.13605 0
M  V30 3669 H 340.854 0.229092 0.718354 0
M  V30 3670 H 343.505 1.17189 1.41206 0
M  V30 3671 H 341.887 0.441476 3.93531 0
M  V30 3672 H 343.061 3.22665 3.28974 0
M  V30 3673 H 341.376 2.8007 3.08139 0
M  V30 3674 H 343.973 1.05031 5.24283 0
M  V30 3675 H 344.316 -0.271584 4.15413 0
M  V30 3676 H 344.849 1.37419 3.73311 0
M  V30 3677 H 341.588 3.98636 5.20355 0
M  V30 3678 H 341.108 2.30651 5.53679 0
M  V30 3679 H 342.787 2.83004 5.81823 0
M  V30 3680 N 342.919 -1.39368 0.735821 0
M  V30 3681 C 344.165 -2.01272 0.293439 0
M  V30 3682 C 344.52 -1.57344 -1.10728 0
M  V30 3683 O 343.813 -0.792744 -1.74431 0
M  V30 3684 C 344.007 -3.5583 0.334651 0
M  V30 3685 C 343.836 -4.14764 1.73784 0
M  V30 3686 C 342.606 -4.47315 2.35026 0
M  V30 3687 C 344.804 -4.38246 2.69157 0
M  V30 3688 N 342.786 -4.91756 3.6749 0
M  V30 3689 C 344.157 -4.849 3.86357 0
M  V30 3690 C 346.212 -4.20315 2.66908 0
M  V30 3691 C 344.915 -5.15505 5.01645 0
M  V30 3692 C 346.941 -4.52033 3.8134 0
M  V30 3693 C 346.303 -4.98895 4.97276 0
M  V30 3694 H 342.402 -0.766756 0.153652 0
M  V30 3695 H 344.986 -1.69276 0.961967 0
M  V30 3696 H 343.157 -3.87212 -0.303527 0
M  V30 3697 H 344.889 -4.04503 -0.126358 0
M  V30 3698 H 341.644 -4.35143 1.86943 0
M  V30 3699 H 342.068 -5.18333 4.35499 0
M  V30 3700 H 346.71 -3.83287 1.78468 0
M  V30 3701 H 344.428 -5.51437 5.90713 0
M  V30 3702 H 348.014 -4.39781 3.80899 0
M  V30 3703 H 346.894 -5.22973 5.84353 0
M  V30 3704 N 344.397 -0.483516 -1.5 0
M  V30 3705 C 345.329 0.340634 -2.26655 0
M  V30 3706 C 346.342 0.946152 -1.32483 0
M  V30 3707 O 347.531 0.832453 -1.579 0
M  V30 3708 C 344.631 1.4929 -3.04246 0
M  V30 3709 C 343.804 0.997903 -4.25865 0
M  V30 3710 C 342.863 2.02569 -4.85646 0
M  V30 3711 O 341.889 1.60128 -5.46212 0
M  V30 3712 N 343.091 3.3548 -4.73744 0
M  V30 3713 H 345.856 -0.316577 -2.98023 0
M  V30 3714 H 343.417 -0.315024 -1.58806 0
M  V30 3715 H 345.409 2.17766 -3.41116 0
M  V30 3716 H 343.979 2.05458 -2.35597 0
M  V30 3717 H 343.199 0.138617 -3.93956 0
M  V30 3718 H 344.487 0.645305 -5.04691 0
M  V30 3719 H 343.885 3.72661 -4.25605 0
M  V30 3720 H 342.442 3.99718 -5.14848 0
M  V30 3721 N 345.875 1.56104 -0.216619 0
M  V30 3722 C 346.805 2.23063 0.690296 0
M  V30 3723 C 347.786 1.20072 1.20485 0
M  V30 3724 O 348.971 1.48643 1.24976 0
M  V30 3725 C 346.101 2.90672 1.90072 0
M  V30 3726 C 345.055 4.00092 1.5202 0
M  V30 3727 C 344.381 4.54972 2.80899 0
M  V30 3728 C 345.681 5.17398 0.71391 0
M  V30 3729 H 347.375 2.99109 0.132038 0
M  V30 3730 H 344.921 1.43866 0.0620664 0
M  V30 3731 H 346.874 3.36204 2.54057 0
M  V30 3732 H 345.598 2.12066 2.48386 0
M  V30 3733 H 344.257 3.55283 0.903839 0
M  V30 3734 H 343.905 3.73102 3.37348 0
M  V30 3735 H 343.605 5.28817 2.56176 0
M  V30 3736 H 345.129 5.0322 3.45836 0
M  V30 3737 H 346.543 5.59342 1.25735 0
M  V30 3738 H 344.94 5.97444 0.563951 0
M  V30 3739 H 346.01 4.84088 -0.280527 0
M  V30 3740 N 347.353 -0.0568162 1.57498 0
M  V30 3741 C 348.578 -0.769402 1.92601 0
M  V30 3742 C 349.003 -1.69559 0.814336 0
M  V30 3743 O 348.361 -1.79811 -0.231903 0
M  V30 3744 C 348.409 -1.52634 3.26704 0
M  V30 3745 O 347.513 -2.63797 3.16994 0
M  V30 3746 H 346.854 -0.208909 0.63028 0
M  V30 3747 H 349.384 -0.0205798 2.0459 0
M  V30 3748 H 349.394 -1.90234 3.60936 0
M  V30 3749 H 348.069 -0.846875 4.07186 0
M  V30 3750 H 346.646 -2.28943 2.94346 0
M  V30 3751 N 348.832 -1.54138 -0.328536 0
M  V30 3752 C 349.782 -1.79557 -1.4051 0
M  V30 3753 C 350.766 -0.651373 -1.47126 0
M  V30 3754 O 351.958 -0.911226 -1.51742 0
M  V30 3755 C 349.087 -2.02196 -2.77438 0
M  V30 3756 C 348.173 -3.22724 -2.75155 0
M  V30 3757 N 348.564 -4.43881 -2.42494 0
M  V30 3758 C 346.862 -3.24196 -3.06289 0
M  V30 3759 C 347.563 -5.25797 -2.48822 0
M  V30 3760 N 346.539 -4.62862 -2.8506 0
M  V30 3761 H 350.341 -2.70814 -1.1418 0
M  V30 3762 H 347.855 -1.53265 -0.536991 0
M  V30 3763 H 349.852 -2.18546 -3.55026 0
M  V30 3764 H 348.512 -1.12191 -3.04702 0
M  V30 3765 H 349.523 -4.70969 -2.15428 0
M  V30 3766 H 346.2 -2.44208 -3.38627 0
M  V30 3767 H 347.59 -6.32535 -2.26603 0
M  V30 3768 N 350.31 0.590341 -1.46126 0
M  V30 3769 C 351.557 1.34882 -1.5104 0
M  V30 3770 C 351.885 1.93849 -0.159021 0
M  V30 3771 O 351.14 1.76544 0.844436 0
M  V30 3772 C 351.439 2.5032 -2.55097 0
M  V30 3773 C 351.105 2.09394 -3.99331 0
M  V30 3774 C 349.767 1.97947 -4.38601 0
M  V30 3775 C 352.119 1.77712 -4.89967 0
M  V30 3776 C 349.447 1.53065 -5.66381 0
M  V30 3777 C 351.799 1.34312 -6.18177 0
M  V30 3778 C 350.463 1.21436 -6.56361 0
M  V30 3779 H 349.733 0.493568 -0.552695 0
M  V30 3780 H 352.38 0.665539 -1.79563 0
M  V30 3781 H 350.685 3.24062 -2.20207 0
M  V30 3782 H 352.382 3.08541 -2.56132 0
M  V30 3783 H 348.972 2.19235 -3.68285 0
M  V30 3784 H 353.156 1.85445 -4.60352 0
M  V30 3785 H 348.412 1.41733 -5.94745 0
M  V30 3786 H 352.586 1.08849 -6.87841 0
M  V30 3787 H 350.213 0.864345 -7.5527 0
M  V30 3788 N 351.788 1.33704 0.83433 0
M  V30 3789 C 352.751 1.24244 1.92603 0
M  V30 3790 C 353.751 0.160383 1.59998 0
M  V30 3791 O 354.941 0.412228 1.69252 0
M  V30 3792 C 352.073 0.91555 3.28376 0
M  V30 3793 H 353.266 2.21287 2.02416 0
M  V30 3794 H 350.819 1.17827 1.02696 0
M  V30 3795 H 351.554 -0.0521886 3.24258 0
M  V30 3796 H 351.339 1.69811 3.53422 0
M  V30 3797 H 352.829 0.874231 4.08347 0
M  V30 3798 N 353.266 -1.05314 1.17247 0
M  V30 3799 C 354.682 -1.30452 0.919473 0
M  V30 3800 C 354.882 -1.9703 -0.42209 0
M  V30 3801 O 353.938 -2.24311 -1.15935 0
M  V30 3802 C 355.251 -2.17551 2.07586 0
M  V30 3803 C 356.799 -2.30937 2.11275 0
M  V30 3804 C 357.274 -3.21396 3.26296 0
M  V30 3805 N 358.765 -3.28981 3.26076 0
M  V30 3806 C 359.5 -3.99095 4.11716 0
M  V30 3807 N 358.996 -4.71648 5.07465 0
M  V30 3808 N 360.789 -3.95247 3.9967 0
M  V30 3809 H 352.94 -0.604988 2.03602 0
M  V30 3810 H 355.203 -0.329368 0.888944 0
M  V30 3811 H 354.909 -1.75921 3.0454 0
M  V30 3812 H 354.783 -3.18182 2.02584 0
M  V30 3813 H 357.17 -2.71809 1.14907 0
M  V30 3814 H 357.251 -1.2994 2.20339 0
M  V30 3815 H 356.895 -2.81238 4.22927 0
M  V30 3816 H 356.825 -4.22395 3.14467 0
M  V30 3817 H 359.316 -2.77286 2.5675 0
M  V30 3818 H 359.629 -5.22705 5.6921 0
M  V30 3819 H 357.974 -4.70594 5.11435 0
M  V30 3820 H 361.165 -3.37691 3.24164 0
M  V30 3821 H 361.338 -4.4962 4.66632 0
M  V30 3822 N 354.744 -0.972509 -1.24016 0
M  V30 3823 C 355.99 -0.637978 -1.92504 0
M  V30 3824 C 356.323 0.825383 -1.75787 0
M  V30 3825 O 355.598 1.59442 -1.11393 0
M  V30 3826 C 355.881 -1.01942 -3.45369 0
M  V30 3827 C 355.734 -2.53983 -3.71231 0
M  V30 3828 C 357.053 -0.55751 -4.36555 0
M  V30 3829 H 354.172 -0.233248 -0.699117 0
M  V30 3830 H 356.814 -1.21238 -1.46292 0
M  V30 3831 H 354.964 -0.530656 -3.84859 0
M  V30 3832 H 356.636 -3.10374 -3.41271 0
M  V30 3833 H 354.879 -2.96968 -3.16216 0
M  V30 3834 H 355.55 -2.75723 -4.78206 0
M  V30 3835 H 358.026 -0.977029 -4.04467 0
M  V30 3836 H 356.902 -0.85292 -5.42233 0
M  V30 3837 H 357.163 0.542328 -4.38761 0
M  V30 3838 N 356.222 1.38976 -0.743202 0
M  V30 3839 C 357.152 2.33171 -0.123873 0
M  V30 3840 C 358.133 1.54336 0.71516 0
M  V30 3841 O 359.318 1.82696 0.658467 0
M  V30 3842 C 356.448 3.38474 0.777978 0
M  V30 3843 C 355.402 4.27979 0.0424758 0
M  V30 3844 C 354.728 5.2405 1.06189 0
M  V30 3845 C 356.028 5.10155 -1.1198 0
M  V30 3846 H 357.722 2.85213 -0.910709 0
M  V30 3847 H 355.268 1.37133 -0.439388 0
M  V30 3848 H 357.221 4.03328 1.22084 0
M  V30 3849 H 355.945 2.84891 1.59702 0
M  V30 3850 H 354.604 3.64616 -0.380853 0
M  V30 3851 H 354.252 4.66758 1.87472 0
M  V30 3852 H 353.952 5.84785 0.574485 0
M  V30 3853 H 355.476 5.9178 1.50428 0
M  V30 3854 H 356.89 5.68307 -0.75499 0
M  V30 3855 H 355.287 5.80073 -1.53738 0
M  V30 3856 H 356.357 4.44504 -1.93764 0
M  V30 3857 N 357.7 0.491464 1.49741 0
M  V30 3858 C 358.61 -0.296835 2.32715 0
M  V30 3859 C 359.626 -0.976536 1.44013 0
M  V30 3860 O 360.802 -0.960023 1.77047 0
M  V30 3861 C 357.867 -1.35288 3.19215 0
M  V30 3862 C 356.928 -0.687632 4.23757 0
M  V30 3863 C 356.161 -1.69336 5.06123 0
M  V30 3864 O 356.384 -2.92219 4.89861 0
M  V30 3865 O 355.318 -1.25394 5.88693 0
M  V30 3866 H 359.144 0.382048 3.01287 0
M  V30 3867 H 356.729 0.252953 1.47243 0
M  V30 3868 H 358.611 -1.96411 3.72828 0
M  V30 3869 H 357.286 -2.01487 2.53347 0
M  V30 3870 H 356.193 -0.0369159 3.74082 0
M  V30 3871 H 357.526 -0.0682566 4.92153 0
M  V30 3872 N 359.178 -1.55987 0.224894 0
M  V30 3873 C 360.088 -2.24066 -0.69511 0
M  V30 3874 C 361.104 -1.24939 -1.21104 0
M  V30 3875 O 362.28 -1.5776 -1.25195 0
M  V30 3876 C 359.345 -2.90983 -1.88493 0
M  V30 3877 C 358.406 -4.05462 -1.41064 0
M  V30 3878 C 357.639 -4.69179 -2.54375 0
M  V30 3879 O 357.862 -4.31895 -3.72589 0
M  V30 3880 O 356.796 -5.58108 -2.25386 0
M  V30 3881 H 360.622 -3.03353 -0.145149 0
M  V30 3882 H 358.207 -1.49399 -0.00569476 0
M  V30 3883 H 360.089 -3.33209 -2.57972 0
M  V30 3884 H 358.764 -2.14653 -2.42293 0
M  V30 3885 H 357.671 -3.67798 -0.683774 0
M  V30 3886 H 359.004 -4.83545 -0.918985 0
M  V30 3887 N 360.656 0.0484629 -1.57525 0
M  V30 3888 C 361.566 1.07241 -2.08654 0
M  V30 3889 C 362.582 1.409 -1.02095 0
M  V30 3890 O 363.758 1.50609 -1.33712 0
M  V30 3891 C 360.823 2.36008 -2.5397 0
M  V30 3892 C 359.884 2.09108 -3.7493 0
M  V30 3893 C 359.117 3.31736 -4.18075 0
M  V30 3894 O 359.34 4.41714 -3.60895 0
M  V30 3895 O 358.274 3.18576 -5.10679 0
M  V30 3896 H 362.1 0.667965 -2.96263 0
M  V30 3897 H 359.685 0.26417 -1.47046 0
M  V30 3898 H 361.567 3.11747 -2.83535 0
M  V30 3899 H 360.242 2.75786 -1.69481 0
M  V30 3900 H 359.149 1.31 -3.50414 0
M  V30 3901 H 360.482 1.74198 -4.60343 0
M  V30 3902 N 362.134 1.5431 0.320358 0
M  V30 3903 C 363.044 1.86946 1.41734 0
M  V30 3904 C 364.06 0.761689 1.56443 0
M  V30 3905 O 365.236 1.05629 1.71477 0
M  V30 3906 C 362.301 2.09293 2.76401 0
M  V30 3907 C 361.362 3.33082 2.70841 0
M  V30 3908 C 360.595 3.54353 3.99086 0
M  V30 3909 O 360.818 2.79002 4.97508 0
M  V30 3910 O 359.752 4.47838 4.0215 0
M  V30 3911 H 363.578 2.80232 1.17062 0
M  V30 3912 H 361.163 1.40255 0.514673 0
M  V30 3913 H 363.045 2.25303 3.56113 0
M  V30 3914 H 361.72 1.19194 3.00956 0
M  V30 3915 H 360.627 3.22454 1.89668 0
M  V30 3916 H 361.96 4.23249 2.5124 0
M  V30 3917 N 363.613 -0.582584 1.46437 0
M  V30 3918 C 364.561 -1.71272 1.5738 0
M  V30 3919 C 365.555 -1.63524 0.44229 0
M  V30 3920 O 366.761 -1.69016 0.619166 0
M  V30 3921 H 363.136 -0.566273 0.494813 0
M  V30 3922 H 365.107 -1.59174 2.52401 0
M  V30 3923 C 363.856 -3.09658 1.58136 0
M  V30 3924 H 363.179 -3.16291 2.44541 0
M  V30 3925 H 364.619 -3.88494 1.69847 0
M  V30 3926 C 363.078 -3.3547 0.310026 0
M  V30 3927 O 363.608 -3.97199 -0.599683 0
M  V30 3928 N 361.814 -2.89925 0.197901 0
M  V30 3929 H 361.361 -2.39873 0.93909 0
M  V30 3930 H 361.319 -3.07568 -0.65185 0
M  V30 3931 N 365.091 -1.34144 -0.827227 0
M  V30 3932 C 366.038 -1.25364 -1.93785 0
M  V30 3933 C 367.008 -0.129774 -1.65592 0
M  V30 3934 O 368.193 -0.310024 -1.88264 0
M  V30 3935 C 365.333 -1.01064 -3.2997 0
M  V30 3936 C 364.446 -2.22185 -3.70484 0
M  V30 3937 C 363.581 -1.91203 -4.95595 0
M  V30 3938 C 362.62 -3.08491 -5.28677 0
M  V30 3939 N 361.757 -2.77421 -6.44967 0
M  V30 3940 H 366.597 -2.20347 -2.00627 0
M  V30 3941 H 364.134 -1.09558 -0.981608 0
M  V30 3942 H 366.092 -0.850139 -4.08446 0
M  V30 3943 H 364.722 -0.0975026 -3.22653 0
M  V30 3944 H 363.774 -2.4917 -2.87434 0
M  V30 3945 H 365.086 -3.0983 -3.90905 0
M  V30 3946 H 364.24 -1.71864 -5.81848 0
M  V30 3947 H 362.979 -1.00812 -4.77167 0
M  V30 3948 H 361.984 -3.28431 -4.40923 0
M  V30 3949 H 363.209 -3.99655 -5.49047 0
M  V30 3950 H 361.155 -1.89601 -6.28003 0
M  V30 3951 H 361.072 -3.58598 -6.6554 0
M  V30 3952 H 362.34 -2.61577 -7.34301 0
M  V30 3953 N 366.569 1.04691 -1.17803 0
M  V30 3954 C 367.98 1.59238 -0.974689 0
M  V30 3955 C 368.331 1.90306 0.477292 0
M  V30 3956 O 367.456 1.68846 1.35352 0
M  V30 3957 C 368.051 2.89318 -1.76296 0
M  V30 3958 C 366.61 3.40506 -1.60414 0
M  V30 3959 C 365.757 2.14172 -1.76141 0
M  V30 3960 H 368.708 0.874395 -1.32439 0
M  V30 3961 H 368.729 3.5944 -1.24833 0
M  V30 3962 H 368.241 2.66675 -2.81968 0
M  V30 3963 H 366.342 3.68175 -0.572519 0
M  V30 3964 H 366.455 4.14753 -2.39827 0
M  V30 3965 H 364.819 2.25176 -1.19028 0
M  V30 3966 H 365.602 1.93992 -2.83235 0
M  V30 3967 N 368.047 0.979072 1.23499 0
M  V30 3968 C 368.995 0.510604 2.26926 0
M  V30 3969 C 369.989 -0.431691 1.63807 0
M  V30 3970 O 371.195 -0.30573 1.77385 0
M  V30 3971 H 367.57 0.146688 0.737554 0
M  V30 3972 H 369.541 1.39466 2.63803 0
M  V30 3973 C 368.29 -0.172658 3.47271 0
M  V30 3974 H 367.613 0.543331 3.96091 0
M  V30 3975 H 369.053 -0.464101 4.21452 0
M  V30 3976 C 367.512 -1.40345 3.06276 0
M  V30 3977 O 368.042 -2.49978 3.14442 0
M  V30 3978 N 366.248 -1.27362 2.61203 0
M  V30 3979 H 365.795 -0.381584 2.54758 0
M  V30 3980 H 365.753 -2.09822 2.34141 0
M  V30 3981 N 369.525 -1.3858 0.750561 0
M  V30 3982 C 370.936 -1.82927 0.373438 0
M  V30 3983 C 371.287 -1.62634 -1.09748 0
M  V30 3984 O 370.412 -1.12588 -1.84805 0
M  V30 3985 C 371.007 -3.32088 0.671029 0
M  V30 3986 C 369.566 -3.74795 0.34722 0
M  V30 3987 C 368.713 -2.61391 0.92575 0
M  V30 3988 H 371.664 -1.27351 0.946958 0
M  V30 3989 H 371.685 -3.80465 -0.0518269 0
M  V30 3990 H 371.197 -3.46826 1.74164 0
M  V30 3991 H 369.298 -3.65638 -0.716933 0
M  V30 3992 H 369.411 -4.71667 0.840656 0
M  V30 3993 H 367.775 -2.52265 0.351327 0
M  V30 3994 H 368.558 -2.78929 2.00133 0
M  V30 3995 N 371.003 -0.499398 -1.49478 0
M  V30 3996 C 372.249 0.0457576 -2.02748 0
M  V30 3997 C 372.582 1.36793 -1.37846 0
M  V30 3998 O 371.857 1.87596 -0.513601 0
M  V30 3999 C 372.14 0.199986 -3.59544 0
M  V30 4000 C 371.993 -1.1452 -4.34977 0
M  V30 4001 C 373.312 0.94137 -4.29914 0
M  V30 4002 H 370.431 0.0151552 -0.736844 0
M  V30 4003 H 373.073 -0.650498 -1.78518 0
M  V30 4004 H 371.223 0.793007 -3.8032 0
M  V30 4005 H 372.895 -1.77697 -4.25701 0
M  V30 4006 H 371.138 -1.73488 -3.97598 0
M  V30 4007 H 371.809 -0.990607 -5.43039 0
M  V30 4008 H 374.285 0.43844 -4.13784 0
M  V30 4009 H 373.161 1.01812 -5.39375 0
M  V30 4010 H 373.422 1.98471 -3.95046 0
M  V30 4011 N 372.481 1.55866 -0.233164 0
M  V30 4012 C 373.709 2.02998 0.399905 0
M  V30 4013 C 374.124 1.11274 1.52524 0
M  V30 4014 O 373.481 0.124528 1.82075 0
M  V30 4015 C 373.532 3.4958 0.920639 0
M  V30 4016 O 373.253 4.37808 -0.159834 0
M  V30 4017 C 374.754 4.12411 1.62578 0
M  V30 4018 H 371.974 0.664006 0.0966281 0
M  V30 4019 H 374.518 2.0143 -0.353013 0
M  V30 4020 H 372.673 3.51727 1.62379 0
M  V30 4021 H 373.087 5.23981 0.23337 0
M  V30 4022 H 374.561 5.16711 1.94201 0
M  V30 4023 H 375.038 3.5809 2.54299 0
M  V30 4024 H 375.644 4.14148 0.967553 0
M  V30 4025 N 373.959 -0.0401083 1.57549 0
M  V30 4026 C 374.891 -1.07149 2.02612 0
M  V30 4027 C 375.904 -1.33126 0.937085 0
M  V30 4028 O 377.093 -1.30808 1.21456 0
M  V30 4029 C 374.193 -2.41561 2.37701 0
M  V30 4030 C 373.366 -2.35096 3.68848 0
M  V30 4031 C 372.425 -3.51867 3.91249 0
M  V30 4032 O 371.451 -3.3186 4.62447 0
M  V30 4033 N 372.653 -4.73351 3.36035 0
M  V30 4034 H 375.418 -0.687485 2.91708 0
M  V30 4035 H 372.979 -0.228248 1.60283 0
M  V30 4036 H 374.971 -3.18379 2.49833 0
M  V30 4037 H 373.541 -2.71846 1.54332 0
M  V30 4038 H 372.761 -1.4345 3.67173 0
M  V30 4039 H 374.049 -2.27908 4.54901 0
M  V30 4040 H 373.447 -4.92507 2.78304 0
M  V30 4041 H 372.004 -5.47572 3.53565 0
M  V30 4042 N 375.437 -1.54477 -0.31217 0
M  V30 4043 C 376.853 -1.45442 -0.657185 0
M  V30 4044 C 377.053 -0.63653 -1.91182 0
M  V30 4045 O 376.109 -0.139815 -2.52113 0
M  V30 4046 C 377.422 -2.89287 -0.82058 0
M  V30 4047 C 378.97 -2.9926 -0.917188 0
M  V30 4048 C 379.445 -4.44279 -1.11267 0
M  V30 4049 N 380.936 -4.4794 -1.17914 0
M  V30 4050 C 381.671 -5.57318 -1.34848 0
M  V30 4051 N 381.167 -6.76642 -1.48752 0
M  V30 4052 N 382.96 -5.44986 -1.37647 0
M  V30 4053 H 375.111 -2.06129 0.512313 0
M  V30 4054 H 377.374 -0.933088 0.167485 0
M  V30 4055 H 377.08 -3.51687 0.0302604 0
M  V30 4056 H 376.954 -3.36061 -1.71298 0
M  V30 4057 H 379.341 -2.36981 -1.75852 0
M  V30 4058 H 379.422 -2.558 -0.00101257 0
M  V30 4059 H 379.066 -5.07149 -0.27614 0
M  V30 4060 H 378.996 -4.85359 -2.04289 0
M  V30 4061 H 381.487 -3.61969 -1.08567 0
M  V30 4062 H 381.8 -7.55758 -1.61397 0
M  V30 4063 H 380.145 -6.79529 -1.45828 0
M  V30 4064 H 383.336 -4.50715 -1.26388 0
M  V30 4065 H 383.509 -6.3028 -1.50501 0
M  V30 4066 N 376.915 0.57481 -1.46744 0
M  V30 4067 C 378.161 1.3347 -1.52688 0
M  V30 4068 C 378.494 1.93353 -0.181229 0
M  V30 4069 O 377.769 1.76912 0.808237 0
M  V30 4070 C 378.052 2.45811 -2.63152 0
M  V30 4071 C 377.905 1.90912 -4.07275 0
M  V30 4072 C 379.224 3.47822 -2.69644 0
M  V30 4073 H 376.343 0.483935 -0.555856 0
M  V30 4074 H 378.985 0.644968 -1.78718 0
M  V30 4075 H 377.135 3.04646 -2.41088 0
M  V30 4076 H 378.807 1.36473 -4.4065 0
M  V30 4077 H 377.05 1.21691 -4.16382 0
M  V30 4078 H 377.721 2.72042 -4.80309 0
M  V30 4079 H 380.197 2.9888 -2.895 0
M  V30 4080 H 379.073 4.23876 -3.48742 0
M  V30 4081 H 379.334 4.05555 -1.76005 0
M  V30 4082 N 378.394 1.34581 0.820102 0
M  V30 4083 C 379.341 1.2639 1.93117 0
M  V30 4084 C 380.311 0.138554 1.65521 0
M  V30 4085 O 381.496 0.320004 1.88097 0
M  V30 4086 C 378.636 1.02812 3.29429 0
M  V30 4087 C 377.749 2.24146 3.693 0
M  V30 4088 C 376.884 1.93829 4.94574 0
M  V30 4089 C 375.923 3.1129 5.27034 0
M  V30 4090 N 375.06 2.80838 6.43486 0
M  V30 4091 H 379.9 2.21408 1.99455 0
M  V30 4092 H 377.437 1.10077 0.975784 0
M  V30 4093 H 379.395 0.871788 4.0799 0
M  V30 4094 H 378.025 0.114612 3.22596 0
M  V30 4095 H 377.077 2.50691 2.86109 0
M  V30 4096 H 378.389 3.11899 3.89257 0
M  V30 4097 H 377.543 1.74948 5.80929 0
M  V30 4098 H 376.282 1.03341 4.76626 0
M  V30 4099 H 375.287 3.30764 4.39175 0
M  V30 4100 H 376.512 4.02561 5.4692 0
M  V30 4101 H 374.458 1.92929 6.26988 0
M  V30 4102 H 374.375 3.62123 6.63629 0
M  V30 4103 H 375.643 2.65467 7.32903 0
M  V30 4104 N 379.872 -1.04064 1.18357 0
M  V30 4105 C 380.805 -2.11618 0.854 0
M  V30 4106 C 381.783 -1.61555 -0.184043 0
M  V30 4107 O 382.967 -1.88395 -0.0630048 0
M  V30 4108 C 380.094 -3.37574 0.27597 0
M  V30 4109 C 379.14 -4.06485 1.2912 0
M  V30 4110 S 379.973 -4.53543 2.84709 0
M  V30 4111 C 381.129 -5.82732 2.28417 0
M  V30 4112 H 381.362 -2.39247 1.76488 0
M  V30 4113 H 378.895 -1.16832 1.00944 0
M  V30 4114 H 380.853 -4.10468 -0.051026 0
M  V30 4115 H 379.514 -3.0806 -0.613028 0
M  V30 4116 H 378.707 -4.97024 0.835633 0
M  V30 4117 H 378.309 -3.39708 1.56443 0
M  V30 4118 H 380.601 -6.56677 1.66677 0
M  V30 4119 H 381.544 -6.33052 3.17256 0
M  V30 4120 H 381.952 -5.37838 1.71436 0
M  V30 4121 N 381.35 -0.985608 -1.22978 0
M  V30 4122 C 382.599 -0.652881 -1.90841 0
M  V30 4123 C 382.912 0.817842 -1.77681 0
M  V30 4124 O 384.118 1.26185 -2.40395 0
M  V30 4125 C 382.574 -1.11717 -3.42122 0
M  V30 4126 C 382.182 -2.6126 -3.63933 0
M  V30 4127 C 383.926 -0.85843 -4.1573 0
M  V30 4128 C 381.833 -3.0133 -5.08876 0
M  V30 4129 H 380.763 -0.240491 -0.714619 0
M  V30 4130 H 383.414 -1.1942 -1.39324 0
M  V30 4131 H 381.796 -0.504027 -3.92779 0
M  V30 4132 H 382.97 -3.27858 -3.23799 0
M  V30 4133 H 381.285 -2.84937 -3.03644 0
M  V30 4134 H 383.882 -1.13359 -5.22546 0
M  V30 4135 H 384.225 0.205461 -4.15793 0
M  V30 4136 H 384.758 -1.43341 -3.71077 0
M  V30 4137 H 381.497 -4.06864 -5.13947 0
M  V30 4138 H 381.017 -2.3943 -5.49939 0
M  V30 4139 H 382.696 -2.92224 -5.77247 0
M  V30 4140 N 382.828 1.3818 -0.7579 0
M  V30 4141 C 383.761 2.28055 -0.0814093 0
M  V30 4142 C 384.739 1.45603 0.723779 0
M  V30 4143 O 385.923 1.74961 0.701491 0
M  V30 4144 C 383.05 3.2676 0.891394 0
M  V30 4145 C 382.096 4.26153 0.171909 0
M  V30 4146 S 382.929 5.23434 -1.13035 0
M  V30 4147 C 384.085 6.25694 -0.160727 0
M  V30 4148 H 384.318 2.85082 -0.84353 0
M  V30 4149 H 381.851 1.44246 -0.550671 0
M  V30 4150 H 383.809 3.8414 1.44731 0
M  V30 4151 H 382.47 2.68706 1.62652 0
M  V30 4152 H 381.663 4.95738 0.908843 0
M  V30 4153 H 381.265 3.72691 -0.312606 0
M  V30 4154 H 383.557 6.74161 0.671773 0
M  V30 4155 H 384.5 7.03285 -0.824353 0
M  V30 4156 H 384.908 5.64064 0.221892 0
M  V30 4157 N 384.306 0.507319 1.49211 0
M  V30 4158 C 385.531 -0.033725 2.07373 0
M  V30 4159 C 385.956 -1.29485 1.36437 0
M  V30 4160 O 385.314 -1.76294 0.423087 0
M  V30 4161 C 385.362 -0.263945 3.59633 0
M  V30 4162 O 384.466 -1.33737 3.90113 0
M  V30 4163 H 383.807 0.0290331 0.663365 0
M  V30 4164 H 386.337 0.708749 1.91932 0
M  V30 4165 H 386.347 -0.493536 4.05004 0
M  V30 4166 H 385.022 0.657424 4.10671 0
M  V30 4167 H 383.599 -1.09224 3.56545 0
M  V30 4168 N 385.784 -1.5574 0.241426 0
M  V30 4169 C 386.714 -2.24133 -0.654722 0
M  V30 4170 C 387.695 -1.21974 -1.1856 0
M  V30 4171 O 388.88 -1.50612 -1.22595 0
M  V30 4172 C 386.01 -2.93659 -1.85423 0
M  V30 4173 C 384.964 -4.0246 -1.45636 0
M  V30 4174 C 384.29 -4.59383 -2.73626 0
M  V30 4175 C 385.59 -5.18468 -0.631506 0
M  V30 4176 H 387.284 -2.99281 -0.0844353 0
M  V30 4177 H 384.83 -1.43947 -0.0391707 0
M  V30 4178 H 386.783 -3.40203 -2.48676 0
M  V30 4179 H 385.507 -2.15991 -2.44981 0
M  V30 4180 H 384.166 -3.56676 -0.847202 0
M  V30 4181 H 383.814 -3.78422 -3.3137 0
M  V30 4182 H 383.514 -5.32826 -2.4773 0
M  V30 4183 H 385.038 -5.08658 -3.37786 0
M  V30 4184 H 386.452 -5.61272 -1.1682 0
M  V30 4185 H 384.849 -5.98266 -0.468831 0
M  V30 4186 H 385.919 -4.8358 0.357506 0
M  V30 4187 N 387.262 0.0317525 -1.57568 0
M  V30 4188 C 388.51 0.721676 -1.88776 0
M  V30 4189 C 388.831 1.76039 -0.838772 0
M  V30 4190 O 388.101 1.95482 0.127935 0
M  V30 4191 H 386.681 0.269534 -0.696678 0
M  V30 4192 H 389.343 -0.00165879 -1.949 0
M  V30 4193 H 388.439 1.21293 -2.87566 0
M  V30 4194 N 388.74 1.54641 0.303973 0
M  V30 4195 C 389.67 1.88386 1.3796 0
M  V30 4196 C 390.651 0.742485 1.5304 0
M  V30 4197 O 391.836 0.997959 1.66597 0
M  V30 4198 C 388.966 2.12854 2.74427 0
M  V30 4199 C 387.92 3.28702 2.74115 0
M  V30 4200 C 387.246 3.38582 4.13844 0
M  V30 4201 C 388.546 4.65881 2.3612 0
M  V30 4202 H 390.24 2.78474 1.09966 0
M  V30 4203 H 387.786 1.33988 0.527556 0
M  V30 4204 H 389.739 2.35047 3.49758 0
M  V30 4205 H 388.463 1.19535 3.03939 0
M  V30 4206 H 387.122 3.06428 2.0124 0
M  V30 4207 H 386.77 2.42784 4.40528 0
M  V30 4208 H 386.47 4.16453 4.14537 0
M  V30 4209 H 387.994 3.63031 4.90959 0
M  V30 4210 H 389.408 4.87823 3.01167 0
M  V30 4211 H 387.805 5.46444 2.48031 0
M  V30 4212 H 388.875 4.66799 1.3125 0
M  V30 4213 N 390.218 -0.567019 1.47046 0
M  V30 4214 C 391.464 -1.32658 1.53394 0
M  V30 4215 C 391.797 -1.93254 0.19148 0
M  V30 4216 O 391.072 -1.77338 -0.798844 0
M  V30 4217 C 391.355 -2.44412 2.64452 0
M  V30 4218 C 391.208 -1.88749 4.08282 0
M  V30 4219 C 392.527 -3.46387 2.71485 0
M  V30 4220 H 389.646 -0.48098 0.558415 0
M  V30 4221 H 392.288 -0.635481 1.79058 0
M  V30 4222 H 390.438 -3.03363 2.427 0
M  V30 4223 H 392.11 -1.34134 4.41368 0
M  V30 4224 H 390.353 -1.19481 4.17021 0
M  V30 4225 H 391.024 -2.69491 4.81745 0
M  V30 4226 H 393.5 -2.9734 2.91081 0
M  V30 4227 H 392.376 -4.2202 3.50985 0
M  V30 4228 H 392.637 -4.04616 1.78153 0
M  V30 4229 N 391.696 -1.35014 -0.812953 0
M  V30 4230 C 392.626 -1.30069 -1.93919 0
M  V30 4231 C 393.607 -0.176275 -1.69184 0
M  V30 4232 O 394.792 -0.370227 -1.90638 0
M  V30 4233 C 391.922 -1.06547 -3.30552 0
M  V30 4234 C 390.876 -2.15561 -3.69753 0
M  V30 4235 C 390.202 -1.77214 -5.04479 0
M  V30 4236 C 391.502 -3.57476 -3.808 0
M  V30 4237 H 393.196 -2.24303 -1.98314 0
M  V30 4238 H 390.742 -1.07977 -0.952736 0
M  V30 4239 H 392.695 -1.01729 -4.08937 0
M  V30 4240 H 391.419 -0.0875719 -3.26483 0
M  V30 4241 H 390.078 -2.19466 -2.9365 0
M  V30 4242 H 389.726 -0.780589 -4.96906 0
M  V30 4243 H 389.426 -2.50184 -5.31678 0
M  V30 4244 H 390.95 -1.7391 -5.8531 0
M  V30 4245 H 392.364 -3.55929 -4.4943 0
M  V30 4246 H 390.761 -4.29152 -4.19462 0
M  V30 4247 H 391.831 -3.94091 -2.82525 0
M  V30 4248 N 393.175 1.03435 -1.18907 0
M  V30 4249 C 394.421 1.77005 -0.989798 0
M  V30 4250 C 394.754 1.88205 0.478816 0
M  V30 4251 O 394.029 1.39481 1.35556 0
M  V30 4252 C 394.312 3.19925 -1.65287 0
M  V30 4253 C 394.165 3.1663 -3.19477 0
M  V30 4254 C 395.484 4.18189 -1.37134 0
M  V30 4255 H 392.603 0.642538 -0.360991 0
M  V30 4256 H 395.245 1.20784 -1.46667 0
M  V30 4257 H 393.395 3.67929 -1.24741 0
M  V30 4258 H 395.067 2.76567 -3.692 0
M  V30 4259 H 393.31 2.54491 -3.51307 0
M  V30 4260 H 393.981 4.1758 -3.61013 0
M  V30 4261 H 396.457 3.78761 -1.72276 0
M  V30 4262 H 395.333 5.16394 -1.86087 0
M  V30 4263 H 395.594 4.41112 -0.295424 0
M  V30 4264 N 394.653 0.992116 1.22453 0
M  V30 4265 C 395.603 0.512969 2.22155 0
M  V30 4266 C 396.587 -0.418416 1.55364 0
M  V30 4267 O 397.779 -0.245363 1.75291 0
M  V30 4268 C 394.908 -0.171822 3.4287 0
M  V30 4269 C 393.994 0.779822 4.16869 0
M  V30 4270 N 394.385 1.92734 4.6764 0
M  V30 4271 C 392.683 0.59554 4.42006 0
M  V30 4272 C 393.384 2.52458 5.24061 0
M  V30 4273 N 392.36 1.80735 5.12675 0
M  V30 4274 H 396.162 1.38817 2.5905 0
M  V30 4275 H 393.676 0.854277 1.38115 0
M  V30 4276 H 395.673 -0.532469 4.13486 0
M  V30 4277 H 394.333 -1.04317 3.07487 0
M  V30 4278 H 395.344 2.30816 4.63621 0
M  V30 4279 H 392.021 -0.229805 4.16867 0
M  V30 4280 H 393.411 3.49433 5.73887 0
M  V30 4281 N 396.131 -1.37776 0.765217 0
M  V30 4282 C 397.094 -2.28686 0.153416 0
M  V30 4283 C 398.094 -1.47727 -0.635081 0
M  V30 4284 O 399.284 -1.68027 -0.459632 0
M  V30 4285 C 396.416 -3.31608 -0.790495 0
M  V30 4286 H 397.609 -2.84297 0.954723 0
M  V30 4287 H 395.162 -1.46932 0.53299 0
M  V30 4288 H 395.897 -2.81109 -1.61705 0
M  V30 4289 H 395.682 -3.9144 -0.227348 0
M  V30 4290 H 397.172 -3.99559 -1.21419 0
M  V30 4291 N 397.609 -0.515225 -1.4894 0
M  V30 4292 C 398.559 0.275113 -2.26334 0
M  V30 4293 C 399.543 0.923007 -1.31793 0
M  V30 4294 O 400.735 0.828254 -1.56426 0
M  V30 4295 C 397.864 1.33041 -3.16473 0
M  V30 4296 C 396.95 0.688051 -4.18481 0
M  V30 4297 N 397.341 -0.217638 -5.05332 0
M  V30 4298 C 395.639 0.94699 -4.3583 0
M  V30 4299 C 396.34 -0.58676 -5.78733 0
M  V30 4300 N 395.316 0.0486966 -5.43578 0
M  V30 4301 H 399.118 -0.421876 -2.90856 0
M  V30 4302 H 396.632 -0.332249 -1.58965 0
M  V30 4303 H 398.629 1.9102 -3.70563 0
M  V30 4304 H 397.289 2.02894 -2.53504 0
M  V30 4305 H 398.3 -0.589343 -5.14536 0
M  V30 4306 H 394.977 1.63719 -3.8406 0
M  V30 4307 H 396.367 -1.32855 -6.58634 0
M  V30 4308 N 399.087 1.5561 -0.249682 0
M  V30 4309 C 400.312 2.03865 0.381305 0
M  V30 4310 C 400.737 1.12769 1.50548 0
M  V30 4311 O 400.095 0.121189 1.80895 0
M  V30 4312 C 400.143 3.50101 0.863816 0
M  V30 4313 O 399.247 3.62132 1.97318 0
M  V30 4314 H 398.588 0.658827 0.0827194 0
M  V30 4315 H 401.118 2.01105 -0.376552 0
M  V30 4316 H 401.128 3.90975 1.1663 0
M  V30 4317 H 399.803 4.1588 0.0411816 0
M  V30 4318 H 398.38 3.33155 1.67517 0
M  V30 4319 N 400.565 -0.0233959 1.57583 0
M  V30 4320 C 401.981 -0.379134 1.55031 0
M  V30 4321 C 402.181 -1.76255 0.976548 0
M  V30 4322 O 401.237 -2.45266 0.600078 0
M  V30 4323 C 402.55 -0.275792 2.99433 0
M  V30 4324 C 404.098 -0.352458 3.11009 0
M  V30 4325 C 404.573 -0.278501 4.57152 0
M  V30 4326 N 406.064 -0.337123 4.61972 0
M  V30 4327 C 406.799 -0.302876 5.726 0
M  V30 4328 N 406.295 -0.220589 6.92449 0
M  V30 4329 N 408.088 -0.353023 5.6099 0
M  V30 4330 H 400.239 0.881869 1.93227 0
M  V30 4331 H 402.502 0.335867 0.886509 0
M  V30 4332 H 402.208 0.675108 3.4516 0
M  V30 4333 H 402.082 -1.06721 3.61788 0
M  V30 4334 H 404.469 -1.29379 2.65226 0
M  V30 4335 H 404.55 0.468409 2.51475 0
M  V30 4336 H 404.194 0.659189 5.03604 0
M  V30 4337 H 404.124 -1.11755 5.14605 0
M  V30 4338 H 406.615 -0.403002 3.75745 0
M  V30 4339 H 406.928 -0.199713 7.72542 0
M  V30 4340 H 405.273 -0.186555 6.9475 0
M  V30 4341 H 408.464 -0.415339 4.66254 0
M  V30 4342 H 408.637 -0.322866 6.47195 0
M  V30 4343 N 402.043 -1.548 -0.295768 0
M  V30 4344 C 403.289 -1.75517 -1.02789 0
M  V30 4345 C 403.644 -0.537266 -1.84746 0
M  V30 4346 O 402.937 0.470299 -1.85738 0
M  V30 4347 C 403.131 -2.98797 -1.961 0
M  V30 4348 C 402.96 -4.3246 -1.23321 0
M  V30 4349 C 401.73 -4.96131 -0.95822 0
M  V30 4350 C 403.928 -5.10365 -0.635024 0
M  V30 4351 N 401.91 -6.1357 -0.201257 0
M  V30 4352 C 403.281 -6.19999 -0.0110937 0
M  V30 4353 C 405.336 -4.94957 -0.540594 0
M  V30 4354 C 404.039 -7.15904 0.698136 0
M  V30 4355 C 406.065 -5.91197 0.154992 0
M  V30 4356 C 405.427 -7.00203 0.767752 0
M  V30 4357 H 401.526 -0.694786 -0.358882 0
M  V30 4358 H 404.11 -1.92281 -0.305943 0
M  V30 4359 H 402.281 -2.83448 -2.6554 0
M  V30 4360 H 404.013 -3.08017 -2.62502 0
M  V30 4361 H 400.768 -4.56595 -1.25771 0
M  V30 4362 H 401.192 -6.76802 0.16389 0
M  V30 4363 H 405.834 -4.10803 -1.00003 0
M  V30 4364 H 403.552 -7.99595 1.16933 0
M  V30 4365 H 407.138 -5.81353 0.228069 0
M  V30 4366 H 406.018 -7.73393 1.29743 0
M  V30 4367 N 403.521 0.559213 -1.47345 0
M  V30 4368 C 404.77 1.31281 -1.53128 0
M  V30 4369 C 405.083 1.94602 -0.197344 0
M  V30 4370 O 406.289 2.71173 -0.133154 0
M  V30 4371 C 404.745 2.38051 -2.69925 0
M  V30 4372 C 404.353 1.8093 -4.0984 0
M  V30 4373 C 406.097 3.14604 -2.84999 0
M  V30 4374 C 404.004 2.85468 -5.1794 0
M  V30 4375 H 402.934 0.493614 -0.569966 0
M  V30 4376 H 405.585 0.594155 -1.73615 0
M  V30 4377 H 403.967 3.12822 -2.42814 0
M  V30 4378 H 405.141 1.12544 -4.46845 0
M  V30 4379 H 403.456 1.16967 -3.99634 0
M  V30 4380 H 406.053 3.92666 -3.62929 0
M  V30 4381 H 406.396 3.68665 -1.93369 0
M  V30 4382 H 406.929 2.46945 -3.1187 0
M  V30 4383 H 403.668 2.36264 -6.1144 0
M  V30 4384 H 403.188 3.52269 -4.85455 0
M  V30 4385 H 404.867 3.48996 -5.44803 0
M  V30 4386 N 404.999 1.35443 0.805782 0
M  V30 4387 C 405.962 1.28301 1.89925 0
M  V30 4388 C 406.962 0.194285 1.59622 0
M  V30 4389 O 408.152 0.448036 1.6834 0
M  V30 4390 C 405.284 0.984997 3.2636 0
M  V30 4391 H 406.477 2.2553 1.97677 0
M  V30 4392 H 404.03 1.19979 1.00173 0
M  V30 4393 H 404.765 0.016603 3.24296 0
M  V30 4394 H 404.55 1.77269 3.4974 0
M  V30 4395 H 406.04 0.960651 4.064 0
M  V30 4396 N 406.477 -1.02803 1.19454 0
M  V30 4397 C 407.754 -1.73299 0.907013 0
M  V30 4398 C 408.134 -2.02772 -0.587086 0
M  V30 4399 O 407.482 -1.68304 -1.54551 0
M  V30 4400 C 407.692 -3.00912 1.76785 0
M  V30 4401 C 409.04 -3.74403 2.00268 0
M  V30 4402 O 410.064 -3.10841 1.73943 0
M  V30 4403 O 408.923 -4.88675 2.4466 0
M  V30 4404 H 406.017 -0.754727 0.338106 0
M  V30 4405 H 408.563 -1.08754 1.30271 0
M  V30 4406 H 407.335 -2.75366 2.7801 0
M  V30 4407 H 406.958 -3.73197 1.37149 0
M  V30 4408 N 407.956 -0.998596 -1.21925 0
M  V30 4409 C 409.367 -0.711939 -1.72593 0
M  V30 4410 C 409.718 0.770842 -1.80423 0
M  V30 4411 O 408.843 1.60237 -1.4544 0
M  V30 4412 C 409.438 -1.28567 -3.13458 0
M  V30 4413 C 407.997 -1.04828 -3.61508 0
M  V30 4414 C 407.144 -1.4024 -2.39224 0
M  V30 4415 H 410.095 -1.17027 -1.07193 0
M  V30 4416 H 410.116 -0.667098 -3.74607 0
M  V30 4417 H 409.628 -2.36486 -3.07727 0
M  V30 4418 H 407.729 0.0140383 -3.72597 0
M  V30 4419 H 407.842 -1.71566 -4.47328 0
M  V30 4420 H 406.206 -0.821077 -2.41103 0
M  V30 4421 H 406.989 -2.49176 -2.36149 0
M  V30 4422 N 409.434 1.37368 -0.772513 0
M  V30 4423 C 410.659 2.0447 -0.347386 0
M  V30 4424 C 411.084 1.57882 1.0225 0
M  V30 4425 O 410.442 0.73941 1.65537 0
M  V30 4426 C 410.49 3.58369 -0.400479 0
M  V30 4427 O 409.594 4.0803 0.598789 0
M  V30 4428 H 408.935 0.646773 -0.15027 0
M  V30 4429 H 411.465 1.75667 -1.04892 0
M  V30 4430 H 411.475 4.07183 -0.258045 0
M  V30 4431 H 410.15 3.91633 -1.39986 0
M  V30 4432 H 408.727 3.70534 0.419411 0
M  V30 4433 N 410.912 0.523116 1.48665 0
M  V30 4434 C 412.323 0.0808997 1.86525 0
M  V30 4435 C 412.674 -1.33975 1.43336 0
M  V30 4436 O 411.799 -2.00221 0.821009 0
M  V30 4437 C 412.394 0.140037 3.3851 0
M  V30 4438 C 410.953 -0.246948 3.75589 0
M  V30 4439 C 410.1 0.502845 2.72703 0
M  V30 4440 H 413.051 0.734736 1.40667 0
M  V30 4441 H 413.072 -0.649945 3.74908 0
M  V30 4442 H 412.584 1.17412 3.69914 0
M  V30 4443 H 410.685 -1.28343 3.49798 0
M  V30 4444 H 410.798 0.0878859 4.79019 0
M  V30 4445 H 409.162 -0.0500581 2.54651 0
M  V30 4446 H 409.945 1.53743 3.0695 0
M  V30 4447 N 412.39 -1.55475 0.257931 0
M  V30 4448 C 413.322 -2.19192 -0.669881 0
M  V30 4449 C 414.335 -1.17148 -1.1305 0
M  V30 4450 O 415.524 -1.43959 -1.05537 0
M  V30 4451 C 412.624 -2.79016 -1.92363 0
M  V30 4452 C 411.797 -4.06586 -1.61265 0
M  V30 4453 C 410.856 -4.50622 -2.7171 0
M  V30 4454 O 409.882 -5.16765 -2.38627 0
M  V30 4455 N 411.084 -4.19325 -4.01431 0
M  V30 4456 H 413.849 -2.99441 -0.124635 0
M  V30 4457 H 411.41 -1.6171 0.0783311 0
M  V30 4458 H 413.402 -3.05427 -2.65511 0
M  V30 4459 H 411.972 -2.0286 -2.37837 0
M  V30 4460 H 411.192 -3.87646 -0.715811 0
M  V30 4461 H 412.48 -4.89737 -1.37967 0
M  V30 4462 H 411.878 -3.66247 -4.31138 0
M  V30 4463 H 410.435 -4.50547 -4.7101 0
M  V30 4464 N 413.868 0.0150385 -1.57593 0
M  V30 4465 C 414.816 1.02958 -2.08572 0
M  V30 4466 C 415.81 1.36554 -1.00246 0
M  V30 4467 O 417.016 1.35295 -1.18724 0
M  V30 4468 H 413.391 0.349619 -0.665786 0
M  V30 4469 H 415.362 0.573932 -2.92829 0
M  V30 4470 C 414.111 2.31752 -2.59203 0
M  V30 4471 H 413.434 2.06765 -3.42182 0
M  V30 4472 H 414.874 3.01053 -2.98568 0
M  V30 4473 C 413.333 3.01692 -1.49945 0
M  V30 4474 O 413.863 3.92083 -0.873704 0
M  V30 4475 N 412.069 2.6326 -1.23056 0
M  V30 4476 H 411.616 1.89838 -1.74125 0
M  V30 4477 H 411.574 3.10372 -0.501685 0
M  V30 4478 N 415.346 1.54954 0.287554 0
M  V30 4479 C 416.571 1.79209 1.04397 0
M  V30 4480 C 416.996 0.556431 1.79682 0
M  V30 4481 O 416.354 -0.493518 1.74454 0
M  V30 4482 C 416.402 3.00739 1.98969 0
M  V30 4483 O 415.506 2.74805 3.075 0
M  V30 4484 H 414.847 0.592755 0.299227 0
M  V30 4485 H 417.377 2.02068 0.320886 0
M  V30 4486 H 417.387 3.29077 2.4119 0
M  V30 4487 H 416.062 3.90329 1.43582 0
M  V30 4488 H 414.639 2.57523 2.69697 0
M  V30 4489 N 416.824 -0.551391 1.4764 0
M  V30 4490 C 418.052 -1.33357 1.58189 0
M  V30 4491 C 418.467 -1.87342 0.234199 0
M  V30 4492 O 417.824 -1.65301 -0.77343 0
M  V30 4493 C 417.875 -2.49942 2.61173 0
M  V30 4494 O 417.596 -1.98187 3.90709 0
M  V30 4495 C 419.097 -3.42072 2.8196 0
M  V30 4496 H 416.317 -0.40631 0.533998 0
M  V30 4497 H 418.861 -0.667367 1.93304 0
M  V30 4498 H 417.016 -3.12489 2.28975 0
M  V30 4499 H 417.43 -2.74342 4.47031 0
M  V30 4500 H 418.904 -4.20278 3.57869 0
M  V30 4501 H 419.381 -3.95978 1.89995 0
M  V30 4502 H 419.987 -2.85336 3.15378 0
M  V30 4503 N 418.302 -1.35869 -0.798587 0
M  V30 4504 C 419.265 -1.29307 -1.89242 0
M  V30 4505 C 420.265 -0.202747 -1.59517 0
M  V30 4506 O 421.455 -0.456957 -1.681 0
M  V30 4507 C 418.587 -1.00229 -3.25833 0
M  V30 4508 H 419.78 -2.26576 -1.96478 0
M  V30 4509 H 417.333 -1.20509 -0.995358 0
M  V30 4510 H 418.068 -0.033801 -3.24282 0
M  V30 4511 H 417.853 -1.79121 -3.48795 0
M  V30 4512 H 419.343 -0.98219 -4.05885 0
M  V30 4513 N 419.78 1.02168 -1.19998 0
M  V30 4514 C 421.057 1.72816 -0.916191 0
M  V30 4515 C 421.437 2.03081 0.576325 0
M  V30 4516 O 420.785 1.69122 1.53656 0
M  V30 4517 C 420.995 2.9997 -1.78378 0
M  V30 4518 C 422.343 3.73336 -2.02251 0
M  V30 4519 O 423.367 3.09914 -1.75589 0
M  V30 4520 O 422.226 4.87371 -2.47249 0
M  V30 4521 H 419.32 0.752924 -0.342103 0
M  V30 4522 H 421.866 1.08062 -1.30846 0
M  V30 4523 H 420.638 2.73888 -2.79466 0
M  V30 4524 H 420.261 3.72464 -1.39126 0
M  V30 4525 N 421.258 1.00505 1.21394 0
M  V30 4526 C 422.486 0.706609 1.9446 0
M  V30 4527 C 422.901 -0.73081 1.74082 0
M  V30 4528 O 422.258 -1.49446 1.04747 0
M  V30 4529 C 422.309 1.01824 3.46863 0
M  V30 4530 O 422.03 2.39919 3.66566 0
M  V30 4531 C 423.531 0.739216 4.37093 0
M  V30 4532 H 420.751 0.260394 0.618414 0
M  V30 4533 H 423.295 1.34311 1.54211 0
M  V30 4534 H 421.45 0.427343 3.85036 0
M  V30 4535 H 421.864 2.50784 4.6066 0
M  V30 4536 H 423.338 1.00744 5.42729 0
M  V30 4537 H 423.815 -0.326746 4.37983 0
M  V30 4538 H 424.421 1.31173 4.04566 0
M  V30 4539 N 422.737 -1.36956 0.779787 0
M  V30 4540 C 423.962 -2.04283 0.358224 0
M  V30 4541 C 424.387 -1.58422 -1.01411 0
M  V30 4542 O 423.745 -0.748179 -1.65142 0
M  V30 4543 C 423.793 -3.58152 0.419479 0
M  V30 4544 O 422.897 -4.08342 -0.577142 0
M  V30 4545 H 422.238 -0.645967 0.153698 0
M  V30 4546 H 424.768 -1.75108 1.05822 0
M  V30 4547 H 424.778 -4.07041 0.279636 0
M  V30 4548 H 423.453 -3.90886 1.42061 0
M  V30 4549 H 422.03 -3.70751 -0.399755 0
M  V30 4550 N 424.215 -0.530993 -1.48385 0
M  V30 4551 C 425.162 0.231223 -2.29639 0
M  V30 4552 C 426.132 0.932864 -1.37429 0
M  V30 4553 O 427.317 0.933692 -1.66394 0
M  V30 4554 C 424.457 1.27155 -3.2082 0
M  V30 4555 C 423.57 0.578655 -4.28107 0
M  V30 4556 C 422.705 1.602 -5.06467 0
M  V30 4557 C 421.744 0.892625 -6.05556 0
M  V30 4558 N 420.881 1.86157 -6.76971 0
M  V30 4559 H 425.721 -0.467848 -2.94305 0
M  V30 4560 H 423.258 -0.242556 -1.45086 0
M  V30 4561 H 425.216 1.88703 -3.72085 0
M  V30 4562 H 423.846 1.939 -2.58075 0
M  V30 4563 H 422.898 -0.150782 -3.80101 0
M  V30 4564 H 424.21 0.0217065 -4.98795 0
M  V30 4565 H 423.364 2.29173 -5.61751 0
M  V30 4566 H 422.103 2.19285 -4.35621 0
M  V30 4567 H 421.108 0.188829 -5.49476 0
M  V30 4568 H 422.333 0.307878 -6.78402 0
M  V30 4569 H 420.279 2.44147 -6.08875 0
M  V30 4570 H 420.196 1.35608 -7.43738 0
M  V30 4571 H 421.464 2.54325 -7.36844 0
M  V30 4572 N 425.693 1.55336 -0.266172 0
M  V30 4573 C 426.939 1.99692 0.353681 0
M  V30 4574 C 427.272 1.1543 1.56172 0
M  V30 4575 O 426.547 0.222218 1.93226 0
M  V30 4576 C 426.83 3.52316 0.74466 0
M  V30 4577 C 426.683 4.47337 -0.470101 0
M  V30 4578 C 428.002 4.10588 1.58447 0
M  V30 4579 H 425.121 0.725961 0.12708 0
M  V30 4580 H 427.763 1.86336 -0.371333 0
M  V30 4581 H 425.913 3.63829 1.36239 0
M  V30 4582 H 427.585 4.4778 -1.10864 0
M  V30 4583 H 425.828 4.19364 -1.10978 0
M  V30 4584 H 426.499 5.51788 -0.15291 0
M  V30 4585 H 428.975 4.02297 1.06286 0
M  V30 4586 H 427.851 5.17607 1.82686 0
M  V30 4587 H 428.112 3.60253 2.56262 0
M  V30 4588 N 427.171 -0.0066808 1.57599 0
M  V30 4589 C 428.396 -0.707738 1.94951 0
M  V30 4590 C 428.821 -1.66882 0.867868 0
M  V30 4591 O 428.179 -1.80457 -0.17458 0
M  V30 4592 C 428.227 -1.42162 3.31394 0
M  V30 4593 O 427.331 -2.53578 3.25226 0
M  V30 4594 H 426.672 -0.188752 0.636607 0
M  V30 4595 H 429.202 0.0445193 2.04552 0
M  V30 4596 H 429.212 -1.78655 3.66806 0
M  V30 4597 H 427.887 -0.716903 4.09675 0
M  V30 4598 H 426.464 -2.19463 3.01481 0
M  V30 4599 N 428.649 -1.55105 -0.279332 0
M  V30 4600 C 429.579 -1.90557 -1.34945 0
M  V30 4601 C 430.56 -0.766738 -1.51839 0
M  V30 4602 O 431.745 -1.02434 -1.64988 0
M  V30 4603 C 428.875 -2.17193 -2.71006 0
M  V30 4604 C 427.829 -3.33021 -2.68851 0
M  V30 4605 C 427.155 -3.45123 -4.08405 0
M  V30 4606 C 428.455 -4.69578 -2.28678 0
M  V30 4607 H 430.149 -2.80188 -1.05522 0
M  V30 4608 H 427.695 -1.34811 -0.506173 0
M  V30 4609 H 429.648 -2.40581 -3.45975 0
M  V30 4610 H 428.372 -1.24355 -3.01999 0
M  V30 4611 H 427.031 -3.0959 -1.9634 0
M  V30 4612 H 426.679 -2.49762 -4.3661 0
M  V30 4613 H 426.379 -4.22995 -4.07859 0
M  V30 4614 H 427.903 -3.70796 -4.85121 0
M  V30 4615 H 429.317 -4.92553 -2.93368 0
M  V30 4616 H 427.714 -5.5032 -2.39306 0
M  V30 4617 H 428.784 -4.68828 -1.23807 0
M  V30 4618 N 430.127 0.543554 -1.4793 0
M  V30 4619 C 431.375 1.29752 -1.54948 0
M  V30 4620 C 431.696 1.93764 -0.219242 0
M  V30 4621 O 430.966 1.80639 0.75805 0
M  V30 4622 H 429.546 0.481874 -0.570795 0
M  V30 4623 H 432.208 0.633636 -1.84312 0
M  V30 4624 H 431.304 2.08392 -2.32334 0
M  V30 4625 N 431.605 1.3629 0.791371 0
M  V30 4626 C 432.535 1.33137 1.91825 0
M  V30 4627 C 433.516 0.203168 1.68882 0
M  V30 4628 O 434.701 0.400509 1.90025 0
M  V30 4629 C 431.831 1.11793 3.28816 0
M  V30 4630 C 430.785 2.21417 3.66277 0
M  V30 4631 C 430.111 1.85218 5.01596 0
M  V30 4632 C 431.411 3.63489 3.75064 0
M  V30 4633 H 433.105 2.2743 1.9472 0
M  V30 4634 H 430.651 1.09479 0.935437 0
M  V30 4635 H 432.604 1.08222 4.07266 0
M  V30 4636 H 431.328 0.139501 3.26302 0
M  V30 4637 H 429.987 2.2411 2.90121 0
M  V30 4638 H 429.635 0.859544 4.95602 0
M  V30 4639 H 429.335 2.58611 5.27631 0
M  V30 4640 H 430.859 1.832 5.82469 0
M  V30 4641 H 432.273 3.63034 4.43711 0
M  V30 4642 H 430.67 4.35771 4.12582 0
M  V30 4643 H 431.74 3.98536 2.76219 0
M  V30 4644 N 433.083 -1.0153 1.20538 0
M  V30 4645 C 434.36 -1.72327 0.925343 0
M  V30 4646 C 434.74 -2.03383 -0.565547 0
M  V30 4647 O 434.088 -1.69934 -1.52757 0
M  V30 4648 C 434.298 -2.9902 1.79967 0
M  V30 4649 C 435.646 -3.72258 2.04228 0
M  V30 4650 O 436.67 -3.08979 1.77231 0
M  V30 4651 O 435.529 -4.86053 2.4983 0
M  V30 4652 H 432.623 -0.751099 0.346092 0
M  V30 4653 H 435.169 -1.07366 1.31417 0
M  V30 4654 H 433.941 -2.72402 2.80915 0
M  V30 4655 H 433.564 -3.71721 1.41099 0
M  V30 4656 N 434.561 -1.01147 -1.20859 0
M  V30 4657 C 435.471 -0.58686 -2.27141 0
M  V30 4658 C 436.487 0.373198 -1.69951 0
M  V30 4659 O 437.663 0.235423 -2.00019 0
M  V30 4660 C 434.728 0.0733602 -3.46622 0
M  V30 4661 C 433.789 -0.931995 -4.19061 0
M  V30 4662 C 433.022 -0.303186 -5.32838 0
M  V30 4663 O 433.245 0.898395 -5.63281 0
M  V30 4664 O 432.179 -1.01735 -5.9324 0
M  V30 4665 H 436.005 -1.47155 -2.65667 0
M  V30 4666 H 433.59 -0.780689 -1.2738 0
M  V30 4667 H 435.472 0.442333 -4.19072 0
M  V30 4668 H 434.147 0.932329 -3.09983 0
M  V30 4669 H 433.054 -1.35224 -3.48805 0
M  V30 4670 H 434.387 -1.76076 -4.59628 0
M  V30 4671 N 436.039 1.36541 -0.78704 0
M  V30 4672 C 436.987 2.31965 -0.171724 0
M  V30 4673 C 437.981 1.55689 0.667631 0
M  V30 4674 O 439.187 1.70969 0.562981 0
M  V30 4675 H 435.562 0.751101 -0.0367545 0
M  V30 4676 H 437.533 2.81428 -0.992017 0
M  V30 4677 C 436.282 3.40968 0.680904 0
M  V30 4678 H 435.605 3.99775 0.0443961 0
M  V30 4679 H 437.045 4.10063 1.07815 0
M  V30 4680 C 435.504 2.82338 1.83813 0
M  V30 4681 O 436.034 2.74311 2.93456 0
M  V30 4682 N 434.24 2.39661 1.6435 0
M  V30 4683 H 433.787 2.46389 0.751668 0
M  V30 4684 H 433.745 2.00779 2.4194 0
M  V30 4685 N 437.518 0.538854 1.48102 0
M  V30 4686 C 438.764 0.00801365 2.02798 0
M  V30 4687 C 439.097 -1.3309 1.41424 0
M  V30 4688 O 438.372 -1.86169 0.563158 0
M  V30 4689 C 438.655 -0.104589 3.59948 0
M  V30 4690 C 438.508 1.26012 4.31788 0
M  V30 4691 C 439.827 -0.827055 4.32259 0
M  V30 4692 H 436.946 0.00438624 0.736987 0
M  V30 4693 H 439.588 0.6976 1.7673 0
M  V30 4694 H 437.738 -0.691893 3.82289 0
M  V30 4695 H 439.41 1.88922 4.2084 0
M  V30 4696 H 437.653 1.83968 3.92859 0
M  V30 4697 H 438.324 1.13424 5.40221 0
M  V30 4698 H 440.8 -0.328578 4.14801 0
M  V30 4699 H 439.676 -0.87476 5.41885 0
M  V30 4700 H 439.937 -1.87927 4.0017 0
M  V30 4701 N 438.996 -1.55193 0.274407 0
M  V30 4702 C 440.221 -2.04446 -0.348824 0
M  V30 4703 C 440.646 -1.15149 -1.48735 0
M  V30 4704 O 440.004 -0.149952 -1.80679 0
M  V30 4705 C 440.052 -3.51431 -0.808009 0
M  V30 4706 O 439.156 -3.65225 -1.91531 0
M  V30 4707 H 438.497 -0.66006 -0.0722276 0
M  V30 4708 H 441.027 -2.00481 0.408498 0
M  V30 4709 H 441.037 -3.92781 -1.10395 0
M  V30 4710 H 439.712 -4.15892 0.0249865 0
M  V30 4711 H 438.289 -3.35778 -1.62196 0
M  V30 4712 N 440.474 -0.00167713 -1.576 0
M  V30 4713 C 441.421 0.989195 -2.08527 0
M  V30 4714 C 442.391 1.34031 -0.981065 0
M  V30 4715 O 443.576 1.43839 -1.2536 0
M  V30 4716 C 440.716 2.27537 -2.59463 0
M  V30 4717 C 439.829 1.98314 -3.83791 0
M  V30 4718 C 438.964 3.21025 -4.23222 0
M  V30 4719 C 438.003 2.87495 -5.40382 0
M  V30 4720 N 437.14 4.02749 -5.75098 0
M  V30 4721 H 441.98 0.547973 -2.92919 0
M  V30 4722 H 439.517 0.258917 -1.44803 0
M  V30 4723 H 441.475 3.02729 -2.87073 0
M  V30 4724 H 440.105 2.69325 -1.77943 0
M  V30 4725 H 439.157 1.13482 -3.63078 0
M  V30 4726 H 440.469 1.69601 -4.69081 0
M  V30 4727 H 439.623 4.04561 -4.52123 0
M  V30 4728 H 438.362 3.52877 -3.36644 0
M  V30 4729 H 437.367 2.02367 -5.11202 0
M  V30 4730 H 438.592 2.56889 -6.28637 0
M  V30 4731 H 436.538 4.34494 -4.91478 0
M  V30 4732 H 436.455 3.77566 -6.54966 0
M  V30 4733 H 437.723 4.87068 -6.08592 0
M  V30 4734 N 441.952 1.55251 0.271103 0
M  V30 4735 C 443.368 1.47133 0.618393 0
M  V30 4736 C 443.568 0.686994 1.89427 0
M  V30 4737 O 442.624 0.206609 2.51653 0
M  V30 4738 C 443.937 2.91361 0.743593 0
M  V30 4739 C 445.485 3.01587 0.837522 0
M  V30 4740 C 445.96 4.47073 0.994483 0
M  V30 4741 N 447.451 4.50909 1.05996 0
M  V30 4742 C 448.186 5.60698 1.20024 0
M  V30 4743 N 447.682 6.80348 1.30759 0
M  V30 4744 N 449.475 5.48444 1.23149 0
M  V30 4745 H 441.626 2.04698 -0.566784 0
M  V30 4746 H 443.889 0.928319 -0.192165 0
M  V30 4747 H 443.595 3.51483 -0.123493 0
M  V30 4748 H 443.469 3.40484 1.62328 0
M  V30 4749 H 445.856 2.4156 1.69507 0
M  V30 4750 H 445.937 2.55713 -0.0668086 0
M  V30 4751 H 445.581 5.07703 0.141582 0
M  V30 4752 H 445.511 4.90605 1.91349 0
M  V30 4753 H 448.002 3.6472 0.989316 0
M  V30 4754 H 448.315 7.59772 1.41303 0
M  V30 4755 H 446.66 6.83156 1.27761 0
M  V30 4756 H 449.851 4.53907 1.14394 0
M  V30 4757 H 450.024 6.34049 1.33738 0
M  V30 4758 N 443.43 -0.535701 1.48216 0
M  V30 4759 C 444.679 -1.28828 1.55197 0
M  V30 4760 C 444.992 -1.94263 0.228278 0
M  V30 4761 O 446.198 -2.70927 0.176278 0
M  V30 4762 C 444.654 -2.33727 2.73678 0
M  V30 4763 C 444.262 -1.74386 4.12666 0
M  V30 4764 C 446.006 -3.1003 2.89968 0
M  V30 4765 C 443.913 -2.77192 5.22416 0
M  V30 4766 H 442.843 -0.484484 0.577747 0
M  V30 4767 H 445.494 -0.56646 1.74538 0
M  V30 4768 H 443.876 -3.08919 2.4776 0
M  V30 4769 H 445.05 -1.05421 4.48579 0
M  V30 4770 H 443.365 -1.10595 4.01445 0
M  V30 4771 H 445.962 -3.86842 3.6913 0
M  V30 4772 H 446.305 -3.65542 1.9921 0
M  V30 4773 H 446.838 -2.41952 3.15759 0
M  V30 4774 H 443.577 -2.26507 6.15122 0
M  V30 4775 H 443.097 -3.44502 4.90998 0
M  V30 4776 H 444.776 -3.40285 5.50286 0
M  V30 4777 N 444.908 -1.36708 -0.784132 0
M  V30 4778 C 445.818 -1.3363 -1.92822 0
M  V30 4779 C 446.834 -0.237686 -1.72369 0
M  V30 4780 O 448.01 -0.470962 -1.95816 0
M  V30 4781 C 445.075 -1.13011 -3.27764 0
M  V30 4782 C 444.136 -2.32397 -3.60957 0
M  V30 4783 C 443.369 -2.12752 -4.89461 0
M  V30 4784 O 443.592 -1.10541 -5.59586 0
M  V30 4785 O 442.526 -3.00653 -5.21432 0
M  V30 4786 H 446.352 -2.29964 -1.98369 0
M  V30 4787 H 443.937 -1.1731 -0.925136 0
M  V30 4788 H 445.819 -1.03451 -4.08504 0
M  V30 4789 H 444.494 -0.19743 -3.23097 0
M  V30 4790 H 443.401 -2.47527 -2.80502 0
M  V30 4791 H 444.734 -3.2419 -3.70354 0
M  V30 4792 N 446.386 1.0089 -1.21074 0
M  V30 4793 C 447.797 1.56056 -1.02486 0
M  V30 4794 C 448.148 1.91728 0.416506 0
M  V30 4795 O 447.273 1.73066 1.29912 0
M  V30 4796 C 447.868 2.83563 -1.85411 0
M  V30 4797 C 446.427 3.3523 -1.71166 0
M  V30 4798 C 445.574 2.0846 -1.82865 0
M  V30 4799 H 448.525 0.831818 -1.35154 0
M  V30 4800 H 448.546 3.55286 -1.36205 0
M  V30 4801 H 448.058 2.57569 -2.9031 0
M  V30 4802 H 446.159 3.66167 -0.689361 0
M  V30 4803 H 446.272 4.06913 -2.52901 0
M  V30 4804 H 444.636 2.21275 -1.26132 0
M  V30 4805 H 445.419 1.84883 -2.89263 0
M  V30 4806 N 447.864 1.01787 1.20321 0
M  V30 4807 C 449.089 0.727009 1.9424 0
M  V30 4808 C 449.514 -0.706179 1.74341 0
M  V30 4809 O 448.872 -1.48609 1.03852 0
M  V30 4810 C 448.92 1.06958 3.44372 0
M  V30 4811 O 448.024 0.181983 4.11998 0
M  V30 4812 H 447.365 0.269626 0.606793 0
M  V30 4813 H 449.895 1.36158 1.52716 0
M  V30 4814 H 449.905 1.02182 3.94997 0
M  V30 4815 H 448.58 2.11378 3.58179 0
M  V30 4816 H 447.157 0.287378 3.71791 0
M  V30 4817 N 449.342 -1.36122 0.79427 0
M  V30 4818 C 450.588 -1.99406 0.369452 0
M  V30 4819 C 450.921 -1.62886 -1.05743 0
M  V30 4820 O 450.196 -0.886053 -1.73145 0
M  V30 4821 C 450.479 -3.56046 0.538833 0
M  V30 4822 C 450.332 -4.02404 2.00976 0
M  V30 4823 C 451.651 -4.40079 -0.0431359 0
M  V30 4824 H 448.77 -0.724397 0.135712 0
M  V30 4825 H 451.412 -1.61461 1.00151 0
M  V30 4826 H 449.562 -3.885 0.000771004 0
M  V30 4827 H 451.234 -3.80415 2.60926 0
M  V30 4828 H 449.477 -3.53765 2.51063 0
M  V30 4829 H 450.148 -5.11344 2.07922 0
M  V30 4830 H 452.624 -4.14013 0.416228 0
M  V30 4831 H 451.5 -5.48799 0.105374 0
M  V30 4832 H 451.761 -4.27264 -1.13571 0
M  V30 4833 N 450.82 -0.546701 -1.47814 0
M  V30 4834 C 452.045 -0.021268 -2.07389 0
M  V30 4835 C 452.47 1.25822 -1.39822 0
M  V30 4836 O 451.828 1.75111 -0.46968 0
M  V30 4837 C 451.876 0.168502 -3.60206 0
M  V30 4838 O 450.98 1.23347 -3.93522 0
M  V30 4839 H 450.321 -0.0466108 -0.662362 0
M  V30 4840 H 452.851 -0.759387 -1.89985 0
M  V30 4841 H 452.861 0.385982 -4.0617 0
M  V30 4842 H 451.536 -0.766075 -4.08784 0
M  V30 4843 H 450.113 0.997319 -3.59316 0
M  V30 4844 N 452.299 1.55045 -0.282633 0
M  V30 4845 C 453.229 2.2579 0.595066 0
M  V30 4846 C 454.21 1.25074 1.15284 0
M  V30 4847 O 455.395 1.5381 1.18559 0
M  V30 4848 C 452.525 2.98472 1.77572 0
M  V30 4849 C 451.479 4.0618 1.34914 0
M  V30 4850 C 450.805 4.66477 2.6135 0
M  V30 4851 C 452.105 5.1996 0.493821 0
M  V30 4852 H 453.799 2.994 0.00505653 0
M  V30 4853 H 451.345 1.44 0.000992001 0
M  V30 4854 H 453.298 3.46677 2.39568 0
M  V30 4855 H 452.022 2.2241 2.39168 0
M  V30 4856 H 450.681 3.58797 0.752338 0
M  V30 4857 H 450.329 3.87074 3.2122 0
M  V30 4858 H 450.029 5.39207 2.33516 0
M  V30 4859 H 451.553 5.17435 3.24181 0
M  V30 4860 H 452.967 5.64172 1.01898 0
M  V30 4861 H 451.364 5.99299 0.310047 0
M  V30 4862 H 452.434 4.82462 -0.485593 0
M  V30 4863 N 453.777 0.010035 1.57597 0
M  V30 4864 C 455.023 -0.668011 1.92118 0
M  V30 4865 C 455.378 -1.70821 0.885328 0
M  V30 4866 O 454.671 -1.91333 -0.101187 0
M  V30 4867 C 454.865 -1.34434 3.31153 0
M  V30 4868 C 454.694 -0.371176 4.48166 0
M  V30 4869 C 453.464 0.0220686 5.05295 0
M  V30 4870 C 455.662 0.366731 5.12991 0
M  V30 4871 N 453.644 0.9924 6.05826 0
M  V30 4872 C 455.015 1.19142 6.08445 0
M  V30 4873 C 457.07 0.429489 4.96044 0
M  V30 4874 C 455.773 2.07317 6.88776 0
M  V30 4875 C 457.799 1.2985 5.76969 0
M  V30 4876 C 457.161 2.11101 6.72023 0
M  V30 4877 H 453.26 -0.217337 0.751192 0
M  V30 4878 H 455.844 0.0727375 1.94564 0
M  V30 4879 H 454.015 -2.05533 3.29561 0
M  V30 4880 H 455.747 -1.97789 3.53075 0
M  V30 4881 H 452.502 -0.348409 4.72317 0
M  V30 4882 H 452.926 1.47324 6.60776 0
M  V30 4883 H 457.568 -0.18442 4.22398 0
M  V30 4884 H 455.286 2.69771 7.61741 0
M  V30 4885 H 458.872 1.3511 5.65894 0
M  V30 4886 H 457.752 2.77257 7.33552 0
M  V30 4887 N 455.255 -1.55392 -0.262866 0
M  V30 4888 C 456.187 -1.85392 -1.34768 0
M  V30 4889 C 457.2 -0.739069 -1.45057 0
M  V30 4890 O 458.389 -1.01703 -1.46693 0
M  V30 4891 C 455.489 -2.01088 -2.72795 0
M  V30 4892 C 454.662 -3.31828 -2.84972 0
M  V30 4893 C 453.721 -3.37464 -4.03738 0
M  V30 4894 O 452.747 -4.10778 -3.94018 0
M  V30 4895 N 453.949 -2.65599 -5.16176 0
M  V30 4896 H 456.714 -2.79029 -1.09375 0
M  V30 4897 H 454.275 -1.55434 -0.452981 0
M  V30 4898 H 456.267 -2.02217 -3.50557 0
M  V30 4899 H 454.837 -1.1427 -2.90966 0
M  V30 4900 H 454.057 -3.43152 -1.94012 0
M  V30 4901 H 455.345 -4.18032 -2.90045 0
M  V30 4902 H 454.743 -2.05736 -5.26962 0
M  V30 4903 H 453.3 -2.72439 -5.92132 0
M  V30 4904 N 456.733 0.527833 -1.48498 0
M  V30 4905 C 457.98 1.28354 -1.56625 0
M  V30 4906 C 458.308 1.93 -0.241096 0
M  V30 4907 O 457.563 1.79967 0.768798 0
M  V30 4908 C 457.862 2.39275 -2.65485 0
M  V30 4909 C 457.528 1.92268 -4.07853 0
M  V30 4910 C 456.19 1.79166 -4.46602 0
M  V30 4911 C 458.542 1.56771 -4.97064 0
M  V30 4912 C 455.87 1.28905 -5.72364 0
M  V30 4913 C 458.222 1.07972 -6.23318 0
M  V30 4914 C 456.886 0.934887 -6.60921 0
M  V30 4915 H 456.156 0.469682 -0.573131 0
M  V30 4916 H 458.803 0.588781 -1.82224 0
M  V30 4917 H 457.108 3.1443 -2.33754 0
M  V30 4918 H 458.805 2.974 -2.68988 0
M  V30 4919 H 455.395 2.03417 -3.77252 0
M  V30 4920 H 459.579 1.65753 -4.67803 0
M  V30 4921 H 454.835 1.16381 -6.00221 0
M  V30 4922 H 459.009 0.795775 -6.91838 0
M  V30 4923 H 456.636 0.543231 -7.58257 0
M  V30 4924 N 458.211 1.37122 0.776871 0
M  V30 4925 C 459.441 1.35034 1.56363 0
M  V30 4926 C 459.849 -0.0674681 1.8908 0
M  V30 4927 O 459.192 -1.03826 1.51545 0
M  V30 4928 C 459.254 2.11894 2.90415 0
M  V30 4929 C 458.918 3.60897 2.80362 0
M  V30 4930 C 459.915 4.54887 2.51742 0
M  V30 4931 C 457.6 4.03951 2.98545 0
M  V30 4932 C 459.594 5.89909 2.41426 0
M  V30 4933 C 457.281 5.3906 2.87849 0
M  V30 4934 C 458.279 6.31852 2.5933 0
M  V30 4935 O 457.967 7.64479 2.48651 0
M  V30 4936 H 457.699 0.464402 0.49123 0
M  V30 4937 H 460.253 1.80992 0.971127 0
M  V30 4938 H 458.483 1.60618 3.51765 0
M  V30 4939 H 460.172 2.02505 3.51776 0
M  V30 4940 H 460.938 4.22934 2.37385 0
M  V30 4941 H 456.817 3.3209 3.19746 0
M  V30 4942 H 460.361 6.62304 2.19086 0
M  V30 4943 H 456.258 5.70617 3.01773 0
M  V30 4944 H 457.026 7.74742 2.64039 0
M  V30 4945 N 459.689 -1.00246 1.21608 0
M  V30 4946 C 460.619 -2.10921 1.00172 0
M  V30 4947 C 461.6 -1.69938 -0.0741587 0
M  V30 4948 O 462.785 -1.94009 0.0861753 0
M  V30 4949 C 459.915 -3.42618 0.568355 0
M  V30 4950 C 458.869 -3.97407 1.58909 0
M  V30 4951 C 458.195 -5.25038 1.01187 0
M  V30 4952 C 459.495 -4.2918 2.97661 0
M  V30 4953 H 461.189 -2.29112 1.92739 0
M  V30 4954 H 458.735 -1.10101 0.928102 0
M  V30 4955 H 460.688 -4.19444 0.405555 0
M  V30 4956 H 459.412 -3.24227 -0.392961 0
M  V30 4957 H 458.071 -3.22703 1.73949 0
M  V30 4958 H 457.719 -5.02982 0.0421965 0
M  V30 4959 H 457.419 -5.62661 1.6937 0
M  V30 4960 H 458.943 -6.04507 0.860448 0
M  V30 4961 H 460.357 -4.96839 2.86049 0
M  V30 4962 H 458.754 -4.77952 3.6288 0
M  V30 4963 H 459.824 -3.3735 3.48315 0
M  V30 4964 N 461.167 -1.02423 -1.1978 0
M  V30 4965 C 462.392 -0.7373 -1.93852 0
M  V30 4966 C 462.817 0.696923 -1.74713 0
M  V30 4967 O 462.175 1.48056 -1.04638 0
M  V30 4968 C 462.223 -1.08783 -3.438 0
M  V30 4969 O 461.327 -0.20383 -4.11896 0
M  V30 4970 H 460.668 -0.27284 -0.605355 0
M  V30 4971 H 463.198 -1.36966 -1.51992 0
M  V30 4972 H 463.208 -1.04276 -3.9445 0
M  V30 4973 H 461.883 -2.13274 -3.57053 0
M  V30 4974 H 460.46 -0.307091 -3.71633 0
M  V30 4975 N 462.645 1.35699 -0.801477 0
M  V30 4976 C 463.592 2.29876 -0.206294 0
M  V30 4977 C 464.562 1.52565 0.656752 0
M  V30 4978 O 465.747 1.81024 0.602906 0
M  V30 4979 C 462.887 3.39052 0.643272 0
M  V30 4980 C 462 4.31335 -0.239644 0
M  V30 4981 C 461.135 5.27599 0.61744 0
M  V30 4982 C 460.174 6.11521 -0.26619 0
M  V30 4983 N 459.311 6.99938 0.550571 0
M  V30 4984 H 464.151 2.80187 -1.01484 0
M  V30 4985 H 461.688 1.37902 -0.511997 0
M  V30 4986 H 463.646 4.0101 1.15094 0
M  V30 4987 H 462.276 2.9003 1.41713 0
M  V30 4988 H 461.328 3.70426 -0.865381 0
M  V30 4989 H 462.64 4.90243 -0.919985 0
M  V30 4990 H 461.794 5.94906 1.19045 0
M  V30 4991 H 460.533 4.69176 1.33137 0
M  V30 4992 H 459.538 5.43166 -0.851507 0
M  V30 4993 H 460.763 6.72022 -0.9779 0
M  V30 4994 H 458.709 6.44008 1.24856 0
M  V30 4995 H 458.626 7.55966 -0.071832 0
M  V30 4996 H 459.894 7.71599 1.10702 0
M  V30 4997 N 464.123 0.554532 1.47522 0
M  V30 4998 C 465.056 -0.242442 2.26908 0
M  V30 4999 C 466.034 -0.922722 1.33883 0
M  V30 5000 O 467.218 -0.942244 1.63261 0
M  V30 5001 C 464.345 -1.34525 3.10839 0
M  V30 5002 C 463.391 -0.773805 4.19422 0
M  V30 5003 S 464.224 0.377525 5.34168 0
M  V30 5004 C 465.38 -0.727164 6.21662 0
M  V30 5005 H 465.613 0.431218 2.94156 0
M  V30 5006 H 463.146 0.3408 1.50592 0
M  V30 5007 H 465.104 -1.97683 3.59766 0
M  V30 5008 H 463.765 -1.99073 2.42958 0
M  V30 5009 H 462.958 -1.60187 4.77866 0
M  V30 5010 H 462.56 -0.218448 3.73361 0
M  V30 5011 H 464.852 -1.61992 6.57849 0
M  V30 5012 H 465.795 -0.180135 7.07871 0
M  V30 5013 H 466.203 -1.01863 5.55233 0
M  V30 5014 N 465.601 -1.54893 0.290851 0
M  V30 5015 C 466.85 -1.99111 -0.322113 0
M  V30 5016 C 467.163 -1.18283 -1.55784 0
M  V30 5017 O 468.369 -1.5272 -2.24475 0
M  V30 5018 C 466.825 -3.54442 -0.624438 0
M  V30 5019 C 466.433 -4.44066 0.592373 0
M  V30 5020 C 468.177 -4.07211 -1.19916 0
M  V30 5021 C 466.084 -5.90812 0.263762 0
M  V30 5022 H 465.014 -0.743712 -0.124133 0
M  V30 5023 H 467.665 -1.79132 0.39797 0
M  V30 5024 H 466.047 -3.70281 -1.40384 0
M  V30 5025 H 467.221 -4.39999 1.36886 0
M  V30 5026 H 465.536 -4.02015 1.08502 0
M  V30 5027 H 468.133 -5.14407 -1.45909 0
M  V30 5028 H 468.476 -3.57196 -2.13815 0
M  V30 5029 H 469.009 -3.94873 -0.481687 0
M  V30 5030 H 465.748 -6.44955 1.17105 0
M  V30 5031 H 465.268 -5.97911 -0.475655 0
M  V30 5032 H 466.947 -6.46852 -0.138354 0
M  V30 5033 N 467.08 -0.0183926 -1.57589 0
M  V30 5034 C 468.305 0.676634 -1.96052 0
M  V30 5035 C 468.73 1.6548 -0.894307 0
M  V30 5036 O 468.088 1.80712 0.145849 0
M  V30 5037 C 468.136 1.36872 -3.33614 0
M  V30 5038 O 467.24 2.48372 -3.29219 0
M  V30 5039 H 466.581 0.1786 -0.63953 0
M  V30 5040 H 469.111 -0.077056 -2.04455 0
M  V30 5041 H 469.121 1.72797 -3.69601 0
M  V30 5042 H 467.796 0.651636 -4.10763 0
M  V30 5043 H 466.373 2.14639 -3.04934 0
M  V30 5044 N 468.558 1.5553 0.254621 0
M  V30 5045 C 469.491 1.84624 1.34124 0
M  V30 5046 C 470.469 0.700693 1.46728 0
M  V30 5047 O 471.653 0.94564 1.63064 0
M  V30 5048 C 468.78 2.02412 2.71564 0
M  V30 5049 C 467.826 3.25028 2.7615 0
M  V30 5050 S 468.659 4.81893 2.33538 0
M  V30 5051 C 469.815 5.02677 3.72917 0
M  V30 5052 H 470.048 2.76501 1.09245 0
M  V30 5053 H 467.581 1.47537 0.455211 0
M  V30 5054 H 469.539 2.13345 3.50705 0
M  V30 5055 H 468.2 1.11391 2.93685 0
M  V30 5056 H 467.393 3.34418 3.77069 0
M  V30 5057 H 466.995 3.12781 2.05046 0
M  V30 5058 H 469.287 4.89546 4.68349 0
M  V30 5059 H 470.23 6.0468 3.68467 0
M  V30 5060 H 470.638 4.30561 3.65072 0
M  V30 5061 N 470.036 -0.519951 1.48776 0
M  V30 5062 C 471.313 -1.28123 1.47797 0
M  V30 5063 C 471.693 -2.10196 0.195157 0
M  V30 5064 O 471.041 -2.13167 -0.822925 0
M  V30 5065 C 471.251 -2.15413 2.74587 0
M  V30 5066 C 472.599 -2.75225 3.23321 0
M  V30 5067 O 473.623 -2.25694 2.75574 0
M  V30 5068 O 472.482 -3.65346 4.06429 0
M  V30 5069 H 469.576 -0.578793 0.590701 0
M  V30 5070 H 472.122 -0.535779 1.6102 0
M  V30 5071 H 470.894 -1.54617 3.59457 0
M  V30 5072 H 470.517 -2.97186 2.64132 0
M  V30 5073 N 471.514 -1.37532 -0.769588 0
M  V30 5074 C 472.763 -1.32183 -1.5235 0
M  V30 5075 C 473.076 0.0906555 -1.9539 0
M  V30 5076 O 474.282 0.266628 -2.70188 0
M  V30 5077 C 472.738 -2.32029 -2.75119 0
M  V30 5078 C 472.346 -3.78816 -2.3917 0
M  V30 5079 C 474.09 -2.35694 -3.53056 0
M  V30 5080 C 471.997 -4.70388 -3.58453 0
M  V30 5081 H 470.927 -0.491275 -0.571984 0
M  V30 5082 H 473.578 -1.63004 -0.842739 0
M  V30 5083 H 471.96 -1.94229 -3.45096 0
M  V30 5084 H 473.134 -4.25466 -1.76962 0
M  V30 5085 H 471.449 -3.78117 -1.74402 0
M  V30 5086 H 474.046 -3.01312 -4.41718 0
M  V30 5087 H 474.389 -1.37117 -3.93071 0
M  V30 5088 H 474.922 -2.72212 -2.90078 0
M  V30 5089 H 471.661 -5.70102 -3.23518 0
M  V30 5090 H 471.181 -4.28442 -4.19758 0
M  V30 5091 H 472.86 -4.87628 -4.25239 0
M  V30 5092 N 472.992 0.995999 -1.22138 0
M  V30 5093 C 473.902 2.11985 -1.00496 0
M  V30 5094 C 474.918 1.7394 0.0457701 0
M  V30 5095 O 476.094 2.00868 -0.146273 0
M  V30 5096 C 473.159 3.41779 -0.582086 0
M  V30 5097 C 472.22 3.93943 -1.70608 0
M  V30 5098 C 471.453 5.17542 -1.30328 0
M  V30 5099 O 471.676 5.70114 -0.180743 0
M  V30 5100 O 470.61 5.63382 -2.11861 0
M  V30 5101 H 474.436 2.33123 -1.94647 0
M  V30 5102 H 472.021 1.10358 -1.00705 0
M  V30 5103 H 473.903 4.1989 -0.356467 0
M  V30 5104 H 472.578 3.22007 0.330592 0
M  V30 5105 H 471.485 3.17019 -1.98619 0
M  V30 5106 H 472.818 4.18141 -2.59651 0
M  V30 5107 N 474.47 1.03057 1.19235 0
M  V30 5108 C 475.402 0.570932 2.21975 0
M  V30 5109 C 476.415 -0.354088 1.58903 0
M  V30 5110 O 477.604 -0.150211 1.77867 0
M  V30 5111 C 474.704 -0.187152 3.38383 0
M  V30 5112 C 473.877 0.743231 4.31039 0
M  V30 5113 C 472.936 0.0302493 5.26191 0
M  V30 5114 O 471.962 0.657371 5.65391 0
M  V30 5115 N 473.164 -1.23991 5.67104 0
M  V30 5116 H 475.929 1.45456 2.62036 0
M  V30 5117 H 473.49 0.909807 1.33918 0
M  V30 5118 H 475.482 -0.673715 3.99053 0
M  V30 5119 H 474.052 -0.972205 2.97098 0
M  V30 5120 H 473.272 1.40985 3.68126 0
M  V30 5121 H 474.56 1.3755 4.89854 0
M  V30 5122 H 473.958 -1.77011 5.37293 0
M  V30 5123 H 472.515 -1.67093 6.30018 0
M  V30 5124 N 475.948 -1.35272 0.808662 0
M  V30 5125 C 477.194 -1.99003 0.390581 0
M  V30 5126 C 477.527 -1.63999 -1.0401 0
M  V30 5127 O 476.802 -0.904368 -1.72196 0
M  V30 5128 C 477.085 -3.55454 0.576566 0
M  V30 5129 C 476.938 -4.00249 2.05233 0
M  V30 5130 C 478.257 -4.401 0.00354277 0
M  V30 5131 H 475.376 -0.722917 0.143388 0
M  V30 5132 H 478.018 -1.6039 1.01858 0
M  V30 5133 H 476.168 -3.88477 0.0419766 0
M  V30 5134 H 477.84 -3.77626 2.64946 0
M  V30 5135 H 476.083 -3.51082 2.54801 0
M  V30 5136 H 476.754 -5.0911 2.13333 0
M  V30 5137 H 479.23 -4.13548 0.460117 0
M  V30 5138 H 478.106 -5.48656 0.163575 0
M  V30 5139 H 478.367 -4.28444 -1.09032 0
M  V30 5140 N 477.426 -0.562348 -1.47226 0
M  V30 5141 C 478.675 -0.038041 -2.01664 0
M  V30 5142 C 478.988 1.32199 -1.44162 0
M  V30 5143 O 480.194 1.9365 -1.90294 0
M  V30 5144 C 478.65 -0.0174958 -3.59896 0
M  V30 5145 C 478.258 -1.3746 -4.2639 0
M  V30 5146 C 480.002 0.453934 -4.22066 0
M  V30 5147 C 477.909 -1.31289 -5.76643 0
M  V30 5148 H 476.839 -0.0104511 -0.753928 0
M  V30 5149 H 479.49 -0.710966 -1.69167 0
M  V30 5150 H 477.872 0.721182 -3.89378 0
M  V30 5151 H 479.046 -2.1314 -4.08544 0
M  V30 5152 H 477.361 -1.78438 -3.7623 0
M  V30 5153 H 479.958 0.518584 -5.32179 0
M  V30 5154 H 480.301 1.46706 -3.89594 0
M  V30 5155 H 480.834 -0.230044 -3.97134 0
M  V30 5156 H 477.573 -2.30217 -6.13743 0
M  V30 5157 H 477.093 -0.597973 -5.96812 0
M  V30 5158 H 478.772 -1.01713 -6.38955 0
M  V30 5159 N 478.904 1.54736 -0.299062 0
M  V30 5160 C 480.132 2.04512 0.313447 0
M  V30 5161 C 480.547 1.17643 1.47667 0
M  V30 5162 O 479.904 0.20164 1.81383 0
M  V30 5163 C 479.955 3.53171 0.771542 0
M  V30 5164 O 479.676 4.36736 -0.345379 0
M  V30 5165 C 481.177 4.18936 1.4494 0
M  V30 5166 H 478.397 0.667507 0.0683784 0
M  V30 5167 H 480.941 1.99752 -0.438129 0
M  V30 5168 H 479.096 3.58298 1.47314 0
M  V30 5169 H 479.51 5.24499 0.0109219 0
M  V30 5170 H 480.984 5.24482 1.72111 0
M  V30 5171 H 481.461 3.68554 2.38883 0
M  V30 5172 H 482.067 4.17879 0.791028 0
M  V30 5173 N 480.382 0.0267497 1.57577 0
M  V30 5174 C 481.312 -0.954308 2.13108 0
M  V30 5175 C 482.293 -1.34088 1.04663 0
M  V30 5176 O 483.478 -1.41992 1.32484 0
M  V30 5177 C 480.608 -2.23744 2.65624 0
M  V30 5178 C 479.562 -1.99168 3.78835 0
M  V30 5179 C 478.888 -3.33726 4.17769 0
M  V30 5180 C 480.188 -1.33277 5.0501 0
M  V30 5181 H 481.882 -0.491848 2.95332 0
M  V30 5182 H 479.428 -0.23514 1.42067 0
M  V30 5183 H 481.381 -2.92754 3.03106 0
M  V30 5184 H 480.105 -2.72151 1.80558 0
M  V30 5185 H 478.764 -1.32577 3.41788 0
M  V30 5186 H 478.412 -3.79888 3.29688 0
M  V30 5187 H 478.112 -3.18089 4.94058 0
M  V30 5188 H 479.636 -4.04008 4.57832 0
M  V30 5189 H 481.05 -1.92283 5.40093 0
M  V30 5190 H 479.447 -1.28045 5.8628 0
M  V30 5191 H 480.517 -0.305411 4.83937 0
M  V30 5192 N 481.861 -1.55662 -0.24637 0
M  V30 5193 C 483.086 -1.81914 -0.996093 0
M  V30 5194 C 483.511 -0.603875 -1.78143 0
M  V30 5195 O 482.869 0.447091 -1.75701 0
M  V30 5196 C 482.917 -3.05908 -1.90925 0
M  V30 5197 O 482.021 -2.82861 -3.00105 0
M  V30 5198 H 481.362 -0.600481 -0.283406 0
M  V30 5199 H 483.892 -2.02848 -0.267199 0
M  V30 5200 H 483.902 -3.35356 -2.3238 0
M  V30 5201 H 482.577 -3.93999 -1.33183 0
M  V30 5202 H 481.154 -2.64583 -2.62775 0
M  V30 5203 N 483.339 0.512053 -1.4905 0
M  V30 5204 C 484.269 1.62365 -1.67809 0
M  V30 5205 C 485.25 1.61737 -0.526809 0
M  V30 5206 O 486.435 1.78651 -0.761404 0
M  V30 5207 C 483.565 3.00895 -1.73435 0
M  V30 5208 C 482.519 3.16387 -2.88242 0
M  V30 5209 C 481.845 4.56157 -2.78971 0
M  V30 5210 C 483.145 2.97457 -4.29321 0
M  V30 5211 H 484.839 1.46921 -2.60873 0
M  V30 5212 H 482.385 0.705379 -1.2554 0
M  V30 5213 H 484.338 3.78549 -1.85145 0
M  V30 5214 H 483.062 3.17403 -0.769619 0
M  V30 5215 H 481.721 2.41155 -2.76116 0
M  V30 5216 H 481.369 4.69525 -1.8043 0
M  V30 5217 H 481.069 4.67465 -3.5602 0
M  V30 5218 H 482.593 5.35886 -2.92675 0
M  V30 5219 H 484.007 3.64888 -4.42187 0
M  V30 5220 H 482.404 3.20245 -5.07507 0
M  V30 5221 H 483.474 1.93692 -4.44535 0
M  V30 5222 N 484.817 1.37938 0.762283 0
M  V30 5223 C 485.78 1.34279 1.85747 0
M  V30 5224 C 486.78 0.244969 1.58923 0
M  V30 5225 O 487.97 0.501365 1.66829 0
M  V30 5226 C 485.102 1.08833 3.23061 0
M  V30 5227 H 486.295 2.31705 1.90401 0
M  V30 5228 H 483.848 1.23105 0.963057 0
M  V30 5229 H 484.583 0.119767 3.24079 0
M  V30 5230 H 484.368 1.88306 3.43923 0
M  V30 5231 H 485.858 1.08946 4.03138 0
M  V30 5232 N 486.295 -0.989507 1.22664 0
M  V30 5233 C 487.225 -2.09847 1.02404 0
M  V30 5234 C 488.206 -1.70007 -0.0561303 0
M  V30 5235 O 489.391 -1.93906 0.106748 0
M  V30 5236 C 486.521 -3.41996 0.604663 0
M  V30 5237 C 485.475 -3.95699 1.63115 0
M  V30 5238 C 484.801 -5.23936 1.0675 0
M  V30 5239 C 486.101 -4.25999 3.02196 0
M  V30 5240 H 487.795 -2.27054 1.95158 0
M  V30 5241 H 485.341 -1.09111 0.939727 0
M  V30 5242 H 487.294 -4.1899 0.45002 0
M  V30 5243 H 486.018 -3.24626 -0.35855 0
M  V30 5244 H 484.677 -3.2084 1.77362 0
M  V30 5245 H 484.325 -5.02909 0.0955422 0
M  V30 5246 H 484.025 -5.60833 1.75328 0
M  V30 5247 H 485.549 -6.0356 0.924516 0
M  V30 5248 H 486.963 -4.93777 2.91303 0
M  V30 5249 H 485.36 -4.74076 3.67929 0
M  V30 5250 H 486.43 -3.33636 3.51873 0
M  V30 5251 N 487.773 -1.03688 -1.18687 0
M  V30 5252 C 488.703 -0.645407 -2.24403 0
M  V30 5253 C 489.684 0.349511 -1.66471 0
M  V30 5254 O 490.869 0.230453 -1.92828 0
M  V30 5255 C 487.999 -0.00365337 -3.473 0
M  V30 5256 C 486.953 -0.921705 -4.17958 0
M  V30 5257 C 486.279 -0.144629 -5.34504 0
M  V30 5258 C 487.579 -2.23909 -4.71871 0
M  V30 5259 H 489.273 -1.52917 -2.57404 0
M  V30 5260 H 486.819 -0.736711 -1.23728 0
M  V30 5261 H 488.772 0.281908 -4.20456 0
M  V30 5262 H 487.496 0.914963 -3.13522 0
M  V30 5263 H 486.155 -1.19159 -3.46694 0
M  V30 5264 H 485.803 0.776274 -4.96974 0
M  V30 5265 H 485.503 -0.756206 -5.82714 0
M  V30 5266 H 487.027 0.134004 -6.10453 0
M  V30 5267 H 488.441 -2.0145 -5.36741 0
M  V30 5268 H 486.838 -2.8033 -5.30599 0
M  V30 5269 H 487.908 -2.88822 -3.895 0
M  V30 5270 N 489.251 1.34841 -0.815825 0
M  V30 5271 C 490.181 2.32187 -0.247298 0
M  V30 5272 C 491.162 1.5791 0.632344 0
M  V30 5273 O 492.347 1.8593 0.560698 0
M  V30 5274 C 489.477 3.42122 0.597466 0
M  V30 5275 C 488.431 4.27602 -0.184446 0
M  V30 5276 C 487.757 5.28942 0.782609 0
M  V30 5277 C 489.057 5.03502 -1.38865 0
M  V30 5278 H 490.751 2.79985 -1.06061 0
M  V30 5279 H 488.297 1.34611 -0.511461 0
M  V30 5280 H 490.25 4.09232 1.00533 0
M  V30 5281 H 488.974 2.92956 1.44376 0
M  V30 5282 H 487.633 3.62085 -0.573592 0
M  V30 5283 H 487.281 4.7604 1.62466 0
M  V30 5284 H 486.981 5.87008 0.263695 0
M  V30 5285 H 488.505 5.98922 1.18848 0
M  V30 5286 H 489.919 5.63506 -1.05518 0
M  V30 5287 H 488.316 5.71108 -1.8427 0
M  V30 5288 H 489.386 4.33608 -2.17054 0
M  V30 5289 N 490.729 0.570148 1.46925 0
M  V30 5290 C 491.692 -0.159933 2.28641 0
M  V30 5291 C 492.692 -0.830638 1.37685 0
M  V30 5292 O 493.882 -0.684516 1.60187 0
M  V30 5293 C 491.014 -1.2354 3.17727 0
M  V30 5294 H 492.207 0.558035 2.94662 0
M  V30 5295 H 489.76 0.327603 1.52828 0
M  V30 5296 H 490.495 -1.98535 2.56426 0
M  V30 5297 H 490.28 -0.759125 3.84681 0
M  V30 5298 H 491.77 -1.74782 3.79264 0
M  V30 5299 N 492.207 -1.54576 0.307264 0
M  V30 5300 C 493.453 -2.0056 -0.300612 0
M  V30 5301 C 493.786 -1.1953 -1.53057 0
M  V30 5302 O 493.061 -0.27337 -1.92569 0
M  V30 5303 C 493.344 -3.54167 -0.650987 0
M  V30 5304 C 493.197 -4.45933 0.588539 0
M  V30 5305 C 494.516 -4.14645 -1.47506 0
M  V30 5306 H 491.635 -0.729075 -0.107788 0
M  V30 5307 H 494.277 -1.85286 0.420606 0
M  V30 5308 H 492.427 -3.67313 -1.26544 0
M  V30 5309 H 494.099 -4.44683 1.22697 0
M  V30 5310 H 492.342 -4.16274 1.22058 0
M  V30 5311 H 493.013 -5.51189 0.299153 0
M  V30 5312 H 495.489 -4.04973 -0.955821 0
M  V30 5313 H 494.365 -5.22269 -1.68899 0
M  V30 5314 H 494.626 -3.66921 -2.4662 0
M  V30 5315 N 493.685 -0.035106 -1.57561 0
M  V30 5316 C 494.632 0.94474 -2.10578 0
M  V30 5317 C 495.602 1.3192 -1.00927 0
M  V30 5318 O 496.787 1.41147 -1.28382 0
M  V30 5319 C 493.927 2.21982 -2.64231 0
M  V30 5320 C 493.04 1.90128 -3.87911 0
M  V30 5321 C 492.175 3.11975 -4.29936 0
M  V30 5322 C 491.214 2.75968 -5.46359 0
M  V30 5323 N 490.351 3.90459 -5.83512 0
M  V30 5324 H 495.191 0.485717 -2.94015 0
M  V30 5325 H 492.728 0.228143 -1.4532 0
M  V30 5326 H 494.686 2.96572 -2.9343 0
M  V30 5327 H 493.316 2.6549 -1.83616 0
M  V30 5328 H 492.368 1.05755 -3.65404 0
M  V30 5329 H 493.68 1.59613 -4.72573 0
M  V30 5330 H 492.834 3.9488 -4.60603 0
M  V30 5331 H 491.573 3.45657 -3.44053 0
M  V30 5332 H 490.578 1.91478 -5.1538 0
M  V30 5333 H 491.803 2.43497 -6.33945 0
M  V30 5334 H 489.749 4.23971 -5.00584 0
M  V30 5335 H 489.666 3.63588 -6.62827 0
M  V30 5336 H 490.934 4.7405 -6.18787 0
M  V30 5337 N 495.163 1.55791 0.238111 0
M  V30 5338 C 496.393 1.81834 0.980809 0
M  V30 5339 C 496.801 0.609741 1.79106 0
M  V30 5340 O 496.144 -0.431073 1.78571 0
M  V30 5341 C 496.206 3.01363 1.96011 0
M  V30 5342 C 495.87 4.37037 1.33597 0
M  V30 5343 C 496.867 5.14692 0.734063 0
M  V30 5344 C 494.552 4.83743 1.3527 0
M  V30 5345 C 496.546 6.37206 0.157208 0
M  V30 5346 C 494.233 6.06204 0.77199 0
M  V30 5347 C 495.231 6.82775 0.175282 0
M  V30 5348 O 494.919 8.02922 -0.396432 0
M  V30 5349 H 494.651 0.6088 0.293834 0
M  V30 5350 H 497.205 2.03702 0.263552 0
M  V30 5351 H 495.435 2.75273 2.71591 0
M  V30 5352 H 497.124 3.14422 2.56697 0
M  V30 5353 H 497.89 4.79722 0.713582 0
M  V30 5354 H 493.769 4.24129 1.80653 0
M  V30 5355 H 497.313 6.96915 -0.30917 0
M  V30 5356 H 493.21 6.4065 0.789828 0
M  V30 5357 H 493.978 8.17989 -0.289145 0
M  V30 5358 N 496.642 -0.504142 1.49319 0
M  V30 5359 C 497.891 -1.25507 1.57895 0
M  V30 5360 C 498.204 -1.93735 0.269433 0
M  V30 5361 O 499.41 -2.70492 0.233706 0
M  V30 5362 C 497.866 -2.27869 2.78574 0
M  V30 5363 C 497.474 -1.65594 4.16272 0
M  V30 5364 C 499.218 -3.0381 2.96479 0
M  V30 5365 C 497.125 -2.66048 5.28178 0
M  V30 5366 H 496.055 -0.47212 0.587894 0
M  V30 5367 H 498.706 -0.52931 1.757 0
M  V30 5368 H 497.088 -3.03594 2.54257 0
M  V30 5369 H 498.262 -0.958826 4.50714 0
M  V30 5370 H 496.577 -1.02055 4.037 0
M  V30 5371 H 499.174 -3.78925 3.77253 0
M  V30 5372 H 499.517 -3.61235 2.06918 0
M  V30 5373 H 500.05 -2.352 3.20821 0
M  V30 5374 H 496.789 -2.13408 6.19788 0
M  V30 5375 H 496.309 -3.34009 4.98195 0
M  V30 5376 H 497.988 -3.28536 5.57381 0
M  V30 5377 N 498.12 -1.38341 -0.754957 0
M  V30 5378 C 499.367 -1.34473 -1.51404 0
M  V30 5379 C 499.695 0.0656458 -1.94389 0
M  V30 5380 O 498.95 1.04244 -1.65625 0
M  V30 5381 C 499.249 -2.2452 -2.78075 0
M  V30 5382 C 498.915 -3.72512 -2.54059 0
M  V30 5383 C 497.577 -4.1284 -2.47218 0
M  V30 5384 C 499.929 -4.66197 -2.33044 0
M  V30 5385 C 497.257 -5.44945 -2.17376 0
M  V30 5386 C 499.609 -5.98558 -2.04723 0
M  V30 5387 C 498.273 -6.37972 -1.96337 0
M  V30 5388 H 497.543 -0.492072 -0.554027 0
M  V30 5389 H 500.19 -1.70687 -0.868223 0
M  V30 5390 H 498.495 -1.81357 -3.473 0
M  V30 5391 H 500.192 -2.18832 -3.36026 0
M  V30 5392 H 496.782 -3.40538 -2.60253 0
M  V30 5393 H 500.966 -4.35888 -2.37309 0
M  V30 5394 H 496.222 -5.74426 -2.09391 0
M  V30 5395 H 500.396 -6.70693 -1.87465 0
M  V30 5396 H 498.023 -7.40258 -1.72978 0
M  V30 5397 N 499.598 0.982988 -1.23187 0
M  V30 5398 C 500.845 1.72392 -1.06241 0
M  V30 5399 C 501.173 1.9032 0.40108 0
M  V30 5400 O 500.428 1.45084 1.31336 0
M  V30 5401 C 500.727 3.12736 -1.73006 0
M  V30 5402 C 500.393 3.14695 -3.22921 0
M  V30 5403 C 499.055 3.14937 -3.63824 0
M  V30 5404 C 501.407 3.10211 -4.1883 0
M  V30 5405 C 498.735 3.08408 -4.99101 0
M  V30 5406 C 501.087 3.05224 -5.54095 0
M  V30 5407 C 499.751 3.03787 -5.94365 0
M  V30 5408 H 499.021 0.630829 -0.388762 0
M  V30 5409 H 501.668 1.15053 -1.53085 0
M  V30 5410 H 499.973 3.73446 -1.18514 0
M  V30 5411 H 501.67 3.68828 -1.57374 0
M  V30 5412 H 498.26 3.15262 -2.90358 0
M  V30 5413 H 502.444 3.09166 -3.8824 0
M  V30 5414 H 497.7 3.05646 -5.29519 0
M  V30 5415 H 501.874 3.00712 -6.28128 0
M  V30 5416 H 499.501 2.98483 -6.99151 0
M  V30 5417 N 501.076 1.04316 1.18135 0
M  V30 5418 C 501.986 0.646876 2.25505 0
M  V30 5419 C 503.002 -0.328008 1.7088 0
M  V30 5420 O 504.178 -0.182309 2.00573 0
M  V30 5421 C 501.243 0.0185664 3.46695 0
M  V30 5422 C 500.304 1.04277 4.16443 0
M  V30 5423 C 499.537 0.444352 5.31847 0
M  V30 5424 O 499.76 -0.748735 5.65465 0
M  V30 5425 O 498.694 1.17428 5.90334 0
M  V30 5426 H 502.52 1.54147 2.61672 0
M  V30 5427 H 500.105 0.814188 1.25265 0
M  V30 5428 H 501.987 -0.331068 4.20097 0
M  V30 5429 H 500.662 -0.849814 3.12346 0
M  V30 5430 H 499.569 1.44425 3.45098 0
M  V30 5431 H 500.902 1.882 4.54798 0
M  V30 5432 N 502.554 -1.34406 0.822964 0
M  V30 5433 C 503.486 -2.28305 0.202375 0
M  V30 5434 C 504.499 -1.5103 -0.60777 0
M  V30 5435 O 505.688 -1.73057 -0.437444 0
M  V30 5436 C 502.788 -3.30836 -0.734911 0
M  V30 5437 C 501.961 -4.37388 0.0324177 0
M  V30 5438 C 501.02 -5.1968 -0.825803 0
M  V30 5439 O 500.046 -5.68556 -0.270771 0
M  V30 5440 N 501.248 -5.39393 -2.14558 0
M  V30 5441 H 504.013 -2.82201 1.00909 0
M  V30 5442 H 501.574 -1.4693 0.67993 0
M  V30 5443 H 503.566 -3.82786 -1.31365 0
M  V30 5444 H 502.136 -2.77334 -1.44238 0
M  V30 5445 H 501.356 -3.86152 0.792469 0
M  V30 5446 H 502.644 -5.05702 0.560633 0
M  V30 5447 H 502.042 -5.01357 -2.62025 0
M  V30 5448 H 500.599 -5.94461 -2.67318 0
M  V30 5449 N 504.032 -0.577932 -1.46621 0
M  V30 5450 C 505.26 -0.0671642 -2.06791 0
M  V30 5451 C 505.675 1.23571 -1.42743 0
M  V30 5452 O 505.032 1.74602 -0.531062 0
M  V30 5453 C 505.083 0.110357 -3.61332 0
M  V30 5454 O 504.804 -1.14095 -4.22982 0
M  V30 5455 C 506.305 0.656025 -4.38419 0
M  V30 5456 H 503.525 -0.0552732 -0.66872 0
M  V30 5457 H 506.069 -0.797242 -1.8832 0
M  V30 5458 H 504.224 0.790637 -3.79246 0
M  V30 5459 H 504.638 -0.951742 -5.15793 0
M  V30 5460 H 506.112 0.729438 -5.47159 0
M  V30 5461 H 506.589 1.67195 -4.06131 0
M  V30 5462 H 507.195 0.0107692 -4.25299 0
M  V30 5463 N 505.51 1.54411 -0.315457 0
M  V30 5464 C 506.42 2.27737 0.56329 0
M  V30 5465 C 507.436 1.31787 1.13614 0
M  V30 5466 O 508.612 1.64791 1.15784 0
M  V30 5467 C 505.677 3.01478 1.71207 0
M  V30 5468 C 504.738 4.12997 1.17185 0
M  V30 5469 C 503.971 4.83212 2.26588 0
M  V30 5470 O 504.194 4.52884 3.46775 0
M  V30 5471 O 503.128 5.70299 1.92463 0
M  V30 5472 H 506.954 3.03683 -0.0319614 0
M  V30 5473 H 504.539 1.49178 -0.0814188 0
M  V30 5474 H 506.421 3.47683 2.38106 0
M  V30 5475 H 505.096 2.28414 2.29366 0
M  V30 5476 H 504.003 3.71159 0.468174 0
M  V30 5477 H 505.336 4.8808 0.635501 0
M  V30 5478 N 506.988 0.0434614 1.5754 0
M  V30 5479 C 508.216 -0.641835 1.96693 0
M  V30 5480 C 508.631 -1.64832 0.920652 0
M  V30 5481 O 507.988 -1.82247 -0.095993 0
M  V30 5482 C 508.039 -1.33557 3.35924 0
M  V30 5483 O 507.76 -0.369403 4.3654 0
M  V30 5484 C 509.261 -2.11135 3.89791 0
M  V30 5485 H 506.481 -0.176013 0.647503 0
M  V30 5486 H 509.025 0.107478 2.04217 0
M  V30 5487 H 507.18 -2.03617 3.29574 0
M  V30 5488 H 507.594 -0.863674 5.1734 0
M  V30 5489 H 509.068 -2.55107 4.89514 0
M  V30 5490 H 509.545 -2.95634 3.24803 0
M  V30 5491 H 510.151 -1.46002 3.99454 0
M  V30 5492 N 508.466 -1.55915 -0.229846 0
M  V30 5493 C 509.376 -1.94891 -1.30593 0
M  V30 5494 C 510.392 -0.851604 -1.51736 0
M  V30 5495 O 511.568 -1.15447 -1.65027 0
M  V30 5496 C 508.633 -2.25052 -2.63728 0
M  V30 5497 C 507.694 -3.48306 -2.5096 0
M  V30 5498 C 506.927 -3.77019 -3.77747 0
M  V30 5499 O 507.15 -3.07534 -4.80395 0
M  V30 5500 O 506.084 -4.70523 -3.75356 0
M  V30 5501 H 509.91 -2.86581 -1.00525 0
M  V30 5502 H 507.495 -1.43017 -0.432025 0
M  V30 5503 H 509.377 -2.45682 -3.42372 0
M  V30 5504 H 508.052 -1.36538 -2.93495 0
M  V30 5505 H 506.959 -3.32964 -1.70546 0
M  V30 5506 H 508.292 -4.37177 -2.26136 0
M  V30 5507 N 509.944 0.496216 -1.49584 0
M  V30 5508 C 511.169 1.27865 -1.63295 0
M  V30 5509 C 511.594 1.85592 -0.306156 0
M  V30 5510 O 510.952 1.66092 0.726851 0
M  V30 5511 C 511 2.38128 -2.7079 0
M  V30 5512 O 510.104 3.42108 -2.30296 0
M  V30 5513 H 509.445 0.377279 -0.546403 0
M  V30 5514 H 511.975 0.593497 -1.95803 0
M  V30 5515 H 511.985 2.8382 -2.93104 0
M  V30 5516 H 510.66 1.95479 -3.67098 0
M  V30 5517 H 509.237 3.02301 -2.18331 0
M  V30 5518 N 511.423 1.38739 0.74761 0
M  V30 5519 C 512.651 1.38521 1.53686 0
M  V30 5520 C 513.066 -0.0235129 1.88785 0
M  V30 5521 O 512.423 -0.991662 1.53207 0
M  V30 5522 C 512.474 2.24641 2.83229 0
M  V30 5523 O 512.195 3.60026 2.49625 0
M  V30 5524 C 513.696 2.32669 3.77333 0
M  V30 5525 H 510.916 0.473589 0.475347 0
M  V30 5526 H 513.46 1.82395 0.924786 0
M  V30 5527 H 511.615 1.84213 3.40799 0
M  V30 5528 H 512.029 4.05435 3.3275 0
M  V30 5529 H 513.503 2.97201 4.65162 0
M  V30 5530 H 513.98 1.3421 4.18192 0
M  V30 5531 H 514.586 2.73512 3.25685 0
M  V30 5532 N 512.901 -0.976442 1.23707 0
M  V30 5533 C 513.831 -2.08749 1.04624 0
M  V30 5534 C 514.812 -1.70057 -0.0380956 0
M  V30 5535 O 515.997 -1.93782 0.127308 0
M  V30 5536 C 513.127 -3.41335 0.640902 0
M  V30 5537 C 512.081 -3.93947 1.67302 0
M  V30 5538 C 511.407 -5.22774 1.12301 0
M  V30 5539 C 512.707 -4.22769 3.06697 0
M  V30 5540 H 514.401 -2.24972 1.97555 0
M  V30 5541 H 511.947 -1.08108 0.951247 0
M  V30 5542 H 513.9 -4.18489 0.494434 0
M  V30 5543 H 512.624 -3.24988 -0.324099 0
M  V30 5544 H 511.283 -3.18941 1.80755 0
M  V30 5545 H 510.931 -5.0278 0.148877 0
M  V30 5546 H 510.631 -5.58942 1.81267 0
M  V30 5547 H 512.155 -6.02546 0.988479 0
M  V30 5548 H 513.569 -4.90659 2.96524 0
M  V30 5549 H 511.966 -4.70147 3.72937 0
M  V30 5550 H 513.036 -3.29885 3.55392 0
M  V30 5551 N 514.379 -1.04941 -1.1758 0
M  V30 5552 C 515.604 -0.778253 -1.92245 0
M  V30 5553 C 516.029 0.659707 -1.76152 0
M  V30 5554 O 515.387 1.45803 -1.07755 0
M  V30 5555 C 515.435 -1.16051 -3.41416 0
M  V30 5556 O 514.539 -0.291153 -4.11371 0
M  V30 5557 H 513.88 -0.285619 -0.599431 0
M  V30 5558 H 516.41 -1.40159 -1.49052 0
M  V30 5559 H 516.42 -1.12619 -3.92149 0
M  V30 5560 H 515.095 -2.208 -3.52449 0
M  V30 5561 H 513.672 -0.385851 -3.70898 0
M  V30 5562 N 515.857 1.33968 -0.830081 0
M  V30 5563 C 516.787 2.31911 -0.271911 0
M  V30 5564 C 517.768 1.58571 0.61556 0
M  V30 5565 O 518.953 1.86514 0.540946 0
M  V30 5566 C 516.083 3.42737 0.561146 0
M  V30 5567 C 515.037 4.27383 -0.229789 0
M  V30 5568 C 514.363 5.29742 0.726463 0
M  V30 5569 C 515.663 5.02 -1.44197 0
M  V30 5570 H 517.357 2.78844 -1.09025 0
M  V30 5571 H 514.903 1.34061 -0.52571 0
M  V30 5572 H 516.856 4.10276 0.961867 0
M  V30 5573 H 515.58 2.94471 1.41261 0
M  V30 5574 H 514.239 3.61456 -0.611964 0
M  V30 5575 H 513.887 4.77736 1.57408 0
M  V30 5576 H 513.587 5.87255 0.20142 0
M  V30 5577 H 515.111 6.00149 1.12489 0
M  V30 5578 H 516.525 5.62355 -1.11488 0
M  V30 5579 H 514.922 5.69122 -1.90317 0
M  V30 5580 H 515.992 4.31281 -2.2164 0
M  V30 5581 N 517.335 0.585699 1.46312 0
M  V30 5582 C 518.282 -0.145835 2.30339 0
M  V30 5583 C 519.252 -0.881215 1.40797 0
M  V30 5584 O 520.437 -0.871293 1.69744 0
M  V30 5585 C 517.577 -1.15161 3.25318 0
M  V30 5586 C 516.69 -0.419367 4.2996 0
M  V30 5587 C 515.825 -1.41293 5.12064 0
M  V30 5588 C 514.864 -0.667261 6.08452 0
M  V30 5589 N 514.001 -1.60903 6.83414 0
M  V30 5590 H 518.841 0.576755 2.92365 0
M  V30 5591 H 516.378 0.296237 1.44086 0
M  V30 5592 H 518.336 -1.74763 3.78832 0
M  V30 5593 H 516.966 -1.84188 2.65094 0
M  V30 5594 H 516.018 0.291751 3.7928 0
M  V30 5595 H 517.33 0.163433 4.98532 0
M  V30 5596 H 516.484 -2.08167 5.6987 0
M  V30 5597 H 515.223 -2.02966 4.43459 0
M  V30 5598 H 514.228 0.0152356 5.49798 0
M  V30 5599 H 515.453 -0.0558817 6.79077 0
M  V30 5600 H 513.399 -2.21381 6.17516 0
M  V30 5601 H 513.316 -1.07911 7.48259 0
M  V30 5602 H 514.584 -2.26802 7.45775 0
M  V30 5603 N 518.813 -1.54241 0.323641 0
M  V30 5604 C 519.761 -2.25813 -0.557804 0
M  V30 5605 C 520.755 -1.27225 -1.11849 0
M  V30 5606 O 521.961 -1.45001 -1.06652 0
M  V30 5607 H 518.336 -0.72532 -0.198532 0
M  V30 5608 H 520.307 -2.98322 0.0681112 0
M  V30 5609 C 519.056 -3.02913 -1.70701 0
M  V30 5610 H 518.379 -3.78593 -1.28482 0
M  V30 5611 H 519.819 -3.56238 -2.29935 0
M  V30 5612 C 518.278 -2.11217 -2.62467 0
M  V30 5613 O 518.808 -1.69508 -3.64184 0
M  V30 5614 N 517.014 -1.76704 -2.30703 0
M  V30 5615 H 516.561 -2.1082 -1.48029 0
M  V30 5616 H 516.519 -1.15631 -2.92364 0
M  V30 5617 N 520.291 -0.0518155 -1.57515 0
M  V30 5618 C 521.702 0.483787 -1.80323 0
M  V30 5619 C 522.053 1.70879 -0.964099 0
M  V30 5620 O 521.178 2.15643 -0.180872 0
M  V30 5621 C 521.773 0.884459 -3.27052 0
M  V30 5622 C 520.332 1.36504 -3.50776 0
M  V30 5623 C 519.479 0.340539 -2.75201 0
M  V30 5624 H 522.43 -0.277691 -1.56252 0
M  V30 5625 H 522.451 1.74733 -3.38007 0
M  V30 5626 H 521.963 -0.00731093 -3.88099 0
M  V30 5627 H 520.064 2.27598 -2.95009 0
M  V30 5628 H 520.177 1.35675 -4.59488 0
M  V30 5629 H 518.541 0.81356 -2.41357 0
M  V30 5630 H 519.324 -0.543156 -3.38976 0
M  V30 5631 N 521.769 1.56035 0.221574 0
M  V30 5632 C 523.018 1.78245 0.944016 0
M  V30 5633 C 523.331 0.620371 1.85501 0
M  V30 5634 O 524.537 0.726103 2.6161 0
M  V30 5635 C 522.993 3.15659 1.7288 0
M  V30 5636 C 522.601 4.39591 0.863942 0
M  V30 5637 C 524.345 3.47195 2.44246 0
M  V30 5638 C 522.252 5.6803 1.64607 0
M  V30 5639 H 521.182 0.664547 0.356222 0
M  V30 5640 H 523.833 1.8243 0.197904 0
M  V30 5641 H 522.215 3.0565 2.51781 0
M  V30 5642 H 523.389 4.60655 0.115464 0
M  V30 5643 H 521.704 4.15572 0.262407 0
M  V30 5644 H 524.301 4.40381 3.03263 0
M  V30 5645 H 524.644 2.69693 3.1713 0
M  V30 5646 H 525.177 3.58533 1.72334 0
M  V30 5647 H 521.916 6.48425 0.960507 0
M  V30 5648 H 521.436 5.51027 2.36917 0
M  V30 5649 H 523.115 6.08203 2.20675 0
M  V30 5650 N 523.247 -0.488276 1.49845 0
M  V30 5651 C 524.475 -1.26527 1.63702 0
M  V30 5652 C 524.89 -1.8618 0.313447 0
M  V30 5653 O 524.247 -1.68432 -0.702624 0
M  V30 5654 C 524.298 -2.3864 2.71538 0
M  V30 5655 O 524.019 -1.81437 3.98763 0
M  V30 5656 C 525.52 -3.29805 2.96215 0
M  V30 5657 H 522.74 -0.383295 0.55075 0
M  V30 5658 H 525.284 -0.584779 1.95961 0
M  V30 5659 H 523.439 -3.02496 2.42023 0
M  V30 5660 H 523.853 -2.55135 4.58265 0
M  V30 5661 H 525.327 -4.04722 3.75372 0
M  V30 5662 H 525.804 -3.87563 2.06619 0
M  V30 5663 H 526.41 -2.71703 3.27196 0
M  V30 5664 N 524.725 -1.39134 -0.740242 0
M  V30 5665 C 525.95 -1.39518 -1.53459 0
M  V30 5666 C 526.375 0.00968883 -1.88098 0
M  V30 5667 O 525.733 0.995312 -1.51536 0
M  V30 5668 C 525.781 -2.26981 -2.802 0
M  V30 5669 O 524.885 -1.69609 -3.75908 0
M  V30 5670 H 524.226 -0.475328 -0.463637 0
M  V30 5671 H 526.756 -1.83064 -0.913717 0
M  V30 5672 H 526.766 -2.41309 -3.28989 0
M  V30 5673 H 525.441 -3.29081 -2.5432 0
M  V30 5674 H 524.018 -1.64495 -3.34658 0
M  V30 5675 N 526.204 0.969867 -1.24223 0
M  V30 5676 C 527.615 1.52717 -1.07399 0
M  V30 5677 C 527.966 1.92956 0.355298 0
M  V30 5678 O 527.091 1.77112 1.2434 0
M  V30 5679 C 527.686 2.77521 -1.94339 0
M  V30 5680 C 526.245 3.29615 -1.81744 0
M  V30 5681 C 525.392 2.02537 -1.89405 0
M  V30 5682 H 528.343 0.788399 -1.37732 0
M  V30 5683 H 528.364 3.50773 -1.47439 0
M  V30 5684 H 527.876 2.48203 -2.98357 0
M  V30 5685 H 525.977 3.63789 -0.805505 0
M  V30 5686 H 526.09 3.98661 -2.65718 0
M  V30 5687 H 524.454 2.17151 -1.33108 0
M  V30 5688 H 525.237 1.75587 -2.94999 0
M  V30 5689 N 527.682 1.05563 1.17022 0
M  V30 5690 C 528.928 0.769074 1.87652 0
M  V30 5691 C 529.261 -0.702326 1.81055 0
M  V30 5692 O 528.536 -1.5139 1.22112 0
M  V30 5693 C 528.819 1.25492 3.37526 0
M  V30 5694 C 528.672 2.78953 3.52853 0
M  V30 5695 C 529.991 0.856919 4.31677 0
M  V30 5696 H 527.11 0.280854 0.681388 0
M  V30 5697 H 529.752 1.31027 1.37593 0
M  V30 5698 H 527.902 0.794516 3.80289 0
M  V30 5699 H 529.574 3.33146 3.19079 0
M  V30 5700 H 527.817 3.18046 2.95007 0
M  V30 5701 H 528.488 3.08011 4.58076 0
M  V30 5702 H 530.964 1.25334 3.96775 0
M  V30 5703 H 529.84 1.22443 5.35069 0
M  V30 5704 H 530.101 -0.238787 4.41455 0
M  V30 5705 N 529.16 -1.33526 0.837174 0
M  V30 5706 C 530.406 -1.9813 0.432704 0
M  V30 5707 C 530.739 -1.66168 -1.00508 0
M  V30 5708 O 530.014 -0.94069 -1.70239 0
M  V30 5709 C 530.297 -3.54151 0.651834 0
M  V30 5710 C 530.15 -3.95806 2.13676 0
M  V30 5711 C 531.469 -4.39993 0.0968937 0
M  V30 5712 H 528.588 -0.719713 0.15869 0
M  V30 5713 H 531.23 -1.58193 1.05237 0
M  V30 5714 H 529.38 -3.88301 0.124369 0
M  V30 5715 H 531.052 -3.71921 2.72896 0
M  V30 5716 H 529.295 -3.45599 2.62191 0
M  V30 5717 H 529.966 -5.0447 2.24084 0
M  V30 5718 H 532.442 -4.12479 0.547733 0
M  V30 5719 H 531.318 -5.48186 0.279917 0
M  V30 5720 H 531.579 -4.3066 -0.9992 0
M  V30 5721 N 530.638 -0.59345 -1.46 0
M  V30 5722 C 531.866 -0.0890934 -2.06708 0
M  V30 5723 C 532.281 1.2205 -1.44046 0
M  V30 5724 O 531.638 1.74029 -0.549551 0
M  V30 5725 C 531.689 0.0720263 -3.61428 0
M  V30 5726 O 531.41 -1.18574 -4.21748 0
M  V30 5727 C 532.911 0.609487 -4.3909 0
M  V30 5728 H 530.131 -0.0623628 -0.668096 0
M  V30 5729 H 532.675 -0.817171 -1.87464 0
M  V30 5730 H 530.83 0.750369 -3.80063 0
M  V30 5731 H 531.244 -1.0064 -5.14754 0
M  V30 5732 H 532.718 0.671363 -5.47902 0
M  V30 5733 H 533.195 1.62878 -4.07882 0
M  V30 5734 H 533.801 -0.03434 -4.25286 0
M  V30 5735 N 532.116 1.54067 -0.331816 0
M  V30 5736 C 533.048 2.22139 0.564538 0
M  V30 5737 C 534.061 1.22408 1.07332 0
M  V30 5738 O 535.25 1.4883 0.985481 0
M  V30 5739 C 532.35 2.87876 1.78831 0
M  V30 5740 C 531.523 4.13817 1.41682 0
M  V30 5741 C 530.582 4.63072 2.49901 0
M  V30 5742 O 529.608 5.27562 2.13699 0
M  V30 5743 N 530.81 4.38001 3.80967 0
M  V30 5744 H 533.575 2.99694 -0.0183736 0
M  V30 5745 H 531.136 1.61153 -0.155396 0
M  V30 5746 H 533.128 3.17747 2.50637 0
M  V30 5747 H 531.698 2.13977 2.27887 0
M  V30 5748 H 530.918 3.9062 0.530044 0
M  V30 5749 H 532.206 4.95762 1.14443 0
M  V30 5750 H 531.604 3.864 4.13173 0
M  V30 5751 H 530.161 4.72507 4.48977 0
M  V30 5752 N 533.594 0.0601682 1.57485 0
M  V30 5753 C 534.541 -0.91112 2.12055 0
M  V30 5754 C 535.511 -1.30298 1.03013 0
M  V30 5755 O 536.696 -1.39087 1.30612 0
M  V30 5756 C 533.836 -2.1775 2.67729 0
M  V30 5757 C 532.949 -1.83933 3.90887 0
M  V30 5758 C 532.084 -3.05096 4.34845 0
M  V30 5759 C 531.123 -2.67241 5.5068 0
M  V30 5760 N 530.26 -3.81127 5.8965 0
M  V30 5761 H 535.1 -0.43888 2.9475 0
M  V30 5762 H 532.637 -0.204995 1.45665 0
M  V30 5763 H 534.595 -2.91866 2.98111 0
M  V30 5764 H 533.225 -2.62535 1.87816 0
M  V30 5765 H 532.277 -0.999287 3.6704 0
M  V30 5766 H 533.589 -1.52074 4.75052 0
M  V30 5767 H 532.743 -3.87502 4.66827 0
M  V30 5768 H 531.482 -3.40139 3.49509 0
M  V30 5769 H 530.487 -1.83254 5.18361 0
M  V30 5770 H 531.712 -2.3338 6.37738 0
M  V30 5771 H 529.658 -4.15954 5.07266 0
M  V30 5772 H 529.575 -3.52997 6.68528 0
M  V30 5773 H 530.843 -4.64145 6.2625 0
M  V30 5774 N 535.072 -1.5615 -0.213296 0
M  V30 5775 C 536.019 -1.93086 -1.26437 0
M  V30 5776 C 536.989 -0.789086 -1.4616 0
M  V30 5777 O 538.174 -1.04569 -1.59593 0
M  V30 5778 C 535.314 -2.26003 -2.608 0
M  V30 5779 C 534.427 -3.53156 -2.48807 0
M  V30 5780 C 533.562 -3.7548 -3.7575 0
M  V30 5781 C 532.601 -4.96119 -3.58514 0
M  V30 5782 N 531.738 -5.14791 -4.77425 0
M  V30 5783 H 536.578 -2.82707 -0.942376 0
M  V30 5784 H 534.115 -1.39919 -0.454001 0
M  V30 5785 H 536.073 -2.431 -3.39055 0
M  V30 5786 H 534.703 -1.39546 -2.91079 0
M  V30 5787 H 533.755 -3.44207 -1.61944 0
M  V30 5788 H 535.067 -4.41565 -2.31996 0
M  V30 5789 H 534.221 -3.92718 -4.62447 0
M  V30 5790 H 532.96 -2.85368 -3.95495 0
M  V30 5791 H 531.965 -4.78823 -2.70201 0
M  V30 5792 H 533.19 -5.87724 -3.40231 0
M  V30 5793 H 531.136 -4.27623 -4.97468 0
M  V30 5794 H 531.053 -5.97347 -4.63371 0
M  V30 5795 H 532.321 -5.36471 -5.65525 0
M  V30 5796 N 536.55 0.480323 -1.50102 0
M  V30 5797 C 537.796 1.23489 -1.60867 0
M  V30 5798 C 538.129 1.91809 -0.303827 0
M  V30 5799 O 537.404 1.81694 0.694092 0
M  V30 5800 C 537.687 2.28578 -2.78252 0
M  V30 5801 C 537.54 1.64624 -4.18592 0
M  V30 5802 C 538.859 3.2997 -2.91218 0
M  V30 5803 H 535.978 0.447605 -0.585507 0
M  V30 5804 H 538.62 0.530005 -1.82458 0
M  V30 5805 H 536.77 2.88697 -2.59974 0
M  V30 5806 H 538.442 1.08173 -4.48438 0
M  V30 5807 H 536.685 0.949645 -4.23278 0
M  V30 5808 H 537.356 2.40946 -4.96638 0
M  V30 5809 H 539.832 2.79864 -3.07921 0
M  V30 5810 H 538.708 4.00839 -3.74993 0
M  V30 5811 H 538.969 3.93541 -2.0144 0
M  V30 5812 N 538.028 1.39524 0.732853 0
M  V30 5813 C 539.439 1.32905 1.31122 0
M  V30 5814 C 539.79 -0.00558708 1.96199 0
M  V30 5815 O 538.915 -0.907706 1.96443 0
M  V30 5816 C 539.51 2.40704 2.38426 0
M  V30 5817 C 538.069 2.37599 2.91931 0
M  V30 5818 C 537.216 2.2248 1.65523 0
M  V30 5819 H 540.167 1.49581 0.530207 0
M  V30 5820 H 540.188 2.07616 3.18867 0
M  V30 5821 H 539.7 3.37829 1.91033 0
M  V30 5822 H 537.801 1.44119 3.43599 0
M  V30 5823 H 537.914 3.32538 3.44899 0
M  V30 5824 H 536.278 1.69691 1.8994 0
M  V30 5825 H 537.061 3.21577 1.20178 0
M  V30 5826 N 539.506 -0.963266 1.24736 0
M  V30 5827 C 540.783 -1.68248 0.9976 0
M  V30 5828 C 541.163 -2.05599 -0.478776 0
M  V30 5829 O 540.511 -1.7626 -1.45412 0
M  V30 5830 C 540.721 -2.91118 1.92487 0
M  V30 5831 C 542.069 -3.63261 2.19833 0
M  V30 5832 O 543.093 -3.01184 1.90176 0
M  V30 5833 O 541.952 -4.75019 2.7022 0
M  V30 5834 H 539.046 -0.735744 0.377637 0
M  V30 5835 H 541.592 -1.01696 1.35853 0
M  V30 5836 H 540.364 -2.60242 2.92215 0
M  V30 5837 H 539.987 -3.65402 1.56738 0
M  V30 5838 N 540.985 -1.06182 -1.16461 0
M  V30 5839 C 541.933 -0.665716 -2.2287 0
M  V30 5840 C 542.927 0.317822 -1.66392 0
M  V30 5841 O 544.133 0.182807 -1.79069 0
M  V30 5842 H 540.508 -0.197148 -0.725697 0
M  V30 5843 H 542.479 -1.57307 -2.53569 0
M  V30 5844 C 541.228 -0.0669803 -3.47635 0
M  V30 5845 H 540.551 -0.814899 -3.91407 0
M  V30 5846 H 541.991 0.172669 -4.23648 0
M  V30 5847 C 540.45 1.18913 -3.15216 0
M  V30 5848 O 540.98 2.27723 -3.30916 0
M  V30 5849 N 539.186 1.09066 -2.69357 0
M  V30 5850 H 538.733 0.20518 -2.56782 0
M  V30 5851 H 538.691 1.93195 -2.48039 0
M  V30 5852 N 542.463 1.3308 -0.844243 0
M  V30 5853 C 543.703 1.99414 -0.448697 0
M  V30 5854 C 544.067 1.65398 0.975058 0
M  V30 5855 O 545.268 2.24741 1.47461 0
M  V30 5856 C 543.539 3.51081 -0.669089 0
M  V30 5857 S 545.098 4.37241 -0.369564 0
M  V30 5858 H 541.916 0.690736 -0.168538 0
M  V30 5859 H 544.518 1.61977 -1.0947 0
M  V30 5860 H 543.222 3.73326 -1.70457 0
M  V30 5861 H 542.753 3.93399 -0.00913211 0
M  V30 5862 H 544.768 4.89568 0.808552 0
M  V30 5863 N 543.941 0.601185 1.45683 0
M  V30 5864 C 545.181 0.0968037 2.04171 0
M  V30 5865 C 545.545 -1.2466 1.46027 0
M  V30 5866 O 546.746 -1.84132 1.95829 0
M  V30 5867 C 545.017 0.051384 3.57363 0
M  V30 5868 S 546.576 -0.392737 4.37039 0
M  V30 5869 H 543.394 0.0464504 0.709481 0
M  V30 5870 H 545.996 0.797846 1.78479 0
M  V30 5871 H 544.7 1.03274 3.97193 0
M  V30 5872 H 544.231 -0.671853 3.87621 0
M  V30 5873 H 546.246 -1.64364 4.68187 0
M  V30 5874 N 545.419 -1.53889 0.339982 0
M  V30 5875 C 546.835 -1.59595 -0.0120752 0
M  V30 5876 C 547.035 -1.35605 -1.49042 0
M  V30 5877 O 546.091 -1.14856 -2.24865 0
M  V30 5878 C 547.404 -2.9774 0.420898 0
M  V30 5879 C 548.952 -3.1077 0.37294 0
M  V30 5880 C 549.427 -4.51286 0.781327 0
M  V30 5881 N 550.918 -4.57325 0.735374 0
M  V30 5882 C 551.653 -5.64194 1.02336 0
M  V30 5883 N 551.149 -6.7893 1.37933 0
M  V30 5884 N 552.942 -5.54051 0.947838 0
M  V30 5885 H 545.093 -1.67738 1.30299 0
M  V30 5886 H 547.356 -0.785385 0.530918 0
M  V30 5887 H 547.062 -3.20349 1.45152 0
M  V30 5888 H 546.936 -3.76639 -0.205721 0
M  V30 5889 H 549.323 -2.87886 -0.648505 0
M  V30 5890 H 549.404 -2.33939 1.03472 0
M  V30 5891 H 549.048 -4.74905 1.80077 0
M  V30 5892 H 548.978 -5.26511 0.0970679 0
M  V30 5893 H 551.469 -3.74931 0.472773 0
M  V30 5894 H 551.782 -7.56392 1.58402 0
M  V30 5895 H 550.127 -6.80386 1.41774 0
M  V30 5896 H 553.318 -4.63293 0.669115 0
M  V30 5897 H 553.491 -6.37246 1.17563 0
M  V30 5898 N 546.897 -0.0685191 -1.57451 0
M  V30 5899 C 548.313 0.288101 -1.56978 0
M  V30 5900 C 548.513 1.70262 -1.07765 0
M  V30 5901 O 547.569 2.4135 -0.742054 0
M  V30 5902 C 548.882 0.100745 -3.00531 0
M  V30 5903 C 550.43 0.170531 -3.12535 0
M  V30 5904 C 550.905 0.0114944 -4.57999 0
M  V30 5905 N 552.396 0.0672065 -4.63151 0
M  V30 5906 C 553.131 -0.0314813 -5.73391 0
M  V30 5907 N 552.627 -0.183503 -6.92557 0
M  V30 5908 N 554.42 0.0253489 -5.62094 0
M  V30 5909 H 546.571 -0.993026 -1.87757 0
M  V30 5910 H 548.834 -0.386981 -0.865419 0
M  V30 5911 H 548.54 -0.875197 -3.40636 0
M  V30 5912 H 548.414 0.854457 -3.67395 0
M  V30 5913 H 550.801 1.13696 -2.72318 0
M  V30 5914 H 550.882 -0.614229 -2.48316 0
M  V30 5915 H 550.526 -0.951684 -4.98904 0
M  V30 5916 H 550.456 0.815617 -5.20245 0
M  V30 5917 H 552.947 0.183246 -3.77455 0
M  V30 5918 H 553.26 -0.251041 -7.72392 0
M  V30 5919 H 551.605 -0.218822 -6.94655 0
M  V30 5920 H 554.796 0.142794 -4.67882 0
M  V30 5921 H 554.969 -0.0550166 -6.47977 0
M  V30 5922 N 548.375 1.56261 0.205012 0
M  V30 5923 C 549.285 1.96944 1.27476 0
M  V30 5924 C 550.301 0.875636 1.50362 0
M  V30 5925 O 551.477 1.18058 1.6317 0
M  V30 5926 C 548.542 2.29219 2.60115 0
M  V30 5927 C 547.603 3.52255 2.45387 0
M  V30 5928 C 546.836 3.8298 3.71701 0
M  V30 5929 O 547.059 3.15138 4.75441 0
M  V30 5930 O 545.993 4.76435 3.67823 0
M  V30 5931 H 549.819 2.88144 0.959527 0
M  V30 5932 H 547.404 1.43686 0.409217 0
M  V30 5933 H 549.286 2.51098 3.3842 0
M  V30 5934 H 547.961 1.4119 2.91285 0
M  V30 5935 H 546.868 3.35635 1.65227 0
M  V30 5936 H 548.201 4.40719 2.19152 0
M  V30 5937 N 549.853 -0.472356 1.50355 0
M  V30 5938 C 551.264 -1.05326 1.54154 0
M  V30 5939 C 551.615 -1.93155 0.344303 0
M  V30 5940 O 550.74 -2.09479 -0.542928 0
M  V30 5941 C 551.335 -1.91691 2.79356 0
M  V30 5942 C 549.894 -2.44892 2.8584 0
M  V30 5943 C 549.041 -1.23205 2.48426 0
M  V30 5944 H 551.992 -0.255027 1.56637 0
M  V30 5945 H 552.013 -2.76742 2.6114 0
M  V30 5946 H 551.525 -1.27741 3.66475 0
M  V30 5947 H 549.626 -3.12399 2.0307 0
M  V30 5948 H 549.739 -2.80086 3.88701 0
M  V30 5949 H 548.103 -1.56643 2.00836 0
M  V30 5950 H 548.886 -0.609194 3.37852 0
M  V30 5951 N 551.331 -1.39911 -0.725443 0
M  V30 5952 C 552.264 -1.33788 -1.84867 0
M  V30 5953 C 553.242 -0.209907 -1.61239 0
M  V30 5954 O 554.426 -0.391943 -1.8438 0
M  V30 5955 C 551.553 -1.07975 -3.21028 0
M  V30 5956 C 550.599 -2.23092 -3.635 0
M  V30 5957 S 551.432 -3.85431 -3.71757 0
M  V30 5958 C 552.588 -3.61862 -5.10692 0
M  V30 5959 H 552.821 -2.28848 -1.89779 0
M  V30 5960 H 550.354 -1.26079 -0.891254 0
M  V30 5961 H 552.312 -0.937669 -3.99647 0
M  V30 5962 H 550.973 -0.145865 -3.13761 0
M  V30 5963 H 550.166 -2.00647 -4.62338 0
M  V30 5964 H 549.768 -2.33553 -2.92112 0
M  V30 5965 H 552.06 -3.19719 -5.97316 0
M  V30 5966 H 553.003 -4.60196 -5.38169 0
M  V30 5967 H 553.411 -2.95757 -4.8082 0
M  V30 5968 N 552.809 0.956637 -1.25245 0
M  V30 5969 C 553.739 2.07058 -1.07931 0
M  V30 5970 C 554.72 1.70096 0.0110361 0
M  V30 5971 O 555.905 1.93555 -0.158121 0
M  V30 5972 C 553.035 3.40272 -0.695124 0
M  V30 5973 C 551.989 3.91235 -1.73549 0
M  V30 5974 C 551.315 5.20921 -1.20604 0
M  V30 5975 C 552.615 4.17837 -3.13385 0
M  V30 5976 H 554.309 2.218 -2.01109 0
M  V30 5977 H 551.855 1.06581 -0.968326 0
M  V30 5978 H 553.808 4.1765 -0.560949 0
M  V30 5979 H 552.532 3.25462 0.272355 0
M  V30 5980 H 551.191 3.16025 -1.85807 0
M  V30 5981 H 550.839 5.02479 -0.228846 0
M  V30 5982 H 550.539 5.55987 -1.90136 0
M  V30 5983 H 552.063 6.00897 -1.08421 0
M  V30 5984 H 553.477 4.8588 -3.04292 0
M  V30 5985 H 551.874 4.64154 -3.80369 0
M  V30 5986 H 552.944 3.2419 -3.60595 0
M  V30 5987 N 554.287 1.06798 1.15896 0
M  V30 5988 C 555.533 0.788934 1.86825 0
M  V30 5989 C 555.866 -0.683084 1.8179 0
M  V30 5990 O 555.141 -1.50086 1.23711 0
M  V30 5991 C 555.424 1.29065 3.36176 0
M  V30 5992 C 555.277 2.8268 3.49874 0
M  V30 5993 C 556.596 0.902655 4.30744 0
M  V30 5994 H 553.715 0.288066 0.678371 0
M  V30 5995 H 556.357 1.32479 1.36195 0
M  V30 5996 H 554.507 0.834806 3.79425 0
M  V30 5997 H 556.179 3.36511 3.15528 0
M  V30 5998 H 554.422 3.21157 2.91617 0
M  V30 5999 H 555.093 3.12852 4.54783 0
M  V30 6000 H 557.569 1.29535 3.95424 0
M  V30 6001 H 556.445 1.28111 5.3374 0
M  V30 6002 H 556.706 -0.191951 4.41683 0
M  V30 6003 N 555.766 -1.3263 0.851289 0
M  V30 6004 C 557.182 -1.50162 0.5407 0
M  V30 6005 C 557.382 -1.78788 -0.929369 0
M  V30 6006 O 556.438 -1.85545 -1.71258 0
M  V30 6007 C 557.751 -2.64803 1.42478 0
M  V30 6008 C 559.299 -2.78688 1.42485 0
M  V30 6009 C 559.774 -3.96405 2.29407 0
M  V30 6010 N 561.265 -4.0366 2.27184 0
M  V30 6011 C 562 -4.93971 2.9117 0
M  V30 6012 N 561.496 -5.89313 3.64256 0
M  V30 6013 N 563.289 -4.87066 2.80576 0
M  V30 6014 H 555.44 -1.12315 1.80275 0
M  V30 6015 H 557.703 -0.553266 0.769806 0
M  V30 6016 H 557.409 -2.50368 2.46999 0
M  V30 6017 H 557.283 -3.60506 1.10974 0
M  V30 6018 H 559.67 -2.92547 0.387304 0
M  V30 6019 H 559.751 -1.83708 1.78002 0
M  V30 6020 H 559.395 -3.83304 3.33228 0
M  V30 6021 H 559.325 -4.90654 1.91224 0
M  V30 6022 H 561.816 -3.35435 1.74045 0
M  V30 6023 H 562.129 -6.54913 4.10255 0
M  V30 6024 H 560.474 -5.8935 3.68364 0
M  V30 6025 H 563.665 -4.11552 2.23031 0
M  V30 6026 H 563.838 -5.57248 3.30725 0
M  V30 6027 N 557.244 -0.608902 -1.45362 0
M  V30 6028 C 558.192 0.121639 -2.32282 0
M  V30 6029 C 559.186 0.858301 -1.46046 0
M  V30 6030 O 560.392 0.773718 -1.62523 0
M  V30 6031 H 556.767 0.058086 -0.749753 0
M  V30 6032 H 558.738 -0.629866 -2.91677 0
M  V30 6033 C 557.487 1.1047 -3.29684 0
M  V30 6034 H 556.81 0.547278 -3.96036 0
M  V30 6035 H 558.25 1.58576 -3.9323 0
M  V30 6036 C 556.709 2.17891 -2.56954 0
M  V30 6037 O 557.239 3.25652 -2.35189 0
M  V30 6038 N 555.445 1.93211 -2.17066 0
M  V30 6039 H 554.992 1.05584 -2.34967 0
M  V30 6040 H 554.95 2.6529 -1.68727 0
M  V30 6041 N 558.722 1.53707 -0.348139 0
M  V30 6042 C 559.67 2.26671 0.521808 0
M  V30 6043 C 560.664 1.28988 1.09811 0
M  V30 6044 O 561.87 1.4668 1.04332 0
M  V30 6045 H 558.245 0.728387 0.186968 0
M  V30 6046 H 560.216 2.98176 -0.115563 0
M  V30 6047 C 558.965 3.05591 1.6586 0
M  V30 6048 H 558.288 3.80589 1.22443 0
M  V30 6049 H 559.728 3.59851 2.24239 0
M  V30 6050 C 558.187 2.15366 2.59073 0
M  V30 6051 O 558.717 1.7528 3.61441 0
M  V30 6052 N 556.923 1.80352 2.27863 0
M  V30 6053 H 556.47 2.13149 1.44656 0
M  V30 6054 H 556.428 1.20268 2.90488 0
M  V30 6055 N 560.2 0.0768682 1.57412 0
M  V30 6056 C 561.132 -0.918248 2.10002 0
M  V30 6057 C 562.145 -1.25808 1.03325 0
M  V30 6058 O 563.334 -1.21438 1.30824 0
M  V30 6059 C 560.434 -2.23263 2.54964 0
M  V30 6060 C 559.607 -2.07088 3.8527 0
M  V30 6061 C 558.666 -3.21876 4.16272 0
M  V30 6062 O 557.692 -2.96643 4.8579 0
M  V30 6063 N 558.894 -4.4712 3.70221 0
M  V30 6064 H 561.659 -0.469209 2.96004 0
M  V30 6065 H 559.22 -0.108725 1.61535 0
M  V30 6066 H 561.212 -2.9897 2.72762 0
M  V30 6067 H 559.782 -2.59649 1.74072 0
M  V30 6068 H 559.002 -1.15818 3.76802 0
M  V30 6069 H 560.29 -1.93537 4.70554 0
M  V30 6070 H 559.688 -4.70506 3.1407 0
M  V30 6071 H 558.245 -5.19837 3.93209 0
M  V30 6072 N 561.678 -1.56367 -0.196722 0
M  V30 6073 C 562.625 -1.94417 -1.24382 0
M  V30 6074 C 563.595 -0.804543 -1.45315 0
M  V30 6075 O 564.78 -1.06256 -1.58475 0
M  V30 6076 C 561.92 -2.28757 -2.58388 0
M  V30 6077 C 561.033 -3.55775 -2.45047 0
M  V30 6078 C 560.168 -3.79445 -3.71746 0
M  V30 6079 C 559.207 -4.99894 -3.53231 0
M  V30 6080 N 558.344 -5.19826 -4.71938 0
M  V30 6081 H 563.184 -2.83691 -0.912338 0
M  V30 6082 H 560.721 -1.40392 -0.439135 0
M  V30 6083 H 562.679 -2.46682 -3.36457 0
M  V30 6084 H 561.309 -1.42625 -2.89582 0
M  V30 6085 H 560.361 -3.45905 -1.58284 0
M  V30 6086 H 561.673 -4.44 -2.27299 0
M  V30 6087 H 560.827 -3.97601 -4.58256 0
M  V30 6088 H 559.566 -2.89546 -3.92446 0
M  V30 6089 H 558.571 -4.81662 -2.65107 0
M  V30 6090 H 559.796 -5.913 -3.33978 0
M  V30 6091 H 557.742 -4.32875 -4.92905 0
M  V30 6092 H 557.659 -6.02228 -4.57009 0
M  V30 6093 H 558.927 -5.42439 -5.59803 0
M  V30 6094 N 563.156 0.464375 -1.50603 0
M  V30 6095 C 564.396 1.22573 -1.6357 0
M  V30 6096 C 564.76 1.89111 -0.331834 0
M  V30 6097 O 565.961 2.66679 -0.336999 0
M  V30 6098 C 564.232 2.23643 -2.7878 0
M  V30 6099 S 565.791 3.08628 -3.1192 0
M  V30 6100 H 562.609 0.416058 -0.576556 0
M  V30 6101 H 565.211 0.521637 -1.88412 0
M  V30 6102 H 563.915 1.73354 -3.7199 0
M  V30 6103 H 563.446 2.98672 -2.56044 0
M  V30 6104 H 565.461 4.24904 -2.56264 0
M  V30 6105 N 564.634 1.40294 0.718013 0
M  V30 6106 C 565.911 1.2894 1.47084 0
M  V30 6107 C 566.291 -0.0933625 2.10893 0
M  V30 6108 O 565.639 -1.10598 1.99951 0
M  V30 6109 C 565.849 2.4264 2.50852 0
M  V30 6110 C 567.197 2.8276 3.16752 0
M  V30 6111 O 568.221 2.42215 2.61171 0
M  V30 6112 O 567.08 3.528 4.17366 0
M  V30 6113 H 564.174 0.506236 0.653952 0
M  V30 6114 H 566.72 1.52208 0.750394 0
M  V30 6115 H 565.492 3.35009 2.022 0
M  V30 6116 H 565.115 2.21129 3.30435 0
M  V30 6117 N 566.112 -0.949982 1.2575 0
M  V30 6118 C 567.337 -1.73503 1.13628 0
M  V30 6119 C 567.762 -1.85601 -0.30559 0
M  V30 6120 O 567.12 -1.33984 -1.22139 0
M  V30 6121 C 567.168 -3.1243 1.80055 0
M  V30 6122 O 566.272 -3.97916 1.08336 0
M  V30 6123 H 565.613 -0.532665 0.396439 0
M  V30 6124 H 568.143 -1.19043 1.66403 0
M  V30 6125 H 568.153 -3.62866 1.86527 0
M  V30 6126 H 566.828 -3.02941 2.84956 0
M  V30 6127 H 565.405 -3.56375 1.09777 0
M  V30 6128 N 567.59 -1.07411 -1.15328 0
M  V30 6129 C 568.836 -0.798831 -1.86404 0
M  V30 6130 C 569.169 0.673433 -1.8215 0
M  V30 6131 O 568.444 1.49428 -1.24505 0
M  V30 6132 C 568.727 -1.30846 -3.35487 0
M  V30 6133 C 568.58 -2.84532 -3.4837 0
M  V30 6134 C 569.899 -0.925486 -4.30259 0
M  V30 6135 H 567.018 -0.291659 -0.676834 0
M  V30 6136 H 569.66 -1.332 -1.35491 0
M  V30 6137 H 567.81 -0.854916 -3.78977 0
M  V30 6138 H 569.482 -3.3818 -3.13739 0
M  V30 6139 H 567.725 -3.22699 -2.8991 0
M  V30 6140 H 568.396 -3.15259 -4.53118 0
M  V30 6141 H 570.872 -1.3163 -3.94731 0
M  V30 6142 H 569.748 -1.3094 -5.33053 0
M  V30 6143 H 570.009 0.168525 -4.41779 0
M  V30 6144 N 569.068 1.32177 -0.85831 0
M  V30 6145 C 569.978 2.32561 -0.308606 0
M  V30 6146 C 570.994 1.64209 0.575462 0
M  V30 6147 O 572.17 1.95719 0.474961 0
M  V30 6148 C 569.235 3.43207 0.490909 0
M  V30 6149 C 568.296 4.27243 -0.419733 0
M  V30 6150 C 567.529 5.32605 0.341719 0
M  V30 6151 O 567.752 5.48332 1.57125 0
M  V30 6152 O 566.686 6.0118 -0.294379 0
M  V30 6153 H 570.512 2.81477 -1.14037 0
M  V30 6154 H 568.097 1.35866 -0.621349 0
M  V30 6155 H 569.979 4.10677 0.944574 0
M  V30 6156 H 568.654 2.96474 1.29941 0
M  V30 6157 H 567.561 3.62569 -0.921652 0
M  V30 6158 H 568.894 4.7751 -1.19352 0
M  V30 6159 N 570.547 0.616602 1.45037 0
M  V30 6160 C 571.457 -0.0985401 2.34393 0
M  V30 6161 C 572.473 -0.850971 1.51771 0
M  V30 6162 O 573.649 -0.806521 1.84546 0
M  V30 6163 C 570.714 -1.07748 3.29532 0
M  V30 6164 C 569.775 -0.326022 4.2806 0
M  V30 6165 C 569.008 -1.25833 5.18654 0
M  V30 6166 O 569.231 -2.49652 5.12864 0
M  V30 6167 O 568.165 -0.750512 5.97203 0
M  V30 6168 H 571.991 0.636016 2.96966 0
M  V30 6169 H 569.576 0.376832 1.44569 0
M  V30 6170 H 571.458 -1.64107 3.88133 0
M  V30 6171 H 570.133 -1.79291 2.69512 0
M  V30 6172 H 569.04 0.280253 3.73049 0
M  V30 6173 H 570.373 0.349091 4.9096 0
M  V30 6174 N 572.025 -1.5352 0.356285 0
M  V30 6175 C 572.935 -2.29151 -0.502712 0
M  V30 6176 C 573.951 -1.34753 -1.1008 0
M  V30 6177 O 575.127 -1.67803 -1.11374 0
M  V30 6178 C 572.192 -3.05911 -1.63154 0
M  V30 6179 C 571.253 -4.15958 -1.06194 0
M  V30 6180 C 570.486 -4.8905 -2.13696 0
M  V30 6181 O 570.709 -4.61919 -3.34645 0
M  V30 6182 O 569.643 -5.75202 -1.77275 0
M  V30 6183 H 573.469 -3.03492 0.112466 0
M  V30 6184 H 571.054 -1.4891 0.120942 0
M  V30 6185 H 572.936 -3.53874 -2.28804 0
M  V30 6186 H 571.611 -2.34415 -2.23229 0
M  V30 6187 H 570.518 -3.7227 -0.369603 0
M  V30 6188 H 571.851 -4.89593 -0.505872 0
M  V30 6189 N 573.503 -0.0852151 -1.57369 0
M  V30 6190 C 574.731 0.58946 -1.98325 0
M  V30 6191 C 575.146 1.62333 -0.96403 0
M  V30 6192 O 574.503 1.82438 0.0476395 0
M  V30 6193 C 574.554 1.24604 -3.39347 0
M  V30 6194 O 574.275 0.253532 -4.37366 0
M  V30 6195 C 575.776 2.00726 -3.95252 0
M  V30 6196 H 572.996 0.158783 -0.651942 0
M  V30 6197 H 575.54 -0.161584 -2.03861 0
M  V30 6198 H 573.695 1.94808 -3.34856 0
M  V30 6199 H 574.109 0.726207 -5.19448 0
M  V30 6200 H 575.583 2.42039 -4.96106 0
M  V30 6201 H 576.06 2.86919 -3.32527 0
M  V30 6202 H 576.666 1.3536 -4.03185 0
M  V30 6203 N 574.981 1.5647 0.188427 0
M  V30 6204 C 576.229 1.80655 0.905986 0
M  V30 6205 C 576.55 0.659391 1.83513 0
M  V30 6206 O 575.82 -0.321868 1.93238 0
M  V30 6207 H 574.4 0.666391 0.337538 0
M  V30 6208 H 577.062 1.93949 0.192339 0
M  V30 6209 H 576.158 2.74066 1.49313 0
M  V30 6210 N 576.459 -0.456382 1.50847 0
M  V30 6211 C 577.708 -1.2042 1.61808 0
M  V30 6212 C 578.021 -1.9278 0.330932 0
M  V30 6213 O 579.227 -2.69612 0.319643 0
M  V30 6214 C 577.683 -2.18891 2.85683 0
M  V30 6215 C 577.291 -1.52267 4.2133 0
M  V30 6216 C 579.035 -2.94224 3.05994 0
M  V30 6217 C 576.942 -2.4911 5.36375 0
M  V30 6218 H 575.872 -0.453177 0.602616 0
M  V30 6219 H 578.523 -0.473144 1.77295 0
M  V30 6220 H 576.905 -2.95351 2.63787 0
M  V30 6221 H 578.079 -0.814949 4.53536 0
M  V30 6222 H 576.394 -0.891594 4.06743 0
M  V30 6223 H 578.991 -3.66732 3.89117 0
M  V30 6224 H 579.334 -3.54469 2.18306 0
M  V30 6225 H 579.867 -2.24874 3.28141 0
M  V30 6226 H 576.606 -1.93582 6.26264 0
M  V30 6227 H 576.126 -3.17991 5.08569 0
M  V30 6228 H 577.805 -3.10637 5.67551 0
M  V30 6229 N 577.937 -1.40673 -0.710563 0
M  V30 6230 C 578.885 -1.41517 -1.84596 0
M  V30 6231 C 579.879 -0.295043 -1.66811 0
M  V30 6232 O 581.085 -0.466331 -1.73854 0
M  V30 6233 H 577.46 -0.442467 -0.608052 0
M  V30 6234 H 579.431 -2.37238 -1.80999 0
M  V30 6235 C 578.18 -1.29957 -3.225 0
M  V30 6236 H 577.503 -2.15429 -3.36794 0
M  V30 6237 H 578.943 -1.34608 -4.02066 0
M  V30 6238 C 577.402 -0.0103164 -3.36898 0
M  V30 6239 O 577.932 0.950707 -3.90288 0
M  V30 6240 N 576.138 0.0608409 -2.90536 0
M  V30 6241 H 575.685 -0.721943 -2.47277 0
M  V30 6242 H 575.643 0.92292 -3.00549 0
M  V30 6243 N 579.415 0.9433 -1.26252 0
M  V30 6244 C 580.831 1.21644 -1.03319 0
M  V30 6245 C 581.031 2.0003 0.242983 0
M  V30 6246 O 580.087 2.33838 0.952688 0
M  V30 6247 C 581.4 1.97978 -2.2633 0
M  V30 6248 C 582.948 2.10978 -2.31209 0
M  V30 6249 C 583.423 2.90713 -3.53907 0
M  V30 6250 N 584.914 2.98287 -3.54371 0
M  V30 6251 C 585.649 3.60406 -4.45976 0
M  V30 6252 N 585.145 4.24043 -5.47868 0
M  V30 6253 N 586.938 3.57658 -4.33633 0
M  V30 6254 H 579.089 0.419221 -2.08222 0
M  V30 6255 H 581.352 0.247995 -0.914988 0
M  V30 6256 H 581.058 1.47788 -3.19142 0
M  V30 6257 H 580.932 2.9865 -2.30408 0
M  V30 6258 H 583.319 2.6036 -1.38913 0
M  V30 6259 H 583.4 1.09575 -2.31143 0
M  V30 6260 H 583.044 2.42018 -4.46531 0
M  V30 6261 H 582.974 3.92367 -3.5122 0
M  V30 6262 H 585.465 2.53044 -2.80673 0
M  V30 6263 H 585.778 4.69334 -6.13959 0
M  V30 6264 H 584.123 4.22637 -5.51728 0
M  V30 6265 H 587.314 3.07134 -3.53251 0
M  V30 6266 H 587.487 4.05782 -5.05218 0
M  V30 6267 N 580.893 1.08022 1.14757 0
M  V30 6268 C 581.803 0.718292 2.23333 0
M  V30 6269 C 582.819 -0.273477 1.71837 0
M  V30 6270 O 583.995 -0.118406 2.01052 0
M  V30 6271 C 581.06 0.128855 3.4646 0
M  V30 6272 C 580.121 1.17473 4.12915 0
M  V30 6273 C 579.354 0.61333 5.30164 0
M  V30 6274 O 579.577 -0.568458 5.6756 0
M  V30 6275 O 578.511 1.3615 5.86299 0
M  V30 6276 H 582.337 1.62394 2.56636 0
M  V30 6277 H 579.922 0.853628 1.22611 0
M  V30 6278 H 581.804 -0.197249 4.20938 0
M  V30 6279 H 580.479 -0.750014 3.14891 0
M  V30 6280 H 579.386 1.5533 3.40328 0
M  V30 6281 H 580.719 2.02574 4.48581 0
M  V30 6282 N 582.371 -1.3172 0.865308 0
M  V30 6283 C 583.787 -1.4958 0.556596 0
M  V30 6284 C 583.987 -1.79763 -0.910353 0
M  V30 6285 O 583.043 -1.87351 -1.6928 0
M  V30 6286 C 584.356 -2.63277 1.45279 0
M  V30 6287 C 585.904 -2.77161 1.45433 0
M  V30 6288 C 586.379 -3.93949 2.33598 0
M  V30 6289 N 587.87 -4.01228 2.31453 0
M  V30 6290 C 588.605 -4.90855 2.96393 0
M  V30 6291 N 588.101 -5.85416 3.70486 0
M  V30 6292 N 589.894 -4.84063 2.85726 0
M  V30 6293 H 582.045 -1.10396 1.81456 0
M  V30 6294 H 584.308 -0.54507 0.775631 0
M  V30 6295 H 584.014 -2.47734 2.49641 0
M  V30 6296 H 583.888 -3.59309 1.14792 0
M  V30 6297 H 586.275 -2.9212 0.41831 0
M  V30 6298 H 586.356 -1.8181 1.79941 0
M  V30 6299 H 586 -3.79748 3.37274 0
M  V30 6300 H 585.93 -4.88598 1.96417 0
M  V30 6301 H 588.421 -3.3357 1.77593 0
M  V30 6302 H 588.734 -6.50525 4.17178 0
M  V30 6303 H 587.079 -5.85409 3.74594 0
M  V30 6304 H 590.27 -4.09163 2.27384 0
M  V30 6305 H 590.443 -5.53708 3.36617 0
M  V30 6306 N 583.85 -0.624285 -1.44708 0
M  V30 6307 C 584.797 0.0847135 -2.30644 0
M  V30 6308 C 585.767 0.843575 -1.43084 0
M  V30 6309 O 586.952 0.825982 -1.71995 0
M  V30 6310 C 584.091 1.06495 -3.28257 0
M  V30 6311 C 583.205 0.305224 -4.3092 0
M  V30 6312 C 582.34 1.27667 -5.1563 0
M  V30 6313 C 581.379 0.505706 -6.10007 0
M  V30 6314 N 580.516 1.42727 -6.8744 0
M  V30 6315 H 585.356 -0.654068 -2.90733 0
M  V30 6316 H 582.893 -0.334334 -1.4325 0
M  V30 6317 H 584.851 1.64658 -3.83332 0
M  V30 6318 H 583.481 1.77094 -2.69884 0
M  V30 6319 H 582.533 -0.392207 -3.78373 0
M  V30 6320 H 583.845 -0.295553 -4.97924 0
M  V30 6321 H 582.999 1.92984 -5.75189 0
M  V30 6322 H 581.738 1.91137 -4.48685 0
M  V30 6323 H 580.743 -0.160999 -5.49564 0
M  V30 6324 H 581.968 -0.124183 -6.78986 0
M  V30 6325 H 579.913 2.04931 -6.23169 0
M  V30 6326 H 579.831 0.880345 -7.50857 0
M  V30 6327 H 581.099 2.0695 -7.51526 0
M  V30 6328 N 585.328 1.53329 -0.364422 0
M  V30 6329 C 586.574 2.01537 0.225969 0
M  V30 6330 C 586.907 1.25128 1.48515 0
M  V30 6331 O 586.182 0.344653 1.91422 0
M  V30 6332 C 586.465 3.56339 0.519092 0
M  V30 6333 C 586.318 4.43441 -0.753639 0
M  V30 6334 C 587.637 4.19833 1.32015 0
M  V30 6335 H 584.756 0.732573 0.0806548 0
M  V30 6336 H 587.398 1.83597 -0.489084 0
M  V30 6337 H 585.548 3.71756 1.12825 0
M  V30 6338 H 587.22 4.39823 -1.39116 0
M  V30 6339 H 585.463 4.11457 -1.37424 0
M  V30 6340 H 586.134 5.49699 -0.503517 0
M  V30 6341 H 588.61 4.08242 0.804859 0
M  V30 6342 H 587.486 5.28177 1.49399 0
M  V30 6343 H 587.747 3.75821 2.32832 0
M  V30 6344 N 586.806 0.0935595 1.57322 0
M  V30 6345 C 587.716 -0.880192 2.17462 0
M  V30 6346 C 588.732 -1.31135 1.14366 0
M  V30 6347 O 589.908 -1.37958 1.46729 0
M  V30 6348 C 586.973 -2.12184 2.74188 0
M  V30 6349 C 586.034 -1.74503 3.92234 0
M  V30 6350 C 585.267 -2.92748 4.46245 0
M  V30 6351 O 585.49 -4.07427 3.99198 0
M  V30 6352 O 584.424 -2.71303 5.37288 0
M  V30 6353 H 588.25 -0.398516 3.01074 0
M  V30 6354 H 585.835 -0.130707 1.48827 0
M  V30 6355 H 587.717 -2.84953 3.10451 0
M  V30 6356 H 586.392 -2.59407 1.93623 0
M  V30 6357 H 585.299 -0.989186 3.60785 0
M  V30 6358 H 586.632 -1.32044 4.74157 0
M  V30 6359 N 588.284 -1.56567 -0.180126 0
M  V30 6360 C 589.53 -1.81761 -0.899497 0
M  V30 6361 C 589.863 -0.670015 -1.82276 0
M  V30 6362 O 589.138 0.328575 -1.91705 0
M  V30 6363 C 589.421 -3.17296 -1.7028 0
M  V30 6364 C 589.274 -4.4257 -0.803255 0
M  V30 6365 C 590.593 -3.49678 -2.67233 0
M  V30 6366 H 587.712 -0.661192 -0.325567 0
M  V30 6367 H 590.354 -1.89272 -0.16612 0
M  V30 6368 H 588.504 -3.11023 -2.32802 0
M  V30 6369 H 590.176 -4.60902 -0.191585 0
M  V30 6370 H 588.419 -4.33658 -0.110796 0
M  V30 6371 H 589.09 -5.33935 -1.40064 0
M  V30 6372 H 591.566 -3.56347 -2.14839 0
M  V30 6373 H 590.442 -4.45605 -3.20511 0
M  V30 6374 H 590.703 -2.73932 -3.47007 0
M  V30 6375 N 589.762 0.448376 -1.51087 0
M  V30 6376 C 591.011 1.19561 -1.62444 0
M  V30 6377 C 591.324 1.92602 -0.341151 0
M  V30 6378 O 592.53 2.69439 -0.333936 0
M  V30 6379 C 590.986 2.17373 -2.8684 0
M  V30 6380 C 590.594 1.5003 -4.22131 0
M  V30 6381 C 592.338 2.92597 -3.0755 0
M  V30 6382 C 590.245 2.46262 -5.37689 0
M  V30 6383 H 589.175 0.449975 -0.605011 0
M  V30 6384 H 591.826 0.463735 -1.77544 0
M  V30 6385 H 590.208 2.93948 -2.65349 0
M  V30 6386 H 591.382 0.790886 -4.53962 0
M  V30 6387 H 589.697 0.870011 -4.0721 0
M  V30 6388 H 592.294 3.64663 -3.91056 0
M  V30 6389 H 592.637 3.53306 -2.20183 0
M  V30 6390 H 593.17 2.23131 -3.29329 0
M  V30 6391 H 589.909 1.90258 -6.27281 0
M  V30 6392 H 589.429 3.15289 -5.10248 0
M  V30 6393 H 591.108 3.07623 -5.6919 0
M  V30 6394 N 591.24 1.41047 0.703093 0
M  V30 6395 C 592.187 1.42302 1.81711 0
M  V30 6396 C 593.157 0.278336 1.63751 0
M  V30 6397 O 594.342 0.478266 1.84709 0
M  V30 6398 C 591.482 1.30362 3.19531 0
M  V30 6399 C 590.595 2.54638 3.48975 0
M  V30 6400 C 589.73 2.35047 4.76368 0
M  V30 6401 C 588.769 3.54837 4.98756 0
M  V30 6402 N 587.906 3.34363 6.1737 0
M  V30 6403 H 592.746 2.37516 1.79973 0
M  V30 6404 H 590.283 1.1795 0.878983 0
M  V30 6405 H 592.241 1.21443 3.99134 0
M  V30 6406 H 590.871 0.387602 3.20464 0
M  V30 6407 H 589.923 2.74037 2.63833 0
M  V30 6408 H 591.235 3.43766 3.61423 0
M  V30 6409 H 590.389 2.23552 5.64012 0
M  V30 6410 H 589.128 1.43363 4.66153 0
M  V30 6411 H 588.133 3.66795 4.09563 0
M  V30 6412 H 589.358 4.47464 5.10835 0
M  V30 6413 H 587.304 2.45373 6.08382 0
M  V30 6414 H 587.221 4.17063 6.30551 0
M  V30 6415 H 588.489 3.26626 7.07768 0
M  V30 6416 N 592.718 -0.936591 1.26751 0
M  V30 6417 C 594.129 -1.49816 1.1141 0
M  V30 6418 C 594.48 -1.9383 -0.304015 0
M  V30 6419 O 593.605 -1.80346 -1.196 0
M  V30 6420 C 594.2 -2.72271 2.01629 0
M  V30 6421 C 592.759 -3.2468 1.9042 0
M  V30 6422 C 591.906 -1.97444 1.94708 0
M  V30 6423 H 594.857 -0.751604 1.39773 0
M  V30 6424 H 594.878 -3.46741 1.56688 0
M  V30 6425 H 594.39 -2.40205 3.04833 0
M  V30 6426 H 592.491 -3.61525 0.901674 0
M  V30 6427 H 592.604 -3.91476 2.76195 0
M  V30 6428 H 590.968 -2.13545 1.38818 0
M  V30 6429 H 591.751 -1.67703 2.9955 0
M  V30 6430 N 594.196 -1.08629 -1.14182 0
M  V30 6431 C 595.126 -0.740003 -2.21464 0
M  V30 6432 C 596.107 0.278591 -1.67803 0
M  V30 6433 O 597.292 0.148461 -1.93632 0
M  V30 6434 C 594.422 -0.150952 -3.46972 0
M  V30 6435 C 593.376 -1.09815 -4.13672 0
M  V30 6436 C 592.702 -0.3712 -5.3341 0
M  V30 6437 C 594.002 -2.43722 -4.61949 0
M  V30 6438 H 595.696 -1.63697 -2.50686 0
M  V30 6439 H 593.242 -0.788526 -1.20492 0
M  V30 6440 H 595.195 0.103325 -4.21273 0
M  V30 6441 H 593.919 0.781164 -3.1712 0
M  V30 6442 H 592.578 -1.33756 -3.41328 0
M  V30 6443 H 592.226 0.564792 -4.99819 0
M  V30 6444 H 591.926 -1.00267 -5.78982 0
M  V30 6445 H 593.45 -0.12503 -6.10472 0
M  V30 6446 H 594.864 -2.24034 -5.27714 0
M  V30 6447 H 593.261 -3.02582 -5.18232 0
M  V30 6448 H 594.331 -3.05082 -3.76899 0
M  V30 6449 N 595.674 1.31259 -0.872281 0
M  V30 6450 C 596.92 1.96913 -0.485083 0
M  V30 6451 C 597.253 1.68774 0.960667 0
M  V30 6452 O 596.528 0.985495 1.67685 0
M  V30 6453 C 596.811 3.52299 -0.745502 0
M  V30 6454 C 596.664 3.90002 -2.24095 0
M  V30 6455 C 597.983 4.39582 -0.213516 0
M  V30 6456 H 595.102 0.715252 -0.177716 0
M  V30 6457 H 597.744 1.55347 -1.09395 0
M  V30 6458 H 595.894 3.87835 -0.227276 0
M  V30 6459 H 597.566 3.64555 -2.82661 0
M  V30 6460 H 595.809 3.38526 -2.71261 0
M  V30 6461 H 596.48 4.98352 -2.37381 0
M  V30 6462 H 598.956 4.10882 -0.656902 0
M  V30 6463 H 597.832 5.47251 -0.42516 0
M  V30 6464 H 598.093 4.33158 0.884666 0
M  V30 6465 N 597.152 0.631951 1.44375 0
M  V30 6466 C 598.115 -0.0628142 2.29114 0
M  V30 6467 C 599.115 -0.771494 1.41084 0
M  V30 6468 O 600.305 -0.615959 1.62947 0
M  V30 6469 C 597.437 -1.09953 3.22681 0
M  V30 6470 H 598.63 0.682509 2.92031 0
M  V30 6471 H 596.183 0.392128 1.51301 0
M  V30 6472 H 596.918 -1.87481 2.64616 0
M  V30 6473 H 596.703 -0.595286 3.87555 0
M  V30 6474 H 598.193 -1.58538 3.86336 0
M  V30 6475 N 598.631 -1.53133 0.372548 0
M  V30 6476 C 599.541 -2.29671 -0.478379 0
M  V30 6477 C 600.557 -1.35913 -1.08644 0
M  V30 6478 O 601.733 -1.68975 -1.09588 0
M  V30 6479 C 598.798 -3.07625 -1.599 0
M  V30 6480 C 597.859 -4.17061 -1.01776 0
M  V30 6481 C 597.092 -4.91289 -2.08497 0
M  V30 6482 O 597.315 -4.65442 -3.29727 0
M  V30 6483 O 596.249 -5.7705 -1.71164 0
M  V30 6484 H 600.075 -3.03355 0.144649 0
M  V30 6485 H 597.66 -1.48773 0.136729 0
M  V30 6486 H 599.542 -3.56281 -2.25038 0
M  V30 6487 H 598.217 -2.3677 -2.2073 0
M  V30 6488 H 597.124 -3.72641 -0.330098 0
M  V30 6489 H 598.457 -4.90102 -0.453915 0
M  V30 6490 N 600.109 -0.101901 -1.5727 0
M  V30 6491 C 601.337 0.568392 -1.98939 0
M  V30 6492 C 601.752 1.61301 -0.981194 0
M  V30 6493 O 601.109 1.82478 0.0282869 0
M  V30 6494 C 601.16 1.20997 -3.40649 0
M  V30 6495 O 600.881 0.207129 -4.3761 0
M  V30 6496 C 602.382 1.96523 -3.97358 0
M  V30 6497 H 599.602 0.15186 -0.65359 0
M  V30 6498 H 602.146 -0.183198 -2.03678 0
M  V30 6499 H 600.301 1.91245 -3.36904 0
M  V30 6500 H 600.715 0.671071 -5.20189 0
M  V30 6501 H 602.189 2.36764 -4.98645 0
M  V30 6502 H 602.666 2.83376 -3.35552 0
M  V30 6503 H 603.272 1.31076 -4.04598 0
M  V30 6504 N 601.587 1.56661 0.17182 0
M  V30 6505 C 602.864 1.72838 0.915778 0
M  V30 6506 C 603.244 0.66316 2.00413 0
M  V30 6507 O 602.592 -0.322123 2.26218 0
M  V30 6508 C 602.802 3.16019 1.48097 0
M  V30 6509 C 604.15 3.76962 1.95408 0
M  V30 6510 O 605.174 3.19294 1.57892 0
M  V30 6511 O 604.033 4.78219 2.64516 0
M  V30 6512 H 601.127 0.705797 0.431021 0
M  V30 6513 H 603.673 1.68947 0.159689 0
M  V30 6514 H 602.445 3.85031 0.697618 0
M  V30 6515 H 602.068 3.24234 2.30126 0
M  V30 6516 N 603.065 -0.440357 1.51323 0
M  V30 6517 C 604.293 -1.21255 1.67645 0
M  V30 6518 C 604.708 -1.85088 0.37252 0
M  V30 6519 O 604.065 -1.70582 -0.648683 0
M  V30 6520 C 604.116 -2.29881 2.78993 0
M  V30 6521 O 603.837 -1.68659 4.04334 0
M  V30 6522 C 605.338 -3.20214 3.06558 0
M  V30 6523 H 602.558 -0.36558 0.562666 0
M  V30 6524 H 605.102 -0.52214 1.97722 0
M  V30 6525 H 603.257 -2.94643 2.51524 0
M  V30 6526 H 603.671 -2.40426 4.6615 0
M  V30 6527 H 605.145 -3.92575 3.88058 0
M  V30 6528 H 605.622 -3.80794 2.18844 0
M  V30 6529 H 606.228 -2.61156 3.35675 0
M  V30 6530 N 604.543 -1.41418 -0.695603 0
M  V30 6531 C 605.954 -1.36335 -1.27552 0
M  V30 6532 C 606.305 -0.0464336 -1.96145 0
M  V30 6533 O 605.43 0.855304 -1.9878 0
M  V30 6534 C 606.025 -2.46941 -2.3196 0
M  V30 6535 C 604.584 -2.45256 -2.85529 0
M  V30 6536 C 603.731 -2.2679 -1.59566 0
M  V30 6537 H 606.682 -1.50934 -0.490362 0
M  V30 6538 H 606.703 -2.15997 -3.1325 0
M  V30 6539 H 606.215 -3.42775 -1.82008 0
M  V30 6540 H 604.316 -1.53179 -3.39657 0
M  V30 6541 H 604.429 -3.41565 -3.35961 0
M  V30 6542 H 602.793 -1.74667 -1.85374 0
M  V30 6543 H 603.576 -3.24651 -1.1161 0
M  V30 6544 N 606.021 0.929856 -1.27246 0
M  V30 6545 C 606.969 2.05151 -1.09616 0
M  V30 6546 C 607.963 1.69388 -0.0198617 0
M  V30 6547 O 609.169 1.79124 -0.177417 0
M  V30 6548 H 605.544 0.671909 -0.337701 0
M  V30 6549 H 607.515 2.17168 -2.04648 0
M  V30 6550 C 606.264 3.3934 -0.757851 0
M  V30 6551 H 605.587 3.67343 -1.57795 0
M  V30 6552 H 607.027 4.18603 -0.674358 0
M  V30 6553 C 605.486 3.32582 0.537658 0
M  V30 6554 O 606.016 3.69633 1.57271 0
M  V30 6555 N 604.222 2.8568 0.532478 0
M  V30 6556 H 603.769 2.55725 -0.310233 0
M  V30 6557 H 603.727 2.81541 1.39936 0
M  V30 6558 N 607.499 1.09233 1.13605 0
M  V30 6559 C 608.915 0.82163 1.36826 0
M  V30 6560 C 609.115 -0.565021 1.93416 0
M  V30 6561 O 608.171 -1.32026 2.15234 0
M  V30 6562 C 609.484 1.91124 2.32147 0
M  V30 6563 C 611.032 1.93824 2.45767 0
M  V30 6564 C 611.507 3.01923 3.44393 0
M  V30 6565 N 612.998 3.01149 3.51942 0
M  V30 6566 C 613.733 3.81434 4.2813 0
M  V30 6567 N 613.229 4.71621 5.07489 0
M  V30 6568 N 615.022 3.69702 4.23411 0
M  V30 6569 H 607.173 1.98633 0.752234 0
M  V30 6570 H 609.436 0.862482 0.393482 0
M  V30 6571 H 609.142 2.90862 1.97717 0
M  V30 6572 H 609.016 1.78777 3.32142 0
M  V30 6573 H 611.403 0.94726 2.79483 0
M  V30 6574 H 611.484 2.10248 1.45703 0
M  V30 6575 H 611.128 4.01232 3.11408 0
M  V30 6576 H 611.058 2.82742 4.44257 0
M  V30 6577 H 613.549 2.35789 2.95317 0
M  V30 6578 H 613.862 5.29468 5.62924 0
M  V30 6579 H 612.207 4.75658 5.06729 0
M  V30 6580 H 615.398 2.98606 3.60489 0
M  V30 6581 H 615.571 4.32509 4.82535 0
M  V30 6582 N 608.977 -1.30795 0.87923 0
M  V30 6583 C 609.94 -2.26563 0.346676 0
M  V30 6584 C 610.94 -1.52578 -0.507597 0
M  V30 6585 O 612.13 -1.71318 -0.315575 0
M  V30 6586 C 609.262 -3.37115 -0.506611 0
M  V30 6587 H 610.455 -2.75183 1.19223 0
M  V30 6588 H 608.008 -1.41886 0.655598 0
M  V30 6589 H 608.743 -2.93802 -1.37299 0
M  V30 6590 H 608.528 -3.91959 0.105218 0
M  V30 6591 H 610.018 -4.08412 -0.871192 0
M  V30 6592 N 610.455 -0.639598 -1.44038 0
M  V30 6593 C 611.683 -0.154811 -2.0632 0
M  V30 6594 C 612.098 1.17406 -1.47856 0
M  V30 6595 O 611.455 1.72193 -0.604638 0
M  V30 6596 C 611.506 -0.0429958 -3.61474 0
M  V30 6597 O 611.227 -1.31932 -4.17763 0
M  V30 6598 C 612.728 0.469486 -4.40807 0
M  V30 6599 H 609.948 -0.0835862 -0.665773 0
M  V30 6600 H 612.492 -0.876397 -1.84769 0
M  V30 6601 H 610.647 0.629075 -3.82258 0
M  V30 6602 H 611.061 -1.16965 -5.11292 0
M  V30 6603 H 612.535 0.496712 -5.49761 0
M  V30 6604 H 613.012 1.49819 -4.12857 0
M  V30 6605 H 613.618 -0.169624 -4.24962 0
M  V30 6606 N 611.933 1.52934 -0.380664 0
M  V30 6607 C 613.18 2.01467 0.204278 0
M  V30 6608 C 613.508 1.26744 1.47533 0
M  V30 6609 O 612.763 0.353723 1.92477 0
M  V30 6610 C 613.062 3.5349 0.527199 0
M  V30 6611 C 612.728 4.46171 -0.651295 0
M  V30 6612 C 611.39 4.71227 -0.974619 0
M  V30 6613 C 613.742 5.00909 -1.44012 0
M  V30 6614 C 611.07 5.4827 -2.08847 0
M  V30 6615 C 613.422 5.7917 -2.5445 0
M  V30 6616 C 612.086 6.02507 -2.87301 0
M  V30 6617 H 611.356 0.73722 0.0747504 0
M  V30 6618 H 614.003 1.84411 -0.516234 0
M  V30 6619 H 612.308 3.68574 1.32892 0
M  V30 6620 H 614.005 3.88529 0.992283 0
M  V30 6621 H 610.595 4.26829 -0.389276 0
M  V30 6622 H 614.779 4.81485 -1.20357 0
M  V30 6623 H 610.035 5.64567 -2.34679 0
M  V30 6624 H 614.209 6.20588 -3.1598 0
M  V30 6625 H 611.836 6.61989 -3.7373 0
M  V30 6626 N 613.412 0.11024 1.57214 0
M  V30 6627 C 614.658 -0.550684 1.9518 0
M  V30 6628 C 614.991 -1.66885 0.993122 0
M  V30 6629 O 614.266 -1.94479 0.0287907 0
M  V30 6630 C 614.549 -1.09163 3.43155 0
M  V30 6631 C 614.402 0.0225198 4.49794 0
M  V30 6632 C 615.721 -1.98527 3.92778 0
M  V30 6633 H 612.84 -0.198706 0.709708 0
M  V30 6634 H 615.482 0.184024 1.89107 0
M  V30 6635 H 613.632 -1.71775 3.48462 0
M  V30 6636 H 615.304 0.657443 4.56591 0
M  V30 6637 H 613.547 0.686868 4.28328 0
M  V30 6638 H 614.218 -0.39706 5.5057 0
M  V30 6639 H 616.694 -1.458 3.8972 0
M  V30 6640 H 615.57 -2.33298 4.96853 0
M  V30 6641 H 615.831 -2.90846 3.32958 0
M  V30 6642 N 614.89 -1.56749 -0.16351 0
M  V30 6643 C 616.136 -1.82704 -0.880168 0
M  V30 6644 C 616.469 -0.689311 -1.81555 0
M  V30 6645 O 615.744 0.308224 -1.92042 0
M  V30 6646 C 616.027 -3.19084 -1.66905 0
M  V30 6647 C 615.88 -4.43397 -0.756269 0
M  V30 6648 C 617.199 -3.52493 -2.63509 0
M  V30 6649 H 614.318 -0.664608 -0.318535 0
M  V30 6650 H 616.96 -1.89438 -0.146036 0
M  V30 6651 H 615.11 -3.13475 -2.2949 0
M  V30 6652 H 616.782 -4.61079 -0.14269 0
M  V30 6653 H 615.025 -4.33752 -0.0647944 0
M  V30 6654 H 615.696 -5.3539 -1.34393 0
M  V30 6655 H 618.172 -3.58606 -2.11047 0
M  V30 6656 H 617.048 -4.48979 -3.15767 0
M  V30 6657 H 617.309 -2.77597 -3.44082 0
M  V30 6658 N 616.368 0.432326 -1.51554 0
M  V30 6659 C 617.616 1.17901 -1.64146 0
M  V30 6660 C 617.937 1.91604 -0.362367 0
M  V30 6661 O 617.207 1.85764 0.621968 0
M  V30 6662 H 615.787 0.438206 -0.604966 0
M  V30 6663 H 618.449 0.495172 -1.88505 0
M  V30 6664 H 617.545 1.90584 -2.47152 0
M  V30 6665 N 617.846 1.41785 0.688094 0
M  V30 6666 C 618.794 1.44436 1.82321 0
M  V30 6667 C 619.788 0.321544 1.6632 0
M  V30 6668 O 620.994 0.493931 1.73091 0
M  V30 6669 H 617.369 0.452084 0.600936 0
M  V30 6670 H 619.34 2.40087 1.77202 0
M  V30 6671 C 618.089 1.35071 3.20392 0
M  V30 6672 H 617.412 2.2076 3.33324 0
M  V30 6673 H 618.852 1.40988 3.99873 0
M  V30 6674 C 617.311 0.0639127 3.36839 0
M  V30 6675 O 617.841 -0.888495 3.91751 0
M  V30 6676 N 616.047 -0.0146114 2.90596 0
M  V30 6677 H 615.594 0.761191 2.46097 0
M  V30 6678 H 615.552 -0.874988 3.01979 0
M  V30 6679 N 619.324 -0.923095 1.27737 0
M  V30 6680 C 620.549 -1.71054 1.17283 0
M  V30 6681 C 620.974 -1.86208 -0.266153 0
M  V30 6682 O 620.332 -1.36545 -1.1927 0
M  V30 6683 C 620.38 -3.0854 1.86642 0
M  V30 6684 O 619.484 -3.95528 1.16752 0
M  V30 6685 H 618.825 -0.524136 0.407649 0
M  V30 6686 H 621.355 -1.15487 1.6889 0
M  V30 6687 H 621.365 -3.58828 1.94182 0
M  V30 6688 H 620.04 -2.96828 2.91317 0
M  V30 6689 H 618.617 -3.53967 1.17312 0
M  V30 6690 N 620.802 -1.09834 -1.13024 0
M  V30 6691 C 622.027 -0.85909 -1.88771 0
M  V30 6692 C 622.452 0.584402 -1.78791 0
M  V30 6693 O 621.81 1.41101 -1.13842 0
M  V30 6694 C 621.858 -1.30427 -3.36186 0
M  V30 6695 O 620.962 -0.465368 -4.09766 0
M  V30 6696 H 620.303 -0.310786 -0.586778 0
M  V30 6697 H 622.833 -1.46355 -1.42973 0
M  V30 6698 H 622.843 -1.2915 -3.8702 0
M  V30 6699 H 621.518 -2.3555 -3.42767 0
M  V30 6700 H 620.095 -0.542814 -3.68928 0
M  V30 6701 N 622.28 1.30327 -0.886154 0
M  V30 6702 C 623.21 2.30549 -0.370028 0
M  V30 6703 C 624.191 1.61039 0.547751 0
M  V30 6704 O 625.376 1.8864 0.461353 0
M  V30 6705 C 622.506 3.44808 0.415275 0
M  V30 6706 C 621.46 4.26024 -0.41085 0
M  V30 6707 C 620.786 5.32347 0.501128 0
M  V30 6708 C 622.086 4.95433 -1.65359 0
M  V30 6709 H 623.78 2.73969 -1.20754 0
M  V30 6710 H 621.326 1.3171 -0.582097 0
M  V30 6711 H 623.279 4.13986 0.78699 0
M  V30 6712 H 622.003 3.00197 1.28644 0
M  V30 6713 H 620.662 3.58535 -0.764719 0
M  V30 6714 H 620.31 4.83982 1.37004 0
M  V30 6715 H 620.01 5.87581 -0.0478356 0
M  V30 6716 H 621.534 6.0438 0.869333 0
M  V30 6717 H 622.948 5.5712 -1.35239 0
M  V30 6718 H 621.345 5.60537 -2.14284 0
M  V30 6719 H 622.415 4.21493 -2.39733 0
M  V30 6720 N 623.758 0.647228 1.43697 0
M  V30 6721 C 624.688 -0.0345631 2.33474 0
M  V30 6722 C 625.669 -0.818193 1.4913 0
M  V30 6723 O 626.854 -0.780867 1.77809 0
M  V30 6724 C 623.984 -1.00576 3.32418 0
M  V30 6725 C 622.938 -0.33266 4.26705 0
M  V30 6726 C 622.264 -1.41489 5.1564 0
M  V30 6727 C 623.564 0.771204 5.16575 0
M  V30 6728 H 625.258 0.715163 2.90733 0
M  V30 6729 H 622.804 0.345364 1.39797 0
M  V30 6730 H 624.757 -1.49159 3.94119 0
M  V30 6731 H 623.481 -1.78657 2.73403 0
M  V30 6732 H 622.14 0.13267 3.6636 0
M  V30 6733 H 621.788 -2.18698 4.52968 0
M  V30 6734 H 621.488 -0.969799 5.79542 0
M  V30 6735 H 623.012 -1.9022 5.80214 0
M  V30 6736 H 624.426 0.36779 5.72119 0
M  V30 6737 H 622.823 1.1404 5.89165 0
M  V30 6738 H 623.893 1.63169 4.56622 0
M  V30 6739 N 625.236 -1.5273 0.388769 0
M  V30 6740 C 626.513 -1.93981 -0.251133 0
M  V30 6741 C 626.893 -1.32418 -1.64404 0
M  V30 6742 O 626.241 -0.492074 -2.23139 0
M  V30 6743 C 626.451 -3.47891 -0.27802 0
M  V30 6744 C 627.799 -4.21559 -0.507229 0
M  V30 6745 O 628.823 -3.54394 -0.358252 0
M  V30 6746 O 627.682 -5.40626 -0.799094 0
M  V30 6747 H 624.776 -0.812157 -0.15598 0
M  V30 6748 H 627.322 -1.63809 0.443237 0
M  V30 6749 H 626.094 -3.8503 0.697669 0
M  V30 6750 H 625.717 -3.84364 -1.01733 0
M  V30 6751 N 626.714 -0.118576 -1.57153 0
M  V30 6752 C 627.942 0.54726 -1.99531 0
M  V30 6753 C 628.357 1.60251 -0.998246 0
M  V30 6754 O 627.714 1.82498 0.00893106 0
M  V30 6755 C 627.765 1.17378 -3.41913 0
M  V30 6756 O 627.486 0.160703 -4.37805 0
M  V30 6757 C 628.987 1.92297 -3.9942 0
M  V30 6758 H 626.207 0.144919 -0.655164 0
M  V30 6759 H 628.751 -0.20479 -2.03472 0
M  V30 6760 H 626.906 1.87661 -3.38913 0
M  V30 6761 H 627.32 0.61586 -5.20872 0
M  V30 6762 H 628.794 2.31462 -5.01128 0
M  V30 6763 H 629.271 2.79801 -3.38538 0
M  V30 6764 H 629.877 1.26777 -4.05965 0
M  V30 6765 N 628.193 1.56834 0.155195 0
M  V30 6766 C 629.418 1.87412 0.888337 0
M  V30 6767 C 629.843 0.70671 1.74319 0
M  V30 6768 O 629.201 -0.343892 1.78009 0
M  V30 6769 C 629.249 3.1652 1.72765 0
M  V30 6770 O 628.353 2.99877 2.83103 0
M  V30 6771 H 627.694 0.615983 0.247914 0
M  V30 6772 H 630.224 2.04061 0.148478 0
M  V30 6773 H 630.234 3.48334 2.12433 0
M  V30 6774 H 628.909 4.01094 1.09985 0
M  V30 6775 H 627.486 2.79453 2.46902 0
M  V30 6776 N 629.671 -0.424282 1.51781 0
M  V30 6777 C 630.896 -1.19928 1.6921 0
M  V30 6778 C 631.321 -1.8392 0.394355 0
M  V30 6779 O 630.679 -1.69371 -0.646778 0
M  V30 6780 C 630.727 -2.24937 2.81843 0
M  V30 6781 O 629.831 -3.3073 2.46356 0
M  V30 6782 H 629.172 -0.35078 0.563781 0
M  V30 6783 H 631.702 -0.499401 1.98412 0
M  V30 6784 H 631.712 -2.69512 3.06312 0
M  V30 6785 H 630.387 -1.77742 3.76006 0
M  V30 6786 H 628.964 -2.9154 2.32505 0
M  V30 6787 N 631.149 -1.42148 -0.680565 0
M  V30 6788 C 632.395 -1.42521 -1.44277 0
M  V30 6789 C 632.728 -0.0393718 -1.9416 0
M  V30 6790 O 632.003 0.935425 -1.70529 0
M  V30 6791 C 632.286 -2.44475 -2.64394 0
M  V30 6792 C 632.139 -3.92226 -2.20179 0
M  V30 6793 C 633.458 -2.43491 -3.66606 0
M  V30 6794 H 630.577 -0.518985 -0.523282 0
M  V30 6795 H 633.219 -1.73524 -0.773914 0
M  V30 6796 H 631.369 -2.18168 -3.21458 0
M  V30 6797 H 633.041 -4.29493 -1.68327 0
M  V30 6798 H 631.284 -4.0637 -1.5181 0
M  V30 6799 H 631.955 -4.59133 -3.06433 0
M  V30 6800 H 634.431 -2.66872 -3.19247 0
M  V30 6801 H 633.307 -3.16816 -4.4824 0
M  V30 6802 H 633.568 -1.45881 -4.17338 0
M  V30 6803 N 632.627 0.916307 -1.28225 0
M  V30 6804 C 633.557 2.0352 -1.14464 0
M  V30 6805 C 634.538 1.70045 -0.0430844 0
M  V30 6806 O 635.723 1.92954 -0.219619 0
M  V30 6807 C 632.853 3.37889 -0.803027 0
M  V30 6808 C 631.807 3.85516 -1.85908 0
M  V30 6809 C 631.133 5.1682 -1.37116 0
M  V30 6810 C 632.433 4.07655 -3.26519 0
M  V30 6811 H 634.127 2.1529 -2.08064 0
M  V30 6812 H 631.673 1.03446 -1.00174 0
M  V30 6813 H 633.626 4.15654 -0.693537 0
M  V30 6814 H 632.35 3.26164 0.168674 0
M  V30 6815 H 631.009 3.09953 -1.95767 0
M  V30 6816 H 630.657 5.01497 -0.38859 0
M  V30 6817 H 630.357 5.49657 -2.07728 0
M  V30 6818 H 631.881 5.97143 -1.27484 0
M  V30 6819 H 633.295 4.75953 -3.19596 0
M  V30 6820 H 631.692 4.51818 -3.94943 0
M  V30 6821 H 632.762 3.12553 -3.70727 0
M  V30 6822 N 634.105 1.10431 1.1244 0
M  V30 6823 C 635.351 0.847972 1.84221 0
M  V30 6824 C 635.684 -0.624903 1.83871 0
M  V30 6825 O 634.959 -1.46074 1.28423 0
M  V30 6826 C 635.242 1.39695 3.319 0
M  V30 6827 C 635.095 2.93668 3.40704 0
M  V30 6828 C 636.414 1.03924 4.27654 0
M  V30 6829 H 633.533 0.309502 0.668863 0
M  V30 6830 H 636.175 1.36745 1.31912 0
M  V30 6831 H 634.325 0.955095 3.76577 0
M  V30 6832 H 635.997 3.46379 3.04662 0
M  V30 6833 H 634.24 3.30272 2.81252 0
M  V30 6834 H 634.911 3.27162 4.446 0
M  V30 6835 H 637.387 1.42049 3.91102 0
M  V30 6836 H 636.263 1.45027 5.29394 0
M  V30 6837 H 636.524 -0.051336 4.4207 0
M  V30 6838 N 635.583 -1.29855 0.893053 0
M  V30 6839 C 636.811 -1.99976 0.530788 0
M  V30 6840 C 637.226 -1.66889 -0.882799 0
M  V30 6841 O 636.583 -0.910352 -1.58173 0
M  V30 6842 C 636.634 -3.54547 0.705587 0
M  V30 6843 O 636.355 -3.86458 2.06353 0
M  V30 6844 C 637.856 -4.41937 0.347387 0
M  V30 6845 H 635.076 -0.639129 0.204339 0
M  V30 6846 H 637.62 -1.65549 1.20057 0
M  V30 6847 H 635.775 -3.87311 0.0830685 0
M  V30 6848 H 636.189 -4.81146 2.08803 0
M  V30 6849 H 637.663 -5.4954 0.520557 0
M  V30 6850 H 638.14 -4.33339 -0.715139 0
M  V30 6851 H 638.746 -4.14633 0.946567 0
M  V30 6852 N 637.061 -0.65484 -1.43351 0
M  V30 6853 C 637.993 0.0744757 -2.29079 0
M  V30 6854 C 639.006 0.7855 -1.42596 0
M  V30 6855 O 640.195 0.642986 -1.66517 0
M  V30 6856 C 637.295 1.12859 -3.19556 0
M  V30 6857 C 636.468 0.495381 -4.34586 0
M  V30 6858 C 635.527 1.44659 -5.05925 0
M  V30 6859 O 634.553 0.954567 -5.61139 0
M  V30 6860 N 635.755 2.78051 -5.09576 0
M  V30 6861 H 638.52 -0.661346 -2.92312 0
M  V30 6862 H 636.081 -0.497744 -1.54059 0
M  V30 6863 H 638.073 1.76577 -3.64147 0
M  V30 6864 H 636.643 1.76636 -2.57912 0
M  V30 6865 H 635.863 -0.32092 -3.92892 0
M  V30 6866 H 637.151 0.0534203 -5.08772 0
M  V30 6867 H 636.549 3.20584 -4.66093 0
M  V30 6868 H 635.106 3.37068 -5.57878 0
M  V30 6869 N 638.539 1.52521 -0.396863 0
M  V30 6870 C 639.449 2.30403 0.44178 0
M  V30 6871 C 640.465 1.37625 1.06468 0
M  V30 6872 O 641.641 1.70697 1.06886 0
M  V30 6873 C 638.706 3.1013 1.54986 0
M  V30 6874 C 637.767 4.18628 0.951279 0
M  V30 6875 C 637 4.94543 2.00655 0
M  V30 6876 O 637.223 4.70629 3.22281 0
M  V30 6877 O 636.157 5.797 1.61962 0
M  V30 6878 H 639.983 3.03087 -0.192892 0
M  V30 6879 H 637.568 1.48537 -0.16038 0
M  V30 6880 H 639.45 3.59816 2.19341 0
M  V30 6881 H 638.125 2.40251 2.16935 0
M  V30 6882 H 637.032 3.73119 0.270773 0
M  V30 6883 H 638.365 4.90763 0.375887 0
M  V30 6884 N 640.017 0.126909 1.57088 0
M  V30 6885 C 641.428 -0.397201 1.82426 0
M  V30 6886 C 641.779 -1.66084 1.04453 0
M  V30 6887 O 640.904 -2.14534 0.283552 0
M  V30 6888 C 641.499 -0.727411 3.30899 0
M  V30 6889 C 640.058 -1.19612 3.56889 0
M  V30 6890 C 639.205 -0.20885 2.76512 0
M  V30 6891 H 642.156 0.351924 1.54749 0
M  V30 6892 H 642.177 -1.58407 3.45959 0
M  V30 6893 H 641.689 0.19247 3.87622 0
M  V30 6894 H 639.79 -2.13263 3.05532 0
M  V30 6895 H 639.903 -1.13598 4.65438 0
M  V30 6896 H 638.267 -0.697479 2.44964 0
M  V30 6897 H 639.05 0.704267 3.35998 0
M  V30 6898 N 641.495 -1.56914 -0.146875 0
M  V30 6899 C 642.405 -2.0154 -1.20079 0
M  V30 6900 C 643.421 -0.930838 -1.47008 0
M  V30 6901 O 644.597 -1.24032 -1.58676 0
M  V30 6902 C 641.662 -2.38715 -2.51428 0
M  V30 6903 C 640.723 -3.6112 -2.32145 0
M  V30 6904 C 639.956 -3.96512 -3.57231 0
M  V30 6905 O 640.179 -3.32566 -4.63418 0
M  V30 6906 O 639.113 -4.89758 -3.49887 0
M  V30 6907 H 642.939 -2.91506 -0.851924 0
M  V30 6908 H 640.524 -1.45106 -0.355607 0
M  V30 6909 H 642.406 -2.63485 -3.28867 0
M  V30 6910 H 641.081 -1.51903 -2.85845 0
M  V30 6911 H 639.988 -3.41536 -1.52656 0
M  V30 6912 H 641.321 -4.48549 -2.02644 0
M  V30 6913 N 642.974 0.416227 -1.52004 0
M  V30 6914 C 644.223 1.16088 -1.64944 0
M  V30 6915 C 644.536 1.91835 -0.381928 0
M  V30 6916 O 645.742 2.6867 -0.391013 0
M  V30 6917 C 644.198 2.1124 -2.91386 0
M  V30 6918 C 643.806 1.41042 -4.25219 0
M  V30 6919 C 645.55 2.86008 -3.13688 0
M  V30 6920 C 643.457 2.34801 -5.42791 0
M  V30 6921 H 642.387 0.437041 -0.61442 0
M  V30 6922 H 645.038 0.425971 -1.78487 0
M  V30 6923 H 643.42 2.88254 -2.71525 0
M  V30 6924 H 644.594 0.694416 -4.55538 0
M  V30 6925 H 642.909 0.78344 -4.08964 0
M  V30 6926 H 645.506 3.56286 -3.98703 0
M  V30 6927 H 645.849 3.48556 -2.27628 0
M  V30 6928 H 646.382 2.16095 -3.33988 0
M  V30 6929 H 643.121 1.7691 -6.31176 0
M  V30 6930 H 642.641 3.04395 -5.16821 0
M  V30 6931 H 644.32 2.9548 -5.75587 0
M  V30 6932 N 644.452 1.42507 0.673017 0
M  V30 6933 C 645.362 1.4853 1.81593 0
M  V30 6934 C 646.378 0.373907 1.69935 0
M  V30 6935 O 647.554 0.625078 1.91454 0
M  V30 6936 C 644.619 1.387 3.17747 0
M  V30 6937 C 643.68 2.60346 3.41348 0
M  V30 6938 C 642.913 2.50975 4.71007 0
M  V30 6939 O 643.136 1.54659 5.49033 0
M  V30 6940 O 642.07 3.41138 4.95892 0
M  V30 6941 H 645.896 2.45001 1.79467 0
M  V30 6942 H 643.481 1.2429 0.82899 0
M  V30 6943 H 645.363 1.35586 3.98992 0
M  V30 6944 H 644.038 0.453555 3.20507 0
M  V30 6945 H 642.945 2.69034 2.59945 0
M  V30 6946 H 644.278 3.52595 3.43421 0
M  V30 6947 N 645.93 -0.909495 1.28709 0
M  V30 6948 C 646.86 -2.0291 1.15542 0
M  V30 6949 C 647.841 -1.7002 0.0521017 0
M  V30 6950 O 649.026 -1.92835 0.229849 0
M  V30 6951 C 646.156 -3.37458 0.820935 0
M  V30 6952 C 645.11 -3.84524 1.87949 0
M  V30 6953 C 644.436 -5.16086 1.39854 0
M  V30 6954 C 645.736 -4.05918 3.28676 0
M  V30 6955 H 647.43 -2.14183 2.09203 0
M  V30 6956 H 644.976 -1.02913 1.00722 0
M  V30 6957 H 646.929 -4.1528 0.715571 0
M  V30 6958 H 645.653 -3.26249 -0.151374 0
M  V30 6959 H 644.312 -3.08911 1.97408 0
M  V30 6960 H 643.96 -5.01284 0.41518 0
M  V30 6961 H 643.66 -5.48547 2.1064 0
M  V30 6962 H 645.184 -5.96459 1.30649 0
M  V30 6963 H 646.598 -4.74252 3.22115 0
M  V30 6964 H 644.995 -4.49717 3.97334 0
M  V30 6965 H 646.065 -3.10583 3.72379 0
M  V30 6966 N 647.408 -1.11026 -1.11852 0
M  V30 6967 C 648.819 -0.873203 -1.65021 0
M  V30 6968 C 649.17 0.595364 -1.86949 0
M  V30 6969 O 648.295 1.45645 -1.60051 0
M  V30 6970 C 648.89 -1.57859 -2.99777 0
M  V30 6971 C 647.449 -1.38807 -3.49871 0
M  V30 6972 C 646.596 -1.62403 -2.24768 0
M  V30 6973 H 649.547 -1.26712 -0.955503 0
M  V30 6974 H 649.568 -1.02111 -3.66543 0
M  V30 6975 H 649.08 -2.6474 -2.83786 0
M  V30 6976 H 647.181 -0.341163 -3.71035 0
M  V30 6977 H 647.294 -2.13421 -4.28938 0
M  V30 6978 H 645.658 -1.04714 -2.32179 0
M  V30 6979 H 646.441 -2.70549 -2.11324 0
M  V30 6980 N 648.886 1.2938 -0.899927 0
M  V30 6981 C 650.302 1.48052 -0.596059 0
M  V30 6982 C 650.502 1.82114 0.862372 0
M  V30 6983 O 649.558 1.91774 1.64253 0
M  V30 6984 C 650.871 2.59332 -1.52208 0
M  V30 6985 C 652.419 2.73208 -1.5273 0
M  V30 6986 C 652.894 3.87617 -2.43961 0
M  V30 6987 N 654.385 3.9495 -2.42009 0
M  V30 6988 C 655.12 4.82824 -3.09303 0
M  V30 6989 N 654.616 5.75387 -3.85877 0
M  V30 6990 N 656.409 4.76317 -2.98459 0
M  V30 6991 H 648.56 1.05546 -1.8432 0
M  V30 6992 H 650.823 0.524314 -0.78981 0
M  V30 6993 H 650.529 2.41029 -2.56121 0
M  V30 6994 H 650.403 3.56139 -1.24278 0
M  V30 6995 H 652.79 2.90908 -0.495614 0
M  V30 6996 H 652.871 1.76975 -1.84698 0
M  V30 6997 H 652.515 3.70672 -3.47224 0
M  V30 6998 H 652.445 4.83218 -2.09303 0
M  V30 6999 H 654.936 3.28744 -1.86375 0
M  V30 7000 H 655.249 6.39235 -4.34279 0
M  V30 7001 H 653.594 5.75272 -3.89984 0
M  V30 7002 H 656.785 4.0299 -2.38152 0
M  V30 7003 H 656.958 5.44589 -3.51179 0
M  V30 7004 N 650.364 0.662433 1.43002 0
M  V30 7005 C 651.274 -0.0239199 2.34588 0
M  V30 7006 C 652.29 -0.802255 1.54402 0
M  V30 7007 O 653.466 -0.747401 1.87018 0
M  V30 7008 C 650.531 -0.972098 3.32793 0
M  V30 7009 C 649.592 -0.189673 4.28881 0
M  V30 7010 C 648.825 -1.09269 5.22395 0
M  V30 7011 O 649.048 -2.33209 5.20547 0
M  V30 7012 O 647.982 -0.560136 5.99288 0
M  V30 7013 H 651.808 0.730171 2.94792 0
M  V30 7014 H 649.393 0.422635 1.43297 0
M  V30 7015 H 651.275 -1.51676 3.93157 0
M  V30 7016 H 649.95 -1.70626 2.75079 0
M  V30 7017 H 648.857 0.398794 3.71968 0
M  V30 7018 H 650.19 0.50511 4.89601 0
M  V30 7019 N 651.842 -1.52309 0.404946 0
M  V30 7020 C 653.253 -1.86585 -0.0655926 0
M  V30 7021 C 653.604 -1.3239 -1.44801 0
M  V30 7022 O 652.729 -0.6615 -2.06042 0
M  V30 7023 C 653.324 -3.38566 -0.125801 0
M  V30 7024 C 651.883 -3.72497 -0.540666 0
M  V30 7025 C 651.03 -2.75806 0.287487 0
M  V30 7026 H 653.981 -1.45995 0.622185 0
M  V30 7027 H 654.002 -3.68658 -0.941888 0
M  V30 7028 H 653.514 -3.77981 0.880473 0
M  V30 7029 H 651.615 -3.38659 -1.55373 0
M  V30 7030 H 651.728 -4.78234 -0.287956 0
M  V30 7031 H 650.092 -2.53474 -0.249561 0
M  V30 7032 H 650.875 -3.18059 1.29203 0
M  V30 7033 N 653.32 -0.135238 -1.57019 0
M  V30 7034 C 654.736 0.221262 -1.58059 0
M  V30 7035 C 654.936 1.65538 -1.14889 0
M  V30 7036 O 653.992 2.37985 -0.843751 0
M  V30 7037 C 655.305 -0.0268114 -3.00688 0
M  V30 7038 C 656.853 0.0378206 -3.12977 0
M  V30 7039 C 657.328 -0.182769 -4.57635 0
M  V30 7040 N 658.819 -0.129292 -4.6302 0
M  V30 7041 C 659.554 -0.274648 -5.72742 0
M  V30 7042 N 659.05 -0.477075 -6.91155 0
M  V30 7043 N 660.843 -0.213077 -5.61696 0
M  V30 7044 H 652.994 -1.07177 -1.83376 0
M  V30 7045 H 655.257 -0.423338 -0.848227 0
M  V30 7046 H 654.963 -1.01889 -3.36618 0
M  V30 7047 H 654.837 0.697863 -3.70688 0
M  V30 7048 H 657.224 1.02043 -2.76896 0
M  V30 7049 H 657.305 -0.718996 -2.45487 0
M  V30 7050 H 656.949 -1.16243 -4.94419 0
M  V30 7051 H 656.879 0.59423 -5.23237 0
M  V30 7052 H 659.37 0.0229896 -3.77893 0
M  V30 7053 H 659.683 -0.578413 -7.70632 0
M  V30 7054 H 658.028 -0.513252 -6.93102 0
M  V30 7055 H 661.219 -0.0557796 -4.68067 0
M  V30 7056 H 661.392 -0.329796 -6.4716 0
M  V30 7057 N 654.798 1.5699 0.138552 0
M  V30 7058 C 656.209 1.73171 0.697754 0
M  V30 7059 C 656.56 0.750952 1.8126 0
M  V30 7060 O 655.685 -0.080549 2.1625 0
M  V30 7061 C 656.28 3.13996 1.27248 0
M  V30 7062 C 654.839 3.3175 1.77816 0
M  V30 7063 C 653.986 2.69084 0.669991 0
M  V30 7064 H 656.937 1.5846 -0.0871979 0
M  V30 7065 H 656.958 3.14463 2.14227 0
M  V30 7066 H 656.47 3.85354 0.460855 0
M  V30 7067 H 654.571 2.65403 2.61519 0
M  V30 7068 H 654.684 4.39768 1.90107 0
M  V30 7069 H 653.048 2.29782 1.09874 0
M  V30 7070 H 653.831 3.43053 -0.130329 0
M  V30 7071 N 656.276 -0.40816 1.52223 0
M  V30 7072 C 657.224 -1.51788 1.76248 0
M  V30 7073 C 658.218 -1.57264 0.629638 0
M  V30 7074 O 659.424 -1.60659 0.811704 0
M  V30 7075 H 655.799 -0.504823 0.557367 0
M  V30 7076 H 657.77 -1.2871 2.69214 0
M  V30 7077 C 656.519 -2.89145 1.93107 0
M  V30 7078 H 655.842 -2.85674 2.79697 0
M  V30 7079 H 657.282 -3.66082 2.13916 0
M  V30 7080 C 655.741 -3.29581 0.698431 0
M  V30 7081 O 656.271 -4.01479 -0.133238 0
M  V30 7082 N 654.477 -2.85651 0.53405 0
M  V30 7083 H 654.024 -2.2731 1.21194 0
M  V30 7084 H 653.982 -3.13065 -0.289387 0
M  V30 7085 N 657.755 -1.42862 -0.66545 0
M  V30 7086 C 658.665 -1.49491 -1.80803 0
M  V30 7087 C 659.681 -0.382914 -1.69734 0
M  V30 7088 O 660.857 -0.635223 -1.9112 0
M  V30 7089 C 657.922 -1.40383 -3.17007 0
M  V30 7090 C 656.983 -2.62152 -3.39963 0
M  V30 7091 C 656.216 -2.53469 -4.69669 0
M  V30 7092 O 656.439 -1.57568 -5.48205 0
M  V30 7093 O 655.373 -3.43763 -4.94075 0
M  V30 7094 H 659.199 -2.45949 -1.78165 0
M  V30 7095 H 656.784 -1.24728 -0.822387 0
M  V30 7096 H 658.666 -1.377 -3.98267 0
M  V30 7097 H 657.341 -0.470546 -3.20262 0
M  V30 7098 H 656.248 -2.70409 -2.58515 0
M  V30 7099 H 657.581 -3.54411 -3.41546 0
M  V30 7100 N 659.233 0.902656 -1.29189 0
M  V30 7101 C 660.143 2.03946 -1.15944 0
M  V30 7102 C 661.159 1.738 -0.0833803 0
M  V30 7103 O 662.335 1.9923 -0.29487 0
M  V30 7104 C 659.4 3.36519 -0.834006 0
M  V30 7105 C 658.461 3.80203 -1.9936 0
M  V30 7106 C 657.694 5.06449 -1.68359 0
M  V30 7107 O 657.917 5.67202 -0.603141 0
M  V30 7108 O 656.851 5.46114 -2.53067 0
M  V30 7109 H 660.677 2.18043 -2.11403 0
M  V30 7110 H 658.262 1.02584 -1.08613 0
M  V30 7111 H 660.144 4.16089 -0.666949 0
M  V30 7112 H 658.819 3.23573 0.0908245 0
M  V30 7113 H 657.726 3.01413 -2.21588 0
M  V30 7114 H 659.059 3.97729 -2.89952 0
M  V30 7115 N 660.711 1.11618 1.11262 0
M  V30 7116 C 661.951 0.876154 1.8467 0
M  V30 7117 C 662.315 -0.587551 1.82789 0
M  V30 7118 O 663.516 -0.944411 2.51663 0
M  V30 7119 C 661.787 1.42461 3.2778 0
M  V30 7120 S 663.346 1.32185 4.18417 0
M  V30 7121 H 660.164 0.31628 0.636779 0
M  V30 7122 H 662.766 1.42404 1.33946 0
M  V30 7123 H 661.47 2.48367 3.26714 0
M  V30 7124 H 661.001 0.873844 3.83572 0
M  V30 7125 H 663.016 0.287607 4.95366 0
M  V30 7126 N 662.189 -1.289 0.906776 0
M  V30 7127 C 663.119 -2.29932 0.406659 0
M  V30 7128 C 664.1 -1.6189 -0.522061 0
M  V30 7129 O 665.285 -1.8935 -0.431283 0
M  V30 7130 C 662.415 -3.45425 -0.360366 0
M  V30 7131 C 661.369 -4.25316 0.478574 0
M  V30 7132 C 660.695 -5.33076 -0.416373 0
M  V30 7133 C 661.995 -4.92739 1.7322 0
M  V30 7134 H 663.689 -2.72013 1.25097 0
M  V30 7135 H 661.235 -1.30768 0.602977 0
M  V30 7136 H 663.188 -4.15186 -0.721029 0
M  V30 7137 H 661.912 -3.02206 -1.23852 0
M  V30 7138 H 660.571 -3.57273 0.821662 0
M  V30 7139 H 660.219 -4.86101 -1.29287 0
M  V30 7140 H 659.919 -5.8743 0.141309 0
M  V30 7141 H 661.443 -6.05686 -0.773072 0
M  V30 7142 H 662.857 -5.54898 1.44086 0
M  V30 7143 H 661.254 -5.57057 2.23175 0
M  V30 7144 H 662.324 -4.17625 2.46408 0
M  V30 7145 N 663.667 -0.670007 -1.42649 0
M  V30 7146 C 664.599 0.0501746 -2.29145 0
M  V30 7147 C 665.612 0.770331 -1.43422 0
M  V30 7148 O 666.801 0.625288 -1.6719 0
M  V30 7149 C 663.901 1.09463 -3.20735 0
M  V30 7150 C 663.074 0.44926 -4.35087 0
M  V30 7151 C 662.133 1.39285 -5.07431 0
M  V30 7152 O 661.159 0.894997 -5.6212 0
M  V30 7153 N 662.361 2.72631 -5.12496 0
M  V30 7154 H 665.126 -0.692312 -2.91594 0
M  V30 7155 H 662.687 -0.514056 -1.53522 0
M  V30 7156 H 664.679 1.72705 -3.65999 0
M  V30 7157 H 663.249 1.73891 -2.59771 0
M  V30 7158 H 662.469 -0.362573 -3.92529 0
M  V30 7159 H 663.757 -0.000544776 -5.088 0
M  V30 7160 H 663.155 3.15623 -4.69467 0
M  V30 7161 H 661.712 3.31132 -5.61422 0
M  V30 7162 N 665.145 1.52092 -0.413018 0
M  V30 7163 C 666.394 2.01041 0.16287 0
M  V30 7164 C 666.707 1.30288 1.45892 0
M  V30 7165 O 667.913 1.70075 2.11629 0
M  V30 7166 C 666.369 3.58283 0.340806 0
M  V30 7167 C 665.977 4.37955 -0.943377 0
M  V30 7168 C 667.721 4.15452 0.871774 0
M  V30 7169 C 665.628 5.86847 -0.732417 0
M  V30 7170 H 664.558 0.751224 0.0646414 0
M  V30 7171 H 667.209 1.75404 -0.539059 0
M  V30 7172 H 665.591 3.80266 1.10516 0
M  V30 7173 H 666.765 4.2773 -1.71418 0
M  V30 7174 H 665.08 3.92122 -1.40105 0
M  V30 7175 H 667.677 5.24375 1.0457 0
M  V30 7176 H 668.02 3.73057 1.84755 0
M  V30 7177 H 668.553 3.97452 0.166377 0
M  V30 7178 H 665.292 6.33609 -1.67986 0
M  V30 7179 H 664.812 5.998 -0.000980058 0
M  V30 7180 H 666.491 6.45906 -0.376105 0
M  V30 7181 N 666.623 0.143563 1.56945 0
M  V30 7182 C 667.553 -0.7936 2.196 0
M  V30 7183 C 668.534 -1.25955 1.14321 0
M  V30 7184 O 669.719 -1.31773 1.42651 0
M  V30 7185 C 666.849 -2.03424 2.81489 0
M  V30 7186 C 665.803 -1.70519 3.92565 0
M  V30 7187 C 665.129 -3.01817 4.41373 0
M  V30 7188 C 666.429 -0.95449 5.13504 0
M  V30 7189 H 668.123 -0.271423 2.98167 0
M  V30 7190 H 665.669 -0.12911 1.4342 0
M  V30 7191 H 667.622 -2.69463 3.23987 0
M  V30 7192 H 666.346 -2.58008 2.00248 0
M  V30 7193 H 665.005 -1.06859 3.5068 0
M  V30 7194 H 664.653 -3.54386 3.56959 0
M  V30 7195 H 664.353 -2.80565 5.16292 0
M  V30 7196 H 665.877 -3.68934 4.86539 0
M  V30 7197 H 667.291 -1.5169 5.52868 0
M  V30 7198 H 665.688 -0.842035 5.94163 0
M  V30 7199 H 666.758 0.0544033 4.84869 0
M  V30 7200 N 668.101 -1.57061 -0.130224 0
M  V30 7201 C 669.349 -1.83893 -0.838313 0
M  V30 7202 C 669.67 -0.727046 -1.80939 0
M  V30 7203 O 668.94 0.249927 -1.94299 0
M  V30 7204 H 667.52 -0.67846 -0.312573 0
M  V30 7205 H 670.182 -1.94529 -0.120224 0
M  V30 7206 H 669.278 -2.79419 -1.39038 0
M  V30 7207 N 669.579 0.400081 -1.52437 0
M  V30 7208 C 670.527 1.50851 -1.7705 0
M  V30 7209 C 671.521 1.56928 -0.637969 0
M  V30 7210 O 672.727 1.60226 -0.820212 0
M  V30 7211 H 669.102 0.50186 -0.560036 0
M  V30 7212 H 671.073 1.27281 -2.69893 0
M  V30 7213 C 669.822 2.88117 -1.94638 0
M  V30 7214 H 669.145 2.84187 -2.81208 0
M  V30 7215 H 670.585 3.64942 -2.15855 0
M  V30 7216 C 669.044 3.29206 -0.715899 0
M  V30 7217 O 669.574 4.01544 0.111944 0
M  V30 7218 N 667.78 2.85363 -0.549191 0
M  V30 7219 H 667.327 2.26664 -1.22397 0
M  V30 7220 H 667.285 3.13214 0.27278 0
M  V30 7221 N 671.057 1.43213 0.657864 0
M  V30 7222 C 672.02 1.47687 1.75275 0
M  V30 7223 C 673.02 0.362179 1.56668 0
M  V30 7224 O 674.21 0.623734 1.62651 0
M  V30 7225 C 671.342 1.32497 3.14098 0
M  V30 7226 H 672.535 2.4519 1.7269 0
M  V30 7227 H 670.088 1.2991 0.869087 0
M  V30 7228 H 670.823 0.359831 3.22298 0
M  V30 7229 H 670.608 2.13299 3.29008 0
M  V30 7230 H 672.098 1.38549 3.93946 0
M  V30 7231 N 672.536 -0.895792 1.29666 0
M  V30 7232 C 673.446 -2.03329 1.17024 0
M  V30 7233 C 674.462 -1.73753 0.0925962 0
M  V30 7234 O 675.638 -1.99071 0.305431 0
M  V30 7235 C 672.703 -3.36072 0.851841 0
M  V30 7236 C 671.764 -3.7914 2.01373 0
M  V30 7237 C 670.997 -5.05549 1.71043 0
M  V30 7238 O 671.22 -5.66874 0.633213 0
M  V30 7239 O 670.154 -5.44764 2.5596 0
M  V30 7240 H 673.98 -2.16918 2.12556 0
M  V30 7241 H 671.565 -1.02007 1.09156 0
M  V30 7242 H 673.447 -4.15729 0.689006 0
M  V30 7243 H 672.122 -3.23616 -0.0736634 0
M  V30 7244 H 671.029 -3.00233 2.23183 0
M  V30 7245 H 672.362 -3.96186 2.92058 0
M  V30 7246 N 674.014 -1.12206 -1.10668 0
M  V30 7247 C 674.961 -0.787716 -2.16942 0
M  V30 7248 C 675.931 0.244442 -1.64291 0
M  V30 7249 O 677.116 0.119558 -1.90425 0
M  V30 7250 C 674.256 -0.24584 -3.44223 0
M  V30 7251 C 673.369 -1.33552 -4.10838 0
M  V30 7252 C 672.504 -0.753337 -5.25831 0
M  V30 7253 C 671.543 -1.82231 -5.84344 0
M  V30 7254 N 670.68 -1.25902 -6.90719 0
M  V30 7255 H 675.52 -1.69809 -2.44885 0
M  V30 7256 H 673.057 -0.847862 -1.20207 0
M  V30 7257 H 675.015 0.0863639 -4.17111 0
M  V30 7258 H 673.645 0.627702 -3.16638 0
M  V30 7259 H 672.697 -1.78454 -3.35944 0
M  V30 7260 H 674.009 -2.14396 -4.50373 0
M  V30 7261 H 673.163 -0.37166 -6.05561 0
M  V30 7262 H 671.902 0.0863297 -4.87624 0
M  V30 7263 H 670.907 -2.2132 -5.03287 0
M  V30 7264 H 672.132 -2.66515 -6.24617 0
M  V30 7265 H 670.078 -0.44114 -6.54515 0
M  V30 7266 H 669.995 -2.00408 -7.28953 0
M  V30 7267 H 671.263 -0.904498 -7.74235 0
M  V30 7268 N 675.492 1.28418 -0.913599 0
M  V30 7269 C 676.74 1.94596 -0.545594 0
M  V30 7270 C 677.061 1.7227 0.913668 0
M  V30 7271 O 676.331 1.06233 1.64595 0
M  V30 7272 H 674.911 0.720065 -0.198783 0
M  V30 7273 H 677.573 1.56404 -1.16292 0
M  V30 7274 H 676.669 3.03202 -0.739911 0
M  V30 7275 N 676.97 0.677563 1.42291 0
M  V30 7276 C 677.933 0.0101085 2.29198 0
M  V30 7277 C 678.933 -0.726219 1.43467 0
M  V30 7278 O 680.123 -0.563807 1.64824 0
M  V30 7279 C 677.255 -0.996316 3.26016 0
M  V30 7280 H 678.448 0.775071 2.89711 0
M  V30 7281 H 676.001 0.440065 1.49977 0
M  V30 7282 H 676.736 -1.78967 2.70446 0
M  V30 7283 H 676.521 -0.471687 3.89253 0
M  V30 7284 H 678.011 -1.46167 3.91184 0
M  V30 7285 N 678.448 -1.51871 0.421078 0
M  V30 7286 C 679.395 -2.27334 -0.398508 0
M  V30 7287 C 680.365 -1.30241 -1.03085 0
M  V30 7288 O 681.55 -1.59121 -1.05285 0
M  V30 7289 C 678.69 -3.10664 -1.50272 0
M  V30 7290 C 677.803 -4.2273 -0.890122 0
M  V30 7291 C 676.938 -4.93399 -1.96803 0
M  V30 7292 C 675.977 -5.97409 -1.333 0
M  V30 7293 N 675.114 -6.61548 -2.35156 0
M  V30 7294 H 679.954 -2.96938 0.251411 0
M  V30 7295 H 677.491 -1.46472 0.135825 0
M  V30 7296 H 679.449 -3.57292 -2.15403 0
M  V30 7297 H 678.079 -2.43207 -2.1225 0
M  V30 7298 H 677.131 -3.80186 -0.127537 0
M  V30 7299 H 678.443 -4.97302 -0.386349 0
M  V30 7300 H 677.597 -5.43491 -2.69633 0
M  V30 7301 H 676.336 -4.18421 -2.50549 0
M  V30 7302 H 675.341 -5.46624 -0.59008 0
M  V30 7303 H 676.566 -6.74335 -0.803076 0
M  V30 7304 H 674.512 -5.89394 -2.88012 0
M  V30 7305 H 674.429 -7.31832 -1.89624 0
M  V30 7306 H 675.697 -7.16276 -3.0752 0
M  V30 7307 N 679.926 -0.151884 -1.56866 0
M  V30 7308 C 681.173 0.498004 -1.96281 0
M  V30 7309 C 681.501 1.64551 -1.03698 0
M  V30 7310 O 680.756 1.95585 -0.0671497 0
M  V30 7311 C 681.055 1.04074 -3.41911 0
M  V30 7312 C 680.721 0.0111688 -4.50899 0
M  V30 7313 C 679.383 -0.271844 -4.80432 0
M  V30 7314 C 681.735 -0.68869 -5.1663 0
M  V30 7315 C 679.063 -1.26044 -5.73001 0
M  V30 7316 C 681.415 -1.66613 -6.10264 0
M  V30 7317 C 680.079 -1.9568 -6.38174 0
M  V30 7318 H 679.349 0.182233 -0.718242 0
M  V30 7319 H 681.996 -0.239746 -1.89993 0
M  V30 7320 H 680.301 1.85592 -3.45055 0
M  V30 7321 H 681.998 1.55224 -3.69738 0
M  V30 7322 H 678.588 0.241932 -4.27917 0
M  V30 7323 H 682.772 -0.48324 -4.93942 0
M  V30 7324 H 678.028 -1.49202 -5.92915 0
M  V30 7325 H 682.202 -2.21392 -6.60272 0
M  V30 7326 H 679.829 -2.72434 -7.09707 0
M  V30 7327 N 681.404 1.57128 0.121893 0
M  V30 7328 C 682.334 2.03165 1.15092 0
M  V30 7329 C 683.315 0.915587 1.43356 0
M  V30 7330 O 684.5 1.1851 1.53847 0
M  V30 7331 C 681.63 2.43352 2.47784 0
M  V30 7332 C 680.584 3.58376 2.33989 0
M  V30 7333 C 679.91 3.84454 3.71617 0
M  V30 7334 C 681.21 4.90199 1.80283 0
M  V30 7335 H 682.904 2.89382 0.768023 0
M  V30 7336 H 680.45 1.39218 0.367998 0
M  V30 7337 H 682.403 2.74163 3.20019 0
M  V30 7338 H 681.127 1.54103 2.87958 0
M  V30 7339 H 679.786 3.2777 1.64202 0
M  V30 7340 H 679.434 2.92414 4.09271 0
M  V30 7341 H 679.134 4.61877 3.6324 0
M  V30 7342 H 680.658 4.17714 4.45362 0
M  V30 7343 H 682.072 5.19565 2.42333 0
M  V30 7344 H 680.469 5.71601 1.82735 0
M  V30 7345 H 681.539 4.78904 0.760184 0
M  V30 7346 N 682.882 -0.391992 1.52647 0
M  V30 7347 C 684.107 -1.16312 1.71716 0
M  V30 7348 C 684.532 -1.83042 0.433279 0
M  V30 7349 O 683.89 -1.70705 -0.610707 0
M  V30 7350 C 683.938 -2.18908 2.86551 0
M  V30 7351 O 683.042 -3.2543 2.53316 0
M  V30 7352 H 682.383 -0.338743 0.571095 0
M  V30 7353 H 684.913 -0.457202 1.99426 0
M  V30 7354 H 684.923 -2.62954 3.1196 0
M  V30 7355 H 683.598 -1.69726 3.79692 0
M  V30 7356 H 682.175 -2.86543 2.38637 0
M  V30 7357 N 684.36 -1.4356 -0.65026 0
M  V30 7358 C 685.637 -1.35811 -1.40765 0
M  V30 7359 C 686.017 -0.00736379 -2.11099 0
M  V30 7360 O 685.365 1.00932 -2.05 0
M  V30 7361 C 685.575 -2.54332 -2.3899 0
M  V30 7362 C 686.923 -2.97551 -3.02901 0
M  V30 7363 O 687.947 -2.544 -2.49317 0
M  V30 7364 O 686.806 -3.72311 -4.00059 0
M  V30 7365 H 683.9 -0.536861 -0.629054 0
M  V30 7366 H 686.446 -1.55615 -0.676919 0
M  V30 7367 H 685.218 -3.44274 -1.85986 0
M  V30 7368 H 684.841 -2.36643 -3.19509 0
M  V30 7369 N 685.838 0.888903 -1.30139 0
M  V30 7370 C 686.801 1.97576 -1.16174 0
M  V30 7371 C 687.801 1.60525 -0.094086 0
M  V30 7372 O 688.991 1.70812 -0.341889 0
M  V30 7373 C 686.123 3.3188 -0.778983 0
M  V30 7374 H 687.316 2.11393 -2.12728 0
M  V30 7375 H 684.869 1.0748 -1.1348 0
M  V30 7376 H 685.604 3.23765 0.186225 0
M  V30 7377 H 685.389 3.60141 -1.55051 0
M  V30 7378 H 686.879 4.11612 -0.704631 0
M  V30 7379 N 687.317 1.12792 1.10072 0
M  V30 7380 C 688.227 0.812369 2.20086 0
M  V30 7381 C 689.243 -0.200349 1.72843 0
M  V30 7382 O 690.419 -0.0330262 2.01373 0
M  V30 7383 C 687.484 0.275685 3.45602 0
M  V30 7384 C 686.545 1.34881 4.07561 0
M  V30 7385 C 685.778 0.837639 5.27086 0
M  V30 7386 O 686.001 -0.327224 5.69461 0
M  V30 7387 O 684.935 1.60894 5.79997 0
M  V30 7388 H 688.761 1.73133 2.49517 0
M  V30 7389 H 686.346 0.904863 1.18881 0
M  V30 7390 H 688.228 -0.0185375 4.21396 0
M  V30 7391 H 686.903 -0.615783 3.17789 0
M  V30 7392 H 685.81 1.69625 3.33434 0
M  V30 7393 H 687.143 2.21418 4.39585 0
M  V30 7394 N 688.795 -1.27931 0.920396 0
M  V30 7395 C 690.044 -1.93975 0.552867 0
M  V30 7396 C 690.357 -1.73193 -0.909035 0
M  V30 7397 O 691.563 -2.33515 -1.38502 0
M  V30 7398 C 690.019 -3.47463 0.937947 0
M  V30 7399 C 689.627 -3.77013 2.42003 0
M  V30 7400 C 691.371 -4.19628 0.64132 0
M  V30 7401 C 689.278 -5.23841 2.74489 0
M  V30 7402 H 688.208 -0.726146 0.203046 0
M  V30 7403 H 690.859 -1.45339 1.12022 0
M  V30 7404 H 689.241 -3.94867 0.299317 0
M  V30 7405 H 690.415 -3.40393 3.10595 0
M  V30 7406 H 688.73 -3.18035 2.6878 0
M  V30 7407 H 691.327 -5.27729 0.860622 0
M  V30 7408 H 691.67 -4.14164 -0.421168 0
M  V30 7409 H 692.203 -3.78022 1.23872 0
M  V30 7410 H 688.942 -5.34388 3.79618 0
M  V30 7411 H 688.462 -5.61634 2.1054 0
M  V30 7412 H 690.141 -5.91647 2.61845 0
M  V30 7413 N 690.273 -0.685099 -1.4193 0
M  V30 7414 C 691.522 -0.208816 -2.00616 0
M  V30 7415 C 691.835 1.19506 -1.54847 0
M  V30 7416 O 693.041 1.76826 -2.06021 0
M  V30 7417 C 691.497 -0.322446 -3.58453 0
M  V30 7418 C 691.105 -1.73102 -4.13206 0
M  V30 7419 C 692.849 0.0945979 -4.24395 0
M  V30 7420 C 690.756 -1.79687 -5.63442 0
M  V30 7421 H 689.686 -0.0743092 -0.750329 0
M  V30 7422 H 692.337 -0.851778 -1.62533 0
M  V30 7423 H 690.719 0.388588 -3.94089 0
M  V30 7424 H 691.893 -2.46997 -3.8901 0
M  V30 7425 H 690.208 -2.09682 -3.59753 0
M  V30 7426 H 692.805 0.0656937 -5.3466 0
M  V30 7427 H 693.148 1.1316 -4.00625 0
M  V30 7428 H 693.681 -0.56579 -3.93756 0
M  V30 7429 H 690.42 -2.81404 -5.92024 0
M  V30 7430 H 689.94 -1.10162 -5.89597 0
M  V30 7431 H 691.619 -1.55498 -6.28036 0
M  V30 7432 N 691.751 1.51645 -0.429126 0
M  V30 7433 C 692.683 2.25279 0.422124 0
M  V30 7434 C 693.696 1.28986 0.993299 0
M  V30 7435 O 694.885 1.54797 0.888836 0
M  V30 7436 C 691.985 2.98666 1.60162 0
M  V30 7437 C 691.158 4.2199 1.15078 0
M  V30 7438 C 690.217 4.78028 2.19946 0
M  V30 7439 O 689.243 5.40084 1.79716 0
M  V30 7440 N 690.445 4.61342 3.5234 0
M  V30 7441 H 693.21 2.98971 -0.208931 0
M  V30 7442 H 690.771 1.59838 -0.257568 0
M  V30 7443 H 692.763 3.33044 2.29922 0
M  V30 7444 H 691.333 2.28036 2.13818 0
M  V30 7445 H 690.553 3.932 0.280552 0
M  V30 7446 H 691.841 5.02037 0.826831 0
M  V30 7447 H 691.239 4.11894 3.87763 0
M  V30 7448 H 689.796 5.00104 4.18019 0
M  V30 7449 N 693.229 0.160201 1.56784 0
M  V30 7450 C 694.159 -0.770264 2.2043 0
M  V30 7451 C 695.14 -1.24736 1.15651 0
M  V30 7452 O 696.325 -1.30253 1.44041 0
M  V30 7453 C 693.455 -2.00427 2.83631 0
M  V30 7454 C 692.409 -1.66345 3.94352 0
M  V30 7455 C 691.735 -2.97119 4.4455 0
M  V30 7456 C 693.035 -0.899972 5.14488 0
M  V30 7457 H 694.729 -0.239783 2.98438 0
M  V30 7458 H 692.275 -0.113891 1.43549 0
M  V30 7459 H 694.228 -2.66012 3.26827 0
M  V30 7460 H 692.952 -2.5587 2.02973 0
M  V30 7461 H 691.611 -1.03133 3.51794 0
M  V30 7462 H 691.259 -3.5058 3.60698 0
M  V30 7463 H 690.959 -2.75073 5.19238 0
M  V30 7464 H 692.483 -3.63753 4.90425 0
M  V30 7465 H 693.897 -1.45818 5.54446 0
M  V30 7466 H 692.294 -0.778968 5.95023 0
M  V30 7467 H 693.364 0.105827 4.84785 0
M  V30 7468 N 694.707 -1.5719 -0.113559 0
M  V30 7469 C 695.953 -1.85412 -0.821597 0
M  V30 7470 C 696.286 -0.746722 -1.7927 0
M  V30 7471 O 695.561 0.246971 -1.92926 0
M  V30 7472 C 695.844 -3.24233 -1.56669 0
M  V30 7473 C 695.697 -4.45578 -0.614823 0
M  V30 7474 C 697.016 -3.60697 -2.52161 0
M  V30 7475 H 694.135 -0.674406 -0.29723 0
M  V30 7476 H 696.777 -1.89807 -0.085694 0
M  V30 7477 H 694.927 -3.20617 -2.19401 0
M  V30 7478 H 696.599 -4.613 0.00407137 0
M  V30 7479 H 694.842 -4.33738 0.0732332 0
M  V30 7480 H 695.513 -5.39395 -1.17292 0
M  V30 7481 H 697.989 -3.65139 -1.99532 0
M  V30 7482 H 696.865 -4.58798 -3.01323 0
M  V30 7483 H 697.126 -2.88403 -3.35076 0
M  V30 7484 N 696.185 0.383891 -1.52853 0
M  V30 7485 C 697.133 1.48965 -1.7864 0
M  V30 7486 C 698.127 1.56242 -0.654577 0
M  V30 7487 O 699.333 1.59347 -0.83716 0
M  V30 7488 H 695.708 0.495892 -0.565328 0
M  V30 7489 H 697.679 1.24411 -2.71228 0
M  V30 7490 C 696.428 2.86036 -1.97683 0
M  V30 7491 H 695.751 2.81188 -2.84206 0
M  V30 7492 H 697.191 3.62632 -2.19713 0
M  V30 7493 C 695.65 3.28428 -0.750776 0
M  V30 7494 O 696.18 4.0164 0.0693491 0
M  V30 7495 N 694.386 2.84765 -0.579427 0
M  V30 7496 H 693.933 2.25353 -1.24795 0
M  V30 7497 H 693.891 3.13486 0.239544 0
M  V30 7498 N 697.663 1.43903 0.642637 0
M  V30 7499 C 698.626 1.49538 1.73698 0
M  V30 7500 C 699.626 0.378776 1.56275 0
M  V30 7501 O 700.816 0.64095 1.6198 0
M  V30 7502 C 697.948 1.35821 3.12675 0
M  V30 7503 H 699.141 2.47008 1.70079 0
M  V30 7504 H 696.694 1.30824 0.85526 0
M  V30 7505 H 697.429 0.393994 3.21898 0
M  V30 7506 H 697.214 2.16776 3.26727 0
M  V30 7507 H 698.704 1.4272 3.92455 0
M  V30 7508 N 699.141 -0.881989 1.30609 0
M  V30 7509 C 700.088 -1.98803 1.17244 0
M  V30 7510 C 701.058 -1.65987 0.0611905 0
M  V30 7511 O 702.243 -1.89385 0.231911 0
M  V30 7512 C 699.383 -3.33867 0.87333 0
M  V30 7513 C 698.496 -3.79354 2.06675 0
M  V30 7514 C 697.631 -5.03078 1.70547 0
M  V30 7515 C 696.67 -5.40981 2.86366 0
M  V30 7516 N 695.807 -6.55886 2.50514 0
M  V30 7517 H 700.647 -2.09566 2.11863 0
M  V30 7518 H 698.184 -1.02607 1.05405 0
M  V30 7519 H 700.142 -4.11612 0.680519 0
M  V30 7520 H 698.772 -3.2278 -0.0359983 0
M  V30 7521 H 697.824 -2.97492 2.37071 0
M  V30 7522 H 699.136 -4.03382 2.93401 0
M  V30 7523 H 698.29 -5.88457 1.47658 0
M  V30 7524 H 697.029 -4.80927 0.809947 0
M  V30 7525 H 696.034 -4.54127 3.09917 0
M  V30 7526 H 697.259 -5.65104 3.76609 0
M  V30 7527 H 695.205 -6.35306 1.63471 0
M  V30 7528 H 695.122 -6.79799 3.30771 0
M  V30 7529 H 696.39 -7.44489 2.30989 0
M  V30 7530 N 700.619 -1.13374 -1.09472 0
M  V30 7531 C 701.569 -0.77946 -2.14263 0
M  V30 7532 C 702.553 0.226271 -1.59301 0
M  V30 7533 O 703.745 0.0302581 -1.76974 0
M  V30 7534 C 700.874 -0.246635 -3.42413 0
M  V30 7535 C 699.96 -1.28124 -4.04283 0
M  V30 7536 N 700.351 -2.48201 -4.40715 0
M  V30 7537 C 698.649 -1.12892 -4.31476 0
M  V30 7538 C 699.35 -3.14347 -4.8945 0
M  V30 7539 N 698.326 -2.41771 -4.86876 0
M  V30 7540 H 702.128 -1.69305 -2.40235 0
M  V30 7541 H 699.642 -1.01598 -1.26695 0
M  V30 7542 H 701.639 0.0254131 -4.16892 0
M  V30 7543 H 700.299 0.661287 -3.17895 0
M  V30 7544 H 701.31 -2.85511 -4.32093 0
M  V30 7545 H 697.987 -0.279117 -4.16566 0
M  V30 7546 H 699.377 -4.16663 -5.27107 0
M  V30 7547 N 702.098 1.27442 -0.927168 0
M  V30 7548 C 703.347 1.93679 -0.563146 0
M  V30 7549 C 703.66 1.73673 0.899837 0
M  V30 7550 O 704.866 2.34247 1.37262 0
M  V30 7551 C 703.322 3.46961 -0.95636 0
M  V30 7552 C 702.93 3.75724 -2.43999 0
M  V30 7553 C 704.674 4.19282 -0.663565 0
M  V30 7554 C 702.581 5.22378 -2.77263 0
M  V30 7555 H 701.511 0.725059 -0.206894 0
M  V30 7556 H 704.162 1.44743 -1.12791 0
M  V30 7557 H 702.544 3.94703 -0.320254 0
M  V30 7558 H 703.718 3.38741 -3.12396 0
M  V30 7559 H 702.033 3.16605 -2.70463 0
M  V30 7560 H 704.63 5.27265 -0.888596 0
M  V30 7561 H 704.973 4.14382 0.399198 0
M  V30 7562 H 705.506 3.7736 -1.25875 0
M  V30 7563 H 702.245 5.32367 -3.82446 0
M  V30 7564 H 701.765 5.6051 -2.13516 0
M  V30 7565 H 703.444 5.9025 -2.64979 0
M  V30 7566 N 703.576 0.692616 1.41565 0
M  V30 7567 C 704.987 0.297478 1.84315 0
M  V30 7568 C 705.338 -1.16379 1.57957 0
M  V30 7569 O 704.463 -1.89303 1.0485 0
M  V30 7570 C 705.058 0.533136 3.34579 0
M  V30 7571 C 703.617 0.191944 3.7591 0
M  V30 7572 C 702.764 0.816873 2.64995 0
M  V30 7573 H 705.715 0.893488 1.31158 0
M  V30 7574 H 705.736 -0.209105 3.79925 0
M  V30 7575 H 705.248 1.59674 3.53731 0
M  V30 7576 H 703.349 -0.867512 3.6236 0
M  V30 7577 H 703.462 0.644902 4.7474 0
M  V30 7578 H 701.826 0.246715 2.53502 0
M  V30 7579 H 702.609 1.88429 2.86966 0
M  V30 7580 N 705.054 -1.51416 0.437162 0
M  V30 7581 C 706.017 -2.26312 -0.362729 0
M  V30 7582 C 707.017 -1.29748 -0.949847 0
M  V30 7583 O 708.207 -1.53462 -0.824325 0
M  V30 7584 C 705.339 -3.05475 -1.5132 0
M  V30 7585 H 706.532 -2.98459 0.29365 0
M  V30 7586 H 704.085 -1.55137 0.190327 0
M  V30 7587 H 704.82 -2.37744 -2.20563 0
M  V30 7588 H 704.605 -3.76401 -1.09838 0
M  V30 7589 H 706.095 -3.62209 -2.07833 0
M  V30 7590 N 706.532 -0.168513 -1.56696 0
M  V30 7591 C 707.762 0.482802 -2.0088 0
M  V30 7592 C 708.17 1.57537 -1.0478 0
M  V30 7593 O 707.513 1.83656 -0.0402746 0
M  V30 7594 C 707.575 1.1236 -3.4149 0
M  V30 7595 C 707.239 0.173027 -4.56672 0
M  V30 7596 C 708.236 -0.607565 -5.16338 0
M  V30 7597 C 705.921 0.0696691 -5.02252 0
M  V30 7598 C 707.915 -1.47874 -6.2001 0
M  V30 7599 C 705.602 -0.805096 -6.05773 0
M  V30 7600 C 706.6 -1.57789 -6.64524 0
M  V30 7601 O 706.288 -2.43804 -7.66038 0
M  V30 7602 H 706.02 0.128246 -0.663723 0
M  V30 7603 H 708.574 -0.266532 -2.03663 0
M  V30 7604 H 706.804 1.921 -3.35611 0
M  V30 7605 H 708.493 1.67683 -3.69645 0
M  V30 7606 H 709.259 -0.53787 -4.82008 0
M  V30 7607 H 705.138 0.660957 -4.56237 0
M  V30 7608 H 708.682 -2.0824 -6.65794 0
M  V30 7609 H 704.579 -0.876005 -6.39528 0
M  V30 7610 H 705.347 -2.37289 -7.83349 0
M  V30 7611 N 708.01 1.57248 0.105221 0
M  V30 7612 C 708.957 2.01338 1.12835 0
M  V30 7613 C 709.927 0.887897 1.40377 0
M  V30 7614 O 711.112 1.15315 1.5201 0
M  V30 7615 C 708.252 2.43432 2.44611 0
M  V30 7616 C 707.365 3.69457 2.23888 0
M  V30 7617 C 706.5 4.00473 3.48991 0
M  V30 7618 C 705.539 5.19638 3.23485 0
M  V30 7619 N 704.676 5.46457 4.40828 0
M  V30 7620 H 709.516 2.88527 0.745386 0
M  V30 7621 H 707.053 1.42714 0.356535 0
M  V30 7622 H 709.011 2.65879 3.21503 0
M  V30 7623 H 707.641 1.59266 2.80774 0
M  V30 7624 H 706.693 3.54545 1.37847 0
M  V30 7625 H 708.005 4.56497 2.01026 0
M  V30 7626 H 707.159 4.23642 4.34295 0
M  V30 7627 H 705.898 3.11935 3.74897 0
M  V30 7628 H 704.903 4.96299 2.36574 0
M  V30 7629 H 706.128 6.09766 2.98935 0
M  V30 7630 H 704.074 4.60876 4.66829 0
M  V30 7631 H 703.991 6.27849 4.2112 0
M  V30 7632 H 705.259 5.74155 5.27225 0
M  V30 7633 N 709.488 -0.375779 1.53054 0
M  V30 7634 C 710.418 -1.46598 1.81745 0
M  V30 7635 C 711.399 -1.56337 0.670286 0
M  V30 7636 O 712.584 -1.71071 0.919158 0
M  V30 7637 C 709.714 -2.84058 1.99821 0
M  V30 7638 C 708.668 -2.8915 3.15557 0
M  V30 7639 C 707.994 -4.29187 3.18908 0
M  V30 7640 C 709.294 -2.57595 4.54359 0
M  V30 7641 H 710.988 -1.22837 2.73041 0
M  V30 7642 H 708.534 -0.589485 1.31381 0
M  V30 7643 H 710.487 -3.60342 2.18475 0
M  V30 7644 H 709.211 -3.09184 1.05226 0
M  V30 7645 H 707.87 -2.15316 2.96706 0
M  V30 7646 H 707.518 -4.51374 2.2197 0
M  V30 7647 H 707.218 -4.33512 3.96662 0
M  V30 7648 H 708.742 -5.07359 3.39734 0
M  V30 7649 H 710.156 -3.23595 4.73243 0
M  V30 7650 H 708.553 -2.73252 5.34279 0
M  V30 7651 H 709.623 -1.52882 4.60169 0
M  V30 7652 N 710.966 -1.44241 -0.634997 0
M  V30 7653 C 711.876 -1.53293 -1.77591 0
M  V30 7654 C 712.892 -0.418831 -1.68884 0
M  V30 7655 O 714.068 -0.675619 -1.8973 0
M  V30 7656 C 711.133 -1.47075 -3.13958 0
M  V30 7657 C 710.194 -2.69304 -3.34326 0
M  V30 7658 C 709.427 -2.63374 -4.64187 0
M  V30 7659 O 709.65 -1.69161 -5.44739 0
M  V30 7660 O 708.584 -3.54166 -4.86673 0
M  V30 7661 H 712.41 -2.49673 -1.72908 0
M  V30 7662 H 709.995 -1.26445 -0.795745 0
M  V30 7663 H 711.877 -1.46117 -3.95257 0
M  V30 7664 H 710.552 -0.538373 -3.19192 0
M  V30 7665 H 709.459 -2.75831 -2.52721 0
M  V30 7666 H 710.792 -3.61576 -3.33951 0
M  V30 7667 N 712.444 0.87505 -1.31075 0
M  V30 7668 C 713.672 1.66058 -1.23419 0
M  V30 7669 C 714.087 1.87723 0.201347 0
M  V30 7670 O 713.444 1.43178 1.13165 0
M  V30 7671 C 713.495 3.03142 -1.96945 0
M  V30 7672 O 713.216 2.82448 -3.34895 0
M  V30 7673 C 714.717 3.97583 -1.96067 0
M  V30 7674 H 711.937 0.517868 -0.426677 0
M  V30 7675 H 714.481 1.09258 -1.72867 0
M  V30 7676 H 712.636 3.56645 -1.51271 0
M  V30 7677 H 713.05 3.69483 -3.72267 0
M  V30 7678 H 714.524 4.91104 -2.52034 0
M  V30 7679 H 715.001 4.2898 -0.941961 0
M  V30 7680 H 715.607 3.50015 -2.41597 0
M  V30 7681 N 713.922 1.13953 1.08869 0
M  V30 7682 C 714.852 0.844824 2.17681 0
M  V30 7683 C 715.833 -0.198213 1.68941 0
M  V30 7684 O 717.018 -0.0559073 1.9412 0
M  V30 7685 C 714.148 0.316325 3.45856 0
M  V30 7686 C 713.102 1.29426 4.07962 0
M  V30 7687 C 712.428 0.625275 5.31031 0
M  V30 7688 C 713.728 2.65484 4.49795 0
M  V30 7689 H 715.422 1.75471 2.42591 0
M  V30 7690 H 712.968 0.845116 1.16592 0
M  V30 7691 H 714.921 0.0977876 4.21287 0
M  V30 7692 H 713.645 -0.628972 3.20486 0
M  V30 7693 H 712.304 1.49889 3.34558 0
M  V30 7694 H 711.952 -0.325678 5.01945 0
M  V30 7695 H 711.652 1.27777 5.73539 0
M  V30 7696 H 713.176 0.416152 6.0918 0
M  V30 7697 H 714.59 2.48957 5.16424 0
M  V30 7698 H 712.987 3.26963 5.03205 0
M  V30 7699 H 714.057 3.22717 3.61914 0
M  V30 7700 N 715.4 -1.26948 0.933913 0
M  V30 7701 C 716.333 -2.24977 0.382169 0
M  V30 7702 C 717.311 -1.53893 -0.524949 0
M  V30 7703 O 718.495 -1.82699 -0.464048 0
M  V30 7704 C 715.622 -3.35676 -0.451615 0
M  V30 7705 C 714.668 -4.24686 0.392947 0
M  V30 7706 S 715.501 -5.03898 1.81237 0
M  V30 7707 C 716.657 -6.18078 0.986443 0
M  V30 7708 H 716.89 -2.71429 1.21299 0
M  V30 7709 H 714.423 -1.35701 0.736523 0
M  V30 7710 H 716.381 -3.99901 -0.926797 0
M  V30 7711 H 715.042 -2.8785 -1.25703 0
M  V30 7712 H 714.235 -5.03402 -0.245533 0
M  V30 7713 H 713.837 -3.65288 0.802537 0
M  V30 7714 H 716.129 -6.77125 0.225321 0
M  V30 7715 H 717.072 -6.86216 1.74682 0
M  V30 7716 H 717.48 -5.62047 0.525711 0
M  V30 7717 N 716.879 -0.700114 -1.41195 0
M  V30 7718 C 717.789 -0.0382854 -2.34569 0
M  V30 7719 C 718.805 0.761036 -1.56474 0
M  V30 7720 O 719.981 0.697553 -1.88934 0
M  V30 7721 C 717.046 0.883522 -3.35253 0
M  V30 7722 C 716.107 0.0758957 -4.29233 0
M  V30 7723 C 715.34 0.9538 -5.25108 0
M  V30 7724 O 715.563 2.19326 -5.26547 0
M  V30 7725 O 714.497 0.401049 -6.00562 0
M  V30 7726 H 718.323 -0.808073 -2.92752 0
M  V30 7727 H 715.908 -0.460479 -1.42127 0
M  V30 7728 H 717.79 1.41199 -3.9704 0
M  V30 7729 H 716.465 1.63272 -2.79506 0
M  V30 7730 H 715.372 -0.497274 -3.7078 0
M  V30 7731 H 716.705 -0.634741 -4.8809 0
M  V30 7732 N 718.357 1.51182 -0.445186 0
M  V30 7733 C 719.585 2.06568 0.117091 0
M  V30 7734 C 720 1.31182 1.35781 0
M  V30 7735 O 719.357 0.373605 1.78635 0
M  V30 7736 C 719.408 3.58917 0.431408 0
M  V30 7737 O 719.129 4.31456 -0.760078 0
M  V30 7738 C 720.63 4.30843 1.0435 0
M  V30 7739 H 717.85 0.670985 0.00444436 0
M  V30 7740 H 720.394 1.94666 -0.626525 0
M  V30 7741 H 718.549 3.70708 1.12493 0
M  V30 7742 H 718.963 5.22215 -0.489048 0
M  V30 7743 H 720.437 5.38499 1.21337 0
M  V30 7744 H 720.914 3.89644 2.02667 0
M  V30 7745 H 721.52 4.23516 0.38913 0
M  V30 7746 N 719.835 0.176821 1.56605 0
M  V30 7747 C 720.785 -0.763718 2.14829 0
M  V30 7748 C 721.769 -1.18903 1.08401 0
M  V30 7749 O 722.961 -1.15048 1.3451 0
M  V30 7750 C 720.09 -1.99069 2.7969 0
M  V30 7751 C 719.176 -1.58711 3.93283 0
M  V30 7752 N 719.567 -0.893423 4.97847 0
M  V30 7753 C 717.865 -1.87774 4.04545 0
M  V30 7754 C 718.566 -0.693866 5.77547 0
M  V30 7755 N 717.542 -1.23699 5.29339 0
M  V30 7756 H 721.344 -0.224811 2.93039 0
M  V30 7757 H 718.858 -0.0236563 1.62383 0
M  V30 7758 H 720.855 -2.67478 3.19783 0
M  V30 7759 H 719.515 -2.53449 2.02962 0
M  V30 7760 H 720.526 -0.550868 5.14962 0
M  V30 7761 H 717.203 -2.43793 3.38927 0
M  V30 7762 H 718.593 -0.144899 6.71744 0
M  V30 7763 N 721.313 -1.57302 -0.09688 0
M  V30 7764 C 722.223 -2.05258 -1.13606 0
M  V30 7765 C 723.239 -0.977137 -1.43972 0
M  V30 7766 O 724.415 -1.29018 -1.54649 0
M  V30 7767 C 721.48 -2.46593 -2.43706 0
M  V30 7768 C 720.541 -3.68322 -2.20538 0
M  V30 7769 C 719.774 -4.07676 -3.44435 0
M  V30 7770 O 719.997 -3.47141 -4.52603 0
M  V30 7771 O 718.931 -5.00641 -3.34129 0
M  V30 7772 H 722.757 -2.94069 -0.758752 0
M  V30 7773 H 720.342 -1.46164 -0.309263 0
M  V30 7774 H 722.224 -2.73814 -3.20318 0
M  V30 7775 H 720.899 -1.6092 -2.80867 0
M  V30 7776 H 719.806 -3.4622 -1.41713 0
M  V30 7777 H 721.139 -4.54769 -1.88271 0
M  V30 7778 N 722.791 0.367657 -1.53252 0
M  V30 7779 C 724.207 0.709191 -1.42978 0
M  V30 7780 C 724.407 1.93352 -0.567193 0
M  V30 7781 O 723.463 2.52453 -0.0488349 0
M  V30 7782 C 724.776 0.924338 -2.86141 0
M  V30 7783 C 726.324 1.02448 -2.95759 0
M  V30 7784 C 726.799 1.27211 -4.39979 0
M  V30 7785 N 728.29 1.33986 -4.43398 0
M  V30 7786 C 729.025 1.54852 -5.52095 0
M  V30 7787 N 728.521 1.73049 -6.7084 0
M  V30 7788 N 730.314 1.57205 -5.39669 0
M  V30 7789 H 722.465 -0.437669 -2.07842 0
M  V30 7790 H 724.728 -0.133737 -0.938519 0
M  V30 7791 H 724.434 0.0965455 -3.51567 0
M  V30 7792 H 724.308 1.83302 -3.29667 0
M  V30 7793 H 726.695 1.84282 -2.30487 0
M  V30 7794 H 726.776 0.0932301 -2.5563 0
M  V30 7795 H 726.42 0.458792 -5.05824 0
M  V30 7796 H 726.35 2.21654 -4.77679 0
M  V30 7797 H 728.841 1.21545 -3.5782 0
M  V30 7798 H 729.154 1.88538 -7.49449 0
M  V30 7799 H 727.499 1.70231 -6.7383 0
M  V30 7800 H 730.69 1.42555 -4.45865 0
M  V30 7801 H 730.863 1.73126 -6.24445 0
M  V30 7802 N 724.269 1.44576 0.627338 0
M  V30 7803 C 725.517 1.47267 1.38408 0
M  V30 7804 C 725.838 0.107971 1.94701 0
M  V30 7805 O 725.108 -0.860206 1.76004 0
M  V30 7806 H 723.688 0.542276 0.513756 0
M  V30 7807 H 726.35 1.80383 0.738099 0
M  V30 7808 H 725.446 2.20025 2.21349 0
M  V30 7809 N 725.747 -0.868086 1.31537 0
M  V30 7810 C 726.993 -1.62367 1.2151 0
M  V30 7811 C 727.326 -1.92883 -0.225819 0
M  V30 7812 O 726.601 -1.56176 -1.15927 0
M  V30 7813 C 726.884 -2.95268 2.06129 0
M  V30 7814 C 726.737 -2.71619 3.58529 0
M  V30 7815 C 728.056 -3.96391 1.91212 0
M  V30 7816 H 725.175 -0.589178 0.442762 0
M  V30 7817 H 727.817 -1.00336 1.61347 0
M  V30 7818 H 725.967 -3.4821 1.72284 0
M  V30 7819 H 727.639 -2.25334 4.0252 0
M  V30 7820 H 725.882 -2.05817 3.81866 0
M  V30 7821 H 726.553 -3.66192 4.13047 0
M  V30 7822 H 729.029 -3.52663 2.20834 0
M  V30 7823 H 727.905 -4.87263 2.52718 0
M  V30 7824 H 728.166 -4.33335 0.875953 0
M  V30 7825 N 727.225 -1.14528 -1.08264 0
M  V30 7826 C 728.45 -0.938381 -1.84957 0
M  V30 7827 C 728.875 0.508044 -1.81109 0
M  V30 7828 O 728.233 1.36146 -1.19724 0
M  V30 7829 C 728.281 -1.44568 -3.30352 0
M  V30 7830 O 727.385 -0.638745 -4.07423 0
M  V30 7831 H 726.726 -0.335394 -0.573068 0
M  V30 7832 H 729.256 -1.52287 -1.36637 0
M  V30 7833 H 729.266 -1.45449 -3.81194 0
M  V30 7834 H 727.941 -2.49876 -3.32468 0
M  V30 7835 H 726.518 -0.698801 -3.66294 0
M  V30 7836 N 728.703 1.26451 -0.940633 0
M  V30 7837 C 729.952 1.93071 -0.583656 0
M  V30 7838 C 730.265 1.74618 0.881366 0
M  V30 7839 O 731.471 2.35689 1.34769 0
M  V30 7840 C 729.927 3.45927 -0.993106 0
M  V30 7841 C 729.535 3.73115 -2.4797 0
M  V30 7842 C 731.279 4.18554 -0.707998 0
M  V30 7843 C 729.186 5.19408 -2.82788 0
M  V30 7844 H 728.116 0.722824 -0.214572 0
M  V30 7845 H 730.767 1.43538 -1.1432 0
M  V30 7846 H 729.149 3.94341 -0.362099 0
M  V30 7847 H 730.323 3.35408 -3.15971 0
M  V30 7848 H 728.638 3.13719 -2.73805 0
M  V30 7849 H 731.235 5.26293 -0.94447 0
M  V30 7850 H 731.578 4.14782 0.355225 0
M  V30 7851 H 732.111 3.76003 -1.2987 0
M  V30 7852 H 728.85 5.28281 -3.88071 0
M  V30 7853 H 728.37 5.58214 -2.19449 0
M  V30 7854 H 730.049 5.87407 -2.71224 0
M  V30 7855 N 730.181 0.707592 1.40822 0
M  V30 7856 C 731.597 0.38034 1.55002 0
M  V30 7857 C 731.797 -1.11163 1.68062 0
M  V30 7858 O 730.853 -1.89761 1.66574 0
M  V30 7859 C 732.166 1.1394 2.78277 0
M  V30 7860 C 733.714 1.12492 2.92087 0
M  V30 7861 C 734.189 1.86597 4.18265 0
M  V30 7862 N 735.68 1.83626 4.25248 0
M  V30 7863 C 736.415 2.37794 5.21768 0
M  V30 7864 N 735.911 3.00485 6.24244 0
M  V30 7865 N 737.704 2.27982 5.13791 0
M  V30 7866 H 729.855 1.67511 1.3059 0
M  V30 7867 H 732.118 0.707579 0.630901 0
M  V30 7868 H 731.824 2.19398 2.74877 0
M  V30 7869 H 731.698 0.725793 3.70151 0
M  V30 7870 H 734.085 0.0785564 2.94995 0
M  V30 7871 H 734.166 1.57768 2.01353 0
M  V30 7872 H 733.81 2.91219 4.16118 0
M  V30 7873 H 733.74 1.38746 5.07993 0
M  V30 7874 H 736.231 1.3793 3.51829 0
M  V30 7875 H 736.544 3.39355 6.94304 0
M  V30 7876 H 734.889 3.04567 6.24711 0
M  V30 7877 H 738.08 1.78669 4.3266 0
M  V30 7878 H 738.253 2.70499 5.88841 0
M  V30 7879 N 731.66 -1.50943 0.453197 0
M  V30 7880 C 733.076 -1.59245 0.106342 0
M  V30 7881 C 733.276 -1.46287 -1.38572 0
M  V30 7882 O 732.332 -1.31219 -2.15726 0
M  V30 7883 C 733.645 -2.93797 0.640595 0
M  V30 7884 C 735.193 -3.07148 0.602435 0
M  V30 7885 C 735.668 -4.44247 1.11393 0
M  V30 7886 N 737.159 -4.50611 1.07258 0
M  V30 7887 C 737.894 -5.55049 1.43905 0
M  V30 7888 N 737.39 -6.66828 1.87914 0
M  V30 7889 N 739.183 -5.45494 1.35621 0
M  V30 7890 H 731.334 -1.5761 1.42382 0
M  V30 7891 H 733.597 -0.74384 0.587713 0
M  V30 7892 H 733.303 -3.087 1.68515 0
M  V30 7893 H 733.177 -3.77127 0.0742272 0
M  V30 7894 H 735.564 -2.91903 -0.433171 0
M  V30 7895 H 735.645 -2.25619 1.20539 0
M  V30 7896 H 735.289 -4.60239 2.14808 0
M  V30 7897 H 735.219 -5.2434 0.487353 0
M  V30 7898 H 737.71 -3.70391 0.749585 0
M  V30 7899 H 738.023 -7.42558 2.14072 0
M  V30 7900 H 736.368 -6.67995 1.91853 0
M  V30 7901 H 739.559 -4.57053 1.01093 0
M  V30 7902 H 739.732 -6.2677 1.64508 0
M  V30 7903 N 733.138 -0.185124 -1.56509 0
M  V30 7904 C 734.07 0.771401 -2.15829 0
M  V30 7905 C 735.083 1.18392 -1.11747 0
M  V30 7906 O 736.272 1.12137 -1.38879 0
M  V30 7907 C 733.372 2.05169 -2.69739 0
M  V30 7908 C 732.545 1.80056 -3.98621 0
M  V30 7909 C 731.604 2.92435 -4.37456 0
M  V30 7910 O 730.63 2.62473 -5.05071 0
M  V30 7911 N 731.832 4.20554 -4.00143 0
M  V30 7912 H 734.597 0.264184 -2.98533 0
M  V30 7913 H 732.158 -0.00281069 -1.619 0
M  V30 7914 H 734.15 2.7947 -2.92709 0
M  V30 7915 H 732.72 2.47041 -1.91545 0
M  V30 7916 H 731.94 0.895862 -3.83885 0
M  V30 7917 H 733.228 1.60662 -4.82768 0
M  V30 7918 H 732.626 4.47753 -3.45736 0
M  V30 7919 H 731.183 4.91514 -4.28085 0
M  V30 7920 N 734.616 1.57351 0.0885366 0
M  V30 7921 C 735.546 2.05561 1.10757 0
M  V30 7922 C 736.527 0.945789 1.41382 0
M  V30 7923 O 737.712 1.21747 1.51299 0
M  V30 7924 C 734.842 2.48554 2.42566 0
M  V30 7925 C 733.796 3.63259 2.26334 0
M  V30 7926 C 733.122 3.9225 3.63378 0
M  V30 7927 C 734.422 4.93913 1.69844 0
M  V30 7928 H 736.116 2.90946 0.706468 0
M  V30 7929 H 733.662 1.39968 0.338385 0
M  V30 7930 H 735.615 2.8089 3.14132 0
M  V30 7931 H 734.339 1.60176 2.84625 0
M  V30 7932 H 732.998 3.31179 1.57213 0
M  V30 7933 H 732.646 3.0103 4.02976 0
M  V30 7934 H 732.346 4.69478 3.53362 0
M  V30 7935 H 733.87 4.27067 4.36401 0
M  V30 7936 H 735.284 5.24588 2.31258 0
M  V30 7937 H 733.681 5.75349 1.70569 0
M  V30 7938 H 734.751 4.80409 0.65843 0
M  V30 7939 N 736.094 -0.359525 1.53444 0
M  V30 7940 C 737.024 -1.44662 1.8329 0
M  V30 7941 C 738.005 -1.55617 0.68683 0
M  V30 7942 O 739.19 -1.70086 0.93725 0
M  V30 7943 C 736.32 -2.81923 2.02822 0
M  V30 7944 C 735.274 -2.85787 3.18606 0
M  V30 7945 C 734.6 -4.25781 3.23442 0
M  V30 7946 C 735.9 -2.52762 4.57065 0
M  V30 7947 H 737.594 -1.19934 2.74329 0
M  V30 7948 H 735.14 -0.575517 1.31999 0
M  V30 7949 H 737.093 -3.58005 2.22285 0
M  V30 7950 H 735.817 -3.08051 1.085 0
M  V30 7951 H 734.476 -2.12157 2.98973 0
M  V30 7952 H 734.124 -4.48994 2.26745 0
M  V30 7953 H 733.824 -4.29281 4.01238 0
M  V30 7954 H 735.348 -5.03727 3.45096 0
M  V30 7955 H 736.762 -3.18557 4.76649 0
M  V30 7956 H 735.159 -2.67569 5.37147 0
M  V30 7957 H 736.229 -1.47993 4.61764 0
M  V30 7958 N 737.572 -1.44907 -0.619662 0
M  V30 7959 C 738.797 -1.52021 -1.41083 0
M  V30 7960 C 739.222 -0.14976 -1.87503 0
M  V30 7961 O 738.58 0.863303 -1.59426 0
M  V30 7962 C 738.628 -2.49911 -2.59955 0
M  V30 7963 O 737.732 -2.00857 -3.60181 0
M  V30 7964 H 737.073 -0.512912 -0.421684 0
M  V30 7965 H 739.603 -1.90149 -0.755282 0
M  V30 7966 H 739.613 -2.68323 -3.07354 0
M  V30 7967 H 738.288 -3.4945 -2.25516 0
M  V30 7968 H 736.865 -1.92265 -3.19513 0
M  V30 7969 N 739.05 0.861098 -1.31996 0
M  V30 7970 C 739.997 1.96912 -1.20392 0
M  V30 7971 C 740.967 1.65869 -0.0875899 0
M  V30 7972 O 742.152 1.88992 -0.262011 0
M  V30 7973 C 739.292 3.32435 -0.926335 0
M  V30 7974 C 738.405 3.76018 -2.12684 0
M  V30 7975 C 737.54 5.00301 -1.78529 0
M  V30 7976 C 736.579 5.36357 -2.94937 0
M  V30 7977 N 735.716 6.51818 -2.60917 0
M  V30 7978 H 740.556 2.06169 -2.1517 0
M  V30 7979 H 738.093 1.00917 -1.07024 0
M  V30 7980 H 740.051 4.10478 -0.745917 0
M  V30 7981 H 738.681 3.22796 -0.0153578 0
M  V30 7982 H 737.733 2.93683 -2.41774 0
M  V30 7983 H 739.045 3.98664 -2.99781 0
M  V30 7984 H 738.199 5.86034 -1.57001 0
M  V30 7985 H 736.938 4.79578 -0.886356 0
M  V30 7986 H 735.943 4.49139 -3.17103 0
M  V30 7987 H 737.168 5.59041 -3.85552 0
M  V30 7988 H 735.114 6.32624 -1.73558 0
M  V30 7989 H 735.031 6.7445 -3.41544 0
M  V30 7990 H 736.299 7.4072 -2.42804 0
M  V30 7991 N 740.528 1.15101 1.07655 0
M  V30 7992 C 741.475 0.844958 2.14777 0
M  V30 7993 C 742.445 -0.200798 1.64882 0
M  V30 7994 O 743.63 -0.0690278 1.90675 0
M  V30 7995 C 740.77 0.337018 3.4345 0
M  V30 7996 C 739.883 1.44398 4.07153 0
M  V30 7997 C 739.018 0.892487 5.23649 0
M  V30 7998 C 738.057 1.9766 5.79307 0
M  V30 7999 N 737.194 1.44171 6.87138 0
M  V30 8000 H 742.034 1.76242 2.40297 0
M  V30 8001 H 739.571 0.879435 1.17917 0
M  V30 8002 H 741.529 0.024256 4.17193 0
M  V30 8003 H 740.159 -0.543531 3.18191 0
M  V30 8004 H 739.211 1.87299 3.31094 0
M  V30 8005 H 740.523 2.26262 4.4453 0
M  V30 8006 H 739.677 0.532083 6.04362 0
M  V30 8007 H 738.416 0.0429854 4.87681 0
M  V30 8008 H 737.421 2.34586 4.97242 0
M  V30 8009 H 738.646 2.82982 6.17331 0
M  V30 8010 H 736.592 0.614518 6.53115 0
M  V30 8011 H 736.509 2.19665 7.23383 0
M  V30 8012 H 737.777 1.10945 7.71564 0
M  V30 8013 N 742.006 -1.2595 0.947325 0
M  V30 8014 C 742.936 -2.28521 0.479604 0
M  V30 8015 C 743.917 -1.63469 -0.470293 0
M  V30 8016 O 745.102 -1.90627 -0.370824 0
M  V30 8017 C 742.232 -3.46397 -0.250289 0
M  V30 8018 C 741.186 -4.23578 0.613643 0
M  V30 8019 C 740.512 -5.34131 -0.246568 0
M  V30 8020 C 741.812 -4.86979 1.88809 0
M  V30 8021 H 743.506 -2.67895 1.33688 0
M  V30 8022 H 741.052 -1.28783 0.644274 0
M  V30 8023 H 743.005 -4.17269 -0.588576 0
M  V30 8024 H 741.729 -3.05993 -1.14175 0
M  V30 8025 H 740.388 -3.54478 0.93491 0
M  V30 8026 H 740.036 -4.89968 -1.13756 0
M  V30 8027 H 739.736 -5.86683 0.328123 0
M  V30 8028 H 741.26 -6.07839 -0.579986 0
M  V30 8029 H 742.674 -5.50034 1.61666 0
M  V30 8030 H 741.071 -5.49675 2.40784 0
M  V30 8031 H 742.141 -4.09575 2.5957 0
M  V30 8032 N 743.484 -0.715051 -1.40445 0
M  V30 8033 C 744.709 -0.26254 -2.05732 0
M  V30 8034 C 745.134 1.08691 -1.53519 0
M  V30 8035 O 744.492 1.68453 -0.670328 0
M  V30 8036 C 744.54 -0.25195 -3.59719 0
M  V30 8037 O 743.644 0.766998 -4.05205 0
M  V30 8038 H 742.985 -0.123398 -0.652433 0
M  V30 8039 H 745.515 -0.975382 -1.79854 0
M  V30 8040 H 745.525 -0.0894537 -4.07902 0
M  V30 8041 H 744.2 -1.23672 -3.97087 0
M  V30 8042 H 742.777 0.572269 -3.68483 0
M  V30 8043 N 744.962 1.50701 -0.461195 0
M  V30 8044 C 745.872 2.32069 0.343661 0
M  V30 8045 C 746.888 1.42016 1.00535 0
M  V30 8046 O 748.064 1.75077 0.995498 0
M  V30 8047 C 745.129 3.16424 1.41692 0
M  V30 8048 C 744.19 4.22286 0.772869 0
M  V30 8049 C 743.423 5.02609 1.79499 0
M  V30 8050 O 743.646 4.83874 3.0203 0
M  V30 8051 O 742.58 5.86047 1.3723 0
M  V30 8052 H 746.406 3.01996 -0.321268 0
M  V30 8053 H 743.991 1.47723 -0.223235 0
M  V30 8054 H 745.873 3.68795 2.03883 0
M  V30 8055 H 744.548 2.49236 2.0655 0
M  V30 8056 H 743.455 3.73931 0.112277 0
M  V30 8057 H 744.788 4.91915 0.167399 0
M  V30 8058 N 746.441 0.193421 1.56409 0
M  V30 8059 C 747.852 -0.319471 1.83946 0
M  V30 8060 C 748.203 -1.61505 1.11403 0
M  V30 8061 O 747.328 -2.13139 0.374289 0
M  V30 8062 C 747.923 -0.586411 3.33686 0
M  V30 8063 C 746.482 -1.04368 3.61641 0
M  V30 8064 C 745.629 -0.0913834 2.77149 0
M  V30 8065 H 748.58 0.417242 1.53117 0
M  V30 8066 H 748.601 -1.43591 3.52366 0
M  V30 8067 H 748.113 0.356701 3.86457 0
M  V30 8068 H 746.214 -2.00113 3.14302 0
M  V30 8069 H 746.327 -0.937549 4.69837 0
M  V30 8070 H 744.691 -0.592954 2.47702 0
M  V30 8071 H 745.474 0.846142 3.32709 0
M  V30 8072 N 747.919 -1.57396 -0.0801906 0
M  V30 8073 C 749.144 -1.91437 -0.797909 0
M  V30 8074 C 749.569 -0.789075 -1.70749 0
M  V30 8075 O 748.927 0.25857 -1.79447 0
M  V30 8076 C 748.975 -3.24402 -1.57467 0
M  V30 8077 O 748.079 -3.13043 -2.68473 0
M  V30 8078 H 747.42 -0.627109 -0.218243 0
M  V30 8079 H 749.95 -2.04537 -0.050949 0
M  V30 8080 H 749.96 -3.58072 -1.95571 0
M  V30 8081 H 748.635 -4.05884 -0.907229 0
M  V30 8082 H 747.212 -2.90915 -2.33287 0
M  V30 8083 N 749.397 0.351382 -1.53633 0
M  V30 8084 C 750.622 1.11718 -1.74739 0
M  V30 8085 C 751.047 1.81829 -0.481657 0
M  V30 8086 O 750.405 1.72264 0.565233 0
M  V30 8087 C 750.453 2.11234 -2.92254 0
M  V30 8088 O 749.557 3.186 -2.61855 0
M  V30 8089 H 748.898 0.323482 -0.579875 0
M  V30 8090 H 751.428 0.404167 -2.00568 0
M  V30 8091 H 751.438 2.54591 -3.18822 0
M  V30 8092 H 750.113 1.59599 -3.84058 0
M  V30 8093 H 748.69 2.80115 -2.4615 0
M  V30 8094 N 750.875 1.45233 0.611969 0
M  V30 8095 C 751.805 1.5641 1.73373 0
M  V30 8096 C 752.786 0.415896 1.64937 0
M  V30 8097 O 753.971 0.638478 1.83404 0
M  V30 8098 C 751.101 1.52627 3.11965 0
M  V30 8099 C 750.055 2.66119 3.35208 0
M  V30 8100 C 749.381 2.4739 4.74028 0
M  V30 8101 C 750.681 4.08157 3.25891 0
M  V30 8102 H 752.375 2.50307 1.64277 0
M  V30 8103 H 749.921 1.20467 0.788904 0
M  V30 8104 H 751.874 1.59043 3.90235 0
M  V30 8105 H 750.598 0.552564 3.21892 0
M  V30 8106 H 749.257 2.59123 2.59327 0
M  V30 8107 H 748.905 1.48168 4.80682 0
M  V30 8108 H 748.605 3.23494 4.90536 0
M  V30 8109 H 750.129 2.55653 5.54503 0
M  V30 8110 H 751.543 4.1642 3.9404 0
M  V30 8111 H 749.94 4.84617 3.5393 0
M  V30 8112 H 751.01 4.30374 2.23397 0
M  V30 8113 N 752.353 -0.854086 1.3245 0
M  V30 8114 C 753.285 -1.96932 1.17262 0
M  V30 8115 C 754.298 -1.62445 0.107469 0
M  V30 8116 O 755.487 -1.74904 0.356481 0
M  V30 8117 C 752.587 -3.29971 0.772817 0
M  V30 8118 C 751.76 -3.92695 1.92638 0
M  V30 8119 C 750.819 -5.04068 1.51003 0
M  V30 8120 O 749.845 -5.24032 2.22213 0
M  V30 8121 N 751.047 -5.79076 0.406371 0
M  V30 8122 H 753.812 -2.10503 2.13327 0
M  V30 8123 H 751.373 -1.02897 1.24995 0
M  V30 8124 H 753.365 -4.01883 0.476684 0
M  V30 8125 H 751.935 -3.1245 -0.0967 0
M  V30 8126 H 751.155 -3.13563 2.38897 0
M  V30 8127 H 752.443 -4.31337 2.69863 0
M  V30 8128 H 751.841 -5.65393 -0.186302 0
M  V30 8129 H 750.398 -6.51579 0.169846 0
M  V30 8130 N 753.831 -1.1567 -1.07043 0
M  V30 8131 C 755.061 -0.956083 -1.83146 0
M  V30 8132 C 755.469 0.498969 -1.82502 0
M  V30 8133 O 754.812 1.35791 -1.23719 0
M  V30 8134 C 754.874 -1.39704 -3.31245 0
M  V30 8135 C 754.538 -2.87045 -3.55604 0
M  V30 8136 C 755.535 -3.85092 -3.49285 0
M  V30 8137 C 753.22 -3.24787 -3.8317 0
M  V30 8138 C 755.214 -5.18885 -3.70185 0
M  V30 8139 C 752.901 -4.58751 -4.03721 0
M  V30 8140 C 753.899 -5.55609 -3.97224 0
M  V30 8141 O 753.587 -6.87154 -4.17223 0
M  V30 8142 H 753.319 -0.339473 -0.58458 0
M  V30 8143 H 755.873 -1.53922 -1.36005 0
M  V30 8144 H 754.103 -0.757326 -3.79212 0
M  V30 8145 H 755.792 -1.16503 -3.88821 0
M  V30 8146 H 756.558 -3.5728 -3.27988 0
M  V30 8147 H 752.437 -2.49979 -3.87339 0
M  V30 8148 H 755.981 -5.94473 -3.6503 0
M  V30 8149 H 751.878 -4.86277 -4.24505 0
M  V30 8150 H 752.646 -6.93618 -4.34553 0
M  V30 8151 N 755.309 1.25446 -0.953992 0
M  V30 8152 C 756.239 2.28264 -0.491717 0
M  V30 8153 C 757.22 1.63717 0.461617 0
M  V30 8154 O 758.405 1.90821 0.36071 0
M  V30 8155 C 755.535 3.46525 0.231915 0
M  V30 8156 C 754.489 4.23247 -0.636098 0
M  V30 8157 C 753.815 5.34254 0.218238 0
M  V30 8158 C 755.115 4.85971 -1.91389 0
M  V30 8159 H 756.809 2.67183 -1.35106 0
M  V30 8160 H 754.355 1.2844 -0.651095 0
M  V30 8161 H 756.308 4.17576 0.566439 0
M  V30 8162 H 755.032 3.06594 1.12551 0
M  V30 8163 H 753.691 3.53978 -0.953696 0
M  V30 8164 H 753.339 4.90564 1.11156 0
M  V30 8165 H 753.039 5.86501 -0.359232 0
M  V30 8166 H 754.563 6.08138 0.547743 0
M  V30 8167 H 755.977 5.49168 -1.64581 0
M  V30 8168 H 754.374 5.48391 -2.43696 0
M  V30 8169 H 755.444 4.08192 -2.61738 0
M  V30 8170 N 756.787 0.722489 1.40064 0
M  V30 8171 C 758.198 0.336507 1.83642 0
M  V30 8172 C 758.549 -1.13002 1.6039 0
M  V30 8173 O 757.674 -1.87036 1.08842 0
M  V30 8174 C 758.269 0.603985 3.33373 0
M  V30 8175 C 756.828 0.271637 3.75419 0
M  V30 8176 C 755.975 0.872898 2.63203 0
M  V30 8177 H 758.926 0.921108 1.29233 0
M  V30 8178 H 758.947 -0.128471 3.80283 0
M  V30 8179 H 758.459 1.67141 3.50265 0
M  V30 8180 H 756.56 -0.790455 3.64119 0
M  V30 8181 H 756.673 0.745457 4.73265 0
M  V30 8182 H 755.037 0.300431 2.52922 0
M  V30 8183 H 755.82 1.94473 2.82905 0
M  V30 8184 N 758.265 -1.50454 0.469181 0
M  V30 8185 C 759.495 -2.06429 -0.0840913 0
M  V30 8186 C 759.903 -1.3334 -1.34227 0
M  V30 8187 O 759.246 -0.395656 -1.79389 0
M  V30 8188 C 759.308 -3.56797 -0.440049 0
M  V30 8189 C 758.972 -4.51359 0.715838 0
M  V30 8190 C 759.969 -4.94754 1.59732 0
M  V30 8191 C 757.654 -4.94069 0.905621 0
M  V30 8192 C 759.648 -5.79564 2.653 0
M  V30 8193 C 757.335 -5.78662 1.96453 0
M  V30 8194 C 758.333 -6.21311 2.83658 0
M  V30 8195 O 758.021 -7.04218 3.87727 0
M  V30 8196 H 757.753 -0.675994 0.00289751 0
M  V30 8197 H 760.307 -1.94629 0.656417 0
M  V30 8198 H 758.537 -3.66492 -1.23372 0
M  V30 8199 H 760.226 -3.95145 -0.928181 0
M  V30 8200 H 760.992 -4.62428 1.46237 0
M  V30 8201 H 756.871 -4.60394 0.236326 0
M  V30 8202 H 760.415 -6.12774 3.33398 0
M  V30 8203 H 756.312 -6.10401 2.09955 0
M  V30 8204 H 757.08 -7.22464 3.84692 0
M  V30 8205 N 759.743 -0.201713 -1.56304 0
M  V30 8206 C 761.159 0.154025 -1.58855 0
M  V30 8207 C 761.359 1.60516 -1.21807 0
M  V30 8208 O 760.415 2.34193 -0.94393 0
M  V30 8209 C 761.728 -0.154319 -3.00304 0
M  V30 8210 C 763.276 -0.0949578 -3.12856 0
M  V30 8211 C 763.751 -0.376703 -4.56448 0
M  V30 8212 N 765.242 -0.325558 -4.62054 0
M  V30 8213 C 765.977 -0.51732 -5.71062 0
M  V30 8214 N 765.473 -0.769789 -6.8851 0
M  V30 8215 N 767.266 -0.45112 -5.60287 0
M  V30 8216 H 759.417 -1.14858 -1.78666 0
M  V30 8217 H 761.68 -0.458934 -0.829508 0
M  V30 8218 H 761.386 -1.16074 -3.31994 0
M  V30 8219 H 761.26 0.540014 -3.73314 0
M  V30 8220 H 763.647 0.902075 -2.80974 0
M  V30 8221 H 763.728 -0.822468 -2.42217 0
M  V30 8222 H 763.372 -1.37108 -4.89044 0
M  V30 8223 H 763.302 0.371772 -5.25286 0
M  V30 8224 H 765.793 -0.137308 -3.7765 0
M  V30 8225 H 766.106 -0.904744 -7.67486 0
M  V30 8226 H 764.451 -0.806758 -6.90302 0
M  V30 8227 H 767.642 -0.254253 -4.67409 0
M  V30 8228 H 767.815 -0.603982 -6.45179 0
M  V30 8229 N 761.222 1.57436 0.0718424 0
M  V30 8230 C 762.499 1.78312 0.804006 0
M  V30 8231 C 762.879 0.789273 1.9579 0
M  V30 8232 O 762.227 -0.177605 2.27809 0
M  V30 8233 C 762.437 3.24798 1.277 0
M  V30 8234 C 763.785 3.88627 1.71039 0
M  V30 8235 O 764.809 3.28689 1.37266 0
M  V30 8236 O 763.668 4.94073 2.33567 0
M  V30 8237 H 760.762 0.73178 0.385262 0
M  V30 8238 H 763.308 1.69621 0.0519219 0
M  V30 8239 H 762.08 3.88688 0.45134 0
M  V30 8240 H 761.703 3.38213 2.0904 0
M  V30 8241 N 762.7 -0.34323 1.53817 0
M  V30 8242 C 763.93 -1.10188 1.74763 0
M  V30 8243 C 764.338 -1.82829 0.486856 0
M  V30 8244 O 763.681 -1.75236 -0.551198 0
M  V30 8245 C 763.743 -2.16 2.87375 0
M  V30 8246 C 763.407 -1.62931 4.26969 0
M  V30 8247 C 764.404 -1.08147 5.08528 0
M  V30 8248 C 762.089 -1.67769 4.73454 0
M  V30 8249 C 764.083 -0.589039 6.34672 0
M  V30 8250 C 761.77 -1.18138 5.99572 0
M  V30 8251 C 762.768 -0.637979 6.80014 0
M  V30 8252 O 762.456 -0.149073 8.03762 0
M  V30 8253 H 762.188 -0.33445 0.587469 0
M  V30 8254 H 764.742 -0.401109 2.01445 0
M  V30 8255 H 762.972 -2.89637 2.56218 0
M  V30 8256 H 764.661 -2.77432 2.96287 0
M  V30 8257 H 765.427 -1.03732 4.73777 0
M  V30 8258 H 761.306 -2.09004 4.10899 0
M  V30 8259 H 764.85 -0.164233 6.97407 0
M  V30 8260 H 760.747 -1.22254 6.33817 0
M  V30 8261 H 761.515 -0.266332 8.18067 0
M  V30 8262 N 764.178 -1.45556 -0.604258 0
M  V30 8263 C 765.126 -1.5482 -1.7359 0
M  V30 8264 C 766.12 -0.417966 -1.64163 0
M  V30 8265 O 767.326 -0.594007 -1.69916 0
M  V30 8266 H 763.701 -0.486352 -0.573556 0
M  V30 8267 H 765.672 -2.5001 -1.62903 0
M  V30 8268 C 764.421 -1.53521 -3.11972 0
M  V30 8269 H 763.744 -2.39818 -3.19886 0
M  V30 8270 H 765.184 -1.64061 -3.90973 0
M  V30 8271 C 763.643 -0.260191 -3.35894 0
M  V30 8272 O 764.173 0.658582 -3.96265 0
M  V30 8273 N 762.379 -0.154839 -2.90187 0
M  V30 8274 H 761.926 -0.903378 -2.4124 0
M  V30 8275 H 761.884 0.697437 -3.06567 0
M  V30 8276 N 765.656 0.84705 -1.32902 0
M  V30 8277 C 766.886 1.63166 -1.26729 0
M  V30 8278 C 767.294 1.88474 0.165595 0
M  V30 8279 O 766.637 1.45947 1.11558 0
M  V30 8280 C 766.699 3.0103 -1.96522 0
M  V30 8281 C 766.363 2.9873 -3.45846 0
M  V30 8282 C 767.36 2.75032 -4.41196 0
M  V30 8283 C 765.045 3.19125 -3.87898 0
M  V30 8284 C 767.039 2.71743 -5.76571 0
M  V30 8285 C 764.726 3.15462 -5.2338 0
M  V30 8286 C 765.724 2.91801 -6.17528 0
M  V30 8287 O 765.412 2.88027 -7.5053 0
M  V30 8288 H 765.144 0.51469 -0.438258 0
M  V30 8289 H 767.698 1.06383 -1.75704 0
M  V30 8290 H 765.928 3.59634 -1.42128 0
M  V30 8291 H 767.617 3.61821 -1.83958 0
M  V30 8292 H 768.383 2.59034 -4.10032 0
M  V30 8293 H 764.262 3.36565 -3.15032 0
M  V30 8294 H 767.806 2.53194 -6.5003 0
M  V30 8295 H 763.703 3.31006 -5.54171 0
M  V30 8296 H 764.471 3.03927 -7.59981 0
M  V30 8297 N 767.134 1.16236 1.06428 0
M  V30 8298 C 768.359 0.967688 1.83441 0
M  V30 8299 C 768.784 -0.479167 1.81894 0
M  V30 8300 O 768.142 -1.34224 1.21875 0
M  V30 8301 C 768.19 1.49806 3.2801 0
M  V30 8302 O 767.294 0.703481 4.06356 0
M  V30 8303 H 766.635 0.344468 0.56766 0
M  V30 8304 H 769.165 1.54442 1.34197 0
M  V30 8305 H 769.175 1.51495 3.78831 0
M  V30 8306 H 767.85 2.55133 3.2845 0
M  V30 8307 H 766.427 0.756986 3.65136 0
M  V30 8308 N 768.612 -1.24939 0.960631 0
M  V30 8309 C 769.542 -2.28 0.503815 0
M  V30 8310 C 770.523 -1.63959 -0.452928 0
M  V30 8311 O 771.708 -1.91009 -0.350585 0
M  V30 8312 C 768.838 -3.46643 -0.213535 0
M  V30 8313 C 767.792 -4.22903 0.658535 0
M  V30 8314 C 767.118 -5.34363 -0.189902 0
M  V30 8315 C 768.418 -4.84949 1.93963 0
M  V30 8316 H 770.112 -2.66462 1.36521 0
M  V30 8317 H 767.658 -1.28093 0.657897 0
M  V30 8318 H 769.611 -4.1787 -0.544286 0
M  V30 8319 H 768.335 -3.07187 -1.10923 0
M  V30 8320 H 766.994 -3.53467 0.972455 0
M  V30 8321 H 766.642 -4.91147 -1.08553 0
M  V30 8322 H 766.342 -5.86302 0.390331 0
M  V30 8323 H 767.866 -6.0842 -0.515484 0
M  V30 8324 H 769.28 -5.48288 1.67491 0
M  V30 8325 H 767.677 -5.47091 2.46601 0
M  V30 8326 H 768.747 -4.06799 2.639 0
M  V30 8327 N 770.09 -0.729906 -1.39679 0
M  V30 8328 C 771.336 -0.27603 -2.00913 0
M  V30 8329 C 771.669 1.13227 -1.57776 0
M  V30 8330 O 770.944 1.7709 -0.804319 0
M  V30 8331 C 771.227 -0.372157 -3.58172 0
M  V30 8332 C 771.08 -1.81986 -4.11341 0
M  V30 8333 C 772.399 0.248378 -4.39399 0
M  V30 8334 H 769.518 -0.101773 -0.729939 0
M  V30 8335 H 772.16 -0.925104 -1.65957 0
M  V30 8336 H 770.31 0.180459 -3.88081 0
M  V30 8337 H 771.982 -2.42896 -3.92172 0
M  V30 8338 H 770.225 -2.34287 -3.65092 0
M  V30 8339 H 770.896 -1.83842 -5.20486 0
M  V30 8340 H 773.372 -0.222645 -4.15504 0
M  V30 8341 H 772.248 0.150746 -5.48693 0
M  V30 8342 H 772.509 1.33378 -4.21501 0
M  V30 8343 N 771.568 1.50203 -0.477153 0
M  V30 8344 C 772.501 2.25343 0.359983 0
M  V30 8345 C 773.479 1.28909 0.991022 0
M  V30 8346 O 774.663 1.58146 1.02578 0
M  V30 8347 C 771.79 3.03431 1.5049 0
M  V30 8348 C 770.836 4.14836 0.99063 0
M  V30 8349 S 771.669 5.35407 -0.0995413 0
M  V30 8350 C 772.825 6.17045 1.04911 0
M  V30 8351 H 773.058 2.95999 -0.277836 0
M  V30 8352 H 770.591 1.52159 -0.262115 0
M  V30 8353 H 772.549 3.49012 2.16105 0
M  V30 8354 H 771.21 2.32289 2.11425 0
M  V30 8355 H 770.403 4.689 1.84794 0
M  V30 8356 H 770.005 3.71723 0.412097 0
M  V30 8357 H 772.297 6.48546 1.95946 0
M  V30 8358 H 773.24 7.05979 0.547596 0
M  V30 8359 H 773.648 5.49193 1.30567 0
M  V30 8360 N 773.046 0.209999 1.56195 0
M  V30 8361 C 774.294 -0.423974 1.97603 0
M  V30 8362 C 774.615 -1.61112 1.09854 0
M  V30 8363 O 773.885 -1.95134 0.173032 0
M  V30 8364 H 772.465 -0.159629 0.729745 0
M  V30 8365 H 775.127 0.300205 1.92574 0
M  V30 8366 H 774.223 -0.75809 3.02753 0
M  V30 8367 N 774.524 -1.57472 -0.0634922 0
M  V30 8368 C 775.487 -2.03268 -1.059 0
M  V30 8369 C 776.487 -0.931028 -1.31105 0
M  V30 8370 O 777.677 -1.19567 -1.26686 0
M  V30 8371 C 774.809 -2.42039 -2.40062 0
M  V30 8372 H 776.002 -2.92454 -0.664119 0
M  V30 8373 H 773.555 -1.53206 -0.309444 0
M  V30 8374 H 774.29 -1.55904 -2.84367 0
M  V30 8375 H 774.075 -3.22437 -2.23108 0
M  V30 8376 H 775.565 -2.78017 -3.11603 0
M  V30 8377 N 776.003 0.335068 -1.53997 0
M  V30 8378 C 777.243 1.0827 -1.7337 0
M  V30 8379 C 777.607 1.85618 -0.490913 0
M  V30 8380 O 778.808 2.62864 -0.561799 0
M  V30 8381 C 777.079 1.99212 -2.96731 0
M  V30 8382 S 778.638 2.81083 -3.36954 0
M  V30 8383 H 775.456 0.365698 -0.609743 0
M  V30 8384 H 778.058 0.360079 -1.92155 0
M  V30 8385 H 776.762 1.41204 -3.85344 0
M  V30 8386 H 776.293 2.75898 -2.80436 0
M  V30 8387 H 778.308 4.01657 -2.91352 0
M  V30 8388 N 777.481 1.45874 0.596531 0
M  V30 8389 C 778.721 1.52015 1.36641 0
M  V30 8390 C 779.085 0.16226 1.91313 0
M  V30 8391 O 780.286 0.0983889 2.6862 0
M  V30 8392 C 778.557 2.57776 2.4756 0
M  V30 8393 S 780.116 2.83223 3.35157 0
M  V30 8394 H 776.934 0.537251 0.465706 0
M  V30 8395 H 779.536 1.83024 0.687205 0
M  V30 8396 H 778.24 3.55091 2.05764 0
M  V30 8397 H 777.771 2.28455 3.20269 0
M  V30 8398 H 779.786 2.17442 4.4602 0
M  V30 8399 N 778.959 -0.83999 1.33349 0
M  V30 8400 C 779.869 -1.98182 1.25543 0
M  V30 8401 C 780.885 -1.73204 0.166208 0
M  V30 8402 O 782.061 -1.97596 0.389589 0
M  V30 8403 C 779.126 -3.32157 0.993614 0
M  V30 8404 C 778.187 -3.70258 2.17273 0
M  V30 8405 C 777.42 -4.9784 1.92331 0
M  V30 8406 O 777.643 -5.63679 0.873074 0
M  V30 8407 O 776.577 -5.33418 2.78835 0
M  V30 8408 H 780.403 -2.07708 2.21565 0
M  V30 8409 H 777.988 -0.972852 1.13384 0
M  V30 8410 H 779.87 -4.12433 0.864711 0
M  V30 8411 H 778.545 -3.23637 0.0636596 0
M  V30 8412 H 777.452 -2.90497 2.35716 0
M  V30 8413 H 778.785 -3.83442 3.08598 0
M  V30 8414 N 780.437 -1.16799 -1.0581 0
M  V30 8415 C 781.385 -0.875111 -2.1551 0
M  V30 8416 C 782.379 0.157781 -1.68664 0
M  V30 8417 O 783.585 0.011297 -1.79996 0
M  V30 8418 H 779.96 -0.26542 -0.703602 0
M  V30 8419 H 781.931 -1.8076 -2.37421 0
M  V30 8420 C 780.68 -0.39802 -3.45414 0
M  V30 8421 H 780.003 -1.18425 -3.81858 0
M  V30 8422 H 781.443 -0.231913 -4.23365 0
M  V30 8423 C 779.902 0.88327 -3.25115 0
M  V30 8424 O 780.432 1.95145 -3.51114 0
M  V30 8425 N 778.638 0.828961 -2.78526 0
M  V30 8426 H 778.185 -0.0405029 -2.57568 0
M  V30 8427 H 778.143 1.68673 -2.65324 0
M  V30 8428 N 781.915 1.24427 -0.967243 0
M  V30 8429 C 783.161 1.92772 -0.629812 0
M  V30 8430 C 783.494 1.75436 0.832827 0
M  V30 8431 O 782.769 1.10716 1.59913 0
M  V30 8432 C 783.052 3.45798 -1.00477 0
M  V30 8433 C 782.905 3.72304 -2.52407 0
M  V30 8434 C 784.224 4.36787 -0.538999 0
M  V30 8435 H 781.343 0.700099 -0.230282 0
M  V30 8436 H 783.985 1.46805 -1.20616 0
M  V30 8437 H 782.135 3.8508 -0.514336 0
M  V30 8438 H 783.807 3.42584 -3.08924 0
M  V30 8439 H 782.05 3.17472 -2.95625 0
M  V30 8440 H 782.721 4.7937 -2.73693 0
M  V30 8441 H 785.197 4.04877 -0.959874 0
M  V30 8442 H 784.073 5.4259 -0.829926 0
M  V30 8443 H 784.334 4.38527 0.560923 0
M  V30 8444 N 783.393 0.737304 1.3929 0
M  V30 8445 C 784.642 0.283129 1.99703 0
M  V30 8446 C 784.955 -1.13677 1.59176 0
M  V30 8447 O 786.161 -1.69058 2.12442 0
M  V30 8448 C 784.617 0.455262 3.57009 0
M  V30 8449 C 784.225 1.88319 4.06497 0
M  V30 8450 C 785.969 0.0629786 4.24453 0
M  V30 8451 C 783.876 2.00475 5.56385 0
M  V30 8452 H 782.806 0.102106 0.747054 0
M  V30 8453 H 785.457 0.911515 1.5926 0
M  V30 8454 H 783.839 -0.242057 3.9526 0
M  V30 8455 H 785.013 2.61265 3.79575 0
M  V30 8456 H 783.328 2.2289 3.51723 0
M  V30 8457 H 785.925 0.132787 5.34535 0
M  V30 8458 H 786.268 -0.982128 4.04549 0
M  V30 8459 H 786.801 0.71154 3.91385 0
M  V30 8460 H 783.54 3.03182 5.81172 0
M  V30 8461 H 783.06 1.31969 5.85102 0
M  V30 8462 H 784.739 1.787 6.21832 0
M  V30 8463 N 784.871 -1.49948 0.485112 0
M  V30 8464 C 786.119 -2.01996 -0.0648775 0
M  V30 8465 C 786.44 -1.36819 -1.38945 0
M  V30 8466 O 785.71 -0.518163 -1.88923 0
M  V30 8467 H 784.29 -0.746513 -0.0269662 0
M  V30 8468 H 786.952 -1.84136 0.638733 0
M  V30 8469 H 786.048 -3.11418 -0.20617 0
M  V30 8470 N 786.349 -0.21828 -1.56081 0
M  V30 8471 C 787.579 0.41865 -2.02314 0
M  V30 8472 C 787.987 1.54124 -1.09739 0
M  V30 8473 O 787.33 1.83435 -0.0986829 0
M  V30 8474 C 787.392 1.01439 -3.44892 0
M  V30 8475 C 787.056 0.0276523 -4.56992 0
M  V30 8476 C 788.053 -0.771526 -5.14143 0
M  V30 8477 C 785.738 -0.0901537 -5.02219 0
M  V30 8478 C 787.732 -1.67525 -6.14991 0
M  V30 8479 C 785.419 -0.997411 -6.02905 0
M  V30 8480 C 786.417 -1.78851 -6.59167 0
M  V30 8481 O 786.105 -2.68052 -7.57894 0
M  V30 8482 H 785.837 0.107066 -0.667468 0
M  V30 8483 H 788.391 -0.331191 -2.02712 0
M  V30 8484 H 786.621 1.81326 -3.41552 0
M  V30 8485 H 788.31 1.55838 -3.74792 0
M  V30 8486 H 789.076 -0.690945 -4.80053 0
M  V30 8487 H 784.955 0.515474 -4.58109 0
M  V30 8488 H 788.499 -2.29316 -6.58832 0
M  V30 8489 H 784.396 -1.07902 -6.36418 0
M  V30 8490 H 785.164 -2.6209 -7.75404 0
M  V30 8491 N 787.827 1.57504 0.0551401 0
M  V30 8492 C 788.76 2.00155 1.09604 0
M  V30 8493 C 789.738 0.881274 1.36647 0
M  V30 8494 O 790.922 1.14498 1.49742 0
M  V30 8495 C 788.049 2.35246 2.43674 0
M  V30 8496 C 787.095 3.57452 2.32659 0
M  V30 8497 S 787.928 5.07639 1.7048 0
M  V30 8498 C 789.084 5.45947 3.06093 0
M  V30 8499 H 789.317 2.88131 0.732635 0
M  V30 8500 H 786.85 1.52122 0.264252 0
M  V30 8501 H 788.808 2.56136 3.20787 0
M  V30 8502 H 787.469 1.47769 2.7717 0
M  V30 8503 H 786.662 3.79576 3.31569 0
M  V30 8504 H 786.264 3.36279 1.63685 0
M  V30 8505 H 788.556 5.45036 4.0242 0
M  V30 8506 H 789.499 6.4656 2.88732 0
M  V30 8507 H 789.907 4.73419 3.07466 0
M  V30 8508 N 789.305 -0.326896 1.54172 0
M  V30 8509 C 790.716 -0.901533 1.63491 0
M  V30 8510 C 791.067 -1.88994 0.52684 0
M  V30 8511 O 790.192 -2.137 -0.340794 0
M  V30 8512 C 790.787 -1.64192 2.96355 0
M  V30 8513 C 789.346 -2.16533 3.07881 0
M  V30 8514 C 788.493 -0.98966 2.59039 0
M  V30 8515 H 791.444 -0.104568 1.58355 0
M  V30 8516 H 791.465 -2.50592 2.86328 0
M  V30 8517 H 790.977 -0.922291 3.76982 0
M  V30 8518 H 789.078 -2.91622 2.31922 0
M  V30 8519 H 789.191 -2.41762 4.13628 0
M  V30 8520 H 787.555 -1.36787 2.14852 0
M  V30 8521 H 788.338 -0.284401 3.4212 0
M  V30 8522 N 790.784 -1.46188 -0.588786 0
M  V30 8523 C 792.033 -1.50452 -1.34339 0
M  V30 8524 C 792.346 -0.158096 -1.9496 0
M  V30 8525 O 793.552 -0.0784918 -2.71387 0
M  V30 8526 C 792.008 -2.65074 -2.43441 0
M  V30 8527 C 791.616 -4.06111 -1.8915 0
M  V30 8528 C 793.36 -2.78603 -3.20282 0
M  V30 8529 C 791.267 -5.12084 -2.95845 0
M  V30 8530 H 790.197 -0.559905 -0.504997 0
M  V30 8531 H 792.848 -1.72382 -0.629014 0
M  V30 8532 H 791.23 -2.36462 -3.1765 0
M  V30 8533 H 792.404 -4.44487 -1.21524 0
M  V30 8534 H 790.719 -3.97197 -1.24995 0
M  V30 8535 H 793.316 -3.54944 -3.99898 0
M  V30 8536 H 793.659 -1.85902 -3.72486 0
M  V30 8537 H 794.192 -3.06832 -2.53178 0
M  V30 8538 H 790.931 -6.06556 -2.48535 0
M  V30 8539 H 790.451 -4.78259 -3.61979 0
M  V30 8540 H 792.13 -5.37661 -3.59902 0
M  V30 8541 N 792.262 0.832906 -1.33792 0
M  V30 8542 C 793.673 1.40489 -1.22963 0
M  V30 8543 C 794.024 1.95633 0.149026 0
M  V30 8544 O 793.149 1.8928 1.04891 0
M  V30 8545 C 793.744 2.55387 -2.22627 0
M  V30 8546 C 792.303 3.08522 -2.15618 0
M  V30 8547 C 791.45 1.81347 -2.09782 0
M  V30 8548 H 794.401 0.638156 -1.45304 0
M  V30 8549 H 794.422 3.33193 -1.83746 0
M  V30 8550 H 793.934 2.15222 -3.22957 0
M  V30 8551 H 792.035 3.53217 -1.18611 0
M  V30 8552 H 792.148 3.6829 -3.0643 0
M  V30 8553 H 790.512 2.01839 -1.55349 0
M  V30 8554 H 791.295 1.43369 -3.1193 0
M  V30 8555 N 793.74 1.17359 1.05189 0
M  V30 8556 C 794.986 0.963413 1.78455 0
M  V30 8557 C 795.319 -0.506703 1.87473 0
M  V30 8558 O 794.594 -1.37611 1.37453 0
M  V30 8559 C 794.877 1.60519 3.22344 0
M  V30 8560 C 794.73 3.14741 3.21338 0
M  V30 8561 C 796.049 1.3091 4.20179 0
M  V30 8562 H 793.168 0.351412 0.647826 0
M  V30 8563 H 795.81 1.44858 1.22948 0
M  V30 8564 H 793.96 1.19265 3.69741 0
M  V30 8565 H 795.632 3.65053 2.82017 0
M  V30 8566 H 793.875 3.4749 2.59679 0
M  V30 8567 H 794.546 3.54775 4.22894 0
M  V30 8568 H 797.022 1.66635 3.81277 0
M  V30 8569 H 795.898 1.784 5.191 0
M  V30 8570 H 796.159 0.229908 4.41502 0
M  V30 8571 N 795.218 -1.23913 0.973828 0
M  V30 8572 C 796.466 -1.91771 0.637817 0
M  V30 8573 C 796.787 -1.76434 -0.830435 0
M  V30 8574 O 796.057 -1.13965 -1.59339 0
M  V30 8575 H 794.637 -0.709761 0.232912 0
M  V30 8576 H 797.299 -1.50677 1.23622 0
M  V30 8577 H 796.395 -2.99327 0.883731 0
M  V30 8578 N 796.696 -0.74468 -1.38897 0
M  V30 8579 C 797.942 -0.297324 -2.00609 0
M  V30 8580 C 798.275 1.11547 -1.58968 0
M  V30 8581 O 797.55 1.76227 -0.823057 0
M  V30 8582 C 797.833 -0.410125 -3.57757 0
M  V30 8583 C 797.686 -1.86338 -4.09387 0
M  V30 8584 C 799.005 0.20176 -4.39637 0
M  V30 8585 H 796.124 -0.109509 -0.728819 0
M  V30 8586 H 798.766 -0.942653 -1.64967 0
M  V30 8587 H 796.916 0.139287 -3.8825 0
M  V30 8588 H 798.588 -2.47042 -3.89574 0
M  V30 8589 H 796.831 -2.38146 -3.62586 0
M  V30 8590 H 797.502 -1.89352 -5.18507 0
M  V30 8591 H 799.978 -0.266703 -4.15244 0
M  V30 8592 H 798.854 0.0925415 -5.48822 0
M  V30 8593 H 799.115 1.289 -4.22891 0
M  V30 8594 N 798.174 1.49689 -0.493057 0
M  V30 8595 C 799.137 2.27502 0.278485 0
M  V30 8596 C 800.137 1.33184 0.901037 0
M  V30 8597 O 801.327 1.56415 0.766801 0
M  V30 8598 C 798.459 3.10881 1.39878 0
M  V30 8599 H 799.652 2.97163 -0.404219 0
M  V30 8600 H 797.205 1.54324 -0.247774 0
M  V30 8601 H 797.94 2.45767 2.11587 0
M  V30 8602 H 797.725 3.80219 0.957924 0
M  V30 8603 H 799.215 3.69673 1.94247 0
M  V30 8604 N 799.652 0.226554 1.55963 0
M  V30 8605 C 800.9 -0.402991 1.98041 0
M  V30 8606 C 801.221 -1.59938 1.11557 0
M  V30 8607 O 800.491 -1.9494 0.193719 0
M  V30 8608 H 799.071 -0.15188 0.731397 0
M  V30 8609 H 801.733 0.320613 1.92245 0
M  V30 8610 H 800.829 -0.725937 3.0354 0
M  V30 8611 N 801.13 -1.57531 -0.0467866 0
M  V30 8612 C 802.541 -1.76945 -0.595603 0
M  V30 8613 C 802.892 -0.855354 -1.76573 0
M  V30 8614 O 802.017 -0.045668 -2.16352 0
M  V30 8615 C 802.612 -3.20881 -1.08725 0
M  V30 8616 C 801.171 -3.41553 -1.58172 0
M  V30 8617 C 800.318 -2.72533 -0.511968 0
M  V30 8618 H 803.269 -1.57682 0.179436 0
M  V30 8619 H 803.29 -3.26419 -1.95528 0
M  V30 8620 H 802.802 -3.87385 -0.235398 0
M  V30 8621 H 800.903 -2.80199 -2.456 0
M  V30 8622 H 801.016 -4.50104 -1.64143 0
M  V30 8623 H 799.38 -2.35797 -0.962899 0
M  V30 8624 H 800.163 -3.41709 0.330117 0
M  V30 8625 N 802.608 0.318715 -1.54344 0
M  V30 8626 C 803.538 1.39751 -1.87061 0
M  V30 8627 C 804.519 1.53741 -0.727848 0
M  V30 8628 O 805.704 1.67541 -0.982016 0
M  V30 8629 C 802.834 2.76446 -2.10226 0
M  V30 8630 C 801.788 2.77239 -3.26071 0
M  V30 8631 C 801.114 4.17056 -3.34617 0
M  V30 8632 C 802.414 2.40555 -4.63606 0
M  V30 8633 H 804.108 1.12619 -2.77412 0
M  V30 8634 H 801.654 0.540318 -1.33479 0
M  V30 8635 H 803.607 3.51985 -2.31699 0
M  V30 8636 H 802.331 3.05066 -1.16629 0
M  V30 8637 H 800.99 2.04155 -3.04493 0
M  V30 8638 H 800.638 4.42824 -2.3857 0
M  V30 8639 H 800.338 4.18492 -4.12478 0
M  V30 8640 H 801.862 4.94401 -3.5833 0
M  V30 8641 H 803.276 3.05808 -4.84927 0
M  V30 8642 H 801.673 2.53234 -5.44052 0
M  V30 8643 H 802.743 1.35698 -4.65526 0
M  V30 8644 N 804.086 1.46499 0.581025 0
M  V30 8645 C 805.326 1.53456 1.35021 0
M  V30 8646 C 805.69 0.182542 1.9113 0
M  V30 8647 O 806.891 0.126874 2.685 0
M  V30 8648 C 805.162 2.60387 2.44812 0
M  V30 8649 S 806.721 2.86762 3.32134 0
M  V30 8650 H 803.539 0.54216 0.459982 0
M  V30 8651 H 806.141 1.83742 0.667754 0
M  V30 8652 H 804.845 3.57253 2.01986 0
M  V30 8653 H 804.376 2.31839 3.17828 0
M  V30 8654 H 806.391 2.2216 4.43688 0
M  V30 8655 N 805.565 -0.825799 1.34232 0
M  V30 8656 C 806.495 -1.95151 1.28212 0
M  V30 8657 C 807.476 -1.69345 0.160123 0
M  V30 8658 O 808.661 -1.90983 0.352019 0
M  V30 8659 C 805.791 -3.31554 1.03388 0
M  V30 8660 C 804.745 -3.71793 2.12023 0
M  V30 8661 C 804.071 -5.06147 1.72392 0
M  V30 8662 C 805.371 -3.84193 3.53826 0
M  V30 8663 H 807.065 -2.00445 2.22401 0
M  V30 8664 H 804.611 -0.962996 1.07063 0
M  V30 8665 H 806.564 -4.09889 0.978225 0
M  V30 8666 H 805.288 -3.26551 0.0564142 0
M  V30 8667 H 803.947 -2.95731 2.16654 0
M  V30 8668 H 803.595 -4.97628 0.733137 0
M  V30 8669 H 803.295 -5.34041 2.451 0
M  V30 8670 H 804.819 -5.86943 1.68317 0
M  V30 8671 H 806.233 -4.52806 3.51624 0
M  V30 8672 H 804.63 -4.23538 4.2513 0
M  V30 8673 H 805.7 -2.86272 3.91377 0
M  V30 8674 N 807.043 -1.17915 -1.04565 0
M  V30 8675 C 808.32 -0.881187 -1.74627 0
M  V30 8676 C 808.7 0.617123 -2.01878 0
M  V30 8677 O 808.048 1.57032 -1.65991 0
M  V30 8678 C 808.258 -1.72299 -3.03503 0
M  V30 8679 C 809.606 -1.94688 -3.77335 0
M  V30 8680 O 810.63 -1.6931 -3.13389 0
M  V30 8681 O 809.489 -2.37379 -4.92253 0
M  V30 8682 H 806.583 -0.326864 -0.759664 0
M  V30 8683 H 809.129 -1.28642 -1.10676 0
M  V30 8684 H 807.901 -2.73891 -2.79462 0
M  V30 8685 H 807.524 -1.31593 -3.75192 0
M  V30 8686 N 808.521 1.23394 -0.980386 0
M  V30 8687 C 809.431 2.28561 -0.528864 0
M  V30 8688 C 810.447 1.68946 0.416329 0
M  V30 8689 O 811.623 1.99355 0.286251 0
M  V30 8690 C 808.688 3.46323 0.16155 0
M  V30 8691 C 807.749 4.21297 -0.825044 0
M  V30 8692 C 806.982 5.33437 -0.167483 0
M  V30 8693 O 807.205 5.60812 1.04146 0
M  V30 8694 O 806.139 5.95637 -0.866047 0
M  V30 8695 H 809.965 2.69326 -1.40346 0
M  V30 8696 H 807.55 1.29325 -0.748019 0
M  V30 8697 H 809.432 4.17811 0.548841 0
M  V30 8698 H 808.107 3.0751 1.01092 0
M  V30 8699 H 807.014 3.52134 -1.26303 0
M  V30 8700 H 808.347 4.6396 -1.64322 0
M  V30 8701 N 809.999 0.752036 1.385 0
M  V30 8702 C 810.946 0.123288 2.3047 0
M  V30 8703 C 811.916 -0.711326 1.50098 0
M  V30 8704 O 813.101 -0.667775 1.78733 0
M  V30 8705 C 810.241 -0.765085 3.36512 0
M  V30 8706 C 809.354 0.0839885 4.31918 0
M  V30 8707 C 808.489 -0.807243 5.25031 0
M  V30 8708 C 807.528 0.0455583 6.12083 0
M  V30 8709 N 806.665 -0.802547 6.97498 0
M  V30 8710 H 811.505 0.913169 2.83664 0
M  V30 8711 H 809.042 0.46195 1.39658 0
M  V30 8712 H 811 -1.29476 3.966 0
M  V30 8713 H 809.63 -1.52077 2.84732 0
M  V30 8714 H 808.682 0.731276 3.73305 0
M  V30 8715 H 809.994 0.74265 4.9324 0
M  V30 8716 H 809.148 -1.40414 5.90228 0
M  V30 8717 H 807.887 -1.49964 4.64071 0
M  V30 8718 H 806.892 0.655137 5.45883 0
M  V30 8719 H 808.117 0.734994 6.75111 0
M  V30 8720 H 806.063 -1.47992 6.39089 0
M  V30 8721 H 805.98 -0.200747 7.55733 0
M  V30 8722 H 807.248 -1.38447 7.67107 0
M  V30 8723 N 811.477 -1.49425 0.500989 0
M  V30 8724 C 812.387 -2.32899 -0.282011 0
M  V30 8725 C 813.403 -1.44632 -0.967346 0
M  V30 8726 O 814.579 -1.77654 -0.94873 0
M  V30 8727 C 811.644 -3.20069 -1.33253 0
M  V30 8728 C 810.705 -4.24186 -0.660636 0
M  V30 8729 C 809.938 -5.07191 -1.6611 0
M  V30 8730 O 810.161 -4.91712 -2.89094 0
M  V30 8731 O 809.095 -5.8948 -1.21643 0
M  V30 8732 H 812.921 -3.01038 0.401224 0
M  V30 8733 H 810.506 -1.47079 0.262323 0
M  V30 8734 H 812.388 -3.74071 -1.94033 0
M  V30 8735 H 811.063 -2.54625 -1.9987 0
M  V30 8736 H 809.97 -3.74098 -0.0130959 0
M  V30 8737 H 811.303 -4.92186 -0.0369179 0
M  V30 8738 N 812.955 -0.234822 -1.55841 0
M  V30 8739 C 814.202 0.39326 -1.98645 0
M  V30 8740 C 814.53 1.58823 -1.12274 0
M  V30 8741 O 813.785 1.94954 -0.170731 0
M  V30 8742 C 814.084 0.858032 -3.46947 0
M  V30 8743 C 813.75 -0.227858 -4.50324 0
M  V30 8744 C 812.412 -0.526128 -4.78315 0
M  V30 8745 C 814.764 -0.961576 -5.12253 0
M  V30 8746 C 812.092 -1.5624 -5.65514 0
M  V30 8747 C 814.444 -1.98728 -6.00575 0
M  V30 8748 C 813.108 -2.29233 -6.26904 0
M  V30 8749 H 812.378 0.143904 -0.726892 0
M  V30 8750 H 815.025 -0.34012 -1.88455 0
M  V30 8751 H 813.33 1.67041 -3.54408 0
M  V30 8752 H 815.027 1.35407 -3.77447 0
M  V30 8753 H 811.617 0.0147624 -4.28597 0
M  V30 8754 H 815.801 -0.744388 -4.90686 0
M  V30 8755 H 811.057 -1.80422 -5.84173 0
M  V30 8756 H 815.231 -2.5608 -6.47608 0
M  V30 8757 H 812.858 -3.09671 -6.94268 0
M  V30 8758 N 814.433 1.57553 0.0384317 0
M  V30 8759 C 815.365 2.02726 1.06934 0
M  V30 8760 C 816.378 0.938502 1.33026 0
M  V30 8761 O 817.567 1.21595 1.30678 0
M  V30 8762 C 814.667 2.37958 2.41308 0
M  V30 8763 C 813.84 3.69098 2.34703 0
M  V30 8764 C 812.899 3.91623 3.51451 0
M  V30 8765 O 811.925 4.628 3.31368 0
M  V30 8766 N 813.127 3.36538 4.72993 0
M  V30 8767 H 815.892 2.91781 0.684381 0
M  V30 8768 H 813.453 1.60307 0.226542 0
M  V30 8769 H 815.445 2.50172 3.18113 0
M  V30 8770 H 814.015 1.54621 2.71682 0
M  V30 8771 H 813.235 3.67325 1.43059 0
M  V30 8772 H 814.523 4.55144 2.27424 0
M  V30 8773 H 813.921 2.78828 4.92211 0
M  V30 8774 H 812.478 3.54148 5.47195 0
M  V30 8775 N 815.911 -0.310526 1.54511 0
M  V30 8776 C 817.157 -1.04846 1.73595 0
M  V30 8777 C 817.49 -1.87244 0.515118 0
M  V30 8778 O 816.765 -1.88282 -0.48786 0
M  V30 8779 C 817.048 -1.96237 3.01932 0
M  V30 8780 C 816.901 -1.17082 4.34295 0
M  V30 8781 C 818.22 -2.9556 3.26086 0
M  V30 8782 H 815.339 -0.37976 0.631626 0
M  V30 8783 H 817.981 -0.32394 1.87218 0
M  V30 8784 H 816.131 -2.58015 2.90449 0
M  V30 8785 H 817.803 -0.576643 4.57682 0
M  V30 8786 H 816.046 -0.473336 4.3121 0
M  V30 8787 H 816.717 -1.84257 5.20339 0
M  V30 8788 H 819.193 -2.43908 3.37117 0
M  V30 8789 H 818.069 -3.5668 4.17218 0
M  V30 8790 H 818.33 -3.68715 2.4393 0
M  V30 8791 N 817.389 -1.46805 -0.573248 0
M  V30 8792 C 818.8 -1.46655 -1.15539 0
M  V30 8793 C 819.151 -0.2125 -1.95046 0
M  V30 8794 O 818.276 0.683759 -2.05314 0
M  V30 8795 C 818.871 -2.65711 -2.10198 0
M  V30 8796 C 817.43 -2.68572 -2.63716 0
M  V30 8797 C 816.577 -2.39498 -1.39772 0
M  V30 8798 H 819.528 -1.54547 -0.36068 0
M  V30 8799 H 819.549 -2.41768 -2.93817 0
M  V30 8800 H 819.061 -3.56967 -1.52303 0
M  V30 8801 H 817.162 -1.81414 -3.25453 0
M  V30 8802 H 817.275 -3.68809 -3.05805 0
M  V30 8803 H 815.639 -1.89749 -1.69904 0
M  V30 8804 H 816.422 -3.32942 -0.836943 0
M  V30 8805 N 818.867 0.818669 -1.34668 0
M  V30 8806 C 819.8 1.93516 -1.20941 0
M  V30 8807 C 820.778 1.62292 -0.100061 0
M  V30 8808 O 821.962 1.86614 -0.265983 0
M  V30 8809 C 819.089 3.27612 -0.859524 0
M  V30 8810 C 818.135 3.77794 -1.97923 0
M  V30 8811 S 818.968 3.97043 -3.59329 0
M  V30 8812 C 820.124 5.3406 -3.2639 0
M  V30 8813 H 820.357 2.04864 -2.15449 0
M  V30 8814 H 817.89 0.974716 -1.19744 0
M  V30 8815 H 819.848 4.05087 -0.664444 0
M  V30 8816 H 818.509 3.14028 0.0672835 0
M  V30 8817 H 817.702 4.74883 -1.68827 0
M  V30 8818 H 817.304 3.0728 -2.13202 0
M  V30 8819 H 819.596 6.17626 -2.78469 0
M  V30 8820 H 820.539 5.68143 -4.22634 0
M  V30 8821 H 820.947 4.99773 -2.62464 0
M  V30 8822 N 820.346 1.18468 1.03938 0
M  V30 8823 C 821.309 0.914944 2.10146 0
M  V30 8824 C 822.309 -0.10022 1.60487 0
M  V30 8825 O 823.499 0.133365 1.73689 0
M  V30 8826 C 820.631 0.372993 3.38853 0
M  V30 8827 H 821.824 1.85677 2.35508 0
M  V30 8828 H 819.377 0.996876 1.20383 0
M  V30 8829 H 820.112 -0.57538 3.19155 0
M  V30 8830 H 819.897 1.1048 3.76213 0
M  V30 8831 H 821.387 0.203014 4.17106 0
M  V30 8832 N 821.824 -1.22873 0.986916 0
M  V30 8833 C 823.052 -1.95487 0.677663 0
M  V30 8834 C 823.467 -1.72978 -0.756572 0
M  V30 8835 O 822.824 -1.02517 -1.50985 0
M  V30 8836 C 822.875 -3.48337 0.966638 0
M  V30 8837 O 822.596 -3.70087 2.34451 0
M  V30 8838 C 824.097 -4.38142 0.674248 0
M  V30 8839 H 821.317 -0.622211 0.251185 0
M  V30 8840 H 823.861 -1.56187 1.32007 0
M  V30 8841 H 822.016 -3.85628 0.370137 0
M  V30 8842 H 822.43 -4.64332 2.43918 0
M  V30 8843 H 823.904 -5.44165 0.926759 0
M  V30 8844 H 824.381 -4.3745 -0.391728 0
M  V30 8845 H 824.987 -4.06469 1.25152 0
M  V30 8846 N 823.302 -0.75937 -1.38099 0
M  V30 8847 C 824.53 -0.329111 -2.04266 0
M  V30 8848 C 824.945 1.04453 -1.57274 0
M  V30 8849 O 824.302 1.66449 -0.748397 0
M  V30 8850 C 824.353 -0.349192 -3.5981 0
M  V30 8851 O 824.074 -1.66863 -4.05078 0
M  V30 8852 C 825.575 0.0942106 -4.432 0
M  V30 8853 H 822.795 -0.13971 -0.656294 0
M  V30 8854 H 825.339 -1.02984 -1.76677 0
M  V30 8855 H 823.494 0.302846 -3.86214 0
M  V30 8856 H 823.908 -1.59877 -4.9954 0
M  V30 8857 H 825.382 0.0290004 -5.51992 0
M  V30 8858 H 825.859 1.1429 -4.24069 0
M  V30 8859 H 826.465 -0.529171 -4.21995 0
M  V30 8860 N 824.78 1.49157 -0.508906 0
M  V30 8861 C 825.69 2.33045 0.269656 0
M  V30 8862 C 826.706 1.45143 0.959662 0
M  V30 8863 O 827.882 1.78155 0.939295 0
M  V30 8864 C 824.947 3.20772 1.31554 0
M  V30 8865 C 824.008 4.24531 0.638131 0
M  V30 8866 C 823.241 5.08065 1.63418 0
M  V30 8867 O 823.464 4.93238 2.86483 0
M  V30 8868 O 822.398 5.90117 1.18516 0
M  V30 8869 H 826.224 3.00821 -0.417183 0
M  V30 8870 H 823.809 1.46938 -0.270119 0
M  V30 8871 H 825.691 3.75095 1.92047 0
M  V30 8872 H 824.366 2.55681 1.98516 0
M  V30 8873 H 823.273 3.74099 -0.00674357 0
M  V30 8874 H 824.606 4.92199 0.0108155 0
M  V30 8875 N 826.258 0.243083 1.55714 0
M  V30 8876 C 827.506 -0.381964 1.98458 0
M  V30 8877 C 827.827 -1.58745 1.13247 0
M  V30 8878 O 827.097 -1.94723 0.214384 0
M  V30 8879 H 825.677 -0.144114 0.732967 0
M  V30 8880 H 828.339 0.340985 1.91894 0
M  V30 8881 H 827.435 -0.693702 3.04293 0
M  V30 8882 N 827.736 -1.57571 -0.0300757 0
M  V30 8883 C 828.976 -1.91074 -0.725946 0
M  V30 8884 C 829.34 -0.841545 -1.72575 0
M  V30 8885 O 830.541 -1.06088 -2.46979 0
M  V30 8886 C 828.812 -3.2973 -1.37888 0
M  V30 8887 S 830.371 -3.85065 -2.10405 0
M  V30 8888 H 827.189 -0.669084 -0.240515 0
M  V30 8889 H 829.791 -1.9549 0.019384 0
M  V30 8890 H 828.495 -4.05411 -0.637974 0
M  V30 8891 H 828.026 -3.28614 -2.16278 0
M  V30 8892 H 830.041 -3.63711 -3.37533 0
M  V30 8893 N 829.214 0.302327 -1.54673 0
M  V30 8894 C 830.144 1.37759 -1.88533 0
M  V30 8895 C 831.125 1.52961 -0.744113 0
M  V30 8896 O 832.31 1.6649 -0.999731 0
M  V30 8897 C 829.44 2.74201 -2.13146 0
M  V30 8898 C 828.394 2.73765 -3.28993 0
M  V30 8899 C 827.72 4.13483 -3.39022 0
M  V30 8900 C 829.02 2.35624 -4.66132 0
M  V30 8901 H 830.714 1.0967 -2.78591 0
M  V30 8902 H 828.26 0.52613 -1.34044 0
M  V30 8903 H 830.213 3.49508 -2.35419 0
M  V30 8904 H 828.937 3.03812 -1.19858 0
M  V30 8905 H 827.596 2.00914 -3.06642 0
M  V30 8906 H 827.244 4.40269 -2.43253 0
M  V30 8907 H 826.944 4.14093 -4.16894 0
M  V30 8908 H 828.468 4.90572 -3.63553 0
M  V30 8909 H 829.882 3.00647 -4.88143 0
M  V30 8910 H 828.279 2.47449 -5.46707 0
M  V30 8911 H 829.349 1.30753 -4.66939 0
M  V30 8912 N 830.692 1.47107 0.565454 0
M  V30 8913 C 831.938 1.53535 1.32495 0
M  V30 8914 C 832.271 0.193537 1.93233 0
M  V30 8915 O 831.546 -0.796956 1.77423 0
M  V30 8916 C 831.829 2.64712 2.4413 0
M  V30 8917 C 831.682 4.08482 1.88314 0
M  V30 8918 C 833.001 2.71853 3.46098 0
M  V30 8919 H 830.12 0.558926 0.480386 0
M  V30 8920 H 832.762 1.79125 0.633575 0
M  V30 8921 H 830.912 2.43023 3.03104 0
M  V30 8922 H 832.584 4.4151 1.33665 0
M  V30 8923 H 830.827 4.17148 1.19037 0
M  V30 8924 H 831.498 4.82032 2.68978 0
M  V30 8925 H 833.974 2.91397 2.97031 0
M  V30 8926 H 832.85 3.51433 4.21646 0
M  V30 8927 H 833.111 1.78584 4.04426 0
M  V30 8928 N 832.17 -0.811516 1.35101 0
M  V30 8929 C 833.133 -1.90467 1.27495 0
M  V30 8930 C 834.133 -1.59703 0.187516 0
M  V30 8931 O 835.323 -1.68528 0.440896 0
M  V30 8932 C 832.455 -3.26774 0.971154 0
M  V30 8933 H 833.648 -1.98631 2.2469 0
M  V30 8934 H 831.201 -1.00681 1.19553 0
M  V30 8935 H 831.936 -3.243 0.0028557 0
M  V30 8936 H 831.721 -3.50488 1.75785 0
M  V30 8937 H 833.211 -4.06804 0.943414 0
M  V30 8938 N 833.648 -1.19017 -1.03309 0
M  V30 8939 C 834.873 -1.01598 -1.80811 0
M  V30 8940 C 835.298 0.430773 -1.83101 0
M  V30 8941 O 834.656 1.30946 -1.25391 0
M  V30 8942 C 834.704 -1.5845 -3.23923 0
M  V30 8943 O 833.808 -0.810972 -4.04348 0
M  V30 8944 H 833.149 -0.359398 -0.558327 0
M  V30 8945 H 835.679 -1.57945 -1.30055 0
M  V30 8946 H 835.689 -1.61486 -3.74682 0
M  V30 8947 H 834.364 -2.63752 -3.21571 0
M  V30 8948 H 832.941 -0.85353 -3.63 0
M  V30 8949 N 835.127 1.22348 -0.993418 0
M  V30 8950 C 836.355 1.95125 -0.688021 0
M  V30 8951 C 836.77 1.73377 0.747388 0
M  V30 8952 O 836.127 1.03317 1.50439 0
M  V30 8953 C 836.178 3.47819 -0.985097 0
M  V30 8954 O 835.899 3.68838 -2.3641 0
M  V30 8955 C 837.4 4.37779 -0.697474 0
M  V30 8956 H 834.62 0.62087 -0.254481 0
M  V30 8957 H 837.164 1.55485 -1.32833 0
M  V30 8958 H 835.319 3.85426 -0.390583 0
M  V30 8959 H 835.733 4.63032 -2.46377 0
M  V30 8960 H 837.207 5.43666 -0.955604 0
M  V30 8961 H 837.684 4.37651 0.368524 0
M  V30 8962 H 838.29 4.05799 -1.27306 0
M  V30 8963 N 836.605 0.766683 1.37694 0
M  V30 8964 C 837.553 0.137269 2.32195 0
M  V30 8965 C 838.547 -0.69067 1.54681 0
M  V30 8966 O 839.753 -0.588299 1.70115 0
M  V30 8967 H 836.128 0.0256003 0.751564 0
M  V30 8968 H 838.099 0.950129 2.82869 0
M  V30 8969 C 836.848 -0.731446 3.39919 0
M  V30 8970 H 836.171 -0.103738 3.99665 0
M  V30 8971 H 837.611 -1.13891 4.08417 0
M  V30 8972 C 836.07 -1.87984 2.79578 0
M  V30 8973 O 836.6 -2.97496 2.69924 0
M  V30 8974 N 834.806 -1.6789 2.37195 0
M  V30 8975 H 834.353 -0.788162 2.45246 0
M  V30 8976 H 834.311 -2.44894 1.97165 0
M  V30 8977 N 838.083 -1.48885 0.516809 0
M  V30 8978 C 839.499 -1.58651 0.173788 0
M  V30 8979 C 839.699 -1.52033 -1.32243 0
M  V30 8980 O 838.755 -1.40251 -2.09967 0
M  V30 8981 C 840.068 -2.90816 0.764628 0
M  V30 8982 C 841.616 -3.04316 0.732164 0
M  V30 8983 C 842.091 -4.39123 1.30135 0
M  V30 8984 N 843.582 -4.45656 1.26273 0
M  V30 8985 C 844.317 -5.48446 1.67317 0
M  V30 8986 N 843.813 -6.58258 2.16028 0
M  V30 8987 N 845.606 -5.39251 1.58635 0
M  V30 8988 H 837.757 -1.5143 1.48939 0
M  V30 8989 H 840.02 -0.718243 0.618733 0
M  V30 8990 H 839.726 -3.01275 1.81456 0
M  V30 8991 H 839.6 -3.76473 0.234113 0
M  V30 8992 H 841.987 -2.93478 -0.308975 0
M  V30 8993 H 842.068 -2.20303 1.3 0
M  V30 8994 H 841.712 -4.50714 2.34135 0
M  V30 8995 H 841.642 -5.21801 0.709305 0
M  V30 8996 H 844.133 -3.66879 0.906006 0
M  V30 8997 H 844.446 -7.32811 2.45374 0
M  V30 8998 H 842.791 -6.59257 2.20013 0
M  V30 8999 H 845.982 -4.52354 1.20387 0
M  V30 9000 H 846.155 -6.19229 1.90944 0
M  V30 9001 N 839.561 -0.251338 -1.55583 0
M  V30 9002 C 840.809 0.371434 -1.98657 0
M  V30 9003 C 841.13 1.58143 -1.14087 0
M  V30 9004 O 840.4 1.94607 -0.224708 0
M  V30 9005 H 838.98 0.140225 -0.733721 0
M  V30 9006 H 841.642 -0.351157 -1.9171 0
M  V30 9007 H 840.738 0.677554 -3.04657 0
M  V30 9008 N 841.039 1.57585 0.0217189 0
M  V30 9009 C 842.279 1.91457 0.715803 0
M  V30 9010 C 842.643 0.850685 1.72126 0
M  V30 9011 O 843.844 1.07396 2.46413 0
M  V30 9012 C 842.115 3.30456 1.36138 0
M  V30 9013 S 843.674 3.86176 2.0836 0
M  V30 9014 H 840.492 0.67035 0.236963 0
M  V30 9015 H 843.094 1.95477 -0.0297511 0
M  V30 9016 H 841.798 4.05744 0.616465 0
M  V30 9017 H 841.329 3.29757 2.14532 0
M  V30 9018 H 843.344 3.65496 3.356 0
M  V30 9019 N 842.517 -0.29412 1.54831 0
M  V30 9020 C 843.933 -0.640167 1.46199 0
M  V30 9021 C 844.133 -1.90426 0.658798 0
M  V30 9022 O 843.189 -2.51932 0.169228 0
M  V30 9023 C 844.502 -0.786763 2.90225 0
M  V30 9024 C 846.05 -0.882201 3.0031 0
M  V30 9025 C 846.525 -1.06074 4.45547 0
M  V30 9026 N 848.016 -1.12678 4.49286 0
M  V30 9027 C 848.751 -1.28334 5.58854 0
M  V30 9028 N 848.247 -1.40845 6.78332 0
M  V30 9029 N 850.04 -1.31277 5.46555 0
M  V30 9030 H 842.191 0.536334 2.05517 0
M  V30 9031 H 844.454 0.178363 0.93107 0
M  V30 9032 H 844.16 0.0713018 3.51628 0
M  V30 9033 H 844.034 -1.67364 3.38037 0
M  V30 9034 H 846.421 -1.73075 2.39017 0
M  V30 9035 H 846.502 0.0288405 2.55784 0
M  V30 9036 H 846.146 -0.216935 5.07437 0
M  V30 9037 H 846.076 -1.98611 4.8771 0
M  V30 9038 H 848.567 -1.04335 3.63212 0
M  V30 9039 H 848.88 -1.52566 7.57591 0
M  V30 9040 H 847.225 -1.37888 6.81184 0
M  V30 9041 H 850.416 -1.2112 4.52159 0
M  V30 9042 H 850.589 -1.43136 6.31994 0
M  V30 9043 N 843.995 -1.47404 -0.557645 0
M  V30 9044 C 844.958 -1.59411 -1.64684 0
M  V30 9045 C 845.958 -0.469244 -1.53801 0
M  V30 9046 O 847.148 -0.734298 -1.57967 0
M  V30 9047 C 844.28 -1.5382 -3.04224 0
M  V30 9048 H 845.473 -2.56504 -1.55389 0
M  V30 9049 H 843.026 -1.35588 -0.777531 0
M  V30 9050 H 843.761 -0.581 -3.19053 0
M  V30 9051 H 843.546 -2.35456 -3.13533 0
M  V30 9052 H 845.036 -1.65358 -3.83466 0
M  V30 9053 N 845.473 0.80434 -1.35529 0
M  V30 9054 C 846.722 1.55665 -1.28263 0
M  V30 9055 C 847.035 1.95096 0.140352 0
M  V30 9056 O 848.241 2.69422 0.335303 0
M  V30 9057 C 846.697 2.80935 -2.24952 0
M  V30 9058 C 846.305 2.48733 -3.72607 0
M  V30 9059 C 848.049 3.5894 -2.26632 0
M  V30 9060 C 845.956 3.70308 -4.61114 0
M  V30 9061 H 844.886 0.584301 -0.476559 0
M  V30 9062 H 847.537 0.88395 -1.60806 0
M  V30 9063 H 845.919 3.49927 -1.85383 0
M  V30 9064 H 847.093 1.87733 -4.20824 0
M  V30 9065 H 845.408 1.83969 -3.73557 0
M  V30 9066 H 848.005 4.49244 -2.89973 0
M  V30 9067 H 848.348 3.96433 -1.27069 0
M  V30 9068 H 848.881 2.96912 -2.64742 0
M  V30 9069 H 845.62 3.37922 -5.61684 0
M  V30 9070 H 845.14 4.30526 -4.17621 0
M  V30 9071 H 846.819 4.37511 -4.76648 0
M  V30 9072 N 846.951 1.19563 1.02676 0
M  V30 9073 C 848.199 0.997593 1.75763 0
M  V30 9074 C 848.52 -0.47253 1.89188 0
M  V30 9075 O 847.79 -1.34214 1.42701 0
M  V30 9076 H 846.37 0.366128 0.651122 0
M  V30 9077 H 849.032 1.50495 1.23844 0
M  V30 9078 H 848.128 1.44741 2.76508 0
M  V30 9079 N 848.429 -1.21819 0.999893 0
M  V30 9080 C 849.359 -2.26282 0.576096 0
M  V30 9081 C 850.34 -1.65317 -0.400537 0
M  V30 9082 O 851.525 -1.92028 -0.28964 0
M  V30 9083 C 848.655 -3.47147 -0.103145 0
M  V30 9084 C 847.609 -4.20594 0.792745 0
M  V30 9085 C 846.935 -5.34696 -0.0198026 0
M  V30 9086 C 848.235 -4.78533 2.09293 0
M  V30 9087 H 849.929 -2.61984 1.4493 0
M  V30 9088 H 847.475 -1.25935 0.698316 0
M  V30 9089 H 849.428 -4.1939 -0.411068 0
M  V30 9090 H 848.152 -3.1056 -1.01094 0
M  V30 9091 H 846.811 -3.50194 1.08442 0
M  V30 9092 H 846.459 -4.94352 -0.928729 0
M  V30 9093 H 846.159 -5.84764 0.576661 0
M  V30 9094 H 847.683 -6.09752 -0.321659 0
M  V30 9095 H 849.097 -5.42682 1.8485 0
M  V30 9096 H 847.494 -5.38968 2.63881 0
M  V30 9097 H 848.564 -3.98197 2.76708 0
M  V30 9098 N 849.908 -0.773975 -1.37286 0
M  V30 9099 C 851.156 -0.338636 -1.99243 0
M  V30 9100 C 851.477 1.08919 -1.61746 0
M  V30 9101 O 850.747 1.74822 -0.88397 0
M  V30 9102 H 849.327 -0.12222 -0.736934 0
M  V30 9103 H 851.989 -0.992595 -1.67731 0
M  V30 9104 H 851.085 -0.418055 -3.09287 0
M  V30 9105 N 851.386 1.48609 -0.524698 0
M  V30 9106 C 852.634 2.02097 0.0112991 0
M  V30 9107 C 852.955 1.40455 1.35268 0
M  V30 9108 O 852.225 0.56807 1.87483 0
M  V30 9109 H 850.805 0.746966 0.00716426 0
M  V30 9110 H 853.467 1.82378 -0.687329 0
M  V30 9111 H 852.563 3.11855 0.123531 0
M  V30 9112 N 852.864 0.259585 1.55447 0
M  V30 9113 C 854.112 -0.360893 1.98852 0
M  V30 9114 C 854.433 -1.57535 1.14924 0
M  V30 9115 O 853.703 -1.94485 0.235025 0
M  V30 9116 H 852.283 -0.136332 0.734454 0
M  V30 9117 H 854.945 0.361319 1.91522 0
M  V30 9118 H 854.041 -0.661388 3.05012 0
M  V30 9119 N 854.342 -1.57594 -0.0133615 0
M  V30 9120 C 855.305 -2.06534 -0.993799 0
M  V30 9121 C 856.305 -0.972267 -1.28077 0
M  V30 9122 O 857.495 -1.23537 -1.22818 0
M  V30 9123 C 854.627 -2.49554 -2.3224 0
M  V30 9124 H 855.82 -2.94419 -0.570741 0
M  V30 9125 H 853.373 -1.54113 -0.260546 0
M  V30 9126 H 854.108 -1.64872 -2.79263 0
M  V30 9127 H 853.893 -3.29371 -2.12737 0
M  V30 9128 H 855.383 -2.8779 -3.026 0
M  V30 9129 N 855.82 0.285905 -1.54985 0
M  V30 9130 C 857.045 1.04207 -1.7932 0
M  V30 9131 C 857.47 1.79622 -0.558343 0
M  V30 9132 O 856.828 1.74506 0.491661 0
M  V30 9133 C 856.876 1.98648 -3.0095 0
M  V30 9134 O 855.98 3.07207 -2.75132 0
M  V30 9135 H 855.321 0.298596 -0.593074 0
M  V30 9136 H 857.851 0.318736 -2.02102 0
M  V30 9137 H 857.861 2.4084 -3.29333 0
M  V30 9138 H 856.536 1.43167 -3.90482 0
M  V30 9139 H 855.113 2.69423 -2.57809 0
M  V30 9140 N 857.298 1.47698 0.54982 0
M  V30 9141 C 858.523 1.58579 1.33669 0
M  V30 9142 C 858.948 0.239049 1.86575 0
M  V30 9143 O 858.306 -0.786256 1.63364 0
M  V30 9144 C 858.354 2.62029 2.47736 0
M  V30 9145 O 857.458 2.17813 3.50188 0
M  V30 9146 H 856.799 0.532447 0.396732 0
M  V30 9147 H 859.329 1.93536 0.6637 0
M  V30 9148 H 859.339 2.82682 2.94202 0
M  V30 9149 H 858.014 3.59812 2.08586 0
M  V30 9150 H 856.591 2.07291 3.09976 0
M  V30 9151 N 858.776 -0.797141 1.35954 0
M  V30 9152 C 860.192 -1.09408 1.16198 0
M  V30 9153 C 860.392 -2.01491 -0.0191682 0
M  V30 9154 O 859.448 -2.42977 -0.686902 0
M  V30 9155 C 860.761 -1.71597 2.46931 0
M  V30 9156 C 862.309 -1.83974 2.53224 0
M  V30 9157 C 862.784 -2.49579 3.84024 0
M  V30 9158 N 864.275 -2.57055 3.85327 0
M  V30 9159 C 865.01 -3.08608 4.83268 0
M  V30 9160 N 864.506 -3.60527 5.91601 0
M  V30 9161 N 866.299 -3.07249 4.70696 0
M  V30 9162 H 858.45 -0.185209 2.11591 0
M  V30 9163 H 860.713 -0.144768 0.936881 0
M  V30 9164 H 860.419 -1.11404 3.3359 0
M  V30 9165 H 860.293 -2.71193 2.62172 0
M  V30 9166 H 862.68 -2.43308 1.66988 0
M  V30 9167 H 862.761 -0.83207 2.41889 0
M  V30 9168 H 862.405 -1.90892 4.70662 0
M  V30 9169 H 862.335 -3.50902 3.92651 0
M  V30 9170 H 864.826 -2.20283 3.07057 0
M  V30 9171 H 865.139 -3.98192 6.62317 0
M  V30 9172 H 863.484 -3.587 5.95281 0
M  V30 9173 H 866.675 -2.65972 3.85197 0
M  V30 9174 H 866.848 -3.47119 5.47186 0
M  V30 9175 N 860.254 -1.20106 -1.0204 0
M  V30 9176 C 861.5 -1.01039 -1.75838 0
M  V30 9177 C 861.833 0.456819 -1.88751 0
M  V30 9178 O 861.108 1.33919 -1.41053 0
M  V30 9179 C 861.391 -1.69009 -3.17975 0
M  V30 9180 C 861.244 -3.2315 -3.1288 0
M  V30 9181 C 862.563 -1.42005 -4.16561 0
M  V30 9182 H 859.682 -0.368465 -0.638281 0
M  V30 9183 H 862.324 -1.48066 -1.19064 0
M  V30 9184 H 860.474 -1.29026 -3.66449 0
M  V30 9185 H 862.146 -3.72402 -2.72239 0
M  V30 9186 H 860.389 -3.54253 -2.50374 0
M  V30 9187 H 861.06 -3.65862 -4.13339 0
M  V30 9188 H 863.536 -1.76685 -3.76725 0
M  V30 9189 H 862.412 -1.92101 -5.14187 0
M  V30 9190 H 862.673 -0.346884 -4.40737 0
M  V30 9191 N 861.732 1.21287 -1.00634 0
M  V30 9192 C 862.662 2.25973 -0.588089 0
M  V30 9193 C 863.643 1.65527 0.391764 0
M  V30 9194 O 864.828 1.92179 0.279452 0
M  V30 9195 C 861.958 3.47197 0.0847336 0
M  V30 9196 C 860.912 4.20168 -0.815039 0
M  V30 9197 C 860.238 5.34699 -0.00855393 0
M  V30 9198 C 861.538 4.77416 -2.11828 0
M  V30 9199 H 863.232 2.61212 -1.46317 0
M  V30 9200 H 860.778 1.25563 -0.704985 0
M  V30 9201 H 862.731 4.19602 0.388821 0
M  V30 9202 H 861.455 3.11092 0.994456 0
M  V30 9203 H 860.114 3.49614 -1.10297 0
M  V30 9204 H 859.762 4.94837 0.902499 0
M  V30 9205 H 859.462 5.84449 -0.607664 0
M  V30 9206 H 860.986 6.09914 0.289317 0
M  V30 9207 H 862.4 5.41694 -1.87725 0
M  V30 9208 H 860.797 5.37561 -2.66736 0
M  V30 9209 H 861.867 3.96724 -2.78816 0
M  V30 9210 N 863.21 0.781244 1.36873 0
M  V30 9211 C 864.173 0.180094 2.28491 0
M  V30 9212 C 865.173 -0.617798 1.48458 0
M  V30 9213 O 866.363 -0.439991 1.68552 0
M  V30 9214 C 863.495 -0.751741 3.32508 0
M  V30 9215 H 864.688 0.987837 2.83164 0
M  V30 9216 H 862.241 0.550102 1.463 0
M  V30 9217 H 862.976 -1.58413 2.82977 0
M  V30 9218 H 862.761 -0.181649 3.91679 0
M  V30 9219 H 864.251 -1.16748 4.00949 0
M  V30 9220 N 864.689 -1.48329 0.532571 0
M  V30 9221 C 865.966 -1.95492 -0.0650985 0
M  V30 9222 C 866.346 -1.47485 -1.51034 0
M  V30 9223 O 865.694 -0.702516 -2.17433 0
M  V30 9224 C 865.904 -3.48957 0.0548341 0
M  V30 9225 C 867.252 -4.24475 -0.103115 0
M  V30 9226 O 868.276 -3.56195 -0.0188343 0
M  V30 9227 O 867.135 -5.45781 -0.280164 0
M  V30 9228 H 864.229 -0.823327 -0.0778603 0
M  V30 9229 H 866.775 -1.58839 0.597353 0
M  V30 9230 H 865.547 -3.76628 1.06148 0
M  V30 9231 H 865.17 -3.92311 -0.64635 0
M  V30 9232 N 866.167 -0.267825 -1.55308 0
M  V30 9233 C 867.415 0.350343 -1.9904 0
M  V30 9234 C 867.736 1.56924 -1.15758 0
M  V30 9235 O 867.006 1.94358 -0.245336 0
M  V30 9236 H 865.586 0.132435 -0.735167 0
M  V30 9237 H 868.248 -0.371471 -1.91327 0
M  V30 9238 H 867.344 0.645203 -3.05358 0
M  V30 9239 N 867.645 1.57599 0.00500368 0
M  V30 9240 C 868.578 2.03541 1.03181 0
M  V30 9241 C 869.556 0.924301 1.33774 0
M  V30 9242 O 870.74 1.19204 1.46023 0
M  V30 9243 C 867.867 2.42879 2.36067 0
M  V30 9244 C 866.913 3.64673 2.21169 0
M  V30 9245 S 867.746 5.12805 1.54243 0
M  V30 9246 C 868.902 5.55408 2.88569 0
M  V30 9247 H 869.135 2.90316 0.640598 0
M  V30 9248 H 866.668 1.52886 0.215722 0
M  V30 9249 H 868.626 2.66212 3.12476 0
M  V30 9250 H 867.287 1.56512 2.72329 0
M  V30 9251 H 866.48 3.89932 3.19326 0
M  V30 9252 H 866.082 3.41316 1.52904 0
M  V30 9253 H 868.374 5.57563 3.84876 0
M  V30 9254 H 869.317 6.55418 2.68016 0
M  V30 9255 H 869.725 4.82961 2.92249 0
M  V30 9256 N 869.123 -0.277682 1.55134 0
M  V30 9257 C 870.351 -1.02826 1.7954 0
M  V30 9258 C 870.766 -1.80105 0.566373 0
M  V30 9259 O 870.123 -1.76491 -0.464448 0
M  V30 9260 C 870.174 -1.99053 3.01762 0
M  V30 9261 O 869.895 -1.24906 4.19917 0
M  V30 9262 C 871.396 -2.85961 3.38735 0
M  V30 9263 H 868.616 -0.303958 0.598206 0
M  V30 9264 H 871.16 -0.309884 2.02138 0
M  V30 9265 H 869.315 -2.66359 2.81303 0
M  V30 9266 H 869.729 -1.89725 4.88983 0
M  V30 9267 H 871.203 -3.49286 4.27438 0
M  V30 9268 H 871.68 -3.55486 2.57928 0
M  V30 9269 H 872.286 -2.24152 3.61436 0
M  V30 9270 N 870.601 -1.47988 -0.541979 0
M  V30 9271 C 872.017 -1.33843 -0.869383 0
M  V30 9272 C 872.217 -0.340374 -1.98604 0
M  V30 9273 O 871.273 0.242696 -2.51331 0
M  V30 9274 C 872.586 -2.73568 -1.24823 0
M  V30 9275 C 874.134 -2.81967 -1.3588 0
M  V30 9276 C 874.609 -4.22368 -1.77114 0
M  V30 9277 N 876.1 -4.24983 -1.84237 0
M  V30 9278 C 876.835 -5.30547 -2.17503 0
M  V30 9279 N 876.331 -6.46401 -2.49275 0
M  V30 9280 N 878.124 -5.17933 -2.18406 0
M  V30 9281 H 870.275 -2.11503 0.195001 0
M  V30 9282 H 872.538 -0.947681 0.0245862 0
M  V30 9283 H 872.244 -3.48107 -0.501435 0
M  V30 9284 H 872.118 -3.06322 -2.20106 0
M  V30 9285 H 874.505 -2.07692 -2.09638 0
M  V30 9286 H 874.586 -2.52848 -0.387478 0
M  V30 9287 H 874.23 -4.97155 -1.0392 0
M  V30 9288 H 874.16 -4.48922 -2.75275 0
M  V30 9289 H 876.651 -3.41411 -1.62009 0
M  V30 9290 H 876.964 -7.22698 -2.73729 0
M  V30 9291 H 875.309 -6.49696 -2.46821 0
M  V30 9292 H 878.5 -4.26445 -1.93034 0
M  V30 9293 H 878.673 -6.00307 -2.44 0
M  V30 9294 N 872.079 0.78992 -1.36375 0
M  V30 9295 C 873.327 1.54472 -1.30319 0
M  V30 9296 C 873.648 1.94647 0.117338 0
M  V30 9297 O 872.918 1.64906 1.05748 0
M  V30 9298 H 871.498 0.572879 -0.479394 0
M  V30 9299 H 874.16 0.941245 -1.70665 0
M  V30 9300 H 873.256 2.45252 -1.93024 0
M  V30 9301 N 873.557 1.20646 1.01402 0
M  V30 9302 C 874.968 1.01823 1.56489 0
M  V30 9303 C 875.319 -0.42463 1.9155 0
M  V30 9304 O 874.444 -1.30644 1.72514 0
M  V30 9305 C 875.039 1.84208 2.84347 0
M  V30 9306 C 873.598 1.69743 3.35953 0
M  V30 9307 C 872.745 1.8198 2.09233 0
M  V30 9308 H 875.696 1.348 0.837539 0
M  V30 9309 H 875.717 1.34698 3.55861 0
M  V30 9310 H 875.229 2.89215 2.58798 0
M  V30 9311 H 873.33 0.673833 3.66456 0
M  V30 9312 H 873.443 2.51173 4.07981 0
M  V30 9313 H 871.807 1.25193 2.21808 0
M  V30 9314 H 872.59 2.88477 1.86107 0
M  V30 9315 N 875.035 -1.20752 1.01276 0
M  V30 9316 C 876.281 -1.90302 0.700924 0
M  V30 9317 C 876.614 -1.78406 -0.767142 0
M  V30 9318 O 875.889 -1.16575 -1.55694 0
M  V30 9319 C 876.172 -3.41831 1.13242 0
M  V30 9320 C 876.025 -3.6268 2.66051 0
M  V30 9321 C 877.344 -4.34486 0.700738 0
M  V30 9322 H 874.463 -0.69107 0.256107 0
M  V30 9323 H 877.105 -1.42227 1.25982 0
M  V30 9324 H 875.255 -3.82906 0.656902 0
M  V30 9325 H 876.927 -3.30882 3.21426 0
M  V30 9326 H 875.17 -3.06281 3.07204 0
M  V30 9327 H 875.841 -4.68882 2.91296 0
M  V30 9328 H 878.317 -4.01036 1.10948 0
M  V30 9329 H 877.193 -5.39136 1.03073 0
M  V30 9330 H 877.454 -4.40307 -0.39778 0
M  V30 9331 N 876.513 -0.788492 -1.36457 0
M  V30 9332 C 877.759 -0.360995 -1.99561 0
M  V30 9333 C 878.092 1.06433 -1.62437 0
M  V30 9334 O 877.367 1.7352 -0.878705 0
M  V30 9335 C 877.65 -0.523735 -3.56271 0
M  V30 9336 C 877.503 -1.99268 -4.03252 0
M  V30 9337 C 878.822 0.0617908 -4.40057 0
M  V30 9338 H 875.941 -0.13264 -0.724966 0
M  V30 9339 H 878.583 -0.994659 -1.61884 0
M  V30 9340 H 876.733 0.0156979 -3.88497 0
M  V30 9341 H 878.405 -2.59311 -3.81518 0
M  V30 9342 H 876.648 -2.49561 -3.54826 0
M  V30 9343 H 877.319 -2.05752 -5.12221 0
M  V30 9344 H 879.795 -0.398674 -4.14186 0
M  V30 9345 H 878.671 -0.0821089 -5.48839 0
M  V30 9346 H 878.932 1.15381 -4.26778 0
M  V30 9347 N 877.991 1.48044 -0.54043 0
M  V30 9348 C 879.407 1.58354 -0.199006 0
M  V30 9349 C 879.607 1.54118 1.29807 0
M  V30 9350 O 878.663 1.43573 2.07709 0
M  V30 9351 C 879.976 2.89563 -0.810797 0
M  V30 9352 C 881.524 3.03113 -0.780486 0
M  V30 9353 C 881.999 4.36997 -1.37104 0
M  V30 9354 N 883.49 4.43591 -1.33347 0
M  V30 9355 C 884.225 5.45714 -1.76021 0
M  V30 9356 N 883.721 6.54738 -2.26473 0
M  V30 9357 N 885.514 5.36659 -1.67194 0
M  V30 9358 H 877.665 1.49041 -1.51329 0
M  V30 9359 H 879.928 0.708309 -0.630081 0
M  V30 9360 H 879.634 2.9835 -1.86227 0
M  V30 9361 H 879.508 3.76053 -0.293977 0
M  V30 9362 H 881.895 2.93932 0.262246 0
M  V30 9363 H 881.976 2.18207 -1.33489 0
M  V30 9364 H 881.62 4.46932 -2.41276 0
M  V30 9365 H 881.55 5.20607 -0.792229 0
M  V30 9366 H 884.041 3.65391 -0.964259 0
M  V30 9367 H 884.354 7.28814 -2.57002 0
M  V30 9368 H 882.699 6.55673 -2.30473 0
M  V30 9369 H 885.89 4.50382 -1.27569 0
M  V30 9370 H 886.063 6.16113 -2.00771 0
M  V30 9371 N 879.47 0.276058 1.55163 0
M  V30 9372 C 880.4 -0.604633 2.25536 0
M  V30 9373 C 881.381 -1.15813 1.24585 0
M  V30 9374 O 882.566 -1.1921 1.53306 0
M  V30 9375 C 879.696 -1.78836 2.97716 0
M  V30 9376 C 878.65 -1.36635 4.05604 0
M  V30 9377 C 877.976 -2.63325 4.65364 0
M  V30 9378 C 879.276 -0.515858 5.19746 0
M  V30 9379 H 880.97 -0.0177483 2.99395 0
M  V30 9380 H 878.516 -0.00709627 1.43998 0
M  V30 9381 H 880.469 -2.41036 3.45658 0
M  V30 9382 H 879.193 -2.40109 2.21394 0
M  V30 9383 H 877.852 -0.767541 3.58475 0
M  V30 9384 H 877.5 -3.22858 3.85709 0
M  V30 9385 H 877.2 -2.358 5.38212 0
M  V30 9386 H 878.724 -3.26372 5.16056 0
M  V30 9387 H 880.138 -1.04289 5.63735 0
M  V30 9388 H 878.535 -0.335449 5.99162 0
M  V30 9389 H 879.605 0.465137 4.82664 0
M  V30 9390 N 880.948 -1.576 0.00335426 0
M  V30 9391 C 882.359 -1.7875 -0.539008 0
M  V30 9392 C 882.71 -0.911097 -1.73763 0
M  V30 9393 O 881.835 -0.114476 -2.16097 0
M  V30 9394 C 882.43 -3.24177 -0.984611 0
M  V30 9395 C 880.989 -3.46412 -1.47226 0
M  V30 9396 C 880.136 -2.74024 -0.425004 0
M  V30 9397 H 883.087 -1.57032 0.229511 0
M  V30 9398 H 883.108 -3.32474 -1.85044 0
M  V30 9399 H 882.62 -3.87938 -0.112035 0
M  V30 9400 H 880.721 -2.8787 -2.36562 0
M  V30 9401 H 880.834 -4.55098 -1.49741 0
M  V30 9402 H 879.198 -2.38741 -0.887394 0
M  V30 9403 H 879.981 -3.40486 0.438662 0
M  V30 9404 N 882.426 0.269451 -1.5528 0
M  V30 9405 C 883.842 0.616827 -1.47199 0
M  V30 9406 C 884.042 1.89354 -0.68901 0
M  V30 9407 O 883.098 2.51631 -0.209287 0
M  V30 9408 C 884.411 0.740492 -2.9144 0
M  V30 9409 C 885.959 0.834312 -3.01676 0
M  V30 9410 C 886.434 0.989725 -4.47178 0
M  V30 9411 N 887.925 1.05516 -4.51022 0
M  V30 9412 C 888.66 1.19427 -5.60825 0
M  V30 9413 N 888.156 1.30035 -6.80487 0
M  V30 9414 N 889.949 1.22566 -5.48575 0
M  V30 9415 H 882.1 -0.568962 -2.04638 0
M  V30 9416 H 884.363 -0.193153 -0.928114 0
M  V30 9417 H 884.069 -0.127234 -3.5147 0
M  V30 9418 H 883.943 1.61965 -3.40657 0
M  V30 9419 H 886.33 1.6925 -2.4174 0
M  V30 9420 H 886.411 -0.0695298 -2.55705 0
M  V30 9421 H 886.055 0.136179 -5.07717 0
M  V30 9422 H 885.985 1.90827 -4.90808 0
M  V30 9423 H 888.476 0.985434 -3.64825 0
M  V30 9424 H 888.789 1.40494 -7.59922 0
M  V30 9425 H 887.134 1.27033 -6.83292 0
M  V30 9426 H 890.325 1.13911 -4.54029 0
M  V30 9427 H 890.498 1.33063 -6.34191 0
M  V30 9428 N 883.904 1.48273 0.534124 0
M  V30 9429 C 884.867 1.6201 1.62127 0
M  V30 9430 C 885.867 0.493653 1.53035 0
M  V30 9431 O 887.057 0.759337 1.56779 0
M  V30 9432 C 884.189 1.5864 3.01739 0
M  V30 9433 H 885.382 2.58944 1.51288 0
M  V30 9434 H 882.935 1.36808 0.755861 0
M  V30 9435 H 883.67 0.631685 3.18088 0
M  V30 9436 H 883.455 2.40415 3.09747 0
M  V30 9437 H 884.945 1.71438 3.80787 0
M  V30 9438 N 885.382 -0.782676 1.36792 0
M  V30 9439 C 886.622 -1.55396 1.32784 0
M  V30 9440 C 886.986 -1.91789 -0.0900272 0
M  V30 9441 O 888.187 -2.6759 -0.254725 0
M  V30 9442 C 886.458 -2.79227 2.23085 0
M  V30 9443 S 888.017 -3.69404 2.36825 0
M  V30 9444 H 884.835 -0.532139 0.471539 0
M  V30 9445 H 887.437 -0.921285 1.72431 0
M  V30 9446 H 886.141 -2.50553 3.25041 0
M  V30 9447 H 885.672 -3.47462 1.84482 0
M  V30 9448 H 887.687 -4.70683 1.57074 0
M  V30 9449 N 886.86 -1.21182 -1.00761 0
M  V30 9450 C 888.137 -0.936297 -1.71735 0
M  V30 9451 C 888.517 0.552585 -2.03739 0
M  V30 9452 O 887.865 1.51672 -1.70903 0
M  V30 9453 C 888.075 -1.81867 -2.97868 0
M  V30 9454 C 889.423 -2.06594 -3.7095 0
M  V30 9455 O 890.447 -1.79194 -3.07844 0
M  V30 9456 O 889.306 -2.5292 -4.84452 0
M  V30 9457 H 886.4 -0.350867 -0.74888 0
M  V30 9458 H 888.946 -1.32098 -1.06527 0
M  V30 9459 H 887.718 -2.82643 -2.70607 0
M  V30 9460 H 887.341 -1.43463 -3.70815 0
M  V30 9461 N 888.338 1.20213 -1.01915 0
M  V30 9462 C 889.563 1.94163 -0.729076 0
M  V30 9463 C 889.988 1.74416 0.704323 0
M  V30 9464 O 889.346 1.0401 1.48498 0
M  V30 9465 C 889.394 3.44258 -1.07324 0
M  V30 9466 O 888.498 4.11979 -0.186367 0
M  V30 9467 H 887.839 0.606506 -0.270272 0
M  V30 9468 H 890.369 1.52571 -1.3632 0
M  V30 9469 H 890.379 3.94888 -1.02603 0
M  V30 9470 H 889.054 3.57954 -2.11759 0
M  V30 9471 H 887.631 3.7176 -0.291334 0
M  V30 9472 N 889.816 0.795718 1.36037 0
M  V30 9473 C 890.779 0.204318 2.28287 0
M  V30 9474 C 891.779 -0.602017 1.49105 0
M  V30 9475 O 892.969 -0.422089 1.69009 0
M  V30 9476 C 890.101 -0.716431 3.33287 0
M  V30 9477 H 891.294 1.01781 2.821 0
M  V30 9478 H 888.847 0.565588 1.45708 0
M  V30 9479 H 889.582 -1.55403 2.84641 0
M  V30 9480 H 889.367 -0.140096 3.9185 0
M  V30 9481 H 890.857 -1.12488 4.02164 0
M  V30 9482 N 891.294 -1.47756 0.548274 0
M  V30 9483 C 892.204 -2.33678 -0.207773 0
M  V30 9484 C 893.22 -1.47636 -0.920843 0
M  V30 9485 O 894.396 -1.80583 -0.89173 0
M  V30 9486 C 891.461 -3.24147 -1.23003 0
M  V30 9487 C 890.522 -4.26073 -0.52535 0
M  V30 9488 C 889.755 -5.12219 -1.4989 0
M  V30 9489 O 889.978 -5.0066 -2.73305 0
M  V30 9490 O 888.912 -5.93051 -1.02828 0
M  V30 9491 H 892.738 -2.99609 0.496794 0
M  V30 9492 H 890.323 -1.4617 0.308982 0
M  V30 9493 H 892.205 -3.80055 -1.82034 0
M  V30 9494 H 890.88 -2.60855 -1.91668 0
M  V30 9495 H 889.787 -3.7395 0.105927 0
M  V30 9496 H 891.12 -4.92054 0.119686 0
M  V30 9497 N 892.772 -0.284283 -1.55015 0
M  V30 9498 C 894.018 0.330352 -2.00091 0
M  V30 9499 C 894.351 1.54814 -1.17244 0
M  V30 9500 O 893.626 1.92954 -0.244753 0
M  V30 9501 C 893.909 0.703492 -3.53161 0
M  V30 9502 C 893.762 -0.522275 -4.46758 0
M  V30 9503 C 895.081 1.53645 -4.12409 0
M  V30 9504 H 892.2 0.118599 -0.727395 0
M  V30 9505 H 894.842 -0.393054 -1.8589 0
M  V30 9506 H 892.992 1.31983 -3.65394 0
M  V30 9507 H 894.664 -1.16082 -4.46456 0
M  V30 9508 H 892.907 -1.15865 -4.1804 0
M  V30 9509 H 893.578 -0.217295 -5.51572 0
M  V30 9510 H 896.054 1.01583 -4.0351 0
M  V30 9511 H 894.93 1.76633 -5.19704 0
M  V30 9512 H 895.191 2.5204 -3.63219 0
M  V30 9513 N 894.251 1.57596 -0.0117121 0
M  V30 9514 C 895.198 2.09153 0.975897 0
M  V30 9515 C 896.168 0.989579 1.33404 0
M  V30 9516 O 897.353 1.26273 1.43038 0
M  V30 9517 C 894.493 2.60906 2.2588 0
M  V30 9518 C 893.606 3.85046 1.95866 0
M  V30 9519 C 892.741 4.25257 3.18323 0
M  V30 9520 C 891.78 5.42202 2.84049 0
M  V30 9521 N 890.917 5.77651 3.99079 0
M  V30 9522 H 895.757 2.93261 0.52931 0
M  V30 9523 H 893.294 1.44965 0.249691 0
M  V30 9524 H 895.252 2.88995 3.00895 0
M  V30 9525 H 893.882 1.79654 2.68187 0
M  V30 9526 H 892.934 3.63794 1.11168 0
M  V30 9527 H 894.246 4.70151 1.66611 0
M  V30 9528 H 893.4 4.5469 4.01674 0
M  V30 9529 H 892.139 3.38884 3.50726 0
M  V30 9530 H 891.144 5.1248 1.99107 0
M  V30 9531 H 892.369 6.3026 2.52881 0
M  V30 9532 H 890.315 4.94235 4.31356 0
M  V30 9533 H 890.232 6.57356 3.73388 0
M  V30 9534 H 891.5 6.11681 4.83183 0
M  V30 9535 N 895.729 -0.261212 1.5542 0
M  V30 9536 C 896.692 -1.30645 1.8832 0
M  V30 9537 C 897.692 -1.41782 0.758588 0
M  V30 9538 O 898.882 -1.40729 1.02669 0
M  V30 9539 C 896.014 -2.6862 2.09895 0
M  V30 9540 H 897.207 -1.02698 2.81768 0
M  V30 9541 H 894.76 -0.499838 1.48092 0
M  V30 9542 H 895.495 -3.0173 1.18868 0
M  V30 9543 H 895.28 -2.61921 2.91787 0
M  V30 9544 H 896.77 -3.44121 2.36581 0
M  V30 9545 N 897.207 -1.48554 -0.526253 0
M  V30 9546 C 898.453 -1.57972 -1.28127 0
M  V30 9547 C 898.808 -0.251973 -1.90743 0
M  V30 9548 O 898.101 0.745524 -1.76501 0
M  V30 9549 C 898.295 -2.65739 -2.38993 0
M  V30 9550 C 898.124 -4.08864 -1.87244 0
M  V30 9551 C 896.894 -4.75959 -1.6968 0
M  V30 9552 C 899.092 -4.94912 -1.39882 0
M  V30 9553 N 897.074 -6.03486 -1.12596 0
M  V30 9554 C 898.445 -6.12714 -0.947696 0
M  V30 9555 C 900.5 -4.81107 -1.2822 0
M  V30 9556 C 899.203 -7.18234 -0.391507 0
M  V30 9557 C 901.229 -5.86752 -0.740001 0
M  V30 9558 C 900.591 -7.03765 -0.298968 0
M  V30 9559 H 896.69 -0.632588 -0.459735 0
M  V30 9560 H 899.274 -1.85452 -0.59294 0
M  V30 9561 H 897.445 -2.40075 -3.05317 0
M  V30 9562 H 899.177 -2.64821 -3.06026 0
M  V30 9563 H 895.932 -4.32351 -1.93312 0
M  V30 9564 H 896.356 -6.71509 -0.860541 0
M  V30 9565 H 900.998 -3.90978 -1.60922 0
M  V30 9566 H 898.716 -8.08083 -0.0521685 0
M  V30 9567 H 902.302 -5.78125 -0.652889 0
M  V30 9568 H 901.182 -7.84117 0.114052 0
M  V30 9569 N 898.685 0.775411 -1.37205 0
M  V30 9570 C 899.615 1.90258 -1.35367 0
M  V30 9571 C 900.596 1.68634 -0.222864 0
M  V30 9572 O 901.781 1.89545 -0.422659 0
M  V30 9573 C 898.911 3.27488 -1.15623 0
M  V30 9574 C 897.865 3.63668 -2.25676 0
M  V30 9575 C 897.191 4.994 -1.91059 0
M  V30 9576 C 898.491 3.70797 -3.67841 0
M  V30 9577 H 900.185 1.92053 -2.29687 0
M  V30 9578 H 897.731 0.922597 -1.10563 0
M  V30 9579 H 899.684 4.05976 -1.12968 0
M  V30 9580 H 898.408 3.26117 -0.177573 0
M  V30 9581 H 897.067 2.87486 -2.2748 0
M  V30 9582 H 896.715 4.94565 -0.917324 0
M  V30 9583 H 896.415 5.24576 -2.64751 0
M  V30 9584 H 897.939 5.80291 -1.89985 0
M  V30 9585 H 899.353 4.39444 -3.68187 0
M  V30 9586 H 897.75 4.07468 -4.40556 0
M  V30 9587 H 898.82 2.71549 -4.01732 0
M  V30 9588 N 900.163 1.21714 1.00117 0
M  V30 9589 C 901.073 0.99597 2.12409 0
M  V30 9590 C 902.089 -0.0531431 1.73919 0
M  V30 9591 O 903.265 0.137757 2.00928 0
M  V30 9592 C 900.33 0.567593 3.42022 0
M  V30 9593 C 899.391 1.68936 3.94663 0
M  V30 9594 C 898.624 1.28133 5.1809 0
M  V30 9595 O 898.847 0.156574 5.70185 0
M  V30 9596 O 897.781 2.0947 5.64275 0
M  V30 9597 H 901.607 1.93657 2.33946 0
M  V30 9598 H 899.192 1.00236 1.10784 0
M  V30 9599 H 901.074 0.338664 4.20037 0
M  V30 9600 H 899.749 -0.34424 3.21864 0
M  V30 9601 H 898.656 1.97274 3.17858 0
M  V30 9602 H 899.989 2.57876 4.19238 0
M  V30 9603 N 901.641 -1.19671 1.02551 0
M  V30 9604 C 902.869 -1.93233 0.739513 0
M  V30 9605 C 903.284 -1.75298 -0.701158 0
M  V30 9606 O 902.641 -1.07269 -1.47647 0
M  V30 9607 C 902.692 -3.45085 1.07697 0
M  V30 9608 O 902.413 -3.62441 2.46106 0
M  V30 9609 C 903.914 -4.35776 0.813298 0
M  V30 9610 H 901.134 -0.613905 0.270853 0
M  V30 9611 H 903.678 -1.51909 1.36909 0
M  V30 9612 H 901.833 -3.84255 0.492635 0
M  V30 9613 H 902.247 -4.56337 2.58567 0
M  V30 9614 H 903.721 -5.40941 1.09941 0
M  V30 9615 H 904.198 -4.38474 -0.252359 0
M  V30 9616 H 904.804 -4.02282 1.38021 0
M  V30 9617 N 903.119 -0.802921 -1.35613 0
M  V30 9618 C 904.344 -0.392846 -2.03645 0
M  V30 9619 C 904.769 0.987075 -1.6012 0
M  V30 9620 O 904.127 1.63849 -0.776101 0
M  V30 9621 C 904.175 -0.480208 -3.57388 0
M  V30 9622 O 903.279 0.507751 -4.09262 0
M  V30 9623 H 902.62 -0.16464 -0.643265 0
M  V30 9624 H 905.15 -1.08779 -1.73287 0
M  V30 9625 H 905.16 -0.348683 -4.06507 0
M  V30 9626 H 903.835 -1.48675 -3.88418 0
M  V30 9627 H 902.412 0.336769 -3.71376 0
M  V30 9628 N 904.597 1.47463 -0.556102 0
M  V30 9629 C 905.507 2.33785 0.195378 0
M  V30 9630 C 906.523 1.48123 0.913 0
M  V30 9631 O 907.699 1.81053 0.882141 0
M  V30 9632 C 904.764 3.24795 1.21282 0
M  V30 9633 C 903.825 4.26346 0.502747 0
M  V30 9634 C 903.058 5.13007 1.47172 0
M  V30 9635 O 903.281 5.02103 2.70646 0
M  V30 9636 O 902.215 5.93588 0.996814 0
M  V30 9637 H 906.041 2.99341 -0.512676 0
M  V30 9638 H 903.626 1.46004 -0.31673 0
M  V30 9639 H 905.508 3.81015 1.80016 0
M  V30 9640 H 904.183 2.61868 1.90282 0
M  V30 9641 H 903.09 3.73889 -0.125757 0
M  V30 9642 H 904.423 4.91984 -0.145779 0
M  V30 9643 N 906.075 0.2925 1.54862 0
M  V30 9644 C 907.323 -0.318633 1.99572 0
M  V30 9645 C 907.644 -1.55062 1.1824 0
M  V30 9646 O 906.914 -1.93943 0.276226 0
M  V30 9647 H 905.494 -0.120722 0.737181 0
M  V30 9648 H 908.156 0.401862 1.90712 0
M  V30 9649 H 907.252 -0.596542 3.06346 0
M  V30 9650 N 907.553 -1.57587 0.0200696 0
M  V30 9651 C 908.8 -1.91424 -0.660525 0
M  V30 9652 C 909.128 -0.895626 -1.72652 0
M  V30 9653 O 908.383 0.096771 -1.95461 0
M  V30 9654 C 908.682 -3.32002 -1.32323 0
M  V30 9655 C 908.348 -4.49223 -0.388487 0
M  V30 9656 C 907.01 -4.81021 -0.131184 0
M  V30 9657 C 909.362 -5.20581 0.253906 0
M  V30 9658 C 906.69 -5.81539 0.776471 0
M  V30 9659 C 909.042 -6.22067 1.14956 0
M  V30 9660 C 907.706 -6.52311 1.41584 0
M  V30 9661 H 906.976 -0.700472 -0.241703 0
M  V30 9662 H 909.623 -1.91333 0.0798991 0
M  V30 9663 H 907.928 -3.28312 -2.13819 0
M  V30 9664 H 909.625 -3.5545 -1.85623 0
M  V30 9665 H 906.215 -4.24391 -0.599207 0
M  V30 9666 H 910.399 -4.96253 0.068164 0
M  V30 9667 H 905.655 -6.03322 0.990575 0
M  V30 9668 H 909.829 -6.76484 1.65357 0
M  V30 9669 H 907.456 -7.30017 2.12083 0
M  V30 9670 N 909.032 0.252966 -1.55557 0
M  V30 9671 C 909.995 1.29645 -1.8901 0
M  V30 9672 C 910.995 1.41378 -0.766096 0
M  V30 9673 O 912.185 1.40183 -1.03414 0
M  V30 9674 C 909.317 2.67504 -2.11316 0
M  V30 9675 H 910.51 1.01202 -2.82309 0
M  V30 9676 H 908.063 0.491977 -1.48355 0
M  V30 9677 H 908.798 3.01095 -1.20466 0
M  V30 9678 H 908.583 2.6037 -2.93172 0
M  V30 9679 H 910.073 3.42861 -2.38403 0
M  V30 9680 N 910.51 1.48831 0.518367 0
M  V30 9681 C 911.756 1.57672 1.27543 0
M  V30 9682 C 912.089 0.254915 1.9252 0
M  V30 9683 O 911.364 -0.740107 1.79868 0
M  V30 9684 C 911.647 2.72345 2.35585 0
M  V30 9685 C 911.5 4.14267 1.75224 0
M  V30 9686 C 912.819 2.82726 3.37274 0
M  V30 9687 H 909.938 0.573926 0.462361 0
M  V30 9688 H 912.58 1.8105 0.576267 0
M  V30 9689 H 910.73 2.52543 2.95219 0
M  V30 9690 H 912.402 4.45539 1.19551 0
M  V30 9691 H 910.645 4.20724 1.05706 0
M  V30 9692 H 911.316 4.90345 2.53507 0
M  V30 9693 H 913.792 3.00699 2.8761 0
M  V30 9694 H 912.668 3.6467 4.10252 0
M  V30 9695 H 912.929 1.9136 3.9854 0
M  V30 9696 N 911.988 -0.768124 1.37614 0
M  V30 9697 C 913.237 -1.5221 1.32345 0
M  V30 9698 C 913.55 -1.95399 -0.0885761 0
M  V30 9699 O 914.756 -2.70216 -0.263752 0
M  V30 9700 C 913.212 -2.74872 2.32322 0
M  V30 9701 C 912.82 -2.38767 3.79071 0
M  V30 9702 C 914.564 -3.52805 2.36069 0
M  V30 9703 C 912.471 -3.57953 4.7077 0
M  V30 9704 H 911.401 -0.571461 0.491883 0
M  V30 9705 H 914.052 -0.841004 1.63093 0
M  V30 9706 H 912.434 -3.44889 1.94596 0
M  V30 9707 H 913.608 -1.7651 4.25654 0
M  V30 9708 H 911.923 -1.74 3.78303 0
M  V30 9709 H 914.52 -4.41397 3.01782 0
M  V30 9710 H 914.863 -3.92925 1.37535 0
M  V30 9711 H 915.396 -2.89788 2.72521 0
M  V30 9712 H 912.135 -3.22911 5.70446 0
M  V30 9713 H 911.655 -4.19302 4.28889 0
M  V30 9714 H 913.334 -4.2472 4.8808 0
M  V30 9715 N 913.466 -1.22244 -0.994698 0
M  V30 9716 C 914.413 -0.990906 -2.08446 0
M  V30 9717 C 915.383 0.086737 -1.65873 0
M  V30 9718 O 916.568 -0.0624882 -1.90698 0
M  V30 9719 C 913.708 -0.572813 -3.40313 0
M  V30 9720 C 912.821 -1.72103 -3.96238 0
M  V30 9721 C 911.956 -1.2511 -5.16257 0
M  V30 9722 C 910.995 -2.37098 -5.64315 0
M  V30 9723 N 910.132 -1.91164 -6.75574 0
M  V30 9724 H 914.972 -1.92377 -2.27585 0
M  V30 9725 H 912.509 -0.958576 -1.11578 0
M  V30 9726 H 914.467 -0.311594 -4.16035 0
M  V30 9727 H 913.097 0.323044 -3.21179 0
M  V30 9728 H 912.149 -2.09662 -3.17405 0
M  V30 9729 H 913.461 -2.56347 -4.27888 0
M  V30 9730 H 912.615 -0.947152 -5.99261 0
M  V30 9731 H 911.354 -0.378836 -4.86226 0
M  V30 9732 H 910.359 -2.68283 -4.799 0
M  V30 9733 H 911.584 -3.24837 -5.96371 0
M  V30 9734 H 909.53 -1.06298 -6.47331 0
M  V30 9735 H 909.447 -2.68975 -7.06533 0
M  V30 9736 H 910.715 -1.63833 -7.62088 0
M  V30 9737 N 914.944 1.19125 -1.03184 0
M  V30 9738 C 915.854 2.26112 -0.625329 0
M  V30 9739 C 916.87 1.7056 0.344298 0
M  V30 9740 O 918.046 2.0039 0.20144 0
M  V30 9741 C 915.111 3.46697 0.0145169 0
M  V30 9742 C 914.172 4.17419 -1.00299 0
M  V30 9743 C 913.405 5.32247 -0.393581 0
M  V30 9744 O 913.628 5.64724 0.802659 0
M  V30 9745 O 912.562 5.91428 -1.1179 0
M  V30 9746 H 916.388 2.63131 -1.51643 0
M  V30 9747 H 913.973 1.26036 -0.802197 0
M  V30 9748 H 915.855 4.19762 0.371139 0
M  V30 9749 H 914.53 3.11521 0.879581 0
M  V30 9750 H 913.437 3.4646 -1.41125 0
M  V30 9751 H 914.77 4.56573 -1.83852 0
M  V30 9752 N 916.422 0.810101 1.35185 0
M  V30 9753 C 917.385 0.22852 2.28058 0
M  V30 9754 C 918.385 -0.586168 1.49735 0
M  V30 9755 O 919.575 -0.40414 1.69447 0
M  V30 9756 C 916.707 -0.681041 3.34028 0
M  V30 9757 H 917.9 1.04768 2.81005 0
M  V30 9758 H 915.453 0.58101 1.451 0
M  V30 9759 H 916.188 -1.52375 2.86273 0
M  V30 9760 H 915.973 -0.0985276 3.91976 0
M  V30 9761 H 917.463 -1.08217 4.03335 0
M  V30 9762 N 917.9 -1.47166 0.563914 0
M  V30 9763 C 919.147 -2.02456 0.042371 0
M  V30 9764 C 919.475 -1.43753 -1.31016 0
M  V30 9765 O 918.73 -0.585287 -1.86743 0
M  V30 9766 C 919.029 -3.57279 -0.0931797 0
M  V30 9767 C 918.695 -4.34932 1.18933 0
M  V30 9768 C 917.357 -4.55867 1.54073 0
M  V30 9769 C 919.709 -4.79665 2.03889 0
M  V30 9770 C 917.037 -5.18785 2.74005 0
M  V30 9771 C 919.389 -5.43907 3.23029 0
M  V30 9772 C 918.053 -5.63074 3.58475 0
M  V30 9773 H 917.323 -0.740838 0.0155047 0
M  V30 9774 H 919.97 -1.76759 0.736776 0
M  V30 9775 H 918.275 -3.82005 -0.870596 0
M  V30 9776 H 919.972 -3.97716 -0.512176 0
M  V30 9777 H 916.562 -4.18921 0.905718 0
M  V30 9778 H 920.746 -4.63264 1.78046 0
M  V30 9779 H 916.002 -5.31818 3.01628 0
M  V30 9780 H 920.176 -5.77531 3.89141 0
M  V30 9781 H 917.803 -6.11598 4.515 0
M  V30 9782 N 919.378 -0.300708 -1.54705 0
M  V30 9783 C 920.655 0.361757 -1.92226 0
M  V30 9784 C 921.035 1.71714 -1.2279 0
M  V30 9785 O 920.383 2.2559 -0.363542 0
M  V30 9786 C 920.593 0.476699 -3.45729 0
M  V30 9787 C 921.941 0.7477 -4.17965 0
M  V30 9788 O 922.965 0.560521 -3.51762 0
M  V30 9789 O 921.824 1.10724 -5.35166 0
M  V30 9790 H 918.918 0.202213 -0.801897 0
M  V30 9791 H 921.464 -0.348746 -1.66078 0
M  V30 9792 H 920.236 -0.476132 -3.88392 0
M  V30 9793 H 919.859 1.23568 -3.77911 0
M  V30 9794 N 920.856 1.57574 -0.0284266 0
M  V30 9795 C 922.081 1.96479 0.664137 0
M  V30 9796 C 922.506 0.904826 1.64908 0
M  V30 9797 O 921.864 -0.134339 1.80802 0
M  V30 9798 C 921.912 3.34479 1.34745 0
M  V30 9799 O 921.016 3.30794 2.46271 0
M  V30 9800 H 920.357 0.640654 0.174524 0
M  V30 9801 H 922.887 2.04402 -0.0900729 0
M  V30 9802 H 922.897 3.70694 1.7044 0
M  V30 9803 H 921.572 4.1117 0.625468 0
M  V30 9804 H 920.149 3.06294 2.12693 0
M  V30 9805 N 922.334 -0.244713 1.55689 0
M  V30 9806 C 923.562 -0.989944 1.8168 0
M  V30 9807 C 923.977 -1.78863 0.604449 0
M  V30 9808 O 923.334 -1.77437 -0.426907 0
M  V30 9809 C 923.385 -1.92607 3.05916 0
M  V30 9810 O 923.106 -1.1597 4.22472 0
M  V30 9811 C 924.607 -2.78711 3.44724 0
M  V30 9812 H 921.827 -0.2912 0.604519 0
M  V30 9813 H 924.371 -0.266938 2.0275 0
M  V30 9814 H 922.526 -2.60333 2.8689 0
M  V30 9815 H 922.94 -1.79311 4.92898 0
M  V30 9816 H 924.414 -3.40141 4.34751 0
M  V30 9817 H 924.891 -3.49935 2.6541 0
M  V30 9818 H 925.497 -2.16435 3.66109 0
M  V30 9819 N 923.813 -1.49104 -0.510467 0
M  V30 9820 C 925.038 -1.62068 -1.29417 0
M  V30 9821 C 925.463 -0.288432 -1.85875 0
M  V30 9822 O 924.821 0.742667 -1.65391 0
M  V30 9823 C 924.869 -2.68506 -2.40701 0
M  V30 9824 O 923.973 -2.27021 -3.4429 0
M  V30 9825 H 923.314 -0.542778 -0.382476 0
M  V30 9826 H 925.844 -1.95228 -0.612154 0
M  V30 9827 H 925.854 -2.90383 -2.86604 0
M  V30 9828 H 924.529 -3.65216 -1.98973 0
M  V30 9829 H 923.106 -2.15436 -3.04371 0
M  V30 9830 N 925.291 0.760815 -1.38019 0
M  V30 9831 C 926.707 1.06289 -1.19058 0
M  V30 9832 C 926.907 2.01471 -0.0342603 0
M  V30 9833 O 925.963 2.44713 0.62224 0
M  V30 9834 C 927.276 1.6499 -2.51394 0
M  V30 9835 C 928.824 1.77196 -2.58013 0
M  V30 9836 C 929.299 2.3931 -3.90506 0
M  V30 9837 N 930.79 2.46749 -3.92007 0
M  V30 9838 C 931.525 2.95687 -4.91281 0
M  V30 9839 N 931.021 3.44715 -6.00952 0
M  V30 9840 N 932.814 2.94661 -4.78677 0
M  V30 9841 H 924.965 0.129045 -2.12008 0
M  V30 9842 H 927.228 0.119878 -0.94039 0
M  V30 9843 H 926.934 1.0252 -3.36426 0
M  V30 9844 H 926.808 2.64146 -2.6927 0
M  V30 9845 H 929.195 2.38796 -1.7338 0
M  V30 9846 H 929.276 0.767645 -2.4401 0
M  V30 9847 H 928.92 1.78346 -4.75558 0
M  V30 9848 H 928.85 3.40369 -4.01817 0
M  V30 9849 H 931.341 2.12064 -3.12789 0
M  V30 9850 H 931.654 3.80492 -6.72641 0
M  V30 9851 H 929.999 3.42791 -6.04582 0
M  V30 9852 H 933.19 2.55665 -3.92113 0
M  V30 9853 H 933.363 3.32489 -5.56197 0
M  V30 9854 N 926.769 1.22769 0.988202 0
M  V30 9855 C 928.016 1.05509 1.72841 0
M  V30 9856 C 928.344 -0.409145 1.90148 0
M  V30 9857 O 927.599 -1.3195 1.44526 0
M  V30 9858 C 927.898 1.71679 3.13466 0
M  V30 9859 C 927.564 3.21584 3.16061 0
M  V30 9860 C 926.226 3.62486 3.16476 0
M  V30 9861 C 928.578 4.17511 3.11984 0
M  V30 9862 C 925.906 4.97789 3.10521 0
M  V30 9863 C 928.258 5.52796 3.0757 0
M  V30 9864 C 926.922 5.93072 3.06304 0
M  V30 9865 H 926.192 0.386085 0.632471 0
M  V30 9866 H 928.839 1.52596 1.157 0
M  V30 9867 H 927.144 1.1693 3.73945 0
M  V30 9868 H 928.841 1.55809 3.69492 0
M  V30 9869 H 925.431 2.89019 3.1649 0
M  V30 9870 H 929.615 3.86926 3.10809 0
M  V30 9871 H 924.871 5.28218 3.07888 0
M  V30 9872 H 929.045 6.26848 3.03372 0
M  V30 9873 H 926.672 6.97879 3.01444 0
M  V30 9874 N 928.247 -1.18576 1.03814 0
M  V30 9875 C 929.21 -2.2033 0.63146 0
M  V30 9876 C 930.21 -1.57787 -0.309816 0
M  V30 9877 O 931.4 -1.73938 -0.0955598 0
M  V30 9878 C 928.532 -3.40818 -0.0745963 0
M  V30 9879 H 929.725 -2.57824 1.53189 0
M  V30 9880 H 927.278 -1.32416 0.830398 0
M  V30 9881 H 928.013 -3.08853 -0.988947 0
M  V30 9882 H 927.798 -3.87453 0.6019 0
M  V30 9883 H 929.288 -4.16166 -0.345727 0
M  V30 9884 N 929.725 -0.817259 -1.34754 0
M  V30 9885 C 931.141 -0.502309 -1.51489 0
M  V30 9886 C 931.341 0.974568 -1.76364 0
M  V30 9887 O 930.397 1.75924 -1.81127 0
M  V30 9888 C 931.71 -1.35693 -2.68343 0
M  V30 9889 C 933.258 -1.35347 -2.82224 0
M  V30 9890 C 933.733 -2.19244 -4.02114 0
M  V30 9891 N 935.224 -2.16837 -4.09311 0
M  V30 9892 C 935.959 -2.78505 -5.01221 0
M  V30 9893 N 935.455 -3.4914 -5.98392 0
M  V30 9894 N 937.248 -2.68089 -4.94049 0
M  V30 9895 H 929.399 -1.77359 -1.16866 0
M  V30 9896 H 931.662 -0.755476 -0.572678 0
M  V30 9897 H 931.368 -2.40548 -2.56573 0
M  V30 9898 H 931.242 -1.01764 -3.63213 0
M  V30 9899 H 933.629 -0.312727 -2.93438 0
M  V30 9900 H 933.71 -1.7327 -1.88179 0
M  V30 9901 H 933.354 -3.23365 -3.9166 0
M  V30 9902 H 933.284 -1.78675 -4.95361 0
M  V30 9903 H 935.775 -1.65452 -3.39756 0
M  V30 9904 H 936.088 -3.93455 -6.65141 0
M  V30 9905 H 934.433 -3.53246 -5.98533 0
M  V30 9906 H 937.624 -2.12485 -4.17094 0
M  V30 9907 H 937.797 -3.16436 -5.65484 0
M  V30 9908 N 931.203 1.46865 -0.571711 0
M  V30 9909 C 932.133 2.3298 0.155795 0
M  V30 9910 C 933.114 1.44678 0.894553 0
M  V30 9911 O 934.299 1.73513 0.872176 0
M  V30 9912 C 931.429 3.26745 1.17708 0
M  V30 9913 C 930.383 4.24401 0.553863 0
M  V30 9914 C 929.709 5.07595 1.68083 0
M  V30 9915 C 931.009 5.19884 -0.501827 0
M  V30 9916 H 932.703 2.94056 -0.563176 0
M  V30 9917 H 930.249 1.41402 -0.27228 0
M  V30 9918 H 932.202 3.85838 1.6943 0
M  V30 9919 H 930.926 2.63753 1.92618 0
M  V30 9920 H 929.585 3.66554 0.057815 0
M  V30 9921 H 929.233 4.40996 2.41933 0
M  V30 9922 H 928.933 5.73722 1.26953 0
M  V30 9923 H 930.457 5.6955 2.20103 0
M  V30 9924 H 931.871 5.73257 -0.0701057 0
M  V30 9925 H 930.268 5.94293 -0.832815 0
M  V30 9926 H 931.338 4.64482 -1.39229 0
M  V30 9927 N 932.681 0.308908 1.54543 0
M  V30 9928 C 933.613 -0.597453 2.21276 0
M  V30 9929 C 934.626 -1.09137 1.20801 0
M  V30 9930 O 935.815 -1.00747 1.47351 0
M  V30 9931 C 932.915 -1.83085 2.85189 0
M  V30 9932 C 932.088 -1.4781 4.11669 0
M  V30 9933 C 931.147 -2.56748 4.59311 0
M  V30 9934 O 930.173 -2.21507 5.24331 0
M  V30 9935 N 931.375 -3.87427 4.32297 0
M  V30 9936 H 934.14 -0.0261183 2.99689 0
M  V30 9937 H 931.701 0.131456 1.61365 0
M  V30 9938 H 933.693 -2.55326 3.13992 0
M  V30 9939 H 932.263 -2.31039 2.1057 0
M  V30 9940 H 931.483 -0.587974 3.8979 0
M  V30 9941 H 932.771 -1.2179 4.94009 0
M  V30 9942 H 932.169 -4.18863 3.80224 0
M  V30 9943 H 930.726 -4.55942 4.6579 0
M  V30 9944 N 934.159 -1.57557 0.0367827 0
M  V30 9945 C 935.106 -2.10679 -0.942499 0
M  V30 9946 C 936.076 -1.01068 -1.31812 0
M  V30 9947 O 937.261 -1.28533 -1.41011 0
M  V30 9948 C 934.401 -2.64467 -2.21701 0
M  V30 9949 C 933.514 -3.88114 -1.89715 0
M  V30 9950 C 932.649 -4.30268 -3.11518 0
M  V30 9951 C 931.688 -5.46652 -2.75387 0
M  V30 9952 N 930.825 -5.83927 -3.89838 0
M  V30 9953 H 935.665 -2.94066 -0.482588 0
M  V30 9954 H 933.202 -1.45344 -0.226597 0
M  V30 9955 H 935.16 -2.93745 -2.96259 0
M  V30 9956 H 933.79 -1.83898 -2.65295 0
M  V30 9957 H 932.842 -3.65516 -1.05366 0
M  V30 9958 H 934.154 -4.72743 -1.5911 0
M  V30 9959 H 933.308 -4.61023 -3.94389 0
M  V30 9960 H 932.047 -3.44421 -3.4529 0
M  V30 9961 H 931.052 -5.15583 -1.90929 0
M  V30 9962 H 932.277 -6.34204 -2.42822 0
M  V30 9963 H 930.223 -5.01035 -4.23438 0
M  V30 9964 H 930.14 -6.63214 -3.62883 0
M  V30 9965 H 931.408 -6.19291 -4.73391 0
M  V30 9966 N 935.637 0.236453 -1.55816 0
M  V30 9967 C 936.567 1.29639 -1.94206 0
M  V30 9968 C 937.548 1.49667 -0.808319 0
M  V30 9969 O 938.733 1.621 -1.06945 0
M  V30 9970 C 935.863 2.64914 -2.24584 0
M  V30 9971 C 934.817 2.59565 -3.40308 0
M  V30 9972 C 934.143 3.98732 -3.56254 0
M  V30 9973 C 935.443 2.15642 -4.75706 0
M  V30 9974 H 937.137 0.977552 -2.82992 0
M  V30 9975 H 934.683 0.468804 -1.36155 0
M  V30 9976 H 936.636 3.39209 -2.50031 0
M  V30 9977 H 935.36 2.98455 -1.32636 0
M  V30 9978 H 934.019 1.87728 -3.14887 0
M  V30 9979 H 933.667 4.29556 -2.61707 0
M  V30 9980 H 933.367 3.96039 -4.34082 0
M  V30 9981 H 934.891 4.74711 -3.84033 0
M  V30 9982 H 936.305 2.79673 -5.00456 0
M  V30 9983 H 934.702 2.24039 -5.56711 0
M  V30 9984 H 935.772 1.10831 -4.72064 0
M  V30 9985 N 937.115 1.49373 0.502552 0
M  V30 9986 C 938.065 1.62321 1.60112 0
M  V30 9987 C 939.049 0.47895 1.53606 0
M  V30 9988 O 940.241 0.731824 1.61162 0
M  V30 9989 C 937.37 1.69162 2.98729 0
M  V30 9990 C 936.456 2.89161 3.10237 0
M  V30 9991 N 936.847 4.13256 2.91638 0
M  V30 9992 C 935.145 2.87065 3.41335 0
M  V30 9993 C 935.846 4.93913 3.07287 0
M  V30 9994 N 934.822 4.27249 3.36094 0
M  V30 9995 H 938.624 2.55989 1.44384 0
M  V30 9996 H 936.138 1.46123 0.708644 0
M  V30 9997 H 938.135 1.76536 3.77678 0
M  V30 9998 H 936.795 0.766301 3.15528 0
M  V30 9999 H 937.806 4.4326 2.67844 0
M  V30 10000 H 934.483 2.03905 3.6432 0
M  V30 10001 H 935.873 6.02491 2.97413 0
M  V30 10002 N 938.594 -0.753485 1.38421 0
M  V30 10003 C 939.822 -1.54272 1.37868 0
M  V30 10004 C 940.237 -1.88774 -0.0315155 0
M  V30 10005 O 939.594 -1.52785 -0.998148 0
M  V30 10006 C 939.645 -2.84179 2.23438 0
M  V30 10007 O 939.366 -2.51149 3.58965 0
M  V30 10008 C 940.867 -3.78316 2.31067 0
M  V30 10009 H 938.087 -0.47735 0.47157 0
M  V30 10010 H 940.631 -0.932509 1.82001 0
M  V30 10011 H 938.786 -3.41577 1.82767 0
M  V30 10012 H 939.2 -3.34466 4.04021 0
M  V30 10013 H 940.674 -4.66418 2.95226 0
M  V30 10014 H 941.151 -4.18757 1.32436 0
M  V30 10015 H 941.757 -3.26842 2.72129 0
M  V30 10016 N 940.072 -1.23292 -0.981677 0
M  V30 10017 C 941.297 -1.09176 -1.76339 0
M  V30 10018 C 941.722 0.352726 -1.84763 0
M  V30 10019 O 941.08 1.25509 -1.30832 0
M  V30 10020 C 941.128 -1.72046 -3.16911 0
M  V30 10021 O 940.232 -0.98174 -4.00544 0
M  V30 10022 H 939.573 -0.382755 -0.542581 0
M  V30 10023 H 942.103 -1.63319 -1.23239 0
M  V30 10024 H 942.113 -1.77232 -3.67495 0
M  V30 10025 H 940.788 -2.77154 -3.10095 0
M  V30 10026 H 939.365 -1.00672 -3.59054 0
M  V30 10027 N 941.55 1.18024 -1.04442 0
M  V30 10028 C 942.799 1.8743 -0.745185 0
M  V30 10029 C 943.112 1.81459 0.730206 0
M  V30 10030 O 944.318 2.46263 1.1431 0
M  V30 10031 C 942.774 3.36266 -1.28271 0
M  V30 10032 C 942.382 3.50757 -2.787 0
M  V30 10033 C 944.126 4.11048 -1.06018 0
M  V30 10034 C 942.033 4.93573 -3.25791 0
M  V30 10035 H 940.963 0.702038 -0.27506 0
M  V30 10036 H 943.614 1.33333 -1.26073 0
M  V30 10037 H 941.996 3.89853 -0.695002 0
M  V30 10038 H 943.17 3.07423 -3.43261 0
M  V30 10039 H 941.485 2.89385 -2.99408 0
M  V30 10040 H 944.082 5.16395 -1.38711 0
M  V30 10041 H 944.425 4.163 0.00241716 0
M  V30 10042 H 944.958 3.63644 -1.61269 0
M  V30 10043 H 941.697 4.93491 -4.31447 0
M  V30 10044 H 941.217 5.37607 -2.65968 0
M  V30 10045 H 942.896 5.62307 -3.20031 0
M  V30 10046 N 943.028 0.824394 1.34319 0
M  V30 10047 C 943.991 0.252696 2.27803 0
M  V30 10048 C 944.991 -0.570254 1.50349 0
M  V30 10049 O 946.181 -0.386145 1.69866 0
M  V30 10050 C 943.313 -0.645575 3.34731 0
M  V30 10051 H 944.506 1.07742 2.79878 0
M  V30 10052 H 942.059 0.596367 1.44475 0
M  V30 10053 H 942.794 -1.4933 2.87873 0
M  V30 10054 H 942.579 -0.0569478 3.92059 0
M  V30 10055 H 944.069 -1.03933 4.0446 0
M  V30 10056 N 944.506 -1.46559 0.579492 0
M  V30 10057 C 945.754 -2.02 0.0637157 0
M  V30 10058 C 946.075 -1.45378 -1.29962 0
M  V30 10059 O 945.345 -0.637262 -1.85245 0
M  V30 10060 H 943.925 -0.746717 0.0205638 0
M  V30 10061 H 946.587 -1.79702 0.754544 0
M  V30 10062 H 945.683 -3.12099 -0.00770254 0
M  V30 10063 N 945.984 -0.3171 -1.54377 0
M  V30 10064 C 947.4 0.035766 -1.5956 0
M  V30 10065 C 947.6 1.51038 -1.33378 0
M  V30 10066 O 946.656 2.26546 -1.11505 0
M  V30 10067 C 947.969 -0.376652 -2.98332 0
M  V30 10068 C 949.517 -0.326765 -3.1129 0
M  V30 10069 C 949.992 -0.714247 -4.52396 0
M  V30 10070 N 951.483 -0.667402 -4.58367 0
M  V30 10071 C 952.218 -0.939494 -5.65651 0
M  V30 10072 N 951.714 -1.27839 -6.80903 0
M  V30 10073 N 953.507 -0.865484 -5.55397 0
M  V30 10074 H 945.658 -1.27794 -1.69654 0
M  V30 10075 H 947.921 -0.5192 -0.79318 0
M  V30 10076 H 947.627 -1.40381 -3.22469 0
M  V30 10077 H 947.501 0.261611 -3.76292 0
M  V30 10078 H 949.888 0.69117 -2.86892 0
M  V30 10079 H 949.969 -0.999873 -2.35449 0
M  V30 10080 H 949.613 -1.73007 -4.77526 0
M  V30 10081 H 949.543 -0.0188962 -5.26597 0
M  V30 10082 H 952.034 -0.417062 -3.75592 0
M  V30 10083 H 952.347 -1.47155 -7.5866 0
M  V30 10084 H 950.692 -1.31658 -6.82416 0
M  V30 10085 H 953.883 -0.600265 -4.64235 0
M  V30 10086 H 954.056 -1.0809 -6.38921 0
M  V30 10087 N 947.462 1.57535 -0.0451378 0
M  V30 10088 C 948.41 2.12351 0.949205 0
M  V30 10089 C 949.404 1.05386 1.32628 0
M  V30 10090 O 950.61 1.23802 1.30664 0
M  V30 10091 H 946.985 0.678648 0.323945 0
M  V30 10092 H 948.956 2.94806 0.461718 0
M  V30 10093 C 947.705 2.67862 2.21687 0
M  V30 10094 H 947.028 3.49826 1.93551 0
M  V30 10095 H 948.468 3.09844 2.89435 0
M  V30 10096 C 946.927 1.61353 2.95748 0
M  V30 10097 O 947.457 1.02276 3.88462 0
M  V30 10098 N 945.663 1.33017 2.5837 0
M  V30 10099 H 945.21 1.81246 1.83051 0
M  V30 10100 H 945.168 0.619812 3.0823 0
M  V30 10101 N 948.94 -0.228186 1.55939 0
M  V30 10102 C 949.87 -1.28607 1.94891 0
M  V30 10103 C 950.851 -1.49236 0.816245 0
M  V30 10104 O 952.036 -1.61531 1.07803 0
M  V30 10105 C 949.166 -2.63719 2.25986 0
M  V30 10106 C 948.12 -2.57757 3.4168 0
M  V30 10107 C 947.446 -3.96837 3.58364 0
M  V30 10108 C 948.746 -2.13116 4.76843 0
M  V30 10109 H 950.44 -0.962531 2.83506 0
M  V30 10110 H 947.986 -0.461577 1.36402 0
M  V30 10111 H 949.939 -3.37878 2.51826 0
M  V30 10112 H 948.663 -2.97747 1.34217 0
M  V30 10113 H 947.322 -1.86055 3.15878 0
M  V30 10114 H 946.97 -4.28162 2.63982 0
M  V30 10115 H 946.67 -3.93731 4.36176 0
M  V30 10116 H 948.194 -4.72668 3.86545 0
M  V30 10117 H 949.608 -2.77015 5.01932 0
M  V30 10118 H 948.005 -2.21083 5.57891 0
M  V30 10119 H 949.075 -1.08326 4.72645 0
M  V30 10120 N 950.418 -1.49637 -0.494624 0
M  V30 10121 C 951.648 -1.62928 -1.27036 0
M  V30 10122 C 952.056 -0.302464 -1.86767 0
M  V30 10123 O 951.399 0.722878 -1.68879 0
M  V30 10124 C 951.461 -2.64449 -2.43531 0
M  V30 10125 C 951.125 -4.08632 -2.0462 0
M  V30 10126 C 952.122 -4.95238 -1.58225 0
M  V30 10127 C 949.807 -4.54405 -2.1406 0
M  V30 10128 C 951.801 -6.25658 -1.21782 0
M  V30 10129 C 949.488 -5.84836 -1.77228 0
M  V30 10130 C 950.486 -6.70287 -1.31165 0
M  V30 10131 O 950.174 -7.98287 -0.948339 0
M  V30 10132 H 949.906 -0.551263 -0.391261 0
M  V30 10133 H 952.46 -1.96453 -0.599621 0
M  V30 10134 H 950.69 -2.26117 -3.137 0
M  V30 10135 H 952.379 -2.67203 -3.05545 0
M  V30 10136 H 953.145 -4.611 -1.50373 0
M  V30 10137 H 949.024 -3.88056 -2.48865 0
M  V30 10138 H 952.568 -6.92309 -0.857566 0
M  V30 10139 H 948.465 -6.18502 -1.84732 0
M  V30 10140 H 949.233 -8.11353 -1.07925 0
M  V30 10141 N 951.896 0.746133 -1.38819 0
M  V30 10142 C 953.145 1.50085 -1.34749 0
M  V30 10143 C 953.458 1.95516 0.0574786 0
M  V30 10144 O 954.664 2.70601 0.22073 0
M  V30 10145 C 953.12 2.71141 -2.36665 0
M  V30 10146 C 952.728 2.32706 -3.82821 0
M  V30 10147 C 954.472 3.49005 -2.41652 0
M  V30 10148 C 952.379 3.50418 -4.76405 0
M  V30 10149 H 951.309 0.563563 -0.500912 0
M  V30 10150 H 953.96 0.814951 -1.6441 0
M  V30 10151 H 952.342 3.4175 -2.00058 0
M  V30 10152 H 953.516 1.69715 -4.28408 0
M  V30 10153 H 951.831 1.67959 -3.81023 0
M  V30 10154 H 954.428 4.36541 -3.08766 0
M  V30 10155 H 954.771 3.90687 -1.43769 0
M  V30 10156 H 955.304 2.85416 -2.77097 0
M  V30 10157 H 952.043 3.13795 -5.75511 0
M  V30 10158 H 951.563 4.12426 -4.35505 0
M  V30 10159 H 953.242 4.16901 -4.94775 0
M  V30 10160 N 953.375 1.23811 0.975125 0
M  V30 10161 C 954.791 1.0019 1.24234 0
M  V30 10162 C 954.991 -0.293811 1.99346 0
M  V30 10163 O 954.047 -1.01189 2.31337 0
M  V30 10164 C 955.36 2.21218 2.03674 0
M  V30 10165 C 956.908 2.25764 2.16793 0
M  V30 10166 C 957.383 3.46394 2.99626 0
M  V30 10167 N 958.874 3.46665 3.07209 0
M  V30 10168 C 959.609 4.3666 3.71639 0
M  V30 10169 N 959.105 5.36899 4.37849 0
M  V30 10170 N 960.898 4.2439 3.68578 0
M  V30 10171 H 953.049 2.07087 0.472076 0
M  V30 10172 H 955.312 0.90838 0.271201 0
M  V30 10173 H 955.018 3.15277 1.55862 0
M  V30 10174 H 954.892 2.22733 3.04417 0
M  V30 10175 H 957.279 1.32242 2.63811 0
M  V30 10176 H 957.36 2.28279 1.15422 0
M  V30 10177 H 957.004 4.40227 2.53304 0
M  V30 10178 H 956.934 3.41121 4.01178 0
M  V30 10179 H 959.425 2.74142 2.60105 0
M  V30 10180 H 959.738 6.01816 4.84807 0
M  V30 10181 H 958.083 5.40793 4.36541 0
M  V30 10182 H 961.274 3.4532 3.16025 0
M  V30 10183 H 961.447 4.94727 4.18508 0
M  V30 10184 N 954.853 -1.17469 1.05066 0
M  V30 10185 C 956.1 -1.87698 0.759987 0
M  V30 10186 C 956.428 -1.80964 -0.712902 0
M  V30 10187 O 955.683 -1.21146 -1.53695 0
M  V30 10188 C 955.982 -3.37211 1.18421 0
M  V30 10189 C 955.648 -3.64148 2.65909 0
M  V30 10190 C 954.31 -3.71209 3.06199 0
M  V30 10191 C 956.662 -3.75724 3.61222 0
M  V30 10192 C 953.99 -3.87334 4.40669 0
M  V30 10193 C 956.342 -3.93368 4.95424 0
M  V30 10194 C 955.006 -3.98667 5.3537 0
M  V30 10195 H 954.276 -0.686835 0.278099 0
M  V30 10196 H 956.923 -1.38975 1.31751 0
M  V30 10197 H 955.228 -3.87982 0.545654 0
M  V30 10198 H 956.925 -3.89911 0.936518 0
M  V30 10199 H 953.515 -3.59276 2.33707 0
M  V30 10200 H 957.699 -3.69591 3.31235 0
M  V30 10201 H 952.955 -3.89685 4.71122 0
M  V30 10202 H 957.129 -4.01267 5.69173 0
M  V30 10203 H 954.756 -4.10915 6.39572 0
M  V30 10204 N 956.331 -0.831506 -1.3388 0
M  V30 10205 C 957.263 -0.216908 -2.28171 0
M  V30 10206 C 958.276 0.598141 -1.51414 0
M  V30 10207 O 959.465 0.426416 -1.73332 0
M  V30 10208 C 956.565 0.713831 -3.31297 0
M  V30 10209 C 955.738 -0.0602673 -4.37358 0
M  V30 10210 C 954.797 0.792696 -5.20195 0
M  V30 10211 O 953.823 0.234564 -5.68716 0
M  V30 10212 N 955.025 2.11119 -5.40748 0
M  V30 10213 H 957.79 -1.02704 -2.81553 0
M  V30 10214 H 955.351 -0.689272 -1.46495 0
M  V30 10215 H 957.343 1.28925 -3.83615 0
M  V30 10216 H 955.913 1.42469 -2.78247 0
M  V30 10217 H 955.133 -0.817041 -3.8564 0
M  V30 10218 H 956.421 -0.592822 -5.05335 0
M  V30 10219 H 955.819 2.58828 -5.03016 0
M  V30 10220 H 954.376 2.63527 -5.96151 0
M  V30 10221 N 957.809 1.4625 -0.587256 0
M  V30 10222 C 959.034 2.07252 -0.0784517 0
M  V30 10223 C 959.459 1.43239 1.21919 0
M  V30 10224 O 958.817 0.517791 1.73749 0
M  V30 10225 C 958.865 3.60534 0.0691037 0
M  V30 10226 O 957.969 3.96773 1.12448 0
M  V30 10227 H 957.31 0.660825 -0.064859 0
M  V30 10228 H 959.84 1.87819 -0.811491 0
M  V30 10229 H 959.85 4.0708 0.273826 0
M  V30 10230 H 958.525 4.06516 -0.878514 0
M  V30 10231 H 957.102 3.6193 0.897852 0
M  V30 10232 N 959.287 0.325282 1.54207 0
M  V30 10233 C 960.703 -0.0273036 1.59577 0
M  V30 10234 C 960.903 -1.50329 1.34177 0
M  V30 10235 O 959.959 -2.25951 1.12705 0
M  V30 10236 C 961.272 0.392468 2.98128 0
M  V30 10237 C 962.82 0.343269 3.11112 0
M  V30 10238 C 963.295 0.738229 4.52011 0
M  V30 10239 N 964.786 0.691701 4.58006 0
M  V30 10240 C 965.521 0.969479 5.65145 0
M  V30 10241 N 965.017 1.31448 6.80216 0
M  V30 10242 N 966.81 0.894926 5.5493 0
M  V30 10243 H 958.961 1.28692 1.68974 0
M  V30 10244 H 961.224 0.523399 0.790416 0
M  V30 10245 H 960.93 1.42089 3.2172 0
M  V30 10246 H 960.804 -0.241651 3.76425 0
M  V30 10247 H 963.191 -0.675946 2.87254 0
M  V30 10248 H 963.272 1.01235 2.34915 0
M  V30 10249 H 962.916 1.75537 4.76602 0
M  V30 10250 H 962.846 0.0468226 5.26579 0
M  V30 10251 H 965.337 0.436975 3.75365 0
M  V30 10252 H 965.65 1.51177 7.57869 0
M  V30 10253 H 963.995 1.35276 6.81708 0
M  V30 10254 H 967.186 0.624876 4.6391 0
M  V30 10255 H 967.359 1.11476 6.38339 0
M  V30 10256 N 960.765 -1.57509 0.0534917 0
M  V30 10257 C 961.99 -1.97511 -0.632794 0
M  V30 10258 C 962.415 -0.930947 -1.63447 0
M  V30 10259 O 961.773 0.105558 -1.80992 0
M  V30 10260 C 961.821 -3.3658 -1.29407 0
M  V30 10261 O 960.925 -3.3467 -2.40977 0
M  V30 10262 H 960.266 -0.643349 -0.16431 0
M  V30 10263 H 962.796 -2.04232 0.12258 0
M  V30 10264 H 962.806 -3.73359 -1.64521 0
M  V30 10265 H 961.481 -4.12113 -0.559976 0
M  V30 10266 H 960.058 -3.09639 -2.07793 0
M  V30 10267 N 962.243 0.219913 -1.56058 0
M  V30 10268 C 963.491 0.942199 -1.78793 0
M  V30 10269 C 963.812 1.84804 -0.622284 0
M  V30 10270 O 963.082 1.9255 0.360735 0
M  V30 10271 H 961.662 0.350895 -0.659455 0
M  V30 10272 H 964.324 0.231376 -1.93522 0
M  V30 10273 H 963.42 1.54804 -2.71002 0
M  V30 10274 N 963.721 1.49897 0.486681 0
M  V30 10275 C 964.998 1.50614 1.24799 0
M  V30 10276 C 965.378 0.24193 2.09709 0
M  V30 10277 O 964.726 -0.775237 2.14947 0
M  V30 10278 C 964.936 2.79318 2.09243 0
M  V30 10279 C 966.284 3.29371 2.67955 0
M  V30 10280 O 967.308 2.80533 2.19499 0
M  V30 10281 O 966.167 4.14466 3.56202 0
M  V30 10282 H 963.261 0.603447 0.565491 0
M  V30 10283 H 965.807 1.62174 0.499778 0
M  V30 10284 H 964.579 3.62812 1.46572 0
M  V30 10285 H 964.202 2.70687 2.91229 0
M  V30 10286 N 965.199 -0.738761 1.39212 0
M  V30 10287 C 966.162 -1.83441 1.37412 0
M  V30 10288 C 967.162 -1.58484 0.271908 0
M  V30 10289 O 968.352 -1.65954 0.529609 0
M  V30 10290 C 965.484 -3.21167 1.143 0
M  V30 10291 H 966.677 -1.86441 2.34904 0
M  V30 10292 H 964.23 -0.942023 1.24722 0
M  V30 10293 H 964.965 -3.23829 0.174756 0
M  V30 10294 H 964.75 -3.40678 1.94116 0
M  V30 10295 H 966.24 -4.01231 1.15773 0
M  V30 10296 N 966.677 -1.24326 -0.968545 0
M  V30 10297 C 967.61 -0.978121 -2.06175 0
M  V30 10298 C 968.588 0.0878107 -1.62363 0
M  V30 10299 O 969.772 -0.0489472 -1.88436 0
M  V30 10300 C 966.899 -0.475884 -3.3534 0
M  V30 10301 C 965.945 -1.53023 -3.98103 0
M  V30 10302 S 966.778 -3.11131 -4.35841 0
M  V30 10303 C 967.934 -2.62608 -5.68144 0
M  V30 10304 H 968.167 -1.9038 -2.28348 0
M  V30 10305 H 965.7 -1.07701 -1.10633 0
M  V30 10306 H 967.658 -0.192739 -4.10047 0
M  V30 10307 H 966.319 0.429067 -3.11156 0
M  V30 10308 H 965.512 -1.12922 -4.91187 0
M  V30 10309 H 965.114 -1.76334 -3.29822 0
M  V30 10310 H 967.406 -2.05367 -6.45624 0
M  V30 10311 H 968.349 -3.54277 -6.13101 0
M  V30 10312 H 968.757 -2.03063 -5.26712 0
M  V30 10313 N 968.156 1.1691 -1.05688 0
M  V30 10314 C 969.404 1.86922 -0.768409 0
M  V30 10315 C 969.725 1.81735 0.706921 0
M  V30 10316 O 968.995 1.24671 1.51109 0
M  V30 10317 H 967.575 0.69203 -0.281253 0
M  V30 10318 H 970.237 1.41803 -1.33708 0
M  V30 10319 H 969.333 2.92528 -1.08783 0
M  V30 10320 N 969.634 0.838594 1.33437 0
M  V30 10321 C 970.567 0.216651 2.27169 0
M  V30 10322 C 971.545 -0.636065 1.49643 0
M  V30 10323 O 972.729 -0.596388 1.78817 0
M  V30 10324 C 969.856 -0.69584 3.31475 0
M  V30 10325 C 968.902 0.0813808 4.26422 0
M  V30 10326 S 969.735 1.43909 5.15801 0
M  V30 10327 C 970.891 0.531887 6.23636 0
M  V30 10328 H 971.124 1.01128 2.79572 0
M  V30 10329 H 968.657 0.635332 1.40723 0
M  V30 10330 H 970.615 -1.21671 3.92054 0
M  V30 10331 H 969.276 -1.46413 2.77888 0
M  V30 10332 H 968.469 -0.612944 5.00259 0
M  V30 10333 H 968.071 0.533304 3.70178 0
M  V30 10334 H 970.363 -0.270371 6.7696 0
M  V30 10335 H 971.306 1.24041 6.97151 0
M  V30 10336 H 971.714 0.113357 5.64386 0
M  V30 10337 N 971.112 -1.45937 0.595003 0
M  V30 10338 C 972.06 -2.32155 -0.143798 0
M  V30 10339 C 973.054 -1.45221 -0.872198 0
M  V30 10340 O 974.26 -1.61777 -0.789191 0
M  V30 10341 H 970.635 -0.749165 -0.0652377 0
M  V30 10342 H 972.606 -2.92264 0.602005 0
M  V30 10343 C 971.355 -3.28615 -1.13611 0
M  V30 10344 H 970.678 -3.95496 -0.585044 0
M  V30 10345 H 972.118 -3.91699 -1.62321 0
M  V30 10346 C 970.577 -2.54863 -2.20333 0
M  V30 10347 O 971.107 -2.32071 -3.27881 0
M  V30 10348 N 969.313 -2.15213 -1.95274 0
M  V30 10349 H 968.86 -2.33949 -1.07822 0
M  V30 10350 H 968.818 -1.66188 -2.66888 0
M  V30 10351 N 972.59 -0.333456 -1.54032 0
M  V30 10352 C 973.523 0.570776 -2.20947 0
M  V30 10353 C 974.501 1.10811 -1.18994 0
M  V30 10354 O 975.685 1.17027 -1.47773 0
M  V30 10355 C 972.812 1.7842 -2.87896 0
M  V30 10356 C 971.858 1.37722 -4.03652 0
M  V30 10357 S 972.691 0.405548 -5.33962 0
M  V30 10358 C 973.847 1.62603 -6.0441 0
M  V30 10359 H 974.08 0.0023936 -2.973 0
M  V30 10360 H 971.613 -0.117531 -1.53952 0
M  V30 10361 H 973.571 2.48038 -3.27089 0
M  V30 10362 H 972.232 2.32378 -2.11327 0
M  V30 10363 H 971.425 2.28167 -4.49395 0
M  V30 10364 H 971.027 0.760628 -3.66184 0
M  V30 10365 H 973.319 2.56202 -6.2719 0
M  V30 10366 H 974.262 1.21058 -6.97675 0
M  V30 10367 H 974.67 1.8175 -5.34441 0
M  V30 10368 N 974.068 1.57479 -0.061844 0
M  V30 10369 C 975.317 1.92285 0.609055 0
M  V30 10370 C 975.63 0.942983 1.71369 0
M  V30 10371 O 976.836 1.18349 2.44348 0
M  V30 10372 C 975.292 3.41545 1.13468 0
M  V30 10373 C 974.9 4.47958 0.0615926 0
M  V30 10374 C 976.644 3.85368 1.78022 0
M  V30 10375 C 974.551 5.88341 0.600705 0
M  V30 10376 H 973.481 0.717656 0.23127 0
M  V30 10377 H 976.132 1.83021 -0.132466 0
M  V30 10378 H 974.514 3.45848 1.92886 0
M  V30 10379 H 975.688 4.55258 -0.712527 0
M  V30 10380 H 974.003 4.13541 -0.487116 0
M  V30 10381 H 976.6 4.87627 2.19371 0
M  V30 10382 H 976.943 3.22193 2.63623 0
M  V30 10383 H 977.476 3.83626 1.05242 0
M  V30 10384 H 974.215 6.55138 -0.217922 0
M  V30 10385 H 973.735 5.84581 1.34257 0
M  V30 10386 H 975.414 6.37918 1.08025 0
M  V30 10387 N 975.546 -0.211634 1.56173 0
M  V30 10388 C 976.771 -0.955324 1.84088 0
M  V30 10389 C 977.196 -1.76754 0.643407 0
M  V30 10390 O 976.554 -1.76653 -0.407842 0
M  V30 10391 C 976.602 -1.84063 3.10085 0
M  V30 10392 O 975.706 -2.9373 2.89476 0
M  V30 10393 H 975.047 -0.26996 0.606645 0
M  V30 10394 H 977.577 -0.221947 2.03393 0
M  V30 10395 H 977.587 -2.24852 3.40449 0
M  V30 10396 H 976.262 -1.24373 3.96868 0
M  V30 10397 H 974.839 -2.56816 2.7037 0
M  V30 10398 N 977.024 -1.50153 -0.478725 0
M  V30 10399 C 977.971 -1.68458 -1.57767 0
M  V30 10400 C 978.941 -0.5259 -1.57555 0
M  V30 10401 O 980.126 -0.755574 -1.75202 0
M  V30 10402 C 977.266 -1.77772 -2.95789 0
M  V30 10403 C 976.379 -3.05092 -3.05848 0
M  V30 10404 C 975.514 -3.05247 -4.34739 0
M  V30 10405 C 974.553 -4.27053 -4.38512 0
M  V30 10406 N 973.69 -4.24991 -5.58862 0
M  V30 10407 H 978.53 -2.62282 -1.41464 0
M  V30 10408 H 976.067 -1.30023 -0.687921 0
M  V30 10409 H 978.025 -1.81152 -3.75819 0
M  V30 10410 H 976.655 -0.873944 -3.10744 0
M  V30 10411 H 975.707 -3.11219 -2.1874 0
M  V30 10412 H 977.019 -3.95075 -3.04495 0
M  V30 10413 H 976.173 -3.07314 -5.23109 0
M  V30 10414 H 974.912 -2.13081 -4.38689 0
M  V30 10415 H 973.917 -4.25206 -3.4854 0
M  V30 10416 H 975.142 -5.20437 -4.36259 0
M  V30 10417 H 973.088 -3.35674 -5.63612 0
M  V30 10418 H 973.005 -5.08734 -5.59219 0
M  V30 10419 H 974.273 -4.31193 -6.49379 0
M  V30 10420 N 978.502 0.731368 -1.39602 0
M  V30 10421 C 979.75 1.48805 -1.36753 0
M  V30 10422 C 980.071 1.94969 0.034676 0
M  V30 10423 O 979.341 1.69243 0.986591 0
M  V30 10424 H 977.921 0.55203 -0.503261 0
M  V30 10425 H 980.583 0.868013 -1.74504 0
M  V30 10426 H 979.679 2.36844 -2.03252 0
M  V30 10427 N 979.98 1.24838 0.961938 0
M  V30 10428 C 981.208 1.11871 1.74047 0
M  V30 10429 C 981.623 -0.328209 1.85925 0
M  V30 10430 O 980.98 -1.22616 1.35173 0
M  V30 10431 C 981.031 1.75931 3.15801 0
M  V30 10432 O 980.752 3.14967 3.04512 0
M  V30 10433 C 982.253 1.68649 4.09966 0
M  V30 10434 H 979.473 0.390569 0.545616 0
M  V30 10435 H 982.017 1.65058 1.20732 0
M  V30 10436 H 980.172 1.26733 3.66084 0
M  V30 10437 H 980.586 3.46349 3.93882 0
M  V30 10438 H 982.06 2.18144 5.07067 0
M  V30 10439 H 982.537 0.648831 4.34381 0
M  V30 10440 H 983.143 2.17301 3.65596 0
M  V30 10441 N 981.458 -1.16348 1.06306 0
M  V30 10442 C 982.368 -2.24375 0.685059 0
M  V30 10443 C 983.384 -1.71413 -0.298956 0
M  V30 10444 O 984.56 -2.00854 -0.148239 0
M  V30 10445 C 981.625 -3.46614 0.0774088 0
M  V30 10446 C 980.686 -4.14613 1.11331 0
M  V30 10447 C 979.919 -5.31016 0.534559 0
M  V30 10448 O 980.142 -5.66654 -0.65265 0
M  V30 10449 O 979.076 -5.88256 1.27431 0
M  V30 10450 H 982.902 -2.59018 1.58566 0
M  V30 10451 H 980.487 -1.23865 0.835332 0
M  V30 10452 H 982.369 -4.20599 -0.259716 0
M  V30 10453 H 981.044 -3.13743 -0.796677 0
M  V30 10454 H 979.951 -3.42597 1.50261 0
M  V30 10455 H 981.284 -4.51538 1.95893 0
M  V30 10456 N 982.937 -0.845659 -1.3299 0
M  V30 10457 C 983.884 -0.281761 -2.29074 0
M  V30 10458 C 984.854 0.606237 -1.54641 0
M  V30 10459 O 986.039 0.543063 -1.82908 0
M  V30 10460 C 983.179 0.531451 -3.40983 0
M  V30 10461 C 982.292 -0.381328 -4.30314 0
M  V30 10462 C 981.427 0.443643 -5.29344 0
M  V30 10463 C 980.466 -0.467101 -6.10315 0
M  V30 10464 N 979.603 0.320148 -7.0137 0
M  V30 10465 H 984.443 -1.10641 -2.76699 0
M  V30 10466 H 981.98 -0.55706 -1.36144 0
M  V30 10467 H 983.938 1.01848 -4.04577 0
M  V30 10468 H 982.568 1.32101 -2.94532 0
M  V30 10469 H 981.62 -0.986701 -3.6738 0
M  V30 10470 H 982.932 -1.08067 -4.86953 0
M  V30 10471 H 982.086 0.994212 -5.98498 0
M  V30 10472 H 980.825 1.17639 -4.73299 0
M  V30 10473 H 979.83 -1.02963 -5.40073 0
M  V30 10474 H 981.055 -1.19832 -6.68444 0
M  V30 10475 H 979.001 1.03615 -6.47765 0
M  V30 10476 H 978.918 -0.320338 -7.55321 0
M  V30 10477 H 980.186 0.852735 -7.74822 0
M  V30 10478 N 984.415 1.45619 -0.602734 0
M  V30 10479 C 985.378 2.28941 0.108962 0
M  V30 10480 C 986.378 1.39501 0.799762 0
M  V30 10481 O 987.568 1.61673 0.648663 0
M  V30 10482 C 984.7 3.204 1.16432 0
M  V30 10483 H 985.893 2.93346 -0.623534 0
M  V30 10484 H 983.446 1.52061 -0.361565 0
M  V30 10485 H 984.181 2.60785 1.92774 0
M  V30 10486 H 983.966 3.86277 0.673248 0
M  V30 10487 H 985.456 3.83063 1.6629 0
M  V30 10488 N 985.893 0.34162 1.53853 0
M  V30 10489 C 986.823 -0.508431 2.27897 0
M  V30 10490 C 987.804 -1.10425 1.29384 0
M  V30 10491 O 988.989 -1.126 1.58224 0
M  V30 10492 C 986.119 -1.66048 3.05034 0
M  V30 10493 C 985.073 -1.19309 4.11035 0
M  V30 10494 C 984.399 -2.4335 4.76114 0
M  V30 10495 C 985.699 -0.294952 5.21467 0
M  V30 10496 H 987.393 0.109251 2.99201 0
M  V30 10497 H 984.939 0.0539847 1.43899 0
M  V30 10498 H 986.892 -2.26158 3.5557 0
M  V30 10499 H 985.616 -2.30503 2.31379 0
M  V30 10500 H 984.275 -0.614809 3.61408 0
M  V30 10501 H 983.923 -3.06208 3.99056 0
M  V30 10502 H 983.623 -2.1276 5.47729 0
M  V30 10503 H 985.147 -3.0419 5.29434 0
M  V30 10504 H 986.561 -0.80285 5.67651 0
M  V30 10505 H 984.958 -0.0810221 6.00045 0
M  V30 10506 H 986.028 0.669433 4.80257 0
M  V30 10507 N 987.371 -1.57444 0.0701946 0
M  V30 10508 C 988.596 -1.98171 -0.61181 0
M  V30 10509 C 989.021 -0.94823 -1.62451 0
M  V30 10510 O 988.379 0.0863553 -1.81094 0
M  V30 10511 C 988.427 -3.37934 -1.2583 0
M  V30 10512 O 987.531 -3.37207 -2.37414 0
M  V30 10513 H 986.872 -0.645056 -0.157477 0
M  V30 10514 H 989.402 -2.04091 0.144235 0
M  V30 10515 H 989.412 -3.75083 -1.60552 0
M  V30 10516 H 988.087 -4.12684 -0.516234 0
M  V30 10517 H 986.664 -3.11826 -2.04497 0
M  V30 10518 N 988.849 0.203349 -1.56283 0
M  V30 10519 C 989.796 1.25205 -1.93888 0
M  V30 10520 C 990.766 1.45654 -0.798376 0
M  V30 10521 O 991.951 1.58924 -1.05583 0
M  V30 10522 C 989.091 2.59355 -2.27659 0
M  V30 10523 C 988.204 2.46553 -3.54733 0
M  V30 10524 C 987.339 3.73351 -3.77865 0
M  V30 10525 C 986.378 3.55347 -4.98392 0
M  V30 10526 N 985.515 4.74137 -5.17821 0
M  V30 10527 H 990.355 0.924356 -2.83301 0
M  V30 10528 H 987.892 0.445082 -1.40205 0
M  V30 10529 H 989.85 3.375 -2.45254 0
M  V30 10530 H 988.48 2.90184 -1.41396 0
M  V30 10531 H 987.532 1.59749 -3.45231 0
M  V30 10532 H 988.844 2.2918 -4.43033 0
M  V30 10533 H 987.998 4.59937 -3.95655 0
M  V30 10534 H 986.737 3.9367 -2.8788 0
M  V30 10535 H 985.742 2.67146 -4.80534 0
M  V30 10536 H 986.967 3.36482 -5.89879 0
M  V30 10537 H 984.913 4.94735 -4.30782 0
M  V30 10538 H 984.83 4.59558 -6.00285 0
M  V30 10539 H 986.098 5.62098 -5.40061 0
M  V30 10540 N 990.327 1.50405 0.470755 0
M  V30 10541 C 991.257 1.72222 1.57676 0
M  V30 10542 C 992.238 0.57121 1.60222 0
M  V30 10543 O 993.423 0.810381 1.76484 0
M  V30 10544 C 990.553 1.81666 2.95998 0
M  V30 10545 C 989.507 2.96857 3.08318 0
M  V30 10546 C 988.833 2.91445 4.4829 0
M  V30 10547 C 990.133 4.37361 2.85504 0
M  V30 10548 H 991.827 2.64825 1.39671 0
M  V30 10549 H 989.373 1.27438 0.67049 0
M  V30 10550 H 991.326 1.95514 3.73299 0
M  V30 10551 H 990.05 0.856856 3.1516 0
M  V30 10552 H 988.709 2.82661 2.33449 0
M  V30 10553 H 988.357 1.93309 4.64371 0
M  V30 10554 H 988.057 3.68776 4.57469 0
M  V30 10555 H 989.581 3.07341 5.27611 0
M  V30 10556 H 990.995 4.52081 3.52555 0
M  V30 10557 H 989.392 5.16145 3.06127 0
M  V30 10558 H 990.462 4.49708 1.81359 0
M  V30 10559 N 991.805 -0.723954 1.39988 0
M  V30 10560 C 992.755 -1.82943 1.36073 0
M  V30 10561 C 993.739 -1.59105 0.239682 0
M  V30 10562 O 994.931 -1.7042 0.478116 0
M  V30 10563 C 992.06 -3.20988 1.21745 0
M  V30 10564 C 991.146 -3.50618 2.38596 0
M  V30 10565 N 991.537 -3.51115 3.64077 0
M  V30 10566 C 989.835 -3.81035 2.31794 0
M  V30 10567 C 990.536 -3.78852 4.41413 0
M  V30 10568 N 989.512 -3.97182 3.71143 0
M  V30 10569 H 993.314 -1.81649 2.31043 0
M  V30 10570 H 990.828 -0.922703 1.33641 0
M  V30 10571 H 992.825 -4.00139 1.17022 0
M  V30 10572 H 991.485 -3.23513 0.277344 0
M  V30 10573 H 992.496 -3.32163 3.97351 0
M  V30 10574 H 989.173 -3.911 1.46105 0
M  V30 10575 H 990.563 -3.85612 5.5023 0
M  V30 10576 N 993.283 -1.25346 -0.955304 0
M  V30 10577 C 994.193 -1.07412 -2.08566 0
M  V30 10578 C 995.209 -0.0114424 -1.73996 0
M  V30 10579 O 996.385 -0.212236 -2.00279 0
M  V30 10580 C 993.45 -0.694141 -3.3968 0
M  V30 10581 C 992.511 -1.83468 -3.88121 0
M  V30 10582 C 991.744 -1.47274 -5.12978 0
M  V30 10583 O 991.967 -0.368086 -5.69211 0
M  V30 10584 O 990.901 -2.30269 -5.56111 0
M  V30 10585 H 994.727 -2.02206 -2.26598 0
M  V30 10586 H 992.312 -1.04279 -1.06988 0
M  V30 10587 H 994.194 -0.494325 -4.18491 0
M  V30 10588 H 992.869 0.224545 -3.2292 0
M  V30 10589 H 991.776 -2.08935 -3.10318 0
M  V30 10590 H 993.109 -2.73258 -4.09379 0
M  V30 10591 N 994.761 1.15782 -1.06922 0
M  V30 10592 C 995.991 1.90079 -0.809545 0
M  V30 10593 C 996.399 1.78028 0.640523 0
M  V30 10594 O 995.742 1.12692 1.45073 0
M  V30 10595 C 995.804 3.41179 -1.13302 0
M  V30 10596 C 995.468 3.77015 -2.5828 0
M  V30 10597 C 996.465 3.78403 -3.56521 0
M  V30 10598 C 994.15 4.07455 -2.93745 0
M  V30 10599 C 996.144 4.09729 -4.88264 0
M  V30 10600 C 993.831 4.38446 -4.25686 0
M  V30 10601 C 994.829 4.39564 -5.22755 0
M  V30 10602 O 994.517 4.69814 -6.52326 0
M  V30 10603 H 994.249 0.609397 -0.292595 0
M  V30 10604 H 996.803 1.47654 -1.42784 0
M  V30 10605 H 995.033 3.83982 -0.457676 0
M  V30 10606 H 996.722 3.96759 -0.856586 0
M  V30 10607 H 997.488 3.54991 -3.30464 0
M  V30 10608 H 993.367 4.05746 -2.1884 0
M  V30 10609 H 996.911 4.10516 -5.64023 0
M  V30 10610 H 992.808 4.61325 -4.51497 0
M  V30 10611 H 993.576 4.87598 -6.57412 0
M  V30 10612 N 996.239 0.8527 1.3254 0
M  V30 10613 C 997.486 0.455123 1.97319 0
M  V30 10614 C 997.814 -0.988814 1.67489 0
M  V30 10615 O 997.069 -1.70845 0.954483 0
M  V30 10616 C 997.368 0.638757 3.51646 0
M  V30 10617 C 997.034 2.05287 4.01458 0
M  V30 10618 C 995.696 2.43963 4.14771 0
M  V30 10619 C 998.048 2.9759 4.27889 0
M  V30 10620 C 995.376 3.7422 4.51859 0
M  V30 10621 C 997.728 4.27343 4.66434 0
M  V30 10622 C 996.392 4.65957 4.77954 0
M  V30 10623 H 995.662 0.166541 0.722042 0
M  V30 10624 H 998.309 1.08238 1.57977 0
M  V30 10625 H 996.614 -0.0717394 3.91734 0
M  V30 10626 H 998.311 0.311219 3.9979 0
M  V30 10627 H 994.901 1.74253 3.91579 0
M  V30 10628 H 999.085 2.68942 4.17114 0
M  V30 10629 H 994.341 4.03923 4.58973 0
M  V30 10630 H 998.515 4.9893 4.85841 0
M  V30 10631 H 996.142 5.66934 5.06449 0
M  V30 10632 N 997.718 -1.45297 0.610449 0
M  V30 10633 C 999.129 -1.85715 0.191488 0
M  V30 10634 C 999.48 -1.51036 -1.25229 0
M  V30 10635 O 998.605 -0.938422 -1.94994 0
M  V30 10636 C 999.2 -3.37082 0.340747 0
M  V30 10637 C 997.759 -3.76393 -0.0235433 0
M  V30 10638 C 996.906 -2.69237 0.663849 0
M  V30 10639 H 999.857 -1.36058 0.816948 0
M  V30 10640 H 999.878 -3.78105 -0.426233 0
M  V30 10641 H 999.39 -3.62291 1.39164 0
M  V30 10642 H 997.491 -3.56801 -1.07351 0
M  V30 10643 H 997.604 -4.77653 0.372102 0
M  V30 10644 H 995.968 -2.54499 0.101204 0
M  V30 10645 H 996.751 -2.97281 1.71694 0
M  V30 10646 N 999.196 -0.349774 -1.5367 0
M  V30 10647 C 1000.11 0.512421 -2.28935 0
M  V30 10648 C 1001.12 1.1065 -1.34286 0
M  V30 10649 O 1002.3 1.12084 -1.67329 0
M  V30 10650 C 999.363 1.64449 -3.05217 0
M  V30 10651 C 998.424 1.07956 -4.15505 0
M  V30 10652 C 997.657 2.15768 -4.88139 0
M  V30 10653 O 997.88 3.366 -4.60496 0
M  V30 10654 O 996.814 1.79712 -5.74445 0
M  V30 10655 H 1000.64 -0.0996001 -3.03537 0
M  V30 10656 H 998.225 -0.114629 -1.4896 0
M  V30 10657 H 1000.11 2.30302 -3.52901 0
M  V30 10658 H 998.782 2.24221 -2.33467 0
M  V30 10659 H 997.689 0.385381 -3.7211 0
M  V30 10660 H 999.022 0.526621 -4.89375 0
M  V30 10661 N 1000.67 1.57404 -0.0785433 0
M  V30 10662 C 1001.61 2.08724 0.922464 0
M  V30 10663 C 1002.58 0.993912 1.28686 0
M  V30 10664 O 1003.77 1.26776 1.39499 0
M  V30 10665 C 1000.9 2.55051 2.2286 0
M  V30 10666 C 999.942 3.75884 2.01528 0
M  V30 10667 S 1000.77 5.2026 1.26844 0
M  V30 10668 C 1001.93 5.69924 2.58723 0
M  V30 10669 H 1002.16 2.93304 0.485807 0
M  V30 10670 H 999.697 1.53814 0.134377 0
M  V30 10671 H 1001.65 2.82402 2.97926 0
M  V30 10672 H 1000.32 1.70727 2.63649 0
M  V30 10673 H 999.509 4.06311 2.98207 0
M  V30 10674 H 999.111 3.48941 1.34596 0
M  V30 10675 H 1001.4 5.7718 3.5478 0
M  V30 10676 H 1002.35 6.68704 2.32897 0
M  V30 10677 H 1002.75 4.97773 2.66237 0
M  V30 10678 N 1002.15 -0.195058 1.56388 0
M  V30 10679 C 1003.08 -1.26581 1.91076 0
M  V30 10680 C 1004.1 -1.41707 0.801436 0
M  V30 10681 O 1005.29 -1.42132 1.07985 0
M  V30 10682 C 1002.39 -2.63794 2.12758 0
M  V30 10683 C 1001.56 -2.70275 3.43904 0
M  V30 10684 C 1000.62 -3.88685 3.54698 0
M  V30 10685 O 999.644 -3.75786 4.2752 0
M  V30 10686 N 1000.85 -5.04141 2.87789 0
M  V30 10687 H 1003.61 -0.971401 2.83521 0
M  V30 10688 H 1001.17 -0.384976 1.57256 0
M  V30 10689 H 1003.16 -3.41434 2.17267 0
M  V30 10690 H 1001.73 -2.85723 1.26812 0
M  V30 10691 H 1000.95 -1.78909 3.51262 0
M  V30 10692 H 1002.24 -2.71597 4.30247 0
M  V30 10693 H 1001.64 -5.17519 2.28452 0
M  V30 10694 H 1000.2 -5.79727 2.97925 0
M  V30 10695 N 1003.63 -1.50653 -0.462772 0
M  V30 10696 C 1004.88 -1.61296 -1.21105 0
M  V30 10697 C 1005.19 -0.322757 -1.92919 0
M  V30 10698 O 1006.4 -0.308211 -2.69745 0
M  V30 10699 C 1004.85 -2.84752 -2.201 0
M  V30 10700 C 1004.46 -4.20681 -1.54051 0
M  V30 10701 C 1006.21 -3.04744 -2.95518 0
M  V30 10702 C 1004.11 -5.35314 -2.51381 0
M  V30 10703 H 1003.04 -0.60069 -0.455728 0
M  V30 10704 H 1005.69 -1.77093 -0.480656 0
M  V30 10705 H 1004.08 -2.62532 -2.96467 0
M  V30 10706 H 1005.25 -4.53187 -0.834168 0
M  V30 10707 H 1003.56 -4.06361 -0.908828 0
M  V30 10708 H 1006.16 -3.87559 -3.68378 0
M  V30 10709 H 1006.5 -2.16802 -3.55391 0
M  V30 10710 H 1007.04 -3.27185 -2.26263 0
M  V30 10711 H 1003.78 -6.25437 -1.96235 0
M  V30 10712 H 1003.3 -5.07216 -3.20144 0
M  V30 10713 H 1004.98 -5.66229 -3.1304 0
M  V30 10714 N 1005.11 0.71652 -1.4037 0
M  V30 10715 C 1006.04 1.84345 -1.43315 0
M  V30 10716 C 1007.02 1.67537 -0.294186 0
M  V30 10717 O 1008.2 1.87582 -0.502671 0
M  V30 10718 C 1005.33 3.2229 -1.29408 0
M  V30 10719 C 1004.29 3.53769 -2.40897 0
M  V30 10720 C 1003.61 4.90847 -2.12068 0
M  V30 10721 C 1004.91 3.54862 -3.83237 0
M  V30 10722 H 1006.61 1.82138 -2.37626 0
M  V30 10723 H 1004.15 0.874873 -1.14376 0
M  V30 10724 H 1006.11 4.00819 -1.30085 0
M  V30 10725 H 1004.83 3.2507 -0.31573 0
M  V30 10726 H 1003.49 2.77579 -2.39469 0
M  V30 10727 H 1003.14 4.90229 -1.12626 0
M  V30 10728 H 1002.84 5.12875 -2.86762 0
M  V30 10729 H 1004.36 5.71711 -2.14426 0
M  V30 10730 H 1005.78 4.23432 -3.86494 0
M  V30 10731 H 1004.17 3.88416 -4.57442 0
M  V30 10732 H 1005.24 2.54266 -4.12888 0
M  V30 10733 N 1006.59 1.25851 0.948643 0
M  V30 10734 C 1007.55 1.0683 2.0278 0
M  V30 10735 C 1008.55 0.0191016 1.60789 0
M  V30 10736 O 1009.74 0.261836 1.72221 0
M  V30 10737 C 1006.87 0.623318 3.35153 0
M  V30 10738 H 1008.06 2.02635 2.21086 0
M  V30 10739 H 1005.62 1.08343 1.12657 0
M  V30 10740 H 1006.35 -0.337053 3.22544 0
M  V30 10741 H 1006.14 1.38082 3.66982 0
M  V30 10742 H 1007.63 0.511854 4.14451 0
M  V30 10743 N 1008.06 -1.15214 1.07534 0
M  V30 10744 C 1009.31 -1.86319 0.800814 0
M  V30 10745 C 1009.64 -1.82221 -0.671494 0
M  V30 10746 O 1008.92 -1.24664 -1.49295 0
M  V30 10747 C 1009.2 -3.35347 1.31203 0
M  V30 10748 C 1009.05 -3.48067 2.84902 0
M  V30 10749 C 1010.37 -4.3016 0.930064 0
M  V30 10750 H 1007.49 -0.676523 0.292379 0
M  V30 10751 H 1010.13 -1.35349 1.33344 0
M  V30 10752 H 1008.28 -3.78886 0.858949 0
M  V30 10753 H 1009.96 -3.13379 3.38514 0
M  V30 10754 H 1008.2 -2.89566 3.23008 0
M  V30 10755 H 1008.87 -4.52782 3.15741 0
M  V30 10756 H 1011.35 -3.94591 1.3205 0
M  V30 10757 H 1010.22 -5.32914 1.31507 0
M  V30 10758 H 1010.48 -4.41796 -0.163824 0
M  V30 10759 N 1009.54 -0.859717 -1.32086 0
M  V30 10760 C 1010.77 -0.478865 -2.01796 0
M  V30 10761 C 1011.19 0.918274 -1.64163 0
M  V30 10762 O 1010.55 1.60409 -0.844896 0
M  V30 10763 C 1010.6 -0.631356 -3.5503 0
M  V30 10764 O 1009.7 0.333712 -4.11048 0
M  V30 10765 H 1009.04 -0.191775 -0.635703 0
M  V30 10766 H 1011.57 -1.16031 -1.68517 0
M  V30 10767 H 1011.58 -0.520783 -4.04663 0
M  V30 10768 H 1010.26 -1.65015 -3.81763 0
M  V30 10769 H 1008.84 0.178953 -3.7247 0
M  V30 10770 N 1011.02 1.44971 -0.618145 0
M  V30 10771 C 1012.27 2.0176 -0.11725 0
M  V30 10772 C 1012.59 1.48773 1.26062 0
M  V30 10773 O 1011.86 0.686152 1.83491 0
M  V30 10774 H 1010.44 0.745909 -0.0403545 0
M  V30 10775 H 1013.1 1.77638 -0.801923 0
M  V30 10776 H 1012.2 3.1201 -0.0750477 0
M  V30 10777 N 1012.5 0.357919 1.53482 0
M  V30 10778 C 1013.45 -0.507364 2.26999 0
M  V30 10779 C 1014.44 -1.08987 1.29685 0
M  V30 10780 O 1015.65 -1.03396 1.47341 0
M  V30 10781 H 1012.02 -0.182326 0.729562 0
M  V30 10782 H 1013.99 0.134547 2.98097 0
M  V30 10783 C 1012.74 -1.63911 3.06641 0
M  V30 10784 H 1012.06 -1.20017 3.81361 0
M  V30 10785 H 1013.5 -2.21943 3.61272 0
M  V30 10786 C 1011.96 -2.57697 2.17011 0
M  V30 10787 O 1012.49 -3.60318 1.77578 0
M  V30 10788 N 1010.7 -2.2671 1.818 0
M  V30 10789 H 1010.25 -1.43296 2.14065 0
M  V30 10790 H 1010.2 -2.89716 1.22115 0
M  V30 10791 N 1013.98 -1.5736 0.0868897 0
M  V30 10792 C 1015.21 -1.981 -0.586498 0
M  V30 10793 C 1015.61 -0.96455 -1.62767 0
M  V30 10794 O 1014.96 0.0551801 -1.83617 0
M  V30 10795 C 1015.02 -3.35193 -1.29947 0
M  V30 10796 C 1014.68 -4.55157 -0.410012 0
M  V30 10797 C 1015.68 -5.18797 0.338532 0
M  V30 10798 C 1013.37 -5.01212 -0.33047 0
M  V30 10799 C 1015.36 -6.26854 1.15468 0
M  V30 10800 C 1013.05 -6.09138 0.48934 0
M  V30 10801 C 1014.04 -6.71823 1.23057 0
M  V30 10802 O 1013.73 -7.77669 2.03683 0
M  V30 10803 H 1013.46 -0.656166 -0.16255 0
M  V30 10804 H 1016.02 -2.04773 0.160379 0
M  V30 10805 H 1014.25 -3.25179 -2.09274 0
M  V30 10806 H 1015.94 -3.60435 -1.86658 0
M  V30 10807 H 1016.7 -4.84151 0.286764 0
M  V30 10808 H 1012.58 -4.52188 -0.897058 0
M  V30 10809 H 1016.13 -6.75712 1.73374 0
M  V30 10810 H 1012.02 -6.43215 0.542618 0
M  V30 10811 H 1012.79 -7.94618 1.96277 0
M  V30 10812 N 1015.45 0.186762 -1.56489 0
M  V30 10813 C 1016.69 0.912523 -1.829 0
M  V30 10814 C 1017.06 1.80094 -0.665598 0
M  V30 10815 O 1018.26 2.56312 -0.809787 0
M  V30 10816 C 1016.53 1.70022 -3.14368 0
M  V30 10817 S 1018.09 2.47686 -3.62211 0
M  V30 10818 H 1014.91 0.305916 -0.641823 0
M  V30 10819 H 1017.51 0.175289 -1.94713 0
M  V30 10820 H 1016.21 1.03832 -3.97048 0
M  V30 10821 H 1015.74 2.47912 -3.05456 0
M  V30 10822 H 1017.76 3.72058 -3.28309 0
M  V30 10823 N 1016.93 1.50896 0.454776 0
M  V30 10824 C 1018.16 1.6648 1.22849 0
M  V30 10825 C 1018.58 0.354841 1.85435 0
M  V30 10826 O 1017.93 -0.664931 1.69956 0
M  V30 10827 C 1017.98 2.76787 2.32532 0
M  V30 10828 O 1017.7 4.02706 1.72509 0
M  V30 10829 C 1019.21 3.03488 3.23125 0
M  V30 10830 H 1016.43 0.559152 0.370932 0
M  V30 10831 H 1018.97 1.97215 0.540983 0
M  V30 10832 H 1017.12 2.48701 2.9703 0
M  V30 10833 H 1017.54 4.63834 2.44863 0
M  V30 10834 H 1019.01 3.84294 3.9626 0
M  V30 10835 H 1019.49 2.152 3.82865 0
M  V30 10836 H 1020.1 3.33167 2.64347 0
M  V30 10837 N 1018.41 -0.709066 1.40748 0
M  V30 10838 C 1019.69 -1.4626 1.29874 0
M  V30 10839 C 1020.07 -2.10949 -0.0799322 0
M  V30 10840 O 1019.42 -2.00651 -1.09323 0
M  V30 10841 C 1019.63 -2.49302 2.44232 0
M  V30 10842 C 1020.97 -3.14945 2.84771 0
M  V30 10843 O 1022 -2.59623 2.43873 0
M  V30 10844 O 1020.86 -4.15111 3.5545 0
M  V30 10845 H 1017.95 -0.650716 0.51039 0
M  V30 10846 H 1020.5 -0.740687 1.52682 0
M  V30 10847 H 1019.27 -2.00063 3.36289 0
M  V30 10848 H 1018.89 -3.29021 2.23229 0
M  V30 10849 N 1019.89 -1.26353 -0.941956 0
M  V30 10850 C 1020.84 -1.07842 -2.04056 0
M  V30 10851 C 1021.81 0.0163064 -1.66092 0
M  V30 10852 O 1022.99 -0.143313 -1.90261 0
M  V30 10853 C 1020.13 -0.716636 -3.37577 0
M  V30 10854 C 1019.24 -1.88754 -3.88582 0
M  V30 10855 C 1018.38 -1.46893 -5.10486 0
M  V30 10856 C 1017.42 -2.60819 -5.53751 0
M  V30 10857 N 1016.56 -2.19646 -6.66858 0
M  V30 10858 H 1021.4 -2.01856 -2.19221 0
M  V30 10859 H 1018.93 -1.00504 -1.07412 0
M  V30 10860 H 1020.89 -0.487768 -4.14339 0
M  V30 10861 H 1019.52 0.18653 -3.22261 0
M  V30 10862 H 1018.57 -2.22936 -3.08227 0
M  V30 10863 H 1019.88 -2.74264 -4.1663 0
M  V30 10864 H 1019.04 -1.20047 -5.94705 0
M  V30 10865 H 1017.78 -0.584721 -4.84182 0
M  V30 10866 H 1016.78 -2.88396 -4.6809 0
M  V30 10867 H 1018.01 -3.49838 -5.82057 0
M  V30 10868 H 1015.95 -1.33657 -6.4224 0
M  V30 10869 H 1015.87 -2.987 -6.94489 0
M  V30 10870 H 1017.14 -1.96009 -7.54454 0
M  V30 10871 N 1021.37 1.14642 -1.08144 0
M  V30 10872 C 1022.31 2.1964 -0.708995 0
M  V30 10873 C 1023.28 1.63303 0.303512 0
M  V30 10874 O 1024.47 1.8987 0.18813 0
M  V30 10875 C 1021.61 3.44886 -0.121585 0
M  V30 10876 C 1020.72 4.15386 -1.18654 0
M  V30 10877 C 1019.86 5.28205 -0.56328 0
M  V30 10878 C 1018.9 5.90534 -1.61046 0
M  V30 10879 N 1018.03 6.94809 -1.00919 0
M  V30 10880 H 1022.87 2.50848 -1.6087 0
M  V30 10881 H 1020.41 1.23185 -0.803975 0
M  V30 10882 H 1022.37 4.16528 0.23668 0
M  V30 10883 H 1021 3.14169 0.741445 0
M  V30 10884 H 1020.05 3.42159 -1.66227 0
M  V30 10885 H 1021.36 4.57809 -1.9802 0
M  V30 10886 H 1020.52 6.06507 -0.153109 0
M  V30 10887 H 1019.26 4.86995 0.262066 0
M  V30 10888 H 1018.26 5.10938 -2.03033 0
M  V30 10889 H 1019.49 6.33819 -2.43824 0
M  V30 10890 H 1017.43 6.5568 -0.204894 0
M  V30 10891 H 1017.35 7.35704 -1.73999 0
M  V30 10892 H 1018.62 7.76992 -0.624792 0
M  V30 10893 N 1022.85 0.866709 1.31628 0
M  V30 10894 C 1024.26 0.529032 1.79048 0
M  V30 10895 C 1024.61 -0.953871 1.71452 0
M  V30 10896 O 1023.73 -1.74462 1.28031 0
M  V30 10897 C 1024.33 0.953522 3.25105 0
M  V30 10898 C 1022.89 0.667554 3.70433 0
M  V30 10899 C 1022.03 1.14664 2.52483 0
M  V30 10900 H 1024.98 1.05275 1.18756 0
M  V30 10901 H 1025.01 0.274844 3.79506 0
M  V30 10902 H 1024.52 2.03283 3.30602 0
M  V30 10903 H 1022.62 -0.400532 3.70441 0
M  V30 10904 H 1022.73 1.2423 4.62714 0
M  V30 10905 H 1021.1 0.566502 2.4832 0
M  V30 10906 H 1021.88 2.2333 2.60727 0
M  V30 10907 N 1024.32 -1.44642 0.625825 0
M  V30 10908 C 1025.29 -2.29085 -0.072526 0
M  V30 10909 C 1026.29 -1.40755 -0.777467 0
M  V30 10910 O 1027.48 -1.62684 -0.622861 0
M  V30 10911 C 1024.61 -3.22212 -1.1132 0
M  V30 10912 H 1025.8 -2.92317 0.670124 0
M  V30 10913 H 1023.35 -1.51466 0.38571 0
M  V30 10914 H 1024.09 -2.63819 -1.88601 0
M  V30 10915 H 1023.87 -3.87299 -0.611709 0
M  V30 10916 H 1025.36 -3.8566 -1.60175 0
M  V30 10917 N 1025.8 -0.366053 -1.5329 0
M  V30 10918 C 1026.76 0.467904 -2.24373 0
M  V30 10919 C 1027.76 1.00934 -1.25176 0
M  V30 10920 O 1028.95 0.895015 -1.49449 0
M  V30 10921 C 1026.09 1.65405 -2.98084 0
M  V30 10922 H 1027.28 -0.154105 -2.99504 0
M  V30 10923 H 1024.83 -0.117751 -1.55856 0
M  V30 10924 H 1025.57 2.31413 -2.27197 0
M  V30 10925 H 1025.35 1.27277 -3.70868 0
M  V30 10926 H 1026.84 2.24503 -3.52119 0
M  V30 10927 N 1027.28 1.57312 -0.0952337 0
M  V30 10928 C 1028.53 1.93533 0.568131 0
M  V30 10929 C 1028.84 0.979121 1.6933 0
M  V30 10930 O 1030.05 1.23506 2.41782 0
M  V30 10931 C 1028.5 3.43875 1.06198 0
M  V30 10932 C 1028.11 4.47988 -0.0334397 0
M  V30 10933 C 1029.86 3.89057 1.69807 0
M  V30 10934 C 1027.76 5.89483 0.475774 0
M  V30 10935 H 1026.69 0.7224 0.215995 0
M  V30 10936 H 1029.34 1.82699 -0.171257 0
M  V30 10937 H 1027.73 3.49862 1.85506 0
M  V30 10938 H 1028.9 4.53644 -0.808934 0
M  V30 10939 H 1027.21 4.12415 -0.574725 0
M  V30 10940 H 1029.81 4.92171 2.08978 0
M  V30 10941 H 1030.15 3.27713 2.5673 0
M  V30 10942 H 1030.69 3.85772 0.970815 0
M  V30 10943 H 1027.43 6.54528 -0.356837 0
M  V30 10944 H 1026.95 5.87297 1.21827 0
M  V30 10945 H 1028.63 6.40066 0.944697 0
M  V30 10946 N 1028.76 -0.17846 1.56586 0
M  V30 10947 C 1029.71 -1.24042 1.96765 0
M  V30 10948 C 1030.7 -1.46218 0.855375 0
M  V30 10949 O 1031.91 -1.46882 1.04046 0
M  V30 10950 H 1028.28 -0.416807 0.62592 0
M  V30 10951 H 1030.25 -0.874644 2.85294 0
M  V30 10952 C 1029 -2.57394 2.3376 0
M  V30 10953 H 1028.32 -2.41151 3.18883 0
M  V30 10954 H 1029.76 -3.30405 2.65723 0
M  V30 10955 C 1028.22 -3.15621 1.17835 0
M  V30 10956 O 1028.75 -3.99032 0.462202 0
M  V30 10957 N 1026.96 -2.74606 0.950783 0
M  V30 10958 H 1026.51 -2.06878 1.5349 0
M  V30 10959 H 1026.46 -3.13902 0.176967 0
M  V30 10960 N 1030.24 -1.51135 -0.446768 0
M  V30 10961 C 1031.48 -1.64542 -1.19573 0
M  V30 10962 C 1031.84 -0.352728 -1.89139 0
M  V30 10963 O 1031.13 0.650917 -1.80204 0
M  V30 10964 C 1031.32 -2.78034 -2.2457 0
M  V30 10965 C 1031.15 -4.18214 -1.65308 0
M  V30 10966 C 1029.92 -4.84284 -1.44212 0
M  V30 10967 C 1032.12 -5.01631 -1.13451 0
M  V30 10968 N 1030.1 -6.08606 -0.804486 0
M  V30 10969 C 1031.47 -6.16876 -0.621577 0
M  V30 10970 C 1033.53 -4.87227 -1.02537 0
M  V30 10971 C 1032.23 -7.19299 -0.0102361 0
M  V30 10972 C 1034.26 -5.8985 -0.427936 0
M  V30 10973 C 1033.62 -7.04361 0.0745026 0
M  V30 10974 H 1029.72 -0.656068 -0.425556 0
M  V30 10975 H 1032.3 -1.88334 -0.493802 0
M  V30 10976 H 1030.47 -2.55922 -2.92162 0
M  V30 10977 H 1032.21 -2.8067 -2.91558 0
M  V30 10978 H 1028.96 -4.4199 -1.70123 0
M  V30 10979 H 1029.38 -6.75126 -0.503379 0
M  V30 10980 H 1034.03 -3.98959 -1.39971 0
M  V30 10981 H 1031.74 -8.07224 0.376252 0
M  V30 10982 H 1035.33 -5.80773 -0.34552 0
M  V30 10983 H 1034.21 -7.8241 0.529535 0
M  V30 10984 N 1031.71 0.701592 -1.41122 0
M  V30 10985 C 1032.96 1.45722 -1.39456 0
M  V30 10986 C 1033.28 1.95599 -0.00475228 0
M  V30 10987 O 1034.48 2.71166 0.134529 0
M  V30 10988 C 1032.94 2.63475 -2.45172 0
M  V30 10989 C 1032.55 2.20409 -3.90031 0
M  V30 10990 C 1034.29 3.4114 -2.52633 0
M  V30 10991 C 1032.2 3.35084 -4.87312 0
M  V30 10992 H 1031.13 0.547341 -0.518588 0
M  V30 10993 H 1033.78 0.762233 -1.6692 0
M  V30 10994 H 1032.16 3.35212 -2.10829 0
M  V30 10995 H 1033.33 1.56 -4.3359 0
M  V30 10996 H 1031.65 1.55752 -3.86174 0
M  V30 10997 H 1034.25 4.26496 -3.22498 0
M  V30 10998 H 1034.59 3.85915 -1.56125 0
M  V30 10999 H 1035.12 2.76456 -2.86037 0
M  V30 11000 H 1031.86 2.95327 -5.85203 0
M  V30 11001 H 1031.38 3.98362 -4.48406 0
M  V30 11002 H 1033.06 4.00949 -5.07788 0
M  V30 11003 N 1033.19 1.2685 0.935242 0
M  V30 11004 C 1034.1 1.10716 2.06831 0
M  V30 11005 C 1035.12 0.0391222 1.73956 0
M  V30 11006 O 1036.29 0.244071 1.99916 0
M  V30 11007 C 1033.36 0.748093 3.38533 0
M  V30 11008 C 1032.42 1.89619 3.85153 0
M  V30 11009 C 1031.65 1.55416 5.1057 0
M  V30 11010 O 1031.88 0.458596 5.68553 0
M  V30 11011 O 1030.81 2.39087 5.52378 0
M  V30 11012 H 1034.64 2.05785 2.23352 0
M  V30 11013 H 1032.22 1.05967 1.05315 0
M  V30 11014 H 1034.1 0.560841 4.17651 0
M  V30 11015 H 1032.78 -0.173142 3.23237 0
M  V30 11016 H 1031.68 2.13845 3.06954 0
M  V30 11017 H 1033.02 2.79737 4.04979 0
M  V30 11018 N 1034.67 -1.14067 1.0875 0
M  V30 11019 C 1035.92 -1.84819 0.817698 0
M  V30 11020 C 1036.24 -1.83545 -0.658488 0
M  V30 11021 O 1035.51 -1.28633 -1.47751 0
M  V30 11022 H 1034.09 -0.68433 0.299502 0
M  V30 11023 H 1036.75 -1.38208 1.37421 0
M  V30 11024 H 1035.85 -2.89541 1.16501 0
M  V30 11025 N 1036.15 -0.873678 -1.31166 0
M  V30 11026 C 1037.56 -0.566109 -1.49223 0
M  V30 11027 C 1037.76 0.898889 -1.80339 0
M  V30 11028 O 1036.82 1.68084 -1.88425 0
M  V30 11029 C 1038.13 -1.46952 -2.62346 0
M  V30 11030 C 1039.68 -1.47195 -2.76229 0
M  V30 11031 C 1040.16 -2.36102 -3.92454 0
M  V30 11032 N 1041.65 -2.34003 -3.99746 0
M  V30 11033 C 1042.38 -2.99513 -4.88958 0
M  V30 11034 N 1041.88 -3.74206 -5.83045 0
M  V30 11035 N 1043.67 -2.88802 -4.82234 0
M  V30 11036 H 1035.82 -1.82156 -1.09239 0
M  V30 11037 H 1038.09 -0.779086 -0.54012 0
M  V30 11038 H 1037.79 -2.51213 -2.4614 0
M  V30 11039 H 1037.67 -1.17077 -3.5857 0
M  V30 11040 H 1040.05 -0.436902 -2.91848 0
M  V30 11041 H 1040.13 -1.81095 -1.80661 0
M  V30 11042 H 1039.78 -3.39685 -3.77593 0
M  V30 11043 H 1039.71 -1.99524 -4.87337 0
M  V30 11044 H 1042.2 -1.79713 -3.32433 0
M  V30 11045 H 1042.51 -4.21312 -6.47855 0
M  V30 11046 H 1040.86 -3.78314 -5.83012 0
M  V30 11047 H 1044.05 -2.29984 -4.07707 0
M  V30 11048 H 1044.22 -3.40136 -5.51554 0
M  V30 11049 N 1037.63 1.44308 -0.633487 0
M  V30 11050 C 1038.87 2.01624 -0.138643 0
M  V30 11051 C 1039.2 1.50101 1.24477 0
M  V30 11052 O 1038.47 0.705575 1.82752 0
M  V30 11053 H 1037.05 0.745439 -0.0482636 0
M  V30 11054 H 1039.71 1.76777 -0.820719 0
M  V30 11055 H 1038.8 3.11913 -0.108136 0
M  V30 11056 N 1039.1 0.374177 1.53094 0
M  V30 11057 C 1040.05 -0.468226 2.26001 0
M  V30 11058 C 1041.02 -1.07041 1.27009 0
M  V30 11059 O 1042.21 -1.10129 1.55809 0
M  V30 11060 C 1039.35 -1.59754 3.05896 0
M  V30 11061 C 1038.46 -1.01969 4.19793 0
M  V30 11062 C 1037.59 -2.11882 4.87113 0
M  V30 11063 C 1036.63 -1.51607 5.93028 0
M  V30 11064 N 1035.77 -2.55388 6.54004 0
M  V30 11065 H 1040.61 0.159983 2.9757 0
M  V30 11066 H 1038.15 0.0907196 1.4682 0
M  V30 11067 H 1040.11 -2.26288 3.50499 0
M  V30 11068 H 1038.74 -2.19628 2.36565 0
M  V30 11069 H 1037.79 -0.244386 3.79614 0
M  V30 11070 H 1039.1 -0.539089 4.95878 0
M  V30 11071 H 1038.25 -2.86218 5.34943 0
M  V30 11072 H 1036.99 -2.63297 4.10519 0
M  V30 11073 H 1036 -0.757891 5.44551 0
M  V30 11074 H 1037.22 -1.01006 6.71546 0
M  V30 11075 H 1035.17 -3.06 5.80258 0
M  V30 11076 H 1035.09 -2.12039 7.25655 0
M  V30 11077 H 1036.35 -3.294 7.06481 0
M  V30 11078 N 1040.58 -1.57259 0.103575 0
M  V30 11079 C 1041.81 -1.99424 -0.569638 0
M  V30 11080 C 1042.23 -0.982475 -1.60403 0
M  V30 11081 O 1041.59 0.0479231 -1.81237 0
M  V30 11082 C 1041.64 -3.40527 -1.18633 0
M  V30 11083 O 1040.74 -3.42167 -2.30208 0
M  V30 11084 H 1040.08 -0.648251 -0.143759 0
M  V30 11085 H 1042.61 -2.03739 0.187493 0
M  V30 11086 H 1042.62 -3.78404 -1.5256 0
M  V30 11087 H 1041.3 -4.13686 -0.428582 0
M  V30 11088 H 1039.88 -3.16093 -1.97837 0
M  V30 11089 N 1042.06 0.170153 -1.56679 0
M  V30 11090 C 1043.31 0.887906 -1.8233 0
M  V30 11091 C 1043.64 1.81845 -0.681608 0
M  V30 11092 O 1042.91 1.9191 0.316362 0
M  V30 11093 C 1043.2 1.68256 -3.18374 0
M  V30 11094 C 1043.05 0.775059 -4.43072 0
M  V30 11095 C 1044.37 2.65001 -3.51372 0
M  V30 11096 H 1041.49 0.32135 -0.663252 0
M  V30 11097 H 1044.13 0.154065 -1.89374 0
M  V30 11098 H 1042.28 2.30817 -3.12499 0
M  V30 11099 H 1043.95 0.162234 -4.61015 0
M  V30 11100 H 1042.2 0.0831809 -4.3372 0
M  V30 11101 H 1042.87 1.36661 -5.34816 0
M  V30 11102 H 1045.34 2.12566 -3.57708 0
M  V30 11103 H 1044.22 3.17667 -4.47637 0
M  V30 11104 H 1044.48 3.45255 -2.76136 0
M  V30 11105 N 1043.54 1.5137 0.438746 0
M  V30 11106 C 1044.78 1.64211 1.19006 0
M  V30 11107 C 1045.12 0.356607 1.90898 0
M  V30 11108 O 1044.39 -0.643722 1.83539 0
M  V30 11109 C 1044.68 2.8445 2.20817 0
M  V30 11110 C 1044.53 4.22972 1.53018 0
M  V30 11111 C 1045.85 3.00207 3.21813 0
M  V30 11112 H 1042.97 0.597628 0.431288 0
M  V30 11113 H 1045.61 1.8385 0.479487 0
M  V30 11114 H 1043.76 2.67836 2.81418 0
M  V30 11115 H 1045.43 4.5125 0.957654 0
M  V30 11116 H 1043.67 4.25736 0.832556 0
M  V30 11117 H 1044.34 5.03094 2.27158 0
M  V30 11118 H 1046.82 3.15522 2.71266 0
M  V30 11119 H 1045.7 3.85904 3.90345 0
M  V30 11120 H 1045.96 2.12216 3.87836 0
M  V30 11121 N 1045.02 -0.694098 1.41492 0
M  V30 11122 C 1046.26 -1.46637 1.42398 0
M  V30 11123 C 1046.62 -1.91973 0.0321256 0
M  V30 11124 O 1047.82 -2.68669 -0.0840324 0
M  V30 11125 C 1046.09 -2.64474 2.40392 0
M  V30 11126 S 1047.65 -3.53595 2.59838 0
M  V30 11127 H 1044.47 -0.501074 0.504427 0
M  V30 11128 H 1047.07 -0.809761 1.77941 0
M  V30 11129 H 1045.78 -2.29374 3.40317 0
M  V30 11130 H 1045.31 -3.35026 2.06206 0
M  V30 11131 H 1047.32 -4.59741 1.86689 0
M  V30 11132 N 1046.49 -1.27344 -0.928501 0
M  V30 11133 C 1047.4 -1.11812 -2.06241 0
M  V30 11134 C 1048.42 -0.048347 -1.73933 0
M  V30 11135 O 1049.6 -0.25467 -1.99783 0
M  V30 11136 C 1046.66 -0.766036 -3.38131 0
M  V30 11137 C 1045.72 -1.91659 -3.84142 0
M  V30 11138 C 1044.96 -1.58121 -5.09738 0
M  V30 11139 O 1045.18 -0.488742 -5.68302 0
M  V30 11140 O 1044.11 -2.42013 -5.51102 0
M  V30 11141 H 1047.94 -2.06967 -2.22258 0
M  V30 11142 H 1045.52 -1.06524 -1.04752 0
M  V30 11143 H 1047.41 -0.582982 -4.17348 0
M  V30 11144 H 1046.08 0.155998 -3.23324 0
M  V30 11145 H 1044.99 -2.1547 -3.05816 0
M  V30 11146 H 1046.32 -2.8188 -4.0349 0
M  V30 11147 N 1047.97 1.13488 -1.09353 0
M  V30 11148 C 1048.94 2.17066 -0.735863 0
M  V30 11149 C 1049.94 1.59086 0.234181 0
M  V30 11150 O 1051.13 1.74196 0.012463 0
M  V30 11151 C 1048.26 3.40786 -0.0880975 0
M  V30 11152 H 1049.45 2.50221 -1.65316 0
M  V30 11153 H 1047 1.28304 -0.89263 0
M  V30 11154 H 1047.74 3.1322 0.840462 0
M  V30 11155 H 1047.52 3.8414 -0.786073 0
M  V30 11156 H 1049.01 4.17342 0.146775 0
M  V30 11157 N 1049.45 0.880621 1.30701 0
M  V30 11158 C 1050.7 0.497611 1.966 0
M  V30 11159 C 1051.03 -0.949901 1.69383 0
M  V30 11160 O 1050.31 -1.67054 0.996152 0
M  V30 11161 C 1050.59 0.767919 3.51817 0
M  V30 11162 C 1050.44 2.26574 3.88567 0
M  V30 11163 C 1051.76 0.241502 4.39437 0
M  V30 11164 H 1048.88 0.182267 0.714106 0
M  V30 11165 H 1051.52 1.10382 1.54648 0
M  V30 11166 H 1049.67 0.251967 3.87682 0
M  V30 11167 H 1051.34 2.84977 3.62748 0
M  V30 11168 H 1049.59 2.73411 3.36792 0
M  V30 11169 H 1050.26 2.40549 4.9683 0
M  V30 11170 H 1052.73 0.683051 4.10455 0
M  V30 11171 H 1051.61 0.459997 5.46969 0
M  V30 11172 H 1051.87 -0.857068 4.33713 0
M  V30 11173 N 1050.93 -1.4397 0.641131 0
M  V30 11174 C 1052.18 -2.01163 0.147026 0
M  V30 11175 C 1052.49 -1.51099 -1.24211 0
M  V30 11176 O 1053.7 -2.00487 -1.83078 0
M  V30 11177 C 1052.15 -3.59275 0.212068 0
M  V30 11178 C 1051.76 -4.18334 1.60314 0
M  V30 11179 C 1053.51 -4.23903 -0.225057 0
M  V30 11180 C 1051.41 -5.68701 1.62276 0
M  V30 11181 H 1050.34 -0.75226 0.051201 0
M  V30 11182 H 1052.99 -1.65075 0.801396 0
M  V30 11183 H 1051.38 -3.92708 -0.509589 0
M  V30 11184 H 1052.55 -3.96422 2.34918 0
M  V30 11185 H 1050.86 -3.66031 1.9852 0
M  V30 11186 H 1053.46 -5.34205 -0.230074 0
M  V30 11187 H 1053.8 -3.96956 -1.25426 0
M  V30 11188 H 1054.34 -3.95309 0.44444 0
M  V30 11189 H 1051.08 -6.00397 2.63066 0
M  V30 11190 H 1050.6 -5.92705 0.919797 0
M  V30 11191 H 1052.28 -6.32521 1.36112 0
M  V30 11192 N 1052.41 -0.382291 -1.52893 0
M  V30 11193 C 1053.82 0.0932841 -1.86467 0
M  V30 11194 C 1054.17 1.4675 -1.30226 0
M  V30 11195 O 1053.29 2.07001 -0.63084 0
M  V30 11196 C 1053.89 0.176048 -3.38342 0
M  V30 11197 C 1052.45 0.595904 -3.71653 0
M  V30 11198 C 1051.6 -0.246511 -2.76202 0
M  V30 11199 H 1054.55 -0.600443 -1.46903 0
M  V30 11200 H 1054.57 0.996512 -3.67219 0
M  V30 11201 H 1054.08 -0.824264 -3.79246 0
M  V30 11202 H 1052.18 1.60384 -3.36315 0
M  V30 11203 H 1052.29 0.358919 -4.77754 0
M  V30 11204 H 1050.66 0.287162 -2.53076 0
M  V30 11205 H 1051.44 -1.24467 -3.19942 0
M  V30 11206 N 1053.89 1.57202 -0.111913 0
M  V30 11207 C 1054.85 2.13778 0.826534 0
M  V30 11208 C 1055.85 1.07097 1.19945 0
M  V30 11209 O 1057.04 1.32906 1.12613 0
M  V30 11210 C 1054.17 2.6722 2.11675 0
M  V30 11211 H 1055.36 2.98023 0.334975 0
M  V30 11212 H 1052.92 1.55696 0.137256 0
M  V30 11213 H 1053.65 1.86542 2.65278 0
M  V30 11214 H 1053.44 3.45235 1.8589 0
M  V30 11215 H 1054.93 3.10926 2.78774 0
M  V30 11216 N 1055.36 -0.161842 1.56767 0
M  V30 11217 C 1056.31 -1.2002 1.97139 0
M  V30 11218 C 1057.28 -1.43486 0.836713 0
M  V30 11219 O 1058.47 -1.56069 1.0976 0
M  V30 11220 C 1055.61 -2.53228 2.34456 0
M  V30 11221 C 1054.72 -2.37062 3.61145 0
M  V30 11222 C 1053.85 -3.63202 3.87631 0
M  V30 11223 C 1052.89 -3.42008 5.07638 0
M  V30 11224 N 1052.03 -4.60242 5.30209 0
M  V30 11225 H 1056.87 -0.848918 2.85653 0
M  V30 11226 H 1054.41 -0.407753 1.41336 0
M  V30 11227 H 1056.36 -3.30879 2.54116 0
M  V30 11228 H 1054.99 -2.86333 1.4904 0
M  V30 11229 H 1054.05 -1.50539 3.49345 0
M  V30 11230 H 1055.36 -2.17353 4.48953 0
M  V30 11231 H 1054.51 -4.49285 4.0771 0
M  V30 11232 H 1053.25 -3.85899 2.98216 0
M  V30 11233 H 1052.26 -2.54312 4.87448 0
M  V30 11234 H 1053.48 -3.20724 5.98593 0
M  V30 11235 H 1051.43 -4.8314 4.43747 0
M  V30 11236 H 1051.34 -4.43481 6.12259 0
M  V30 11237 H 1052.61 -5.47581 5.54775 0
M  V30 11238 N 1056.84 -1.516 -0.430713 0
M  V30 11239 C 1058.09 -1.6484 -1.18134 0
M  V30 11240 C 1058.42 -0.366725 -1.90706 0
M  V30 11241 O 1057.7 0.63398 -1.83878 0
M  V30 11242 C 1057.98 -2.85617 -2.19306 0
M  V30 11243 C 1057.83 -4.23778 -1.50773 0
M  V30 11244 C 1059.15 -3.01909 -3.20217 0
M  V30 11245 H 1056.27 -0.599907 -0.428113 0
M  V30 11246 H 1058.91 -1.84102 -0.46973 0
M  V30 11247 H 1057.06 -2.69325 -2.79993 0
M  V30 11248 H 1058.73 -4.51752 -0.93371 0
M  V30 11249 H 1056.98 -4.26171 -0.809966 0
M  V30 11250 H 1057.65 -5.04291 -2.24487 0
M  V30 11251 H 1060.12 -3.16956 -2.69589 0
M  V30 11252 H 1059 -3.87968 -3.88293 0
M  V30 11253 H 1059.26 -2.1427 -3.86705 0
M  V30 11254 N 1058.32 0.686584 -1.41858 0
M  V30 11255 C 1059.57 1.44879 -1.41908 0
M  V30 11256 C 1059.9 1.94175 -0.0311408 0
M  V30 11257 O 1059.17 1.70131 0.942646 0
M  V30 11258 C 1059.46 2.65428 -2.43352 0
M  V30 11259 C 1059.31 2.2184 -3.91289 0
M  V30 11260 C 1060.63 3.67635 -2.41934 0
M  V30 11261 H 1057.75 0.525477 -0.516762 0
M  V30 11262 H 1060.39 0.781263 -1.73194 0
M  V30 11263 H 1058.54 3.2238 -2.16803 0
M  V30 11264 H 1060.21 1.70146 -4.28775 0
M  V30 11265 H 1058.45 1.53531 -4.05722 0
M  V30 11266 H 1059.13 3.08376 -4.5783 0
M  V30 11267 H 1061.6 3.20376 -2.65516 0
M  V30 11268 H 1060.48 4.49579 -3.14913 0
M  V30 11269 H 1060.74 4.17953 -1.44111 0
M  V30 11270 N 1059.8 1.27835 0.921735 0
M  V30 11271 C 1061.21 1.05369 1.19873 0
M  V30 11272 C 1061.41 -0.208997 2.00413 0
M  V30 11273 O 1060.47 -0.912861 2.35421 0
M  V30 11274 C 1061.78 2.29658 1.94108 0
M  V30 11275 C 1063.33 2.34756 2.07023 0
M  V30 11276 C 1063.81 3.5879 2.84664 0
M  V30 11277 N 1065.3 3.59383 2.9223 0
M  V30 11278 C 1066.03 4.52029 3.52785 0
M  V30 11279 N 1065.53 5.54986 4.14683 0
M  V30 11280 N 1067.32 4.39641 3.50246 0
M  V30 11281 H 1059.47 2.08903 0.383819 0
M  V30 11282 H 1061.73 0.919065 0.232429 0
M  V30 11283 H 1061.44 3.21604 1.4235 0
M  V30 11284 H 1061.31 2.35444 2.94696 0
M  V30 11285 H 1063.7 1.43312 2.57965 0
M  V30 11286 H 1063.78 2.32969 1.05636 0
M  V30 11287 H 1063.43 4.50574 2.34404 0
M  V30 11288 H 1063.36 3.57829 3.86349 0
M  V30 11289 H 1065.85 2.84927 2.48244 0
M  V30 11290 H 1066.16 6.21837 4.58845 0
M  V30 11291 H 1064.51 5.58822 4.13211 0
M  V30 11292 H 1067.7 3.58413 3.01094 0
M  V30 11293 H 1067.87 5.12033 3.97148 0
M  V30 11294 N 1061.28 -1.12907 1.09954 0
M  V30 11295 C 1062.19 -2.22082 0.756095 0
M  V30 11296 C 1063.2 -1.72277 -0.244272 0
M  V30 11297 O 1064.38 -2.01224 -0.0842637 0
M  V30 11298 C 1061.44 -3.46192 0.187642 0
M  V30 11299 C 1060.5 -4.10861 1.24465 0
M  V30 11300 C 1059.74 -5.29047 0.703227 0
M  V30 11301 O 1059.96 -5.68443 -0.472043 0
M  V30 11302 O 1058.89 -5.83904 1.46082 0
M  V30 11303 H 1062.72 -2.53842 1.66727 0
M  V30 11304 H 1060.3 -1.21145 0.874316 0
M  V30 11305 H 1062.19 -4.21212 -0.125774 0
M  V30 11306 H 1060.86 -3.16119 -0.696459 0
M  V30 11307 H 1059.77 -3.37643 1.61085 0
M  V30 11308 H 1061.1 -4.45078 2.10159 0
M  V30 11309 N 1062.75 -0.88754 -1.30232 0
M  V30 11310 C 1064 -0.508031 -1.96334 0
M  V30 11311 C 1064.33 0.940905 -1.69884 0
M  V30 11312 O 1063.61 1.66523 -1.005 0
M  V30 11313 C 1063.89 -0.786566 -3.51405 0
M  V30 11314 C 1063.74 -2.28632 -3.8736 0
M  V30 11315 C 1065.06 -0.264803 -4.39303 0
M  V30 11316 H 1062.18 -0.186051 -0.71313 0
M  V30 11317 H 1064.82 -1.112 -1.5406 0
M  V30 11318 H 1062.97 -0.272523 -3.87543 0
M  V30 11319 H 1064.65 -2.86896 -3.61231 0
M  V30 11320 H 1062.89 -2.75194 -3.35337 0
M  V30 11321 H 1063.56 -2.43181 -4.95547 0
M  V30 11322 H 1066.04 -0.704809 -4.10087 0
M  V30 11323 H 1064.91 -0.488998 -5.46717 0
M  V30 11324 H 1065.17 0.834055 -4.34161 0
M  V30 11325 N 1064.23 1.43628 -0.648757 0
M  V30 11326 C 1065.16 2.33478 0.0320785 0
M  V30 11327 C 1066.14 1.49217 0.816605 0
M  V30 11328 O 1067.33 1.77892 0.778974 0
M  V30 11329 C 1064.46 3.32525 1.00222 0
M  V30 11330 C 1063.41 4.2674 0.328119 0
M  V30 11331 C 1062.74 5.15791 1.4094 0
M  V30 11332 C 1064.04 5.16493 -0.776701 0
M  V30 11333 H 1065.73 2.90657 -0.718257 0
M  V30 11334 H 1063.28 1.3976 -0.346852 0
M  V30 11335 H 1065.23 3.94277 1.4874 0
M  V30 11336 H 1063.96 2.73593 1.78366 0
M  V30 11337 H 1062.61 3.66346 -0.136569 0
M  V30 11338 H 1062.26 4.53201 2.18216 0
M  V30 11339 H 1061.96 5.79645 0.963631 0
M  V30 11340 H 1063.49 5.80416 1.89603 0
M  V30 11341 H 1064.9 5.7208 -0.373878 0
M  V30 11342 H 1063.3 5.89043 -1.14667 0
M  V30 11343 H 1064.37 4.56448 -1.63654 0
M  V30 11344 N 1065.71 0.390394 1.52688 0
M  V30 11345 C 1066.66 -0.444229 2.26485 0
M  V30 11346 C 1067.63 -1.05688 1.28138 0
M  V30 11347 O 1068.81 -1.0847 1.56968 0
M  V30 11348 C 1065.95 -1.56501 3.07574 0
M  V30 11349 C 1065.07 -0.975111 4.20851 0
M  V30 11350 C 1064.2 -2.06704 4.89333 0
M  V30 11351 C 1063.24 -1.45309 5.94602 0
M  V30 11352 N 1062.38 -2.48437 6.56676 0
M  V30 11353 H 1067.22 0.191535 2.97384 0
M  V30 11354 H 1064.75 0.106287 1.46716 0
M  V30 11355 H 1066.71 -2.22558 3.52879 0
M  V30 11356 H 1065.34 -2.17107 2.38881 0
M  V30 11357 H 1064.39 -0.204109 3.79852 0
M  V30 11358 H 1065.71 -0.486465 4.96422 0
M  V30 11359 H 1064.86 -2.80528 5.37949 0
M  V30 11360 H 1063.6 -2.58928 4.13289 0
M  V30 11361 H 1062.6 -0.700091 5.45324 0
M  V30 11362 H 1063.83 -0.938775 6.7258 0
M  V30 11363 H 1061.77 -2.99829 5.83471 0
M  V30 11364 H 1061.69 -2.04331 7.27863 0
M  V30 11365 H 1062.96 -3.21888 7.09935 0
M  V30 11366 N 1067.19 -1.57141 0.120249 0
M  V30 11367 C 1068.42 -1.99589 -0.545136 0
M  V30 11368 C 1068.83 -0.999951 -1.60145 0
M  V30 11369 O 1068.19 0.00698897 -1.82499 0
M  V30 11370 C 1068.24 -3.42038 -1.17014 0
M  V30 11371 O 1067.96 -4.37822 -0.156044 0
M  V30 11372 C 1069.46 -3.99625 -1.91872 0
M  V30 11373 H 1066.68 -0.655318 -0.144222 0
M  V30 11374 H 1069.23 -2.0345 0.206955 0
M  V30 11375 H 1067.38 -3.39113 -1.873 0
M  V30 11376 H 1067.79 -5.20937 -0.610317 0
M  V30 11377 H 1069.27 -5.01374 -2.30928 0
M  V30 11378 H 1069.75 -3.38836 -2.7944 0
M  V30 11379 H 1070.35 -4.061 -1.26345 0
M  V30 11380 N 1068.67 0.153526 -1.5685 0
M  V30 11381 C 1069.89 0.882335 -1.87143 0
M  V30 11382 C 1070.31 1.75034 -0.707702 0
M  V30 11383 O 1069.67 1.79624 0.32273 0
M  V30 11384 C 1069.72 1.74444 -3.16625 0
M  V30 11385 O 1069.44 0.911419 -4.28515 0
M  V30 11386 C 1070.94 2.58139 -3.60388 0
M  V30 11387 H 1068.16 0.25546 -0.620469 0
M  V30 11388 H 1070.7 0.148275 -2.03962 0
M  V30 11389 H 1068.86 2.43163 -3.0158 0
M  V30 11390 H 1069.27 1.50268 -5.02513 0
M  V30 11391 H 1070.75 3.14215 -4.53842 0
M  V30 11392 H 1071.22 3.33865 -2.85361 0
M  V30 11393 H 1071.83 1.94721 -3.78105 0
M  V30 11394 N 1070.14 1.51827 0.422667 0
M  V30 11395 C 1071.37 1.69049 1.1929 0
M  V30 11396 C 1071.79 0.394095 1.84641 0
M  V30 11397 O 1071.14 -0.628731 1.71328 0
M  V30 11398 C 1071.2 2.81657 2.26609 0
M  V30 11399 O 1070.92 4.06275 1.63929 0
M  V30 11400 C 1072.42 3.10274 3.16615 0
M  V30 11401 H 1069.64 0.566894 0.358988 0
M  V30 11402 H 1072.18 1.98318 0.499029 0
M  V30 11403 H 1070.34 2.54945 2.91688 0
M  V30 11404 H 1070.75 4.68924 2.3497 0
M  V30 11405 H 1072.22 3.92613 3.88019 0
M  V30 11406 H 1072.7 2.23273 3.78214 0
M  V30 11407 H 1073.31 3.387 2.57221 0
M  V30 11408 N 1071.62 -0.679052 1.4222 0
M  V30 11409 C 1072.53 -1.82221 1.47759 0
M  V30 11410 C 1073.55 -1.70092 0.3667 0
M  V30 11411 O 1074.72 -1.91718 0.616957 0
M  V30 11412 C 1071.79 -3.18332 1.37351 0
M  V30 11413 C 1070.85 -3.42449 2.58896 0
M  V30 11414 C 1070.08 -4.72067 2.48976 0
M  V30 11415 O 1070.31 -5.49683 1.5233 0
M  V30 11416 O 1069.24 -4.97333 3.39033 0
M  V30 11417 H 1073.07 -1.80504 2.44238 0
M  V30 11418 H 1070.65 -0.834251 1.23938 0
M  V30 11419 H 1072.53 -3.99563 1.33893 0
M  V30 11420 H 1071.21 -3.20696 0.439965 0
M  V30 11421 H 1070.12 -2.61083 2.6793 0
M  V30 11422 H 1071.45 -3.44912 3.51136 0
M  V30 11423 N 1073.1 -1.28322 -0.914942 0
M  V30 11424 C 1074.06 -1.12169 -1.99877 0
M  V30 11425 C 1075.06 -0.0617252 -1.60681 0
M  V30 11426 O 1076.25 -0.307405 -1.71466 0
M  V30 11427 C 1073.39 -0.711959 -3.33383 0
M  V30 11428 H 1074.58 -2.08425 -2.15636 0
M  V30 11429 H 1072.13 -1.11291 -1.09745 0
M  V30 11430 H 1072.87 0.251418 -3.23324 0
M  V30 11431 H 1072.65 -1.47764 -3.63192 0
M  V30 11432 H 1074.14 -0.621558 -4.12948 0
M  V30 11433 N 1074.58 1.12322 -1.10551 0
M  V30 11434 C 1075.51 2.17221 -0.699299 0
M  V30 11435 C 1076.49 1.59809 0.299973 0
M  V30 11436 O 1077.67 1.87451 0.198589 0
M  V30 11437 C 1074.8 3.38685 -0.0320136 0
M  V30 11438 C 1073.85 4.14732 -0.99495 0
M  V30 11439 S 1074.68 4.72879 -2.51288 0
M  V30 11440 C 1075.84 5.97676 -1.85834 0
M  V30 11441 H 1076.07 2.51342 -1.5879 0
M  V30 11442 H 1073.6 1.23802 -0.92263 0
M  V30 11443 H 1075.56 4.09034 0.346656 0
M  V30 11444 H 1074.22 3.02842 0.833407 0
M  V30 11445 H 1073.41 5.01754 -0.475331 0
M  V30 11446 H 1073.02 3.50098 -1.31559 0
M  V30 11447 H 1075.31 6.6698 -1.18927 0
M  V30 11448 H 1076.25 6.54266 -2.70817 0
M  V30 11449 H 1076.66 5.48793 -1.32237 0
M  V30 11450 N 1076.06 0.894434 1.2976 0
M  V30 11451 C 1077.31 0.513673 1.95049 0
M  V30 11452 C 1077.62 -0.943744 1.71327 0
M  V30 11453 O 1078.82 -1.43179 2.30678 0
M  V30 11454 C 1077.28 0.867751 3.49282 0
M  V30 11455 C 1076.89 2.34358 3.81812 0
M  V30 11456 C 1078.63 0.556645 4.20835 0
M  V30 11457 C 1076.54 2.63879 5.29265 0
M  V30 11458 H 1075.47 0.188375 0.73009 0
M  V30 11459 H 1078.12 1.09071 1.47566 0
M  V30 11460 H 1076.5 0.2197 3.9539 0
M  V30 11461 H 1077.68 3.03674 3.46581 0
M  V30 11462 H 1075.99 2.62318 3.23386 0
M  V30 11463 H 1078.59 0.754123 5.29355 0
M  V30 11464 H 1078.93 -0.504526 4.13231 0
M  V30 11465 H 1079.46 1.1623 3.80441 0
M  V30 11466 H 1076.2 3.68774 5.41928 0
M  V30 11467 H 1075.72 1.99182 5.65762 0
M  V30 11468 H 1077.4 2.49871 5.96803 0
M  V30 11469 N 1077.53 -1.43282 0.656365 0
M  V30 11470 C 1078.44 -2.34576 -0.033864 0
M  V30 11471 C 1079.46 -1.5406 -0.808793 0
M  V30 11472 O 1080.64 -1.867 -0.755322 0
M  V30 11473 C 1077.7 -3.32378 -0.986197 0
M  V30 11474 C 1076.76 -4.28797 -0.207851 0
M  V30 11475 C 1076 -5.21927 -1.11482 0
M  V30 11476 O 1076.22 -5.19554 -2.35414 0
M  V30 11477 O 1075.15 -5.99045 -0.585536 0
M  V30 11478 H 1078.98 -2.95099 0.717668 0
M  V30 11479 H 1076.56 -1.43475 0.416556 0
M  V30 11480 H 1078.45 -3.9251 -1.53341 0
M  V30 11481 H 1077.12 -2.74354 -1.7179 0
M  V30 11482 H 1076.03 -3.72134 0.383022 0
M  V30 11483 H 1077.36 -4.89811 0.48435 0
M  V30 11484 N 1079.01 -0.398486 -1.52479 0
M  V30 11485 C 1080.26 0.181019 -2.0199 0
M  V30 11486 C 1080.59 1.45691 -1.28405 0
M  V30 11487 O 1079.87 1.90607 -0.387207 0
M  V30 11488 C 1080.15 0.439587 -3.57407 0
M  V30 11489 C 1080 -0.85223 -4.41653 0
M  V30 11490 C 1081.32 1.2263 -4.2267 0
M  V30 11491 H 1078.44 0.0643164 -0.734188 0
M  V30 11492 H 1081.08 -0.52986 -1.82462 0
M  V30 11493 H 1079.23 1.04516 -3.74177 0
M  V30 11494 H 1080.91 -1.48879 -4.36615 0
M  V30 11495 H 1079.15 -1.46555 -4.08294 0
M  V30 11496 H 1079.82 -0.625839 -5.48441 0
M  V30 11497 H 1082.3 0.713722 -4.09933 0
M  V30 11498 H 1081.17 1.37596 -5.31374 0
M  V30 11499 H 1081.43 2.24403 -3.80914 0
M  V30 11500 N 1080.49 1.57075 -0.12858 0
M  V30 11501 C 1081.44 2.17084 0.835308 0
M  V30 11502 C 1082.43 1.12268 1.26855 0
M  V30 11503 O 1083.64 1.30554 1.23917 0
M  V30 11504 H 1080.01 0.694866 0.287516 0
M  V30 11505 H 1081.99 2.96839 0.304798 0
M  V30 11506 C 1080.73 2.79237 2.07177 0
M  V30 11507 H 1080.06 3.59594 1.74735 0
M  V30 11508 H 1081.5 3.24751 2.72604 0
M  V30 11509 C 1079.96 1.76803 2.86779 0
M  V30 11510 O 1080.49 1.22723 3.82494 0
M  V30 11511 N 1078.69 1.46525 2.50956 0
M  V30 11512 H 1078.24 1.90694 1.73187 0
M  V30 11513 H 1078.2 0.782326 3.04511 0
M  V30 11514 N 1081.97 -0.145205 1.5693 0
M  V30 11515 C 1083.22 -0.855955 1.82637 0
M  V30 11516 C 1083.53 -1.82255 0.710109 0
M  V30 11517 O 1084.74 -2.57758 0.852837 0
M  V30 11518 C 1083.19 -1.57278 3.23715 0
M  V30 11519 C 1082.8 -0.648507 4.43281 0
M  V30 11520 C 1084.55 -2.27021 3.58695 0
M  V30 11521 C 1082.45 -1.36706 5.75383 0
M  V30 11522 H 1081.38 -0.323385 0.68113 0
M  V30 11523 H 1084.03 -0.10869 1.83178 0
M  V30 11524 H 1082.42 -2.36574 3.17567 0
M  V30 11525 H 1083.59 0.109355 4.6067 0
M  V30 11526 H 1081.9 -0.0594029 4.16358 0
M  V30 11527 H 1084.5 -2.81423 4.54648 0
M  V30 11528 H 1084.84 -3.03598 2.8484 0
M  V30 11529 H 1085.38 -1.54642 3.66512 0
M  V30 11530 H 1082.12 -0.6431 6.52338 0
M  V30 11531 H 1081.64 -2.09759 5.61926 0
M  V30 11532 H 1083.32 -1.90748 6.18243 0
M  V30 11533 N 1083.45 -1.52049 -0.414609 0
M  V30 11534 C 1084.4 -1.75603 -1.52533 0
M  V30 11535 C 1085.39 -0.622965 -1.57529 0
M  V30 11536 O 1086.6 -0.804886 -1.61002 0
M  V30 11537 H 1082.97 -0.555222 -0.507181 0
M  V30 11538 H 1084.94 -2.68666 -1.2985 0
M  V30 11539 C 1083.69 -1.9188 -2.89961 0
M  V30 11540 H 1083.01 -2.78483 -2.86857 0
M  V30 11541 H 1084.45 -2.12363 -3.66985 0
M  V30 11542 C 1082.91 -0.684453 -3.29874 0
M  V30 11543 O 1083.44 0.150256 -4.01419 0
M  V30 11544 N 1081.65 -0.521936 -2.85874 0
M  V30 11545 H 1081.2 -1.20229 -2.27822 0
M  V30 11546 H 1081.15 0.302655 -3.1294 0
M  V30 11547 N 1084.93 0.6715 -1.42579 0
M  V30 11548 C 1085.87 1.78496 -1.46314 0
M  V30 11549 C 1086.84 1.63091 -0.314743 0
M  V30 11550 O 1088.03 1.83597 -0.519292 0
M  V30 11551 C 1085.17 3.16548 -1.37447 0
M  V30 11552 C 1084.28 3.43216 -2.62348 0
M  V30 11553 C 1083.42 4.71014 -2.456 0
M  V30 11554 C 1082.45 4.90728 -3.65859 0
M  V30 11555 N 1081.59 6.09769 -3.48032 0
M  V30 11556 H 1086.43 1.74638 -2.41466 0
M  V30 11557 H 1083.97 0.852491 -1.19879 0
M  V30 11558 H 1085.93 3.96329 -1.30303 0
M  V30 11559 H 1084.56 3.19522 -0.458891 0
M  V30 11560 H 1083.61 2.57664 -2.79846 0
M  V30 11561 H 1084.92 3.53675 -3.51732 0
M  V30 11562 H 1084.07 5.58892 -2.3606 0
M  V30 11563 H 1082.81 4.62843 -1.53712 0
M  V30 11564 H 1081.82 4.01291 -3.75827 0
M  V30 11565 H 1083.04 5.00741 -4.58732 0
M  V30 11566 H 1080.99 6.02765 -2.58864 0
M  V30 11567 H 1080.91 6.21104 -4.31005 0
M  V30 11568 H 1082.17 7.00317 -3.42311 0
M  V30 11569 N 1086.4 1.28806 0.908124 0
M  V30 11570 C 1087.35 1.13083 2.03261 0
M  V30 11571 C 1088.35 0.0486094 1.6933 0
M  V30 11572 O 1089.55 0.207794 1.78797 0
M  V30 11573 H 1085.93 0.349057 0.666081 0
M  V30 11574 H 1087.9 2.08304 2.13663 0
M  V30 11575 C 1086.65 0.815339 3.38005 0
M  V30 11576 H 1085.97 1.64007 3.64612 0
M  V30 11577 H 1087.41 0.745311 4.17398 0
M  V30 11578 C 1085.87 -0.48113 3.33447 0
M  V30 11579 O 1086.4 -1.50974 3.7225 0
M  V30 11580 N 1084.6 -0.483912 2.86543 0
M  V30 11581 H 1084.15 0.353593 2.55162 0
M  V30 11582 H 1084.11 -1.35138 2.83875 0
M  V30 11583 N 1087.88 -1.11734 1.11145 0
M  V30 11584 C 1088.81 -2.1976 0.789152 0
M  V30 11585 C 1089.79 -1.68382 -0.241143 0
M  V30 11586 O 1090.98 -1.93914 -0.105292 0
M  V30 11587 C 1088.11 -3.46549 0.228204 0
M  V30 11588 C 1087.06 -4.11123 1.19002 0
M  V30 11589 C 1086.39 -5.32451 0.489928 0
M  V30 11590 C 1087.69 -4.56406 2.53951 0
M  V30 11591 H 1089.38 -2.46978 1.69241 0
M  V30 11592 H 1086.93 -1.18705 0.81517 0
M  V30 11593 H 1088.88 -4.21399 -0.00945908 0
M  V30 11594 H 1087.6 -3.18782 -0.71033 0
M  V30 11595 H 1086.26 -3.38264 1.41326 0
M  V30 11596 H 1085.91 -5.00953 -0.453315 0
M  V30 11597 H 1085.61 -5.76605 1.1314 0
M  V30 11598 H 1087.14 -6.10042 0.260984 0
M  V30 11599 H 1088.55 -5.22592 2.35733 0
M  V30 11600 H 1086.95 -5.11363 3.14051 0
M  V30 11601 H 1088.02 -3.7001 3.13402 0
M  V30 11602 N 1089.36 -0.901303 -1.29284 0
M  V30 11603 C 1090.61 -0.528826 -1.95784 0
M  V30 11604 C 1090.94 0.922833 -1.70873 0
M  V30 11605 O 1090.21 1.65448 -1.0226 0
M  V30 11606 C 1090.5 -0.823793 -3.50551 0
M  V30 11607 C 1090.35 -2.32727 -3.84913 0
M  V30 11608 C 1091.67 -0.311382 -4.38997 0
M  V30 11609 H 1088.79 -0.193604 -0.711116 0
M  V30 11610 H 1091.43 -1.12828 -1.52872 0
M  V30 11611 H 1089.58 -0.313612 -3.87232 0
M  V30 11612 H 1091.25 -2.90712 -3.58168 0
M  V30 11613 H 1089.49 -2.78735 -3.32399 0
M  V30 11614 H 1090.17 -2.48423 -4.9294 0
M  V30 11615 H 1092.64 -0.748265 -4.09317 0
M  V30 11616 H 1091.52 -0.546957 -5.46168 0
M  V30 11617 H 1091.78 0.787959 -4.35021 0
M  V30 11618 N 1090.84 1.42931 -0.663954 0
M  V30 11619 C 1092.09 2.01284 -0.181379 0
M  V30 11620 C 1092.41 1.52708 1.21265 0
M  V30 11621 O 1091.68 0.744181 1.81215 0
M  V30 11622 H 1090.26 0.744248 -0.0640646 0
M  V30 11623 H 1092.92 1.74997 -0.858031 0
M  V30 11624 H 1092.01 3.11613 -0.174273 0
M  V30 11625 N 1092.32 0.406567 1.52266 0
M  V30 11626 C 1093.54 -0.172101 2.06685 0
M  V30 11627 C 1093.97 -1.38306 1.27488 0
M  V30 11628 O 1093.32 -1.78726 0.304441 0
M  V30 11629 C 1093.37 -0.503463 3.57068 0
M  V30 11630 O 1092.48 -1.59485 3.80314 0
M  V30 11631 H 1091.82 -0.0153209 0.663823 0
M  V30 11632 H 1094.35 0.579025 1.96236 0
M  V30 11633 H 1094.36 -0.762833 4.00805 0
M  V30 11634 H 1093.03 0.381775 4.14144 0
M  V30 11635 H 1091.61 -1.32784 3.48458 0
M  V30 11636 N 1093.79 -1.57004 0.136909 0
M  V30 11637 C 1094.76 -2.15066 -0.792419 0
M  V30 11638 C 1095.76 -1.08991 -1.18226 0
M  V30 11639 O 1096.95 -1.34681 -1.10484 0
M  V30 11640 C 1094.08 -2.70554 -2.07397 0
M  V30 11641 H 1095.27 -2.98519 -0.28752 0
M  V30 11642 H 1092.83 -1.55895 -0.112469 0
M  V30 11643 H 1093.56 -1.90739 -2.62277 0
M  V30 11644 H 1093.35 -3.48149 -1.80374 0
M  V30 11645 H 1094.84 -3.15322 -2.73792 0
M  V30 11646 N 1095.27 0.136881 -1.57004 0
M  V30 11647 C 1096.21 1.19853 -1.94192 0
M  V30 11648 C 1097.18 1.4104 -0.809103 0
M  V30 11649 O 1098.37 1.55487 -1.06565 0
M  V30 11650 C 1095.49 2.55565 -2.22271 0
M  V30 11651 C 1094.54 2.50913 -3.44884 0
M  V30 11652 S 1095.37 1.96619 -4.98098 0
M  V30 11653 C 1096.53 3.34039 -5.2931 0
M  V30 11654 H 1096.76 0.881316 -2.83937 0
M  V30 11655 H 1094.3 0.342915 -1.50544 0
M  V30 11656 H 1096.25 3.33659 -2.39127 0
M  V30 11657 H 1094.91 2.84472 -1.33172 0
M  V30 11658 H 1094.11 3.50839 -3.6184 0
M  V30 11659 H 1093.71 1.80932 -3.27322 0
M  V30 11660 H 1096 4.30189 -5.23397 0
M  V30 11661 H 1096.94 3.21927 -6.30689 0
M  V30 11662 H 1097.35 3.31642 -4.56808 0
M  V30 11663 N 1096.75 1.52266 0.40654 0
M  V30 11664 C 1097.71 1.75168 1.47814 0
M  V30 11665 C 1098.71 0.621575 1.48301 0
M  V30 11666 O 1099.9 0.889476 1.4978 0
M  V30 11667 C 1097.04 1.83642 2.87208 0
M  V30 11668 H 1098.23 2.70834 1.28798 0
M  V30 11669 H 1095.78 1.42722 0.637196 0
M  V30 11670 H 1096.52 0.898994 3.1159 0
M  V30 11671 H 1096.3 2.65801 2.88257 0
M  V30 11672 H 1097.79 2.03093 3.64888 0
M  V30 11673 N 1098.23 -0.663929 1.42933 0
M  V30 11674 C 1099.48 -1.42111 1.43697 0
M  V30 11675 C 1099.8 -1.94913 0.0583858 0
M  V30 11676 O 1099.07 -1.73757 -0.904719 0
M  V30 11677 H 1097.65 -0.527391 0.529026 0
M  V30 11678 H 1100.31 -0.783766 1.78446 0
M  V30 11679 H 1099.41 -2.26877 2.1432 0
M  V30 11680 N 1099.71 -1.29285 -0.901281 0
M  V30 11681 C 1100.93 -1.20169 -1.69039 0
M  V30 11682 C 1101.36 0.234509 -1.86632 0
M  V30 11683 O 1100.71 1.16935 -1.38549 0
M  V30 11684 C 1100.76 -1.91852 -3.05328 0
M  V30 11685 O 1099.87 -1.23448 -3.9349 0
M  V30 11686 H 1099.21 -0.416486 -0.517141 0
M  V30 11687 H 1101.74 -1.70826 -1.12603 0
M  V30 11688 H 1101.75 -2.00244 -3.5548 0
M  V30 11689 H 1100.42 -2.96313 -2.91841 0
M  V30 11690 H 1099 -1.23303 -3.51924 0
M  V30 11691 N 1101.18 1.11143 -1.11736 0
M  V30 11692 C 1102.43 1.82311 -0.862875 0
M  V30 11693 C 1102.75 1.85735 0.613326 0
M  V30 11694 O 1103.95 2.53034 0.984168 0
M  V30 11695 C 1102.41 3.27427 -1.49396 0
M  V30 11696 C 1102.02 3.32323 -3.00443 0
M  V30 11697 C 1103.76 4.03474 -1.31944 0
M  V30 11698 C 1101.67 4.71855 -3.56521 0
M  V30 11699 H 1100.6 0.683124 -0.31915 0
M  V30 11700 H 1103.25 1.25045 -1.34298 0
M  V30 11701 H 1101.63 3.84644 -0.941528 0
M  V30 11702 H 1102.8 2.84971 -3.62117 0
M  V30 11703 H 1101.12 2.69758 -3.17206 0
M  V30 11704 H 1103.72 5.06528 -1.71271 0
M  V30 11705 H 1104.06 4.15473 -0.262339 0
M  V30 11706 H 1104.59 3.52652 -1.84069 0
M  V30 11707 H 1101.33 4.65054 -4.61958 0
M  V30 11708 H 1100.85 5.19604 -2.99619 0
M  V30 11709 H 1102.53 5.40816 -3.55144 0
M  V30 11710 N 1102.66 0.908147 1.28804 0
M  V30 11711 C 1103.91 0.53734 1.94826 0
M  V30 11712 C 1104.23 -0.920962 1.71882 0
M  V30 11713 O 1103.5 -1.65043 1.05534 0
M  V30 11714 H 1102.08 0.195729 0.720902 0
M  V30 11715 H 1104.74 1.15628 1.56895 0
M  V30 11716 H 1103.84 0.727052 3.03513 0
M  V30 11717 N 1104.14 -1.42577 0.671525 0
M  V30 11718 C 1105.39 -2.01185 0.192051 0
M  V30 11719 C 1105.71 -1.53349 -1.20454 0
M  V30 11720 O 1104.98 -0.753781 -1.80817 0
M  V30 11721 H 1103.56 -0.743898 0.0680106 0
M  V30 11722 H 1106.22 -1.74539 0.8673 0
M  V30 11723 H 1105.32 -3.11516 0.190796 0
M  V30 11724 N 1105.62 -0.414636 -1.52048 0
M  V30 11725 C 1106.85 0.158456 -2.05991 0
M  V30 11726 C 1107.26 1.38947 -1.28415 0
M  V30 11727 O 1106.6 1.80698 -0.330728 0
M  V30 11728 C 1106.66 0.568392 -3.54978 0
M  V30 11729 C 1106.33 -0.552654 -4.53646 0
M  V30 11730 C 1107.32 -1.41791 -5.00191 0
M  V30 11731 C 1105.01 -0.726917 -4.97012 0
M  V30 11732 C 1107 -2.44234 -5.88752 0
M  V30 11733 C 1104.69 -1.75464 -5.85368 0
M  V30 11734 C 1105.69 -2.61075 -6.31133 0
M  V30 11735 O 1105.37 -3.62087 -7.17738 0
M  V30 11736 H 1105.11 0.0214746 -0.675659 0
M  V30 11737 H 1107.66 -0.585825 -1.96869 0
M  V30 11738 H 1105.89 1.36504 -3.61806 0
M  V30 11739 H 1107.58 1.07003 -3.91542 0
M  V30 11740 H 1108.35 -1.29471 -4.67399 0
M  V30 11741 H 1104.22 -0.0701964 -4.60947 0
M  V30 11742 H 1107.77 -3.1109 -6.24395 0
M  V30 11743 H 1103.67 -1.87813 -6.17573 0
M  V30 11744 H 1104.43 -3.58396 -7.35863 0
M  V30 11745 N 1107.1 1.56929 -0.145233 0
M  V30 11746 C 1108.04 2.17958 0.812237 0
M  V30 11747 C 1109.04 1.13608 1.25657 0
M  V30 11748 O 1110.24 1.31861 1.22526 0
M  V30 11749 H 1106.62 0.697876 0.28013 0
M  V30 11750 H 1108.59 2.97146 0.273297 0
M  V30 11751 C 1107.34 2.81418 2.04203 0
M  V30 11752 H 1106.66 3.61427 1.70911 0
M  V30 11753 H 1108.1 3.27624 2.69144 0
M  V30 11754 C 1106.56 1.79835 2.84888 0
M  V30 11755 O 1107.09 1.26773 3.81171 0
M  V30 11756 N 1105.3 1.49179 2.49387 0
M  V30 11757 H 1104.84 1.9252 1.71154 0
M  V30 11758 H 1104.8 0.81458 3.03664 0
M  V30 11759 N 1108.58 -0.128553 1.57075 0
M  V30 11760 C 1109.54 -1.14215 1.98715 0
M  V30 11761 C 1110.54 -1.34843 0.876019 0
M  V30 11762 O 1111.73 -1.31522 1.14227 0
M  V30 11763 C 1108.86 -2.49865 2.31905 0
M  V30 11764 H 1110.05 -0.784481 2.89458 0
M  V30 11765 H 1107.61 -0.372531 1.51796 0
M  V30 11766 H 1108.34 -2.9057 1.44012 0
M  V30 11767 H 1108.13 -2.3625 3.12935 0
M  V30 11768 H 1109.62 -3.22832 2.64895 0
M  V30 11769 N 1110.05 -1.5248 -0.398459 0
M  V30 11770 C 1111 -1.72965 -1.4855 0
M  V30 11771 C 1111.99 -0.583628 -1.49942 0
M  V30 11772 O 1113.18 -0.841106 -1.55738 0
M  V30 11773 C 1110.31 -1.89339 -2.86366 0
M  V30 11774 C 1109.39 -3.09845 -2.8958 0
M  V30 11775 N 1109.79 -4.32365 -2.62477 0
M  V30 11776 C 1108.08 -3.09897 -3.20749 0
M  V30 11777 C 1108.78 -5.13908 -2.72532 0
M  V30 11778 N 1107.76 -4.49387 -3.05864 0
M  V30 11779 H 1111.56 -2.65327 -1.26406 0
M  V30 11780 H 1109.08 -1.50658 -0.606299 0
M  V30 11781 H 1111.07 -2.02134 -3.64619 0
M  V30 11782 H 1109.73 -0.981841 -3.095 0
M  V30 11783 H 1110.74 -4.60659 -2.36673 0
M  V30 11784 H 1107.42 -2.28518 -3.49408 0
M  V30 11785 H 1108.81 -6.21548 -2.55202 0
M  V30 11786 N 1111.53 0.65634 -1.43283 0
M  V30 11787 C 1112.49 1.75117 -1.47874 0
M  V30 11788 C 1113.49 1.56629 -0.363846 0
M  V30 11789 O 1114.68 1.62584 -0.625464 0
M  V30 11790 C 1111.82 3.13957 -1.32831 0
M  V30 11791 H 1113.01 1.72429 -2.45374 0
M  V30 11792 H 1110.56 0.867704 -1.30002 0
M  V30 11793 H 1111.3 3.22259 -0.36326 0
M  V30 11794 H 1111.08 3.28781 -2.13649 0
M  V30 11795 H 1112.57 3.93799 -1.38969 0
M  V30 11796 N 1113.01 1.29761 0.894412 0
M  V30 11797 C 1113.97 1.15335 1.98067 0
M  V30 11798 C 1114.97 0.0872804 1.60563 0
M  V30 11799 O 1116.16 0.334645 1.70955 0
M  V30 11800 C 1113.29 0.764907 3.32208 0
M  V30 11801 H 1114.49 2.11829 2.12293 0
M  V30 11802 H 1112.04 1.13023 1.0796 0
M  V30 11803 H 1112.78 -0.199948 3.23683 0
M  V30 11804 H 1112.56 1.53523 3.60795 0
M  V30 11805 H 1114.05 0.687176 4.11907 0
M  V30 11806 N 1114.49 -1.10549 1.12324 0
M  V30 11807 C 1115.44 -2.18944 0.785248 0
M  V30 11808 C 1116.43 -1.67867 -0.227389 0
M  V30 11809 O 1117.64 -1.79796 -0.0857162 0
M  V30 11810 H 1114.01 -0.713976 0.236098 0
M  V30 11811 H 1115.98 -2.44692 1.70788 0
M  V30 11812 C 1114.73 -3.46765 0.25485 0
M  V30 11813 H 1114.05 -3.86428 1.02534 0
M  V30 11814 H 1115.49 -4.23962 0.0566526 0
M  V30 11815 C 1113.95 -3.21185 -1.01695 0
M  V30 11816 O 1114.48 -3.42745 -2.09497 0
M  V30 11817 N 1112.69 -2.7486 -0.943423 0
M  V30 11818 H 1112.24 -2.57515 -0.0660366 0
M  V30 11819 H 1112.19 -2.58122 -1.795 0
M  V30 11820 N 1115.97 -0.914965 -1.28321 0
M  V30 11821 C 1117.21 -0.544639 -1.94208 0
M  V30 11822 C 1117.53 0.916368 -1.72806 0
M  V30 11823 O 1118.73 1.39491 -2.32926 0
M  V30 11824 C 1117.19 -0.923209 -3.47858 0
M  V30 11825 C 1116.8 -2.40403 -3.78035 0
M  V30 11826 C 1118.54 -0.623526 -4.19896 0
M  V30 11827 C 1116.45 -2.72266 -5.25 0
M  V30 11828 H 1115.38 -0.199966 -0.727 0
M  V30 11829 H 1118.03 -1.11405 -1.45812 0
M  V30 11830 H 1116.41 -0.282576 -3.94991 0
M  V30 11831 H 1117.59 -3.09149 -3.41706 0
M  V30 11832 H 1115.9 -2.67429 -3.19172 0
M  V30 11833 H 1118.5 -0.838243 -5.28089 0
M  V30 11834 H 1118.84 0.438721 -4.13982 0
M  V30 11835 H 1119.37 -1.22268 -3.78544 0
M  V30 11836 H 1116.11 -3.77349 -5.35993 0
M  V30 11837 H 1115.63 -2.08157 -5.62522 0
M  V30 11838 H 1117.31 -2.59334 -5.92752 0
M  V30 11839 N 1117.44 1.42219 -0.679077 0
M  V30 11840 C 1118.69 2.01777 -0.20342 0
M  V30 11841 C 1119.02 1.53592 1.18841 0
M  V30 11842 O 1118.3 0.739954 1.79875 0
M  V30 11843 C 1118.58 3.59281 -0.242791 0
M  V30 11844 C 1118.43 4.17634 -1.67038 0
M  V30 11845 C 1119.75 4.38218 0.406624 0
M  V30 11846 H 1116.87 0.733134 -0.0753916 0
M  V30 11847 H 1119.51 1.69185 -0.864673 0
M  V30 11848 H 1117.66 3.87178 0.320248 0
M  V30 11849 H 1119.34 4.00674 -2.286 0
M  V30 11850 H 1117.58 3.73301 -2.20973 0
M  V30 11851 H 1118.25 5.26776 -1.64958 0
M  V30 11852 H 1120.73 4.16036 -0.0727077 0
M  V30 11853 H 1119.6 5.47793 0.348457 0
M  V30 11854 H 1119.86 4.16418 1.48487 0
M  V30 11855 N 1118.92 0.422693 1.51826 0
M  V30 11856 C 1120.15 -0.147744 2.06372 0
M  V30 11857 C 1120.56 -1.37714 1.29152 0
M  V30 11858 O 1119.92 -1.7917 0.347046 0
M  V30 11859 C 1119.97 -0.484642 3.58237 0
M  V30 11860 O 1119.69 0.695944 4.32537 0
M  V30 11861 C 1121.19 -1.10734 4.29247 0
M  V30 11862 H 1118.41 -0.0144047 0.670845 0
M  V30 11863 H 1120.96 0.597558 1.95575 0
M  V30 11864 H 1119.11 -1.17984 3.68997 0
M  V30 11865 H 1119.53 0.411471 5.22884 0
M  V30 11866 H 1121 -1.29318 5.36639 0
M  V30 11867 H 1121.48 -2.08429 3.86593 0
M  V30 11868 H 1122.08 -0.451958 4.22892 0
M  V30 11869 N 1120.4 -1.5685 0.153553 0
M  V30 11870 C 1121.36 -2.15894 -0.769564 0
M  V30 11871 C 1122.36 -1.10239 -1.17064 0
M  V30 11872 O 1123.55 -1.35845 -1.09049 0
M  V30 11873 C 1120.68 -2.72738 -2.04516 0
M  V30 11874 H 1121.88 -2.98807 -0.255842 0
M  V30 11875 H 1119.43 -1.56005 -0.0959279 0
M  V30 11876 H 1120.17 -1.9351 -2.60239 0
M  V30 11877 H 1119.95 -3.50042 -1.76672 0
M  V30 11878 H 1121.44 -3.18208 -2.70432 0
M  V30 11879 N 1121.88 0.120221 -1.57141 0
M  V30 11880 C 1123.13 0.826791 -1.83976 0
M  V30 11881 C 1123.44 1.81102 -0.739014 0
M  V30 11882 O 1124.65 2.56368 -0.893736 0
M  V30 11883 C 1123.1 1.52108 -3.26176 0
M  V30 11884 C 1122.71 0.577902 -4.44257 0
M  V30 11885 C 1124.45 2.21286 -3.62261 0
M  V30 11886 C 1122.36 1.27535 -5.77485 0
M  V30 11887 H 1121.29 0.312508 -0.686189 0
M  V30 11888 H 1123.94 0.0795343 -1.83328 0
M  V30 11889 H 1122.32 2.31492 -3.2129 0
M  V30 11890 H 1123.5 -0.182629 -4.60438 0
M  V30 11891 H 1121.81 -0.00684348 -4.16399 0
M  V30 11892 H 1124.41 2.74154 -4.59068 0
M  V30 11893 H 1124.75 2.99029 -2.89634 0
M  V30 11894 H 1125.29 1.48791 -3.68925 0
M  V30 11895 H 1122.02 0.539237 -6.53278 0
M  V30 11896 H 1121.54 2.00792 -5.65192 0
M  V30 11897 H 1123.22 1.80888 -6.21199 0
M  V30 11898 N 1123.36 1.52689 0.390367 0
M  V30 11899 C 1124.59 1.71292 1.1551 0
M  V30 11900 C 1124.99 0.430405 1.84239 0
M  V30 11901 O 1124.34 -0.604823 1.73458 0
M  V30 11902 C 1124.4 2.80597 2.24735 0
M  V30 11903 C 1124.06 4.21757 1.75984 0
M  V30 11904 C 1125.06 5.04961 1.23733 0
M  V30 11905 C 1122.75 4.68071 1.82248 0
M  V30 11906 C 1124.74 6.32561 0.783926 0
M  V30 11907 C 1122.43 5.95656 1.36519 0
M  V30 11908 C 1123.42 6.7773 0.846786 0
M  V30 11909 O 1123.11 8.02923 0.396164 0
M  V30 11910 H 1122.84 0.576906 0.352356 0
M  V30 11911 H 1125.4 2.00117 0.462865 0
M  V30 11912 H 1123.63 2.4719 2.97378 0
M  V30 11913 H 1125.32 2.87616 2.86412 0
M  V30 11914 H 1126.08 4.70363 1.18251 0
M  V30 11915 H 1121.96 4.04278 2.21541 0
M  V30 11916 H 1125.51 6.96572 0.378612 0
M  V30 11917 H 1121.4 6.29758 1.41686 0
M  V30 11918 H 1122.17 8.16861 0.517766 0
M  V30 11919 N 1124.83 -0.648732 1.43629 0
M  V30 11920 C 1126.08 -1.40446 1.44768 0
M  V30 11921 C 1126.4 -1.95447 0.0773445 0
M  V30 11922 O 1127.6 -2.71479 -0.0337942 0
M  V30 11923 C 1126.06 -2.54194 2.54781 0
M  V30 11924 C 1125.67 -2.05781 3.97942 0
M  V30 11925 C 1127.41 -3.31529 2.65121 0
M  V30 11926 C 1125.32 -3.16767 4.99412 0
M  V30 11927 H 1124.25 -0.527717 0.538545 0
M  V30 11928 H 1126.9 -0.699756 1.69634 0
M  V30 11929 H 1125.28 -3.27156 2.23125 0
M  V30 11930 H 1126.45 -1.398 4.39081 0
M  V30 11931 H 1124.77 -1.41312 3.91688 0
M  V30 11932 H 1127.37 -4.14233 3.38105 0
M  V30 11933 H 1127.71 -3.79855 1.70341 0
M  V30 11934 H 1128.24 -2.65649 2.961 0
M  V30 11935 H 1124.98 -2.73404 5.9576 0
M  V30 11936 H 1124.5 -3.81445 4.62882 0
M  V30 11937 H 1126.18 -3.81827 5.22319 0
M  V30 11938 N 1126.31 -1.30234 -0.887518 0
M  V30 11939 C 1127.28 -1.16384 -1.97452 0
M  V30 11940 C 1128.28 -0.0957942 -1.60514 0
M  V30 11941 O 1129.47 -0.343706 -1.70776 0
M  V30 11942 C 1126.6 -0.782514 -3.31797 0
M  V30 11943 H 1127.79 -2.12952 -2.11167 0
M  V30 11944 H 1125.34 -1.13594 -1.07359 0
M  V30 11945 H 1126.08 0.18278 -3.23785 0
M  V30 11946 H 1125.86 -1.55434 -3.59976 0
M  V30 11947 H 1127.35 -0.709011 -4.11537 0
M  V30 11948 N 1127.79 1.09952 -1.12909 0
M  V30 11949 C 1129.03 1.83635 -0.897646 0
M  V30 11950 C 1129.39 1.83462 0.566179 0
M  V30 11951 O 1130.6 2.52748 0.914977 0
M  V30 11952 C 1128.87 3.26095 -1.46277 0
M  V30 11953 S 1130.43 4.16846 -1.37059 0
M  V30 11954 H 1127.24 0.633045 -0.32369 0
M  V30 11955 H 1129.85 1.32275 -1.43957 0
M  V30 11956 H 1128.55 3.23793 -2.52163 0
M  V30 11957 H 1128.08 3.82526 -0.918549 0
M  V30 11958 H 1130.1 4.94996 -0.345399 0
M  V30 11959 N 1129.27 0.921757 1.27833 0
M  V30 11960 C 1130.52 0.557974 1.94245 0
M  V30 11961 C 1130.84 -0.90268 1.72849 0
M  V30 11962 O 1130.11 -1.63915 1.07279 0
M  V30 11963 H 1128.69 0.203364 0.718785 0
M  V30 11964 H 1131.35 1.17286 1.5566 0
M  V30 11965 H 1130.45 0.759202 3.02725 0
M  V30 11966 N 1130.75 -1.41857 0.686609 0
M  V30 11967 C 1131.68 -2.29188 -0.0234289 0
M  V30 11968 C 1132.69 -1.44311 -0.753541 0
M  V30 11969 O 1133.88 -1.67908 -0.605734 0
M  V30 11970 C 1130.98 -3.21991 -1.05713 0
M  V30 11971 C 1130.15 -4.35581 -0.398453 0
M  V30 11972 C 1129.21 -5.09022 -1.33354 0
M  V30 11973 O 1128.24 -5.63126 -0.829334 0
M  V30 11974 N 1129.44 -5.15643 -2.66632 0
M  V30 11975 H 1132.21 -2.90766 0.726295 0
M  V30 11976 H 1129.77 -1.52912 0.531937 0
M  V30 11977 H 1131.76 -3.6799 -1.68421 0
M  V30 11978 H 1130.33 -2.61782 -1.70847 0
M  V30 11979 H 1129.55 -3.92079 0.408358 0
M  V30 11980 H 1130.84 -5.08765 0.0599239 0
M  V30 11981 H 1130.23 -4.73118 -3.10122 0
M  V30 11982 H 1128.79 -5.65248 -3.24558 0
M  V30 11983 N 1132.22 -0.430739 -1.51599 0
M  V30 11984 C 1133.5 0.197543 -1.946 0
M  V30 11985 C 1133.88 1.6069 -1.36901 0
M  V30 11986 O 1133.23 2.21697 -0.553422 0
M  V30 11987 C 1133.44 0.181976 -3.48525 0
M  V30 11988 C 1134.79 0.390783 -4.22798 0
M  V30 11989 O 1135.81 0.260384 -3.55247 0
M  V30 11990 O 1134.67 0.649701 -5.42624 0
M  V30 11991 H 1131.76 0.133524 -0.81615 0
M  V30 11992 H 1134.31 -0.488243 -1.62525 0
M  V30 11993 H 1133.08 -0.803584 -3.8296 0
M  V30 11994 H 1132.71 0.910952 -3.87024 0
M  V30 11995 N 1133.7 1.56767 -0.161869 0
M  V30 11996 C 1134.67 2.16299 0.758104 0
M  V30 11997 C 1135.67 1.10859 1.16478 0
M  V30 11998 O 1136.86 1.36422 1.08327 0
M  V30 11999 C 1133.99 2.73819 2.03067 0
M  V30 12000 H 1135.18 2.98938 0.239992 0
M  V30 12001 H 1132.73 1.56054 0.0876532 0
M  V30 12002 H 1133.47 1.94887 2.59209 0
M  V30 12003 H 1133.25 3.50974 1.74813 0
M  V30 12004 H 1134.74 3.19638 2.68741 0
M  V30 12005 N 1135.18 -0.111886 1.57202 0
M  V30 12006 C 1136.14 -1.12101 1.99915 0
M  V30 12007 C 1137.14 -1.33906 0.890272 0
M  V30 12008 O 1138.33 -1.30303 1.15615 0
M  V30 12009 C 1135.47 -2.47392 2.34543 0
M  V30 12010 H 1136.66 -0.753736 2.90274 0
M  V30 12011 H 1134.21 -0.35641 1.52182 0
M  V30 12012 H 1134.95 -2.89026 1.47086 0
M  V30 12013 H 1134.73 -2.32917 3.15423 0
M  V30 12014 H 1136.22 -3.20004 2.68304 0
M  V30 12015 N 1136.66 -1.52894 -0.382264 0
M  V30 12016 C 1137.59 -1.74413 -1.48703 0
M  V30 12017 C 1138.6 -0.624663 -1.50339 0
M  V30 12018 O 1139.79 -0.900527 -1.54119 0
M  V30 12019 C 1136.89 -1.79387 -2.8753 0
M  V30 12020 C 1136.07 -3.08794 -3.09783 0
M  V30 12021 C 1135.12 -3.05226 -4.2863 0
M  V30 12022 O 1134.15 -3.79073 -4.24609 0
M  V30 12023 N 1135.35 -2.2488 -5.35172 0
M  V30 12024 H 1138.12 -2.69734 -1.30628 0
M  V30 12025 H 1135.68 -1.51465 -0.571842 0
M  V30 12026 H 1137.67 -1.74498 -3.65147 0
M  V30 12027 H 1136.24 -0.914233 -2.98932 0
M  V30 12028 H 1135.46 -3.27118 -2.19971 0
M  V30 12029 H 1136.75 -3.94347 -3.21509 0
M  V30 12030 H 1136.15 -1.64363 -5.41296 0
M  V30 12031 H 1134.7 -2.25825 -6.1143 0
M  V30 12032 N 1138.14 0.641106 -1.43971 0
M  V30 12033 C 1139.09 1.77474 -1.50352 0
M  V30 12034 C 1140.08 1.65173 -0.376052 0
M  V30 12035 O 1141.29 1.71373 -0.550572 0
M  V30 12036 H 1137.66 0.585747 -0.471597 0
M  V30 12037 H 1139.63 1.69213 -2.45784 0
M  V30 12038 C 1138.38 3.15778 -1.45532 0
M  V30 12039 H 1137.7 3.25886 -2.316 0
M  V30 12040 H 1139.14 3.95022 -1.54058 0
M  V30 12041 C 1137.6 3.36447 -0.174624 0
M  V30 12042 O 1138.13 3.9446 0.759215 0
M  V30 12043 N 1136.34 2.90487 -0.0809383 0
M  V30 12044 H 1135.89 2.43461 -0.841691 0
M  V30 12045 H 1135.84 3.04693 0.775231 0
M  V30 12046 N 1139.62 1.30703 0.880598 0
M  V30 12047 C 1140.86 1.19955 1.63519 0
M  V30 12048 C 1141.19 -0.244214 1.92658 0
M  V30 12049 O 1140.47 -1.17412 1.55063 0
M  V30 12050 C 1140.75 2.03302 2.97221 0
M  V30 12051 C 1140.61 3.55921 2.75028 0
M  V30 12052 C 1141.92 1.87421 3.98198 0
M  V30 12053 H 1139.04 0.43712 0.593376 0
M  V30 12054 H 1141.69 1.60382 1.01871 0
M  V30 12055 H 1139.84 1.68953 3.49839 0
M  V30 12056 H 1141.51 4.00352 2.29164 0
M  V30 12057 H 1139.75 3.79885 2.09452 0
M  V30 12058 H 1140.42 4.09533 3.70117 0
M  V30 12059 H 1142.9 2.17459 3.54755 0
M  V30 12060 H 1141.77 2.48057 4.89652 0
M  V30 12061 H 1142.03 0.834563 4.34151 0
M  V30 12062 N 1141.09 -1.09351 1.1349 0
M  V30 12063 C 1142.34 -1.81185 0.89535 0
M  V30 12064 C 1142.66 -1.86173 -0.580048 0
M  V30 12065 O 1141.93 -1.34784 -1.42162 0
M  V30 12066 H 1140.51 -0.671011 0.328257 0
M  V30 12067 H 1143.17 -1.32255 1.43159 0
M  V30 12068 H 1142.27 -2.84339 1.28676 0
M  V30 12069 N 1142.57 -0.928524 -1.27343 0
M  V30 12070 C 1143.8 -0.58516 -1.98974 0
M  V30 12071 C 1144.22 0.829964 -1.68799 0
M  V30 12072 O 1143.58 1.55705 -0.928738 0
M  V30 12073 C 1143.63 -0.818662 -3.51184 0
M  V30 12074 O 1142.73 0.115355 -4.12239 0
M  V30 12075 H 1142.07 -0.225203 -0.624644 0
M  V30 12076 H 1144.6 -1.248 -1.6213 0
M  V30 12077 H 1144.61 -0.734554 -4.01333 0
M  V30 12078 H 1143.29 -1.8502 -3.72479 0
M  V30 12079 H 1141.86 -0.0187371 -3.72895 0
M  V30 12080 N 1144.05 1.41491 -0.694123 0
M  V30 12081 C 1145.27 2.06099 -0.23197 0
M  V30 12082 C 1145.7 1.51888 1.10958 0
M  V30 12083 O 1145.06 0.645247 1.69429 0
M  V30 12084 C 1145.11 3.60053 -0.198522 0
M  V30 12085 O 1144.21 4.04021 0.827067 0
M  V30 12086 H 1143.55 0.654193 -0.113699 0
M  V30 12087 H 1146.08 1.81282 -0.948575 0
M  V30 12088 H 1146.09 4.0799 -0.0288904 0
M  V30 12089 H 1144.77 3.98879 -1.17764 0
M  V30 12090 H 1143.34 3.67593 0.626908 0
M  V30 12091 N 1145.53 0.438773 1.51369 0
M  V30 12092 C 1146.48 -0.386324 2.29369 0
M  V30 12093 C 1147.47 -1.0196 1.3528 0
M  V30 12094 O 1148.68 -0.9544 1.52615 0
M  V30 12095 H 1145.05 -0.143397 0.738201 0
M  V30 12096 H 1147.02 0.292372 2.96964 0
M  V30 12097 C 1145.77 -1.47426 3.14898 0
M  V30 12098 H 1145.09 -0.996335 3.87186 0
M  V30 12099 H 1146.53 -2.02481 3.72529 0
M  V30 12100 C 1144.99 -2.45831 2.30366 0
M  V30 12101 O 1145.52 -3.50398 1.96428 0
M  V30 12102 N 1143.73 -2.16754 1.93561 0
M  V30 12103 H 1143.28 -1.31748 2.2136 0
M  V30 12104 H 1143.23 -2.82836 1.373 0
M  V30 12105 N 1147.01 -1.56678 0.170181 0
M  V30 12106 C 1148.25 -1.98743 -0.477534 0
M  V30 12107 C 1148.61 -1.0538 -1.60497 0
M  V30 12108 O 1149.81 -1.3658 -2.31515 0
M  V30 12109 C 1148.08 -3.44565 -0.949186 0
M  V30 12110 S 1149.64 -4.08658 -1.59824 0
M  V30 12111 H 1146.46 -0.694202 -0.153639 0
M  V30 12112 H 1149.06 -1.93663 0.267373 0
M  V30 12113 H 1147.76 -4.1023 -0.118205 0
M  V30 12114 H 1147.3 -3.53409 -1.72816 0
M  V30 12115 H 1149.31 -4.03614 -2.88635 0
M  V30 12116 N 1148.48 0.103547 -1.57259 0
M  V30 12117 C 1149.73 0.807231 -1.84842 0
M  V30 12118 C 1150.05 1.80308 -0.758181 0
M  V30 12119 O 1151.25 2.55406 -0.920877 0
M  V30 12120 C 1149.71 1.4864 -3.27771 0
M  V30 12121 C 1149.32 0.53075 -4.44845 0
M  V30 12122 C 1151.06 2.17431 -3.64587 0
M  V30 12123 C 1148.97 1.21403 -5.78805 0
M  V30 12124 H 1147.9 0.305212 -0.689465 0
M  V30 12125 H 1150.55 0.0600855 -1.83402 0
M  V30 12126 H 1148.93 2.28071 -3.23728 0
M  V30 12127 H 1150.1 -0.231455 -4.60218 0
M  V30 12128 H 1148.42 -0.0510078 -4.16369 0
M  V30 12129 H 1151.02 2.6927 -4.6195 0
M  V30 12130 H 1151.36 2.9594 -2.92789 0
M  V30 12131 H 1151.89 1.4487 -3.70483 0
M  V30 12132 H 1148.63 0.469918 -6.53813 0
M  V30 12133 H 1148.15 1.94787 -5.6729 0
M  V30 12134 H 1149.83 1.74289 -6.23083 0
M  V30 12135 N 1149.96 1.53094 0.37415 0
M  V30 12136 C 1151.19 1.72758 1.13852 0
M  V30 12137 C 1151.6 0.452638 1.83294 0
M  V30 12138 O 1150.96 -0.573906 1.73241 0
M  V30 12139 C 1151.01 2.88724 2.17534 0
M  V30 12140 O 1150.73 4.11284 1.5092 0
M  V30 12141 C 1152.23 3.2019 3.06584 0
M  V30 12142 H 1149.45 0.578028 0.340771 0
M  V30 12143 H 1152 1.99805 0.435683 0
M  V30 12144 H 1150.15 2.64096 2.83429 0
M  V30 12145 H 1150.57 4.76162 2.19932 0
M  V30 12146 H 1152.04 4.04759 3.75332 0
M  V30 12147 H 1152.52 2.35193 3.70919 0
M  V30 12148 H 1153.12 3.46712 2.46315 0
M  V30 12149 N 1151.44 -0.633461 1.44309 0
M  V30 12150 C 1152.37 -1.75676 1.53819 0
M  V30 12151 C 1153.35 -1.65537 0.391365 0
M  V30 12152 O 1154.54 -1.84332 0.611181 0
M  V30 12153 C 1151.67 -3.14197 1.47979 0
M  V30 12154 C 1150.62 -3.39122 2.61113 0
M  V30 12155 C 1149.95 -4.77648 2.40325 0
M  V30 12156 C 1151.25 -3.31914 4.03274 0
M  V30 12157 H 1152.94 -1.67974 2.47841 0
M  V30 12158 H 1150.49 -0.8067 1.19283 0
M  V30 12159 H 1152.44 -3.92553 1.53233 0
M  V30 12160 H 1151.16 -3.22677 0.504718 0
M  V30 12161 H 1149.82 -2.63145 2.55245 0
M  V30 12162 H 1149.47 -4.82829 1.41016 0
M  V30 12163 H 1149.17 -4.95284 3.16177 0
M  V30 12164 H 1150.69 -5.58237 2.47394 0
M  V30 12165 H 1152.11 -4.00178 4.10524 0
M  V30 12166 H 1150.5 -3.61085 4.7931 0
M  V30 12167 H 1151.57 -2.29761 4.2701 0
M  V30 12168 N 1152.92 -1.31168 -0.873655 0
M  V30 12169 C 1153.85 -1.12836 -1.98351 0
M  V30 12170 C 1154.83 -0.0328679 -1.62567 0
M  V30 12171 O 1156.01 -0.18859 -1.87554 0
M  V30 12172 C 1153.14 -0.72332 -3.30886 0
M  V30 12173 C 1152.19 -1.82132 -3.85656 0
M  V30 12174 S 1153.02 -3.42604 -4.11562 0
M  V30 12175 C 1154.18 -3.04028 -5.471 0
M  V30 12176 H 1154.41 -2.06793 -2.13597 0
M  V30 12177 H 1151.94 -1.15611 -1.0234 0
M  V30 12178 H 1153.9 -0.496371 -4.07488 0
M  V30 12179 H 1152.56 0.197077 -3.13481 0
M  V30 12180 H 1151.75 -1.49046 -4.81458 0
M  V30 12181 H 1151.36 -2.00314 -3.15833 0
M  V30 12182 H 1153.65 -2.52692 -6.28612 0
M  V30 12183 H 1154.59 -3.9878 -5.85133 0
M  V30 12184 H 1155 -2.41574 -5.10198 0
M  V30 12185 N 1154.4 1.08748 -1.14068 0
M  V30 12186 C 1155.31 2.19123 -0.837998 0
M  V30 12187 C 1156.32 1.73065 0.180164 0
M  V30 12188 O 1157.5 2.01398 0.00952285 0
M  V30 12189 C 1154.56 3.45257 -0.316 0
M  V30 12190 C 1153.62 4.05959 -1.39628 0
M  V30 12191 C 1152.86 5.26072 -0.899095 0
M  V30 12192 O 1153.08 5.69804 0.260744 0
M  V30 12193 O 1152.01 5.7808 -1.67652 0
M  V30 12194 H 1155.84 2.4748 -1.76033 0
M  V30 12195 H 1153.43 1.17816 -0.918675 0
M  V30 12196 H 1155.31 4.21389 -0.0306425 0
M  V30 12197 H 1153.98 3.18486 0.578654 0
M  V30 12198 H 1152.89 3.31432 -1.73505 0
M  V30 12199 H 1154.22 4.36971 -2.26533 0
M  V30 12200 N 1155.87 0.935264 1.26849 0
M  V30 12201 C 1156.84 0.44485 2.24842 0
M  V30 12202 C 1157.84 -0.440781 1.54641 0
M  V30 12203 O 1159.03 -0.240793 1.72528 0
M  V30 12204 C 1156.16 -0.359566 3.38998 0
M  V30 12205 H 1157.35 1.31074 2.6974 0
M  V30 12206 H 1154.91 0.716665 1.38901 0
M  V30 12207 H 1155.64 -1.24396 2.99493 0
M  V30 12208 H 1155.43 0.275529 3.91131 0
M  V30 12209 H 1156.92 -0.692804 4.11813 0
M  V30 12210 N 1157.35 -1.41121 0.701616 0
M  V30 12211 C 1158.58 -2.05973 0.242896 0
M  V30 12212 C 1159 -1.52474 -1.10151 0
M  V30 12213 O 1158.36 -0.654224 -1.69085 0
M  V30 12214 C 1158.41 -3.59943 0.217614 0
M  V30 12215 O 1157.51 -4.04454 -0.805629 0
M  V30 12216 H 1156.85 -0.653581 0.117166 0
M  V30 12217 H 1159.38 -1.80777 0.958175 0
M  V30 12218 H 1159.39 -4.07969 0.0505267 0
M  V30 12219 H 1158.07 -3.98249 1.19877 0
M  V30 12220 H 1156.65 -3.6792 -0.607404 0
M  V30 12221 N 1158.83 -0.446794 -1.51134 0
M  V30 12222 C 1160.08 0.116263 -2.01765 0
M  V30 12223 C 1160.4 1.42382 -1.33238 0
M  V30 12224 O 1159.67 1.9018 -0.469915 0
M  V30 12225 H 1158.25 0.0459558 -0.745585 0
M  V30 12226 H 1160.91 -0.591664 -1.85702 0
M  V30 12227 H 1160.01 0.285358 -3.10793 0
M  V30 12228 N 1160.31 1.56586 -0.178487 0
M  V30 12229 C 1161.72 1.83633 0.337009 0
M  V30 12230 C 1162.07 1.09857 1.6256 0
M  V30 12231 O 1161.2 0.353933 2.13486 0
M  V30 12232 C 1161.79 3.33112 0.618225 0
M  V30 12233 C 1160.35 3.60629 1.07814 0
M  V30 12234 C 1159.5 2.7705 0.117825 0
M  V30 12235 H 1162.45 1.53508 -0.402612 0
M  V30 12236 H 1162.47 3.5098 1.46947 0
M  V30 12237 H 1161.98 3.8678 -0.319808 0
M  V30 12238 H 1160.08 3.12378 2.03103 0
M  V30 12239 H 1160.19 4.68921 0.982339 0
M  V30 12240 H 1158.56 2.47125 0.616563 0
M  V30 12241 H 1159.34 3.33501 -0.814356 0
M  V30 12242 N 1161.79 -0.095206 1.57312 0
M  V30 12243 C 1163.01 -0.81227 1.90289 0
M  V30 12244 C 1163.43 -1.72287 0.772178 0
M  V30 12245 O 1162.79 -1.80698 -0.255841 0
M  V30 12246 C 1162.84 -1.62572 3.22882 0
M  V30 12247 O 1162.56 -0.75175 4.31602 0
M  V30 12248 C 1164.06 -2.44585 3.6972 0
M  V30 12249 H 1161.28 -0.232256 0.629522 0
M  V30 12250 H 1163.82 -0.0724733 2.04372 0
M  V30 12251 H 1161.98 -2.31803 3.10397 0
M  V30 12252 H 1162.39 -1.31514 5.07744 0
M  V30 12253 H 1163.87 -2.97155 4.65191 0
M  V30 12254 H 1164.34 -3.23044 2.97555 0
M  V30 12255 H 1164.95 -1.80554 3.85072 0
M  V30 12256 N 1163.26 -1.53291 -0.366026 0
M  V30 12257 C 1164.21 -1.80367 -1.4687 0
M  V30 12258 C 1165.21 -0.672767 -1.55468 0
M  V30 12259 O 1166.41 -0.8557 -1.5836 0
M  V30 12260 H 1162.79 -0.571076 -0.48926 0
M  V30 12261 H 1164.76 -2.72661 -1.21237 0
M  V30 12262 C 1163.51 -2.01008 -2.8371 0
M  V30 12263 H 1162.83 -2.87468 -2.77853 0
M  V30 12264 H 1164.27 -2.2393 -3.60043 0
M  V30 12265 C 1162.73 -0.789054 -3.27529 0
M  V30 12266 O 1163.26 0.0224712 -4.01694 0
M  V30 12267 N 1161.47 -0.612621 -2.84069 0
M  V30 12268 H 1161.01 -1.27416 -2.23881 0
M  V30 12269 H 1160.97 0.202943 -3.13744 0
M  V30 12270 N 1164.74 0.6258 -1.44643 0
M  V30 12271 C 1165.65 1.76611 -1.5442 0
M  V30 12272 C 1166.67 1.68614 -0.429576 0
M  V30 12273 O 1167.84 1.89296 -0.687686 0
M  V30 12274 C 1164.91 3.13015 -1.49071 0
M  V30 12275 C 1163.97 3.32604 -2.71428 0
M  V30 12276 C 1163.2 4.62501 -2.66325 0
M  V30 12277 O 1163.43 5.43651 -1.72626 0
M  V30 12278 O 1162.36 4.84408 -3.57258 0
M  V30 12279 H 1166.19 1.71315 -2.50769 0
M  V30 12280 H 1163.77 0.787677 -1.26949 0
M  V30 12281 H 1165.65 3.94318 -1.48631 0
M  V30 12282 H 1164.33 3.18842 -0.558686 0
M  V30 12283 H 1163.24 2.50959 -2.77435 0
M  V30 12284 H 1164.57 3.31642 -3.63695 0
M  V30 12285 N 1166.22 1.31629 0.866686 0
M  V30 12286 C 1167.5 1.12136 1.60265 0
M  V30 12287 C 1167.88 -0.322729 2.08618 0
M  V30 12288 O 1167.23 -1.31738 1.86701 0
M  V30 12289 C 1167.44 2.13845 2.7581 0
M  V30 12290 C 1168.78 2.46541 3.45692 0
M  V30 12291 O 1169.81 2.12298 2.86021 0
M  V30 12292 O 1168.67 3.05194 4.53342 0
M  V30 12293 H 1165.76 0.431923 0.705246 0
M  V30 12294 H 1168.31 1.43119 0.911863 0
M  V30 12295 H 1167.08 3.10967 2.37518 0
M  V30 12296 H 1166.7 1.83786 3.52574 0
M  V30 12297 N 1167.7 -1.08142 1.14644 0
M  V30 12298 C 1168.63 -2.17139 0.858667 0
M  V30 12299 C 1169.61 -1.69064 -0.187452 0
M  V30 12300 O 1170.8 -1.94151 -0.0435458 0
M  V30 12301 C 1167.93 -3.45648 0.33834 0
M  V30 12302 C 1166.88 -4.07129 1.32021 0
M  V30 12303 C 1166.21 -5.30623 0.659075 0
M  V30 12304 C 1167.51 -4.48095 2.68343 0
M  V30 12305 H 1169.2 -2.41468 1.77012 0
M  V30 12306 H 1166.75 -1.16052 0.852523 0
M  V30 12307 H 1168.7 -4.21216 0.124611 0
M  V30 12308 H 1167.42 -3.2088 -0.608553 0
M  V30 12309 H 1166.08 -3.33596 1.52016 0
M  V30 12310 H 1165.73 -5.02142 -0.293711 0
M  V30 12311 H 1165.43 -5.72714 1.31427 0
M  V30 12312 H 1166.95 -6.08903 0.454933 0
M  V30 12313 H 1168.37 -5.14828 2.5224 0
M  V30 12314 H 1166.76 -5.01113 3.30161 0
M  V30 12315 H 1167.83 -3.59852 3.25015 0
M  V30 12316 N 1169.18 -0.941978 -1.26351 0
M  V30 12317 C 1170.41 -0.605868 -1.97517 0
M  V30 12318 C 1170.82 0.823583 -1.70334 0
M  V30 12319 O 1170.16 1.56085 -0.968662 0
M  V30 12320 C 1170.22 -0.769201 -3.51175 0
M  V30 12321 C 1169.88 -2.17343 -4.02009 0
M  V30 12322 C 1170.88 -3.14898 -4.13685 0
M  V30 12323 C 1168.57 -2.49422 -4.35998 0
M  V30 12324 C 1170.56 -4.42631 -4.58646 0
M  V30 12325 C 1168.25 -3.77388 -4.80647 0
M  V30 12326 C 1169.25 -4.73806 -4.91932 0
M  V30 12327 O 1168.93 -5.99493 -5.35596 0
M  V30 12328 H 1168.67 -0.227113 -0.636707 0
M  V30 12329 H 1171.22 -1.26523 -1.61806 0
M  V30 12330 H 1169.45 -0.0527104 -3.86664 0
M  V30 12331 H 1171.14 -0.436032 -4.03551 0
M  V30 12332 H 1171.9 -2.91438 -3.87671 0
M  V30 12333 H 1167.78 -1.7511 -4.26448 0
M  V30 12334 H 1171.33 -5.17892 -4.67369 0
M  V30 12335 H 1167.22 -4.0066 -5.06105 0
M  V30 12336 H 1167.99 -6.02687 -5.53815 0
M  V30 12337 N 1170.66 1.40747 -0.709091 0
M  V30 12338 C 1171.9 2.00233 -0.242836 0
M  V30 12339 C 1172.22 1.56853 1.1686 0
M  V30 12340 O 1173.42 2.08993 1.73304 0
M  V30 12341 C 1171.88 3.57854 -0.383241 0
M  V30 12342 C 1171.49 4.10209 -1.80091 0
M  V30 12343 C 1173.23 4.24494 0.0225511 0
M  V30 12344 C 1171.14 5.60311 -1.89225 0
M  V30 12345 H 1170.07 0.74896 -0.087034 0
M  V30 12346 H 1172.72 1.61064 -0.879243 0
M  V30 12347 H 1171.1 3.94692 0.321642 0
M  V30 12348 H 1172.28 3.84762 -2.53564 0
M  V30 12349 H 1170.59 3.56142 -2.15758 0
M  V30 12350 H 1173.19 5.34694 -0.0250644 0
M  V30 12351 H 1173.53 4.02488 1.06344 0
M  V30 12352 H 1174.06 3.92739 -0.632541 0
M  V30 12353 H 1170.8 5.87162 -2.91412 0
M  V30 12354 H 1170.32 5.87642 -1.20154 0
M  V30 12355 H 1172 6.25306 -1.66136 0
M  V30 12356 N 1172.13 0.454803 1.50895 0
M  V30 12357 C 1173.36 -0.106259 2.07128 0
M  V30 12358 C 1173.78 -1.3418 1.31823 0
M  V30 12359 O 1173.14 -1.77667 0.361147 0
M  V30 12360 C 1173.19 -0.389609 3.58489 0
M  V30 12361 O 1172.29 -1.47305 3.85195 0
M  V30 12362 H 1171.63 0.00580588 0.663975 0
M  V30 12363 H 1174.16 0.641163 1.94294 0
M  V30 12364 H 1174.17 -0.634934 4.03029 0
M  V30 12365 H 1172.85 0.513338 4.1272 0
M  V30 12366 H 1171.43 -1.21631 3.52506 0
M  V30 12367 N 1173.61 -1.56489 0.186789 0
M  V30 12368 C 1174.85 -1.99239 -0.456427 0
M  V30 12369 C 1175.22 -1.07076 -1.5937 0
M  V30 12370 O 1176.42 -1.39028 -2.30054 0
M  V30 12371 C 1174.69 -3.45553 -0.912587 0
M  V30 12372 S 1176.25 -4.1033 -1.55481 0
M  V30 12373 H 1173.06 -0.695792 -0.146267 0
M  V30 12374 H 1175.67 -1.93369 0.287899 0
M  V30 12375 H 1174.37 -4.10332 -0.0746877 0
M  V30 12376 H 1173.9 -3.55222 -1.69058 0
M  V30 12377 H 1175.92 -4.06653 -2.84338 0
M  V30 12378 N 1175.09 0.086862 -1.5736 0
M  V30 12379 C 1176.32 0.802167 -1.90717 0
M  V30 12380 C 1176.73 1.71875 -0.781304 0
M  V30 12381 O 1176.09 1.80831 0.246255 0
M  V30 12382 C 1176.14 1.60858 -3.23739 0
M  V30 12383 O 1175.86 0.728851 -4.31995 0
M  V30 12384 C 1177.36 2.42621 -3.71012 0
M  V30 12385 H 1174.58 0.228914 -0.630745 0
M  V30 12386 H 1177.13 0.061634 -2.04407 0
M  V30 12387 H 1175.28 2.30153 -3.11622 0
M  V30 12388 H 1175.7 1.2882 -5.08435 0
M  V30 12389 H 1177.17 2.94683 -4.66761 0
M  V30 12390 H 1177.65 3.21462 -2.99264 0
M  V30 12391 H 1178.25 1.78509 -3.86024 0
M  V30 12392 N 1176.57 1.53483 0.357892 0
M  V30 12393 C 1177.5 1.75257 1.46151 0
M  V30 12394 C 1178.48 0.601167 1.51079 0
M  V30 12395 O 1179.66 0.834661 1.69014 0
M  V30 12396 C 1176.79 1.8383 2.84472 0
M  V30 12397 C 1175.84 3.05866 2.97234 0
M  V30 12398 S 1176.67 4.65225 2.6519 0
M  V30 12399 C 1177.82 4.76657 4.05646 0
M  V30 12400 H 1178.06 2.6859 1.27462 0
M  V30 12401 H 1175.59 1.44169 0.552697 0
M  V30 12402 H 1177.55 1.89454 3.64167 0
M  V30 12403 H 1176.21 0.915345 3.00467 0
M  V30 12404 H 1175.4 3.08497 3.98555 0
M  V30 12405 H 1175 2.98393 2.25471 0
M  V30 12406 H 1177.3 4.57185 4.99988 0
M  V30 12407 H 1178.24 5.7873 4.08016 0
M  V30 12408 H 1178.65 4.05226 3.93004 0
M  V30 12409 N 1178.05 -0.61812 1.44973 0
M  V30 12410 C 1179.46 -1.19994 1.43033 0
M  V30 12411 C 1179.81 -1.95607 0.152422 0
M  V30 12412 O 1178.93 -2.03114 -0.746571 0
M  V30 12413 C 1179.53 -2.18269 2.59122 0
M  V30 12414 C 1178.09 -2.7185 2.60336 0
M  V30 12415 C 1177.23 -1.4707 2.35086 0
M  V30 12416 H 1180.18 -0.408034 1.53365 0
M  V30 12417 H 1180.21 -3.01113 2.32619 0
M  V30 12418 H 1179.72 -1.63208 3.52115 0
M  V30 12419 H 1177.82 -3.30878 1.7132 0
M  V30 12420 H 1177.93 -3.17001 3.59231 0
M  V30 12421 H 1176.3 -1.75658 1.84435 0
M  V30 12422 H 1177.08 -0.938928 3.30211 0
M  V30 12423 N 1179.52 -1.32087 -0.859693 0
M  V30 12424 C 1180.75 -1.25486 -1.6513 0
M  V30 12425 C 1181.17 0.175015 -1.87284 0
M  V30 12426 O 1180.53 1.12468 -1.42199 0
M  V30 12427 C 1180.58 -2.01469 -2.9907 0
M  V30 12428 O 1179.68 -1.35904 -3.89363 0
M  V30 12429 H 1179.02 -0.432728 -0.503629 0
M  V30 12430 H 1181.55 -1.74322 -1.07112 0
M  V30 12431 H 1181.56 -2.11452 -3.4893 0
M  V30 12432 H 1180.24 -3.05448 -2.82266 0
M  V30 12433 H 1178.82 -1.34437 -3.47823 0
M  V30 12434 N 1181 1.07532 -1.15215 0
M  V30 12435 C 1182.25 1.79474 -0.920439 0
M  V30 12436 C 1182.56 1.87593 0.553926 0
M  V30 12437 O 1183.77 2.56037 0.903169 0
M  V30 12438 C 1182.23 3.22509 -1.59738 0
M  V30 12439 C 1181.83 3.22596 -3.10863 0
M  V30 12440 C 1183.58 3.99072 -1.44714 0
M  V30 12441 C 1181.48 4.60273 -3.71352 0
M  V30 12442 H 1180.41 0.672625 -0.340722 0
M  V30 12443 H 1183.07 1.2071 -1.38208 0
M  V30 12444 H 1181.45 3.81454 -1.06342 0
M  V30 12445 H 1182.62 2.73306 -3.70999 0
M  V30 12446 H 1180.94 2.5953 -3.25627 0
M  V30 12447 H 1183.53 5.00823 -1.87299 0
M  V30 12448 H 1183.88 4.14428 -0.394386 0
M  V30 12449 H 1184.41 3.46617 -1.95195 0
M  V30 12450 H 1181.15 4.50122 -4.76519 0
M  V30 12451 H 1180.67 5.09809 -3.15998 0
M  V30 12452 H 1182.35 5.29243 -3.7217 0
M  V30 12453 N 1182.48 0.948665 1.2585 0
M  V30 12454 C 1183.39 0.470525 2.29833 0
M  V30 12455 C 1184.41 -0.45919 1.67832 0
M  V30 12456 O 1185.58 -0.336893 1.98562 0
M  V30 12457 C 1182.65 -0.249635 3.458 0
M  V30 12458 C 1181.71 0.717559 4.23261 0
M  V30 12459 C 1180.94 0.0316724 5.33691 0
M  V30 12460 O 1181.16 -1.18384 5.5798 0
M  V30 12461 O 1180.1 0.71418 5.97648 0
M  V30 12462 H 1183.92 1.33447 2.72811 0
M  V30 12463 H 1181.51 0.714864 1.31187 0
M  V30 12464 H 1183.39 -0.654993 4.16279 0
M  V30 12465 H 1182.07 -1.08885 3.04837 0
M  V30 12466 H 1180.97 1.17301 3.55234 0
M  V30 12467 H 1182.31 1.52461 4.67992 0
M  V30 12468 N 1183.96 -1.40369 0.716545 0
M  V30 12469 C 1185.21 -2.00101 0.253452 0
M  V30 12470 C 1185.52 -1.57471 -1.16027 0
M  V30 12471 O 1186.73 -2.09909 -1.72193 0
M  V30 12472 C 1185.18 -3.57645 0.402213 0
M  V30 12473 C 1184.79 -4.09248 1.82264 0
M  V30 12474 C 1186.53 -4.245 -3.88526e-05 0
M  V30 12475 C 1184.44 -5.59299 1.92193 0
M  V30 12476 H 1183.37 -0.748488 0.0910047 0
M  V30 12477 H 1186.02 -1.60595 0.887772 0
M  V30 12478 H 1184.4 -3.94857 -0.300706 0
M  V30 12479 H 1185.58 -3.83412 2.55601 0
M  V30 12480 H 1183.89 -3.54993 2.17644 0
M  V30 12481 H 1186.49 -5.34673 0.0534202 0
M  V30 12482 H 1186.83 -4.03046 -1.04208 0
M  V30 12483 H 1187.37 -3.92398 0.65336 0
M  V30 12484 H 1184.11 -5.85608 2.94522 0
M  V30 12485 H 1183.63 -5.86997 1.23268 0
M  V30 12486 H 1185.3 -6.24416 1.6945 0
M  V30 12487 N 1185.44 -0.462799 -1.50652 0
M  V30 12488 C 1186.68 0.0948568 -2.01877 0
M  V30 12489 C 1187.01 1.4096 -1.34741 0
M  V30 12490 O 1186.28 1.89671 -0.49006 0
M  V30 12491 H 1184.86 0.0380453 -0.746031 0
M  V30 12492 H 1187.52 -0.611327 -1.85064 0
M  V30 12493 H 1186.61 0.252378 -3.11078 0
M  V30 12494 N 1186.91 1.56388 -0.195085 0
M  V30 12495 C 1188.14 2.01963 0.449289 0
M  V30 12496 C 1188.56 1.07522 1.55192 0
M  V30 12497 O 1187.91 0.0800915 1.82324 0
M  V30 12498 C 1187.97 3.47231 1.00561 0
M  V30 12499 O 1187.69 4.38068 -0.0530241 0
M  V30 12500 C 1189.19 4.08324 1.72587 0
M  V30 12501 H 1186.41 0.661452 0.112792 0
M  V30 12502 H 1188.95 2.02231 -0.303788 0
M  V30 12503 H 1187.11 3.47663 1.70907 0
M  V30 12504 H 1187.52 5.23256 0.361076 0
M  V30 12505 H 1188.99 5.11821 2.06744 0
M  V30 12506 H 1189.47 3.51782 2.62956 0
M  V30 12507 H 1190.08 4.11665 1.06826 0
M  V30 12508 N 1188.39 -0.0785156 1.57404 0
M  V30 12509 C 1189.64 -0.780092 1.87196 0
M  V30 12510 C 1189.97 -1.77562 0.78647 0
M  V30 12511 O 1189.25 -1.93428 -0.203935 0
M  V30 12512 C 1189.53 -1.49408 3.27642 0
M  V30 12513 C 1189.38 -0.515416 4.46837 0
M  V30 12514 C 1190.7 -2.44064 3.66225 0
M  V30 12515 H 1187.82 -0.282134 0.680859 0
M  V30 12516 H 1190.46 -0.0433926 1.8995 0
M  V30 12517 H 1188.61 -2.12205 3.25425 0
M  V30 12518 H 1190.28 0.106827 4.61176 0
M  V30 12519 H 1188.53 0.169832 4.33467 0
M  V30 12520 H 1189.2 -1.05247 5.41874 0
M  V30 12521 H 1191.67 -1.91349 3.69493 0
M  V30 12522 H 1190.55 -2.91029 4.65396 0
M  V30 12523 H 1190.81 -3.28569 2.95796 0
M  V30 12524 N 1189.87 -1.5367 -0.349747 0
M  V30 12525 C 1191.12 -1.70281 -1.08853 0
M  V30 12526 C 1191.44 -0.465438 -1.89364 0
M  V30 12527 O 1190.71 0.520615 -1.88856 0
M  V30 12528 H 1189.29 -0.627775 -0.404854 0
M  V30 12529 H 1191.95 -1.90906 -0.392523 0
M  V30 12530 H 1191.05 -2.57096 -1.76941 0
M  V30 12531 N 1191.35 0.610423 -1.45298 0
M  V30 12532 C 1192.6 1.3668 -1.48872 0
M  V30 12533 C 1192.92 1.94562 -0.130686 0
M  V30 12534 O 1192.19 1.76996 0.839607 0
M  V30 12535 H 1190.77 0.507393 -0.548235 0
M  V30 12536 H 1193.43 0.716997 -1.81232 0
M  V30 12537 H 1192.53 2.18766 -2.22593 0
M  V30 12538 N 1192.83 1.32541 0.852676 0
M  V30 12539 C 1194.07 1.22971 1.60383 0
M  V30 12540 C 1194.4 -0.208009 1.93887 0
M  V30 12541 O 1193.67 -1.13326 1.59794 0
M  V30 12542 H 1192.25 0.452149 0.594618 0
M  V30 12543 H 1194.91 1.66089 1.01983 0
M  V30 12544 H 1194 1.81373 2.53989 0
M  V30 12545 N 1194.3 -1.0692 1.15784 0
M  V30 12546 C 1195.53 -1.8331 0.959422 0
M  V30 12547 C 1195.95 -1.82268 -0.492332 0
M  V30 12548 O 1195.3 -1.23727 -1.34156 0
M  V30 12549 C 1195.36 -3.30202 1.47135 0
M  V30 12550 O 1195.08 -3.31328 2.86624 0
M  V30 12551 C 1196.58 -4.23346 1.31504 0
M  V30 12552 H 1193.8 -0.578202 0.340475 0
M  V30 12553 H 1196.34 -1.34939 1.53661 0
M  V30 12554 H 1194.5 -3.75908 0.936587 0
M  V30 12555 H 1194.91 -4.23135 3.0993 0
M  V30 12556 H 1196.38 -5.24465 1.72163 0
M  V30 12557 H 1196.86 -4.38431 0.259773 0
M  V30 12558 H 1197.47 -3.8348 1.83911 0
M  V30 12559 N 1195.78 -0.955326 -1.25345 0
M  V30 12560 C 1196.73 -0.467205 -2.2786 0
M  V30 12561 C 1197.72 0.462873 -1.62954 0
M  V30 12562 O 1198.93 0.339526 -1.76769 0
M  V30 12563 H 1195.31 -0.132586 -0.74022 0
M  V30 12564 H 1197.28 -1.34406 -2.66416 0
M  V30 12565 C 1196.03 0.238898 -3.46878 0
M  V30 12566 H 1195.35 -0.467644 -3.97056 0
M  V30 12567 H 1196.79 0.544444 -4.2049 0
M  V30 12568 C 1195.25 1.46164 -3.03542 0
M  V30 12569 O 1195.78 2.55933 -3.09615 0
M  V30 12570 N 1193.98 1.32324 -2.58725 0
M  V30 12571 H 1193.53 0.430131 -2.53984 0
M  V30 12572 H 1193.49 2.14253 -2.30094 0
M  V30 12573 N 1197.26 1.39987 -0.723979 0
M  V30 12574 C 1198.19 2.3332 -0.0917282 0
M  V30 12575 C 1199.17 1.53335 0.736361 0
M  V30 12576 O 1200.36 1.81771 0.683582 0
M  V30 12577 C 1197.49 3.3737 0.824549 0
M  V30 12578 C 1196.44 4.2788 0.101452 0
M  V30 12579 C 1195.77 5.22536 1.13401 0
M  V30 12580 C 1197.07 5.11649 -1.04939 0
M  V30 12581 H 1198.76 2.86441 -0.871318 0
M  V30 12582 H 1196.31 1.37725 -0.420448 0
M  V30 12583 H 1198.26 4.01607 1.27631 0
M  V30 12584 H 1196.98 2.82663 1.63613 0
M  V30 12585 H 1195.64 3.65107 -0.330569 0
M  V30 12586 H 1195.29 4.64131 1.93886 0
M  V30 12587 H 1194.99 5.83938 0.65502 0
M  V30 12588 H 1196.52 5.89651 1.58569 0
M  V30 12589 H 1197.93 5.69293 -0.6766 0
M  V30 12590 H 1196.33 5.82137 -1.45729 0
M  V30 12591 H 1197.4 4.47132 -1.8762 0
M  V30 12592 N 1198.74 0.470782 1.50404 0
M  V30 12593 C 1199.67 -0.313458 2.31386 0
M  V30 12594 C 1200.65 -0.990623 1.38278 0
M  V30 12595 O 1201.84 -0.987854 1.67198 0
M  V30 12596 C 1198.97 -1.39599 3.18009 0
M  V30 12597 C 1197.92 -0.840443 4.19667 0
M  V30 12598 C 1197.25 -2.02124 4.95025 0
M  V30 12599 C 1198.55 0.148055 5.2209 0
M  V30 12600 H 1200.24 0.362432 2.97198 0
M  V30 12601 H 1197.79 0.175745 1.42924 0
M  V30 12602 H 1199.74 -1.9521 3.73458 0
M  V30 12603 H 1198.46 -2.10064 2.50081 0
M  V30 12604 H 1197.12 -0.306302 3.65318 0
M  V30 12605 H 1196.77 -2.71286 4.23571 0
M  V30 12606 H 1196.47 -1.65574 5.6379 0
M  V30 12607 H 1197.99 -2.58226 5.5331 0
M  V30 12608 H 1199.41 -0.318874 5.72413 0
M  V30 12609 H 1197.8 0.427811 5.98573 0
M  V30 12610 H 1198.87 1.07404 4.72855 0
M  V30 12611 N 1200.22 -1.56282 0.203376 0
M  V30 12612 C 1201.63 -1.84146 -0.307752 0
M  V30 12613 C 1201.98 -1.12429 -1.60792 0
M  V30 12614 O 1201.1 -0.387852 -2.12896 0
M  V30 12615 C 1201.7 -3.34053 -0.565152 0
M  V30 12616 C 1200.26 -3.62298 -1.02063 0
M  V30 12617 C 1199.41 -2.77202 -0.0737343 0
M  V30 12618 H 1202.36 -1.52848 0.426983 0
M  V30 12619 H 1202.38 -3.53273 -1.41345 0
M  V30 12620 H 1201.89 -3.86222 0.381301 0
M  V30 12621 H 1199.99 -3.1557 -1.98107 0
M  V30 12622 H 1200.1 -4.70424 -0.907614 0
M  V30 12623 H 1198.47 -2.48074 -0.577169 0
M  V30 12624 H 1199.25 -3.32164 0.86731 0
M  V30 12625 N 1201.7 0.070167 -1.57444 0
M  V30 12626 C 1202.63 1.10996 -2.0053 0
M  V30 12627 C 1203.64 1.3489 -0.91151 0
M  V30 12628 O 1204.83 1.33102 -1.18938 0
M  V30 12629 C 1201.93 2.46053 -2.33048 0
M  V30 12630 C 1201.1 2.42092 -3.64294 0
M  V30 12631 C 1200.16 3.5927 -3.84463 0
M  V30 12632 O 1199.19 3.40625 -4.5603 0
M  V30 12633 N 1200.39 4.79677 -3.26941 0
M  V30 12634 H 1203.15 0.743029 -2.90343 0
M  V30 12635 H 1200.72 0.258794 -1.59818 0
M  V30 12636 H 1202.71 3.23089 -2.43712 0
M  V30 12637 H 1201.28 2.74742 -1.49116 0
M  V30 12638 H 1200.5 1.5043 -3.64368 0
M  V30 12639 H 1201.79 2.36548 -4.50469 0
M  V30 12640 H 1201.18 4.97729 -2.68855 0
M  V30 12641 H 1199.74 5.54219 -3.43051 0
M  V30 12642 N 1203.17 1.53854 0.341593 0
M  V30 12643 C 1204.11 1.78295 1.44027 0
M  V30 12644 C 1205.12 0.664303 1.4863 0
M  V30 12645 O 1206.31 0.941073 1.51678 0
M  V30 12646 C 1203.41 1.86947 2.82673 0
M  V30 12647 C 1202.58 3.16898 3.01487 0
M  V30 12648 C 1201.64 3.16483 4.20386 0
M  V30 12649 O 1200.67 3.90197 4.14409 0
M  V30 12650 N 1201.87 2.3899 5.29022 0
M  V30 12651 H 1204.63 2.73102 1.23431 0
M  V30 12652 H 1202.19 1.52928 0.531483 0
M  V30 12653 H 1204.19 1.84118 3.60392 0
M  V30 12654 H 1202.76 0.993169 2.96403 0
M  V30 12655 H 1201.98 3.32835 2.11221 0
M  V30 12656 H 1203.26 4.02733 3.1094 0
M  V30 12657 H 1202.66 1.78657 5.36748 0
M  V30 12658 H 1201.22 2.41957 6.05227 0
M  V30 12659 N 1204.65 -0.602709 1.4562 0
M  V30 12660 C 1205.61 -1.69508 1.54271 0
M  V30 12661 C 1206.61 -1.55171 0.421727 0
M  V30 12662 O 1207.8 -1.60151 0.685375 0
M  V30 12663 C 1204.94 -3.0881 1.44392 0
M  V30 12664 H 1206.13 -1.63203 2.51605 0
M  V30 12665 H 1203.68 -0.818857 1.33133 0
M  V30 12666 H 1204.42 -3.20689 0.482614 0
M  V30 12667 H 1204.2 -3.20625 2.25704 0
M  V30 12668 H 1205.69 -3.8837 1.53488 0
M  V30 12669 N 1206.13 -1.32992 -0.845635 0
M  V30 12670 C 1207.37 -1.2539 -1.61421 0
M  V30 12671 C 1207.73 0.179395 -1.9116 0
M  V30 12672 O 1208.93 0.379275 -2.66111 0
M  V30 12673 C 1207.21 -2.09817 -2.8933 0
M  V30 12674 S 1208.76 -2.19335 -3.80049 0
M  V30 12675 H 1205.58 -0.446202 -0.553556 0
M  V30 12676 H 1208.18 -1.67946 -1.00072 0
M  V30 12677 H 1206.89 -3.12999 -2.65443 0
M  V30 12678 H 1206.42 -1.68073 -3.5569 0
M  V30 12679 H 1208.43 -1.34946 -4.77498 0
M  V30 12680 N 1207.61 1.06304 -1.1635 0
M  V30 12681 C 1208.54 2.15745 -0.893103 0
M  V30 12682 C 1209.52 1.69341 0.160531 0
M  V30 12683 O 1210.7 1.94196 0.0126526 0
M  V30 12684 C 1207.83 3.45066 -0.393287 0
M  V30 12685 C 1206.79 4.04978 -1.38482 0
M  V30 12686 C 1206.11 5.29507 -0.743409 0
M  V30 12687 C 1207.41 4.4377 -2.75438 0
M  V30 12688 H 1209.11 2.38622 -1.80831 0
M  V30 12689 H 1206.65 1.14681 -0.870878 0
M  V30 12690 H 1208.61 4.20964 -0.191607 0
M  V30 12691 H 1207.33 3.21808 0.557426 0
M  V30 12692 H 1205.99 3.31136 -1.57304 0
M  V30 12693 H 1205.64 5.02545 0.213787 0
M  V30 12694 H 1205.34 5.7055 -1.40521 0
M  V30 12695 H 1206.86 6.08102 -0.551746 0
M  V30 12696 H 1208.28 5.1075 -2.60398 0
M  V30 12697 H 1206.67 4.95797 -3.38091 0
M  V30 12698 H 1207.74 3.54636 -3.30699 0
M  V30 12699 N 1209.09 0.96196 1.24836 0
M  V30 12700 C 1210.02 0.445329 2.24832 0
M  V30 12701 C 1211.03 -0.442797 1.56663 0
M  V30 12702 O 1212.22 -0.249896 1.76742 0
M  V30 12703 C 1209.32 -0.376953 3.36797 0
M  V30 12704 C 1208.49 0.499908 4.34534 0
M  V30 12705 C 1207.55 -0.265402 5.2553 0
M  V30 12706 O 1206.58 0.338707 5.68191 0
M  V30 12707 N 1207.78 -1.55654 5.59243 0
M  V30 12708 H 1210.54 1.30505 2.69793 0
M  V30 12709 H 1208.11 0.833137 1.38818 0
M  V30 12710 H 1210.1 -0.896831 3.94638 0
M  V30 12711 H 1208.67 -1.13757 2.91167 0
M  V30 12712 H 1207.89 1.20082 3.75465 0
M  V30 12713 H 1209.18 1.09814 4.96808 0
M  V30 12714 H 1208.57 -2.06916 5.265 0
M  V30 12715 H 1207.13 -2.02223 6.19636 0
M  V30 12716 N 1210.56 -1.39601 0.731392 0
M  V30 12717 C 1211.5 -2.28169 0.0378735 0
M  V30 12718 C 1212.47 -1.44195 -0.751434 0
M  V30 12719 O 1213.66 -1.7359 -0.734753 0
M  V30 12720 C 1210.79 -3.24999 -0.953589 0
M  V30 12721 C 1209.83 -4.25748 -0.253203 0
M  V30 12722 S 1210.66 -5.25496 1.03025 0
M  V30 12723 C 1211.82 -6.25886 0.0412927 0
M  V30 12724 H 1212.05 -2.8664 0.788973 0
M  V30 12725 H 1209.59 -1.45271 0.523044 0
M  V30 12726 H 1211.54 -3.81308 -1.52035 0
M  V30 12727 H 1210.21 -2.65554 -1.6775 0
M  V30 12728 H 1209.4 -4.93913 -1.00328 0
M  V30 12729 H 1209 -3.7322 0.241426 0
M  V30 12730 H 1211.29 -6.72757 -0.800305 0
M  V30 12731 H 1212.24 -7.0473 0.68999 0
M  V30 12732 H 1212.64 -5.63538 -0.329495 0
M  V30 12733 N 1212.04 -0.478751 -1.50152 0
M  V30 12734 C 1212.97 0.301182 -2.31549 0
M  V30 12735 C 1213.95 0.983276 -1.38801 0
M  V30 12736 O 1215.14 0.978973 -1.67719 0
M  V30 12737 C 1212.27 1.3791 -3.18745 0
M  V30 12738 C 1211.22 0.818175 -4.20107 0
M  V30 12739 C 1210.55 1.99496 -4.9609 0
M  V30 12740 C 1211.85 -0.17574 -5.22004 0
M  V30 12741 H 1213.54 -0.378188 -2.97002 0
M  V30 12742 H 1211.09 -0.183323 -1.42828 0
M  V30 12743 H 1213.04 1.93227 -3.74488 0
M  V30 12744 H 1211.77 2.08735 -2.51192 0
M  V30 12745 H 1210.42 0.286924 -3.65475 0
M  V30 12746 H 1210.07 2.69036 -4.25004 0
M  V30 12747 H 1209.77 1.62582 -5.6466 0
M  V30 12748 H 1211.3 2.55288 -5.54671 0
M  V30 12749 H 1212.71 0.288513 -5.72574 0
M  V30 12750 H 1211.11 -0.459549 -5.98338 0
M  V30 12751 H 1212.18 -1.09911 -4.72279 0
M  V30 12752 N 1213.52 1.56172 -0.211661 0
M  V30 12753 C 1214.77 1.97648 0.421871 0
M  V30 12754 C 1215.09 1.10026 1.60995 0
M  V30 12755 O 1214.36 0.175109 1.95116 0
M  V30 12756 H 1212.94 0.729914 0.158852 0
M  V30 12757 H 1215.6 1.92542 -0.302254 0
M  V30 12758 H 1214.7 3.02834 0.754868 0
M  V30 12759 N 1215 -0.0618163 1.57479 0
M  V30 12760 C 1216.24 -0.760193 1.88013 0
M  V30 12761 C 1216.58 -1.76718 0.805258 0
M  V30 12762 O 1215.85 -1.93633 -0.183408 0
M  V30 12763 C 1216.14 -1.45924 3.29208 0
M  V30 12764 C 1215.99 -0.467994 4.47359 0
M  V30 12765 C 1217.31 -2.40166 3.68793 0
M  V30 12766 H 1214.43 -0.274896 0.683814 0
M  V30 12767 H 1217.07 -0.0232433 1.89986 0
M  V30 12768 H 1215.22 -2.08741 3.27657 0
M  V30 12769 H 1216.89 0.155735 4.61037 0
M  V30 12770 H 1215.13 0.215797 4.33263 0
M  V30 12771 H 1215.8 -0.994942 5.42959 0
M  V30 12772 H 1218.28 -1.87419 3.71501 0
M  V30 12773 H 1217.16 -2.86076 4.68457 0
M  V30 12774 H 1217.42 -3.25413 2.99264 0
M  V30 12775 N 1216.48 -1.54033 -0.333429 0
M  V30 12776 C 1217.41 -1.79056 -1.43079 0
M  V30 12777 C 1218.42 -0.672176 -1.48276 0
M  V30 12778 O 1219.61 -0.949103 -1.51176 0
M  V30 12779 C 1216.71 -1.88443 -2.81678 0
M  V30 12780 C 1215.88 -3.18493 -2.99802 0
M  V30 12781 C 1214.94 -3.18708 -4.18702 0
M  V30 12782 O 1213.97 -3.92389 -4.12334 0
M  V30 12783 N 1215.17 -2.41792 -5.27747 0
M  V30 12784 H 1217.94 -2.73753 -1.21981 0
M  V30 12785 H 1215.5 -1.53207 -0.523365 0
M  V30 12786 H 1217.49 -1.86027 -3.59411 0
M  V30 12787 H 1216.06 -1.00887 -2.95872 0
M  V30 12788 H 1215.28 -3.33951 -2.09453 0
M  V30 12789 H 1216.57 -4.04376 -3.088 0
M  V30 12790 H 1215.96 -1.81501 -5.35793 0
M  V30 12791 H 1214.52 -2.45163 -6.03936 0
M  V30 12792 N 1217.95 0.594978 -1.45938 0
M  V30 12793 C 1219.2 1.35093 -1.50314 0
M  V30 12794 C 1219.52 1.94412 -0.151315 0
M  V30 12795 O 1218.79 1.77876 0.820787 0
M  V30 12796 H 1217.37 0.501549 -0.553586 0
M  V30 12797 H 1220.04 0.697735 -1.81983 0
M  V30 12798 H 1219.13 2.16393 -2.24901 0
M  V30 12799 N 1219.43 1.33438 0.838571 0
M  V30 12800 C 1220.4 1.23632 1.92997 0
M  V30 12801 C 1221.4 0.155302 1.60048 0
M  V30 12802 O 1222.59 0.406852 1.69382 0
M  V30 12803 C 1219.72 0.90512 3.28665 0
M  V30 12804 H 1220.91 2.20643 2.03117 0
M  V30 12805 H 1218.46 1.17501 1.03069 0
M  V30 12806 H 1219.2 -0.0624833 3.2424 0
M  V30 12807 H 1218.98 1.68688 3.53959 0
M  V30 12808 H 1220.47 0.861262 4.08622 0
M  V30 12809 N 1220.91 -1.05686 1.16912 0
M  V30 12810 C 1222.15 -1.80177 0.965182 0
M  V30 12811 C 1222.51 -1.85437 -0.497698 0
M  V30 12812 O 1223.72 -2.5597 -0.82054 0
M  V30 12813 C 1221.99 -3.20441 1.58279 0
M  V30 12814 S 1223.55 -4.11472 1.52435 0
M  V30 12815 H 1220.36 -0.620595 0.346962 0
M  V30 12816 H 1222.97 -1.26841 1.48767 0
M  V30 12817 H 1221.67 -3.14211 2.64006 0
M  V30 12818 H 1221.2 -3.78853 1.05989 0
M  V30 12819 H 1223.22 -4.93373 0.528876 0
M  V30 12820 N 1222.39 -0.968567 -1.24324 0
M  V30 12821 C 1223.34 -0.498817 -2.25345 0
M  V30 12822 C 1224.31 0.456082 -1.59716 0
M  V30 12823 O 1225.49 0.366254 -1.87252 0
M  V30 12824 C 1222.63 0.204027 -3.44496 0
M  V30 12825 C 1221.74 -0.789741 -4.2472 0
M  V30 12826 C 1220.88 -0.0629156 -5.31163 0
M  V30 12827 C 1219.92 -1.04669 -6.03084 0
M  V30 12828 N 1219.05 -0.349812 -7.01228 0
M  V30 12829 H 1223.89 -1.36511 -2.64894 0
M  V30 12830 H 1221.43 -0.684288 -1.30215 0
M  V30 12831 H 1223.39 0.628223 -4.12443 0
M  V30 12832 H 1222.02 1.03426 -3.05782 0
M  V30 12833 H 1221.07 -1.33237 -3.56303 0
M  V30 12834 H 1222.38 -1.53988 -4.74436 0
M  V30 12835 H 1221.54 0.419233 -6.0525 0
M  V30 12836 H 1220.28 0.719915 -4.82357 0
M  V30 12837 H 1219.28 -1.53971 -5.278 0
M  V30 12838 H 1220.51 -1.82998 -6.53979 0
M  V30 12839 H 1218.45 0.414026 -6.54692 0
M  V30 12840 H 1218.37 -1.03881 -7.48829 0
M  V30 12841 H 1219.64 0.11034 -7.79422 0
M  V30 12842 N 1223.87 1.39211 -0.738786 0
M  V30 12843 C 1225.14 1.9442 -0.214533 0
M  V30 12844 C 1225.52 1.67528 1.28443 0
M  V30 12845 O 1224.87 1.0056 2.05183 0
M  V30 12846 C 1225.08 3.44603 -0.552232 0
M  V30 12847 C 1226.43 4.21602 -0.503663 0
M  V30 12848 O 1227.45 3.52819 -0.489647 0
M  V30 12849 O 1226.31 5.44194 -0.50153 0
M  V30 12850 H 1223.41 0.826011 -0.0404247 0
M  V30 12851 H 1225.95 1.48689 -0.817902 0
M  V30 12852 H 1224.72 3.57626 -1.58806 0
M  V30 12853 H 1224.35 3.9752 0.0799096 0
M  V30 12854 N 1225.34 0.486708 1.49896 0
M  V30 12855 C 1226.29 -0.313156 2.30482 0
M  V30 12856 C 1227.29 -0.976043 1.38455 0
M  V30 12857 O 1228.49 -0.905364 1.55574 0
M  V30 12858 H 1224.87 -0.119839 0.74239 0
M  V30 12859 H 1226.84 0.386701 2.95884 0
M  V30 12860 C 1225.59 -1.37334 3.19429 0
M  V30 12861 H 1224.91 -0.87265 3.9016 0
M  V30 12862 H 1226.35 -1.90526 3.78782 0
M  V30 12863 C 1224.81 -2.38378 2.38071 0
M  V30 12864 O 1225.34 -3.43972 2.07476 0
M  V30 12865 N 1223.55 -2.10486 2.00359 0
M  V30 12866 H 1223.09 -1.24638 2.2544 0
M  V30 12867 H 1223.05 -2.78324 1.46229 0
M  V30 12868 N 1226.82 -1.56058 0.219941 0
M  V30 12869 C 1228.23 -1.84462 -0.288203 0
M  V30 12870 C 1228.59 -1.14128 -1.59591 0
M  V30 12871 O 1227.71 -0.410411 -2.12473 0
M  V30 12872 C 1228.31 -3.34634 -0.529689 0
M  V30 12873 C 1226.86 -3.63361 -0.982145 0
M  V30 12874 C 1226.01 -2.77265 -0.0443292 0
M  V30 12875 H 1228.96 -1.52387 0.44317 0
M  V30 12876 H 1228.98 -3.54752 -1.3759 0
M  V30 12877 H 1228.5 -3.85796 0.422243 0
M  V30 12878 H 1226.6 -3.17653 -1.94749 0
M  V30 12879 H 1226.71 -4.71361 -0.857668 0
M  V30 12880 H 1225.07 -2.48672 -0.550825 0
M  V30 12881 H 1225.86 -3.31225 0.902491 0
M  V30 12882 N 1228.3 0.053464 -1.57509 0
M  V30 12883 C 1229.55 0.747622 -1.87763 0
M  V30 12884 C 1229.87 1.77178 -0.814433 0
M  V30 12885 O 1229.14 1.95287 0.154862 0
M  V30 12886 H 1227.72 0.279109 -0.692898 0
M  V30 12887 H 1230.38 0.0252006 -1.94884 0
M  V30 12888 H 1229.48 1.25244 -2.85868 0
M  V30 12889 N 1229.78 1.54207 0.325255 0
M  V30 12890 C 1230.69 1.86495 1.42326 0
M  V30 12891 C 1231.71 0.756718 1.56684 0
M  V30 12892 O 1232.88 1.05084 1.71812 0
M  V30 12893 C 1229.95 2.08414 2.77064 0
M  V30 12894 C 1229.01 3.32221 2.71897 0
M  V30 12895 C 1228.24 3.53085 4.00209 0
M  V30 12896 O 1228.46 2.77421 4.98391 0
M  V30 12897 O 1227.4 4.46559 4.0357 0
M  V30 12898 H 1231.22 2.79859 1.17951 0
M  V30 12899 H 1228.81 1.40091 0.519124 0
M  V30 12900 H 1230.69 2.24171 3.56827 0
M  V30 12901 H 1229.37 1.18238 3.01333 0
M  V30 12902 H 1228.27 3.21851 1.90691 0
M  V30 12903 H 1229.61 4.22449 2.52582 0
M  V30 12904 N 1231.26 -0.58723 1.46251 0
M  V30 12905 C 1232.21 -1.71771 1.56836 0
M  V30 12906 C 1233.2 -1.63664 0.437096 0
M  V30 12907 O 1234.41 -1.69212 0.613797 0
M  V30 12908 H 1230.78 -0.567841 0.493012 0
M  V30 12909 H 1232.75 -1.59974 2.51895 0
M  V30 12910 C 1231.5 -3.10159 1.57152 0
M  V30 12911 H 1230.82 -3.17066 2.43535 0
M  V30 12912 H 1232.26 -3.89032 1.68613 0
M  V30 12913 C 1230.72 -3.35567 0.299374 0
M  V30 12914 O 1231.25 -3.97006 -0.612291 0
M  V30 12915 N 1229.46 -2.89987 0.188695 0
M  V30 12916 H 1229.01 -2.4017 0.93147 0
M  V30 12917 H 1228.96 -3.0736 -0.661612 0
M  V30 12918 N 1232.74 -1.33881 -0.831482 0
M  V30 12919 C 1233.7 -1.24654 -1.92339 0
M  V30 12920 C 1234.7 -0.163788 -1.59964 0
M  V30 12921 O 1235.89 -0.415829 -1.69164 0
M  V30 12922 C 1233.02 -0.922537 -3.2818 0
M  V30 12923 H 1234.21 -2.21717 -2.01944 0
M  V30 12924 H 1231.77 -1.18046 -1.02445 0
M  V30 12925 H 1232.5 0.0452872 -3.24268 0
M  V30 12926 H 1232.29 -1.70562 -3.53059 0
M  V30 12927 H 1233.78 -0.88292 -4.0816 0
M  V30 12928 N 1234.21 1.05064 -1.1747 0
M  V30 12929 C 1235.63 1.30256 -0.922248 0
M  V30 12930 C 1235.83 1.97119 0.417896 0
M  V30 12931 O 1234.89 2.24557 1.15457 0
M  V30 12932 C 1236.2 2.17109 -2.08049 0
M  V30 12933 C 1237.75 2.30487 -2.11766 0
M  V30 12934 C 1238.22 3.20701 -3.26979 0
M  V30 12935 N 1239.71 3.28287 -3.26775 0
M  V30 12936 C 1240.45 3.98218 -4.12565 0
M  V30 12937 N 1239.94 4.70567 -5.08467 0
M  V30 12938 N 1241.74 3.94395 -4.00511 0
M  V30 12939 H 1233.89 0.600653 -2.0373 0
M  V30 12940 H 1236.15 0.327475 -0.889643 0
M  V30 12941 H 1235.86 1.75273 -3.04914 0
M  V30 12942 H 1235.73 3.1775 -2.03261 0
M  V30 12943 H 1238.12 2.71564 -1.15486 0
M  V30 12944 H 1238.2 1.29471 -2.20615 0
M  V30 12945 H 1237.84 2.80337 -4.23525 0
M  V30 12946 H 1237.77 4.21725 -3.15366 0
M  V30 12947 H 1240.26 2.76739 -2.5734 0
M  V30 12948 H 1240.58 5.21492 -5.70321 0
M  V30 12949 H 1238.92 4.69505 -5.12436 0
M  V30 12950 H 1242.11 3.37 -3.24882 0
M  V30 12951 H 1242.29 4.48626 -4.67588 0
M  V30 12952 N 1235.69 0.975146 1.23809 0
M  V30 12953 C 1236.62 0.469151 2.24347 0
M  V30 12954 C 1237.64 -0.426156 1.57123 0
M  V30 12955 O 1238.83 -0.231136 1.76997 0
M  V30 12956 C 1235.93 -0.34121 3.37178 0
M  V30 12957 C 1235.1 0.545968 4.33979 0
M  V30 12958 C 1234.16 -0.209648 5.25782 0
M  V30 12959 O 1233.18 0.398953 5.678 0
M  V30 12960 N 1234.39 -1.49713 5.60862 0
M  V30 12961 H 1237.15 1.33359 2.68394 0
M  V30 12962 H 1234.71 0.847814 1.37927 0
M  V30 12963 H 1236.7 -0.854924 3.95567 0
M  V30 12964 H 1235.27 -1.10663 2.92357 0
M  V30 12965 H 1234.49 1.24057 3.7417 0
M  V30 12966 H 1235.78 1.15077 4.95615 0
M  V30 12967 H 1235.18 -2.0132 5.28665 0
M  V30 12968 H 1233.74 -1.95639 6.21746 0
M  V30 12969 N 1237.17 -1.38817 0.746158 0
M  V30 12970 C 1238.1 -2.33144 0.128836 0
M  V30 12971 C 1239.08 -1.54487 -0.711873 0
M  V30 12972 O 1240.27 -1.82836 -0.654577 0
M  V30 12973 C 1237.4 -3.38639 -0.770772 0
M  V30 12974 C 1236.35 -4.27987 -0.0333669 0
M  V30 12975 C 1235.68 -5.24274 -1.05073 0
M  V30 12976 C 1236.98 -5.09915 1.13066 0
M  V30 12977 H 1238.67 -2.85019 0.916778 0
M  V30 12978 H 1236.22 -1.37039 0.442306 0
M  V30 12979 H 1238.17 -4.03587 -1.21225 0
M  V30 12980 H 1236.89 -2.8523 -1.59095 0
M  V30 12981 H 1235.55 -3.64534 0.388612 0
M  V30 12982 H 1235.2 -4.67156 -1.86478 0
M  V30 12983 H 1234.9 -5.84906 -0.562037 0
M  V30 12984 H 1236.42 -5.92099 -1.49169 0
M  V30 12985 H 1237.84 -5.68145 0.767084 0
M  V30 12986 H 1236.23 -5.79744 1.54972 0
M  V30 12987 H 1237.3 -4.4409 1.94709 0
M  V30 12988 N 1238.65 -0.49465 -1.49636 0
M  V30 12989 C 1239.61 0.276064 -2.27531 0
M  V30 12990 C 1240.61 0.899619 -1.3328 0
M  V30 12991 O 1241.8 0.765136 -1.56497 0
M  V30 12992 C 1238.93 1.39547 -3.1103 0
M  V30 12993 H 1240.13 -0.407381 -2.9712 0
M  V30 12994 H 1237.68 -0.249416 -1.54297 0
M  V30 12995 H 1238.41 2.11326 -2.45992 0
M  V30 12996 H 1238.2 0.953877 -3.8032 0
M  V30 12997 H 1239.69 1.93853 -3.69879 0
M  V30 12998 N 1240.13 1.55939 -0.228214 0
M  V30 12999 C 1241.54 1.59094 0.12704 0
M  V30 13000 C 1241.74 1.24514 1.58425 0
M  V30 13001 O 1240.8 0.983544 2.32557 0
M  V30 13002 C 1242.11 2.99999 -0.205268 0
M  V30 13003 C 1243.66 3.1265 -0.148046 0
M  V30 13004 C 1244.13 4.55743 -0.454122 0
M  V30 13005 N 1245.62 4.61435 -0.403937 0
M  V30 13006 C 1246.36 5.70101 -0.614173 0
M  V30 13007 N 1245.86 6.87104 -0.88654 0
M  V30 13008 N 1247.65 5.5944 -0.546153 0
M  V30 13009 H 1239.8 1.7669 -1.17874 0
M  V30 13010 H 1242.06 0.821599 -0.472947 0
M  V30 13011 H 1241.77 3.29976 -1.21692 0
M  V30 13012 H 1241.64 3.74177 0.476573 0
M  V30 13013 H 1244.03 2.82465 0.854255 0
M  V30 13014 H 1244.11 2.40786 -0.863462 0
M  V30 13015 H 1243.75 4.86646 -1.45389 0
M  V30 13016 H 1243.68 5.25841 0.282561 0
M  V30 13017 H 1246.18 3.77363 -0.201388 0
M  V30 13018 H 1246.49 7.65839 -1.03488 0
M  V30 13019 H 1244.83 6.88833 -0.923808 0
M  V30 13020 H 1248.02 4.6691 -0.33355 0
M  V30 13021 H 1248.2 6.44061 -0.713402 0
M  V30 13022 N 1241.6 -0.0451101 1.57535 0
M  V30 13023 C 1242.85 -0.738072 1.87711 0
M  V30 13024 C 1243.17 -1.7737 0.824579 0
M  V30 13025 O 1244.37 -2.51812 1.01503 0
M  V30 13026 C 1242.83 -1.36373 3.33062 0
M  V30 13027 C 1242.44 -0.365283 4.46508 0
M  V30 13028 C 1244.18 -2.0375 3.72406 0
M  V30 13029 C 1242.09 -0.998371 5.82912 0
M  V30 13030 H 1241.02 -0.279413 0.700317 0
M  V30 13031 H 1243.67 0.00802425 1.83498 0
M  V30 13032 H 1242.05 -2.15899 3.31969 0
M  V30 13033 H 1243.22 0.402102 4.59042 0
M  V30 13034 H 1241.54 0.205505 4.15893 0
M  V30 13035 H 1244.14 -2.51939 4.71625 0
M  V30 13036 H 1244.48 -2.84869 3.03571 0
M  V30 13037 H 1245.01 -1.3102 3.75604 0
M  V30 13038 H 1241.75 -0.226935 6.55107 0
M  V30 13039 H 1241.27 -1.73598 5.74129 0
M  V30 13040 H 1242.95 -1.51044 6.29122 0
M  V30 13041 N 1243.08 -1.54377 -0.317073 0
M  V30 13042 C 1244.33 -1.73149 -1.05581 0
M  V30 13043 C 1244.66 -0.507176 -1.8746 0
M  V30 13044 O 1243.94 0.495837 -1.88074 0
M  V30 13045 C 1244.22 -3.01098 -1.97515 0
M  V30 13046 C 1244.07 -4.33794 -1.18922 0
M  V30 13047 C 1245.39 -3.24831 -2.9694 0
M  V30 13048 H 1242.51 -0.630011 -0.382434 0
M  V30 13049 H 1245.15 -1.87079 -0.331873 0
M  V30 13050 H 1243.3 -2.89352 -2.59244 0
M  V30 13051 H 1244.97 -4.57433 -0.596039 0
M  V30 13052 H 1243.22 -4.31005 -0.491612 0
M  V30 13053 H 1243.89 -5.19554 -1.86462 0
M  V30 13054 H 1246.36 -3.3608 -2.45335 0
M  V30 13055 H 1245.24 -4.15702 -3.58445 0
M  V30 13056 H 1245.5 -2.42365 -3.69745 0
M  V30 13057 N 1244.56 0.579466 -1.4656 0
M  V30 13058 C 1245.8 1.34857 -1.536 0
M  V30 13059 C 1246.16 1.91111 -0.184576 0
M  V30 13060 O 1247.37 2.68487 -0.129731 0
M  V30 13061 C 1245.64 2.44535 -2.60648 0
M  V30 13062 S 1247.2 3.31829 -2.87115 0
M  V30 13063 H 1244.01 0.459405 -0.542649 0
M  V30 13064 H 1246.62 0.665798 -1.83813 0
M  V30 13065 H 1245.32 2.01605 -3.57468 0
M  V30 13066 H 1244.85 3.17581 -2.32177 0
M  V30 13067 H 1246.87 4.43452 -2.22632 0
M  V30 13068 N 1246.04 1.3432 0.824371 0
M  V30 13069 C 1247.29 1.26345 1.57738 0
M  V30 13070 C 1247.61 -0.166836 1.94285 0
M  V30 13071 O 1246.88 -1.09911 1.62162 0
M  V30 13072 H 1245.46 0.46466 0.584893 0
M  V30 13073 H 1248.12 1.68214 0.984373 0
M  V30 13074 H 1247.22 1.8672 2.50084 0
M  V30 13075 N 1247.52 -1.0444 1.18026 0
M  V30 13076 C 1248.74 -1.81234 0.998089 0
M  V30 13077 C 1249.16 -1.83271 -0.453559 0
M  V30 13078 O 1248.52 -1.26545 -1.31502 0
M  V30 13079 C 1248.57 -3.27007 1.54106 0
M  V30 13080 O 1248.29 -3.25174 2.93587 0
M  V30 13081 C 1249.79 -4.20461 1.40455 0
M  V30 13082 H 1247.01 -0.57085 0.352663 0
M  V30 13083 H 1249.55 -1.31649 1.56489 0
M  V30 13084 H 1247.71 -3.73837 1.01611 0
M  V30 13085 H 1248.12 -4.16466 3.18836 0
M  V30 13086 H 1249.6 -5.20695 1.83249 0
M  V30 13087 H 1250.07 -4.37781 0.352713 0
M  V30 13088 H 1250.68 -3.79493 1.92004 0
M  V30 13089 N 1248.99 -0.981699 -1.2329 0
M  V30 13090 C 1250.24 -0.652266 -1.92024 0
M  V30 13091 C 1250.57 0.812297 -1.76396 0
M  V30 13092 O 1249.85 1.5861 -1.12575 0
M  V30 13093 C 1250.13 -1.04506 -3.44602 0
M  V30 13094 C 1249.98 -2.56735 -3.69333 0
M  V30 13095 C 1251.3 -0.589937 -4.36128 0
M  V30 13096 H 1248.42 -0.238437 -0.697364 0
M  V30 13097 H 1251.06 -1.22322 -1.45387 0
M  V30 13098 H 1249.21 -0.559242 -3.84454 0
M  V30 13099 H 1250.89 -3.12901 -3.38955 0
M  V30 13100 H 1249.13 -2.9931 -3.14 0
M  V30 13101 H 1249.8 -2.79269 -4.76144 0
M  V30 13102 H 1252.28 -1.00706 -4.0373 0
M  V30 13103 H 1251.15 -0.893192 -5.41584 0
M  V30 13104 H 1251.41 0.509707 -4.39152 0
M  V30 13105 N 1250.47 1.3842 -0.753509 0
M  V30 13106 C 1251.41 2.28079 -0.0741683 0
M  V30 13107 C 1252.38 1.45372 0.728398 0
M  V30 13108 O 1253.57 1.74737 0.707043 0
M  V30 13109 C 1250.69 3.26475 0.901764 0
M  V30 13110 C 1249.74 4.26097 0.185438 0
M  V30 13111 S 1250.57 5.23791 -1.11372 0
M  V30 13112 C 1251.73 6.25741 -0.140861 0
M  V30 13113 H 1251.96 2.85349 -0.834475 0
M  V30 13114 H 1249.5 1.4442 -0.546089 0
M  V30 13115 H 1251.45 3.83678 1.4595 0
M  V30 13116 H 1250.11 2.68189 1.63504 0
M  V30 13117 H 1249.31 4.95447 0.924578 0
M  V30 13118 H 1248.91 3.72789 -0.300772 0
M  V30 13119 H 1251.2 6.73945 0.693174 0
M  V30 13120 H 1252.14 7.03543 -0.80202 0
M  V30 13121 H 1252.55 5.6399 0.2398 0
M  V30 13122 N 1251.95 0.502579 1.49372 0
M  V30 13123 C 1252.91 -0.263993 2.27675 0
M  V30 13124 C 1253.91 -0.892538 1.33755 0
M  V30 13125 O 1255.1 -0.756826 1.56901 0
M  V30 13126 C 1252.24 -1.37895 3.11765 0
M  V30 13127 H 1253.43 0.423132 2.969 0
M  V30 13128 H 1250.98 0.257595 1.54163 0
M  V30 13129 H 1251.72 -2.10018 2.47109 0
M  V30 13130 H 1251.5 -0.933694 3.80821 0
M  V30 13131 H 1252.99 -1.91889 3.70902 0
M  V30 13132 N 1253.43 -1.55816 0.23648 0
M  V30 13133 C 1254.68 -1.98294 -0.390373 0
M  V30 13134 C 1255 -1.12573 -1.59224 0
M  V30 13135 O 1254.27 -0.206128 -1.94813 0
M  V30 13136 H 1252.85 -0.732349 -0.14722 0
M  V30 13137 H 1255.51 -1.92037 0.332848 0
M  V30 13138 H 1254.61 -3.03996 -0.706595 0
M  V30 13139 N 1254.91 0.036755 -1.57557 0
M  V30 13140 C 1255.82 1.05687 -2.09446 0
M  V30 13141 C 1256.83 1.40137 -1.03139 0
M  V30 13142 O 1258.01 1.49611 -1.34828 0
M  V30 13143 C 1255.07 2.34114 -2.55717 0
M  V30 13144 C 1254.13 2.06316 -3.76473 0
M  V30 13145 C 1253.37 3.2862 -4.20529 0
M  V30 13146 O 1253.59 4.3902 -3.64167 0
M  V30 13147 O 1252.52 3.14772 -5.13033 0
M  V30 13148 H 1256.35 0.64593 -2.96751 0
M  V30 13149 H 1253.94 0.253235 -1.47238 0
M  V30 13150 H 1255.82 3.09631 -2.85844 0
M  V30 13151 H 1254.49 2.74519 -1.71526 0
M  V30 13152 H 1253.4 1.28392 -3.51378 0
M  V30 13153 H 1254.73 1.70772 -4.61625 0
M  V30 13154 N 1256.39 1.54543 0.308881 0
M  V30 13155 C 1257.32 1.87947 1.38557 0
M  V30 13156 C 1258.3 0.737622 1.53275 0
M  V30 13157 O 1259.48 0.992664 1.66913 0
M  V30 13158 C 1256.61 2.11982 2.75102 0
M  V30 13159 C 1255.57 3.2783 2.75158 0
M  V30 13160 C 1254.89 3.37266 4.14917 0
M  V30 13161 C 1256.19 4.65129 2.37598 0
M  V30 13162 H 1257.89 2.78123 1.1085 0
M  V30 13163 H 1255.43 1.3382 0.531808 0
M  V30 13164 H 1257.38 2.33935 3.50503 0
M  V30 13165 H 1256.11 1.18569 3.04317 0
M  V30 13166 H 1254.77 3.05787 2.02212 0
M  V30 13167 H 1254.42 2.41384 4.41296 0
M  V30 13168 H 1254.12 4.15135 4.15857 0
M  V30 13169 H 1255.64 3.61471 4.92109 0
M  V30 13170 H 1257.05 4.86865 3.02714 0
M  V30 13171 H 1255.45 5.45653 2.49765 0
M  V30 13172 H 1256.52 4.6638 1.32731 0
M  V30 13173 N 1257.86 -0.571685 1.46866 0
M  V30 13174 C 1259.09 -1.36008 1.56578 0
M  V30 13175 C 1259.51 -1.86909 0.211326 0
M  V30 13176 O 1258.87 -1.62179 -0.810421 0
M  V30 13177 C 1258.92 -2.51598 2.58323 0
M  V30 13178 O 1258.02 -3.53383 2.1259 0
M  V30 13179 H 1257.36 -0.404593 0.526498 0
M  V30 13180 H 1259.89 -0.692357 1.92529 0
M  V30 13181 H 1259.9 -2.98366 2.78283 0
M  V30 13182 H 1258.58 -2.13904 3.56676 0
M  V30 13183 H 1257.16 -3.13019 2.02666 0
M  V30 13184 N 1259.34 -1.34755 -0.817236 0
M  V30 13185 C 1260.27 -1.29452 -1.94331 0
M  V30 13186 C 1261.25 -0.170902 -1.69239 0
M  V30 13187 O 1262.44 -0.364173 -1.90755 0
M  V30 13188 C 1259.57 -1.05497 -3.30889 0
M  V30 13189 C 1258.52 -2.14386 -3.70436 0
M  V30 13190 C 1257.85 -1.75612 -5.05039 0
M  V30 13191 C 1259.15 -3.56265 -3.81933 0
M  V30 13192 H 1260.84 -2.23672 -1.99025 0
M  V30 13193 H 1258.39 -1.07674 -0.956159 0
M  V30 13194 H 1260.34 -1.0043 -4.09257 0
M  V30 13195 H 1259.06 -0.0772059 -3.26509 0
M  V30 13196 H 1257.72 -2.18532 -2.94345 0
M  V30 13197 H 1257.37 -0.764809 -4.97152 0
M  V30 13198 H 1257.07 -2.48495 -5.3247 0
M  V30 13199 H 1258.6 -1.72051 -5.85859 0
M  V30 13200 H 1260.01 -3.545 -4.50558 0
M  V30 13201 H 1258.41 -4.27818 -4.20822 0
M  V30 13202 H 1259.48 -3.93192 -2.83775 0
M  V30 13203 N 1260.82 1.03812 -1.18578 0
M  V30 13204 C 1261.75 2.11436 -0.858502 0
M  V30 13205 C 1262.73 1.61594 0.180604 0
M  V30 13206 O 1263.91 1.88408 0.058995 0
M  V30 13207 C 1261.04 3.37514 -0.283154 0
M  V30 13208 C 1260.09 4.0621 -1.29985 0
M  V30 13209 S 1260.92 4.52936 -2.85673 0
M  V30 13210 C 1262.08 5.82245 -2.29656 0
M  V30 13211 H 1262.31 2.38871 -1.76997 0
M  V30 13212 H 1259.84 1.16617 -1.01192 0
M  V30 13213 H 1261.8 4.10478 0.0422898 0
M  V30 13214 H 1260.46 3.08189 0.60647 0
M  V30 13215 H 1259.65 4.96845 -0.84621 0
M  V30 13216 H 1259.26 3.39374 -1.57166 0
M  V30 13217 H 1261.55 6.56321 -1.68074 0
M  V30 13218 H 1262.49 6.32375 -3.18602 0
M  V30 13219 H 1262.9 5.37472 -1.72581 0
M  V30 13220 N 1262.3 0.988223 1.22768 0
M  V30 13221 C 1263.26 0.539813 2.22752 0
M  V30 13222 C 1264.26 -0.374796 1.56371 0
M  V30 13223 O 1265.45 -0.167402 1.73394 0
M  V30 13224 C 1262.58 -0.215461 3.40218 0
M  V30 13225 H 1263.78 1.42397 2.63938 0
M  V30 13226 H 1261.33 0.774933 1.35737 0
M  V30 13227 H 1262.06 -1.11581 3.045 0
M  V30 13228 H 1261.85 0.441173 3.8961 0
M  V30 13229 H 1263.34 -0.517517 4.14381 0
M  V30 13230 N 1263.78 -1.38018 0.760839 0
M  V30 13231 C 1264.74 -2.28734 0.146154 0
M  V30 13232 C 1265.74 -1.47525 -0.639768 0
M  V30 13233 O 1266.93 -1.6788 -0.464964 0
M  V30 13234 C 1264.06 -3.31356 -0.801019 0
M  V30 13235 H 1265.25 -2.84599 0.945692 0
M  V30 13236 H 1262.81 -1.471 0.528323 0
M  V30 13237 H 1263.54 -2.80594 -1.62597 0
M  V30 13238 H 1263.33 -3.91366 -0.239775 0
M  V30 13239 H 1264.82 -3.99171 -1.22687 0
M  V30 13240 N 1265.25 -0.510493 -1.49103 0
M  V30 13241 C 1266.18 0.251999 -2.32136 0
M  V30 13242 C 1267.16 0.953613 -1.40855 0
M  V30 13243 O 1268.35 0.943178 -1.69758 0
M  V30 13244 C 1265.48 1.31118 -3.21598 0
M  V30 13245 C 1264.43 0.72888 -4.21748 0
M  V30 13246 C 1263.76 1.88928 -5.0021 0
M  V30 13247 C 1265.06 -0.286425 -5.21514 0
M  V30 13248 H 1266.75 -0.441102 -2.96133 0
M  V30 13249 H 1264.3 -0.213577 -1.42407 0
M  V30 13250 H 1266.25 1.8524 -3.78503 0
M  V30 13251 H 1264.98 2.0336 -2.55563 0
M  V30 13252 H 1263.64 0.209336 -3.66002 0
M  V30 13253 H 1263.28 2.59961 -4.30615 0
M  V30 13254 H 1262.98 1.50568 -5.67981 0
M  V30 13255 H 1264.51 2.43465 -5.59962 0
M  V30 13256 H 1265.92 0.166997 -5.73057 0
M  V30 13257 H 1264.32 -0.586361 -5.97228 0
M  V30 13258 H 1265.39 -1.19904 -4.69842 0
M  V30 13259 N 1266.73 1.55688 -0.24474 0
M  V30 13260 C 1267.69 2.20014 0.642382 0
M  V30 13261 C 1268.69 1.16877 1.10437 0
M  V30 13262 O 1269.88 1.41972 1.00943 0
M  V30 13263 C 1267.02 2.84198 1.88267 0
M  V30 13264 H 1268.21 2.9979 0.0811937 0
M  V30 13265 H 1265.76 1.56299 0.00480917 0
M  V30 13266 H 1266.5 2.08354 2.48514 0
M  V30 13267 H 1266.28 3.59747 1.55963 0
M  V30 13268 H 1267.77 3.33434 2.5142 0
M  V30 13269 N 1268.21 -0.0283989 1.57574 0
M  V30 13270 C 1269.17 -1.01346 2.05576 0
M  V30 13271 C 1270.17 -1.28999 0.960001 0
M  V30 13272 O 1271.36 -1.23991 1.2236 0
M  V30 13273 C 1268.49 -2.34611 2.47327 0
M  V30 13274 H 1269.69 -0.598809 2.93861 0
M  V30 13275 H 1267.24 -0.27524 1.53857 0
M  V30 13276 H 1267.98 -2.80823 1.622 0
M  V30 13277 H 1267.76 -2.1587 3.27326 0
M  V30 13278 H 1269.25 -3.05332 2.84889 0
M  V30 13279 N 1269.69 -1.54705 -0.300681 0
M  V30 13280 C 1270.94 -1.73658 -1.0338 0
M  V30 13281 C 1271.26 -0.525447 -1.87787 0
M  V30 13282 O 1270.53 0.460269 -1.90416 0
M  V30 13283 H 1269.11 -0.640338 -0.384677 0
M  V30 13284 H 1271.77 -1.92059 -0.331588 0
M  V30 13285 H 1270.86 -2.62595 -1.68672 0
M  V30 13286 N 1271.17 0.563888 -1.47167 0
M  V30 13287 C 1272.12 1.66687 -1.55562 0
M  V30 13288 C 1273.1 1.55455 -0.415024 0
M  V30 13289 O 1274.29 1.64051 -0.664557 0
M  V30 13290 C 1271.42 3.05469 -1.56665 0
M  V30 13291 C 1270.51 3.21928 -2.76085 0
M  V30 13292 N 1270.9 3.08477 -4.00844 0
M  V30 13293 C 1269.2 3.52913 -2.72706 0
M  V30 13294 C 1269.9 3.27447 -4.80784 0
M  V30 13295 N 1268.87 3.53474 -4.12986 0
M  V30 13296 H 1272.68 1.54846 -2.498 0
M  V30 13297 H 1270.19 0.76846 -1.43068 0
M  V30 13298 H 1272.19 3.84655 -1.60768 0
M  V30 13299 H 1270.85 3.18427 -0.635174 0
M  V30 13300 H 1271.86 2.85944 -4.31806 0
M  V30 13301 H 1268.53 3.7244 -1.88666 0
M  V30 13302 H 1269.92 3.22072 -5.89677 0
M  V30 13303 N 1272.64 1.35187 0.810078 0
M  V30 13304 C 1273.57 1.30481 1.93641 0
M  V30 13305 C 1274.56 0.179875 1.69146 0
M  V30 13306 O 1275.74 0.374284 1.90559 0
M  V30 13307 C 1272.87 1.07251 3.30325 0
M  V30 13308 C 1271.82 2.16348 3.69293 0
M  V30 13309 C 1271.15 1.78288 5.04101 0
M  V30 13310 C 1272.45 3.58285 3.80038 0
M  V30 13311 H 1274.14 2.24725 1.97836 0
M  V30 13312 H 1271.69 1.08179 0.950436 0
M  V30 13313 H 1273.64 1.02599 4.08719 0
M  V30 13314 H 1272.37 0.0945203 3.26463 0
M  V30 13315 H 1271.03 2.2009 2.93182 0
M  V30 13316 H 1270.67 0.791163 4.96739 0
M  V30 13317 H 1270.37 2.51315 5.31144 0
M  V30 13318 H 1271.9 1.75155 5.84938 0
M  V30 13319 H 1273.31 3.56884 4.48672 0
M  V30 13320 H 1271.71 4.30044 4.18548 0
M  V30 13321 H 1272.78 3.94691 2.81685 0
M  V30 13322 N 1274.12 -1.03182 1.19127 0
M  V30 13323 C 1275.37 -1.76794 0.993563 0
M  V30 13324 C 1275.7 -1.88306 -0.474809 0
M  V30 13325 O 1274.98 -1.39769 -1.35258 0
M  V30 13326 C 1275.26 -3.19573 1.65968 0
M  V30 13327 C 1275.11 -3.1595 3.2015 0
M  V30 13328 C 1276.43 -4.17897 1.38023 0
M  V30 13329 H 1273.55 -0.641768 0.362357 0
M  V30 13330 H 1276.19 -1.20472 1.46924 0
M  V30 13331 H 1274.34 -3.67663 1.25524 0
M  V30 13332 H 1276.01 -2.7578 3.69788 0
M  V30 13333 H 1274.26 -2.53743 3.51848 0
M  V30 13334 H 1274.93 -4.16811 3.61901 0
M  V30 13335 H 1277.4 -3.78394 1.73082 0
M  V30 13336 H 1276.28 -5.15997 1.87186 0
M  V30 13337 H 1276.54 -4.41048 0.304812 0
M  V30 13338 N 1275.6 -0.99472 -1.22242 0
M  V30 13339 C 1276.55 -0.546504 -2.24236 0
M  V30 13340 C 1277.52 0.422101 -1.60647 0
M  V30 13341 O 1278.7 0.326452 -1.87987 0
M  V30 13342 C 1275.84 0.130909 -3.44852 0
M  V30 13343 C 1274.96 -0.879653 -4.22949 0
M  V30 13344 C 1274.09 -0.175569 -5.3091 0
M  V30 13345 C 1273.13 -1.17438 -6.00729 0
M  V30 13346 N 1272.27 -0.498474 -7.00328 0
M  V30 13347 H 1277.11 -1.42099 -2.61939 0
M  V30 13348 H 1274.64 -0.711755 -1.28734 0
M  V30 13349 H 1276.6 0.540596 -4.13683 0
M  V30 13350 H 1275.23 0.96917 -3.07907 0
M  V30 13351 H 1274.28 -1.40765 -3.53397 0
M  V30 13352 H 1275.6 -1.64017 -4.71062 0
M  V30 13353 H 1274.75 0.290756 -6.06003 0
M  V30 13354 H 1273.49 0.617438 -4.83776 0
M  V30 13355 H 1272.49 -1.65131 -5.24416 0
M  V30 13356 H 1273.72 -1.96829 -6.4995 0
M  V30 13357 H 1271.66 0.275063 -6.55423 0
M  V30 13358 H 1271.58 -1.19741 -7.46457 0
M  V30 13359 H 1272.85 -0.0550119 -7.79481 0
M  V30 13360 N 1277.08 1.37613 -0.768148 0
M  V30 13361 C 1278.3 2.04579 -0.340892 0
M  V30 13362 C 1278.73 1.57556 1.02751 0
M  V30 13363 O 1278.09 0.734151 1.65771 0
M  V30 13364 C 1278.13 3.58495 -0.389099 0
M  V30 13365 O 1277.24 4.07838 0.611741 0
M  V30 13366 H 1276.58 0.647246 -0.148216 0
M  V30 13367 H 1279.11 1.75999 -1.04333 0
M  V30 13368 H 1279.12 4.07263 -0.245116 0
M  V30 13369 H 1277.79 3.92076 -1.38742 0
M  V30 13370 H 1276.37 3.70399 0.431173 0
M  V30 13371 N 1278.56 0.518393 1.4883 0
M  V30 13372 C 1279.51 -0.270295 2.26392 0
M  V30 13373 C 1280.49 -0.9202 1.31989 0
M  V30 13374 O 1281.68 -0.824923 1.56601 0
M  V30 13375 C 1278.81 -1.32368 3.16755 0
M  V30 13376 C 1277.9 -0.679143 4.18627 0
M  V30 13377 N 1278.29 0.228392 5.05284 0
M  V30 13378 C 1276.59 -0.937712 4.36031 0
M  V30 13379 C 1277.29 0.599076 5.78607 0
M  V30 13380 N 1276.26 -0.0371273 5.43587 0
M  V30 13381 H 1280.07 0.428066 2.90766 0
M  V30 13382 H 1277.58 0.335632 1.58894 0
M  V30 13383 H 1279.58 -1.9023 3.70969 0
M  V30 13384 H 1278.24 -2.02354 2.53935 0
M  V30 13385 H 1279.25 0.600292 5.14409 0
M  V30 13386 H 1275.92 -1.62901 3.84408 0
M  V30 13387 H 1277.31 1.34256 6.5835 0
M  V30 13388 N 1280.03 -1.55556 0.252993 0
M  V30 13389 C 1280.97 -2.17683 -0.684776 0
M  V30 13390 C 1281.95 -1.13077 -1.16843 0
M  V30 13391 O 1283.13 -1.41495 -1.24545 0
M  V30 13392 C 1280.26 -2.78239 -1.93134 0
M  V30 13393 C 1279.3 -3.95953 -1.58504 0
M  V30 13394 S 1280.14 -5.31135 -0.682367 0
M  V30 13395 C 1281.29 -5.95147 -1.93779 0
M  V30 13396 H 1281.52 -2.96886 -0.156823 0
M  V30 13397 H 1279.06 -1.54355 0.0374019 0
M  V30 13398 H 1281.02 -3.13763 -2.64694 0
M  V30 13399 H 1279.68 -1.98971 -2.43042 0
M  V30 13400 H 1278.87 -4.36936 -2.51203 0
M  V30 13401 H 1278.47 -3.61738 -0.949815 0
M  V30 13402 H 1280.76 -6.13035 -2.88435 0
M  V30 13403 H 1281.71 -6.90445 -1.57135 0
M  V30 13404 H 1282.11 -5.24279 -2.09266 0
M  V30 13405 N 1281.51 0.0200419 -1.57587 0
M  V30 13406 C 1282.76 0.708115 -1.88861 0
M  V30 13407 C 1283.07 1.76036 -0.852693 0
M  V30 13408 O 1284.28 2.50165 -1.05497 0
M  V30 13409 C 1282.74 1.31057 -3.3519 0
M  V30 13410 C 1282.34 0.294202 -4.47033 0
M  V30 13411 C 1284.09 1.97799 -3.756 0
M  V30 13412 C 1282 0.905508 -5.84427 0
M  V30 13413 H 1280.93 0.268236 -0.704674 0
M  V30 13414 H 1283.58 -0.0372162 -1.83462 0
M  V30 13415 H 1281.96 2.1059 -3.35362 0
M  V30 13416 H 1283.13 -0.475081 -4.58344 0
M  V30 13417 H 1281.45 -0.271644 -4.15513 0
M  V30 13418 H 1284.04 2.44404 -4.75574 0
M  V30 13419 H 1284.39 2.80004 -3.08064 0
M  V30 13420 H 1284.92 1.25028 -3.77641 0
M  V30 13421 H 1281.66 0.122685 -6.55385 0
M  V30 13422 H 1281.18 1.64442 -5.76818 0
M  V30 13423 H 1282.86 1.41016 -6.31446 0
M  V30 13424 N 1282.99 1.54862 0.292472 0
M  V30 13425 C 1283.94 1.82788 1.36281 0
M  V30 13426 C 1284.92 0.685534 1.45565 0
M  V30 13427 O 1286.12 0.946393 1.49574 0
M  V30 13428 C 1283.25 2.08616 2.72643 0
M  V30 13429 C 1282.33 3.29058 2.67548 0
M  V30 13430 N 1282.72 4.49419 2.32069 0
M  V30 13431 C 1281.02 3.31257 2.98639 0
M  V30 13432 C 1281.72 5.31461 2.36483 0
M  V30 13433 N 1280.7 4.69389 2.7418 0
M  V30 13434 H 1284.5 2.73405 1.07828 0
M  V30 13435 H 1282.01 1.54477 0.501074 0
M  V30 13436 H 1284.01 2.26772 3.49829 0
M  V30 13437 H 1282.67 1.19272 3.02001 0
M  V30 13438 H 1283.68 4.75868 2.04377 0
M  V30 13439 H 1280.36 2.52045 3.32836 0
M  V30 13440 H 1281.75 6.37651 2.11779 0
M  V30 13441 N 1284.47 -0.556076 1.47464 0
M  V30 13442 C 1285.42 -1.68406 1.60444 0
M  V30 13443 C 1286.41 -1.627 0.471713 0
M  V30 13444 O 1287.62 -1.67871 0.649551 0
M  V30 13445 H 1283.99 -0.557255 0.504946 0
M  V30 13446 H 1285.96 -1.54595 2.55231 0
M  V30 13447 C 1284.71 -3.06756 1.63695 0
M  V30 13448 H 1284.03 -3.11829 2.50206 0
M  V30 13449 H 1285.47 -3.85368 1.76827 0
M  V30 13450 C 1283.93 -3.34857 0.370485 0
M  V30 13451 O 1284.46 -3.98216 -0.527942 0
M  V30 13452 N 1282.67 -2.89521 0.250163 0
M  V30 13453 H 1282.22 -2.3814 0.982204 0
M  V30 13454 H 1282.17 -3.08694 -0.596268 0
M  V30 13455 N 1285.95 -1.35615 -0.802897 0
M  V30 13456 C 1287.36 -1.15733 -1.099 0
M  V30 13457 C 1287.56 0.0277094 -2.01481 0
M  V30 13458 O 1286.62 0.697196 -2.42684 0
M  V30 13459 C 1287.93 -2.46201 -1.72643 0
M  V30 13460 C 1289.48 -2.52442 -1.85046 0
M  V30 13461 C 1289.96 -3.82962 -2.51205 0
M  V30 13462 N 1291.45 -3.84234 -2.58686 0
M  V30 13463 C 1292.18 -4.81956 -3.10654 0
M  V30 13464 N 1291.68 -5.90068 -3.63032 0
M  V30 13465 N 1293.47 -4.69389 -3.09241 0
M  V30 13466 H 1285.62 -2.11511 -0.194177 0
M  V30 13467 H 1287.88 -0.936259 -0.148739 0
M  V30 13468 H 1287.59 -3.33114 -1.12817 0
M  V30 13469 H 1287.46 -2.6102 -2.72302 0
M  V30 13470 H 1289.85 -1.65955 -2.44014 0
M  V30 13471 H 1289.93 -2.41534 -0.842316 0
M  V30 13472 H 1289.58 -4.69848 -1.92885 0
M  V30 13473 H 1289.51 -3.9116 -3.52564 0
M  V30 13474 H 1292 -3.0612 -2.21582 0
M  V30 13475 H 1292.31 -6.60623 -4.00996 0
M  V30 13476 H 1290.66 -5.93755 -3.6122 0
M  V30 13477 H 1293.85 -3.84066 -2.67602 0
M  V30 13478 H 1294.02 -5.4571 -3.49435 0
M  V30 13479 N 1287.43 1.02549 -1.19673 0
M  V30 13480 C 1288.65 1.8016 -1.02748 0
M  V30 13481 C 1289.08 1.83372 0.419105 0
M  V30 13482 O 1288.43 1.26222 1.30144 0
M  V30 13483 C 1288.48 3.22907 -1.60509 0
M  V30 13484 O 1287.59 4.03823 -0.836702 0
M  V30 13485 H 1286.93 0.556027 -0.362946 0
M  V30 13486 H 1289.46 1.29047 -1.5877 0
M  V30 13487 H 1289.47 3.73646 -1.63868 0
M  V30 13488 H 1288.14 3.19885 -2.65794 0
M  V30 13489 H 1286.72 3.6245 -0.876626 0
M  V30 13490 N 1288.9 1.00119 1.21713 0
M  V30 13491 C 1289.85 0.558388 2.23943 0
M  V30 13492 C 1290.82 -0.413576 1.60869 0
M  V30 13493 O 1292.01 -0.316478 1.88157 0
M  V30 13494 C 1289.15 -0.112618 3.44916 0
M  V30 13495 C 1288.26 0.902071 4.22477 0
M  V30 13496 C 1287.39 0.203722 5.30809 0
M  V30 13497 C 1286.43 1.20622 6.00097 0
M  V30 13498 N 1285.57 0.535607 7.00054 0
M  V30 13499 H 1290.41 1.43486 2.61182 0
M  V30 13500 H 1287.95 0.718572 1.28355 0
M  V30 13501 H 1289.9 -0.51865 4.13964 0
M  V30 13502 H 1288.53 -0.952827 3.08417 0
M  V30 13503 H 1287.59 1.42637 3.52645 0
M  V30 13504 H 1288.9 1.66513 4.70186 0
M  V30 13505 H 1288.05 -0.258614 6.06149 0
M  V30 13506 H 1286.79 -0.591773 4.84096 0
M  V30 13507 H 1285.8 1.6791 5.23532 0
M  V30 13508 H 1287.02 2.00273 6.48897 0
M  V30 13509 H 1284.97 -0.2403 6.5556 0
M  V30 13510 H 1284.88 1.23698 7.45812 0
M  V30 13511 H 1286.15 0.0963489 7.7944 0
M  V30 13512 N 1290.38 -1.37203 0.775435 0
M  V30 13513 C 1291.63 -1.98846 0.338093 0
M  V30 13514 C 1291.94 -1.6225 -1.09244 0
M  V30 13515 O 1293.15 -2.17024 -1.63135 0
M  V30 13516 C 1291.61 -3.55618 0.553541 0
M  V30 13517 C 1291.21 -4.01149 1.99457 0
M  V30 13518 C 1292.96 -4.24118 0.180006 0
M  V30 13519 C 1290.86 -5.50644 2.15742 0
M  V30 13520 H 1289.79 -0.743955 0.122669 0
M  V30 13521 H 1292.45 -1.56685 0.955087 0
M  V30 13522 H 1290.83 -3.95777 -0.132964 0
M  V30 13523 H 1292 -3.72226 2.71633 0
M  V30 13524 H 1290.32 -3.45443 2.32504 0
M  V30 13525 H 1292.91 -5.33966 0.280145 0
M  V30 13526 H 1293.26 -4.07104 -0.870192 0
M  V30 13527 H 1293.79 -3.89274 0.819201 0
M  V30 13528 H 1290.53 -5.7259 3.19094 0
M  V30 13529 H 1290.05 -5.8124 1.48054 0
M  V30 13530 H 1291.73 -6.16668 1.95781 0
M  V30 13531 N 1291.86 -0.526279 -1.48553 0
M  V30 13532 C 1292.81 0.251938 -2.31232 0
M  V30 13533 C 1293.8 0.938991 -1.40994 0
M  V30 13534 O 1295.01 0.863798 -1.57919 0
M  V30 13535 H 1291.38 0.100114 -0.745306 0
M  V30 13536 H 1293.35 -0.465013 -2.94754 0
M  V30 13537 C 1292.1 1.28816 -3.22958 0
M  V30 13538 H 1291.43 0.768899 -3.92337 0
M  V30 13539 H 1292.87 1.80417 -3.837 0
M  V30 13540 C 1291.32 2.31982 -2.44307 0
M  V30 13541 O 1291.85 3.3835 -2.16523 0
M  V30 13542 N 1290.06 2.051 -2.05869 0
M  V30 13543 H 1289.61 1.18618 -2.28665 0
M  V30 13544 H 1289.57 2.74349 -1.53557 0
M  V30 13545 N 1293.34 1.5542 -0.261239 0
M  V30 13546 C 1294.27 2.24949 0.626126 0
M  V30 13547 C 1295.25 1.23474 1.16997 0
M  V30 13548 O 1296.43 1.52161 1.20667 0
M  V30 13549 C 1293.56 2.95996 1.81669 0
M  V30 13550 C 1292.52 4.04282 1.40499 0
M  V30 13551 C 1291.84 4.62831 2.67753 0
M  V30 13552 C 1293.14 5.1923 0.56543 0
M  V30 13553 H 1294.84 2.99364 0.0463164 0
M  V30 13554 H 1292.38 1.43985 0.0208366 0
M  V30 13555 H 1294.34 3.43343 2.44323 0
M  V30 13556 H 1293.06 2.19093 2.42211 0
M  V30 13557 H 1291.72 3.57726 0.801712 0
M  V30 13558 H 1291.37 3.82611 3.26524 0
M  V30 13559 H 1291.07 5.35938 2.40925 0
M  V30 13560 H 1292.59 5.12918 3.31281 0
M  V30 13561 H 1294.01 5.62714 1.09663 0
M  V30 13562 H 1292.4 5.98814 0.392607 0
M  V30 13563 H 1293.47 4.83086 -0.419059 0
M  V30 13564 N 1294.82 -0.0116844 1.57596 0
M  V30 13565 C 1295.75 -1.03477 2.04512 0
M  V30 13566 C 1296.76 -1.31414 0.960945 0
M  V30 13567 O 1297.95 -1.28596 1.23796 0
M  V30 13568 C 1295.05 -2.37234 2.42019 0
M  V30 13569 C 1294.22 -2.28405 3.73028 0
M  V30 13570 C 1293.28 -3.44753 3.97532 0
M  V30 13571 O 1292.31 -3.23465 4.68358 0
M  V30 13572 N 1293.51 -4.67212 3.44518 0
M  V30 13573 H 1296.27 -0.634758 2.92901 0
M  V30 13574 H 1293.84 -0.1993 1.60669 0
M  V30 13575 H 1295.83 -3.13821 2.55535 0
M  V30 13576 H 1294.4 -2.69018 1.5921 0
M  V30 13577 H 1293.62 -1.36804 3.697 0
M  V30 13578 H 1294.91 -2.19666 4.58938 0
M  V30 13579 H 1294.3 -4.87407 2.87142 0
M  V30 13580 H 1292.86 -5.41105 3.63384 0
M  V30 13581 N 1296.29 -1.55015 -0.284256 0
M  V30 13582 C 1297.57 -1.6579 -1.03794 0
M  V30 13583 C 1297.95 -0.517029 -2.04671 0
M  V30 13584 O 1297.3 0.484287 -2.23309 0
M  V30 13585 C 1297.51 -3.04527 -1.70483 0
M  V30 13586 C 1298.86 -3.61903 -2.22062 0
M  V30 13587 O 1299.88 -3.07087 -1.80488 0
M  V30 13588 O 1298.74 -4.57917 -2.98286 0
M  V30 13589 H 1295.83 -0.672906 -0.480757 0
M  V30 13590 H 1298.38 -1.67357 -0.281009 0
M  V30 13591 H 1297.15 -3.79004 -0.973238 0
M  V30 13592 H 1296.77 -3.0681 -2.5289 0
M  V30 13593 N 1297.77 0.548248 -1.47757 0
M  V30 13594 C 1298.7 1.66409 -1.63799 0
M  V30 13595 C 1299.68 1.62973 -0.487211 0
M  V30 13596 O 1300.87 1.80455 -0.717612 0
M  V30 13597 C 1298 3.05035 -1.66046 0
M  V30 13598 C 1296.95 3.23322 -2.80441 0
M  V30 13599 C 1296.28 4.62824 -2.67765 0
M  V30 13600 C 1297.58 3.07837 -4.2194 0
M  V30 13601 H 1299.27 1.53239 -2.57212 0
M  V30 13602 H 1296.82 0.735783 -1.23783 0
M  V30 13603 H 1298.77 3.82951 -1.75859 0
M  V30 13604 H 1297.49 3.19185 -0.69199 0
M  V30 13605 H 1296.15 2.47816 -2.70153 0
M  V30 13606 H 1295.8 4.73786 -1.68927 0
M  V30 13607 H 1295.5 4.76007 -3.44515 0
M  V30 13608 H 1297.03 5.42864 -2.7952 0
M  V30 13609 H 1298.44 3.75563 -4.33157 0
M  V30 13610 H 1296.84 3.32525 -4.99547 0
M  V30 13611 H 1297.91 2.04474 -4.3968 0
M  V30 13612 N 1299.25 1.36039 0.795694 0
M  V30 13613 C 1300.18 1.25713 1.91648 0
M  V30 13614 C 1301.19 0.177993 1.61824 0
M  V30 13615 O 1302.38 0.432186 1.73189 0
M  V30 13616 C 1299.48 0.915546 3.26299 0
M  V30 13617 C 1298.66 2.09528 3.83949 0
M  V30 13618 C 1297.72 1.72775 4.97026 0
M  V30 13619 O 1296.74 2.44786 5.13876 0
M  V30 13620 N 1297.94 0.65775 5.76762 0
M  V30 13621 H 1300.71 2.22277 2.01029 0
M  V30 13622 H 1298.27 1.2935 0.973657 0
M  V30 13623 H 1300.26 0.650958 3.9943 0
M  V30 13624 H 1298.83 0.0392343 3.12575 0
M  V30 13625 H 1298.05 2.52304 3.0288 0
M  V30 13626 H 1299.34 2.88361 4.19196 0
M  V30 13627 H 1298.74 0.0596875 5.65669 0
M  V30 13628 H 1297.29 0.45297 6.50224 0
M  V30 13629 N 1300.73 -1.01913 1.20215 0
M  V30 13630 C 1301.98 -1.75124 1.00876 0
M  V30 13631 C 1302.3 -1.89485 -0.460475 0
M  V30 13632 O 1301.57 -1.43552 -1.33302 0
M  V30 13633 H 1300.15 -0.648777 0.370266 0
M  V30 13634 H 1302.81 -1.22883 1.5128 0
M  V30 13635 H 1301.91 -2.7558 1.46499 0
M  V30 13636 N 1302.21 -1.00763 -1.2118 0
M  V30 13637 C 1303.17 -0.575183 -2.21865 0
M  V30 13638 C 1304.17 0.349871 -1.56948 0
M  V30 13639 O 1305.36 0.139795 -1.73638 0
M  V30 13640 C 1302.49 0.161308 -3.40518 0
M  V30 13641 H 1303.68 -1.46578 -2.61639 0
M  V30 13642 H 1301.24 -0.79643 -1.34487 0
M  V30 13643 H 1301.97 1.06723 -3.06236 0
M  V30 13644 H 1301.76 -0.503101 -3.88859 0
M  V30 13645 H 1303.25 0.451527 -4.15152 0
M  V30 13646 N 1303.68 1.3679 -0.7827 0
M  V30 13647 C 1304.92 2.01252 -0.357327 0
M  V30 13648 C 1305.29 1.60782 1.04944 0
M  V30 13649 O 1306.49 2.17785 1.57553 0
M  V30 13650 C 1304.76 3.53766 -0.508352 0
M  V30 13651 S 1306.32 4.38471 -0.169862 0
M  V30 13652 H 1303.14 0.697701 -0.136875 0
M  V30 13653 H 1305.74 1.66799 -1.01972 0
M  V30 13654 H 1304.44 3.80708 -1.53262 0
M  V30 13655 H 1303.97 3.93032 0.170209 0
M  V30 13656 H 1305.99 4.85373 1.03088 0
M  V30 13657 N 1305.16 0.53415 1.48272 0
M  V30 13658 C 1306.39 0.00574475 2.06899 0
M  V30 13659 C 1306.81 -1.27754 1.39012 0
M  V30 13660 O 1306.16 -1.76102 0.478993 0
M  V30 13661 C 1306.21 -0.217576 3.60845 0
M  V30 13662 O 1305.93 1.01487 4.26183 0
M  V30 13663 C 1307.44 -0.785888 4.36278 0
M  V30 13664 H 1304.66 0.0353967 0.670066 0
M  V30 13665 H 1307.2 0.740984 1.90603 0
M  V30 13666 H 1305.35 -0.902875 3.76732 0
M  V30 13667 H 1305.77 0.7982 5.18391 0
M  V30 13668 H 1307.24 -0.891551 5.44753 0
M  V30 13669 H 1307.72 -1.79178 4.00989 0
M  V30 13670 H 1308.33 -0.137022 4.25079 0
M  V30 13671 N 1306.64 -1.55279 0.269478 0
M  V30 13672 C 1307.59 -2.22304 -0.620435 0
M  V30 13673 C 1308.56 -1.19457 -1.15409 0
M  V30 13674 O 1309.74 -1.4798 -1.20443 0
M  V30 13675 C 1306.88 -2.94356 -1.80134 0
M  V30 13676 C 1306 -4.1191 -1.30207 0
M  V30 13677 C 1305.13 -4.71621 -2.44433 0
M  V30 13678 C 1304.17 -5.81379 -1.91481 0
M  V30 13679 N 1303.31 -6.35176 -2.99158 0
M  V30 13680 H 1308.15 -2.9797 -0.0422165 0
M  V30 13681 H 1305.68 -1.47097 -0.00907173 0
M  V30 13682 H 1307.64 -3.34343 -2.4954 0
M  V30 13683 H 1306.27 -2.21124 -2.35168 0
M  V30 13684 H 1305.32 -3.77082 -0.501301 0
M  V30 13685 H 1306.64 -4.9108 -0.874183 0
M  V30 13686 H 1305.79 -5.14298 -3.21842 0
M  V30 13687 H 1304.53 -3.91715 -2.90535 0
M  V30 13688 H 1303.53 -5.38157 -1.12549 0
M  V30 13689 H 1304.76 -6.63149 -1.46322 0
M  V30 13690 H 1302.7 -5.58167 -3.44652 0
M  V30 13691 H 1302.62 -7.09602 -2.60769 0
M  V30 13692 H 1303.89 -6.82512 -3.7656 0
M  V30 13693 N 1308.12 0.00332656 -1.576 0
M  V30 13694 C 1309.07 0.99581 -2.08212 0
M  V30 13695 C 1310.04 1.34342 -0.976804 0
M  V30 13696 O 1311.22 1.44236 -1.24902 0
M  V30 13697 C 1308.36 2.2836 -2.58739 0
M  V30 13698 C 1307.47 1.99531 -3.8316 0
M  V30 13699 C 1306.61 3.22367 -4.222 0
M  V30 13700 C 1305.65 2.89209 -5.39467 0
M  V30 13701 N 1304.78 4.04572 -5.73817 0
M  V30 13702 H 1309.62 0.55727 -2.92743 0
M  V30 13703 H 1307.16 0.263513 -1.4472 0
M  V30 13704 H 1309.12 3.03639 -2.86111 0
M  V30 13705 H 1307.75 2.69889 -1.77087 0
M  V30 13706 H 1306.8 1.14634 -3.62716 0
M  V30 13707 H 1308.11 1.71089 -4.6854 0
M  V30 13708 H 1307.27 4.05994 -4.50837 0
M  V30 13709 H 1306.01 3.53944 -3.35522 0
M  V30 13710 H 1305.01 2.03989 -5.10557 0
M  V30 13711 H 1306.24 2.58883 -6.27819 0
M  V30 13712 H 1304.18 4.36052 -4.90096 0
M  V30 13713 H 1304.1 3.79643 -6.53764 0
M  V30 13714 H 1305.37 4.88998 -6.07043 0
M  V30 13715 N 1309.6 1.55164 0.276031 0
M  V30 13716 C 1310.82 1.79649 1.02635 0
M  V30 13717 C 1311.24 0.568289 1.80044 0
M  V30 13718 O 1310.6 -0.462569 1.7654 0
M  V30 13719 C 1310.65 3.01974 1.98731 0
M  V30 13720 O 1310.37 4.2005 1.24459 0
M  V30 13721 C 1311.87 3.39039 2.856 0
M  V30 13722 H 1309.09 0.598529 0.303321 0
M  V30 13723 H 1311.63 2.02171 0.307733 0
M  V30 13724 H 1309.79 2.81586 2.6606 0
M  V30 13725 H 1310.2 4.89185 1.89205 0
M  V30 13726 H 1311.68 4.27809 3.48831 0
M  V30 13727 H 1312.15 2.58306 3.55211 0
M  V30 13728 H 1312.76 3.61674 2.23767 0
M  V30 13729 N 1311.07 -0.540404 1.48045 0
M  V30 13730 C 1312.04 -1.62813 1.61322 0
M  V30 13731 C 1313.04 -1.53243 0.487161 0
M  V30 13732 O 1314.23 -1.571 0.752684 0
M  V30 13733 C 1311.36 -3.02408 1.5736 0
M  V30 13734 H 1312.55 -1.52385 2.583 0
M  V30 13735 H 1310.11 -0.761654 1.36486 0
M  V30 13736 H 1310.84 -3.18353 0.618195 0
M  V30 13737 H 1310.63 -3.10763 2.39099 0
M  V30 13738 H 1312.12 -3.8151 1.69822 0
M  V30 13739 O 1312.59 -1.46241 -0.685264 0
M  V30 13740 H 1313.28 -1.40107 -1.33753 0
M  V30 END ATOM
M  V30 BEGIN BOND
M  V30 END BOND
M  V30 END CTAB
M  END
$$$$
