drugbank_target|P05166 Propionyl-CoA carboxylase beta chain, mitochondrial (DB00121; DB00161)
 OpenBabel12092119343D

  0  0  0     0  0            999 V3000
M  V30 BEGIN CTAB
M  V30 COUNTS 8187 8266 0 0 0
M  V30 BEGIN ATOM
M  V30 1 H -0.908 1.98254 -0.117106 0
M  V30 2 N 0 1.576 0 0
M  V30 3 C 0.933 2.03868 1.02534 0
M  V30 4 C 1.911 0.928543 1.3348 0
M  V30 5 O 3.095 1.19667 1.45644 0
M  V30 6 C 0.222 2.43627 2.35294 0
M  V30 7 C -0.732 3.65373 2.2001 0
M  V30 8 S 0.101 5.13292 1.52614 0
M  V30 9 C 1.257 5.56322 2.86805 0
M  V30 10 H 1.49 2.90518 0.631377 0
M  V30 11 H -0.977 1.52953 0.210867 0
M  V30 12 H 0.981 2.67203 3.11629 0
M  V30 13 H -0.358 1.57376 2.7183 0
M  V30 14 H -1.165 3.90944 3.18086 0
M  V30 15 H -1.563 3.418 1.51819 0
M  V30 16 H 0.729 5.58782 3.83104 0
M  V30 17 H 1.672 6.56266 2.65933 0
M  V30 18 H 2.08 4.83886 2.90714 0
M  V30 19 N 1.4781 -0.272755 1.55222 0
M  V30 20 C 2.4411 -1.32041 1.87344 0
M  V30 21 C 3.4411 -1.42342 0.74803 0
M  V30 22 O 4.6311 -1.41488 1.0162 0
M  V30 23 C 1.7631 -2.70173 2.07893 0
M  V30 24 H 2.9561 -1.04789 2.80997 0
M  V30 25 H 0.5091 -0.51083 1.47717 0
M  V30 26 H 1.2441 -3.02605 1.16622 0
M  V30 27 H 1.0291 -2.64082 2.89833 0
M  V30 28 H 2.5191 -3.45869 2.34017 0
M  V30 29 N 2.9562 -1.48159 -0.537278 0
M  V30 30 C 3.9192 -1.61665 -1.62472 0
M  V30 31 C 4.9192 -0.490395 -1.5314 0
M  V30 32 O 6.1092 -0.755998 -1.5694 0
M  V30 33 C 3.2412 -1.57997 -3.02076 0
M  V30 34 H 4.4342 -2.58621 -1.51839 0
M  V30 35 H 1.9872 -1.36647 -0.758771 0
M  V30 36 H 2.7222 -0.624913 -3.18222 0
M  V30 37 H 2.5072 -2.39755 -3.10258 0
M  V30 38 H 3.9972 -1.70627 -3.81151 0
M  V30 39 N 4.4343 0.785586 -1.36625 0
M  V30 40 C 5.3973 1.87999 -1.31107 0
M  V30 41 C 6.3973 1.59316 -0.217959 0
M  V30 42 O 7.5873 1.67656 -0.472977 0
M  V30 43 C 4.7193 3.24861 -1.03334 0
M  V30 44 H 5.9123 1.94307 -2.2844 0
M  V30 45 H 3.4653 0.983813 -1.21453 0
M  V30 46 H 4.2003 3.24235 -0.0647432 0
M  V30 47 H 3.9853 3.4707 -1.82441 0
M  V30 48 H 5.4753 4.04929 -1.02088 0
M  V30 49 N 5.9124 1.20967 1.01018 0
M  V30 50 C 6.8424 0.988272 2.11555 0
M  V30 51 C 7.8234 -0.0849778 1.69888 0
M  V30 52 O 9.0084 0.0738202 1.9406 0
M  V30 53 C 6.1384 0.546528 3.42973 0
M  V30 54 C 5.0924 1.56375 3.9841 0
M  V30 55 C 4.4184 0.97842 5.25672 0
M  V30 56 C 5.7184 2.94922 4.31066 0
M  V30 57 H 7.4124 1.91276 2.30334 0
M  V30 58 H 4.9584 0.921073 1.1069 0
M  V30 59 H 6.9114 0.378839 4.19694 0
M  V30 60 H 5.6354 -0.413598 3.23971 0
M  V30 61 H 4.2944 1.71891 3.23804 0
M  V30 62 H 3.9424 0.0101688 5.02999 0
M  V30 63 H 3.6424 1.65784 5.63728 0
M  V30 64 H 5.1664 0.821939 6.05043 0
M  V30 65 H 6.5804 2.8288 4.9865 0
M  V30 66 H 4.9774 3.5983 4.80253 0
M  V30 67 H 6.0474 3.4616 3.39561 0
M  V30 68 N 7.3905 -1.2043 1.01659 0
M  V30 69 C 8.8065 -1.41852 0.731442 0
M  V30 70 C 9.0065 -1.89358 -0.688898 0
M  V30 71 O 8.0625 -2.06247 -1.45666 0
M  V30 72 C 9.3755 -2.44019 1.75714 0
M  V30 73 C 10.9235 -2.57785 1.77527 0
M  V30 74 C 11.3985 -3.63194 2.79023 0
M  V30 75 N 12.8895 -3.70678 2.77763 0
M  V30 76 C 13.6245 -4.51897 3.52954 0
M  V30 77 N 13.1205 -5.36921 4.37821 0
M  V30 78 N 14.9135 -4.4643 3.41551 0
M  V30 79 H 7.0645 -0.879093 1.93354 0
M  V30 80 H 9.3275 -0.448425 0.835236 0
M  V30 81 H 9.0335 -2.1611 2.77469 0
M  V30 82 H 8.9075 -3.43007 1.56927 0
M  V30 83 H 11.2945 -2.85023 0.764569 0
M  V30 84 H 11.3755 -1.58992 2.00387 0
M  V30 85 H 11.0195 -3.36699 3.80258 0
M  V30 86 H 10.9495 -4.61609 2.53425 0
M  V30 87 H 13.4405 -3.09944 2.16201 0
M  V30 88 H 13.7535 -5.95981 4.91962 0
M  V30 89 H 12.0985 -5.36424 4.41899 0
M  V30 90 H 15.2895 -3.79042 2.74672 0
M  V30 91 H 15.4625 -5.09491 4.00404 0
M  V30 92 N 8.8686 -0.792821 -1.36206 0
M  V30 93 C 10.1146 -0.36733 -1.99446 0
M  V30 94 C 10.4476 1.05917 -1.62774 0
M  V30 95 O 9.7226 1.7324 -0.88421 0
M  V30 96 C 10.0056 -0.535044 -3.56103 0
M  V30 97 C 9.8586 -2.00548 -4.02617 0
M  V30 98 C 11.1776 0.0478191 -4.40074 0
M  V30 99 H 8.2966 -0.134941 -0.724541 0
M  V30 100 H 10.9386 -0.999794 -1.61568 0
M  V30 101 H 9.0886 0.00336329 -3.885 0
M  V30 102 H 10.7606 -2.60521 -3.80692 0
M  V30 103 H 9.0036 -2.50686 -3.54032 0
M  V30 104 H 9.6746 -2.07377 -5.11565 0
M  V30 105 H 12.1506 -0.411822 -4.14057 0
M  V30 106 H 11.0266 -0.0995336 -5.4881 0
M  V30 107 H 11.2876 1.14025 -4.27142 0
M  V30 108 N 10.3467 1.47872 -0.545128 0
M  V30 109 C 11.3097 2.28337 0.198717 0
M  V30 110 C 12.3097 1.36255 0.853888 0
M  V30 111 O 13.4997 1.59003 0.711606 0
M  V30 112 C 10.6317 3.15585 1.28915 0
M  V30 113 H 11.8247 2.95567 -0.507941 0
M  V30 114 H 9.3777 1.53362 -0.301616 0
M  V30 115 H 10.1127 2.53019 2.02859 0
M  V30 116 H 9.8977 3.83337 0.824309 0
M  V30 117 H 11.3877 3.76243 1.81194 0
M  V30 118 N 11.8248 0.280983 1.55075 0
M  V30 119 C 12.7878 -0.590896 2.21452 0
M  V30 120 C 13.7878 -1.07682 1.19421 0
M  V30 121 O 14.9778 -0.97605 1.44288 0
M  V30 122 C 12.1098 -1.81587 2.88511 0
M  V30 123 H 13.3028 -0.0112554 2.99898 0
M  V30 124 H 10.8558 0.0316438 1.56268 0
M  V30 125 H 11.5908 -2.43587 2.14093 0
M  V30 126 H 11.3758 -1.4753 3.63287 0
M  V30 127 H 12.8658 -2.43575 3.39206 0
M  V30 128 N 13.3029 -1.57598 0.00835791 0
M  V30 129 C 14.5489 -1.91211 -0.675732 0
M  V30 130 C 14.8819 -0.883139 -1.72958 0
M  V30 131 O 14.1569 0.097016 -1.94258 0
M  V30 132 C 14.4399 -3.35379 -1.31123 0
M  V30 133 C 14.2929 -4.48999 -0.268356 0
M  V30 134 C 15.6119 -3.7912 -2.23508 0
M  V30 135 H 12.7309 -0.695374 -0.244179 0
M  V30 136 H 15.3729 -1.89901 0.0613655 0
M  V30 137 H 13.5229 -3.36626 -1.93946 0
M  V30 138 H 15.1949 -4.59887 0.360844 0
M  V30 139 H 13.4379 -4.31873 0.408482 0
M  V30 140 H 14.1089 -5.46851 -0.752218 0
M  V30 141 H 16.5849 -3.79477 -1.70693 0
M  V30 142 H 15.4609 -4.80729 -2.64936 0
M  V30 143 H 15.7219 -3.13455 -3.11766 0
M  V30 144 N 14.781 0.264519 -1.55364 0
M  V30 145 C 16.029 0.993021 -1.76021 0
M  V30 146 C 16.35 1.86511 -0.569099 0
M  V30 147 O 15.62 1.91438 0.415735 0
M  V30 148 H 14.2 0.369639 -0.649135 0
M  V30 149 H 16.862 0.286707 -1.9278 0
M  V30 150 H 15.958 1.62502 -2.66457 0
M  V30 151 N 16.2591 1.48442 0.529413 0
M  V30 152 C 17.2221 1.62524 1.61612 0
M  V30 153 C 18.2221 0.498509 1.52877 0
M  V30 154 O 19.4121 0.76431 1.56537 0
M  V30 155 C 16.5441 1.59597 3.01233 0
M  V30 156 H 17.7371 2.59423 1.50465 0
M  V30 157 H 15.2901 1.37047 0.751514 0
M  V30 158 H 16.0251 0.641781 3.17886 0
M  V30 159 H 15.8101 2.41397 3.08982 0
M  V30 160 H 17.3001 1.72646 3.80241 0
M  V30 161 N 17.7372 -0.778329 1.37039 0
M  V30 162 C 19.1532 -1.07796 1.17695 0
M  V30 163 C 19.3532 -2.01498 0.00860115 0
M  V30 164 O 18.4092 -2.43901 -0.653352 0
M  V30 165 C 19.7222 -1.68178 2.49272 0
M  V30 166 C 21.2702 -1.80467 2.55735 0
M  V30 167 C 21.7452 -2.44263 3.87427 0
M  V30 168 N 23.2362 -2.51721 3.88833 0
M  V30 169 C 23.9712 -3.01919 4.87476 0
M  V30 170 N 23.4672 -3.5234 5.96513 0
M  V30 171 N 25.2602 -3.00733 4.74885 0
M  V30 172 H 17.4112 -0.156032 2.11826 0
M  V30 173 H 19.6742 -0.131844 0.938787 0
M  V30 174 H 19.3802 -1.06796 3.35093 0
M  V30 175 H 19.2542 -2.67554 2.65885 0
M  V30 176 H 21.6412 -2.40984 1.70325 0
M  V30 177 H 21.7222 -0.798656 2.43013 0
M  V30 178 H 21.3662 -1.84388 4.73248 0
M  V30 179 H 21.2962 -3.45458 3.9745 0
M  V30 180 H 23.7872 -2.1603 3.10063 0
M  V30 181 H 24.1002 -3.89027 6.67741 0
M  V30 182 H 22.4452 -3.50462 6.00168 0
M  V30 183 H 25.6362 -2.60638 3.88826 0
M  V30 184 H 25.8092 -3.39545 5.51918 0
M  V30 185 N 19.2153 -1.21501 -1.00376 0
M  V30 186 C 20.1453 -0.999478 -2.11028 0
M  V30 187 C 21.1263 0.0759671 -1.6993 0
M  V30 188 O 22.3113 -0.0841106 -1.94018 0
M  V30 189 C 19.4413 -0.564709 -3.42678 0
M  V30 190 C 18.3953 -1.58486 -3.97576 0
M  V30 191 C 17.7213 -1.00628 -5.25146 0
M  V30 192 C 19.0213 -2.97204 -4.29496 0
M  V30 193 H 20.7153 -1.92495 -2.29317 0
M  V30 194 H 18.2613 -0.92693 -1.102 0
M  V30 195 H 20.2143 -0.401091 -4.19487 0
M  V30 196 H 18.9383 0.396411 -3.24185 0
M  V30 197 H 17.5973 -1.73606 -3.22888 0
M  V30 198 H 17.2453 -0.0368439 -5.02987 0
M  V30 199 H 16.9453 -1.68771 -5.62841 0
M  V30 200 H 18.4693 -0.854015 -6.04598 0
M  V30 201 H 19.8833 -2.8552 -4.97143 0
M  V30 202 H 18.2803 -3.62372 -4.78338 0
M  V30 203 H 19.3503 -3.47956 -3.3772 0
M  V30 204 N 20.6934 1.19889 -1.02296 0
M  V30 205 C 21.9184 1.9393 -0.735237 0
M  V30 206 C 22.3434 1.74639 0.698782 0
M  V30 207 O 21.7014 1.04481 1.48167 0
M  V30 208 C 21.7494 3.43916 -1.08417 0
M  V30 209 O 20.8534 4.11917 -0.199446 0
M  V30 210 H 20.1944 0.605645 -0.272196 0
M  V30 211 H 22.7244 1.52137 -1.36804 0
M  V30 212 H 22.7344 3.9456 -1.03856 0
M  V30 213 H 21.4094 3.5728 -2.12894 0
M  V30 214 H 19.9864 3.71666 -0.303136 0
M  V30 215 N 22.1715 0.800033 1.35784 0
M  V30 216 C 23.4175 0.377901 1.99248 0
M  V30 217 C 23.7505 -1.05052 1.63333 0
M  V30 218 O 23.0255 -1.72768 0.893385 0
M  V30 219 C 23.3085 0.553922 3.55814 0
M  V30 220 C 23.1615 2.0268 4.01548 0
M  V30 221 C 24.4805 -0.0244802 4.40093 0
M  V30 222 H 21.5995 0.138782 0.723815 0
M  V30 223 H 24.2415 1.00835 1.61035 0
M  V30 224 H 22.3915 0.0172398 3.88496 0
M  V30 225 H 24.0635 2.62536 3.79305 0
M  V30 226 H 22.3065 2.5256 3.52698 0
M  V30 227 H 22.9775 2.10087 5.10458 0
M  V30 228 H 25.4535 0.433775 4.13833 0
M  V30 229 H 24.3295 0.128637 5.48749 0
M  V30 230 H 24.5905 -1.11758 4.27741 0
M  V30 231 N 23.6496 -1.47581 0.552962 0
M  V30 232 C 24.5796 -2.32762 -0.185451 0
M  V30 233 C 25.5606 -1.43527 -0.912905 0
M  V30 234 O 26.7456 -1.72388 -0.894201 0
M  V30 235 C 23.8756 -3.25219 -1.21859 0
M  V30 236 C 22.8296 -4.23661 -0.607864 0
M  V30 237 C 22.1556 -5.05413 -1.74533 0
M  V30 238 C 23.4556 -5.20481 0.435582 0
M  V30 239 H 25.1496 -2.94749 0.525684 0
M  V30 240 H 22.6956 -1.41738 0.254251 0
M  V30 241 H 24.6486 -3.8365 -1.7433 0
M  V30 242 H 23.3726 -2.61279 -1.95961 0
M  V30 243 H 22.0316 -3.66451 -0.104489 0
M  V30 244 H 21.6796 -4.3788 -2.47529 0
M  V30 245 H 21.3796 -5.72059 -1.34249 0
M  V30 246 H 22.9036 -5.66701 -2.27338 0
M  V30 247 H 24.3176 -5.733 -0.00290157 0
M  V30 248 H 22.7146 -5.95305 0.757067 0
M  V30 249 H 23.7846 -4.66217 1.33303 0
M  V30 250 N 25.1277 -0.289203 -1.54924 0
M  V30 251 C 26.0907 0.579144 -2.21762 0
M  V30 252 C 27.0907 1.07047 -1.1999 0
M  V30 253 O 28.2807 0.968384 -1.44803 0
M  V30 254 C 25.4127 1.80055 -2.8947 0
M  V30 255 H 26.6057 -0.00464908 -2.999 0
M  V30 256 H 24.1587 -0.0399306 -1.56249 0
M  V30 257 H 24.8937 2.42449 -2.15381 0
M  V30 258 H 24.6787 1.45602 -3.64064 0
M  V30 259 H 26.1687 2.41773 -3.40493 0
M  V30 260 N 26.6058 1.57591 -0.0167156 0
M  V30 261 C 27.8308 1.9598 0.67872 0
M  V30 262 C 28.2558 0.892546 1.65575 0
M  V30 263 O 27.6138 -0.147772 1.80697 0
M  V30 264 C 27.6618 3.33468 1.37227 0
M  V30 265 O 26.7658 3.28954 2.48722 0
M  V30 266 H 26.1068 0.639339 0.17928 0
M  V30 267 H 28.6368 2.04463 -0.0748802 0
M  V30 268 H 28.6468 3.69417 1.7319 0
M  V30 269 H 27.3218 4.10694 0.656007 0
M  V30 270 H 25.8988 3.04705 2.14963 0
M  V30 271 N 28.0839 -0.256276 1.55502 0
M  V30 272 C 29.3319 -0.983672 1.76545 0
M  V30 273 C 29.6529 -1.86206 0.578982 0
M  V30 274 O 28.9229 -1.91656 -0.405577 0
M  V30 275 H 27.5029 -0.366191 0.651086 0
M  V30 276 H 30.1649 -0.276479 1.92929 0
M  V30 277 H 29.2609 -1.61087 2.67315 0
M  V30 278 N 29.562 -1.4872 -0.521534 0
M  V30 279 C 30.492 -1.66771 -1.63431 0
M  V30 280 C 31.473 -0.516499 -1.62069 0
M  V30 281 O 32.658 -0.750013 -1.79132 0
M  V30 282 C 29.788 -1.71515 -3.01993 0
M  V30 283 C 28.742 -2.86222 -3.18216 0
M  V30 284 C 28.068 -2.76061 -4.57924 0
M  V30 285 C 29.368 -4.27419 -3.00184 0
M  V30 286 H 31.062 -2.59932 -1.48579 0
M  V30 287 H 28.608 -1.25089 -0.713358 0
M  V30 288 H 30.561 -1.82731 -3.7972 0
M  V30 289 H 29.285 -0.749393 -3.17886 0
M  V30 290 H 27.944 -2.74575 -2.42908 0
M  V30 291 H 27.592 -1.77437 -4.70665 0
M  V30 292 H 27.292 -3.53037 -4.69722 0
M  V30 293 H 28.816 -2.89256 -5.37739 0
M  V30 294 H 30.23 -4.39855 -3.67697 0
M  V30 295 H 28.627 -5.05458 -3.2347 0
M  V30 296 H 29.697 -4.43293 -1.96518 0
M  V30 297 N 31.0401 0.771051 -1.3745 0
M  V30 298 C 32.4561 1.07171 -1.18265 0
M  V30 299 C 32.6561 2.01491 -0.019287 0
M  V30 300 O 31.7121 2.44244 0.640408 0
M  V30 301 C 33.0251 1.66854 -2.50161 0
M  V30 302 C 34.5731 1.79109 -2.56689 0
M  V30 303 C 35.0481 2.42205 -3.88717 0
M  V30 304 N 36.5391 2.49655 -3.90162 0
M  V30 305 C 37.2741 2.9933 -4.8907 0
M  V30 306 N 36.7701 3.49172 -5.98374 0
M  V30 307 N 38.5631 2.9821 -4.76474 0
M  V30 308 H 30.7141 0.144796 -2.11906 0
M  V30 309 H 32.9771 0.126863 -0.939473 0
M  V30 310 H 32.6831 1.05017 -3.35655 0
M  V30 311 H 32.5571 2.6614 -2.673 0
M  V30 312 H 34.9441 2.40077 -1.71601 0
M  V30 313 H 35.0251 0.785757 -2.43433 0
M  V30 314 H 34.6691 1.81875 -4.74219 0
M  V30 315 H 34.5991 3.43345 -3.99276 0
M  V30 316 H 37.0901 2.14383 -3.11205 0
M  V30 317 H 37.4031 3.8548 -6.69795 0
M  V30 318 H 35.7481 3.47275 -6.02018 0
M  V30 319 H 38.9391 2.58572 -3.90203 0
M  V30 320 H 39.1121 3.36613 -5.53711 0
M  V30 321 N 32.5182 1.22032 0.997298 0
M  V30 322 C 33.4812 0.987909 2.06816 0
M  V30 323 C 34.4812 -0.0440084 1.6074 0
M  V30 324 O 35.6712 0.194053 1.73116 0
M  V30 325 C 32.8032 0.49132 3.37341 0
M  V30 326 H 33.9962 1.93803 2.28868 0
M  V30 327 H 31.5492 1.03838 1.16822 0
M  V30 328 H 32.2842 -0.463364 3.20973 0
M  V30 329 H 32.0692 1.23575 3.72118 0
M  V30 330 H 33.5592 0.348824 4.16141 0
M  V30 331 N 33.9963 -1.19345 1.0293 0
M  V30 332 C 34.9593 -2.20793 0.615069 0
M  V30 333 C 35.9593 -1.57553 -0.321533 0
M  V30 334 O 37.1493 -1.73862 -0.108483 0
M  V30 335 C 34.2813 -3.40754 -0.0999222 0
M  V30 336 H 35.4743 -2.58955 1.51269 0
M  V30 337 H 33.0273 -1.3303 0.820534 0
M  V30 338 H 33.7623 -3.0811 -1.01187 0
M  V30 339 H 33.5473 -3.87889 0.57309 0
M  V30 340 H 35.0373 -4.15898 -0.376645 0
M  V30 341 N 35.4744 -0.807222 -1.35358 0
M  V30 342 C 36.7204 -0.388463 -1.99045 0
M  V30 343 C 37.0534 1.04184 -1.63888 0
M  V30 344 O 36.3284 1.72292 -0.902535 0
M  V30 345 C 36.6114 -0.572783 -3.55515 0
M  V30 346 C 36.4644 -2.04807 -4.00468 0
M  V30 347 C 37.7834 0.00114064 -4.401 0
M  V30 348 H 34.9024 -0.142619 -0.723069 0
M  V30 349 H 37.5444 -1.01687 -1.60498 0
M  V30 350 H 35.6944 -0.0378425 -3.88482 0
M  V30 351 H 37.3664 -2.64544 -3.77908 0
M  V30 352 H 35.6094 -2.54427 -3.51353 0
M  V30 353 H 36.2804 -2.12792 -5.09337 0
M  V30 354 H 38.7564 -0.455716 -4.13597 0
M  V30 355 H 37.6324 -0.157737 -5.48673 0
M  V30 356 H 37.8934 1.09488 -4.28328 0
M  V30 357 N 36.9525 1.47285 -0.560781 0
M  V30 358 C 38.3685 1.58065 -0.22081 0
M  V30 359 C 38.5685 1.55892 1.27671 0
M  V30 360 O 37.6245 1.46422 2.0571 0
M  V30 361 C 38.9375 2.88418 -0.850625 0
M  V30 362 C 40.4855 3.02009 -0.822184 0
M  V30 363 C 40.9605 4.35066 -1.43113 0
M  V30 364 N 42.4515 4.41711 -1.39448 0
M  V30 365 C 43.1865 5.43237 -1.83525 0
M  V30 366 N 42.6825 6.51555 -2.35474 0
M  V30 367 N 44.4755 5.34304 -1.74574 0
M  V30 368 H 36.6265 1.46941 -1.53369 0
M  V30 369 H 38.8895 0.699558 -0.639783 0
M  V30 370 H 38.5955 2.95755 -1.9032 0
M  V30 371 H 38.4695 3.75612 -0.345773 0
M  V30 372 H 40.8565 2.94266 0.221714 0
M  V30 373 H 40.9375 2.16347 -1.36483 0
M  V30 374 H 40.5815 4.43565 -2.47412 0
M  V30 375 H 40.5115 5.19465 -0.863899 0
M  V30 376 H 43.0025 3.64027 -1.01452 0
M  V30 377 H 43.3155 7.25203 -2.67021 0
M  V30 378 H 41.6605 6.52435 -2.39487 0
M  V30 379 H 44.8515 4.48581 -1.33763 0
M  V30 380 H 45.0245 6.13288 -2.09242 0
M  V30 381 N 38.4306 0.297415 1.54768 0
M  V30 382 C 39.6556 -0.318435 2.04941 0
M  V30 383 C 40.0806 -1.4701 1.17345 0
M  V30 384 O 39.4386 -1.80436 0.176758 0
M  V30 385 C 39.4866 -0.755749 3.52592 0
M  V30 386 O 38.5906 -1.86088 3.68028 0
M  V30 387 H 37.9316 -0.062421 0.661059 0
M  V30 388 H 40.4616 0.438215 1.99852 0
M  V30 389 H 40.4716 -1.04552 3.94376 0
M  V30 390 H 39.1466 0.0867233 4.1581 0
M  V30 391 H 37.7236 -1.57193 3.38149 0
M  V30 392 N 39.9087 -1.5758 0.0250728 0
M  V30 393 C 40.8387 -2.13007 -0.956575 0
M  V30 394 C 41.8197 -1.0452 -1.342 0
M  V30 395 O 43.0047 -1.32332 -1.42133 0
M  V30 396 C 40.1347 -2.65386 -2.24026 0
M  V30 397 C 39.0887 -3.78623 -1.99571 0
M  V30 398 C 38.4147 -4.17414 -3.3417 0
M  V30 399 C 39.7147 -5.04867 -1.33814 0
M  V30 400 H 41.4087 -2.9528 -0.494991 0
M  V30 401 H 38.9547 -1.42042 -0.236651 0
M  V30 402 H 40.9077 -3.02794 -2.93076 0
M  V30 403 H 39.6317 -1.80268 -2.72343 0
M  V30 404 H 38.2907 -3.41646 -1.32941 0
M  V30 405 H 37.9387 -3.29284 -3.80238 0
M  V30 406 H 37.6387 -4.93719 -3.18615 0
M  V30 407 H 39.1627 -4.57402 -4.04495 0
M  V30 408 H 40.5767 -5.39888 -1.92857 0
M  V30 409 H 38.9737 -5.86144 -1.28669 0
M  V30 410 H 40.0437 -4.83904 -0.310561 0
M  V30 411 N 41.3868 0.248026 -1.55636 0
M  V30 412 C 42.6268 0.983592 -1.79178 0
M  V30 413 C 42.9908 1.82567 -0.594414 0
M  V30 414 O 44.1918 2.59292 -0.708583 0
M  V30 415 C 42.4628 1.82228 -3.07454 0
M  V30 416 S 44.0218 2.61709 -3.52213 0
M  V30 417 H 40.8398 0.330866 -0.629324 0
M  V30 418 H 43.4418 0.251562 -1.93875 0
M  V30 419 H 42.1458 1.19333 -3.92668 0
M  V30 420 H 41.6768 2.59708 -2.95492 0
M  V30 421 H 43.6918 3.84655 -3.13457 0
M  V30 422 N 42.8649 1.48995 0.513639 0
M  V30 423 C 44.0899 1.61792 1.29762 0
M  V30 424 C 44.5149 0.284475 1.85936 0
M  V30 425 O 43.8729 -0.746185 1.65232 0
M  V30 426 C 43.9209 2.67993 2.41272 0
M  V30 427 O 43.0249 2.26287 3.44772 0
M  V30 428 H 42.3659 0.541963 0.38363 0
M  V30 429 H 44.8959 1.95097 0.616307 0
M  V30 430 H 44.9059 2.89772 2.87221 0
M  V30 431 H 43.5809 3.64791 1.9975 0
M  V30 432 H 42.1579 2.14788 3.04829 0
M  V30 433 N 44.343 -0.763751 1.37857 0
M  V30 434 C 45.275 -1.88664 1.30148 0
M  V30 435 C 46.288 -1.61365 0.215685 0
M  V30 436 O 47.477 -1.72134 0.472459 0
M  V30 437 C 44.577 -3.24075 0.991396 0
M  V30 438 C 43.75 -3.78958 2.18426 0
M  V30 439 C 42.809 -4.92862 1.8432 0
M  V30 440 O 41.835 -5.08027 2.56704 0
M  V30 441 N 43.037 -5.75071 0.792081 0
M  V30 442 H 45.802 -1.95791 2.26905 0
M  V30 443 H 43.363 -0.943226 1.31586 0
M  V30 444 H 45.355 -3.97804 0.743935 0
M  V30 445 H 43.925 -3.12399 0.112122 0
M  V30 446 H 43.145 -2.96913 2.59299 0
M  V30 447 H 44.433 -4.12357 2.98058 0
M  V30 448 H 43.831 -5.65375 0.191595 0
M  V30 449 H 42.388 -6.48991 0.60449 0
M  V30 450 N 45.8211 -1.22559 -0.990812 0
M  V30 451 C 46.7841 -0.998863 -2.0629 0
M  V30 452 C 47.7841 0.0354834 -1.60761 0
M  V30 453 O 48.9741 -0.203231 -1.7301 0
M  V30 454 C 46.1061 -0.509203 -3.37076 0
M  V30 455 H 47.2991 -1.95014 -2.27837 0
M  V30 456 H 44.8521 -1.04456 -1.16269 0
M  V30 457 H 45.5871 0.446335 -3.21214 0
M  V30 458 H 45.3721 -1.25547 -3.71457 0
M  V30 459 H 46.8621 -0.370888 -4.1595 0
M  V30 460 N 47.2992 1.18797 -1.03562 0
M  V30 461 C 48.5272 1.92599 -0.755869 0
M  V30 462 C 48.9422 1.75886 0.686271 0
M  V30 463 O 48.2992 1.08517 1.46732 0
M  V30 464 C 48.3502 3.44159 -1.10619 0
M  V30 465 O 48.0712 3.60341 -2.4917 0
M  V30 466 C 49.5722 4.3507 -0.850214 0
M  V30 467 H 46.7922 0.611587 -0.276048 0
M  V30 468 H 49.3362 1.50742 -1.38192 0
M  V30 469 H 47.4912 3.83823 -0.525194 0
M  V30 470 H 47.9052 4.54128 -2.62427 0
M  V30 471 H 49.3792 5.39989 -1.14523 0
M  V30 472 H 49.8562 4.38673 0.215176 0
M  V30 473 H 50.4622 4.01097 -1.41426 0
M  V30 474 N 48.7773 0.814389 1.34928 0
M  V30 475 C 50.0023 0.410097 2.03305 0
M  V30 476 C 50.4273 -0.973464 1.60951 0
M  V30 477 O 49.7853 -1.63185 0.789964 0
M  V30 478 C 49.8333 0.51049 3.56968 0
M  V30 479 O 48.9373 -0.473035 4.09678 0
M  V30 480 H 48.2783 0.170088 0.641846 0
M  V30 481 H 50.8083 1.10244 1.72358 0
M  V30 482 H 50.8183 0.383135 4.06197 0
M  V30 483 H 49.4933 1.51963 3.87144 0
M  V30 484 H 48.0703 -0.305272 3.71648 0
M  V30 485 N 50.2554 -1.46986 0.568584 0
M  V30 486 C 51.5014 -2.02741 0.0488709 0
M  V30 487 C 51.8344 -1.44077 -1.30214 0
M  V30 488 O 51.1094 -0.600552 -1.84996 0
M  V30 489 C 51.3924 -3.60086 -0.032047 0
M  V30 490 C 51.2454 -4.29162 1.34686 0
M  V30 491 C 52.5644 -4.33838 -0.739798 0
M  V30 492 H 49.6834 -0.736749 0.0192338 0
M  V30 493 H 52.3254 -1.75289 0.733065 0
M  V30 494 H 50.4754 -3.83606 -0.61473 0
M  V30 495 H 52.1474 -4.16948 1.97362 0
M  V30 496 H 50.3904 -3.89073 1.91846 0
M  V30 497 H 51.0614 -5.37826 1.24285 0
M  V30 498 H 53.5374 -4.15378 -0.244939 0
M  V30 499 H 52.4134 -5.43537 -0.765406 0
M  V30 500 H 52.6744 -4.03875 -1.79827 0
M  V30 501 N 51.7335 -0.305618 -1.54608 0
M  V30 502 C 52.6815 0.584119 -2.25146 0
M  V30 503 C 53.6755 1.13326 -1.25911 0
M  V30 504 O 54.8815 1.08337 -1.43747 0
M  V30 505 H 51.2565 0.206983 -0.722954 0
M  V30 506 H 53.2275 -0.033291 -2.98381 0
M  V30 507 C 51.9765 1.74225 -3.009 0
M  V30 508 H 51.2995 1.32892 -3.77067 0
M  V30 509 H 52.7395 2.34077 -3.53531 0
M  V30 510 C 51.1985 2.64914 -2.0814 0
M  V30 511 O 51.7285 3.66137 -1.65246 0
M  V30 512 N 49.9345 2.3275 -1.74 0
M  V30 513 H 49.4815 1.50479 -2.09078 0
M  V30 514 H 49.4395 2.93694 -1.12211 0
M  V30 515 N 53.2116 1.57565 -0.0334293 0
M  V30 516 C 54.1216 2.13943 0.962572 0
M  V30 517 C 55.1376 1.09276 1.35406 0
M  V30 518 O 56.3136 1.41355 1.4346 0
M  V30 519 C 53.3786 2.65887 2.22497 0
M  V30 520 C 52.4396 3.85286 1.8935 0
M  V30 521 C 51.6726 4.34743 3.09571 0
M  V30 522 O 51.8956 3.83352 4.22371 0
M  V30 523 O 50.8296 5.26538 2.91618 0
M  V30 524 H 54.6556 2.99333 0.513169 0
M  V30 525 H 52.2406 1.4822 0.18743 0
M  V30 526 H 54.1226 2.99346 2.96598 0
M  V30 527 H 52.7976 1.83578 2.6661 0
M  V30 528 H 51.7046 3.56746 1.1262 0
M  V30 529 H 53.0376 4.68771 1.5005 0
M  V30 530 N 54.6897 -0.239769 1.55765 0
M  V30 531 C 56.1057 -0.588624 1.48349 0
M  V30 532 C 56.3057 -1.88005 0.72502 0
M  V30 533 O 55.3617 -2.51186 0.257269 0
M  V30 534 C 56.6747 -0.68474 2.928 0
M  V30 535 C 58.2227 -0.77659 3.03213 0
M  V30 536 C 58.6977 -0.904207 4.48986 0
M  V30 537 N 60.1887 -0.968896 4.52953 0
M  V30 538 C 60.9237 -1.08703 5.63002 0
M  V30 539 N 60.4197 -1.17026 6.82845 0
M  V30 540 N 62.2127 -1.12074 5.50814 0
M  V30 541 H 54.3637 0.607911 2.03515 0
M  V30 542 H 56.6267 0.21083 0.924259 0
M  V30 543 H 56.3327 0.194284 3.51163 0
M  V30 544 H 56.2067 -1.55435 3.43686 0
M  V30 545 H 58.5937 -1.64606 2.44926 0
M  V30 546 H 58.6747 0.118315 2.55526 0
M  V30 547 H 58.3187 -0.0392633 5.07885 0
M  V30 548 H 58.2487 -1.81426 4.9436 0
M  V30 549 H 60.7397 -0.915633 3.6664 0
M  V30 550 H 61.0527 -1.25966 7.62465 0
M  V30 551 H 59.3977 -1.13971 6.85591 0
M  V30 552 H 62.5887 -1.05226 4.5612 0
M  V30 553 H 62.7617 -1.20936 6.36615 0
M  V30 554 N 56.1678 -1.49265 -0.50573 0
M  V30 555 C 57.4168 -1.57761 -1.25675 0
M  V30 556 C 57.7298 -0.267371 -1.93764 0
M  V30 557 O 58.9358 -0.230827 -2.70517 0
M  V30 558 C 57.3918 -2.78332 -2.28165 0
M  V30 559 C 56.9998 -4.16096 -1.66037 0
M  V30 560 C 58.7438 -2.96155 -3.04125 0
M  V30 561 C 56.6508 -5.27895 -2.6661 0
M  V30 562 H 55.5808 -0.587391 -0.472745 0
M  V30 563 H 58.2318 -1.75644 -0.53118 0
M  V30 564 H 56.6138 -2.53934 -3.03865 0
M  V30 565 H 57.7878 -4.50612 -0.963622 0
M  V30 566 H 56.1028 -4.03591 -1.02484 0
M  V30 567 H 58.6998 -3.76849 -3.79327 0
M  V30 568 H 59.0428 -2.06534 -3.61455 0
M  V30 569 H 59.5758 -3.2057 -2.35541 0
M  V30 570 H 56.3148 -6.1956 -2.14068 0
M  V30 571 H 55.8348 -4.97839 -3.34539 0
M  V30 572 H 57.5138 -5.57031 -3.29129 0
M  V30 573 N 57.6459 0.756429 -1.3826 0
M  V30 574 C 58.5559 1.9009 -1.37488 0
M  V30 575 C 59.5719 1.71855 -0.272366 0
M  V30 576 O 60.7479 1.94827 -0.510318 0
M  V30 577 C 57.8129 3.25421 -1.19592 0
M  V30 578 C 56.8739 3.56202 -2.39622 0
M  V30 579 C 56.1069 4.85075 -2.2257 0
M  V30 580 O 56.3299 5.57246 -1.21793 0
M  V30 581 O 55.2639 5.15269 -3.11098 0
M  V30 582 H 59.0899 1.93695 -2.33914 0
M  V30 583 H 56.6749 0.901313 -1.1915 0
M  V30 584 H 58.5569 4.06337 -1.11661 0
M  V30 585 H 57.2319 3.22634 -0.262486 0
M  V30 586 H 56.1389 2.75458 -2.53128 0
M  V30 587 H 57.4719 3.63747 -3.31586 0
M  V30 588 N 59.124 1.23083 0.984299 0
M  V30 589 C 60.072 1.00593 2.09723 0
M  V30 590 C 61.066 -0.0538014 1.69315 0
M  V30 591 O 62.272 0.0993719 1.79725 0
M  V30 592 H 58.647 0.30817 0.685956 0
M  V30 593 H 60.618 1.95012 2.2586 0
M  V30 594 C 59.367 0.609601 3.42314 0
M  V30 595 H 58.69 1.41675 3.73856 0
M  V30 596 H 60.13 0.491726 4.21139 0
M  V30 597 C 58.589 -0.681745 3.2993 0
M  V30 598 O 59.119 -1.73192 3.62446 0
M  V30 599 N 57.325 -0.656178 2.83095 0
M  V30 600 H 56.872 0.198759 2.56832 0
M  V30 601 H 56.83 -1.52044 2.75191 0
M  V30 602 N 60.6021 -1.18246 1.0419 0
M  V30 603 C 61.5491 -2.2192 0.634037 0
M  V30 604 C 62.5191 -1.62179 -0.358765 0
M  V30 605 O 63.7041 -1.89122 -0.252466 0
M  V30 606 C 60.8441 -3.451 0.00445535 0
M  V30 607 C 59.9571 -4.19174 1.04487 0
M  V30 608 C 59.0921 -5.29813 0.383676 0
M  V30 609 C 58.1311 -5.9566 1.4091 0
M  V30 610 N 57.2681 -6.97834 0.772784 0
M  V30 611 H 62.1081 -2.56164 1.52263 0
M  V30 612 H 59.6451 -1.25843 0.761701 0
M  V30 613 H 61.6031 -4.15485 -0.377919 0
M  V30 614 H 60.2331 -3.11472 -0.847652 0
M  V30 615 H 59.2851 -3.47604 1.54518 0
M  V30 616 H 60.5971 -4.64267 1.82368 0
M  V30 617 H 59.7511 -6.06677 -0.0528366 0
M  V30 618 H 58.4901 -4.85825 -0.427208 0
M  V30 619 H 57.4951 -5.17535 1.85574 0
M  V30 620 H 58.7201 -6.4173 2.22171 0
M  V30 621 H 56.6661 -6.55998 -0.0177708 0
M  V30 622 H 56.5831 -7.41186 1.48928 0
M  V30 623 H 57.8511 -7.78665 0.36071 0
M  V30 624 N 62.0802 -0.821533 -1.34494 0
M  V30 625 C 63.4962 -0.507117 -1.51329 0
M  V30 626 C 63.6962 0.968964 -1.76673 0
M  V30 627 O 62.7522 1.75348 -1.81685 0
M  V30 628 C 64.0652 -1.36544 -2.67911 0
M  V30 629 C 65.6132 -1.36242 -2.81793 0
M  V30 630 C 66.0882 -2.2052 -4.01416 0
M  V30 631 N 67.5792 -2.18136 -4.08621 0
M  V30 632 C 68.3142 -2.80095 -5.00334 0
M  V30 633 N 67.8102 -3.51039 -5.9728 0
M  V30 634 N 69.6032 -2.69656 -4.93196 0
M  V30 635 H 61.7542 -1.77729 -1.16302 0
M  V30 636 H 64.0172 -0.757291 -0.570276 0
M  V30 637 H 63.7232 -2.41361 -2.55808 0
M  V30 638 H 63.5972 -1.02917 -3.62888 0
M  V30 639 H 65.9842 -0.322041 -2.93338 0
M  V30 640 H 66.0652 -1.73866 -1.87628 0
M  V30 641 H 65.7092 -3.24607 -3.90631 0
M  V30 642 H 65.6392 -1.80247 -4.94791 0
M  V30 643 H 68.1302 -1.6653 -3.39229 0
M  V30 644 H 68.4432 -3.95565 -6.63889 0
M  V30 645 H 66.7882 -3.55145 -5.97409 0
M  V30 646 H 69.9792 -2.13808 -4.16418 0
M  V30 647 H 70.1522 -3.1823 -5.64476 0
M  V30 648 N 63.5583 1.46682 -0.576371 0
M  V30 649 C 64.9743 1.57822 -0.237562 0
M  V30 650 C 65.1743 1.57237 1.26011 0
M  V30 651 O 64.2303 1.48596 2.04146 0
M  V30 652 C 65.5433 2.87499 -0.881168 0
M  V30 653 C 67.0913 3.01119 -0.85417 0
M  V30 654 C 67.5663 4.33524 -1.4772 0
M  V30 655 N 69.0573 4.40207 -1.44125 0
M  V30 656 C 69.7923 5.4126 -1.89276 0
M  V30 657 N 69.2883 6.49021 -2.42371 0
M  V30 658 N 71.0813 5.32422 -1.80231 0
M  V30 659 H 63.2323 1.45306 -1.54919 0
M  V30 660 H 65.4953 0.692733 -0.647167 0
M  V30 661 H 65.2013 2.9372 -1.93447 0
M  V30 662 H 65.0753 3.75224 -0.385592 0
M  V30 663 H 67.4623 2.94485 0.190491 0
M  V30 664 H 67.5433 2.14887 -1.3877 0
M  V30 665 H 67.1873 4.40916 -2.52103 0
M  V30 666 H 67.1173 5.1852 -0.918947 0
M  V30 667 H 69.6083 3.62931 -1.05307 0
M  V30 668 H 69.9213 7.2233 -2.74698 0
M  V30 669 H 68.2663 6.49858 -2.46393 0
M  V30 670 H 71.4573 4.47137 -1.38514 0
M  V30 671 H 71.6303 6.11034 -2.15735 0
M  V30 672 N 65.0364 0.313813 1.54444 0
M  V30 673 C 66.2644 -0.293918 2.04802 0
M  V30 674 C 66.6794 -1.46537 1.19047 0
M  V30 675 O 66.0364 -1.81182 0.218939 0
M  V30 676 C 66.0874 -0.737806 3.53891 0
M  V30 677 O 65.8084 0.387038 4.36387 0
M  V30 678 C 67.3094 -1.40936 4.203 0
M  V30 679 H 64.5294 -0.0620057 0.668129 0
M  V30 680 H 67.0734 0.457169 1.99324 0
M  V30 681 H 65.2284 -1.43889 3.59687 0
M  V30 682 H 65.6424 0.0391274 5.24485 0
M  V30 683 H 67.1164 -1.67099 5.26101 0
M  V30 684 H 67.5934 -2.35355 3.70816 0
M  V30 685 H 68.1994 -0.751117 4.18615 0
M  V30 686 N 66.5145 -1.57545 0.0417849 0
M  V30 687 C 67.4775 -2.09885 -0.92093 0
M  V30 688 C 68.4775 -1.01648 -1.24596 0
M  V30 689 O 69.6675 -1.27759 -1.1842 0
M  V30 690 C 66.7995 -2.57527 -2.23367 0
M  V30 691 H 67.9925 -2.96236 -0.467382 0
M  V30 692 H 65.5455 -1.5493 -0.206467 0
M  V30 693 H 66.2805 -1.74542 -2.73323 0
M  V30 694 H 66.0655 -3.36613 -2.01083 0
M  V30 695 H 67.5555 -2.98201 -2.92346 0
M  V30 696 N 67.9926 0.231505 -1.5589 0
M  V30 697 C 68.9226 1.29022 -1.94617 0
M  V30 698 C 69.9036 1.4941 -0.813067 0
M  V30 699 O 71.0886 1.6176 -1.07459 0
M  V30 700 C 68.2186 2.64199 -2.25424 0
M  V30 701 C 67.1726 2.58484 -3.41131 0
M  V30 702 C 66.4986 3.97599 -3.57518 0
M  V30 703 C 67.7986 2.1413 -4.76388 0
M  V30 704 H 69.4926 0.968563 -2.83301 0
M  V30 705 H 67.0386 0.464479 -1.36303 0
M  V30 706 H 68.9916 3.38413 -2.51107 0
M  V30 707 H 67.7156 2.98032 -1.33583 0
M  V30 708 H 66.3746 1.86727 -3.15481 0
M  V30 709 H 66.0226 4.28723 -2.6307 0
M  V30 710 H 65.7226 3.94659 -4.35337 0
M  V30 711 H 67.2466 4.7349 -3.85538 0
M  V30 712 H 68.6606 2.78083 -5.01341 0
M  V30 713 H 67.0576 2.2227 -5.57419 0
M  V30 714 H 68.1276 1.09331 -4.72414 0
M  V30 715 N 69.4707 1.49531 0.497807 0
M  V30 716 C 70.4007 1.6935 1.60757 0
M  V30 717 C 71.3817 0.542218 1.61227 0
M  V30 718 O 72.5667 0.778417 1.77917 0
M  V30 719 C 69.6967 1.76298 2.99226 0
M  V30 720 C 68.6507 2.91248 3.13622 0
M  V30 721 C 67.9767 2.83312 4.53474 0
M  V30 722 C 69.2767 4.3214 2.93346 0
M  V30 723 H 70.9707 2.62263 1.44425 0
M  V30 724 H 68.5167 1.26208 0.693367 0
M  V30 725 H 70.4697 1.88749 3.76765 0
M  V30 726 H 69.1937 0.799871 3.16654 0
M  V30 727 H 67.8527 2.78404 2.38509 0
M  V30 728 H 67.5007 1.84902 4.67782 0
M  V30 729 H 67.2007 3.60465 4.64046 0
M  V30 730 H 68.7247 2.97775 5.33069 0
M  V30 731 H 70.1387 4.45649 3.60652 0
M  V30 732 H 68.5357 5.1054 3.15387 0
M  V30 733 H 69.6057 4.46363 1.89441 0
M  V30 734 N 70.9488 -0.749086 1.3866 0
M  V30 735 C 72.1968 -1.50535 1.34847 0
M  V30 736 C 72.5178 -1.94909 -0.0595016 0
M  V30 737 O 71.7878 -1.67973 -1.00806 0
M  V30 738 H 70.3678 -0.558395 0.49619 0
M  V30 739 H 73.0298 -0.890165 1.73384 0
M  V30 740 H 72.1258 -2.39413 2.00219 0
M  V30 741 N 72.4269 -1.23603 -0.977757 0
M  V30 742 C 73.6749 -1.06759 -1.71601 0
M  V30 743 C 73.9959 0.395929 -1.90938 0
M  V30 744 O 73.2659 1.28356 -1.47992 0
M  V30 745 H 71.8459 -0.392062 -0.635843 0
M  V30 746 H 74.5079 -1.55362 -1.1768 0
M  V30 747 H 73.6039 -1.55763 -2.70452 0
M  V30 748 N 73.905 1.17692 -1.04816 0
M  V30 749 C 75.153 1.87488 -0.754497 0
M  V30 750 C 75.474 1.81205 0.720407 0
M  V30 751 O 74.744 1.23544 1.52032 0
M  V30 752 H 73.324 0.694101 -0.276102 0
M  V30 753 H 75.986 1.42793 -1.32651 0
M  V30 754 H 75.082 2.93328 -1.06606 0
M  V30 755 N 75.3831 0.828654 1.34056 0
M  V30 756 C 76.3151 0.212052 2.28217 0
M  V30 757 C 77.3281 -0.601362 1.51286 0
M  V30 758 O 78.5171 -0.430104 1.73241 0
M  V30 759 C 75.6171 -0.72088 3.31144 0
M  V30 760 C 74.7901 0.0509587 4.3737 0
M  V30 761 C 73.8491 -0.803766 5.20025 0
M  V30 762 O 72.8751 -0.246667 5.68665 0
M  V30 763 N 74.0771 -2.1227 5.40298 0
M  V30 764 H 76.8421 1.02105 2.81771 0
M  V30 765 H 74.4031 0.686153 1.46641 0
M  V30 766 H 76.3951 -1.29742 3.8334 0
M  V30 767 H 74.9651 -1.43061 2.77943 0
M  V30 768 H 74.1851 0.808831 3.85813 0
M  V30 769 H 75.4731 0.582065 5.0546 0
M  V30 770 H 74.8711 -2.59898 5.02464 0
M  V30 771 H 73.4281 -2.64796 5.95589 0
M  V30 772 N 76.8612 -1.46375 0.584142 0
M  V30 773 C 78.2772 -1.57694 0.245929 0
M  V30 774 C 78.4772 -1.57903 -1.25175 0
M  V30 775 O 77.5332 -1.49676 -2.03355 0
M  V30 776 C 78.8462 -2.87028 0.896402 0
M  V30 777 C 80.3942 -3.00662 0.870127 0
M  V30 778 C 80.8692 -4.32734 1.50017 0
M  V30 779 N 82.3602 -4.39436 1.46458 0
M  V30 780 C 83.0952 -5.40248 1.92144 0
M  V30 781 N 82.5912 -6.47726 2.4581 0
M  V30 782 N 84.3842 -5.31459 1.83052 0
M  V30 783 H 76.5352 -1.44483 1.55687 0
M  V30 784 H 78.7982 -0.689291 0.650831 0
M  V30 785 H 78.5042 -2.9269 1.95002 0
M  V30 786 H 78.3782 -3.75014 0.405486 0
M  V30 787 H 80.7652 -2.94581 -0.174871 0
M  V30 788 H 80.8462 -2.14148 1.39908 0
M  V30 789 H 80.4902 -4.39573 2.54437 0
M  V30 790 H 80.4202 -5.18025 0.946432 0
M  V30 791 H 82.9112 -3.62367 1.07231 0
M  V30 792 H 83.2242 -7.20863 2.78525 0
M  V30 793 H 81.5692 -6.48542 2.49836 0
M  V30 794 H 84.7602 -4.46396 1.40883 0
M  V30 795 H 84.9332 -6.09881 2.18973 0
M  V30 796 N 78.3393 -0.321999 -1.54275 0
M  V30 797 C 79.7553 0.0306999 -1.5957 0
M  V30 798 C 79.9553 1.50614 -1.33857 0
M  V30 799 O 79.0113 2.2619 -1.12223 0
M  V30 800 C 80.3243 -0.386122 -2.98211 0
M  V30 801 C 81.8723 -0.336647 -3.11184 0
M  V30 802 C 82.3473 -0.728607 -4.52167 0
M  V30 803 N 83.8383 -0.681952 -4.58152 0
M  V30 804 C 84.5733 -0.957449 -5.6535 0
M  V30 805 N 84.0693 -1.3 -6.80494 0
M  V30 806 N 85.8623 -0.883113 -5.55119 0
M  V30 807 H 78.0133 -1.28332 -1.69247 0
M  V30 808 H 80.2763 -0.521716 -0.791528 0
M  V30 809 H 79.9823 -1.41404 -3.22022 0
M  V30 810 H 79.8563 0.249662 -3.76373 0
M  V30 811 H 82.2433 0.682058 -2.8711 0
M  V30 812 H 82.3243 -1.00734 -2.3513 0
M  V30 813 H 81.9683 -1.74522 -4.76974 0
M  V30 814 H 81.8983 -0.0356152 -5.26588 0
M  V30 815 H 84.3893 -0.428985 -3.75457 0
M  V30 816 H 84.7023 -1.49563 -7.58189 0
M  V30 817 H 83.0473 -1.33824 -6.81994 0
M  V30 818 H 86.2383 -0.615001 -4.64042 0
M  V30 819 H 86.4113 -1.10118 -6.38575 0
M  V30 820 N 79.8174 1.5752 -0.0501392 0
M  V30 821 C 81.0664 1.91827 0.623328 0
M  V30 822 C 81.3794 0.930222 1.72065 0
M  V30 823 O 82.5854 1.1653 2.4522 0
M  V30 824 C 81.0414 3.40692 1.16003 0
M  V30 825 C 80.6494 4.479 0.0948811 0
M  V30 826 C 82.3934 3.84034 1.80881 0
M  V30 827 C 80.3004 5.87879 0.644411 0
M  V30 828 H 79.2304 0.715918 0.236596 0
M  V30 829 H 81.8814 1.83115 -0.118861 0
M  V30 830 H 80.2634 3.44405 1.9545 0
M  V30 831 H 81.4374 4.55775 -0.678675 0
M  V30 832 H 79.7524 4.13892 -0.45637 0
M  V30 833 H 82.3494 4.85984 2.22988 0
M  V30 834 H 82.6924 3.20225 2.6601 0
M  V30 835 H 83.2254 3.82833 1.0809 0
M  V30 836 H 79.9644 6.55282 -0.169229 0
M  V30 837 H 79.4844 5.83567 1.38598 0
M  V30 838 H 81.1634 6.37098 1.12763 0
M  V30 839 N 81.2955 -0.223234 1.56011 0
M  V30 840 C 82.5725 -0.972108 1.69733 0
M  V30 841 C 82.9525 -2.02485 0.59691 0
M  V30 842 O 82.3005 -2.25037 -0.396324 0
M  V30 843 C 82.5105 -1.58407 3.10979 0
M  V30 844 C 83.8585 -2.07696 3.70334 0
M  V30 845 O 84.8825 -1.68304 3.1393 0
M  V30 846 O 83.7415 -2.80096 4.69264 0
M  V30 847 H 80.8355 -0.453993 0.691245 0
M  V30 848 H 83.3815 -0.215149 1.68331 0
M  V30 849 H 82.1535 -0.823831 3.82529 0
M  V30 850 H 81.7765 -2.40661 3.16493 0
M  V30 851 N 82.7736 -1.49793 -0.48987 0
M  V30 852 C 83.7366 -1.66752 -1.57246 0
M  V30 853 C 84.7366 -0.538867 -1.51502 0
M  V30 854 O 85.9266 -0.805545 -1.54456 0
M  V30 855 C 83.0586 -1.67528 -2.96896 0
M  V30 856 H 84.2516 -2.63321 -1.43534 0
M  V30 857 H 81.8046 -1.38992 -0.714914 0
M  V30 858 H 82.5396 -0.725837 -3.16073 0
M  V30 859 H 82.3246 -2.49504 -3.02473 0
M  V30 860 H 83.8146 -1.82667 -3.7553 0
M  V30 861 N 84.2517 0.741722 -1.39055 0
M  V30 862 C 85.1837 1.8657 -1.33133 0
M  V30 863 C 86.1967 1.61001 -0.241329 0
M  V30 864 O 87.3857 1.7136 -0.499784 0
M  V30 865 C 84.4857 3.22457 -1.04283 0
M  V30 866 C 83.6587 3.75435 -2.24427 0
M  V30 867 C 82.7177 4.89867 -1.92138 0
M  V30 868 O 81.7437 5.03879 -2.64754 0
M  V30 869 N 82.9457 5.73738 -0.88347 0
M  V30 870 H 85.7107 1.92156 -2.29991 0
M  V30 871 H 83.2717 0.922172 -1.3307 0
M  V30 872 H 85.2637 3.9657 -0.807128 0
M  V30 873 H 83.8337 3.12181 -0.161807 0
M  V30 874 H 83.0537 2.92751 -2.6399 0
M  V30 875 H 84.3417 4.07563 -3.04581 0
M  V30 876 H 83.7397 5.64999 -0.281517 0
M  V30 877 H 82.2967 6.47947 -0.707662 0
M  V30 878 N 85.7298 1.2412 0.971189 0
M  V30 879 C 86.6798 0.997551 2.05019 0
M  V30 880 C 87.6638 -0.0597747 1.60789 0
M  V30 881 O 88.8558 0.153516 1.76333 0
M  V30 882 C 85.9848 0.600557 3.38006 0
M  V30 883 C 85.0708 1.69377 3.88809 0
M  V30 884 N 85.4618 2.92586 4.12586 0
M  V30 885 C 83.7598 1.57048 4.17435 0
M  V30 886 C 84.4608 3.63431 4.54195 0
M  V30 887 N 83.4368 2.90979 4.59165 0
M  V30 888 H 87.2388 1.93316 2.21374 0
M  V30 889 H 84.7528 1.14194 1.1547 0
M  V30 890 H 86.7498 0.40725 4.14906 0
M  V30 891 H 85.4098 -0.327903 3.2304 0
M  V30 892 H 86.4208 3.288 4.00139 0
M  V30 893 H 83.0978 0.709798 4.11422 0
M  V30 894 H 84.4878 4.69102 4.81033 0
M  V30 895 N 87.2079 -1.17134 1.05439 0
M  V30 896 C 88.1549 -2.21235 0.657539 0
M  V30 897 C 89.1249 -1.62551 -0.341543 0
M  V30 898 O 90.3099 -1.89379 -0.232393 0
M  V30 899 C 87.4499 -3.45076 0.0410575 0
M  V30 900 C 86.5629 -4.18042 1.08927 0
M  V30 901 C 85.6979 -5.29376 0.439848 0
M  V30 902 C 84.7369 -5.94132 1.4722 0
M  V30 903 N 83.8739 -6.96975 0.846756 0
M  V30 904 H 88.7139 -2.54534 1.54972 0
M  V30 905 H 86.2509 -1.25028 0.775006 0
M  V30 906 H 88.2089 -4.15862 -0.33383 0
M  V30 907 H 86.8389 -3.12353 -0.814568 0
M  V30 908 H 85.8909 -3.45945 1.58196 0
M  V30 909 H 87.2029 -4.62306 1.87282 0
M  V30 910 H 86.3569 -6.06699 0.0115125 0
M  V30 911 H 85.0959 -4.86251 -0.375656 0
M  V30 912 H 84.1009 -5.15538 1.91052 0
M  V30 913 H 85.3259 -6.39337 2.28965 0
M  V30 914 H 83.2719 -6.5598 0.0518075 0
M  V30 915 H 83.1889 -7.39565 1.5678 0
M  V30 916 H 84.4569 -7.78239 0.443277 0
M  V30 917 N 88.686 -0.835752 -1.33615 0
M  V30 918 C 90.102 -0.523139 -1.50783 0
M  V30 919 C 90.302 0.950171 -1.77691 0
M  V30 920 O 89.358 1.73411 -1.83534 0
M  V30 921 C 90.671 -1.39378 -2.66448 0
M  V30 922 C 92.219 -1.39223 -2.80332 0
M  V30 923 C 92.694 -2.24765 -3.99055 0
M  V30 924 N 94.185 -2.22458 -4.06284 0
M  V30 925 C 94.92 -2.85386 -4.97336 0
M  V30 926 N 94.416 -3.57354 -5.93523 0
M  V30 927 N 96.209 -2.74872 -4.90308 0
M  V30 928 H 88.36 -1.78952 -1.14411 0
M  V30 929 H 90.623 -0.763297 -0.562212 0
M  V30 930 H 90.329 -2.44061 -2.53234 0
M  V30 931 H 90.203 -1.0676 -3.61776 0
M  V30 932 H 92.59 -0.353136 -2.92979 0
M  V30 933 H 92.671 -1.75846 -1.85773 0
M  V30 934 H 92.315 -3.28732 -3.87167 0
M  V30 935 H 92.245 -1.85485 -4.92852 0
M  V30 936 H 94.736 -1.70119 -3.37443 0
M  V30 937 H 95.049 -4.02584 -6.59656 0
M  V30 938 H 93.394 -3.61461 -5.93608 0
M  V30 939 H 96.585 -2.18213 -4.14126 0
M  V30 940 H 96.758 -3.24199 -5.61069 0
M  V30 941 N 90.1641 1.46063 -0.591896 0
M  V30 942 C 91.4121 2.01938 -0.0808391 0
M  V30 943 C 91.7331 1.46475 1.28725 0
M  V30 944 O 91.0031 0.652944 1.84698 0
M  V30 945 H 89.5831 0.746516 -0.0268938 0
M  V30 946 H 92.2451 1.79055 -0.769752 0
M  V30 947 H 91.3411 3.12094 -0.0187578 0
M  V30 948 N 91.6422 0.330177 1.54103 0
M  V30 949 C 92.5892 -0.532762 2.24567 0
M  V30 950 C 93.5592 -1.10635 1.23892 0
M  V30 951 O 94.7442 -1.14546 1.5259 0
M  V30 952 C 91.8842 -1.6845 3.01195 0
M  V30 953 C 90.9972 -1.13951 4.167 0
M  V30 954 C 90.1322 -2.25746 4.80845 0
M  V30 955 C 89.1712 -1.6853 5.88442 0
M  V30 956 N 88.3082 -2.74014 6.46421 0
M  V30 957 H 93.1482 0.0746905 2.97906 0
M  V30 958 H 90.6852 0.048632 1.4702 0
M  V30 959 H 92.6432 -2.36234 3.43874 0
M  V30 960 H 91.2732 -2.26314 2.30178 0
M  V30 961 H 90.3252 -0.35301 3.78758 0
M  V30 962 H 91.6372 -0.680892 4.94131 0
M  V30 963 H 90.7912 -3.01422 5.26526 0
M  V30 964 H 89.5302 -2.74947 4.0281 0
M  V30 965 H 88.5352 -0.913543 5.42157 0
M  V30 966 H 89.7602 -1.20198 6.68378 0
M  V30 967 H 87.7062 -3.22494 5.71256 0
M  V30 968 H 87.6232 -2.32735 7.19285 0
M  V30 969 H 88.8912 -3.49499 6.96757 0
M  V30 970 N 93.1203 -1.57491 0.0584922 0
M  V30 971 C 94.0503 -2.14988 -0.911178 0
M  V30 972 C 95.0313 -1.07343 -1.31952 0
M  V30 973 O 96.2163 -1.35318 -1.39294 0
M  V30 974 C 93.3463 -2.70078 -2.18347 0
M  V30 975 C 92.3003 -3.82771 -1.91495 0
M  V30 976 C 91.6263 -4.24408 -3.25241 0
M  V30 977 C 92.9263 -5.07592 -1.23075 0
M  V30 978 H 94.6203 -2.96263 -0.432246 0
M  V30 979 H 92.1663 -1.42512 -0.206469 0
M  V30 980 H 94.1193 -3.08943 -2.86587 0
M  V30 981 H 92.8433 -1.86005 -2.68458 0
M  V30 982 H 91.5023 -3.44389 -1.25664 0
M  V30 983 H 91.1503 -3.37275 -3.73168 0
M  V30 984 H 90.8503 -5.00366 -3.08071 0
M  V30 985 H 92.3743 -4.65879 -3.94701 0
M  V30 986 H 93.7883 -5.43857 -1.81362 0
M  V30 987 H 92.1853 -5.88741 -1.16207 0
M  V30 988 H 93.2553 -4.84454 -0.207847 0
M  V30 989 N 94.5984 0.214957 -1.56127 0
M  V30 990 C 95.8264 0.955092 -1.83536 0
M  V30 991 C 96.2414 1.77677 -0.638472 0
M  V30 992 O 95.5984 1.78219 0.392968 0
M  V30 993 C 95.6494 1.86734 -3.09536 0
M  V30 994 O 95.3704 1.07887 -4.24608 0
M  V30 995 C 96.8714 2.72082 -3.4998 0
M  V30 996 H 94.0914 0.279611 -0.609966 0
M  V30 997 H 96.6354 0.228197 -2.03223 0
M  V30 998 H 94.7904 2.5481 -2.91806 0
M  V30 999 H 95.2044 1.69872 -4.9623 0
M  V30 1000 H 96.6784 3.31782 -4.41163 0
M  V30 1001 H 97.1554 3.44806 -2.7204 0
M  V30 1002 H 97.7614 2.09409 -3.70173 0
M  V30 1003 N 96.0765 1.50051 0.48192 0
M  V30 1004 C 97.0395 1.67584 1.5636 0
M  V30 1005 C 98.0395 0.546894 1.51214 0
M  V30 1006 O 99.2295 0.813725 1.54026 0
M  V30 1007 C 96.3615 1.691 2.96003 0
M  V30 1008 H 97.5545 2.64078 1.42136 0
M  V30 1009 H 95.1075 1.39369 0.707533 0
M  V30 1010 H 95.8425 0.742589 3.15684 0
M  V30 1011 H 95.6275 2.51105 3.01146 0
M  V30 1012 H 97.1175 1.84656 3.74556 0
M  V30 1013 N 97.5546 -0.734337 1.39446 0
M  V30 1014 C 98.9706 -1.03997 1.21065 0
M  V30 1015 C 99.1706 -2.01369 0.0727019 0
M  V30 1016 O 98.2266 -2.45856 -0.575426 0
M  V30 1017 C 99.5396 -1.60163 2.54496 0
M  V30 1018 C 101.088 -1.7224 2.61347 0
M  V30 1019 C 101.563 -2.31814 3.95002 0
M  V30 1020 N 103.054 -2.39223 3.96644 0
M  V30 1021 C 103.789 -2.86258 4.96834 0
M  V30 1022 N 103.285 -3.33184 6.07421 0
M  V30 1023 N 105.078 -2.85473 4.84213 0
M  V30 1024 H 97.2286 -0.0885624 2.12215 0
M  V30 1025 H 99.4916 -0.10191 0.942506 0
M  V30 1026 H 99.1976 -0.960811 3.38321 0
M  V30 1027 H 99.0716 -2.5896 2.74262 0
M  V30 1028 H 101.459 -2.35443 1.77906 0
M  V30 1029 H 101.54 -0.720939 2.4543 0
M  V30 1030 H 101.184 -1.69238 4.78875 0
M  V30 1031 H 101.114 -3.32638 4.08239 0
M  V30 1032 H 103.605 -2.06057 3.16779 0
M  V30 1033 H 103.918 -3.67586 6.7978 0
M  V30 1034 H 102.263 -3.31191 6.11013 0
M  V30 1035 H 105.454 -2.48136 3.96921 0
M  V30 1036 H 105.627 -3.21814 5.62441 0
M  V30 1037 N 99.0327 -1.24633 -0.964593 0
M  V30 1038 C 99.9427 -1.05859 -2.09359 0
M  V30 1039 C 100.959 0.00148855 -1.74 0
M  V30 1040 O 102.135 -0.197346 -2.00431 0
M  V30 1041 C 99.1997 -0.668879 -3.40187 0
M  V30 1042 C 98.2607 -1.80578 -3.89474 0
M  V30 1043 C 97.4937 -1.43457 -5.14058 0
M  V30 1044 O 97.7167 -0.325775 -5.69469 0
M  V30 1045 O 96.6507 -2.2613 -5.57807 0
M  V30 1046 H 100.477 -2.00516 -2.28094 0
M  V30 1047 H 98.0617 -1.03481 -1.0776 0
M  V30 1048 H 99.9437 -0.463211 -4.18846 0
M  V30 1049 H 98.6187 0.248536 -3.22744 0
M  V30 1050 H 97.5257 -2.06623 -3.11862 0
M  V30 1051 H 98.8587 -2.70208 -4.11398 0
M  V30 1052 N 100.511 1.16574 -1.06058 0
M  V30 1053 C 101.927 1.3904 -0.783585 0
M  V30 1054 C 102.127 1.91784 0.618145 0
M  V30 1055 O 101.183 2.11511 1.37911 0
M  V30 1056 C 102.496 2.37329 -1.84649 0
M  V30 1057 C 104.044 2.51018 -1.86973 0
M  V30 1058 C 104.519 3.52588 -2.92311 0
M  V30 1059 N 106.01 3.60113 -2.91329 0
M  V30 1060 C 106.745 4.38486 -3.69482 0
M  V30 1061 N 106.241 5.20302 -4.57447 0
M  V30 1062 N 108.034 4.33446 -3.57885 0
M  V30 1063 H 100.185 0.806725 -1.96483 0
M  V30 1064 H 102.448 0.417117 -0.851303 0
M  V30 1065 H 102.154 2.05663 -2.85299 0
M  V30 1066 H 102.028 3.36946 -1.6955 0
M  V30 1067 H 104.415 2.81989 -0.869827 0
M  V30 1068 H 104.496 1.51445 -2.0615 0
M  V30 1069 H 104.14 3.22354 -3.92492 0
M  V30 1070 H 104.07 4.51886 -2.70383 0
M  V30 1071 H 106.561 3.01707 -2.27555 0
M  V30 1072 H 106.874 5.77311 -5.13743 0
M  V30 1073 H 105.219 5.19653 -4.61503 0
M  V30 1074 H 108.41 3.68586 -2.88551 0
M  V30 1075 H 108.583 4.94279 -4.19037 0
M  V30 1076 N 101.989 0.842826 1.3317 0
M  V30 1077 C 103.238 0.436738 1.96915 0
M  V30 1078 C 103.551 -1.01025 1.67491 0
M  V30 1079 O 104.757 -1.5212 2.24881 0
M  V30 1080 C 103.213 0.730021 3.52418 0
M  V30 1081 C 102.821 2.19195 3.90714 0
M  V30 1082 C 104.565 0.391076 4.22695 0
M  V30 1083 C 102.472 2.42907 5.39212 0
M  V30 1084 H 101.402 0.15958 0.736919 0
M  V30 1085 H 104.053 1.03196 1.51733 0
M  V30 1086 H 102.435 0.0643755 3.95948 0
M  V30 1087 H 103.609 2.8984 3.58231 0
M  V30 1088 H 101.924 2.49425 3.33431 0
M  V30 1089 H 104.521 0.545817 5.31907 0
M  V30 1090 H 104.864 -0.666294 4.10933 0
M  V30 1091 H 105.397 1.01212 3.84709 0
M  V30 1092 H 102.136 3.47224 5.55982 0
M  V30 1093 H 101.656 1.76827 5.73142 0
M  V30 1094 H 103.335 2.2626 6.06148 0
M  V30 1095 N 103.467 -1.45747 0.599634 0
M  V30 1096 C 104.692 -2.07178 0.0960198 0
M  V30 1097 C 105.117 -1.44268 -1.207 0
M  V30 1098 O 104.475 -0.532503 -1.73303 0
M  V30 1099 C 104.523 -3.60579 -0.0385348 0
M  V30 1100 O 103.627 -3.97713 -1.0908 0
M  V30 1101 H 102.968 -0.660251 0.0704593 0
M  V30 1102 H 105.498 -1.87124 0.827385 0
M  V30 1103 H 105.508 -4.07298 -0.239304 0
M  V30 1104 H 104.183 -4.05756 0.912947 0
M  V30 1105 H 102.76 -3.62678 -0.867135 0
M  V30 1106 N 104.945 -0.338344 -1.53925 0
M  V30 1107 C 105.875 0.51328 -2.27789 0
M  V30 1108 C 106.856 1.107 -1.29149 0
M  V30 1109 O 108.041 1.12937 -1.57984 0
M  V30 1110 C 105.171 1.66697 -3.04679 0
M  V30 1111 C 104.125 1.20183 -4.1078 0
M  V30 1112 C 103.451 2.44363 -4.75595 0
M  V30 1113 C 104.751 0.30605 -5.21403 0
M  V30 1114 H 106.445 -0.102883 -2.99223 0
M  V30 1115 H 103.991 -0.0509219 -1.4391 0
M  V30 1116 H 105.944 2.26915 -3.55088 0
M  V30 1117 H 104.668 2.30995 -2.30887 0
M  V30 1118 H 103.327 0.622499 -3.61276 0
M  V30 1119 H 102.975 3.07057 -3.98403 0
M  V30 1120 H 102.675 2.13925 -5.47275 0
M  V30 1121 H 104.199 3.05317 -5.28786 0
M  V30 1122 H 105.613 0.814929 -5.67478 0
M  V30 1123 H 104.01 0.0937929 -6.00027 0
M  V30 1124 H 105.08 -0.65921 -4.80398 0
M  V30 1125 N 106.423 1.57458 -0.0668435 0
M  V30 1126 C 107.353 2.15468 0.899764 0
M  V30 1127 C 108.334 1.08042 1.31381 0
M  V30 1128 O 109.519 1.36054 1.38574 0
M  V30 1129 C 106.649 2.71232 2.16911 0
M  V30 1130 C 105.603 3.83781 1.89463 0
M  V30 1131 C 104.929 4.26127 3.22986 0
M  V30 1132 C 106.229 5.08238 1.20381 0
M  V30 1133 H 107.923 2.96488 0.416529 0
M  V30 1134 H 105.469 1.4262 0.198908 0
M  V30 1135 H 107.422 3.10458 2.84945 0
M  V30 1136 H 106.146 1.87426 2.67468 0
M  V30 1137 H 104.805 3.45051 1.23836 0
M  V30 1138 H 104.453 3.39249 3.71374 0
M  V30 1139 H 104.153 5.01993 3.05413 0
M  V30 1140 H 105.677 4.67966 3.92225 0
M  V30 1141 H 107.091 5.44811 1.78475 0
M  V30 1142 H 105.488 5.89349 1.13083 0
M  V30 1143 H 106.558 4.84558 0.182153 0
M  V30 1144 N 107.901 -0.206675 1.56239 0
M  V30 1145 C 108.831 -1.25909 1.96645 0
M  V30 1146 C 109.812 -1.48097 0.836734 0
M  V30 1147 O 110.997 -1.6003 1.10019 0
M  V30 1148 C 108.127 -2.6058 2.29599 0
M  V30 1149 C 107.081 -2.53024 3.452 0
M  V30 1150 C 106.407 -3.91861 3.63798 0
M  V30 1151 C 107.707 -2.06524 4.79734 0
M  V30 1152 H 109.401 -0.923369 2.84806 0
M  V30 1153 H 106.947 -0.442735 1.37025 0
M  V30 1154 H 108.9 -3.34375 2.56459 0
M  V30 1155 H 107.624 -2.95869 1.38307 0
M  V30 1156 H 106.283 -1.81684 3.18412 0
M  V30 1157 H 105.931 -4.24483 2.69857 0
M  V30 1158 H 105.631 -3.87683 4.4156 0
M  V30 1159 H 107.155 -4.67296 3.93022 0
M  V30 1160 H 108.569 -2.70072 5.05702 0
M  V30 1161 H 106.966 -2.13374 5.60885 0
M  V30 1162 H 108.036 -1.01802 4.74093 0
M  V30 1163 N 109.379 -1.50304 -0.473955 0
M  V30 1164 C 110.656 -1.51667 -1.23518 0
M  V30 1165 C 111.036 -0.259701 -2.09496 0
M  V30 1166 O 110.384 0.756986 -2.15597 0
M  V30 1167 C 110.594 -2.81082 -2.06868 0
M  V30 1168 C 111.942 -3.31631 -2.65153 0
M  V30 1169 O 112.966 -2.82384 -2.17113 0
M  V30 1170 O 111.825 -4.17471 -3.52675 0
M  V30 1171 H 108.919 -0.60822 -0.560355 0
M  V30 1172 H 111.465 -1.62592 -0.486011 0
M  V30 1173 H 110.237 -3.64041 -1.4349 0
M  V30 1174 H 109.86 -2.73146 -2.88924 0
M  V30 1175 N 110.857 0.726932 -1.39834 0
M  V30 1176 C 112.268 1.30558 -1.3346 0
M  V30 1177 C 112.619 1.962 -0.00273003 0
M  V30 1178 O 111.744 1.96826 0.899371 0
M  V30 1179 C 112.339 2.37404 -2.41713 0
M  V30 1180 C 110.898 2.90921 -2.38835 0
M  V30 1181 C 110.045 1.64578 -2.2318 0
M  V30 1182 H 112.996 0.523862 -1.49804 0
M  V30 1183 H 113.017 3.17984 -2.08966 0
M  V30 1184 H 112.529 1.89599 -3.38635 0
M  V30 1185 H 110.63 3.42985 -1.45575 0
M  V30 1186 H 110.743 3.43487 -3.33997 0
M  V30 1187 H 109.107 1.89219 -1.70494 0
M  V30 1188 H 109.89 1.18814 -3.22084 0
M  V30 1189 N 112.336 1.25143 0.95797 0
M  V30 1190 C 113.584 1.09476 1.69881 0
M  V30 1191 C 113.905 -0.365502 1.91544 0
M  V30 1192 O 113.175 -1.25985 1.50015 0
M  V30 1193 H 111.755 0.402128 0.629525 0
M  V30 1194 H 114.417 1.57214 1.15194 0
M  V30 1195 H 113.513 1.60046 2.6794 0
M  V30 1196 N 113.814 -1.1601 1.06675 0
M  V30 1197 C 115.039 -1.91068 0.806706 0
M  V30 1198 C 115.464 -1.77112 -0.633485 0
M  V30 1199 O 114.822 -1.09908 -1.44187 0
M  V30 1200 C 114.87 -3.39655 1.21106 0
M  V30 1201 O 113.974 -4.10893 0.352189 0
M  V30 1202 H 113.315 -0.595125 0.294486 0
M  V30 1203 H 115.845 -1.46955 1.42356 0
M  V30 1204 H 115.855 -3.90434 1.18428 0
M  V30 1205 H 114.53 -3.49132 2.26008 0
M  V30 1206 H 113.107 -3.70285 0.440868 0
M  V30 1207 N 115.292 -0.849877 -1.32721 0
M  V30 1208 C 116.539 -0.450923 -1.97416 0
M  V30 1209 C 116.867 0.992376 -1.67279 0
M  V30 1210 O 116.122 1.71048 -0.950845 0
M  V30 1211 C 116.421 -0.631272 -3.51781 0
M  V30 1212 C 116.087 -2.04432 -4.01894 0
M  V30 1213 C 114.749 -2.4308 -4.1529 0
M  V30 1214 C 117.101 -2.96679 -4.28522 0
M  V30 1215 C 114.429 -3.73257 -4.52654 0
M  V30 1216 C 116.781 -4.26349 -4.67343 0
M  V30 1217 C 115.445 -4.64939 -4.78945 0
M  V30 1218 H 114.715 -0.165004 -0.722395 0
M  V30 1219 H 117.362 -1.07901 -1.58207 0
M  V30 1220 H 115.667 0.0800767 -3.91718 0
M  V30 1221 H 117.364 -0.302709 -3.99856 0
M  V30 1222 H 113.954 -1.73419 -3.91949 0
M  V30 1223 H 118.138 -2.68054 -4.17685 0
M  V30 1224 H 113.394 -4.02946 -4.59831 0
M  V30 1225 H 117.568 -4.97895 -4.86902 0
M  V30 1226 H 115.195 -5.65855 -5.07654 0
M  V30 1227 N 116.77 1.45427 -0.607355 0
M  V30 1228 C 118.016 2.0254 -0.102607 0
M  V30 1229 C 118.349 1.47478 1.26348 0
M  V30 1230 O 117.624 0.64939 1.83339 0
M  V30 1231 C 117.907 3.60044 -0.0634347 0
M  V30 1232 C 117.76 4.2544 -1.46017 0
M  V30 1233 C 119.079 4.35646 0.624514 0
M  V30 1234 H 116.198 0.73598 -0.0387607 0
M  V30 1235 H 118.84 1.73284 -0.779282 0
M  V30 1236 H 116.99 3.85101 0.512808 0
M  V30 1237 H 118.662 4.11569 -2.08347 0
M  V30 1238 H 116.905 3.83849 -2.02094 0
M  V30 1239 H 117.576 5.34342 -1.385 0
M  V30 1240 H 120.052 4.15882 0.134723 0
M  V30 1241 H 118.928 5.45376 0.621028 0
M  V30 1242 H 119.189 4.08501 1.69055 0
M  V30 1243 N 118.248 0.346503 1.53744 0
M  V30 1244 C 119.158 -0.517293 2.28826 0
M  V30 1245 C 120.174 -1.10935 1.3405 0
M  V30 1246 O 121.35 -1.1244 1.6709 0
M  V30 1247 C 118.415 -1.65098 3.04866 0
M  V30 1248 C 117.476 -1.0884 4.15274 0
M  V30 1249 C 116.709 -2.16806 4.87679 0
M  V30 1250 O 116.932 -3.3758 4.59778 0
M  V30 1251 O 115.866 -1.80934 5.74061 0
M  V30 1252 H 119.692 0.0931396 3.03557 0
M  V30 1253 H 117.277 0.111458 1.48984 0
M  V30 1254 H 119.159 -2.31053 3.5241 0
M  V30 1255 H 117.834 -2.24717 2.32989 0
M  V30 1256 H 116.741 -0.3933 3.72027 0
M  V30 1257 H 118.074 -0.537036 4.89261 0
M  V30 1258 N 119.726 -1.57421 0.075193 0
M  V30 1259 C 120.951 -1.98364 -0.605515 0
M  V30 1260 C 121.376 -0.953383 -1.62149 0
M  V30 1261 O 120.734 0.0806053 -1.81121 0
M  V30 1262 C 120.782 -3.38332 -1.24756 0
M  V30 1263 O 119.886 -3.37959 -2.36342 0
M  V30 1264 H 119.227 -0.645553 -0.155428 0
M  V30 1265 H 121.757 -2.04044 0.150714 0
M  V30 1266 H 121.767 -3.75591 -1.5936 0
M  V30 1267 H 120.442 -4.12846 -0.503129 0
M  V30 1268 H 119.019 -3.12474 -2.03506 0
M  V30 1269 N 121.204 0.198386 -1.56346 0
M  V30 1270 C 122.481 0.944982 -1.71258 0
M  V30 1271 C 122.861 2.0151 -0.629048 0
M  V30 1272 O 122.209 2.25639 0.360473 0
M  V30 1273 C 122.419 1.5344 -3.1346 0
M  V30 1274 C 123.767 2.01778 -3.73591 0
M  V30 1275 O 124.791 1.63288 -3.16568 0
M  V30 1276 O 123.65 2.72594 -4.73661 0
M  V30 1277 H 120.744 0.442939 -0.69838 0
M  V30 1278 H 123.29 0.188342 -1.68652 0
M  V30 1279 H 122.062 0.762869 -3.83792 0
M  V30 1280 H 121.685 2.35596 -3.20282 0
M  V30 1281 N 122.682 1.50554 0.465978 0
M  V30 1282 C 123.615 1.64436 1.58227 0
M  V30 1283 C 124.593 0.492367 1.54966 0
M  V30 1284 O 125.777 0.712536 1.74514 0
M  V30 1285 C 122.904 1.63165 2.96808 0
M  V30 1286 C 121.95 2.83987 3.18204 0
M  V30 1287 S 122.783 4.45219 2.97557 0
M  V30 1288 C 123.939 4.46649 4.3847 0
M  V30 1289 H 124.172 2.58861 1.46213 0
M  V30 1290 H 121.705 1.3988 0.653678 0
M  V30 1291 H 123.663 1.63116 3.76701 0
M  V30 1292 H 122.324 0.69967 3.06208 0
M  V30 1293 H 121.517 2.79416 4.19455 0
M  V30 1294 H 121.119 2.81629 2.46092 0
M  V30 1295 H 123.411 4.20526 5.31191 0
M  V30 1296 H 124.354 5.48295 4.48082 0
M  V30 1297 H 124.762 3.76296 4.20787 0
M  V30 1298 N 124.16 -0.719506 1.40217 0
M  V30 1299 C 125.407 -1.47933 1.38283 0
M  V30 1300 C 125.735 -1.94493 -0.0161536 0
M  V30 1301 O 124.99 -1.68224 -0.999956 0
M  V30 1302 C 125.289 -2.72271 2.31524 0
M  V30 1303 C 124.955 -2.44496 3.78857 0
M  V30 1304 C 123.617 -2.36631 4.18998 0
M  V30 1305 C 125.969 -2.21104 4.71977 0
M  V30 1306 C 123.297 -2.03437 5.503 0
M  V30 1307 C 125.649 -1.89423 6.03574 0
M  V30 1308 C 124.313 -1.80038 6.42762 0
M  V30 1309 H 123.583 -0.541325 0.506012 0
M  V30 1310 H 126.23 -0.824502 1.72842 0
M  V30 1311 H 124.535 -3.42572 1.90137 0
M  V30 1312 H 126.232 -3.30348 2.27313 0
M  V30 1313 H 122.822 -2.51503 3.47051 0
M  V30 1314 H 127.006 -2.26139 4.41786 0
M  V30 1315 H 122.262 -1.94705 5.79569 0
M  V30 1316 H 126.436 -1.70336 6.75247 0
M  V30 1317 H 124.063 -1.54083 7.44421 0
M  V30 1318 N 125.638 -1.25649 -0.95132 0
M  V30 1319 C 126.884 -1.10757 -1.69884 0
M  V30 1320 C 127.217 0.350061 -1.91019 0
M  V30 1321 O 126.492 1.25783 -1.48354 0
M  V30 1322 C 126.775 -1.86606 -3.07978 0
M  V30 1323 C 126.628 -3.40217 -2.94232 0
M  V30 1324 C 127.947 -1.65182 -4.07925 0
M  V30 1325 H 125.066 -0.40374 -0.616574 0
M  V30 1326 H 127.708 -1.54521 -1.10558 0
M  V30 1327 H 125.858 -1.49409 -3.58621 0
M  V30 1328 H 127.53 -3.87108 -2.50889 0
M  V30 1329 H 125.773 -3.67759 -2.30078 0
M  V30 1330 H 126.444 -3.88505 -3.92133 0
M  V30 1331 H 128.92 -1.9757 -3.66204 0
M  V30 1332 H 127.796 -2.20683 -5.02583 0
M  V30 1333 H 128.057 -0.593933 -4.38092 0
M  V30 1334 N 127.117 1.15442 -1.07289 0
M  V30 1335 C 128.027 2.23786 -0.704057 0
M  V30 1336 C 129.043 1.7166 0.284413 0
M  V30 1337 O 130.219 2.00972 0.131205 0
M  V30 1338 C 127.284 3.46535 -0.106792 0
M  V30 1339 C 126.345 4.13654 -1.14842 0
M  V30 1340 C 125.578 5.30544 -0.57956 0
M  V30 1341 O 125.801 5.67187 0.604585 0
M  V30 1342 O 124.735 5.87154 -1.32414 0
M  V30 1343 H 128.561 2.57664 -1.60757 0
M  V30 1344 H 126.146 1.23152 -0.845803 0
M  V30 1345 H 128.028 4.20804 0.224048 0
M  V30 1346 H 126.703 3.14407 0.770049 0
M  V30 1347 H 125.61 3.4131 -1.5316 0
M  V30 1348 H 126.943 4.49861 -1.99714 0
M  V30 1349 N 128.595 0.856903 1.32268 0
M  V30 1350 C 129.545 0.274899 2.26337 0
M  V30 1351 C 130.529 -0.580543 1.50062 0
M  V30 1352 O 131.721 -0.429559 1.71708 0
M  V30 1353 C 128.85 -0.533841 3.39124 0
M  V30 1354 C 127.936 0.334114 4.22782 0
M  V30 1355 N 128.327 1.42143 4.85416 0
M  V30 1356 C 126.625 0.124256 4.45827 0
M  V30 1357 C 127.326 1.95559 5.47843 0
M  V30 1358 N 126.302 1.25444 5.28928 0
M  V30 1359 H 130.104 1.10612 2.72291 0
M  V30 1360 H 127.618 0.703258 1.46383 0
M  V30 1361 H 129.615 -0.96722 4.05525 0
M  V30 1362 H 128.275 -1.36283 2.94715 0
M  V30 1363 H 129.286 1.80436 4.85451 0
M  V30 1364 H 125.963 -0.669837 4.12092 0
M  V30 1365 H 127.353 2.86714 6.07655 0
M  V30 1366 N 130.073 -1.45103 0.615059 0
M  V30 1367 C 131.489 -1.57137 0.279322 0
M  V30 1368 C 131.689 -1.60523 -1.21797 0
M  V30 1369 O 130.745 -1.53956 -2.00134 0
M  V30 1370 C 132.058 -2.85062 0.957083 0
M  V30 1371 C 133.606 -2.98749 0.933706 0
M  V30 1372 C 134.081 -4.29455 1.59162 0
M  V30 1373 N 135.572 -4.36231 1.55746 0
M  V30 1374 C 136.307 -5.36051 2.0356 0
M  V30 1375 N 135.803 -6.42367 2.59494 0
M  V30 1376 N 137.596 -5.27456 1.94284 0
M  V30 1377 H 129.747 -1.41148 1.58717 0
M  V30 1378 H 132.01 -0.675331 0.665306 0
M  V30 1379 H 131.716 -2.88488 2.01166 0
M  V30 1380 H 131.59 -3.7407 0.48494 0
M  V30 1381 H 133.977 -2.94886 -0.112347 0
M  V30 1382 H 134.058 -2.11132 1.44419 0
M  V30 1383 H 133.702 -4.34077 2.63704 0
M  V30 1384 H 133.632 -5.15901 1.0561 0
M  V30 1385 H 136.123 -3.60011 1.14893 0
M  V30 1386 H 136.436 -7.14793 2.93752 0
M  V30 1387 H 134.781 -6.43097 2.63537 0
M  V30 1388 H 137.972 -4.43308 1.5032 0
M  V30 1389 H 138.145 -6.05099 2.3186 0
M  V30 1390 N 131.551 -0.354651 -1.53558 0
M  V30 1391 C 132.791 0.238651 -2.03002 0
M  V30 1392 C 133.155 1.46878 -1.23656 0
M  V30 1393 O 134.356 2.13699 -1.63053 0
M  V30 1394 C 132.627 0.534175 -3.53386 0
M  V30 1395 S 134.186 1.10271 -4.24719 0
M  V30 1396 H 131.004 0.0702908 -0.707517 0
M  V30 1397 H 133.606 -0.494987 -1.8913 0
M  V30 1398 H 132.31 -0.368765 -4.0874 0
M  V30 1399 H 131.841 1.29718 -3.71398 0
M  V30 1400 H 133.856 2.38772 -4.34974 0
M  V30 1401 N 133.029 1.57378 -0.0835403 0
M  V30 1402 C 133.992 2.12252 0.864959 0
M  V30 1403 C 134.992 1.04916 1.21858 0
M  V30 1404 O 136.182 1.30853 1.14991 0
M  V30 1405 C 133.314 2.63358 2.16461 0
M  V30 1406 H 134.507 2.97371 0.388676 0
M  V30 1407 H 132.06 1.55423 0.165317 0
M  V30 1408 H 132.795 1.81727 2.686 0
M  V30 1409 H 132.58 3.41826 1.92087 0
M  V30 1410 H 134.07 3.05847 2.84337 0
M  V30 1411 N 134.507 -0.190092 1.56449 0
M  V30 1412 C 135.784 -0.935886 1.71757 0
M  V30 1413 C 136.164 -2.01173 0.639726 0
M  V30 1414 O 135.512 -2.25827 -0.348502 0
M  V30 1415 C 135.722 -1.51775 3.1427 0
M  V30 1416 C 137.07 -1.99794 3.74656 0
M  V30 1417 O 138.094 -1.61607 3.1743 0
M  V30 1418 O 136.953 -2.70079 4.751 0
M  V30 1419 H 134.047 -0.439229 0.700719 0
M  V30 1420 H 136.593 -0.179395 1.68749 0
M  V30 1421 H 135.365 -0.742505 3.84191 0
M  V30 1422 H 134.988 -2.33894 3.21527 0
M  V30 1423 N 135.985 -1.50799 -0.457987 0
M  V30 1424 C 137.232 -1.62442 -1.20908 0
M  V30 1425 C 137.56 -0.330865 -1.91665 0
M  V30 1426 O 136.815 0.68401 -1.83357 0
M  V30 1427 C 137.114 -2.76358 -2.2663 0
M  V30 1428 C 136.78 -4.16378 -1.73033 0
M  V30 1429 C 135.442 -4.54473 -1.58138 0
M  V30 1430 C 137.794 -5.03836 -1.33413 0
M  V30 1431 C 135.122 -5.77754 -1.02065 0
M  V30 1432 C 137.474 -6.27676 -0.78778 0
M  V30 1433 C 136.138 -6.64562 -0.625561 0
M  V30 1434 H 135.408 -0.594417 -0.442435 0
M  V30 1435 H 138.055 -1.84772 -0.503136 0
M  V30 1436 H 136.36 -2.48167 -3.03184 0
M  V30 1437 H 138.057 -2.82568 -2.84528 0
M  V30 1438 H 134.647 -3.86331 -1.85598 0
M  V30 1439 H 138.831 -4.75026 -1.4375 0
M  V30 1440 H 134.087 -6.04997 -0.882547 0
M  V30 1441 H 138.261 -6.94797 -0.472177 0
M  V30 1442 H 135.888 -7.59965 -0.188926 0
M  V30 1443 N 137.463 0.71206 -1.40597 0
M  V30 1444 C 138.711 1.46907 -1.38791 0
M  V30 1445 C 139.032 1.94998 0.00780391 0
M  V30 1446 O 138.302 1.70587 0.963174 0
M  V30 1447 H 136.882 0.545043 -0.51082 0
M  V30 1448 H 139.544 0.843882 -1.75683 0
M  V30 1449 H 138.64 2.34021 -2.06496 0
M  V30 1450 N 138.941 1.26152 0.944643 0
M  V30 1451 C 139.874 1.01729 2.04271 0
M  V30 1452 C 140.852 -0.0568101 1.62501 0
M  V30 1453 O 142.036 0.0848987 1.88309 0
M  V30 1454 C 139.163 0.539792 3.34371 0
M  V30 1455 C 138.209 1.60593 3.9511 0
M  V30 1456 S 139.042 3.19392 4.29825 0
M  V30 1457 C 140.198 2.73402 5.63029 0
M  V30 1458 H 140.431 1.94703 2.24673 0
M  V30 1459 H 137.964 1.09793 1.08558 0
M  V30 1460 H 139.922 0.270956 4.09605 0
M  V30 1461 H 138.583 -0.369609 3.11918 0
M  V30 1462 H 137.776 1.22275 4.88943 0
M  V30 1463 H 137.378 1.82596 3.26397 0
M  V30 1464 H 139.67 2.1765 6.41588 0
M  V30 1465 H 140.613 3.65913 6.06229 0
M  V30 1466 H 141.021 2.13077 5.22741 0
M  V30 1467 N 140.419 -1.14872 1.07899 0
M  V30 1468 C 141.382 -2.17986 0.708161 0
M  V30 1469 C 142.382 -1.58775 -0.25442 0
M  V30 1470 O 143.572 -1.74166 -0.034645 0
M  V30 1471 C 140.704 -3.40871 0.0446929 0
M  V30 1472 H 141.897 -2.52306 1.62116 0
M  V30 1473 H 139.45 -1.2943 0.876218 0
M  V30 1474 H 140.185 -3.12124 -0.880281 0
M  V30 1475 H 139.97 -3.8511 0.737091 0
M  V30 1476 H 141.46 -4.17121 -0.19991 0
M  V30 1477 N 141.898 -0.863906 -1.31812 0
M  V30 1478 C 142.861 -0.320212 -2.26952 0
M  V30 1479 C 143.861 0.525369 -1.51975 0
M  V30 1480 O 145.051 0.335547 -1.70938 0
M  V30 1481 C 142.183 0.545919 -3.365 0
M  V30 1482 H 143.376 -1.16004 -2.76556 0
M  V30 1483 H 140.929 -0.638995 -1.42641 0
M  V30 1484 H 141.664 1.40718 -2.92179 0
M  V30 1485 H 141.449 -0.0594674 -3.92055 0
M  V30 1486 H 142.939 0.918796 -4.07367 0
M  V30 1487 N 143.376 1.44774 -0.622745 0
M  V30 1488 C 144.653 1.95522 -0.0551974 0
M  V30 1489 C 145.033 1.5649 1.41683 0
M  V30 1490 O 144.381 0.834848 2.12703 0
M  V30 1491 C 144.591 3.4796 -0.269242 0
M  V30 1492 C 145.939 4.24306 -0.158014 0
M  V30 1493 O 146.963 3.55637 -0.200162 0
M  V30 1494 O 145.822 5.46471 -0.0558693 0
M  V30 1495 H 142.916 0.826556 0.0271015 0
M  V30 1496 H 145.462 1.54866 -0.693864 0
M  V30 1497 H 144.234 3.6939 -1.29099 0
M  V30 1498 H 143.857 3.95543 0.403966 0
M  V30 1499 N 144.854 0.36279 1.53368 0
M  V30 1500 C 145.801 -0.485008 2.25646 0
M  V30 1501 C 146.771 -1.07982 1.2621 0
M  V30 1502 O 147.956 -1.11284 1.54986 0
M  V30 1503 C 145.096 -1.62023 3.04701 0
M  V30 1504 C 144.209 -1.05086 4.19024 0
M  V30 1505 C 143.344 -2.15496 4.85525 0
M  V30 1506 C 142.383 -1.5601 5.91884 0
M  V30 1507 N 141.52 -2.60241 6.52088 0
M  V30 1508 H 146.36 0.137864 2.97681 0
M  V30 1509 H 143.897 0.0798061 1.46883 0
M  V30 1510 H 145.855 -2.28887 3.48807 0
M  V30 1511 H 144.485 -2.2138 2.34927 0
M  V30 1512 H 143.537 -0.27259 3.79422 0
M  V30 1513 H 144.849 -0.575926 4.95464 0
M  V30 1514 H 144.003 -2.90186 5.32801 0
M  V30 1515 H 142.742 -2.66341 4.08551 0
M  V30 1516 H 141.747 -0.798338 5.43973 0
M  V30 1517 H 142.972 -1.05994 6.70777 0
M  V30 1518 H 140.918 -3.10304 5.77968 0
M  V30 1519 H 140.835 -2.17426 7.24059 0
M  V30 1520 H 142.103 -3.34641 7.04014 0
M  V30 1521 N 146.332 -1.57332 0.0918853 0
M  V30 1522 C 147.28 -2.15075 -0.885747 0
M  V30 1523 C 148.274 -1.09277 -1.29441 0
M  V30 1524 O 149.48 -1.27627 -1.26931 0
M  V30 1525 H 145.855 -0.687966 -0.303656 0
M  V30 1526 H 147.826 -2.96047 -0.373995 0
M  V30 1527 C 146.575 -2.74325 -2.13638 0
M  V30 1528 H 145.898 -3.55418 -1.8308 0
M  V30 1529 H 147.338 -3.183 -2.80109 0
M  V30 1530 C 145.797 -1.70062 -2.90827 0
M  V30 1531 O 146.327 -1.13763 -3.85254 0
M  V30 1532 N 144.533 -1.40628 -2.54307 0
M  V30 1533 H 144.08 -1.866 -1.7759 0
M  V30 1534 H 144.038 -0.711043 -3.06254 0
M  V30 1535 N 147.81 0.181792 -1.56548 0
M  V30 1536 C 148.757 1.22521 -1.95595 0
M  V30 1537 C 149.727 1.4454 -0.818373 0
M  V30 1538 O 150.912 1.57454 -1.07763 0
M  V30 1539 C 148.052 2.56193 -2.31212 0
M  V30 1540 C 147.165 2.41641 -3.58097 0
M  V30 1541 C 146.3 3.68108 -3.82975 0
M  V30 1542 C 145.339 3.48445 -5.03242 0
M  V30 1543 N 144.476 4.66956 -5.24306 0
M  V30 1544 H 149.316 0.885226 -2.84548 0
M  V30 1545 H 146.853 0.425718 -1.40805 0
M  V30 1546 H 148.811 3.34088 -2.49882 0
M  V30 1547 H 147.441 2.88208 -1.45382 0
M  V30 1548 H 146.493 1.54976 -3.474 0
M  V30 1549 H 147.805 2.23052 -4.46149 0
M  V30 1550 H 146.959 4.54441 -4.01956 0
M  V30 1551 H 145.698 3.89666 -2.93278 0
M  V30 1552 H 144.703 2.60499 -4.8417 0
M  V30 1553 H 145.928 3.2832 -5.9446 0
M  V30 1554 H 143.874 4.88752 -4.37559 0
M  V30 1555 H 143.791 4.51242 -6.06561 0
M  V30 1556 H 145.059 5.54602 -5.47756 0
M  V30 1557 N 149.288 1.51039 0.449983 0
M  V30 1558 C 150.535 1.63081 1.20045 0
M  V30 1559 C 150.863 0.341024 1.91487 0
M  V30 1560 O 150.118 -0.674276 1.83717 0
M  V30 1561 C 150.417 2.77556 2.25161 0
M  V30 1562 C 150.083 4.17289 1.70823 0
M  V30 1563 C 148.745 4.55305 1.55725 0
M  V30 1564 C 151.097 5.04536 1.3074 0
M  V30 1565 C 148.425 5.78287 0.989999 0
M  V30 1566 C 150.777 6.28085 0.754482 0
M  V30 1567 C 149.441 6.64885 0.590308 0
M  V30 1568 H 148.711 0.596755 0.439277 0
M  V30 1569 H 151.358 1.85037 0.49333 0
M  V30 1570 H 149.663 2.49771 3.01863 0
M  V30 1571 H 151.36 2.84073 2.83026 0
M  V30 1572 H 147.95 3.8731 1.83546 0
M  V30 1573 H 152.134 4.75782 1.41229 0
M  V30 1574 H 147.39 6.05456 0.850451 0
M  V30 1575 H 151.564 6.95038 0.435324 0
M  V30 1576 H 149.191 7.60055 0.14862 0
M  V30 1577 N 150.766 -0.704594 1.40972 0
M  V30 1578 C 152.177 -1.28418 1.3552 0
M  V30 1579 C 152.528 -1.96171 0.0339434 0
M  V30 1580 O 151.653 -1.98231 -0.867944 0
M  V30 1581 C 152.248 -2.33528 2.45459 0
M  V30 1582 C 150.807 -2.87085 2.43433 0
M  V30 1583 C 149.954 -1.61007 2.2577 0
M  V30 1584 H 152.905 -0.499963 1.50619 0
M  V30 1585 H 152.926 -3.14619 2.13998 0
M  V30 1586 H 152.438 -1.84187 3.41609 0
M  V30 1587 H 150.539 -3.40626 1.51013 0
M  V30 1588 H 150.652 -3.3813 3.39419 0
M  V30 1589 H 149.016 -1.86482 1.73483 0
M  V30 1590 H 149.799 -1.13675 3.23933 0
M  V30 1591 N 152.244 -1.26651 -0.937939 0
M  V30 1592 C 153.492 -1.12165 -1.68118 0
M  V30 1593 C 153.813 0.334983 -1.92101 0
M  V30 1594 O 153.083 1.23583 -1.52 0
M  V30 1595 H 151.663 -0.412093 -0.623048 0
M  V30 1596 H 154.325 -1.59027 -1.12678 0
M  V30 1597 H 153.421 -1.64289 -2.6536 0
M  V30 1598 N 153.722 1.14298 -1.08507 0
M  V30 1599 C 154.999 1.81544 -0.728088 0
M  V30 1600 C 155.379 1.95838 0.78808 0
M  V30 1601 O 154.727 1.51904 1.70697 0
M  V30 1602 C 154.937 3.17169 -1.45619 0
M  V30 1603 C 156.285 3.9265 -1.61591 0
M  V30 1604 O 157.309 3.26762 -1.41793 0
M  V30 1605 O 156.168 5.10807 -1.94263 0
M  V30 1606 H 153.262 0.78491 -0.260471 0
M  V30 1607 H 155.808 1.21307 -1.18671 0
M  V30 1608 H 154.58 3.01934 -2.489 0
M  V30 1609 H 154.203 3.851 -0.989124 0
M  V30 1610 N 155.201 0.870884 1.31352 0
M  V30 1611 C 156.426 0.495957 2.01383 0
M  V30 1612 C 156.851 -0.904324 1.64935 0
M  V30 1613 O 156.209 -1.59687 0.858466 0
M  V30 1614 C 156.257 0.661433 3.54482 0
M  V30 1615 O 155.361 -0.298851 4.11316 0
M  V30 1616 H 154.702 0.197158 0.634054 0
M  V30 1617 H 157.232 1.17455 1.67527 0
M  V30 1618 H 157.242 0.555072 4.04207 0
M  V30 1619 H 155.917 1.68246 3.8035 0
M  V30 1620 H 154.494 -0.147368 3.72609 0
M  V30 1621 N 156.679 -1.44442 0.630414 0
M  V30 1622 C 157.925 -2.02351 0.134816 0
M  V30 1623 C 158.258 -1.4947 -1.23986 0
M  V30 1624 O 157.533 -0.678475 -1.82283 0
M  V30 1625 C 157.816 -3.59898 0.120707 0
M  V30 1626 C 157.669 -4.23063 1.52767 0
M  V30 1627 C 158.988 -4.36585 -0.555127 0
M  V30 1628 H 156.107 -0.73527 0.0504646 0
M  V30 1629 H 158.749 -1.72022 0.806751 0
M  V30 1630 H 156.899 -3.85868 -0.451477 0
M  V30 1631 H 158.571 -4.08202 2.14869 0
M  V30 1632 H 156.814 -3.80586 2.08175 0
M  V30 1633 H 157.485 -5.32071 1.46984 0
M  V30 1634 H 159.961 -4.16044 -0.0685429 0
M  V30 1635 H 158.837 -5.46294 -0.534185 0
M  V30 1636 H 159.098 -4.11138 -1.62535 0
M  V30 1637 N 158.157 -0.370918 -1.53173 0
M  V30 1638 C 159.403 0.217423 -2.01631 0
M  V30 1639 C 159.736 1.47983 -1.25756 0
M  V30 1640 O 159.011 1.91274 -0.352764 0
M  V30 1641 C 159.294 0.503982 -3.56556 0
M  V30 1642 C 159.147 -0.77243 -4.43118 0
M  V30 1643 C 160.466 1.30234 -4.20389 0
M  V30 1644 H 157.585 0.0775486 -0.732909 0
M  V30 1645 H 160.227 -0.496863 -1.83388 0
M  V30 1646 H 158.377 1.11248 -3.72231 0
M  V30 1647 H 160.049 -1.4098 -4.39229 0
M  V30 1648 H 158.292 -1.39167 -4.10871 0
M  V30 1649 H 158.963 -0.526815 -5.4948 0
M  V30 1650 H 161.439 0.787546 -4.08579 0
M  V30 1651 H 160.315 1.47158 -5.28806 0
M  V30 1652 H 160.576 2.31237 -3.76805 0
M  V30 1653 N 159.635 1.57281 -0.100228 0
M  V30 1654 C 160.863 1.98879 0.570509 0
M  V30 1655 C 161.278 0.979476 1.61405 0
M  V30 1656 O 160.635 -0.0302288 1.82475 0
M  V30 1657 C 160.686 3.4052 1.2136 0
M  V30 1658 O 160.407 4.37588 0.211786 0
M  V30 1659 C 161.908 3.97149 1.96945 0
M  V30 1660 H 159.128 0.653428 0.152555 0
M  V30 1661 H 161.672 2.03697 -0.18103 0
M  V30 1662 H 159.827 3.367 1.91603 0
M  V30 1663 H 160.241 5.20118 0.676607 0
M  V30 1664 H 161.715 4.98393 2.37294 0
M  V30 1665 H 162.192 3.3525 2.83733 0
M  V30 1666 H 162.798 4.04458 1.31506 0
M  V30 1667 N 161.113 -0.173488 1.56642 0
M  V30 1668 C 162.361 -0.888706 1.81512 0
M  V30 1669 C 162.682 -1.82875 0.676872 0
M  V30 1670 O 161.952 -1.93536 -0.303414 0
M  V30 1671 H 160.532 -0.331164 0.669582 0
M  V30 1672 H 163.194 -0.173823 1.94123 0
M  V30 1673 H 162.29 -1.46691 2.75478 0
M  V30 1674 N 162.591 -1.51276 -0.441967 0
M  V30 1675 C 164.007 -1.39349 -0.778083 0
M  V30 1676 C 164.207 -0.472212 -1.95889 0
M  V30 1677 O 163.263 0.0743551 -2.5239 0
M  V30 1678 C 164.576 -2.81292 -1.0628 0
M  V30 1679 C 166.124 -2.9041 -1.16751 0
M  V30 1680 C 166.599 -4.33251 -1.48519 0
M  V30 1681 N 168.09 -4.36336 -1.55453 0
M  V30 1682 C 168.825 -5.43885 -1.81596 0
M  V30 1683 N 168.321 -6.61601 -2.05562 0
M  V30 1684 N 170.114 -5.3136 -1.8334 0
M  V30 1685 H 162.265 -2.09729 0.335774 0
M  V30 1686 H 164.528 -0.943925 0.0878028 0
M  V30 1687 H 164.234 -3.50678 -0.267905 0
M  V30 1688 H 164.108 -3.20334 -1.99163 0
M  V30 1689 H 166.495 -2.21225 -1.95304 0
M  V30 1690 H 166.576 -2.54871 -0.217801 0
M  V30 1691 H 166.22 -5.02984 -0.704958 0
M  V30 1692 H 166.15 -4.66299 -2.44689 0
M  V30 1693 H 168.641 -3.51466 -1.38853 0
M  V30 1694 H 168.954 -7.39361 -2.24867 0
M  V30 1695 H 167.299 -6.64725 -2.02894 0
M  V30 1696 H 170.49 -4.38382 -1.64132 0
M  V30 1697 H 170.663 -6.15258 -2.03377 0
M  V30 1698 N 164.069 0.697108 -1.41344 0
M  V30 1699 C 165.317 1.45426 -1.40341 0
M  V30 1700 C 165.638 1.94996 -0.0128787 0
M  V30 1701 O 164.908 1.71599 0.945027 0
M  V30 1702 H 163.488 0.539594 -0.516573 0
M  V30 1703 H 166.15 0.825201 -1.76569 0
M  V30 1704 H 165.246 2.31817 -2.08967 0
M  V30 1705 N 165.547 1.27147 0.931209 0
M  V30 1706 C 166.963 1.04475 1.20653 0
M  V30 1707 C 167.163 -0.223885 2.00252 0
M  V30 1708 O 166.219 -0.930332 2.34736 0
M  V30 1709 C 167.532 2.28209 1.95809 0
M  V30 1710 C 169.08 2.33211 2.08762 0
M  V30 1711 C 169.555 3.56665 2.87323 0
M  V30 1712 N 171.046 3.57201 2.94892 0
M  V30 1713 C 171.781 4.49395 3.56134 0
M  V30 1714 N 171.277 5.51889 4.18796 0
M  V30 1715 N 173.07 4.37026 3.53504 0
M  V30 1716 H 165.221 2.08612 0.399333 0
M  V30 1717 H 167.484 0.917312 0.239253 0
M  V30 1718 H 167.19 3.20538 1.44736 0
M  V30 1719 H 167.064 2.33247 2.96438 0
M  V30 1720 H 169.451 1.41391 2.59023 0
M  V30 1721 H 169.532 2.32178 1.07364 0
M  V30 1722 H 169.176 4.4882 2.37746 0
M  V30 1723 H 169.106 3.54948 3.88998 0
M  V30 1724 H 171.597 2.83074 2.50354 0
M  V30 1725 H 171.91 6.18409 4.63454 0
M  V30 1726 H 170.255 5.55735 4.17353 0
M  V30 1727 H 173.446 3.56166 3.03749 0
M  V30 1728 H 173.619 5.09067 4.00942 0
M  V30 1729 N 167.025 -1.13721 1.09112 0
M  V30 1730 C 168.274 -1.84275 0.82009 0
M  V30 1731 C 168.587 -1.84253 -0.656509 0
M  V30 1732 O 169.793 -2.50668 -1.04296 0
M  V30 1733 C 168.249 -3.30825 1.41714 0
M  V30 1734 C 167.857 -3.39244 2.92605 0
M  V30 1735 C 169.601 -4.06443 1.22492 0
M  V30 1736 C 167.508 -4.80047 3.45411 0
M  V30 1737 H 166.438 -0.690387 0.30312 0
M  V30 1738 H 169.089 -1.28146 1.31343 0
M  V30 1739 H 167.471 -3.86737 0.851498 0
M  V30 1740 H 168.645 -2.93344 3.55367 0
M  V30 1741 H 166.96 -2.77088 3.10823 0
M  V30 1742 H 169.557 -5.10387 1.59402 0
M  V30 1743 H 169.9 -4.15972 0.165299 0
M  V30 1744 H 170.433 -3.56852 1.75788 0
M  V30 1745 H 167.172 -4.75709 4.50978 0
M  V30 1746 H 166.692 -5.26455 2.87411 0
M  V30 1747 H 168.371 -5.48957 3.42425 0
M  V30 1748 N 168.503 -0.877838 -1.30888 0
M  V30 1749 C 169.451 -0.328662 -2.30266 0
M  V30 1750 C 170.445 0.560496 -1.59859 0
M  V30 1751 O 171.651 0.445722 -1.74394 0
M  V30 1752 H 168.026 -0.0876142 -0.746879 0
M  V30 1753 H 169.997 -1.18061 -2.74051 0
M  V30 1754 C 168.746 0.448071 -3.44801 0
M  V30 1755 H 168.069 -0.226859 -3.99156 0
M  V30 1756 H 169.509 0.797541 -4.16432 0
M  V30 1757 C 167.968 1.64239 -2.94155 0
M  V30 1758 O 168.498 2.74175 -2.93583 0
M  V30 1759 N 166.704 1.47716 -2.50256 0
M  V30 1760 H 166.251 0.582821 -2.5092 0
M  V30 1761 H 166.209 2.27765 -2.16727 0
M  V30 1762 N 169.982 1.44106 -0.638065 0
M  V30 1763 C 171.23 2.01579 -0.145043 0
M  V30 1764 C 171.551 1.50496 1.24 0
M  V30 1765 O 170.821 0.711374 1.82527 0
M  V30 1766 H 169.401 0.745282 -0.05063 0
M  V30 1767 H 172.063 1.76516 -0.826327 0
M  V30 1768 H 171.159 3.11877 -0.118039 0
M  V30 1769 N 171.46 0.379036 1.52974 0
M  V30 1770 C 172.876 0.0285448 1.59574 0
M  V30 1771 C 173.076 -1.45542 1.39355 0
M  V30 1772 O 172.132 -2.2187 1.20541 0
M  V30 1773 C 173.445 0.496535 2.96572 0
M  V30 1774 C 174.993 0.451909 3.0972 0
M  V30 1775 C 175.468 0.895924 4.49152 0
M  V30 1776 N 176.959 0.851522 4.55306 0
M  V30 1777 C 177.694 1.16661 5.61407 0
M  V30 1778 N 177.19 1.55166 6.752 0
M  V30 1779 N 178.983 1.08853 5.51459 0
M  V30 1780 H 171.134 1.34525 1.64367 0
M  V30 1781 H 173.397 0.550733 0.771619 0
M  V30 1782 H 173.103 1.53258 3.16552 0
M  V30 1783 H 172.977 -0.109802 3.7704 0
M  V30 1784 H 175.364 -0.575029 2.89443 0
M  V30 1785 H 175.445 1.09392 2.3123 0
M  V30 1786 H 175.089 1.92104 4.70168 0
M  V30 1787 H 175.019 0.23103 5.26093 0
M  V30 1788 H 177.51 0.568038 3.73606 0
M  V30 1789 H 177.823 1.776 7.52116 0
M  V30 1790 H 176.168 1.59044 6.76557 0
M  V30 1791 H 179.359 0.786803 4.6144 0
M  V30 1792 H 179.532 1.33742 6.34048 0
M  V30 1793 N 172.938 -1.57226 0.108567 0
M  V30 1794 C 173.868 -2.17778 -0.84232 0
M  V30 1795 C 174.849 -1.11487 -1.2847 0
M  V30 1796 O 176.034 -1.39681 -1.34918 0
M  V30 1797 C 173.164 -2.76888 -2.09644 0
M  V30 1798 C 172.118 -3.88669 -1.79221 0
M  V30 1799 C 171.444 -4.34541 -3.11574 0
M  V30 1800 C 172.744 -5.11251 -1.06864 0
M  V30 1801 H 174.438 -2.97489 -0.337774 0
M  V30 1802 H 171.984 -1.43097 -0.161025 0
M  V30 1803 H 173.937 -3.17904 -2.76614 0
M  V30 1804 H 172.661 -1.94451 -2.62405 0
M  V30 1805 H 171.32 -3.48213 -1.14644 0
M  V30 1806 H 170.968 -3.48977 -3.62249 0
M  V30 1807 H 170.668 -5.09914 -2.91996 0
M  V30 1808 H 172.192 -4.782 -3.7968 0
M  V30 1809 H 173.606 -5.49352 -1.63968 0
M  V30 1810 H 172.003 -5.9214 -0.974178 0
M  V30 1811 H 173.073 -4.8487 -0.0536168 0
M  V30 1812 N 174.416 0.165178 -1.56732 0
M  V30 1813 C 175.662 0.882112 -1.82611 0
M  V30 1814 C 175.995 1.81628 -0.687378 0
M  V30 1815 O 175.27 1.92009 0.310267 0
M  V30 1816 C 175.553 1.67245 -3.18906 0
M  V30 1817 C 175.406 0.760987 -4.43316 0
M  V30 1818 C 176.725 2.63884 -3.52212 0
M  V30 1819 H 173.844 0.319242 -0.664269 0
M  V30 1820 H 176.486 0.148052 -1.89422 0
M  V30 1821 H 174.636 2.29824 -3.1323 0
M  V30 1822 H 176.308 0.147596 -4.61064 0
M  V30 1823 H 174.551 0.0694102 -4.33744 0
M  V30 1824 H 175.222 1.34962 -5.35247 0
M  V30 1825 H 177.698 2.11429 -3.58381 0
M  V30 1826 H 176.574 3.16245 -4.48643 0
M  V30 1827 H 176.835 3.44377 -2.77231 0
M  V30 1828 N 175.894 1.51508 0.433938 0
M  V30 1829 C 177.124 1.67914 1.20369 0
M  V30 1830 C 177.532 0.377461 1.85397 0
M  V30 1831 O 176.875 -0.654255 1.71654 0
M  V30 1832 C 176.937 2.74045 2.32679 0
M  V30 1833 C 176.601 4.16543 1.87991 0
M  V30 1834 C 177.598 5.01211 1.38145 0
M  V30 1835 C 175.283 4.6266 1.95579 0
M  V30 1836 C 177.277 6.30056 0.964774 0
M  V30 1837 C 174.964 5.91501 1.53523 0
M  V30 1838 C 175.962 6.75027 1.04055 0
M  V30 1839 O 175.65 8.01459 0.625964 0
M  V30 1840 H 175.382 0.566578 0.368735 0
M  V30 1841 H 177.936 1.98709 0.51999 0
M  V30 1842 H 176.166 2.38572 3.04336 0
M  V30 1843 H 177.855 2.79295 2.94532 0
M  V30 1844 H 178.621 4.66783 1.31675 0
M  V30 1845 H 174.5 3.97767 2.33029 0
M  V30 1846 H 178.044 6.95202 0.57796 0
M  V30 1847 H 173.941 6.25442 1.59665 0
M  V30 1848 H 174.709 8.15043 0.751509 0
M  V30 1849 N 177.372 -0.689602 1.41712 0
M  V30 1850 C 178.618 -1.45181 1.41599 0
M  V30 1851 C 178.951 -1.94181 0.0270081 0
M  V30 1852 O 178.226 -1.6993 -0.946265 0
M  V30 1853 C 178.509 -2.65945 2.42787 0
M  V30 1854 C 178.362 -2.22672 3.90816 0
M  V30 1855 C 179.681 -3.68149 2.41151 0
M  V30 1856 H 176.8 -0.526576 0.515642 0
M  V30 1857 H 179.442 -0.784947 1.73028 0
M  V30 1858 H 177.592 -3.2284 2.16116 0
M  V30 1859 H 179.264 -1.71058 4.28412 0
M  V30 1860 H 177.507 -1.54394 4.05395 0
M  V30 1861 H 178.178 -3.0935 4.57172 0
M  V30 1862 H 180.654 -3.2094 2.64834 0
M  V30 1863 H 179.53 -4.50248 3.13955 0
M  V30 1864 H 179.791 -4.18259 1.43221 0
M  V30 1865 N 178.85 -1.27639 -0.924453 0
M  V30 1866 C 180.097 -1.14167 -1.67249 0
M  V30 1867 C 180.425 0.311863 -1.91984 0
M  V30 1868 O 179.68 1.24425 -1.51053 0
M  V30 1869 C 179.979 -1.87407 -3.04325 0
M  V30 1870 C 179.645 -3.37249 -2.99289 0
M  V30 1871 C 178.307 -3.7812 -2.97622 0
M  V30 1872 C 180.659 -4.32845 -2.90336 0
M  V30 1873 C 177.987 -5.12944 -2.8479 0
M  V30 1874 C 180.339 -5.6773 -2.79045 0
M  V30 1875 C 179.003 -6.07889 -2.7573 0
M  V30 1876 H 178.273 -0.417766 -0.612007 0
M  V30 1877 H 180.92 -1.58286 -1.07786 0
M  V30 1878 H 179.225 -1.35805 -3.67511 0
M  V30 1879 H 180.922 -1.74408 -3.61086 0
M  V30 1880 H 177.512 -3.04748 -3.01374 0
M  V30 1881 H 181.696 -4.02239 -2.90719 0
M  V30 1882 H 176.952 -5.432 -2.80612 0
M  V30 1883 H 181.126 -6.41472 -2.71083 0
M  V30 1884 H 178.753 -7.12314 -2.65544 0
M  V30 1885 N 180.328 1.1314 -1.09713 0
M  V30 1886 C 181.553 1.88862 -0.857081 0
M  V30 1887 C 181.978 1.78729 0.586304 0
M  V30 1888 O 181.336 1.13692 1.41222 0
M  V30 1889 C 181.384 3.36325 -1.30069 0
M  V30 1890 O 180.488 4.09815 -0.461007 0
M  V30 1891 H 179.829 0.587108 -0.310162 0
M  V30 1892 H 182.359 1.43129 -1.46203 0
M  V30 1893 H 182.369 3.87157 -1.28738 0
M  V30 1894 H 181.044 3.43017 -2.35185 0
M  V30 1895 H 179.621 3.68986 -0.538888 0
M  V30 1896 N 181.806 0.884767 1.30421 0
M  V30 1897 C 182.738 0.308655 2.27112 0
M  V30 1898 C 183.751 -0.536655 1.53701 0
M  V30 1899 O 184.94 -0.35624 1.74909 0
M  V30 1900 C 182.04 -0.579782 3.33904 0
M  V30 1901 C 181.213 0.236417 4.36761 0
M  V30 1902 C 180.272 -0.582482 5.22966 0
M  V30 1903 O 179.298 -0.00525502 5.692 0
M  V30 1904 N 180.5 -1.89163 5.48815 0
M  V30 1905 H 183.265 1.13964 2.77186 0
M  V30 1906 H 180.826 0.747731 1.43599 0
M  V30 1907 H 182.818 -1.13366 3.88497 0
M  V30 1908 H 181.388 -1.31144 2.83761 0
M  V30 1909 H 180.608 0.97174 3.82035 0
M  V30 1910 H 181.896 0.795924 5.02536 0
M  V30 1911 H 181.294 -2.38352 5.13035 0
M  V30 1912 H 179.851 -2.39296 6.06284 0
M  V30 1913 N 183.284 -1.43765 0.645699 0
M  V30 1914 C 184.561 -1.9541 0.0862963 0
M  V30 1915 C 184.941 -1.58725 -1.39175 0
M  V30 1916 O 184.289 -0.868581 -2.11348 0
M  V30 1917 C 184.499 -3.47488 0.324565 0
M  V30 1918 C 185.847 -4.24001 0.225497 0
M  V30 1919 O 186.871 -3.55274 0.256715 0
M  V30 1920 O 185.73 -5.46313 0.142801 0
M  V30 1921 H 182.824 -0.826882 -0.0139483 0
M  V30 1922 H 185.37 -1.53743 0.718415 0
M  V30 1923 H 184.142 -3.67289 1.3496 0
M  V30 1924 H 183.765 -3.96135 -0.340987 0
M  V30 1925 N 184.763 -0.387143 -1.52771 0
M  V30 1926 C 186.01 0.195735 -2.01552 0
M  V30 1927 C 186.338 1.46995 -1.27369 0
M  V30 1928 O 185.593 1.92325 -0.361879 0
M  V30 1929 C 185.892 0.512209 -3.53711 0
M  V30 1930 C 185.558 -0.670202 -4.45891 0
M  V30 1931 C 184.22 -0.994586 -4.70809 0
M  V30 1932 C 186.572 -1.46134 -5.00294 0
M  V30 1933 C 183.9 -2.11169 -5.4738 0
M  V30 1934 C 186.252 -2.56903 -5.78086 0
M  V30 1935 C 184.916 -2.89852 -6.01284 0
M  V30 1936 H 184.186 0.0716246 -0.73753 0
M  V30 1937 H 186.833 -0.524046 -1.8419 0
M  V30 1938 H 185.138 1.31329 -3.69134 0
M  V30 1939 H 186.835 0.975804 -3.88946 0
M  V30 1940 H 183.425 -0.407366 -4.2666 0
M  V30 1941 H 187.609 -1.22397 -4.80971 0
M  V30 1942 H 182.865 -2.3707 -5.63567 0
M  V30 1943 H 187.039 -3.18608 -6.19243 0
M  V30 1944 H 184.666 -3.76533 -6.60399 0
M  V30 1945 N 186.241 1.57166 -0.116904 0
M  V30 1946 C 187.469 1.99473 0.549383 0
M  V30 1947 C 187.884 0.996541 1.60357 0
M  V30 1948 O 187.241 -0.0108731 1.82497 0
M  V30 1949 C 187.292 3.41788 1.17741 0
M  V30 1950 O 187.013 4.37788 0.165362 0
M  V30 1951 C 188.514 3.99216 1.92722 0
M  V30 1952 H 185.734 0.655009 0.145616 0
M  V30 1953 H 188.278 2.03494 -0.202625 0
M  V30 1954 H 186.433 3.38713 1.88021 0
M  V30 1955 H 186.847 5.20806 0.621403 0
M  V30 1956 H 188.321 5.00882 2.31995 0
M  V30 1957 H 188.798 3.3824 2.80161 0
M  V30 1958 H 189.404 4.0583 1.27209 0
M  V30 1959 N 187.719 -0.156864 1.56817 0
M  V30 1960 C 188.965 -0.872416 1.83076 0
M  V30 1961 C 189.298 -1.81261 0.697001 0
M  V30 1962 O 188.573 -1.92171 -0.30008 0
M  V30 1963 C 188.856 -1.65551 3.19789 0
M  V30 1964 C 188.709 -0.737467 4.43713 0
M  V30 1965 C 190.028 -2.62012 3.53606 0
M  V30 1966 H 187.147 -0.315715 0.665953 0
M  V30 1967 H 189.789 -0.138004 1.89498 0
M  V30 1968 H 187.939 -2.28159 3.14445 0
M  V30 1969 H 189.611 -0.123143 4.61136 0
M  V30 1970 H 187.854 -0.0464067 4.33775 0
M  V30 1971 H 188.525 -1.32122 5.35955 0
M  V30 1972 H 191.001 -2.09525 3.59497 0
M  V30 1973 H 189.877 -3.13861 4.50314 0
M  V30 1974 H 190.138 -3.42902 2.79053 0
M  V30 1975 N 189.197 -1.51736 -0.425897 0
M  V30 1976 C 190.444 -1.6497 -1.17436 0
M  V30 1977 C 190.772 -0.371445 -1.9092 0
M  V30 1978 O 190.027 0.644963 -1.84767 0
M  V30 1979 C 190.326 -2.81103 -2.20717 0
M  V30 1980 C 189.992 -4.19954 -1.64162 0
M  V30 1981 C 188.654 -4.57725 -1.48462 0
M  V30 1982 C 191.006 -5.06552 -1.22696 0
M  V30 1983 C 188.334 -5.79789 -0.897873 0
M  V30 1984 C 190.686 -6.29205 -0.654464 0
M  V30 1985 C 189.35 -6.6574 -0.484456 0
M  V30 1986 H 188.62 -0.603668 -0.429727 0
M  V30 1987 H 191.267 -1.85798 -0.463829 0
M  V30 1988 H 189.572 -2.54542 -2.97852 0
M  V30 1989 H 191.269 -2.8854 -2.78471 0
M  V30 1990 H 187.859 -3.90181 -1.77361 0
M  V30 1991 H 192.043 -4.77968 -1.33642 0
M  V30 1992 H 187.299 -6.06733 -0.75402 0
M  V30 1993 H 191.473 -6.95643 -0.324694 0
M  V30 1994 H 189.1 -7.60195 -0.0276833 0
M  V30 1995 N 190.675 0.682077 -1.42076 0
M  V30 1996 C 191.923 1.4393 -1.41876 0
M  V30 1997 C 192.244 1.94971 -0.0335599 0
M  V30 1998 O 191.514 1.72591 0.926773 0
M  V30 1999 H 190.094 0.534085 -0.522267 0
M  V30 2000 H 192.756 0.806427 -1.77434 0
M  V30 2001 H 191.852 2.29588 -2.11414 0
M  V30 2002 N 192.153 1.28127 0.917671 0
M  V30 2003 C 193.401 1.14825 1.66312 0
M  V30 2004 C 193.722 -0.304379 1.9261 0
M  V30 2005 O 192.992 -1.21149 1.53947 0
M  V30 2006 H 191.572 0.421953 0.616413 0
M  V30 2007 H 194.234 1.608 1.10134 0
M  V30 2008 H 193.33 1.68489 2.62712 0
M  V30 2009 N 193.631 -1.12557 1.10312 0
M  V30 2010 C 194.856 -1.88405 0.867085 0
M  V30 2011 C 195.281 -1.79038 -0.576817 0
M  V30 2012 O 194.639 -1.14439 -1.40618 0
M  V30 2013 C 194.687 -3.3563 1.31851 0
M  V30 2014 O 193.791 -4.09565 0.482734 0
M  V30 2015 H 193.132 -0.585455 0.313271 0
M  V30 2016 H 195.662 -1.42352 1.4696 0
M  V30 2017 H 195.672 -3.86469 1.3079 0
M  V30 2018 H 194.347 -3.41765 2.37001 0
M  V30 2019 H 192.924 -3.68695 0.558448 0
M  V30 2020 N 195.109 -0.891671 -1.2995 0
M  V30 2021 C 196.039 -0.379797 -2.30391 0
M  V30 2022 C 197.02 0.540919 -1.6127 0
M  V30 2023 O 198.205 0.453352 -1.88834 0
M  V30 2024 C 195.335 0.400654 -3.44981 0
M  V30 2025 C 194.289 -0.428905 -4.25846 0
M  V30 2026 C 193.615 0.478557 -5.32554 0
M  V30 2027 C 194.915 -1.67458 -4.94727 0
M  V30 2028 H 196.609 -1.21914 -2.73454 0
M  V30 2029 H 194.155 -0.587675 -1.31462 0
M  V30 2030 H 196.108 0.769434 -4.14316 0
M  V30 2031 H 194.832 1.27371 -3.0074 0
M  V30 2032 H 193.491 -0.779911 -3.58208 0
M  V30 2033 H 193.139 1.34951 -4.84559 0
M  V30 2034 H 192.839 -0.0727433 -5.87555 0
M  V30 2035 H 194.363 0.843705 -6.04743 0
M  V30 2036 H 195.777 -1.376 -5.56542 0
M  V30 2037 H 194.174 -2.16659 -5.59624 0
M  V30 2038 H 195.244 -2.41518 -4.20473 0
M  V30 2039 N 196.587 1.43421 -0.653314 0
M  V30 2040 C 197.812 2.06678 -0.172846 0
M  V30 2041 C 198.237 1.48648 1.15262 0
M  V30 2042 O 197.595 0.596457 1.71208 0
M  V30 2043 C 197.643 3.60474 -0.0953184 0
M  V30 2044 O 196.747 4.01487 0.942442 0
M  V30 2045 H 196.088 0.657181 -0.0949155 0
M  V30 2046 H 198.618 1.83925 -0.896265 0
M  V30 2047 H 198.628 4.07905 0.0879728 0
M  V30 2048 H 197.303 4.02088 -1.06291 0
M  V30 2049 H 195.88 3.65646 0.731932 0
M  V30 2050 N 198.065 0.39524 1.52563 0
M  V30 2051 C 199.313 -0.184678 2.01254 0
M  V30 2052 C 199.634 -1.46822 1.28329 0
M  V30 2053 O 198.904 -1.91666 0.405094 0
M  V30 2054 H 197.484 -0.0712355 0.743596 0
M  V30 2055 H 200.146 0.528293 1.87603 0
M  V30 2056 H 199.242 -0.390681 3.09645 0
M  V30 2057 N 199.544 -1.57102 0.125237 0
M  V30 2058 C 200.507 -2.14471 -0.80838 0
M  V30 2059 C 201.507 -1.0811 -1.19033 0
M  V30 2060 O 202.697 -1.33856 -1.11482 0
M  V30 2061 C 199.829 -2.69005 -2.09402 0
M  V30 2062 H 201.022 -2.98297 -0.309696 0
M  V30 2063 H 198.575 -1.55807 -0.124051 0
M  V30 2064 H 199.31 -1.88785 -2.63687 0
M  V30 2065 H 199.095 -3.46799 -1.82957 0
M  V30 2066 H 200.585 -3.13278 -2.76128 0
M  V30 2067 N 201.022 0.148545 -1.56898 0
M  V30 2068 C 201.972 1.1886 -1.94567 0
M  V30 2069 C 202.956 1.3863 -0.816735 0
M  V30 2070 O 204.148 1.40218 -1.08018 0
M  V30 2071 C 201.277 2.52262 -2.32849 0
M  V30 2072 C 200.363 2.36092 -3.52309 0
M  V30 2073 N 200.754 1.89674 -4.6889 0
M  V30 2074 C 199.052 2.66848 -3.57363 0
M  V30 2075 C 199.753 1.86511 -5.50989 0
M  V30 2076 N 198.729 2.29766 -4.92655 0
M  V30 2077 H 202.531 0.821793 -2.82177 0
M  V30 2078 H 200.045 0.356615 -1.58436 0
M  V30 2079 H 202.042 3.27447 -2.58039 0
M  V30 2080 H 200.702 2.89727 -1.46589 0
M  V30 2081 H 201.713 1.59663 -4.92674 0
M  V30 2082 H 198.39 3.08198 -2.81639 0
M  V30 2083 H 199.78 1.52128 -6.54452 0
M  V30 2084 N 202.5 1.5196 0.417844 0
M  V30 2085 C 203.463 1.74065 1.49111 0
M  V30 2086 C 204.463 0.610537 1.48758 0
M  V30 2087 O 205.653 0.87832 1.50437 0
M  V30 2088 C 202.785 1.81502 2.88565 0
M  V30 2089 H 203.978 2.69869 1.30807 0
M  V30 2090 H 201.531 1.42244 0.647785 0
M  V30 2091 H 202.266 0.875813 3.1225 0
M  V30 2092 H 202.051 2.63651 2.90225 0
M  V30 2093 H 203.541 2.00376 3.66387 0
M  V30 2094 N 203.978 -0.674533 1.42435 0
M  V30 2095 C 204.91 -1.80005 1.41883 0
M  V30 2096 C 205.923 -1.59667 0.31787 0
M  V30 2097 O 207.112 -1.68781 0.580973 0
M  V30 2098 C 204.212 -3.17114 1.19549 0
M  V30 2099 C 203.385 -3.64299 2.42084 0
M  V30 2100 C 202.444 -4.80142 2.15291 0
M  V30 2101 O 201.47 -4.90673 2.88493 0
M  V30 2102 N 202.672 -5.68869 1.1562 0
M  V30 2103 H 205.437 -1.80964 2.38898 0
M  V30 2104 H 202.998 -0.857633 1.37318 0
M  V30 2105 H 204.99 -3.92267 0.995417 0
M  V30 2106 H 203.56 -3.11053 0.310569 0
M  V30 2107 H 202.78 -2.79822 2.77657 0
M  V30 2108 H 204.068 -3.92567 3.23679 0
M  V30 2109 H 203.466 -5.63012 0.550765 0
M  V30 2110 H 202.023 -6.43833 1.016 0
M  V30 2111 N 205.456 -1.28612 -0.910864 0
M  V30 2112 C 206.403 -1.12786 -2.01365 0
M  V30 2113 C 207.373 -0.024201 -1.66082 0
M  V30 2114 O 208.558 -0.189667 -1.89855 0
M  V30 2115 C 205.698 -0.798743 -3.35729 0
M  V30 2116 C 204.811 -1.98173 -3.83864 0
M  V30 2117 C 203.946 -1.59298 -5.06752 0
M  V30 2118 C 202.985 -2.74245 -5.47226 0
M  V30 2119 N 202.122 -2.35842 -6.61304 0
M  V30 2120 H 206.962 -2.07142 -2.14234 0
M  V30 2121 H 204.499 -1.03093 -1.0493 0
M  V30 2122 H 206.457 -0.588662 -4.13026 0
M  V30 2123 H 205.087 0.10789 -3.2262 0
M  V30 2124 H 204.139 -2.30386 -3.02699 0
M  V30 2125 H 205.451 -2.84343 -4.09818 0
M  V30 2126 H 204.605 -1.34513 -5.916 0
M  V30 2127 H 203.344 -0.702618 -4.82612 0
M  V30 2128 H 202.349 -2.99725 -4.60918 0
M  V30 2129 H 203.574 -3.63928 -5.73353 0
M  V30 2130 H 201.52 -1.49279 -6.38789 0
M  V30 2131 H 201.437 -3.15546 -6.86998 0
M  V30 2132 H 202.705 -2.14348 -7.4945 0
M  V30 2133 N 206.934 1.1197 -1.10907 0
M  V30 2134 C 208.183 1.82947 -0.849302 0
M  V30 2135 C 208.496 1.85275 0.627112 0
M  V30 2136 O 209.702 2.52296 1.00295 0
M  V30 2137 C 208.158 3.28529 -1.46959 0
M  V30 2138 C 207.766 3.34546 -2.97965 0
M  V30 2139 C 209.51 4.04443 -1.28942 0
M  V30 2140 C 207.417 4.74491 -3.53004 0
M  V30 2141 H 206.347 0.685477 -0.314065 0
M  V30 2142 H 208.998 1.2604 -1.33365 0
M  V30 2143 H 207.38 3.85333 -0.912917 0
M  V30 2144 H 208.554 2.87654 -3.59989 0
M  V30 2145 H 206.869 2.72108 -3.15192 0
M  V30 2146 H 209.466 5.07787 -1.67502 0
M  V30 2147 H 209.809 4.15656 -0.231456 0
M  V30 2148 H 210.342 3.5401 -1.81443 0
M  V30 2149 H 207.081 4.68474 -4.58489 0
M  V30 2150 H 206.601 5.21816 -2.9575 0
M  V30 2151 H 208.28 5.4344 -3.51115 0
M  V30 2152 N 208.412 0.89855 1.29475 0
M  V30 2153 C 209.652 0.530771 1.97388 0
M  V30 2154 C 210.016 -0.905832 1.69289 0
M  V30 2155 O 211.217 -1.38042 2.30646 0
M  V30 2156 C 209.488 0.81369 3.48014 0
M  V30 2157 S 211.047 0.550048 4.35339 0
M  V30 2158 H 207.865 0.196956 0.683176 0
M  V30 2159 H 210.467 1.16074 1.57312 0
M  V30 2160 H 209.171 1.85749 3.65958 0
M  V30 2161 H 208.702 0.171795 3.93025 0
M  V30 2162 H 210.717 -0.605423 4.92493 0
M  V30 2163 N 209.89 -1.43072 0.660911 0
M  V30 2164 C 210.837 -2.30785 -0.0259884 0
M  V30 2165 C 211.807 -1.45184 -0.806888 0
M  V30 2166 O 212.992 -1.74041 -0.781943 0
M  V30 2167 C 210.132 -3.30861 -0.981067 0
M  V30 2168 C 209.245 -4.31558 -0.195458 0
M  V30 2169 C 208.38 -5.18712 -1.14503 0
M  V30 2170 C 207.419 -6.11097 -0.350299 0
M  V30 2171 N 206.556 -6.90849 -1.25186 0
M  V30 2172 H 211.396 -2.88975 0.727846 0
M  V30 2173 H 208.933 -1.42353 0.370682 0
M  V30 2174 H 210.891 -3.87399 -1.54849 0
M  V30 2175 H 209.521 -2.74304 -1.70169 0
M  V30 2176 H 208.573 -3.77252 0.488374 0
M  V30 2177 H 209.885 -4.9701 0.422176 0
M  V30 2178 H 209.039 -5.79914 -1.78284 0
M  V30 2179 H 207.778 -4.53404 -1.79656 0
M  V30 2180 H 206.783 -5.48976 0.300808 0
M  V30 2181 H 208.008 -6.7845 0.296941 0
M  V30 2182 H 205.954 -6.28182 -1.89005 0
M  V30 2183 H 205.871 -7.52854 -0.688971 0
M  V30 2184 H 207.139 -7.5655 -1.87757 0
M  V30 2185 N 211.368 -0.403325 -1.52352 0
M  V30 2186 C 212.617 0.175668 -2.00934 0
M  V30 2187 C 212.93 1.46718 -1.29356 0
M  V30 2188 O 214.136 2.12708 -1.68724 0
M  V30 2189 C 212.592 0.363612 -3.58058 0
M  V30 2190 C 212.2 -0.915472 -4.38547 0
M  V30 2191 C 213.944 0.89821 -4.14888 0
M  V30 2192 C 211.851 -0.695035 -5.87302 0
M  V30 2193 H 210.781 0.0694234 -0.750797 0
M  V30 2194 H 213.432 -0.527879 -1.75743 0
M  V30 2195 H 211.814 1.12935 -3.79555 0
M  V30 2196 H 212.988 -1.68691 -4.28812 0
M  V30 2197 H 211.303 -1.37606 -3.93006 0
M  V30 2198 H 213.9 1.07907 -5.23699 0
M  V30 2199 H 214.243 1.87126 -3.71873 0
M  V30 2200 H 214.776 0.191681 -3.97338 0
M  V30 2201 H 211.515 -1.63948 -6.34666 0
M  V30 2202 H 211.035 0.0372116 -5.99788 0
M  V30 2203 H 212.714 -0.33497 -6.46132 0
M  V30 2204 N 212.846 1.57033 -0.133567 0
M  V30 2205 C 213.779 2.11824 0.848872 0
M  V30 2206 C 214.757 1.03833 1.2513 0
M  V30 2207 O 215.941 1.31579 1.34978 0
M  V30 2208 C 213.068 2.62692 2.138 0
M  V30 2209 C 212.114 3.82705 1.88253 0
M  V30 2210 S 212.947 5.2438 1.08563 0
M  V30 2211 C 214.103 5.78627 2.38624 0
M  V30 2212 H 214.336 2.94824 0.38289 0
M  V30 2213 H 211.869 1.5419 0.0804796 0
M  V30 2214 H 213.827 2.92652 2.87863 0
M  V30 2215 H 212.488 1.79847 2.57515 0
M  V30 2216 H 211.681 4.16496 2.83809 0
M  V30 2217 H 211.283 3.53437 1.22305 0
M  V30 2218 H 213.575 5.8924 3.34369 0
M  V30 2219 H 214.518 6.76443 2.09358 0
M  V30 2220 H 214.926 5.06783 2.48658 0
M  V30 2221 N 214.325 -0.140222 1.56975 0
M  V30 2222 C 215.602 -0.880769 1.74648 0
M  V30 2223 C 215.982 -1.99036 0.703404 0
M  V30 2224 O 215.33 -2.26821 -0.27648 0
M  V30 2225 C 215.54 -1.417 3.18939 0
M  V30 2226 C 216.888 -1.87774 3.80823 0
M  V30 2227 O 217.912 -1.51427 3.2241 0
M  V30 2228 O 216.771 -2.54827 4.83452 0
M  V30 2229 H 213.865 -0.416713 0.714338 0
M  V30 2230 H 216.411 -0.125618 1.69234 0
M  V30 2231 H 215.183 -0.619902 3.86359 0
M  V30 2232 H 214.806 -2.23546 3.28805 0
M  V30 2233 N 215.803 -1.52179 -0.40978 0
M  V30 2234 C 216.735 -1.71703 -1.51825 0
M  V30 2235 C 217.748 -0.597445 -1.51441 0
M  V30 2236 O 218.937 -0.872582 -1.55719 0
M  V30 2237 C 216.037 -1.74171 -2.90719 0
M  V30 2238 C 215.21 -3.03156 -3.15302 0
M  V30 2239 C 214.269 -2.97445 -4.34065 0
M  V30 2240 O 213.295 -3.71352 -4.31377 0
M  V30 2241 N 214.497 -2.15191 -5.39141 0
M  V30 2242 H 217.262 -2.67334 -1.35472 0
M  V30 2243 H 214.823 -1.50409 -0.599069 0
M  V30 2244 H 216.815 -1.67884 -3.68235 0
M  V30 2245 H 215.385 -0.860166 -3.00533 0
M  V30 2246 H 214.605 -3.23097 -2.25836 0
M  V30 2247 H 215.893 -3.88484 -3.28569 0
M  V30 2248 H 215.291 -1.54573 -5.44173 0
M  V30 2249 H 213.848 -2.1476 -6.15403 0
M  V30 2250 N 217.281 0.66697 -1.42791 0
M  V30 2251 C 218.244 1.76211 -1.46568 0
M  V30 2252 C 219.244 1.56896 -0.352196 0
M  V30 2253 O 220.434 1.63044 -0.613364 0
M  V30 2254 C 217.566 3.14935 -1.30494 0
M  V30 2255 H 218.759 1.74247 -2.44086 0
M  V30 2256 H 216.312 0.877342 -1.29354 0
M  V30 2257 H 217.047 3.2252 -0.339301 0
M  V30 2258 H 216.832 3.30359 -2.11199 0
M  V30 2259 H 218.322 3.94821 -1.36038 0
M  V30 2260 N 218.759 1.29093 0.90403 0
M  V30 2261 C 220.008 1.16187 1.64874 0
M  V30 2262 C 220.321 -0.286742 1.93487 0
M  V30 2263 O 221.527 -0.537062 2.66135 0
M  V30 2264 C 219.983 2.03177 2.97064 0
M  V30 2265 C 219.591 3.52836 2.76062 0
M  V30 2266 C 221.335 1.98984 3.74974 0
M  V30 2267 C 219.242 4.31945 4.03952 0
M  V30 2268 H 218.172 0.431246 0.618501 0
M  V30 2269 H 220.823 1.53699 1.00243 0
M  V30 2270 H 219.205 1.5853 3.62883 0
M  V30 2271 H 220.379 4.05507 2.18863 0
M  V30 2272 H 218.694 3.58656 2.11553 0
M  V30 2273 H 221.291 2.55351 4.69787 0
M  V30 2274 H 221.634 0.968815 4.0487 0
M  V30 2275 H 222.167 2.41652 3.15989 0
M  V30 2276 H 218.906 5.34667 3.79225 0
M  V30 2277 H 218.426 3.84045 4.60727 0
M  V30 2278 H 220.105 4.42379 4.72133 0
M  V30 2279 N 220.237 -1.11381 1.11499 0
M  V30 2280 C 221.465 -1.86934 0.88675 0
M  V30 2281 C 221.88 -1.80195 -0.563476 0
M  V30 2282 O 221.237 -1.18367 -1.38908 0
M  V30 2283 C 221.288 -3.35722 1.34064 0
M  V30 2284 O 221.009 -3.4232 2.73401 0
M  V30 2285 C 222.51 -4.2818 1.14791 0
M  V30 2286 H 219.73 -0.591117 0.317523 0
M  V30 2287 H 222.274 -1.40865 1.48248 0
M  V30 2288 H 220.429 -3.79294 0.788355 0
M  V30 2289 H 220.843 -4.34971 2.93087 0
M  V30 2290 H 222.317 -5.30817 1.5145 0
M  V30 2291 H 222.794 -4.39113 0.0875279 0
M  V30 2292 H 223.4 -3.90402 1.68721 0
M  V30 2293 N 221.715 -0.905404 -1.28997 0
M  V30 2294 C 222.961 -0.535039 -1.95615 0
M  V30 2295 C 223.294 0.917404 -1.71165 0
M  V30 2296 O 222.569 1.65123 -1.02785 0
M  V30 2297 C 222.852 -0.834918 -3.50287 0
M  V30 2298 C 222.705 -2.33948 -3.84172 0
M  V30 2299 C 224.024 -0.325318 -4.38896 0
M  V30 2300 H 221.143 -0.195861 -0.710498 0
M  V30 2301 H 223.785 -1.13313 -1.52513 0
M  V30 2302 H 221.935 -0.325904 -3.87131 0
M  V30 2303 H 223.607 -2.91847 -3.57243 0
M  V30 2304 H 221.85 -2.79789 -3.31513 0
M  V30 2305 H 222.521 -2.49987 -4.92149 0
M  V30 2306 H 224.997 -0.761256 -4.09077 0
M  V30 2307 H 223.873 -0.564295 -5.45992 0
M  V30 2308 H 224.134 0.774144 -4.35269 0
M  V30 2309 N 223.193 1.4272 -0.668489 0
M  V30 2310 C 224.441 2.01226 -0.187769 0
M  V30 2311 C 224.762 1.53092 1.2078 0
M  V30 2312 O 224.032 0.74993 1.80977 0
M  V30 2313 H 222.612 0.744041 -0.0664272 0
M  V30 2314 H 225.274 1.74723 -0.863583 0
M  V30 2315 H 224.37 3.11556 -0.184166 0
M  V30 2316 N 224.671 0.411399 1.52136 0
M  V30 2317 C 225.634 -0.401089 2.25663 0
M  V30 2318 C 226.634 -0.971732 1.28117 0
M  V30 2319 O 227.824 -0.850254 1.52041 0
M  V30 2320 C 224.956 -1.56483 3.02863 0
M  V30 2321 H 226.149 0.24295 2.98914 0
M  V30 2322 H 223.702 0.163968 1.55438 0
M  V30 2323 H 224.437 -2.24567 2.33967 0
M  V30 2324 H 224.222 -1.16211 3.74483 0
M  V30 2325 H 225.712 -2.13951 3.58629 0
M  V30 2326 N 226.149 -1.5696 0.141893 0
M  V30 2327 C 227.56 -1.82797 -0.379776 0
M  V30 2328 C 227.911 -1.06033 -1.6508 0
M  V30 2329 O 227.036 -0.304011 -2.14254 0
M  V30 2330 C 227.631 -3.31578 -0.695802 0
M  V30 2331 C 226.19 -3.58014 -1.16201 0
M  V30 2332 C 225.337 -2.76699 -0.182455 0
M  V30 2333 H 228.288 -1.54406 0.366675 0
M  V30 2334 H 228.309 -3.47454 -1.55099 0
M  V30 2335 H 227.821 -3.87421 0.229449 0
M  V30 2336 H 225.922 -3.07553 -2.10338 0
M  V30 2337 H 226.035 -4.66501 -1.09151 0
M  V30 2338 H 224.399 -2.45618 -0.674072 0
M  V30 2339 H 225.182 -3.35311 0.736297 0
M  V30 2340 N 227.627 0.131896 -1.57047 0
M  V30 2341 C 228.873 0.843179 -1.84441 0
M  V30 2342 C 229.206 1.80129 -0.725749 0
M  V30 2343 O 228.481 1.92624 0.269469 0
M  V30 2344 C 228.764 1.60442 -3.22382 0
M  V30 2345 C 228.617 0.666782 -4.4483 0
M  V30 2346 C 229.936 2.56354 -3.5773 0
M  V30 2347 H 227.055 0.305081 -0.670891 0
M  V30 2348 H 229.697 0.107839 -1.89694 0
M  V30 2349 H 227.847 2.23128 -3.18035 0
M  V30 2350 H 229.519 0.0497646 -4.61273 0
M  V30 2351 H 227.762 -0.022609 -4.33794 0
M  V30 2352 H 228.433 1.23579 -5.37989 0
M  V30 2353 H 230.909 2.0378 -3.62785 0
M  V30 2354 H 229.785 3.06657 -4.5525 0
M  V30 2355 H 230.046 3.38419 -2.84473 0
M  V30 2356 N 229.106 1.52395 0.401703 0
M  V30 2357 C 230.355 1.66044 1.14509 0
M  V30 2358 C 230.668 0.400216 1.91462 0
M  V30 2359 O 231.874 0.416632 2.68284 0
M  V30 2360 C 230.33 2.93388 2.0845 0
M  V30 2361 C 229.938 4.26545 1.36978 0
M  V30 2362 C 231.682 3.16402 2.83001 0
M  V30 2363 C 229.589 5.45007 2.29611 0
M  V30 2364 H 228.519 0.618562 0.431158 0
M  V30 2365 H 231.17 1.78886 0.40892 0
M  V30 2366 H 229.552 2.74263 2.8565 0
M  V30 2367 H 230.726 4.56179 0.650916 0
M  V30 2368 H 229.041 4.09692 0.74438 0
M  V30 2369 H 231.638 4.02085 3.52465 0
M  V30 2370 H 231.981 2.30943 3.46368 0
M  V30 2371 H 232.514 3.36034 2.12898 0
M  V30 2372 H 229.253 6.32835 1.70879 0
M  V30 2373 H 228.773 5.19702 2.9945 0
M  V30 2374 H 230.452 5.7838 2.89974 0
M  V30 2375 N 230.584 -0.659388 1.43143 0
M  V30 2376 C 231.832 -1.41654 1.44147 0
M  V30 2377 C 232.153 -1.94893 0.0645739 0
M  V30 2378 O 231.423 -1.74044 -0.899198 0
M  V30 2379 H 230.003 -0.525708 0.530697 0
M  V30 2380 H 232.665 -0.778097 1.78694 0
M  V30 2381 H 231.761 -2.26195 2.1504 0
M  V30 2382 N 232.062 -1.29571 -0.897171 0
M  V30 2383 C 232.992 -1.17473 -2.01798 0
M  V30 2384 C 233.973 -0.068323 -1.69963 0
M  V30 2385 O 235.158 -0.248239 -1.92607 0
M  V30 2386 C 232.288 -0.853099 -3.36659 0
M  V30 2387 C 231.242 -1.9161 -3.82713 0
M  V30 2388 C 230.568 -1.44773 -5.14728 0
M  V30 2389 C 231.868 -3.32535 -4.02763 0
M  V30 2390 H 233.562 -2.11237 -2.12177 0
M  V30 2391 H 231.108 -1.01699 -1.01948 0
M  V30 2392 H 233.061 -0.755165 -4.14578 0
M  V30 2393 H 231.785 0.120236 -3.26379 0
M  V30 2394 H 230.444 -2.00346 -3.07013 0
M  V30 2395 H 230.092 -0.462995 -5.00865 0
M  V30 2396 H 229.792 -2.15865 -5.46513 0
M  V30 2397 H 231.316 -1.36334 -5.95185 0
M  V30 2398 H 232.73 -3.26626 -4.71156 0
M  V30 2399 H 231.127 -4.01607 -4.45905 0
M  V30 2400 H 232.197 -3.75326 -3.07016 0
M  V30 2401 N 233.54 1.10788 -1.12088 0
M  V30 2402 C 234.488 2.19111 -0.780587 0
M  V30 2403 C 235.482 1.67818 0.230961 0
M  V30 2404 O 236.688 1.79777 0.0895427 0
M  V30 2405 H 233.063 0.714477 -0.234578 0
M  V30 2406 H 235.034 2.45055 -1.70266 0
M  V30 2407 C 233.783 3.46818 -0.24747 0
M  V30 2408 H 233.106 3.86646 -1.01712 0
M  V30 2409 H 234.546 4.23973 -0.0476291 0
M  V30 2410 C 233.005 3.20968 1.02378 0
M  V30 2411 O 233.535 3.42298 2.10226 0
M  V30 2412 N 231.741 2.74658 0.949271 0
M  V30 2413 H 231.288 2.57501 0.0715173 0
M  V30 2414 H 231.246 2.57739 1.80049 0
M  V30 2415 N 235.018 0.912232 1.28515 0
M  V30 2416 C 236.295 0.463597 1.90027 0
M  V30 2417 C 236.675 -1.05753 1.82701 0
M  V30 2418 O 236.023 -1.90492 1.26194 0
M  V30 2419 C 236.233 0.992253 3.34597 0
M  V30 2420 C 237.581 1.04344 4.11579 0
M  V30 2421 O 238.605 0.94079 3.43551 0
M  V30 2422 O 237.464 1.1995 5.33174 0
M  V30 2423 H 234.558 0.146666 0.813891 0
M  V30 2424 H 237.104 1.00292 1.36893 0
M  V30 2425 H 235.876 2.03623 3.34146 0
M  V30 2426 H 235.499 0.433672 3.95228 0
M  V30 2427 N 236.496 -1.42363 0.676048 0
M  V30 2428 C 237.721 -2.06377 0.205705 0
M  V30 2429 C 238.146 -1.50463 -1.12883 0
M  V30 2430 O 237.504 -0.623619 -1.70237 0
M  V30 2431 C 237.552 -3.60277 0.152655 0
M  V30 2432 O 236.656 -4.02935 -0.87845 0
M  V30 2433 H 235.997 -0.655588 0.105359 0
M  V30 2434 H 238.527 -1.82475 0.925412 0
M  V30 2435 H 238.537 -4.07993 -0.0230675 0
M  V30 2436 H 237.212 -4.00346 1.12675 0
M  V30 2437 H 235.789 -3.66764 -0.673668 0
M  V30 2438 N 237.974 -0.419461 -1.51915 0
M  V30 2439 C 239.222 0.152637 -2.01523 0
M  V30 2440 C 239.543 1.44762 -1.30649 0
M  V30 2441 O 238.813 1.90997 -0.435535 0
M  V30 2442 H 237.393 0.0593966 -0.744635 0
M  V30 2443 H 240.055 -0.558073 -1.86739 0
M  V30 2444 H 239.151 0.341369 -3.10227 0
M  V30 2445 N 239.452 1.56882 -0.150215 0
M  V30 2446 C 240.7 1.9584 0.499105 0
M  V30 2447 C 241.021 1.03623 1.65188 0
M  V30 2448 O 240.291 0.0984084 1.95653 0
M  V30 2449 H 238.871 0.723119 0.187373 0
M  V30 2450 H 241.533 1.9358 -0.226466 0
M  V30 2451 H 240.629 2.99638 0.873122 0
M  V30 2452 N 240.93 -0.123565 1.57115 0
M  V30 2453 C 241.893 -1.13583 1.99076 0
M  V30 2454 C 242.893 -1.34564 0.880296 0
M  V30 2455 O 244.083 -1.31158 1.14644 0
M  V30 2456 C 241.215 -2.49128 2.32698 0
M  V30 2457 H 242.408 -0.775287 2.89706 0
M  V30 2458 H 239.961 -0.36771 1.51913 0
M  V30 2459 H 240.696 -2.90111 1.44934 0
M  V30 2460 H 240.481 -2.35255 3.13684 0
M  V30 2461 H 241.971 -3.2199 2.65918 0
M  V30 2462 N 242.408 -1.52605 -0.393616 0
M  V30 2463 C 243.824 -1.41753 -0.733357 0
M  V30 2464 C 244.024 -0.534293 -1.94287 0
M  V30 2465 O 243.08 -0.0059787 -2.52499 0
M  V30 2466 C 244.393 -2.84531 -0.972772 0
M  V30 2467 C 245.941 -2.93978 -1.07453 0
M  V30 2468 C 246.416 -4.37756 -1.3466 0
M  V30 2469 N 247.907 -4.4106 -1.41492 0
M  V30 2470 C 248.642 -5.49387 -1.642 0
M  V30 2471 N 248.138 -6.67806 -1.8441 0
M  V30 2472 N 249.931 -5.36923 -1.66342 0
M  V30 2473 H 242.082 -2.08555 0.402328 0
M  V30 2474 H 244.345 -0.940654 0.117789 0
M  V30 2475 H 244.051 -3.51353 -0.156204 0
M  V30 2476 H 243.925 -3.26508 -1.88871 0
M  V30 2477 H 246.312 -2.27326 -1.88167 0
M  V30 2478 H 246.393 -2.55435 -0.136605 0
M  V30 2479 H 246.037 -5.04972 -0.544581 0
M  V30 2480 H 245.967 -4.73848 -2.2973 0
M  V30 2481 H 248.458 -3.55705 -1.27601 0
M  V30 2482 H 248.771 -7.46141 -2.01231 0
M  V30 2483 H 247.116 -6.70843 -1.81644 0
M  V30 2484 H 250.307 -4.43381 -1.50102 0
M  V30 2485 H 250.48 -6.21416 -1.837 0
M  V30 2486 N 243.887 0.651787 -1.4349 0
M  V30 2487 C 245.136 1.40754 -1.44469 0
M  V30 2488 C 245.449 1.95463 -0.0731845 0
M  V30 2489 O 246.655 2.71471 0.0395721 0
M  V30 2490 C 245.111 2.54735 -2.5424 0
M  V30 2491 C 244.719 2.06628 -3.97504 0
M  V30 2492 C 246.463 3.32092 -2.64414 0
M  V30 2493 C 244.37 3.17829 -4.98737 0
M  V30 2494 H 243.3 0.528862 -0.53742 0
M  V30 2495 H 245.951 0.703365 -1.69485 0
M  V30 2496 H 244.333 3.2763 -2.22428 0
M  V30 2497 H 245.507 1.40734 -4.38783 0
M  V30 2498 H 243.822 1.42146 -3.91387 0
M  V30 2499 H 246.419 4.14952 -3.37223 0
M  V30 2500 H 246.762 3.80217 -1.69532 0
M  V30 2501 H 247.295 2.66279 -2.95534 0
M  V30 2502 H 244.034 2.74671 -5.95177 0
M  V30 2503 H 243.554 3.82429 -4.62069 0
M  V30 2504 H 245.233 3.82937 -5.21505 0
M  V30 2505 N 245.365 1.30045 0.890287 0
M  V30 2506 C 246.297 1.11786 2.00091 0
M  V30 2507 C 247.31 0.0626307 1.62679 0
M  V30 2508 O 248.499 0.308112 1.75821 0
M  V30 2509 C 245.599 0.681527 3.31977 0
M  V30 2510 C 244.772 1.81735 3.97858 0
M  V30 2511 C 243.831 1.37045 5.08041 0
M  V30 2512 O 242.857 2.07677 5.29961 0
M  V30 2513 N 244.059 0.246525 5.79976 0
M  V30 2514 H 246.824 2.07441 2.16306 0
M  V30 2515 H 244.385 1.2211 1.06305 0
M  V30 2516 H 246.377 0.365675 4.03045 0
M  V30 2517 H 244.947 -0.182828 3.12065 0
M  V30 2518 H 244.167 2.30159 3.20032 0
M  V30 2519 H 245.455 2.57865 4.38615 0
M  V30 2520 H 244.853 -0.34215 5.64664 0
M  V30 2521 H 243.41 -0.00990438 6.51799 0
M  V30 2522 N 246.843 -1.10192 1.12674 0
M  V30 2523 C 247.753 -2.20172 0.810026 0
M  V30 2524 C 248.769 -1.72821 -0.202188 0
M  V30 2525 O 249.945 -2.01369 -0.0351691 0
M  V30 2526 C 247.01 -3.45631 0.272007 0
M  V30 2527 C 246.071 -4.07704 1.34447 0
M  V30 2528 C 245.304 -5.27175 0.832029 0
M  V30 2529 O 245.527 -5.69425 -0.333284 0
M  V30 2530 O 244.461 -5.80168 1.60277 0
M  V30 2531 H 248.287 -2.49701 1.72867 0
M  V30 2532 H 245.872 -1.18977 0.903597 0
M  V30 2533 H 247.754 -4.21394 -0.0230219 0
M  V30 2534 H 246.429 -3.17723 -0.619164 0
M  V30 2535 H 245.336 -3.33614 1.6927 0
M  V30 2536 H 246.669 -4.3982 2.2095 0
M  V30 2537 N 248.321 -0.919034 -1.28029 0
M  V30 2538 C 249.569 -0.553838 -1.94363 0
M  V30 2539 C 249.89 0.906357 -1.72656 0
M  V30 2540 O 249.16 1.64143 -1.0693 0
M  V30 2541 H 247.74 -0.201834 -0.719216 0
M  V30 2542 H 250.402 -1.16954 -1.55909 0
M  V30 2543 H 249.498 -0.752758 -3.02886 0
M  V30 2544 N 249.799 1.42003 -0.683588 0
M  V30 2545 C 251.045 2.01712 -0.209825 0
M  V30 2546 C 251.378 1.53968 1.18353 0
M  V30 2547 O 250.653 0.745661 1.79639 0
M  V30 2548 C 250.936 3.59202 -0.254197 0
M  V30 2549 C 250.789 4.17102 -1.68363 0
M  V30 2550 C 252.108 4.38344 0.392709 0
M  V30 2551 H 249.227 0.732891 -0.0777189 0
M  V30 2552 H 251.869 1.68909 -0.87004 0
M  V30 2553 H 250.019 3.87278 0.307954 0
M  V30 2554 H 251.691 3.99946 -2.29871 0
M  V30 2555 H 249.934 3.72597 -2.22157 0
M  V30 2556 H 250.605 5.26249 -1.6663 0
M  V30 2557 H 253.081 4.16011 -0.0859162 0
M  V30 2558 H 251.957 5.47901 0.331063 0
M  V30 2559 H 252.218 4.16887 1.47164 0
M  V30 2560 N 251.277 0.427512 1.51691 0
M  V30 2561 C 252.187 -0.39527 2.31246 0
M  V30 2562 C 253.203 -1.03674 1.39742 0
M  V30 2563 O 254.379 -1.03425 1.72816 0
M  V30 2564 C 251.444 -1.48706 3.13189 0
M  V30 2565 C 250.505 -0.866743 4.20459 0
M  V30 2566 C 249.738 -1.90651 4.98486 0
M  V30 2567 O 249.961 -3.12733 4.77026 0
M  V30 2568 O 248.895 -1.5025 5.82845 0
M  V30 2569 H 252.721 0.253918 3.02637 0
M  V30 2570 H 250.306 0.190274 1.48183 0
M  V30 2571 H 252.188 -2.12047 3.64162 0
M  V30 2572 H 250.863 -2.12051 2.44573 0
M  V30 2573 H 249.77 -0.195544 3.73589 0
M  V30 2574 H 251.103 -0.276934 4.9142 0
M  V30 2575 N 252.755 -1.56801 0.158532 0
M  V30 2576 C 253.98 -2.01295 -0.499516 0
M  V30 2577 C 254.405 -1.03799 -1.56867 0
M  V30 2578 O 253.763 -0.0155162 -1.81293 0
M  V30 2579 C 253.811 -3.44469 -1.06647 0
M  V30 2580 O 252.915 -3.50012 -2.18095 0
M  V30 2581 H 252.256 -0.652884 -0.12099 0
M  V30 2582 H 254.786 -2.02958 0.258661 0
M  V30 2583 H 254.796 -3.8351 -1.39227 0
M  V30 2584 H 253.471 -4.14932 -0.283581 0
M  V30 2585 H 252.048 -3.22822 -1.86656 0
M  V30 2586 N 254.233 0.115231 -1.57178 0
M  V30 2587 C 255.163 1.1423 -2.03651 0
M  V30 2588 C 256.144 1.42967 -0.921655 0
M  V30 2589 O 257.329 1.53343 -1.19162 0
M  V30 2590 C 254.459 2.4675 -2.44401 0
M  V30 2591 C 253.413 2.32467 -3.59365 0
M  V30 2592 C 252.739 3.69984 -3.86026 0
M  V30 2593 C 254.039 1.78203 -4.90959 0
M  V30 2594 H 255.733 0.755749 -2.89705 0
M  V30 2595 H 253.279 0.362093 -1.39373 0
M  V30 2596 H 255.232 3.18854 -2.75517 0
M  V30 2597 H 253.956 2.87302 -1.55322 0
M  V30 2598 H 252.615 1.62811 -3.28463 0
M  V30 2599 H 252.263 4.08028 -2.94147 0
M  V30 2600 H 251.963 3.61279 -4.63412 0
M  V30 2601 H 253.487 4.43587 -4.19599 0
M  V30 2602 H 254.901 2.40128 -5.20587 0
M  V30 2603 H 253.298 1.8031 -5.72371 0
M  V30 2604 H 254.368 0.739876 -4.79222 0
M  V30 2605 N 255.711 1.52812 0.385517 0
M  V30 2606 C 256.674 1.77188 1.45386 0
M  V30 2607 C 257.674 0.641953 1.4743 0
M  V30 2608 O 258.864 0.910033 1.4854 0
M  V30 2609 C 255.996 1.87582 2.8465 0
M  V30 2610 H 257.189 2.72583 1.25054 0
M  V30 2611 H 254.742 1.43586 0.617467 0
M  V30 2612 H 255.477 0.941849 3.10322 0
M  V30 2613 H 255.262 2.69748 2.84567 0
M  V30 2614 H 256.752 2.08102 3.62054 0
M  V30 2615 N 257.189 -0.644168 1.43834 0
M  V30 2616 C 258.437 -1.40117 1.45642 0
M  V30 2617 C 258.758 -1.94814 0.0852413 0
M  V30 2618 O 258.028 -1.74988 -0.880688 0
M  V30 2619 H 256.608 -0.52005 0.536243 0
M  V30 2620 H 259.27 -0.7591 1.7951 0
M  V30 2621 H 258.366 -2.23902 2.17427 0
M  V30 2622 N 258.668 -1.30515 -0.883378 0
M  V30 2623 C 259.898 -1.22182 -1.66599 0
M  V30 2624 C 260.306 0.217507 -1.87946 0
M  V30 2625 O 259.649 1.1554 -1.42815 0
M  V30 2626 C 259.711 -1.88146 -3.06335 0
M  V30 2627 C 259.375 -3.37476 -3.08154 0
M  V30 2628 C 260.372 -4.33443 -2.87094 0
M  V30 2629 C 258.057 -3.7895 -3.29701 0
M  V30 2630 C 260.051 -5.68858 -2.8754 0
M  V30 2631 C 257.738 -5.14482 -3.29776 0
M  V30 2632 C 258.736 -6.09246 -3.0872 0
M  V30 2633 O 258.424 -7.42302 -3.08615 0
M  V30 2634 H 258.156 -0.423898 -0.52658 0
M  V30 2635 H 260.71 -1.72703 -1.11188 0
M  V30 2636 H 258.94 -1.32157 -3.63416 0
M  V30 2637 H 260.629 -1.7391 -3.66756 0
M  V30 2638 H 261.395 -4.02733 -2.70243 0
M  V30 2639 H 257.274 -3.05631 -3.45124 0
M  V30 2640 H 260.818 -6.428 -2.71024 0
M  V30 2641 H 256.715 -5.44832 -3.46163 0
M  V30 2642 H 257.483 -7.5131 -3.24769 0
M  V30 2643 N 260.146 1.09593 -1.13257 0
M  V30 2644 C 261.109 2.14359 -0.811358 0
M  V30 2645 C 262.109 1.59808 0.178377 0
M  V30 2646 O 263.299 1.74132 -0.0484911 0
M  V30 2647 C 260.431 3.40269 -0.207276 0
M  V30 2648 H 261.624 2.44284 -1.73969 0
M  V30 2649 H 259.177 1.25102 -0.936973 0
M  V30 2650 H 259.912 3.15969 0.73036 0
M  V30 2651 H 259.697 3.81154 -0.919992 0
M  V30 2652 H 261.187 4.176 0.000667944 0
M  V30 2653 N 261.624 0.925811 1.2754 0
M  V30 2654 C 262.901 0.483726 1.89524 0
M  V30 2655 C 263.281 -1.03809 1.83812 0
M  V30 2656 O 262.629 -1.89143 1.28207 0
M  V30 2657 C 262.839 1.02769 3.33526 0
M  V30 2658 C 264.187 1.08703 4.10449 0
M  V30 2659 O 265.211 0.977175 3.42534 0
M  V30 2660 O 264.07 1.25599 5.31871 0
M  V30 2661 H 261.164 0.15529 0.812289 0
M  V30 2662 H 263.71 1.01738 1.35822 0
M  V30 2663 H 262.482 2.07155 3.31967 0
M  V30 2664 H 262.105 0.475567 3.94746 0
M  V30 2665 N 263.102 -1.41638 0.69111 0
M  V30 2666 C 264.351 -2.00526 0.217318 0
M  V30 2667 C 264.664 -1.55353 -1.18848 0
M  V30 2668 O 265.87 -2.06769 -1.75951 0
M  V30 2669 C 264.326 -3.58313 0.337639 0
M  V30 2670 C 263.934 -4.12469 1.74852 0
M  V30 2671 C 265.678 -4.24431 -0.0766066 0
M  V30 2672 C 263.585 -5.62675 1.82074 0
M  V30 2673 H 262.515 -0.750008 0.0774893 0
M  V30 2674 H 265.166 -1.6217 0.858661 0
M  V30 2675 H 263.548 -3.9425 -0.371879 0
M  V30 2676 H 264.722 -3.8796 2.48644 0
M  V30 2677 H 263.037 -3.58861 2.11205 0
M  V30 2678 H 265.634 -5.34683 -0.0430284 0
M  V30 2679 H 265.977 -4.01101 -1.1146 0
M  V30 2680 H 266.51 -3.93512 0.582476 0
M  V30 2681 H 263.249 -5.90826 2.83911 0
M  V30 2682 H 262.769 -5.89124 1.12661 0
M  V30 2683 H 264.448 -6.27371 1.58159 0
M  V30 2684 N 264.58 -0.43555 -1.51462 0
M  V30 2685 C 265.827 0.131514 -2.02072 0
M  V30 2686 C 266.155 1.42868 -1.31981 0
M  V30 2687 O 265.41 1.91076 -0.422883 0
M  V30 2688 C 265.709 0.39942 -3.55161 0
M  V30 2689 C 265.375 -0.81172 -4.43533 0
M  V30 2690 C 264.037 -1.14387 -4.67407 0
M  V30 2691 C 266.389 -1.61976 -4.95392 0
M  V30 2692 C 263.717 -2.28477 -5.40384 0
M  V30 2693 C 266.069 -2.75164 -5.6962 0
M  V30 2694 C 264.733 -3.08835 -5.91758 0
M  V30 2695 H 264.003 0.0481244 -0.739436 0
M  V30 2696 H 266.65 -0.58238 -1.8243 0
M  V30 2697 H 264.955 1.19519 -3.73125 0
M  V30 2698 H 266.652 0.85157 -3.91854 0
M  V30 2699 H 263.242 -0.542898 -4.25148 0
M  V30 2700 H 267.426 -1.37637 -4.76833 0
M  V30 2701 H 262.682 -2.5488 -5.55739 0
M  V30 2702 H 266.856 -3.38147 -6.08793 0
M  V30 2703 H 264.483 -3.97353 -6.48086 0
M  V30 2704 N 266.058 1.56714 -0.166846 0
M  V30 2705 C 266.988 2.20754 0.760913 0
M  V30 2706 C 267.969 1.16178 1.24244 0
M  V30 2707 O 269.154 1.44592 1.29641 0
M  V30 2708 C 266.284 2.84478 1.99223 0
M  V30 2709 C 265.238 3.95053 1.64672 0
M  V30 2710 C 264.564 4.45805 2.95232 0
M  V30 2711 C 265.864 5.14865 0.878155 0
M  V30 2712 H 267.558 2.98537 0.22713 0
M  V30 2713 H 265.104 1.43596 0.107805 0
M  V30 2714 H 267.057 3.27951 2.64624 0
M  V30 2715 H 265.781 2.04056 2.55007 0
M  V30 2716 H 264.44 3.52228 1.01641 0
M  V30 2717 H 264.088 3.62181 3.49047 0
M  V30 2718 H 263.788 5.204 2.7287 0
M  V30 2719 H 265.312 4.91962 3.6167 0
M  V30 2720 H 266.726 5.55059 1.43466 0
M  V30 2721 H 265.123 5.95348 0.753738 0
M  V30 2722 H 266.193 4.84735 -0.126377 0
M  V30 2723 N 267.536 -0.106894 1.57237 0
M  V30 2724 C 268.952 -0.46078 1.52804 0
M  V30 2725 C 269.152 -1.81184 0.881746 0
M  V30 2726 O 268.208 -2.48102 0.469224 0
M  V30 2727 C 269.521 -0.434127 2.9755 0
M  V30 2728 C 271.069 -0.516821 3.08704 0
M  V30 2729 C 271.544 -0.520436 4.55033 0
M  V30 2730 N 273.035 -0.58153 4.59535 0
M  V30 2731 C 273.77 -0.605973 5.70189 0
M  V30 2732 N 273.266 -0.587331 6.90306 0
M  V30 2733 N 275.059 -0.649895 5.5833 0
M  V30 2734 H 267.21 0.778203 1.9763 0
M  V30 2735 H 269.473 0.288403 0.903066 0
M  V30 2736 H 269.179 0.491197 3.48253 0
M  V30 2737 H 269.053 -1.25748 3.55622 0
M  V30 2738 H 271.44 -1.43256 2.57995 0
M  V30 2739 H 271.521 0.334449 2.53604 0
M  V30 2740 H 271.165 0.391313 5.0639 0
M  V30 2741 H 271.095 -1.38876 5.07958 0
M  V30 2742 H 273.586 -0.60161 3.73081 0
M  V30 2743 H 273.899 -0.60894 7.70397 0
M  V30 2744 H 272.244 -0.554564 6.92784 0
M  V30 2745 H 275.435 -0.661907 4.63397 0
M  V30 2746 H 275.608 -0.665476 6.44574 0
M  V30 2747 N 269.014 -1.53014 -0.377408 0
M  V30 2748 C 269.962 -1.7927 -1.48206 0
M  V30 2749 C 270.956 -0.661195 -1.55963 0
M  V30 2750 O 272.162 -0.843908 -1.58991 0
M  V30 2751 H 268.537 -0.567425 -0.493491 0
M  V30 2752 H 270.508 -2.71753 -1.2326 0
M  V30 2753 C 269.257 -1.98894 -2.85196 0
M  V30 2754 H 268.58 -2.85395 -2.79981 0
M  V30 2755 H 270.02 -2.21249 -3.61698 0
M  V30 2756 C 268.479 -0.764691 -3.28107 0
M  V30 2757 O 269.009 0.0523226 -4.01666 0
M  V30 2758 N 267.215 -0.591493 -2.84517 0
M  V30 2759 H 266.762 -1.25749 -2.24822 0
M  V30 2760 H 266.72 0.226253 -3.13585 0
M  V30 2761 N 270.492 0.636531 -1.44174 0
M  V30 2762 C 271.738 1.39826 -1.4689 0
M  V30 2763 C 272.071 1.93947 -0.0990585 0
M  V30 2764 O 271.346 1.73325 0.882544 0
M  V30 2765 C 271.629 2.56751 -2.5249 0
M  V30 2766 C 271.482 2.08014 -3.98811 0
M  V30 2767 C 272.801 3.58946 -2.54649 0
M  V30 2768 H 269.92 0.507075 -0.53483 0
M  V30 2769 H 272.562 0.720188 -1.75822 0
M  V30 2770 H 270.712 3.14597 -2.2795 0
M  V30 2771 H 272.384 1.5504 -4.34466 0
M  V30 2772 H 270.627 1.39242 -4.10846 0
M  V30 2773 H 271.298 2.92169 -4.68339 0
M  V30 2774 H 273.774 3.1089 -2.76563 0
M  V30 2775 H 272.65 4.38286 -3.3045 0
M  V30 2776 H 272.911 4.12655 -1.58646 0
M  V30 2777 N 271.97 1.30982 0.876444 0
M  V30 2778 C 273.198 1.23242 1.6619 0
M  V30 2779 C 273.613 -0.203345 1.87702 0
M  V30 2780 O 272.97 -1.13317 1.43057 0
M  V30 2781 C 273.021 1.96623 3.03351 0
M  V30 2782 O 272.742 3.34594 2.82804 0
M  V30 2783 C 274.243 1.95644 3.97792 0
M  V30 2784 H 271.463 0.426126 0.518322 0
M  V30 2785 H 274.007 1.7275 1.09442 0
M  V30 2786 H 272.162 1.50892 3.56806 0
M  V30 2787 H 272.576 3.71873 3.69879 0
M  V30 2788 H 274.05 2.51511 4.91372 0
M  V30 2789 H 274.527 0.937395 4.2908 0
M  V30 2790 H 275.133 2.41225 3.50272 0
M  V30 2791 N 273.449 -1.08991 1.13837 0
M  V30 2792 C 274.412 -2.13925 0.822715 0
M  V30 2793 C 275.412 -1.599 -0.1699 0
M  V30 2794 O 276.602 -1.74104 0.0577251 0
M  V30 2795 C 273.734 -3.40155 0.225318 0
M  V30 2796 H 274.927 -2.43358 1.75262 0
M  V30 2797 H 272.48 -1.24603 0.943594 0
M  V30 2798 H 273.215 -3.16352 -0.713594 0
M  V30 2799 H 273 -3.80661 0.940193 0
M  V30 2800 H 274.49 -4.17594 0.0214784 0
M  V30 2801 N 274.927 -0.932562 -1.27047 0
M  V30 2802 C 276.152 -0.591474 -1.98787 0
M  V30 2803 C 276.577 0.824601 -1.69062 0
M  V30 2804 O 275.935 1.5541 -0.933677 0
M  V30 2805 C 275.983 -0.829808 -3.50922 0
M  V30 2806 O 275.087 0.102266 -4.12273 0
M  V30 2807 H 274.428 -0.227185 -0.623926 0
M  V30 2808 H 276.958 -1.25314 -1.61733 0
M  V30 2809 H 276.968 -0.747292 -4.01098 0
M  V30 2810 H 275.643 -1.86201 -3.7189 0
M  V30 2811 H 274.22 -0.0305761 -3.72887 0
M  V30 2812 N 276.405 1.4127 -0.698611 0
M  V30 2813 C 277.653 2.00782 -0.230409 0
M  V30 2814 C 277.974 1.5562 1.17505 0
M  V30 2815 O 277.244 0.78815 1.79346 0
M  V30 2816 H 275.824 0.742464 -0.0821944 0
M  V30 2817 H 278.486 1.72852 -0.90045 0
M  V30 2818 H 277.582 3.11095 -0.25021 0
M  V30 2819 N 277.883 0.443576 1.51229 0
M  V30 2820 C 279.129 -0.120975 2.02439 0
M  V30 2821 C 279.462 -1.41815 1.32674 0
M  V30 2822 O 278.737 -1.89373 0.443622 0
M  V30 2823 C 279.02 -0.333291 3.58554 0
M  V30 2824 C 278.873 0.982968 4.38928 0
M  V30 2825 C 280.192 -1.10028 4.26124 0
M  V30 2826 H 277.311 -0.0424923 0.735774 0
M  V30 2827 H 279.953 0.583794 1.80809 0
M  V30 2828 H 278.103 -0.933614 3.77115 0
M  V30 2829 H 279.775 1.61775 4.32003 0
M  V30 2830 H 278.018 1.58611 4.03763 0
M  V30 2831 H 278.689 0.788379 5.46341 0
M  V30 2832 H 281.165 -0.591711 4.11871 0
M  V30 2833 H 280.041 -1.21761 5.35225 0
M  V30 2834 H 280.302 -2.12996 3.87408 0
M  V30 2835 N 279.361 -1.56624 0.175154 0
M  V30 2836 C 280.61 -1.96173 -0.468921 0
M  V30 2837 C 280.923 -1.06401 -1.64128 0
M  V30 2838 O 282.129 -1.35648 -2.35185 0
M  V30 2839 C 280.585 -3.48833 -0.885633 0
M  V30 2840 C 280.193 -4.47237 0.261343 0
M  V30 2841 C 281.937 -3.97194 -1.49791 0
M  V30 2842 C 279.844 -5.9114 -0.175214 0
M  V30 2843 H 278.774 -0.732455 -0.178958 0
M  V30 2844 H 281.425 -1.81591 0.263997 0
M  V30 2845 H 279.807 -3.58848 -1.67464 0
M  V30 2846 H 280.981 -4.4894 1.03871 0
M  V30 2847 H 279.296 -4.08956 0.783827 0
M  V30 2848 H 281.893 -5.02167 -1.83665 0
M  V30 2849 H 282.236 -3.40351 -2.39722 0
M  V30 2850 H 282.769 -3.90212 -0.773267 0
M  V30 2851 H 279.508 -6.51865 0.689414 0
M  V30 2852 H 279.028 -5.92735 -0.91786 0
M  V30 2853 H 280.707 -6.44044 -0.617792 0
M  V30 2854 N 280.839 0.0985539 -1.57292 0
M  V30 2855 C 282.25 0.653457 -1.74891 0
M  V30 2856 C 282.601 1.7929 -0.796838 0
M  V30 2857 O 281.726 2.16385 0.0254886 0
M  V30 2858 C 282.321 1.19216 -3.17133 0
M  V30 2859 C 280.88 1.69316 -3.36168 0
M  V30 2860 C 280.027 0.601294 -2.70702 0
M  V30 2861 H 282.978 -0.127497 -1.58187 0
M  V30 2862 H 282.999 2.06154 -3.19814 0
M  V30 2863 H 282.511 0.362635 -3.86402 0
M  V30 2864 H 280.612 2.5468 -2.71972 0
M  V30 2865 H 280.725 1.78853 -4.44464 0
M  V30 2866 H 279.089 1.0399 -2.32504 0
M  V30 2867 H 279.872 -0.217592 -3.4261 0
M  V30 2868 N 282.317 1.53212 0.369288 0
M  V30 2869 C 283.249 1.75668 1.47219 0
M  V30 2870 C 284.262 0.637387 1.49804 0
M  V30 2871 O 285.451 0.913561 1.5335 0
M  V30 2872 C 282.551 1.81818 2.85999 0
M  V30 2873 C 281.724 3.11409 3.07153 0
M  V30 2874 C 280.783 3.08849 4.26026 0
M  V30 2875 O 279.809 3.82659 4.2138 0
M  V30 2876 N 281.011 2.29409 5.33246 0
M  V30 2877 H 283.776 2.70832 1.28337 0
M  V30 2878 H 281.337 1.51944 0.55898 0
M  V30 2879 H 283.329 1.77588 3.63655 0
M  V30 2880 H 281.899 0.939544 2.98146 0
M  V30 2881 H 281.119 3.28971 2.1719 0
M  V30 2882 H 282.407 3.97059 3.18154 0
M  V30 2883 H 281.805 1.68946 5.39883 0
M  V30 2884 H 280.362 2.31001 6.09493 0
M  V30 2885 N 283.795 -0.628877 1.44509 0
M  V30 2886 C 285.044 -1.38437 1.4669 0
M  V30 2887 C 285.357 -1.95322 0.104272 0
M  V30 2888 O 286.563 -2.715 0.00362163 0
M  V30 2889 C 285.019 -2.50659 2.5826 0
M  V30 2890 C 284.627 -2.00277 4.0074 0
M  V30 2891 C 286.371 -3.27844 2.69664 0
M  V30 2892 C 284.278 -3.09854 5.0373 0
M  V30 2893 H 283.208 -0.520245 0.545766 0
M  V30 2894 H 285.859 -0.676313 1.70582 0
M  V30 2895 H 284.241 -3.2405 2.27612 0
M  V30 2896 H 285.415 -1.33736 4.40966 0
M  V30 2897 H 283.73 -1.35901 3.93599 0
M  V30 2898 H 286.327 -4.09534 3.43781 0
M  V30 2899 H 286.67 -3.77471 1.75559 0
M  V30 2900 H 287.203 -2.61543 2.99733 0
M  V30 2901 H 283.942 -2.65168 5.99472 0
M  V30 2902 H 283.462 -3.7503 4.68095 0
M  V30 2903 H 285.141 -3.74592 5.27532 0
M  V30 2904 N 285.273 -1.31445 -0.869486 0
M  V30 2905 C 286.498 -1.24256 -1.66058 0
M  V30 2906 C 286.923 0.188928 -1.87149 0
M  V30 2907 O 286.281 1.13522 -1.4136 0
M  V30 2908 C 286.329 -1.9924 -3.00559 0
M  V30 2909 O 285.433 -1.33007 -3.90362 0
M  V30 2910 H 284.774 -0.428973 -0.506831 0
M  V30 2911 H 287.304 -1.73521 -1.08404 0
M  V30 2912 H 287.314 -2.08854 -3.50491 0
M  V30 2913 H 285.989 -3.03342 -2.84528 0
M  V30 2914 H 284.566 -1.31848 -3.48813 0
M  V30 2915 N 286.751 1.08385 -1.14413 0
M  V30 2916 C 287.681 2.17321 -0.854044 0
M  V30 2917 C 288.662 1.69024 0.191049 0
M  V30 2918 O 289.847 1.94141 0.0476779 0
M  V30 2919 C 286.977 3.45719 -0.330983 0
M  V30 2920 C 285.931 4.07409 -1.31155 0
M  V30 2921 C 285.257 5.30762 -0.64778 0
M  V30 2922 C 286.557 4.48665 -2.67388 0
M  V30 2923 H 288.251 2.41845 -1.76498 0
M  V30 2924 H 285.797 1.16233 -0.850051 0
M  V30 2925 H 287.75 4.21241 -0.115645 0
M  V30 2926 H 286.474 3.2075 0.615381 0
M  V30 2927 H 285.133 3.33919 -1.51306 0
M  V30 2928 H 284.781 5.02078 0.304398 0
M  V30 2929 H 284.481 5.72992 -1.30207 0
M  V30 2930 H 286.005 6.08998 -0.441972 0
M  V30 2931 H 287.419 5.15364 -2.51143 0
M  V30 2932 H 285.816 5.01814 -3.29093 0
M  V30 2933 H 286.886 3.60543 -3.24248 0
M  V30 2934 N 288.23 0.939286 1.26551 0
M  V30 2935 C 289.479 0.581601 1.93133 0
M  V30 2936 C 289.792 -0.883224 1.74524 0
M  V30 2937 O 290.998 -1.3502 2.35546 0
M  V30 2938 C 289.454 0.989425 3.46032 0
M  V30 2939 C 289.062 2.47573 3.73379 0
M  V30 2940 C 290.806 0.703544 4.18629 0
M  V30 2941 C 288.713 2.82235 5.19709 0
M  V30 2942 H 287.643 0.213803 0.723052 0
M  V30 2943 H 290.294 1.14167 1.4366 0
M  V30 2944 H 288.676 0.357902 3.94379 0
M  V30 2945 H 289.85 3.15614 3.35744 0
M  V30 2946 H 288.165 2.73471 3.1401 0
M  V30 2947 H 290.762 0.938869 5.26393 0
M  V30 2948 H 291.105 -0.359639 4.14744 0
M  V30 2949 H 291.638 1.2947 3.76141 0
M  V30 2950 H 288.377 3.87509 5.28694 0
M  V30 2951 H 287.897 2.18854 5.58447 0
M  V30 2952 H 289.576 2.70599 5.87695 0
M  V30 2953 N 289.708 -1.40897 0.706093 0
M  V30 2954 C 290.641 -2.282 -0.00328781 0
M  V30 2955 C 291.619 -1.42816 -0.77732 0
M  V30 2956 O 292.803 -1.72237 -0.765944 0
M  V30 2957 C 289.93 -3.23226 -1.01205 0
M  V30 2958 C 288.976 -4.25222 -0.329955 0
M  V30 2959 S 289.809 -5.27269 0.935298 0
M  V30 2960 C 290.965 -6.25859 -0.0716061 0
M  V30 2961 H 291.198 -2.88016 0.737143 0
M  V30 2962 H 288.731 -1.46191 0.496756 0
M  V30 2963 H 290.689 -3.78503 -1.58888 0
M  V30 2964 H 289.35 -2.62485 -1.72513 0
M  V30 2965 H 288.543 -4.92023 -1.09221 0
M  V30 2966 H 288.145 -3.73595 0.174069 0
M  V30 2967 H 290.437 -6.71204 -0.921521 0
M  V30 2968 H 291.38 -7.0586 0.562765 0
M  V30 2969 H 291.788 -5.62852 -0.431088 0
M  V30 2970 N 291.186 -0.45159 -1.50991 0
M  V30 2971 C 292.434 0.109857 -2.01801 0
M  V30 2972 C 292.755 1.41958 -1.3369 0
M  V30 2973 O 292.025 1.9003 -0.475951 0
M  V30 2974 H 290.605 0.0435884 -0.745727 0
M  V30 2975 H 293.267 -0.597557 -1.85514 0
M  V30 2976 H 292.363 0.275489 -3.10882 0
M  V30 2977 N 292.664 1.56529 -0.183458 0
M  V30 2978 C 294.075 1.83739 0.331177 0
M  V30 2979 C 294.426 1.10373 1.62211 0
M  V30 2980 O 293.551 0.36071 2.13373 0
M  V30 2981 C 294.146 3.33306 0.607646 0
M  V30 2982 C 292.705 3.60969 1.06668 0
M  V30 2983 C 291.852 2.77086 0.109029 0
M  V30 2984 H 294.803 1.53379 -0.407484 0
M  V30 2985 H 294.824 3.51444 1.45832 0
M  V30 2986 H 294.336 3.86677 -0.332086 0
M  V30 2987 H 292.437 3.13021 2.0211 0
M  V30 2988 H 292.55 4.69231 0.967447 0
M  V30 2989 H 290.914 2.47319 0.608714 0
M  V30 2990 H 291.697 3.33241 -0.82494 0
M  V30 2991 N 294.142 -0.090211 1.57342 0
M  V30 2992 C 295.382 -0.798365 1.88163 0
M  V30 2993 C 295.746 -1.75662 0.775046 0
M  V30 2994 O 296.947 -2.50849 0.965816 0
M  V30 2995 C 295.218 -1.50376 3.24225 0
M  V30 2996 S 296.777 -2.24952 3.76752 0
M  V30 2997 H 293.595 -0.265883 0.659414 0
M  V30 2998 H 296.197 -0.055264 1.95422 0
M  V30 2999 H 294.901 -0.792286 4.0268 0
M  V30 3000 H 294.432 -2.28666 3.20118 0
M  V30 3001 H 296.447 -3.51173 3.5056 0
M  V30 3002 N 295.62 -1.53406 -0.361157 0
M  V30 3003 C 296.583 -1.79479 -1.42548 0
M  V30 3004 C 297.583 -0.665327 -1.4639 0
M  V30 3005 O 298.773 -0.933549 -1.47073 0
M  V30 3006 C 295.905 -1.92087 -2.8163 0
M  V30 3007 H 297.098 -2.74538 -1.20701 0
M  V30 3008 H 294.651 -1.4455 -0.594546 0
M  V30 3009 H 295.386 -0.991099 -3.08784 0
M  V30 3010 H 295.171 -2.74241 -2.80239 0
M  V30 3011 H 296.661 -2.13836 -3.58697 0
M  V30 3012 N 297.098 0.621204 -1.44841 0
M  V30 3013 C 298.346 1.37783 -1.47852 0
M  V30 3014 C 298.667 1.94653 -0.116224 0
M  V30 3015 O 297.937 1.76367 0.852737 0
M  V30 3016 H 296.517 0.511453 -0.544449 0
M  V30 3017 H 299.179 0.730446 -1.80694 0
M  V30 3018 H 298.275 2.20414 -2.20961 0
M  V30 3019 N 298.576 1.31904 0.862503 0
M  V30 3020 C 299.824 1.21776 1.61292 0
M  V30 3021 C 300.145 -0.222413 1.93727 0
M  V30 3022 O 299.415 -1.1451 1.58947 0
M  V30 3023 H 297.995 0.447717 0.597962 0
M  V30 3024 H 300.657 1.65326 1.03215 0
M  V30 3025 H 299.753 1.7948 2.5533 0
M  V30 3026 N 300.054 -1.07777 1.14986 0
M  V30 3027 C 301.017 -2.13041 0.845358 0
M  V30 3028 C 302.017 -1.60071 -0.152931 0
M  V30 3029 O 303.207 -1.74033 0.0761879 0
M  V30 3030 C 300.339 -3.39896 0.261383 0
M  V30 3031 H 301.532 -2.41485 1.77834 0
M  V30 3032 H 299.085 -1.23595 0.956757 0
M  V30 3033 H 299.82 -3.17091 -0.68 0
M  V30 3034 H 299.605 -3.79642 0.980514 0
M  V30 3035 H 301.095 -4.17548 0.0657687 0
M  V30 3036 N 301.532 -0.945985 -1.26051 0
M  V30 3037 C 302.778 -0.597002 -1.93814 0
M  V30 3038 C 303.111 0.862484 -1.73997 0
M  V30 3039 O 302.386 1.61769 -1.07986 0
M  V30 3040 C 302.669 -0.945937 -3.47454 0
M  V30 3041 C 302.522 -2.46052 -3.76535 0
M  V30 3042 C 303.841 -0.464785 -4.37639 0
M  V30 3043 H 300.96 -0.218366 -0.703907 0
M  V30 3044 H 303.602 -1.18107 -1.48831 0
M  V30 3045 H 301.752 -0.448902 -3.85898 0
M  V30 3046 H 303.424 -3.03065 -3.47778 0
M  V30 3047 H 301.667 -2.90194 -3.22444 0
M  V30 3048 H 302.338 -2.65517 -4.83947 0
M  V30 3049 H 304.814 -0.891016 -4.06448 0
M  V30 3050 H 303.69 -0.737712 -5.4392 0
M  V30 3051 H 303.951 0.635274 -4.37512 0
M  V30 3052 N 303.011 1.40521 -0.713556 0
M  V30 3053 C 304.241 2.0494 -0.261395 0
M  V30 3054 C 304.649 1.53861 1.10107 0
M  V30 3055 O 303.992 0.689321 1.70276 0
M  V30 3056 C 304.054 3.59138 -0.161227 0
M  V30 3057 C 303.718 4.33096 -1.45865 0
M  V30 3058 C 304.715 4.61182 -2.40016 0
M  V30 3059 C 302.4 4.72043 -1.71701 0
M  V30 3060 C 304.394 5.27196 -3.58251 0
M  V30 3061 C 302.081 5.37789 -2.90218 0
M  V30 3062 C 303.079 5.65295 -3.83315 0
M  V30 3063 O 302.767 6.29683 -4.99754 0
M  V30 3064 H 302.499 0.666041 -0.115608 0
M  V30 3065 H 305.053 1.80954 -0.971849 0
M  V30 3066 H 303.283 3.81936 0.605153 0
M  V30 3067 H 304.972 4.05091 0.256105 0
M  V30 3068 H 305.738 4.31559 -2.21318 0
M  V30 3069 H 301.617 4.50003 -1.00092 0
M  V30 3070 H 305.161 5.48582 -4.30934 0
M  V30 3071 H 301.058 5.66831 -3.08825 0
M  V30 3072 H 301.826 6.4818 -4.99805 0
M  V30 3073 N 304.489 0.459591 1.5075 0
M  V30 3074 C 305.714 -0.0996819 2.0716 0
M  V30 3075 C 306.139 -1.33761 1.32249 0
M  V30 3076 O 305.497 -1.77551 0.366786 0
M  V30 3077 C 305.545 -0.378226 3.58611 0
M  V30 3078 O 304.649 -1.46081 3.85661 0
M  V30 3079 H 303.99 0.00791392 0.663953 0
M  V30 3080 H 306.52 0.647329 1.9409 0
M  V30 3081 H 306.53 -0.622135 4.03229 0
M  V30 3082 H 305.205 0.526439 4.12555 0
M  V30 3083 H 303.782 -1.20511 3.5289 0
M  V30 3084 N 305.967 -1.56429 0.191757 0
M  V30 3085 C 307.378 -1.83912 -0.321428 0
M  V30 3086 C 307.729 -1.11231 -1.61623 0
M  V30 3087 O 306.854 -0.37202 -2.13178 0
M  V30 3088 C 307.449 -3.33624 -0.589961 0
M  V30 3089 C 306.008 -3.6153 -1.04753 0
M  V30 3090 C 305.155 -2.7714 -0.0943327 0
M  V30 3091 H 308.106 -1.53161 0.415612 0
M  V30 3092 H 308.127 -3.52213 -1.43966 0
M  V30 3093 H 307.639 -3.86495 0.352588 0
M  V30 3094 H 305.74 -3.14089 -2.00447 0
M  V30 3095 H 305.853 -4.69737 -0.942549 0
M  V30 3096 H 304.217 -2.47638 -0.595589 0
M  V30 3097 H 305 -3.32799 0.842601 0
M  V30 3098 N 307.445 0.0818655 -1.57387 0
M  V30 3099 C 308.408 1.08265 -2.02018 0
M  V30 3100 C 309.408 1.32183 -0.915664 0
M  V30 3101 O 310.598 1.28073 -1.18081 0
M  V30 3102 C 307.73 2.42871 -2.39221 0
M  V30 3103 H 308.923 0.698204 -2.91659 0
M  V30 3104 H 306.476 0.327303 -1.52835 0
M  V30 3105 H 307.211 2.86167 -1.52575 0
M  V30 3106 H 306.996 2.26855 -3.19811 0
M  V30 3107 H 308.486 3.14826 -2.74362 0
M  V30 3108 N 308.923 1.53595 0.353017 0
M  V30 3109 C 309.853 1.83902 1.43883 0
M  V30 3110 C 310.834 0.693421 1.55324 0
M  V30 3111 O 312.019 0.944452 1.69687 0
M  V30 3112 C 309.149 2.04016 2.8106 0
M  V30 3113 C 308.103 3.19814 2.84434 0
M  V30 3114 C 307.429 3.25244 4.24406 0
M  V30 3115 C 308.729 4.58133 2.50822 0
M  V30 3116 H 310.423 2.74835 1.1877 0
M  V30 3117 H 307.969 1.32242 0.569917 0
M  V30 3118 H 309.922 2.238 3.57059 0
M  V30 3119 H 308.646 1.09804 3.07588 0
M  V30 3120 H 307.305 2.9987 2.10887 0
M  V30 3121 H 306.953 2.28646 4.48029 0
M  V30 3122 H 306.653 4.03054 4.27576 0
M  V30 3123 H 308.177 3.47228 5.0226 0
M  V30 3124 H 309.591 4.77995 3.16534 0
M  V30 3125 H 307.988 5.38276 2.6529 0
M  V30 3126 H 309.058 4.62387 1.46034 0
M  V30 3127 N 310.401 -0.613514 1.45168 0
M  V30 3128 C 311.629 -1.39946 1.5239 0
M  V30 3129 C 312.044 -1.88167 0.154531 0
M  V30 3130 O 311.401 -1.61872 -0.842843 0
M  V30 3131 C 311.452 -2.60795 2.50337 0
M  V30 3132 O 311.173 -2.1458 3.81952 0
M  V30 3133 C 312.674 -3.53723 2.67198 0
M  V30 3134 H 309.894 -0.428593 0.516284 0
M  V30 3135 H 312.438 -0.748753 1.903 0
M  V30 3136 H 310.593 -3.21919 2.15515 0
M  V30 3137 H 311.007 -2.93055 4.34993 0
M  V30 3138 H 312.481 -4.35079 3.39721 0
M  V30 3139 H 312.958 -4.0368 1.73029 0
M  V30 3140 H 313.564 -2.98456 3.02992 0
M  V30 3141 N 311.879 -1.3236 -0.855495 0
M  V30 3142 C 313.156 -1.13491 -1.59309 0
M  V30 3143 C 313.536 0.30503 -2.08885 0
M  V30 3144 O 312.884 1.30151 -1.87811 0
M  V30 3145 C 313.094 -2.16176 -2.73987 0
M  V30 3146 C 314.442 -2.49463 -3.43589 0
M  V30 3147 O 315.466 -2.14715 -2.84211 0
M  V30 3148 O 314.325 -3.09027 -4.50738 0
M  V30 3149 H 311.419 -0.437887 -0.701559 0
M  V30 3150 H 313.965 -1.43887 -0.899696 0
M  V30 3151 H 312.737 -3.1297 -2.34873 0
M  V30 3152 H 312.36 -1.86769 -3.51003 0
M  V30 3153 N 313.357 1.07166 -1.15556 0
M  V30 3154 C 314.604 1.79798 -0.931604 0
M  V30 3155 C 314.932 1.8682 0.54115 0
M  V30 3156 O 314.187 1.34942 1.41736 0
M  V30 3157 C 314.486 3.24707 -1.49332 0
M  V30 3158 C 314.152 3.37781 -2.98688 0
M  V30 3159 C 312.814 3.41057 -3.39461 0
M  V30 3160 C 315.166 3.40424 -3.94665 0
M  V30 3161 C 312.494 3.4458 -4.74849 0
M  V30 3162 C 314.846 3.45485 -5.29927 0
M  V30 3163 C 313.51 3.47039 -5.70193 0
M  V30 3164 H 312.78 0.657928 -0.340898 0
M  V30 3165 H 315.427 1.26091 -1.44129 0
M  V30 3166 H 313.732 3.81208 -0.904859 0
M  V30 3167 H 315.429 3.79486 -1.29582 0
M  V30 3168 H 312.019 3.35932 -2.66172 0
M  V30 3169 H 316.203 3.37113 -3.64237 0
M  V30 3170 H 311.459 3.44083 -5.05388 0
M  V30 3171 H 315.633 3.46476 -6.04092 0
M  V30 3172 H 313.26 3.49522 -6.75084 0
M  V30 3173 N 314.835 0.952656 1.25548 0
M  V30 3174 C 316.063 0.623496 1.97282 0
M  V30 3175 C 316.478 -0.803987 1.70826 0
M  V30 3176 O 315.835 -1.53755 0.983147 0
M  V30 3177 C 315.886 0.870209 3.5087 0
M  V30 3178 O 315.607 2.24156 3.76412 0
M  V30 3179 C 317.108 0.553164 4.39835 0
M  V30 3180 H 314.328 0.233931 0.628902 0
M  V30 3181 H 316.872 1.27649 1.59768 0
M  V30 3182 H 315.027 0.263652 3.86502 0
M  V30 3183 H 315.441 2.31021 4.70882 0
M  V30 3184 H 316.915 0.776342 5.46513 0
M  V30 3185 H 317.392 -0.512215 4.36203 0
M  V30 3186 H 317.998 1.13896 4.09766 0
M  V30 3187 N 316.313 -1.40141 0.720998 0
M  V30 3188 C 317.56 -2.00787 0.262842 0
M  V30 3189 C 317.888 -1.5718 -1.14563 0
M  V30 3190 O 317.143 -0.785391 -1.79249 0
M  V30 3191 C 317.442 -3.56165 0.296892 0
M  V30 3192 C 317.108 -4.19373 1.65641 0
M  V30 3193 C 315.77 -4.36352 2.02855 0
M  V30 3194 C 318.122 -4.54578 2.54968 0
M  V30 3195 C 315.45 -4.8582 3.28931 0
M  V30 3196 C 317.802 -5.05447 3.80402 0
M  V30 3197 C 316.466 -5.20635 4.17726 0
M  V30 3198 H 315.736 -0.734731 0.0961807 0
M  V30 3199 H 318.383 -1.67673 0.925093 0
M  V30 3200 H 316.688 -3.8922 -0.448932 0
M  V30 3201 H 318.385 -4.00929 -0.0755208 0
M  V30 3202 H 314.975 -4.06549 1.35704 0
M  V30 3203 H 319.159 -4.41091 2.27491 0
M  V30 3204 H 314.415 -4.95764 3.57811 0
M  V30 3205 H 318.589 -5.31663 4.49786 0
M  V30 3206 H 316.216 -5.58728 5.15487 0
M  V30 3207 N 317.792 -0.46758 -1.50504 0
M  V30 3208 C 318.725 0.374324 -2.25109 0
M  V30 3209 C 319.703 0.99921 -1.28275 0
M  V30 3210 O 320.887 1.03583 -1.57489 0
M  V30 3211 C 318.014 1.52419 -3.02467 0
M  V30 3212 C 317.06 1.01702 -4.14197 0
M  V30 3213 S 317.893 -0.0654477 -5.3546 0
M  V30 3214 C 319.049 1.08837 -6.16365 0
M  V30 3215 H 319.282 -0.258983 -2.9617 0
M  V30 3216 H 316.815 -0.252421 -1.52323 0
M  V30 3217 H 318.773 2.18322 -3.47628 0
M  V30 3218 H 317.434 2.129 -2.30938 0
M  V30 3219 H 316.627 1.87776 -4.67714 0
M  V30 3220 H 316.229 0.435757 -3.71453 0
M  V30 3221 H 318.521 2.00071 -6.47285 0
M  V30 3222 H 319.464 0.592538 -7.05616 0
M  V30 3223 H 319.872 1.34061 -5.4835 0
M  V30 3224 N 319.27 1.56325 -0.20005 0
M  V30 3225 C 320.516 1.98012 0.438059 0
M  V30 3226 C 320.849 1.08702 1.60927 0
M  V30 3227 O 320.124 0.140064 1.93995 0
M  V30 3228 C 320.407 3.48841 0.893419 0
M  V30 3229 C 320.26 4.48928 -0.279947 0
M  V30 3230 C 321.579 4.03498 1.75719 0
M  V30 3231 H 318.698 0.719918 0.157757 0
M  V30 3232 H 321.34 1.87743 -0.291968 0
M  V30 3233 H 319.49 3.57723 1.51547 0
M  V30 3234 H 321.162 4.52079 -0.91772 0
M  V30 3235 H 319.405 4.23694 -0.930919 0
M  V30 3236 H 320.076 5.5194 0.0812601 0
M  V30 3237 H 322.552 3.97427 1.23253 0
M  V30 3238 H 321.428 5.09393 2.04476 0
M  V30 3239 H 321.689 3.4906 2.71311 0
M  V30 3240 N 320.748 -0.0735177 1.57428 0
M  V30 3241 C 321.695 -1.08756 2.0357 0
M  V30 3242 C 322.665 -1.38559 0.916 0
M  V30 3243 O 323.85 -1.49656 1.18354 0
M  V30 3244 C 320.99 -2.39657 2.48311 0
M  V30 3245 C 320.103 -2.16399 3.73892 0
M  V30 3246 C 319.238 -3.40852 4.07423 0
M  V30 3247 C 318.277 -3.1295 5.2605 0
M  V30 3248 N 317.414 -4.29729 5.55228 0
M  V30 3249 H 322.254 -0.687104 2.8997 0
M  V30 3250 H 319.791 -0.327709 1.43403 0
M  V30 3251 H 321.749 -3.16081 2.72303 0
M  V30 3252 H 320.379 -2.77508 1.64891 0
M  V30 3253 H 319.431 -1.30676 3.57251 0
M  V30 3254 H 320.743 -1.91788 4.60455 0
M  V30 3255 H 319.897 -4.25671 4.32306 0
M  V30 3256 H 318.636 -3.68537 3.19425 0
M  V30 3257 H 317.641 -2.26526 5.00965 0
M  V30 3258 H 318.866 -2.86589 6.15665 0
M  V30 3259 H 316.812 -4.57448 4.70188 0
M  V30 3260 H 316.729 -4.08385 6.36206 0
M  V30 3261 H 317.997 -5.1555 5.84661 0
M  V30 3262 N 322.226 -1.5378 -0.344866 0
M  V30 3263 C 323.503 -1.61589 -1.10219 0
M  V30 3264 C 323.883 -0.436316 -2.06542 0
M  V30 3265 O 323.231 0.571543 -2.21237 0
M  V30 3266 C 323.441 -2.97602 -1.82301 0
M  V30 3267 C 324.789 -3.5291 -2.36093 0
M  V30 3268 O 325.813 -2.99768 -1.924 0
M  V30 3269 O 324.672 -4.45859 -3.16026 0
M  V30 3270 H 321.766 -0.653522 -0.506792 0
M  V30 3271 H 324.312 -1.66126 -0.346465 0
M  V30 3272 H 323.084 -3.74893 -1.12121 0
M  V30 3273 H 322.707 -2.9665 -2.64735 0
M  V30 3274 N 323.704 0.605807 -1.45491 0
M  V30 3275 C 324.932 1.39136 -1.5313 0
M  V30 3276 C 325.347 1.88082 -0.164507 0
M  V30 3277 O 324.704 1.62316 0.834247 0
M  V30 3278 C 324.755 2.59463 -2.51716 0
M  V30 3279 O 324.476 2.12551 -3.83084 0
M  V30 3280 C 325.977 3.52301 -2.6907 0
M  V30 3281 H 323.197 0.425849 -0.51855 0
M  V30 3282 H 325.741 0.73865 -1.90694 0
M  V30 3283 H 323.896 3.20772 -2.17219 0
M  V30 3284 H 324.31 2.90744 -4.36541 0
M  V30 3285 H 325.784 4.33271 -3.42024 0
M  V30 3286 H 326.261 4.02757 -1.75167 0
M  V30 3287 H 326.867 2.96845 -3.04571 0
M  V30 3288 N 325.182 1.32811 0.848464 0
M  V30 3289 C 326.407 1.26882 1.6406 0
M  V30 3290 C 326.832 -0.15913 1.87426 0
M  V30 3291 O 326.19 -1.11258 1.43148 0
M  V30 3292 C 326.238 2.03997 2.97351 0
M  V30 3293 O 325.342 1.39201 3.88197 0
M  V30 3294 H 324.683 0.436982 0.499943 0
M  V30 3295 H 327.213 1.75224 1.0563 0
M  V30 3296 H 327.223 2.14403 3.47124 0
M  V30 3297 H 325.898 3.0783 2.79666 0
M  V30 3298 H 324.475 1.37381 3.46671 0
M  V30 3299 N 326.66 -1.06551 1.16123 0
M  V30 3300 C 327.89 -1.8274 0.963838 0
M  V30 3301 C 328.298 -1.82712 -0.491228 0
M  V30 3302 O 327.641 -1.24294 -1.35265 0
M  V30 3303 C 327.703 -3.3065 1.41106 0
M  V30 3304 C 327.367 -3.54384 2.88549 0
M  V30 3305 C 328.364 -3.4765 3.86569 0
M  V30 3306 C 326.049 -3.81789 3.26408 0
M  V30 3307 C 328.043 -3.67982 5.2045 0
M  V30 3308 C 325.73 -4.01772 4.60459 0
M  V30 3309 C 326.728 -3.94866 5.57288 0
M  V30 3310 O 326.416 -4.14306 6.88916 0
M  V30 3311 H 326.148 -0.583136 0.341948 0
M  V30 3312 H 328.702 -1.35351 1.54497 0
M  V30 3313 H 326.932 -3.78887 0.773394 0
M  V30 3314 H 328.621 -3.88324 1.1815 0
M  V30 3315 H 329.387 -3.2647 3.58667 0
M  V30 3316 H 325.266 -3.86276 2.51619 0
M  V30 3317 H 328.81 -3.62507 5.96015 0
M  V30 3318 H 324.707 -4.2244 4.88072 0
M  V30 3319 H 325.475 -4.31609 6.95454 0
M  V30 3320 N 328.138 -0.959301 -1.25041 0
M  V30 3321 C 329.068 -0.501388 -2.28053 0
M  V30 3322 C 330.049 0.454673 -1.63911 0
M  V30 3323 O 331.234 0.352618 -1.90972 0
M  V30 3324 C 328.364 0.217224 -3.4662 0
M  V30 3325 C 327.318 -0.654034 -4.22973 0
M  V30 3326 C 326.644 0.195589 -5.34342 0
M  V30 3327 C 327.944 -1.93447 -4.85155 0
M  V30 3328 H 329.638 -1.36238 -2.66608 0
M  V30 3329 H 327.184 -0.656534 -1.28163 0
M  V30 3330 H 329.137 0.548732 -4.17812 0
M  V30 3331 H 327.861 1.1125 -3.07068 0
M  V30 3332 H 326.52 -0.968693 -3.5357 0
M  V30 3333 H 326.168 1.09076 -4.91031 0
M  V30 3334 H 325.868 -0.384091 -5.86343 0
M  V30 3335 H 327.392 0.521958 -6.08365 0
M  V30 3336 H 328.806 -1.66908 -5.48466 0
M  V30 3337 H 327.203 -2.46018 -5.47353 0
M  V30 3338 H 328.273 -2.63466 -4.07079 0
M  V30 3339 N 329.616 1.39756 -0.72842 0
M  V30 3340 C 330.863 2.00645 -0.273487 0
M  V30 3341 C 331.191 1.57786 1.13727 0
M  V30 3342 O 330.446 0.794886 1.7883 0
M  V30 3343 C 330.745 3.56002 -0.315776 0
M  V30 3344 C 330.411 4.18489 -1.67863 0
M  V30 3345 C 329.073 4.3527 -2.05166 0
M  V30 3346 C 331.425 4.53219 -2.57375 0
M  V30 3347 C 328.753 4.84069 -3.31503 0
M  V30 3348 C 331.105 5.03423 -3.83077 0
M  V30 3349 C 329.769 5.18413 -4.20481 0
M  V30 3350 H 329.039 0.734211 -0.100076 0
M  V30 3351 H 331.686 1.6718 -0.933972 0
M  V30 3352 H 329.991 3.89452 0.428285 0
M  V30 3353 H 331.688 4.00963 0.0542575 0
M  V30 3354 H 328.278 4.05824 -1.37858 0
M  V30 3355 H 332.462 4.39878 -2.29827 0
M  V30 3356 H 327.718 4.93859 -3.60435 0
M  V30 3357 H 331.892 5.2927 -4.52599 0
M  V30 3358 H 329.519 5.55987 -5.18443 0
M  V30 3359 N 331.094 0.475555 1.50254 0
M  V30 3360 C 332.343 -0.0795996 2.01543 0
M  V30 3361 C 332.656 -1.4038 1.36209 0
M  V30 3362 O 333.862 -2.04415 1.7868 0
M  V30 3363 C 332.318 -0.192363 3.59386 0
M  V30 3364 C 331.926 1.12367 4.33679 0
M  V30 3365 C 333.67 -0.699238 4.18701 0
M  V30 3366 C 331.577 0.974453 5.83317 0
M  V30 3367 H 330.507 -0.0335228 0.753254 0
M  V30 3368 H 333.158 0.611128 1.73025 0
M  V30 3369 H 331.54 -0.946974 3.84511 0
M  V30 3370 H 332.714 1.88958 4.20276 0
M  V30 3371 H 331.029 1.562 3.85993 0
M  V30 3372 H 333.626 -0.827978 5.28251 0
M  V30 3373 H 333.969 -1.69171 3.80377 0
M  V30 3374 H 334.502 -0.00188807 3.978 0
M  V30 3375 H 331.241 1.94042 6.26121 0
M  V30 3376 H 330.761 0.248998 5.99283 0
M  V30 3377 H 332.44 0.642867 6.43798 0
M  V30 3378 N 332.573 -1.56217 0.208337 0
M  V30 3379 C 333.801 -2.02337 -0.43215 0
M  V30 3380 C 334.216 -1.08834 -1.54275 0
M  V30 3381 O 333.573 -0.0955462 -1.8225 0
M  V30 3382 C 333.624 -3.48072 -0.976138 0
M  V30 3383 O 333.345 -4.38007 0.0901621 0
M  V30 3384 C 334.846 -4.09773 -1.69119 0
M  V30 3385 H 332.066 -0.662385 -0.10718 0
M  V30 3386 H 334.61 -2.01966 0.320923 0
M  V30 3387 H 332.765 -3.49099 -1.67954 0
M  V30 3388 H 333.179 -5.23543 -0.316701 0
M  V30 3389 H 334.653 -5.13556 -2.02397 0
M  V30 3390 H 335.13 -3.53999 -2.59964 0
M  V30 3391 H 335.736 -4.12556 -1.03332 0
M  V30 3392 N 334.051 0.0651679 -1.57465 0
M  V30 3393 C 335.299 0.761555 -1.87202 0
M  V30 3394 C 335.62 1.77778 -0.801243 0
M  V30 3395 O 334.89 1.95166 0.16937 0
M  V30 3396 H 333.47 0.284251 -0.690804 0
M  V30 3397 H 336.132 0.0396827 -1.9486 0
M  V30 3398 H 335.228 1.27365 -2.84929 0
M  V30 3399 N 335.529 1.53961 0.336706 0
M  V30 3400 C 336.94 1.62914 0.911925 0
M  V30 3401 C 337.291 0.514795 1.89326 0
M  V30 3402 O 336.416 -0.354395 2.13478 0
M  V30 3403 C 337.011 2.95304 1.66076 0
M  V30 3404 C 335.57 3.06496 2.18489 0
M  V30 3405 C 334.717 2.58403 1.00613 0
M  V30 3406 H 337.668 1.58285 0.114649 0
M  V30 3407 H 337.689 2.84727 2.5241 0
M  V30 3408 H 337.201 3.76387 0.946276 0
M  V30 3409 H 335.302 2.3006 2.93092 0
M  V30 3410 H 335.415 4.1208 2.44391 0
M  V30 3411 H 333.779 2.13977 1.38152 0
M  V30 3412 H 334.562 3.41932 0.306179 0
M  V30 3413 N 337.007 -0.598083 1.45811 0
M  V30 3414 C 338.284 -1.35777 1.40797 0
M  V30 3415 C 338.664 -2.10935 0.083462 0
M  V30 3416 O 338.012 -2.08505 -0.934763 0
M  V30 3417 C 338.222 -2.29666 2.62783 0
M  V30 3418 C 339.57 -2.91977 3.08277 0
M  V30 3419 O 340.594 -2.39984 2.63223 0
M  V30 3420 O 339.453 -3.86376 3.86491 0
M  V30 3421 H 336.547 -0.609291 0.55919 0
M  V30 3422 H 339.093 -0.620379 1.57954 0
M  V30 3423 H 337.865 -1.73454 3.50756 0
M  V30 3424 H 337.488 -3.1077 2.48008 0
M  V30 3425 N 338.485 -1.33259 -0.841409 0
M  V30 3426 C 339.731 -1.24757 -1.59886 0
M  V30 3427 C 340.064 0.186913 -1.93298 0
M  V30 3428 O 339.339 1.12757 -1.5848 0
M  V30 3429 C 339.622 -2.12036 -2.91055 0
M  V30 3430 C 339.475 -3.63929 -2.6434 0
M  V30 3431 C 340.794 -1.9916 -3.92458 0
M  V30 3432 H 337.913 -0.454542 -0.580138 0
M  V30 3433 H 340.555 -1.63335 -0.970647 0
M  V30 3434 H 338.705 -1.79265 -3.44669 0
M  V30 3435 H 340.377 -4.06978 -2.17178 0
M  V30 3436 H 338.62 -3.85935 -1.98082 0
M  V30 3437 H 339.291 -4.20341 -3.57796 0
M  V30 3438 H 341.767 -2.27895 -3.48143 0
M  V30 3439 H 340.643 -2.62484 -4.82072 0
M  V30 3440 H 340.904 -0.963082 -4.31482 0
M  V30 3441 N 339.963 1.05934 -1.16686 0
M  V30 3442 C 341.209 1.79065 -0.95203 0
M  V30 3443 C 341.542 1.87147 0.518629 0
M  V30 3444 O 340.817 1.36574 1.38484 0
M  V30 3445 C 341.1 3.23359 -1.58464 0
M  V30 3446 C 340.953 3.23336 -3.12689 0
M  V30 3447 C 342.272 4.21004 -1.28232 0
M  V30 3448 H 339.391 0.65005 -0.34728 0
M  V30 3449 H 342.033 1.23868 -1.44072 0
M  V30 3450 H 340.183 3.70493 -1.16908 0
M  V30 3451 H 341.855 2.84336 -3.6325 0
M  V30 3452 H 340.098 2.61886 -3.4583 0
M  V30 3453 H 340.769 4.25144 -3.52075 0
M  V30 3454 H 343.245 3.8233 -1.64203 0
M  V30 3455 H 342.121 5.20225 -1.75092 0
M  V30 3456 H 342.382 4.41639 -0.201791 0
M  V30 3457 N 341.441 0.965919 1.2453 0
M  V30 3458 C 342.388 0.49402 2.25451 0
M  V30 3459 C 343.358 -0.45948 1.59618 0
M  V30 3460 O 344.543 -0.370238 1.87173 0
M  V30 3461 C 341.683 -0.211359 3.44452 0
M  V30 3462 C 340.796 0.7807 4.24887 0
M  V30 3463 C 339.931 0.0516105 5.31175 0
M  V30 3464 C 338.97 1.03385 6.03306 0
M  V30 3465 N 338.107 0.334887 7.01301 0
M  V30 3466 H 342.947 1.35946 2.65184 0
M  V30 3467 H 340.484 0.681515 1.3036 0
M  V30 3468 H 342.442 -0.637 4.12308 0
M  V30 3469 H 341.072 -1.04077 3.05562 0
M  V30 3470 H 340.124 1.32479 3.56586 0
M  V30 3471 H 341.436 1.52978 4.74762 0
M  V30 3472 H 340.59 -0.432114 6.05159 0
M  V30 3473 H 339.329 -0.730179 4.82203 0
M  V30 3474 H 338.334 1.52847 5.28127 0
M  V30 3475 H 339.559 1.81606 6.54367 0
M  V30 3476 H 337.505 -0.427959 6.54603 0
M  V30 3477 H 337.422 1.02287 7.49048 0
M  V30 3478 H 338.69 -0.126928 7.79397 0
M  V30 3479 N 342.919 -1.39368 0.735821 0
M  V30 3480 C 344.144 -2.05319 0.293052 0
M  V30 3481 C 344.569 -1.55115 -1.064 0
M  V30 3482 O 343.927 -0.695261 -1.67439 0
M  V30 3483 C 343.975 -3.59305 0.305323 0
M  V30 3484 O 343.079 -4.06299 -0.706761 0
M  V30 3485 H 342.42 -0.650529 0.13307 0
M  V30 3486 H 344.95 -1.78386 1.00197 0
M  V30 3487 H 344.96 -4.07724 0.149997 0
M  V30 3488 H 343.635 -3.95207 1.29553 0
M  V30 3489 H 342.212 -3.69292 -0.517504 0
M  V30 3490 N 344.397 -0.483516 -1.5 0
M  V30 3491 C 345.643 0.0672592 -2.02688 0
M  V30 3492 C 345.976 1.38247 -1.36387 0
M  V30 3493 O 345.251 1.88131 -0.493675 0
M  V30 3494 C 345.534 0.238109 -3.59312 0
M  V30 3495 C 345.387 -1.099 -4.36168 0
M  V30 3496 C 346.706 0.986916 -4.28892 0
M  V30 3497 H 343.825 0.0229696 -0.736642 0
M  V30 3498 H 346.467 -0.631527 -1.79197 0
M  V30 3499 H 344.617 0.8333 -3.79458 0
M  V30 3500 H 346.289 -1.73172 -4.27562 0
M  V30 3501 H 344.532 -1.69261 -3.99416 0
M  V30 3502 H 345.203 -0.932954 -5.44059 0
M  V30 3503 H 347.679 0.482302 -4.13295 0
M  V30 3504 H 346.555 1.07527 -5.38265 0
M  V30 3505 H 346.816 2.0265 -3.92919 0
M  V30 3506 N 345.875 1.56104 -0.216619 0
M  V30 3507 C 347.103 2.02563 0.421413 0
M  V30 3508 C 347.518 1.0965 1.53695 0
M  V30 3509 O 346.875 0.10521 1.82196 0
M  V30 3510 C 346.926 3.48584 0.957665 0
M  V30 3511 O 346.647 4.37953 -0.113389 0
M  V30 3512 C 348.148 4.10664 1.66943 0
M  V30 3513 H 345.368 0.662944 0.103665 0
M  V30 3514 H 347.912 2.01793 -0.331629 0
M  V30 3515 H 346.067 3.49985 1.661 0
M  V30 3516 H 346.481 5.23704 0.288932 0
M  V30 3517 H 347.955 5.14622 1.99671 0
M  V30 3518 H 348.432 3.55373 2.58083 0
M  V30 3519 H 349.038 4.13098 1.01142 0
M  V30 3520 N 347.353 -0.0568162 1.57498 0
M  V30 3521 C 348.301 -1.08452 2.05769 0
M  V30 3522 C 349.295 -1.39164 0.965903 0
M  V30 3523 O 350.501 -1.38395 1.15095 0
M  V30 3524 H 346.876 -0.367148 0.656282 0
M  V30 3525 H 348.847 -0.651368 2.91204 0
M  V30 3526 C 347.596 -2.38543 2.52968 0
M  V30 3527 H 346.919 -2.15765 3.36579 0
M  V30 3528 H 348.359 -3.08863 2.90481 0
M  V30 3529 C 346.818 -3.05562 1.41893 0
M  V30 3530 O 347.348 -3.94262 0.769442 0
M  V30 3531 N 345.554 -2.6643 1.16032 0
M  V30 3532 H 345.101 -1.94387 1.6903 0
M  V30 3533 H 345.059 -3.11593 0.419219 0
M  V30 3534 N 348.832 -1.54138 -0.328536 0
M  V30 3535 C 349.742 -1.86192 -1.42723 0
M  V30 3536 C 350.758 -0.753382 -1.56844 0
M  V30 3537 O 351.934 -1.04718 -1.72035 0
M  V30 3538 C 348.999 -2.07824 -2.77507 0
M  V30 3539 C 348.06 -3.31641 -2.72603 0
M  V30 3540 C 347.293 -3.52232 -4.00959 0
M  V30 3541 O 347.516 -2.7636 -4.9898 0
M  V30 3542 O 346.45 -4.45699 -4.0452 0
M  V30 3543 H 350.276 -2.79608 -1.18547 0
M  V30 3544 H 347.861 -1.3998 -0.522104 0
M  V30 3545 H 349.743 -2.23411 -3.57303 0
M  V30 3546 H 348.418 -1.17596 -3.01584 0
M  V30 3547 H 347.325 -3.21444 -1.91376 0
M  V30 3548 H 348.658 -4.2191 -2.53481 0
M  V30 3549 N 350.31 0.590341 -1.46126 0
M  V30 3550 C 351.587 1.35029 -1.41515 0
M  V30 3551 C 351.967 2.10888 -0.0946472 0
M  V30 3552 O 351.315 2.08998 0.923693 0
M  V30 3553 C 351.525 2.28269 -2.63997 0
M  V30 3554 C 352.873 2.90338 -3.09821 0
M  V30 3555 O 353.897 2.38585 -2.64492 0
M  V30 3556 O 352.756 3.84321 -3.88535 0
M  V30 3557 H 349.85 0.606317 -0.562413 0
M  V30 3558 H 352.396 0.611994 -1.58281 0
M  V30 3559 H 351.168 1.71591 -3.51671 0
M  V30 3560 H 350.791 3.0945 -2.49652 0
M  V30 3561 N 351.788 1.33704 0.83433 0
M  V30 3562 C 353.034 1.25603 1.59222 0
M  V30 3563 C 353.367 -0.176659 1.93395 0
M  V30 3564 O 352.642 -1.11915 1.59076 0
M  V30 3565 C 352.925 2.13576 2.89926 0
M  V30 3566 C 352.778 3.65326 2.62406 0
M  V30 3567 C 354.097 2.01238 3.91397 0
M  V30 3568 H 351.216 0.457613 0.577719 0
M  V30 3569 H 353.858 1.63848 0.961972 0
M  V30 3570 H 352.008 1.8109 3.43713 0
M  V30 3571 H 353.68 4.08124 2.15017 0
M  V30 3572 H 351.923 3.8698 1.96033 0
M  V30 3573 H 352.594 4.22232 3.55562 0
M  V30 3574 H 355.07 2.29738 3.46929 0
M  V30 3575 H 353.946 2.65036 4.80673 0
M  V30 3576 H 354.207 0.985951 4.30966 0
M  V30 3577 N 353.266 -1.05314 1.17247 0
M  V30 3578 C 354.494 -1.81971 0.984593 0
M  V30 3579 C 354.909 -1.82929 -0.467166 0
M  V30 3580 O 354.266 -1.25564 -1.32438 0
M  V30 3581 C 354.317 -3.28143 1.51672 0
M  V30 3582 O 354.038 -3.27347 2.91163 0
M  V30 3583 C 355.539 -4.21493 1.37326 0
M  V30 3584 H 352.759 -0.573455 0.348411 0
M  V30 3585 H 355.303 -1.32808 1.55506 0
M  V30 3586 H 353.458 -3.74582 0.988302 0
M  V30 3587 H 353.872 -4.18824 3.15732 0
M  V30 3588 H 355.346 -5.22043 1.79375 0
M  V30 3589 H 355.823 -4.38031 0.320169 0
M  V30 3590 H 356.429 -3.80909 1.89178 0
M  V30 3591 N 354.744 -0.972509 -1.24016 0
M  V30 3592 C 355.676 -0.464375 -2.24446 0
M  V30 3593 C 356.689 0.4295 -1.57032 0
M  V30 3594 O 357.878 0.234902 -1.76948 0
M  V30 3595 C 354.978 0.348385 -3.37105 0
M  V30 3596 C 354.151 -0.53673 -4.34094 0
M  V30 3597 C 353.21 0.220838 -5.25736 0
M  V30 3598 O 352.236 -0.386867 -5.67884 0
M  V30 3599 N 353.438 1.50907 -5.60542 0
M  V30 3600 H 356.203 -1.32788 -2.68677 0
M  V30 3601 H 353.764 -0.844877 -1.38107 0
M  V30 3602 H 355.756 0.863341 -3.95384 0
M  V30 3603 H 354.326 1.11285 -2.92121 0
M  V30 3604 H 353.546 -1.23261 -3.74433 0
M  V30 3605 H 354.834 -1.14022 -4.95859 0
M  V30 3606 H 354.232 2.02444 -5.28236 0
M  V30 3607 H 352.789 1.96962 -6.21329 0
M  V30 3608 N 356.222 1.38976 -0.743202 0
M  V30 3609 C 357.132 2.3434 -0.110399 0
M  V30 3610 C 358.148 1.58741 0.712559 0
M  V30 3611 O 359.324 1.9099 0.639125 0
M  V30 3612 C 356.389 3.37812 0.780012 0
M  V30 3613 C 355.45 4.29263 -0.0561319 0
M  V30 3614 C 354.683 5.27793 0.791875 0
M  V30 3615 O 354.906 5.33043 2.03031 0
M  V30 3616 O 353.84 6.01512 0.216183 0
M  V30 3617 H 357.666 2.90129 -0.897714 0
M  V30 3618 H 355.251 1.40643 -0.503966 0
M  V30 3619 H 357.133 4.01194 1.28923 0
M  V30 3620 H 355.808 2.84395 1.546 0
M  V30 3621 H 354.715 3.69076 -0.611056 0
M  V30 3622 H 356.048 4.85907 -0.784531 0
M  V30 3623 N 357.7 0.491464 1.49741 0
M  V30 3624 C 358.61 -0.296835 2.32715 0
M  V30 3625 C 359.626 -0.976536 1.44013 0
M  V30 3626 O 360.802 -0.960023 1.77047 0
M  V30 3627 C 357.867 -1.35288 3.19215 0
M  V30 3628 C 356.928 -0.687632 4.23757 0
M  V30 3629 C 356.161 -1.69336 5.06123 0
M  V30 3630 O 356.384 -2.92219 4.89861 0
M  V30 3631 O 355.318 -1.25394 5.88693 0
M  V30 3632 H 359.144 0.382048 3.01287 0
M  V30 3633 H 356.729 0.252953 1.47243 0
M  V30 3634 H 358.611 -1.96411 3.72828 0
M  V30 3635 H 357.286 -2.01487 2.53347 0
M  V30 3636 H 356.193 -0.0369159 3.74082 0
M  V30 3637 H 357.526 -0.0682566 4.92153 0
M  V30 3638 N 359.178 -1.55987 0.224894 0
M  V30 3639 C 360.108 -2.23426 -0.678457 0
M  V30 3640 C 361.089 -1.20709 -1.19847 0
M  V30 3641 O 362.274 -1.49304 -1.24186 0
M  V30 3642 C 359.404 -2.91676 -1.88527 0
M  V30 3643 C 358.358 -4.00893 -1.49896 0
M  V30 3644 C 357.684 -4.56455 -2.78483 0
M  V30 3645 C 358.984 -5.17769 -0.686461 0
M  V30 3646 H 360.678 -2.99175 -0.116173 0
M  V30 3647 H 358.224 -1.43897 -0.054436 0
M  V30 3648 H 360.177 -3.37547 -2.5227 0
M  V30 3649 H 358.901 -2.1338 -2.47258 0
M  V30 3650 H 357.56 -3.55758 -0.884985 0
M  V30 3651 H 357.208 -3.74886 -3.35365 0
M  V30 3652 H 356.908 -5.30169 -2.53368 0
M  V30 3653 H 358.432 -5.05047 -3.43162 0
M  V30 3654 H 359.846 -5.60001 -1.22767 0
M  V30 3655 H 358.243 -5.97735 -0.532259 0
M  V30 3656 H 359.313 -4.83932 0.306196 0
M  V30 3657 N 360.656 0.0484629 -1.57525 0
M  V30 3658 C 361.904 0.741657 -1.88 0
M  V30 3659 C 362.225 1.76918 -0.820054 0
M  V30 3660 O 361.495 1.95335 0.148661 0
M  V30 3661 H 360.075 0.276908 -0.69378 0
M  V30 3662 H 362.737 0.019013 -1.94891 0
M  V30 3663 H 361.833 1.24336 -2.86264 0
M  V30 3664 N 362.134 1.5431 0.320358 0
M  V30 3665 C 363.382 1.72327 1.05583 0
M  V30 3666 C 363.703 0.50149 1.88441 0
M  V30 3667 O 362.973 -0.48448 1.89815 0
M  V30 3668 H 361.553 0.635387 0.3928 0
M  V30 3669 H 364.215 1.91621 0.356019 0
M  V30 3670 H 363.311 2.60426 1.72003 0
M  V30 3671 N 363.613 -0.582584 1.46437 0
M  V30 3672 C 364.576 -1.67366 1.56592 0
M  V30 3673 C 365.576 -1.54575 0.443072 0
M  V30 3674 O 366.766 -1.59191 0.707381 0
M  V30 3675 C 363.898 -3.06791 1.48634 0
M  V30 3676 H 365.091 -1.5972 2.5383 0
M  V30 3677 H 362.644 -0.800432 1.34249 0
M  V30 3678 H 363.379 -3.19993 0.526763 0
M  V30 3679 H 363.164 -3.17484 2.30101 0
M  V30 3680 H 364.654 -3.86218 1.58826 0
M  V30 3681 N 365.091 -1.34144 -0.827227 0
M  V30 3682 C 366.038 -1.25364 -1.93785 0
M  V30 3683 C 367.008 -0.129774 -1.65592 0
M  V30 3684 O 368.193 -0.310024 -1.88264 0
M  V30 3685 C 365.333 -1.01064 -3.2997 0
M  V30 3686 C 364.446 -2.22185 -3.70484 0
M  V30 3687 C 363.581 -1.91203 -4.95595 0
M  V30 3688 C 362.62 -3.08491 -5.28677 0
M  V30 3689 N 361.757 -2.77421 -6.44967 0
M  V30 3690 H 366.597 -2.20347 -2.00627 0
M  V30 3691 H 364.134 -1.09558 -0.981608 0
M  V30 3692 H 366.092 -0.850139 -4.08446 0
M  V30 3693 H 364.722 -0.0975026 -3.22653 0
M  V30 3694 H 363.774 -2.4917 -2.87434 0
M  V30 3695 H 365.086 -3.0983 -3.90905 0
M  V30 3696 H 364.24 -1.71864 -5.81848 0
M  V30 3697 H 362.979 -1.00812 -4.77167 0
M  V30 3698 H 361.984 -3.28431 -4.40923 0
M  V30 3699 H 363.209 -3.99655 -5.49047 0
M  V30 3700 H 361.155 -1.89601 -6.28003 0
M  V30 3701 H 361.072 -3.58598 -6.6554 0
M  V30 3702 H 362.34 -2.61577 -7.34301 0
M  V30 3703 N 366.569 1.04691 -1.17803 0
M  V30 3704 C 367.797 1.81446 -0.99423 0
M  V30 3705 C 368.212 1.83174 0.457459 0
M  V30 3706 O 367.569 1.26265 1.31771 0
M  V30 3707 C 367.62 3.27334 -1.5341 0
M  V30 3708 O 367.341 3.25798 -2.92895 0
M  V30 3709 C 368.842 4.20759 -1.39559 0
M  V30 3710 H 366.062 0.571599 -0.351447 0
M  V30 3711 H 368.606 1.31982 -1.56208 0
M  V30 3712 H 366.761 3.74052 -1.00815 0
M  V30 3713 H 367.175 4.17144 -3.17949 0
M  V30 3714 H 368.649 5.21084 -1.82141 0
M  V30 3715 H 369.126 4.37856 -0.343394 0
M  V30 3716 H 369.732 3.79901 -1.91195 0
M  V30 3717 N 368.047 0.979072 1.23499 0
M  V30 3718 C 368.997 0.489378 2.22686 0
M  V30 3719 C 369.981 -0.434871 1.54912 0
M  V30 3720 O 371.173 -0.263941 1.75021 0
M  V30 3721 C 368.302 -0.208178 3.42668 0
M  V30 3722 C 367.388 0.735563 4.17672 0
M  V30 3723 N 367.779 1.87763 4.69658 0
M  V30 3724 C 366.077 0.548625 4.42613 0
M  V30 3725 C 366.778 2.46886 5.26709 0
M  V30 3726 N 365.754 1.75287 5.14563 0
M  V30 3727 H 369.556 1.36062 2.60508 0
M  V30 3728 H 367.07 0.83958 1.39014 0
M  V30 3729 H 369.067 -0.576295 4.12898 0
M  V30 3730 H 367.727 -1.07572 3.06363 0
M  V30 3731 H 368.738 2.25885 4.66043 0
M  V30 3732 H 365.415 -0.274006 4.166 0
M  V30 3733 H 366.805 3.43326 5.77561 0
M  V30 3734 N 369.525 -1.3858 0.750561 0
M  V30 3735 C 370.753 -2.04471 0.316098 0
M  V30 3736 C 371.168 -1.56606 -1.05452 0
M  V30 3737 O 370.525 -0.737784 -1.66922 0
M  V30 3738 C 370.576 -3.60025 0.326275 0
M  V30 3739 O 370.297 -4.06133 1.6428 0
M  V30 3740 C 371.798 -4.43131 -0.122429 0
M  V30 3741 H 369.018 -0.65717 0.135528 0
M  V30 3742 H 371.562 -1.77329 1.01857 0
M  V30 3743 H 369.717 -3.86014 -0.327431 0
M  V30 3744 H 370.131 -5.00547 1.56693 0
M  V30 3745 H 371.605 -5.51963 -0.0641473 0
M  V30 3746 H 372.082 -4.23333 -1.16988 0
M  V30 3747 H 372.688 -4.22323 0.50229 0
M  V30 3748 N 371.003 -0.499398 -1.49478 0
M  V30 3749 C 372.231 0.0425456 -2.06856 0
M  V30 3750 C 372.646 1.30964 -1.35992 0
M  V30 3751 O 372.003 1.77172 -0.437762 0
M  V30 3752 C 372.054 0.301735 -3.60239 0
M  V30 3753 O 371.775 -0.915127 -4.28436 0
M  V30 3754 C 373.276 0.887499 -4.34325 0
M  V30 3755 H 370.496 -0.0197482 -0.670709 0
M  V30 3756 H 373.04 -0.696297 -1.92281 0
M  V30 3757 H 371.195 0.990556 -3.74522 0
M  V30 3758 H 371.609 -0.676993 -5.20113 0
M  V30 3759 H 373.083 1.01845 -5.42523 0
M  V30 3760 H 373.56 1.88488 -3.96698 0
M  V30 3761 H 374.166 0.236196 -4.24644 0
M  V30 3762 N 372.481 1.55866 -0.233164 0
M  V30 3763 C 373.414 2.16794 0.712442 0
M  V30 3764 C 374.392 1.1158 1.18273 0
M  V30 3765 O 375.576 1.39897 1.26337 0
M  V30 3766 C 372.703 2.75757 1.96661 0
M  V30 3767 C 371.749 3.93902 1.63533 0
M  V30 3768 S 372.582 5.30223 0.74995 0
M  V30 3769 C 373.738 5.92631 2.01343 0
M  V30 3770 H 373.971 2.96662 0.194617 0
M  V30 3771 H 371.504 1.5439 -0.0177425 0
M  V30 3772 H 373.462 3.10367 2.68668 0
M  V30 3773 H 372.123 1.9586 2.45556 0
M  V30 3774 H 371.316 4.33702 2.56747 0
M  V30 3775 H 370.918 3.60499 0.995804 0
M  V30 3776 H 373.21 6.09312 2.96219 0
M  V30 3777 H 374.153 6.88388 1.65915 0
M  V30 3778 H 374.561 5.21571 2.15925 0
M  V30 3779 N 373.959 -0.0401083 1.57549 0
M  V30 3780 C 375.184 -0.748931 1.93406 0
M  V30 3781 C 375.609 -1.68686 0.832274 0
M  V30 3782 O 374.967 -1.80047 -0.212818 0
M  V30 3783 C 375.015 -1.4916 3.28304 0
M  V30 3784 O 374.119 -2.6042 3.19774 0
M  V30 3785 H 373.46 -0.202212 0.63246 0
M  V30 3786 H 375.99 0.00112086 2.046 0
M  V30 3787 H 376 -1.86395 3.62934 0
M  V30 3788 H 374.675 -0.80364 4.08062 0
M  V30 3789 H 373.252 -2.25808 2.96758 0
M  V30 3790 N 375.437 -1.54477 -0.31217 0
M  V30 3791 C 376.685 -1.72884 -1.04668 0
M  V30 3792 C 377.006 -0.511477 -1.88173 0
M  V30 3793 O 376.276 0.474407 -1.90069 0
M  V30 3794 H 374.856 -0.637461 -0.389425 0
M  V30 3795 H 377.518 -1.91807 -0.345852 0
M  V30 3796 H 376.614 -2.61334 -1.70619 0
M  V30 3797 N 376.915 0.57481 -1.46744 0
M  V30 3798 C 378.161 1.3347 -1.52688 0
M  V30 3799 C 378.494 1.93353 -0.181229 0
M  V30 3800 O 377.769 1.76912 0.808237 0
M  V30 3801 C 378.052 2.45811 -2.63152 0
M  V30 3802 C 377.905 1.90912 -4.07275 0
M  V30 3803 C 379.224 3.47822 -2.69644 0
M  V30 3804 H 376.343 0.483935 -0.555856 0
M  V30 3805 H 378.985 0.644968 -1.78718 0
M  V30 3806 H 377.135 3.04646 -2.41088 0
M  V30 3807 H 378.807 1.36473 -4.4065 0
M  V30 3808 H 377.05 1.21691 -4.16382 0
M  V30 3809 H 377.721 2.72042 -4.80309 0
M  V30 3810 H 380.197 2.9888 -2.895 0
M  V30 3811 H 379.073 4.23876 -3.48742 0
M  V30 3812 H 379.334 4.05555 -1.76005 0
M  V30 3813 N 378.394 1.34581 0.820102 0
M  V30 3814 C 379.357 1.2628 1.91275 0
M  V30 3815 C 380.357 0.177344 1.59819 0
M  V30 3816 O 381.547 0.430156 1.68806 0
M  V30 3817 C 378.679 0.950327 3.27386 0
M  V30 3818 H 379.872 2.23421 2.00057 0
M  V30 3819 H 377.425 1.1891 1.0144 0
M  V30 3820 H 378.16 -0.0177938 3.24295 0
M  V30 3821 H 377.945 1.73549 3.51601 0
M  V30 3822 H 379.435 0.917492 4.07396 0
M  V30 3823 N 379.872 -1.04064 1.18357 0
M  V30 3824 C 380.822 -2.10393 0.878561 0
M  V30 3825 C 381.806 -1.60183 -0.151713 0
M  V30 3826 O 382.998 -1.76923 0.0523303 0
M  V30 3827 C 380.127 -3.4089 0.406096 0
M  V30 3828 C 379.213 -3.97866 1.46844 0
M  V30 3829 N 379.604 -4.28657 2.68489 0
M  V30 3830 C 377.902 -4.2574 1.32896 0
M  V30 3831 C 378.603 -4.74253 3.36836 0
M  V30 3832 N 377.579 -4.75068 2.64219 0
M  V30 3833 H 381.381 -2.32076 1.80327 0
M  V30 3834 H 378.895 -1.21818 1.07397 0
M  V30 3835 H 380.892 -4.16557 0.169088 0
M  V30 3836 H 379.552 -3.20633 -0.512275 0
M  V30 3837 H 380.563 -4.18304 3.05356 0
M  V30 3838 H 377.24 -4.1481 0.473134 0
M  V30 3839 H 378.63 -5.07096 4.40798 0
M  V30 3840 N 381.35 -0.985608 -1.22978 0
M  V30 3841 C 382.766 -0.695104 -1.43668 0
M  V30 3842 C 382.966 0.736866 -1.87543 0
M  V30 3843 O 382.022 1.50868 -2.02473 0
M  V30 3844 C 383.335 -1.69447 -2.48412 0
M  V30 3845 C 384.883 -1.70909 -2.62219 0
M  V30 3846 C 385.358 -2.6969 -3.70178 0
M  V30 3847 N 386.849 -2.6824 -3.77626 0
M  V30 3848 C 387.584 -3.41339 -4.60733 0
M  V30 3849 N 387.08 -4.24015 -5.4789 0
M  V30 3850 N 388.873 -3.30079 -4.54977 0
M  V30 3851 H 381.024 -1.91054 -0.928016 0
M  V30 3852 H 383.287 -0.823553 -0.469536 0
M  V30 3853 H 382.993 -2.7188 -2.23102 0
M  V30 3854 H 382.867 -1.48147 -3.46889 0
M  V30 3855 H 385.254 -0.691785 -2.86877 0
M  V30 3856 H 385.335 -1.96276 -1.6404 0
M  V30 3857 H 384.979 -3.71566 -3.46268 0
M  V30 3858 H 384.909 -2.41595 -4.67909 0
M  V30 3859 H 387.4 -2.08243 -3.15346 0
M  V30 3860 H 387.713 -4.76636 -6.08308 0
M  V30 3861 H 386.058 -4.28104 -5.47496 0
M  V30 3862 H 389.249 -2.64937 -3.85909 0
M  V30 3863 H 389.422 -3.87308 -5.19516 0
M  V30 3864 N 382.828 1.3818 -0.7579 0
M  V30 3865 C 383.791 2.28764 -0.141286 0
M  V30 3866 C 384.791 1.47388 0.642907 0
M  V30 3867 O 385.981 1.67781 0.468536 0
M  V30 3868 C 383.113 3.31184 0.808069 0
M  V30 3869 H 384.306 2.848 -0.939633 0
M  V30 3870 H 381.859 1.47212 -0.525191 0
M  V30 3871 H 382.594 2.80247 1.63193 0
M  V30 3872 H 382.379 3.91314 0.248104 0
M  V30 3873 H 383.869 3.98909 1.23536 0
M  V30 3874 N 384.306 0.507319 1.49211 0
M  V30 3875 C 385.553 -0.0349529 2.0247 0
M  V30 3876 C 385.881 -1.36409 1.38647 0
M  V30 3877 O 385.136 -1.88841 0.513566 0
M  V30 3878 C 385.435 -0.229513 3.56662 0
M  V30 3879 C 385.101 1.02241 4.39156 0
M  V30 3880 C 383.763 1.36557 4.61417 0
M  V30 3881 C 386.115 1.85428 4.871 0
M  V30 3882 C 383.443 2.53999 5.28868 0
M  V30 3883 C 385.795 3.02028 5.55843 0
M  V30 3884 C 384.459 3.36717 5.76349 0
M  V30 3885 H 383.729 -0.0127902 0.74089 0
M  V30 3886 H 386.376 0.668756 1.79443 0
M  V30 3887 H 384.681 -1.0158 3.78403 0
M  V30 3888 H 386.378 -0.663641 3.9547 0
M  V30 3889 H 382.968 0.745124 4.22073 0
M  V30 3890 H 387.152 1.6023 4.69723 0
M  V30 3891 H 382.408 2.81105 5.42946 0
M  V30 3892 H 386.582 3.66808 5.91967 0
M  V30 3893 H 384.209 4.27821 6.28389 0
M  V30 3894 N 385.784 -1.5574 0.241426 0
M  V30 3895 C 386.694 -2.2479 -0.671305 0
M  V30 3896 C 387.71 -1.26217 -1.19772 0
M  V30 3897 O 388.886 -1.59079 -1.23514 0
M  V30 3898 C 385.951 -2.92966 -1.85396 0
M  V30 3899 C 385.012 -4.06935 -1.36756 0
M  V30 3900 C 384.245 -4.71851 -2.49384 0
M  V30 3901 O 384.468 -4.35823 -3.67987 0
M  V30 3902 O 383.402 -5.60467 -2.19454 0
M  V30 3903 H 387.228 -3.0349 -0.112966 0
M  V30 3904 H 384.813 -1.49397 0.0101513 0
M  V30 3905 H 386.695 -3.35927 -2.54423 0
M  V30 3906 H 385.37 -2.17211 -2.40002 0
M  V30 3907 H 384.277 -3.68503 -0.644726 0
M  V30 3908 H 385.61 -4.84492 -0.867647 0
M  V30 3909 N 387.262 0.0317525 -1.57568 0
M  V30 3910 C 388.21 1.05165 -2.07468 0
M  V30 3911 C 389.204 1.3761 -0.98792 0
M  V30 3912 O 390.41 1.36546 -1.17282 0
M  V30 3913 H 386.785 0.35666 -0.66204 0
M  V30 3914 H 388.756 0.604958 -2.92203 0
M  V30 3915 C 387.505 2.34488 -2.56731 0
M  V30 3916 H 386.828 2.10383 -3.39969 0
M  V30 3917 H 388.268 3.04203 -2.95358 0
M  V30 3918 C 386.727 3.03266 -1.46736 0
M  V30 3919 O 387.257 3.92988 -0.832069 0
M  V30 3920 N 385.463 2.6455 -1.20256 0
M  V30 3921 H 385.01 1.91674 -1.72102 0
M  V30 3922 H 384.968 3.10886 -0.468737 0
M  V30 3923 N 388.74 1.54641 0.303973 0
M  V30 3924 C 390.017 1.64455 1.05896 0
M  V30 3925 C 390.397 0.490923 2.05312 0
M  V30 3926 O 389.745 -0.512685 2.22674 0
M  V30 3927 C 389.955 3.02331 1.74347 0
M  V30 3928 C 391.303 3.59045 2.26653 0
M  V30 3929 O 392.327 3.04764 1.84384 0
M  V30 3930 O 391.186 4.54081 3.04093 0
M  V30 3931 H 388.28 0.666729 0.489287 0
M  V30 3932 H 390.826 1.66986 0.302298 0
M  V30 3933 H 389.598 3.77734 1.02142 0
M  V30 3934 H 389.221 3.03565 2.56777 0
M  V30 3935 N 390.218 -0.567019 1.47046 0
M  V30 3936 C 391.464 -1.32658 1.53394 0
M  V30 3937 C 391.797 -1.93254 0.19148 0
M  V30 3938 O 391.072 -1.77338 -0.798844 0
M  V30 3939 C 391.355 -2.44412 2.64452 0
M  V30 3940 C 391.208 -1.88749 4.08282 0
M  V30 3941 C 392.527 -3.46387 2.71485 0
M  V30 3942 H 389.646 -0.48098 0.558415 0
M  V30 3943 H 392.288 -0.635481 1.79058 0
M  V30 3944 H 390.438 -3.03363 2.427 0
M  V30 3945 H 392.11 -1.34134 4.41368 0
M  V30 3946 H 390.353 -1.19481 4.17021 0
M  V30 3947 H 391.024 -2.69491 4.81745 0
M  V30 3948 H 393.5 -2.9734 2.91081 0
M  V30 3949 H 392.376 -4.2202 3.50985 0
M  V30 3950 H 392.637 -4.04616 1.78153 0
M  V30 3951 N 391.696 -1.35014 -0.812953 0
M  V30 3952 C 392.973 -1.18502 -1.55617 0
M  V30 3953 C 393.353 0.238421 -2.09749 0
M  V30 3954 O 392.701 1.2411 -1.91857 0
M  V30 3955 C 392.911 -2.24783 -2.66971 0
M  V30 3956 C 394.259 -2.60268 -3.35478 0
M  V30 3957 O 395.283 -2.23648 -2.77236 0
M  V30 3958 O 394.142 -3.2321 -4.40678 0
M  V30 3959 H 391.236 -0.459984 -0.687272 0
M  V30 3960 H 393.782 -1.46677 -0.853464 0
M  V30 3961 H 392.554 -3.20284 -2.24798 0
M  V30 3962 H 392.177 -1.97841 -3.44884 0
M  V30 3963 N 393.175 1.03435 -1.18907 0
M  V30 3964 C 394.138 2.09756 -0.923844 0
M  V30 3965 C 395.138 1.60528 0.093416 0
M  V30 3966 O 396.328 1.73631 -0.140727 0
M  V30 3967 C 393.46 3.38692 -0.387354 0
M  V30 3968 H 394.653 2.34719 -1.86674 0
M  V30 3969 H 392.206 1.19959 -1.00197 0
M  V30 3970 H 392.941 3.19396 0.561845 0
M  V30 3971 H 392.726 3.75742 -1.12074 0
M  V30 3972 H 394.216 4.17016 -0.220694 0
M  V30 3973 N 394.653 0.992116 1.22453 0
M  V30 3974 C 395.583 0.561677 2.26644 0
M  V30 3975 C 396.564 -0.411055 1.65059 0
M  V30 3976 O 397.749 -0.301861 1.9184 0
M  V30 3977 C 394.879 -0.125247 3.47074 0
M  V30 3978 C 393.833 0.765948 4.21091 0
M  V30 3979 C 393.159 -0.0538484 5.34673 0
M  V30 3980 C 394.459 2.06242 4.79856 0
M  V30 3981 H 396.153 1.43259 2.62902 0
M  V30 3982 H 393.699 0.690283 1.26377 0
M  V30 3983 H 395.652 -0.437764 4.1912 0
M  V30 3984 H 394.376 -1.03069 3.0991 0
M  V30 3985 H 393.035 1.0621 3.50878 0
M  V30 3986 H 392.683 -0.960188 4.9375 0
M  V30 3987 H 392.383 0.539415 5.85119 0
M  V30 3988 H 393.907 -0.360477 6.09535 0
M  V30 3989 H 395.321 1.8139 5.43848 0
M  V30 3990 H 393.718 2.60444 5.40638 0
M  V30 3991 H 394.788 2.74167 3.99951 0
M  V30 3992 N 396.131 -1.37776 0.765217 0
M  V30 3993 C 397.371 -2.01691 0.331669 0
M  V30 3994 C 397.735 -1.59432 -1.06983 0
M  V30 3995 O 398.936 -2.15761 -1.60314 0
M  V30 3996 C 397.207 -3.54385 0.463261 0
M  V30 3997 S 398.766 -4.38652 0.114011 0
M  V30 3998 H 395.584 -0.699387 0.127979 0
M  V30 3999 H 398.186 -1.68084 0.998396 0
M  V30 4000 H 396.89 -3.82629 1.48401 0
M  V30 4001 H 396.421 -3.92783 -0.220246 0
M  V30 4002 H 398.436 -4.84021 -1.09261 0
M  V30 4003 N 397.609 -0.515225 -1.4894 0
M  V30 4004 C 398.557 0.269115 -2.31038 0
M  V30 4005 C 399.551 0.949443 -1.40292 0
M  V30 4006 O 400.757 0.87551 -1.57273 0
M  V30 4007 H 397.132 0.10565 -0.744542 0
M  V30 4008 H 399.103 -0.443096 -2.95092 0
M  V30 4009 C 397.852 1.31213 -3.21991 0
M  V30 4010 H 397.175 0.798034 -3.91754 0
M  V30 4011 H 398.615 1.83263 -3.82349 0
M  V30 4012 C 397.074 2.33791 -2.42576 0
M  V30 4013 O 397.604 3.3995 -2.14003 0
M  V30 4014 N 395.81 2.06625 -2.0434 0
M  V30 4015 H 395.357 1.20314 -2.27777 0
M  V30 4016 H 395.315 2.75483 -1.51514 0
M  V30 4017 N 399.087 1.5561 -0.249682 0
M  V30 4018 C 400.017 2.24477 0.642826 0
M  V30 4019 C 400.998 1.22601 1.17911 0
M  V30 4020 O 402.183 1.5126 1.21795 0
M  V30 4021 C 399.313 2.94638 1.83863 0
M  V30 4022 C 398.267 4.03227 1.435 0
M  V30 4023 C 397.593 4.60828 2.71186 0
M  V30 4024 C 398.893 5.18796 0.604002 0
M  V30 4025 H 400.587 2.99321 0.0685625 0
M  V30 4026 H 398.133 1.43965 0.0315363 0
M  V30 4027 H 400.086 3.41517 2.46868 0
M  V30 4028 H 398.81 2.17287 2.43832 0
M  V30 4029 H 397.469 3.57121 0.828275 0
M  V30 4030 H 397.117 3.80174 3.29358 0
M  V30 4031 H 396.817 5.34132 2.44901 0
M  V30 4032 H 398.341 5.10442 3.35084 0
M  V30 4033 H 399.755 5.61883 1.13842 0
M  V30 4034 H 398.152 5.98506 0.437097 0
M  V30 4035 H 399.222 4.83384 -0.383147 0
M  V30 4036 N 400.565 -0.0233959 1.57583 0
M  V30 4037 C 401.981 -0.379134 1.55031 0
M  V30 4038 C 402.181 -1.76255 0.976548 0
M  V30 4039 O 401.237 -2.45266 0.600078 0
M  V30 4040 C 402.55 -0.275792 2.99433 0
M  V30 4041 C 404.098 -0.352458 3.11009 0
M  V30 4042 C 404.573 -0.278501 4.57152 0
M  V30 4043 N 406.064 -0.337123 4.61972 0
M  V30 4044 C 406.799 -0.302876 5.726 0
M  V30 4045 N 406.295 -0.220589 6.92449 0
M  V30 4046 N 408.088 -0.353023 5.6099 0
M  V30 4047 H 400.239 0.881869 1.93227 0
M  V30 4048 H 402.502 0.335867 0.886509 0
M  V30 4049 H 402.208 0.675108 3.4516 0
M  V30 4050 H 402.082 -1.06721 3.61788 0
M  V30 4051 H 404.469 -1.29379 2.65226 0
M  V30 4052 H 404.55 0.468409 2.51475 0
M  V30 4053 H 404.194 0.659189 5.03604 0
M  V30 4054 H 404.124 -1.11755 5.14605 0
M  V30 4055 H 406.615 -0.403002 3.75745 0
M  V30 4056 H 406.928 -0.199713 7.72542 0
M  V30 4057 H 405.273 -0.186555 6.9475 0
M  V30 4058 H 408.464 -0.415339 4.66254 0
M  V30 4059 H 408.637 -0.322866 6.47195 0
M  V30 4060 N 402.043 -1.548 -0.295768 0
M  V30 4061 C 403.32 -1.65014 -1.05023 0
M  V30 4062 C 403.7 -0.501805 -2.05049 0
M  V30 4063 O 403.048 0.500869 -2.22943 0
M  V30 4064 C 403.258 -3.03252 -1.72741 0
M  V30 4065 C 404.606 -3.60242 -2.24746 0
M  V30 4066 O 405.63 -3.05737 -1.82765 0
M  V30 4067 O 404.489 -4.55687 -3.01681 0
M  V30 4068 H 401.583 -0.669314 -0.485744 0
M  V30 4069 H 404.129 -1.67144 -0.293438 0
M  V30 4070 H 402.901 -3.7827 -1.00138 0
M  V30 4071 H 402.524 -3.04922 -2.55163 0
M  V30 4072 N 403.521 0.559213 -1.47345 0
M  V30 4073 C 404.768 1.31648 -1.53867 0
M  V30 4074 C 405.096 1.93468 -0.200104 0
M  V30 4075 O 404.351 1.78295 0.806799 0
M  V30 4076 C 404.65 2.44853 -2.6035 0
M  V30 4077 C 404.316 2.00876 -4.03683 0
M  V30 4078 C 402.978 1.88599 -4.42701 0
M  V30 4079 C 405.33 1.67279 -4.93626 0
M  V30 4080 C 402.658 1.41017 -5.69501 0
M  V30 4081 C 405.01 1.21169 -6.20887 0
M  V30 4082 C 403.674 1.07487 -6.58789 0
M  V30 4083 H 402.944 0.481734 -0.56304 0
M  V30 4084 H 405.591 0.627301 -1.80934 0
M  V30 4085 H 403.896 3.19318 -2.27032 0
M  V30 4086 H 405.593 3.03039 -2.62619 0
M  V30 4087 H 402.183 2.11374 -3.72853 0
M  V30 4088 H 406.367 1.75638 -4.64182 0
M  V30 4089 H 401.623 1.29086 -5.97618 0
M  V30 4090 H 405.797 0.942345 -6.89995 0
M  V30 4091 H 403.424 0.703946 -7.56934 0
M  V30 4092 N 404.999 1.35443 0.805782 0
M  V30 4093 C 406.246 1.28761 1.56291 0
M  V30 4094 C 406.574 -0.137747 1.94012 0
M  V30 4095 O 405.829 -1.1032 1.61642 0
M  V30 4096 C 406.128 2.14045 2.86216 0
M  V30 4097 C 405.794 3.62826 2.67709 0
M  V30 4098 C 404.456 4.0338 2.6237 0
M  V30 4099 C 406.808 4.57227 2.50186 0
M  V30 4100 C 404.136 5.36501 2.37451 0
M  V30 4101 C 406.488 5.90547 2.26797 0
M  V30 4102 C 405.152 6.30245 2.1988 0
M  V30 4103 H 404.422 0.471171 0.571908 0
M  V30 4104 H 407.069 1.67347 0.930974 0
M  V30 4105 H 405.374 1.68342 3.53791 0
M  V30 4106 H 407.071 2.0621 3.43917 0
M  V30 4107 H 403.661 3.30644 2.72713 0
M  V30 4108 H 407.845 4.2678 2.53323 0
M  V30 4109 H 403.101 5.66259 2.30567 0
M  V30 4110 H 407.275 6.63274 2.12228 0
M  V30 4111 H 404.902 7.33328 2.00333 0
M  V30 4112 N 406.477 -1.02803 1.19454 0
M  V30 4113 C 407.425 -2.13213 0.929673 0
M  V30 4114 C 408.419 -1.69011 -0.114806 0
M  V30 4115 O 409.625 -1.79967 0.0345147 0
M  V30 4116 H 406 -0.69662 0.28324 0
M  V30 4117 H 407.971 -2.32744 1.86743 0
M  V30 4118 C 406.72 -3.4429 0.485797 0
M  V30 4119 H 406.043 -3.7872 1.28105 0
M  V30 4120 H 407.483 -4.22638 0.339582 0
M  V30 4121 C 405.942 -3.27258 -0.800244 0
M  V30 4122 O 406.472 -3.55967 -1.86146 0
M  V30 4123 N 404.678 -2.80545 -0.75781 0
M  V30 4124 H 404.225 -2.57382 0.106039 0
M  V30 4125 H 404.183 -2.6953 -1.61867 0
M  V30 4126 N 407.956 -0.998596 -1.21925 0
M  V30 4127 C 409.186 -0.695276 -1.94549 0
M  V30 4128 C 409.594 0.745079 -1.73911 0
M  V30 4129 O 408.937 1.51507 -1.03881 0
M  V30 4130 C 408.999 -0.928485 -3.47303 0
M  V30 4131 C 408.663 -2.35443 -3.91683 0
M  V30 4132 C 409.66 -3.33428 -3.98901 0
M  V30 4133 C 407.345 -2.69038 -4.24174 0
M  V30 4134 C 409.339 -4.63079 -4.37992 0
M  V30 4135 C 407.026 -3.98906 -4.62944 0
M  V30 4136 C 408.024 -4.95738 -4.69822 0
M  V30 4137 O 407.712 -6.23285 -5.07711 0
M  V30 4138 H 407.444 -0.255902 -0.625692 0
M  V30 4139 H 409.998 -1.33767 -1.5587 0
M  V30 4140 H 408.228 -0.228917 -3.86022 0
M  V30 4141 H 409.917 -0.619539 -4.01144 0
M  V30 4142 H 410.683 -3.08807 -3.73983 0
M  V30 4143 H 406.562 -1.94367 -4.18022 0
M  V30 4144 H 410.106 -5.38658 -4.43275 0
M  V30 4145 H 406.003 -4.23314 -4.87314 0
M  V30 4146 H 406.771 -6.27306 -5.25766 0
M  V30 4147 N 409.434 1.37368 -0.772513 0
M  V30 4148 C 410.364 2.32856 -0.173304 0
M  V30 4149 C 411.345 1.55818 0.682262 0
M  V30 4150 O 412.53 1.84052 0.619566 0
M  V30 4151 C 409.66 3.40048 0.706007 0
M  V30 4152 C 408.614 4.27973 -0.0483144 0
M  V30 4153 C 407.94 5.26184 0.950491 0
M  V30 4154 C 409.24 5.07665 -1.22776 0
M  V30 4155 H 410.934 2.83217 -0.971002 0
M  V30 4156 H 408.48 1.3617 -0.468377 0
M  V30 4157 H 410.433 4.05827 1.13501 0
M  V30 4158 H 409.157 2.88214 1.53623 0
M  V30 4159 H 407.816 3.63726 -0.458107 0
M  V30 4160 H 407.464 4.7063 1.77529 0
M  V30 4161 H 407.164 5.85872 0.450314 0
M  V30 4162 H 408.688 5.94838 1.37842 0
M  V30 4163 H 410.102 5.66578 -0.875366 0
M  V30 4164 H 408.499 5.76681 -1.66007 0
M  V30 4165 H 409.569 4.40294 -2.03149 0
M  V30 4166 N 410.912 0.523116 1.48665 0
M  V30 4167 C 412.323 0.0808997 1.86525 0
M  V30 4168 C 412.674 -1.33975 1.43336 0
M  V30 4169 O 411.799 -2.00221 0.821009 0
M  V30 4170 C 412.394 0.140037 3.3851 0
M  V30 4171 C 410.953 -0.246948 3.75589 0
M  V30 4172 C 410.1 0.502845 2.72703 0
M  V30 4173 H 413.051 0.734736 1.40667 0
M  V30 4174 H 413.072 -0.649945 3.74908 0
M  V30 4175 H 412.584 1.17412 3.69914 0
M  V30 4176 H 410.685 -1.28343 3.49798 0
M  V30 4177 H 410.798 0.0878859 4.79019 0
M  V30 4178 H 409.162 -0.0500581 2.54651 0
M  V30 4179 H 409.945 1.53743 3.0695 0
M  V30 4180 N 412.39 -1.55475 0.257931 0
M  V30 4181 C 413.32 -2.24815 -0.630912 0
M  V30 4182 C 414.301 -1.23224 -1.17259 0
M  V30 4183 O 415.486 -1.51904 -1.20991 0
M  V30 4184 C 412.616 -2.95609 -1.82298 0
M  V30 4185 C 411.57 -4.03982 -1.41359 0
M  V30 4186 C 410.896 -4.6226 -2.68738 0
M  V30 4187 C 412.196 -5.19109 -0.57648 0
M  V30 4188 H 413.89 -2.99354 -0.0526878 0
M  V30 4189 H 411.436 -1.4398 -0.023901 0
M  V30 4190 H 413.389 -3.42822 -2.45054 0
M  V30 4191 H 412.113 -2.18577 -2.42676 0
M  V30 4192 H 410.772 -3.57555 -0.809324 0
M  V30 4193 H 410.42 -3.81915 -3.27338 0
M  V30 4194 H 410.12 -5.35424 -2.42065 0
M  V30 4195 H 411.644 -5.12212 -3.32372 0
M  V30 4196 H 413.058 -5.62479 -1.10861 0
M  V30 4197 H 411.455 -5.98729 -0.405351 0
M  V30 4198 H 412.525 -4.83174 0.408776 0
M  V30 4199 N 413.868 0.0150385 -1.57593 0
M  V30 4200 C 415.093 0.718067 -1.94573 0
M  V30 4201 C 415.518 1.6734 -0.859005 0
M  V30 4202 O 414.876 1.80362 0.184147 0
M  V30 4203 C 414.924 1.43918 -3.30636 0
M  V30 4204 O 414.028 2.55299 -3.23876 0
M  V30 4205 H 413.369 0.192125 -0.635597 0
M  V30 4206 H 415.899 -0.0336708 -2.04572 0
M  V30 4207 H 415.909 1.80598 -3.65853 0
M  V30 4208 H 414.584 0.738619 -4.09289 0
M  V30 4209 H 413.161 2.21058 -3.00312 0
M  V30 4210 N 415.346 1.54954 0.287554 0
M  V30 4211 C 416.571 1.79209 1.04397 0
M  V30 4212 C 416.996 0.556431 1.79682 0
M  V30 4213 O 416.354 -0.493518 1.74454 0
M  V30 4214 C 416.402 3.00739 1.98969 0
M  V30 4215 O 415.506 2.74805 3.075 0
M  V30 4216 H 414.847 0.592755 0.299227 0
M  V30 4217 H 417.377 2.02068 0.320886 0
M  V30 4218 H 417.387 3.29077 2.4119 0
M  V30 4219 H 416.062 3.90329 1.43582 0
M  V30 4220 H 414.639 2.57523 2.69697 0
M  V30 4221 N 416.824 -0.551391 1.4764 0
M  V30 4222 C 417.756 -1.67333 1.56628 0
M  V30 4223 C 418.769 -1.56398 0.452045 0
M  V30 4224 O 419.958 -1.6325 0.721926 0
M  V30 4225 C 417.058 -3.05841 1.45994 0
M  V30 4226 C 416.231 -3.42472 2.72088 0
M  V30 4227 C 415.29 -4.60168 2.55209 0
M  V30 4228 O 414.316 -4.64458 3.2904 0
M  V30 4229 N 415.518 -5.57024 1.63416 0
M  V30 4230 H 418.283 -1.60066 2.53375 0
M  V30 4231 H 415.844 -0.738169 1.44093 0
M  V30 4232 H 417.836 -3.8242 1.32428 0
M  V30 4233 H 416.406 -3.07302 0.573071 0
M  V30 4234 H 415.626 -2.55284 3.00373 0
M  V30 4235 H 416.914 -3.63723 3.55785 0
M  V30 4236 H 416.312 -5.56319 1.02594 0
M  V30 4237 H 414.869 -6.32906 1.558 0
M  V30 4238 N 418.302 -1.35869 -0.798587 0
M  V30 4239 C 419.579 -1.20145 -1.54352 0
M  V30 4240 C 419.959 0.216161 -2.0999 0
M  V30 4241 O 419.307 1.22068 -1.93162 0
M  V30 4242 C 419.517 -2.27602 -2.64572 0
M  V30 4243 C 420.865 -2.63811 -3.32699 0
M  V30 4244 O 421.889 -2.26576 -2.74849 0
M  V30 4245 O 420.748 -3.27866 -4.37226 0
M  V30 4246 H 417.842 -0.467248 -0.682355 0
M  V30 4247 H 420.388 -1.47574 -0.837859 0
M  V30 4248 H 419.16 -3.2265 -2.21388 0
M  V30 4249 H 418.783 -2.01488 -3.42766 0
M  V30 4250 N 419.78 1.02168 -1.19998 0
M  V30 4251 C 421.191 1.57135 -1.00825 0
M  V30 4252 C 421.542 1.91276 0.436818 0
M  V30 4253 O 420.667 1.71679 1.3174 0
M  V30 4254 C 421.262 2.85514 -1.82393 0
M  V30 4255 C 419.821 3.37027 -1.67601 0
M  V30 4256 C 418.968 2.10388 -1.80644 0
M  V30 4257 H 421.919 0.846106 -1.34264 0
M  V30 4258 H 421.94 3.56711 -1.32429 0
M  V30 4259 H 421.452 2.60634 -2.87561 0
M  V30 4260 H 419.553 3.66878 -0.650485 0
M  V30 4261 H 419.666 4.09572 -2.4857 0
M  V30 4262 H 418.03 2.22601 -1.23778 0
M  V30 4263 H 418.813 1.8794 -2.87286 0
M  V30 4264 N 421.258 1.00505 1.21394 0
M  V30 4265 C 422.221 0.570459 2.21987 0
M  V30 4266 C 423.221 -0.353211 1.56873 0
M  V30 4267 O 424.411 -0.14349 1.73608 0
M  V30 4268 C 421.543 -0.168555 3.40483 0
M  V30 4269 H 422.736 1.46021 2.6195 0
M  V30 4270 H 420.289 0.793565 1.34656 0
M  V30 4271 H 421.024 -1.07374 3.06009 0
M  V30 4272 H 420.809 0.494823 3.88965 0
M  V30 4273 H 422.299 -0.460362 4.15055 0
M  V30 4274 N 422.737 -1.36956 0.779787 0
M  V30 4275 C 424.148 -1.82094 0.412156 0
M  V30 4276 C 424.499 -1.64926 -1.06273 0
M  V30 4277 O 423.624 -1.16483 -1.82375 0
M  V30 4278 C 424.219 -3.3059 0.741319 0
M  V30 4279 C 422.778 -3.73974 0.426641 0
M  V30 4280 C 421.925 -2.59368 0.980987 0
M  V30 4281 H 424.876 -1.25314 0.973758 0
M  V30 4282 H 424.897 -3.80489 0.028887 0
M  V30 4283 H 424.409 -3.43054 1.81482 0
M  V30 4284 H 422.51 -3.67076 -0.639215 0
M  V30 4285 H 422.623 -4.69778 0.940515 0
M  V30 4286 H 420.987 -2.51463 0.404757 0
M  V30 4287 H 421.77 -2.74621 2.06005 0
M  V30 4288 N 424.215 -0.530993 -1.48385 0
M  V30 4289 C 425.461 0.00274135 -2.028 0
M  V30 4290 C 425.794 1.33838 -1.40716 0
M  V30 4291 O 425.069 1.86465 -0.553277 0
M  V30 4292 C 425.352 0.123676 -3.59888 0
M  V30 4293 C 425.205 -1.2372 -4.3245 0
M  V30 4294 C 426.524 0.849967 -4.31814 0
M  V30 4295 H 423.643 -0.000477758 -0.737 0
M  V30 4296 H 426.285 -0.688217 -1.77098 0
M  V30 4297 H 424.435 0.712157 -3.81917 0
M  V30 4298 H 426.107 -1.86687 -4.21836 0
M  V30 4299 H 424.35 -1.81882 -3.93829 0
M  V30 4300 H 425.021 -1.10557 -5.40815 0
M  V30 4301 H 427.497 0.350572 -4.14621 0
M  V30 4302 H 426.373 0.903486 -5.41413 0
M  V30 4303 H 426.634 1.90047 -3.99167 0
M  V30 4304 N 425.693 1.55336 -0.266172 0
M  V30 4305 C 427.109 1.59356 0.0882065 0
M  V30 4306 C 427.309 1.2834 1.55342 0
M  V30 4307 O 426.365 1.03996 2.30089 0
M  V30 4308 C 427.678 2.99409 -0.278364 0
M  V30 4309 C 429.226 3.12196 -0.224243 0
M  V30 4310 C 429.701 4.545 -0.565123 0
M  V30 4311 N 431.192 4.60313 -0.51634 0
M  V30 4312 C 431.927 5.68434 -0.753013 0
M  V30 4313 N 431.423 6.84738 -1.05383 0
M  V30 4314 N 433.216 5.57942 -0.682414 0
M  V30 4315 H 425.367 1.73764 -1.22147 0
M  V30 4316 H 427.63 0.809822 -0.492841 0
M  V30 4317 H 427.336 3.2691 -1.29703 0
M  V30 4318 H 427.21 3.75228 0.385186 0
M  V30 4319 H 429.597 2.84464 0.78512 0
M  V30 4320 H 429.678 2.38609 -0.921922 0
M  V30 4321 H 429.322 4.82956 -1.57213 0
M  V30 4322 H 429.252 5.26374 0.154248 0
M  V30 4323 H 431.743 3.7676 -0.29335 0
M  V30 4324 H 432.056 7.63088 -1.22133 0
M  V30 4325 H 430.401 6.86375 -1.09151 0
M  V30 4326 H 433.592 4.65958 -0.44731 0
M  V30 4327 H 433.765 6.4213 -0.870248 0
M  V30 4328 N 427.171 -0.0066808 1.57599 0
M  V30 4329 C 428.081 -1.01671 2.11424 0
M  V30 4330 C 429.097 -1.38143 1.05795 0
M  V30 4331 O 430.273 -1.47011 1.37658 0
M  V30 4332 C 427.338 -2.29192 2.60139 0
M  V30 4333 C 426.399 -1.99094 3.80342 0
M  V30 4334 C 425.632 -3.20535 4.26724 0
M  V30 4335 O 425.855 -4.3199 3.72479 0
M  V30 4336 O 424.789 -3.04924 5.18946 0
M  V30 4337 H 428.615 -0.589181 2.9793 0
M  V30 4338 H 426.2 -0.225091 1.47695 0
M  V30 4339 H 428.082 -3.0412 2.917 0
M  V30 4340 H 426.757 -2.71195 1.76733 0
M  V30 4341 H 425.664 -1.21663 3.53764 0
M  V30 4342 H 426.997 -1.61931 4.648 0
M  V30 4343 N 428.649 -1.55105 -0.279332 0
M  V30 4344 C 429.889 -1.7716 -1.01949 0
M  V30 4345 C 430.253 -0.557511 -1.83728 0
M  V30 4346 O 431.454 -0.656198 -2.60667 0
M  V30 4347 C 429.725 -3.0372 -1.88385 0
M  V30 4348 S 431.284 -3.46868 -2.68752 0
M  V30 4349 H 428.102 -0.62253 -0.343478 0
M  V30 4350 H 430.704 -1.93329 -0.290572 0
M  V30 4351 H 429.408 -3.90184 -1.2722 0
M  V30 4352 H 428.939 -2.902 -2.65608 0
M  V30 4353 H 430.954 -3.05643 -3.90892 0
M  V30 4354 N 430.127 0.543554 -1.4793 0
M  V30 4355 C 431.077 1.64527 -1.57844 0
M  V30 4356 C 432.061 1.54869 -0.436408 0
M  V30 4357 O 433.253 1.63119 -0.687101 0
M  V30 4358 C 430.382 3.03281 -1.6086 0
M  V30 4359 C 429.468 3.18093 -2.80495 0
M  V30 4360 N 429.859 3.02923 -4.05057 0
M  V30 4361 C 428.157 3.49121 -2.77543 0
M  V30 4362 C 428.858 3.20791 -4.85251 0
M  V30 4363 N 427.834 3.47749 -4.17818 0
M  V30 4364 H 431.636 1.51388 -2.5191 0
M  V30 4365 H 429.15 0.748671 -1.44113 0
M  V30 4366 H 431.147 3.82403 -1.66054 0
M  V30 4367 H 429.807 3.17521 -0.678996 0
M  V30 4368 H 430.818 2.79966 -4.35705 0
M  V30 4369 H 427.495 3.69804 -1.93781 0
M  V30 4370 H 428.885 3.13915 -5.9406 0
M  V30 4371 N 431.605 1.3629 0.791371 0
M  V30 4372 C 432.882 1.20962 1.53712 0
M  V30 4373 C 433.262 -0.205021 2.10102 0
M  V30 4374 O 432.61 -1.21042 1.93807 0
M  V30 4375 C 432.82 2.29002 2.63361 0
M  V30 4376 C 434.168 2.65572 3.31295 0
M  V30 4377 O 435.192 2.2803 2.73643 0
M  V30 4378 O 434.051 3.3018 4.35481 0
M  V30 4379 H 431.145 0.47086 0.679867 0
M  V30 4380 H 433.691 1.48016 0.830021 0
M  V30 4381 H 432.463 3.2382 2.19674 0
M  V30 4382 H 432.086 2.03303 3.41692 0
M  V30 4383 N 433.083 -1.0153 1.20538 0
M  V30 4384 C 434.494 -1.56598 1.01657 0
M  V30 4385 C 434.845 -1.91505 -0.426668 0
M  V30 4386 O 433.97 -1.72375 -1.30827 0
M  V30 4387 C 434.565 -2.84542 1.83905 0
M  V30 4388 C 433.124 -3.36133 1.69386 0
M  V30 4389 C 432.271 -2.09427 1.81757 0
M  V30 4390 H 435.222 -0.838974 1.34711 0
M  V30 4391 H 435.243 -3.56004 1.34319 0
M  V30 4392 H 434.755 -2.59105 2.8894 0
M  V30 4393 H 432.856 -3.66528 0.669933 0
M  V30 4394 H 432.969 -4.08248 2.50739 0
M  V30 4395 H 431.333 -2.21941 1.24957 0
M  V30 4396 H 432.116 -1.86414 2.88279 0
M  V30 4397 N 434.561 -1.01147 -1.20859 0
M  V30 4398 C 435.786 -0.716698 -1.94623 0
M  V30 4399 C 436.211 0.715415 -1.73964 0
M  V30 4400 O 435.569 1.49157 -1.03062 0
M  V30 4401 C 435.617 -1.0513 -3.44935 0
M  V30 4402 O 434.721 -0.160131 -4.12089 0
M  V30 4403 H 434.062 -0.266404 -0.608214 0
M  V30 4404 H 436.592 -1.35346 -1.53436 0
M  V30 4405 H 436.602 -1.00086 -3.95533 0
M  V30 4406 H 435.277 -2.09475 -3.59295 0
M  V30 4407 H 433.854 -0.267657 -3.71938 0
M  V30 4408 N 436.039 1.36541 -0.78704 0
M  V30 4409 C 437.316 1.9355 -0.282424 0
M  V30 4410 C 437.696 1.71919 1.22503 0
M  V30 4411 O 437.044 1.07677 2.01539 0
M  V30 4412 C 437.254 3.4246 -0.672462 0
M  V30 4413 C 438.602 4.19582 -0.650863 0
M  V30 4414 O 439.626 3.50889 -0.612789 0
M  V30 4415 O 438.485 5.42106 -0.691623 0
M  V30 4416 H 435.579 0.824091 -0.0693 0
M  V30 4417 H 438.125 1.45736 -0.869423 0
M  V30 4418 H 436.897 3.51851 -1.71221 0
M  V30 4419 H 436.52 3.97556 -0.0592211 0
M  V30 4420 N 437.518 0.538854 1.48102 0
M  V30 4421 C 438.934 0.19732 1.58376 0
M  V30 4422 C 439.134 -1.29971 1.5398 0
M  V30 4423 O 438.19 -2.07861 1.43352 0
M  V30 4424 C 439.503 0.807716 2.89649 0
M  V30 4425 C 441.051 0.77726 3.03196 0
M  V30 4426 C 441.526 1.36639 4.37143 0
M  V30 4427 N 443.017 1.32875 4.43732 0
M  V30 4428 C 443.752 1.7544 5.45901 0
M  V30 4429 N 443.248 2.25776 6.54979 0
M  V30 4430 N 445.041 1.66623 5.36836 0
M  V30 4431 H 437.192 1.5117 1.49202 0
M  V30 4432 H 439.455 0.629327 0.708979 0
M  V30 4433 H 439.161 1.85909 2.98548 0
M  V30 4434 H 439.035 0.289975 3.76084 0
M  V30 4435 H 441.422 -0.265374 2.93904 0
M  V30 4436 H 441.503 1.33256 2.18349 0
M  V30 4437 H 441.147 2.408 4.47189 0
M  V30 4438 H 441.077 0.786689 5.20691 0
M  V30 4439 H 443.568 0.96037 3.65493 0
M  V30 4440 H 443.881 2.56226 7.29087 0
M  V30 4441 H 442.226 2.29775 6.55918 0
M  V30 4442 H 445.417 1.27089 4.50517 0
M  V30 4443 H 445.59 2.00115 6.16326 0
M  V30 4444 N 438.996 -1.55193 0.274407 0
M  V30 4445 C 439.926 -2.25471 -0.607032 0
M  V30 4446 C 440.907 -1.24461 -1.15946 0
M  V30 4447 O 442.092 -1.53179 -1.19373 0
M  V30 4448 C 439.222 -2.97526 -1.79153 0
M  V30 4449 C 438.176 -4.05459 -1.37067 0
M  V30 4450 C 437.502 -4.65084 -2.6382 0
M  V30 4451 C 438.802 -5.19691 -0.521389 0
M  V30 4452 H 440.496 -2.99393 -0.0209343 0
M  V30 4453 H 438.042 -1.43997 -0.00862866 0
M  V30 4454 H 439.995 -3.45402 -2.41404 0
M  V30 4455 H 438.719 -2.21138 -2.40344 0
M  V30 4456 H 437.378 -3.58393 -0.771355 0
M  V30 4457 H 437.026 -3.85365 -3.23268 0
M  V30 4458 H 436.726 -5.37961 -2.36372 0
M  V30 4459 H 438.25 -5.15708 -3.26921 0
M  V30 4460 H 439.664 -5.63623 -1.04889 0
M  V30 4461 H 438.061 -5.99126 -0.341825 0
M  V30 4462 H 439.131 -4.82713 0.46 0
M  V30 4463 N 440.474 -0.00167713 -1.576 0
M  V30 4464 C 441.72 0.683832 -1.90923 0
M  V30 4465 C 442.053 1.7333 -0.875799 0
M  V30 4466 O 441.328 1.94215 0.10525 0
M  V30 4467 C 441.611 1.32543 -3.3482 0
M  V30 4468 C 441.464 0.287387 -4.48881 0
M  V30 4469 C 442.783 2.25114 -3.78169 0
M  V30 4470 H 439.902 0.247125 -0.694333 0
M  V30 4471 H 442.544 -0.0533149 -1.89925 0
M  V30 4472 H 440.694 1.95372 -3.35801 0
M  V30 4473 H 442.366 -0.341346 -4.60035 0
M  V30 4474 H 440.609 -0.39017 -4.32042 0
M  V30 4475 H 441.28 0.775393 -5.46527 0
M  V30 4476 H 443.756 1.723 -3.7875 0
M  V30 4477 H 442.632 2.66971 -4.79602 0
M  V30 4478 H 442.893 3.13092 -3.12131 0
M  V30 4479 N 441.952 1.55251 0.271103 0
M  V30 4480 C 443.363 1.66635 0.842007 0
M  V30 4481 C 443.714 0.594631 1.86972 0
M  V30 4482 O 442.839 -0.263532 2.14789 0
M  V30 4483 C 443.434 3.02082 1.53401 0
M  V30 4484 C 441.993 3.15487 2.05293 0
M  V30 4485 C 441.14 2.62438 0.895631 0
M  V30 4486 H 444.091 1.58629 0.0474117 0
M  V30 4487 H 444.112 2.95176 2.40107 0
M  V30 4488 H 443.624 3.80062 0.785786 0
M  V30 4489 H 441.725 2.42284 2.83071 0
M  V30 4490 H 441.838 4.22075 2.26693 0
M  V30 4491 H 440.202 2.19644 1.28953 0
M  V30 4492 H 440.985 3.42923 0.160878 0
M  V30 4493 N 443.43 -0.535701 1.48216 0
M  V30 4494 C 444.34 -1.66785 1.64985 0
M  V30 4495 C 445.356 -1.65654 0.532414 0
M  V30 4496 O 446.532 -1.8471 0.80275 0
M  V30 4497 C 443.597 -3.0326 1.68031 0
M  V30 4498 C 442.658 -3.1529 2.9136 0
M  V30 4499 C 441.891 -4.45255 2.94252 0
M  V30 4500 O 442.114 -5.32011 2.05719 0
M  V30 4501 O 441.048 -4.6153 3.86359 0
M  V30 4502 H 444.874 -1.55576 2.60825 0
M  V30 4503 H 442.459 -0.70815 1.31551 0
M  V30 4504 H 444.341 -3.84436 1.72589 0
M  V30 4505 H 443.016 -3.14805 0.753628 0
M  V30 4506 H 441.923 -2.3343 2.92337 0
M  V30 4507 H 443.256 -3.08658 3.83394 0
M  V30 4508 N 444.908 -1.36708 -0.784132 0
M  V30 4509 C 445.838 -1.34153 -1.91116 0
M  V30 4510 C 446.819 -0.212121 -1.68772 0
M  V30 4511 O 448.004 -0.410581 -1.8981 0
M  V30 4512 C 445.134 -1.13535 -3.28218 0
M  V30 4513 C 444.088 -2.23356 -3.65097 0
M  V30 4514 C 443.414 -1.87875 -5.00607 0
M  V30 4515 C 444.714 -3.65473 -3.73131 0
M  V30 4516 H 446.408 -2.28459 -1.93512 0
M  V30 4517 H 443.954 -1.09973 -0.929618 0
M  V30 4518 H 445.907 -1.10381 -4.06687 0
M  V30 4519 H 444.631 -0.156804 -3.26223 0
M  V30 4520 H 443.29 -2.25645 -2.88929 0
M  V30 4521 H 442.938 -0.885814 -4.95139 0
M  V30 4522 H 442.638 -2.61406 -5.26252 0
M  V30 4523 H 444.162 -1.86286 -5.81489 0
M  V30 4524 H 445.576 -3.65382 -4.41779 0
M  V30 4525 H 443.973 -4.37953 -4.10265 0
M  V30 4526 H 445.043 -3.99995 -2.74102 0
M  V30 4527 N 446.386 1.0089 -1.21074 0
M  V30 4528 C 447.663 1.71834 -0.934469 0
M  V30 4529 C 448.043 2.0368 0.554753 0
M  V30 4530 O 447.391 1.70742 1.51854 0
M  V30 4531 C 447.601 2.98061 -1.8155 0
M  V30 4532 C 448.949 3.7117 -2.06199 0
M  V30 4533 O 449.973 3.08034 -1.78867 0
M  V30 4534 O 448.832 4.84721 -2.52404 0
M  V30 4535 H 445.926 0.749253 -0.35007 0
M  V30 4536 H 448.472 1.06668 -1.31985 0
M  V30 4537 H 447.244 2.70908 -2.82355 0
M  V30 4538 H 446.867 3.70968 -1.43068 0
M  V30 4539 N 447.864 1.01787 1.20321 0
M  V30 4540 C 449.092 0.727194 1.937 0
M  V30 4541 C 449.507 -0.712305 1.74848 0
M  V30 4542 O 448.864 -1.48327 1.06327 0
M  V30 4543 C 448.915 1.05497 3.45764 0
M  V30 4544 O 448.636 2.43794 3.64 0
M  V30 4545 C 450.137 0.785534 4.36285 0
M  V30 4546 H 447.357 0.266939 0.615617 0
M  V30 4547 H 449.901 1.35939 1.52777 0
M  V30 4548 H 448.056 0.468158 3.84561 0
M  V30 4549 H 448.47 2.55656 4.57974 0
M  V30 4550 H 449.944 1.06495 5.4163 0
M  V30 4551 H 450.421 -0.280273 4.38305 0
M  V30 4552 H 451.027 1.35456 4.03152 0
M  V30 4553 N 449.342 -1.36122 0.79427 0
M  V30 4554 C 450.591 -1.98361 0.365464 0
M  V30 4555 C 450.904 -1.6374 -1.06997 0
M  V30 4556 O 452.11 -2.19251 -1.60129 0
M  V30 4557 C 450.566 -3.54821 0.602496 0
M  V30 4558 C 450.174 -3.98362 2.04967 0
M  V30 4559 C 451.918 -4.2383 0.238437 0
M  V30 4560 C 449.825 -5.47619 2.2331 0
M  V30 4561 H 448.755 -0.742193 0.13291 0
M  V30 4562 H 451.406 -1.55354 0.976589 0
M  V30 4563 H 449.788 -3.95922 -0.078409 0
M  V30 4564 H 450.962 -3.68447 2.76737 0
M  V30 4565 H 449.277 -3.42206 2.37243 0
M  V30 4566 H 451.874 -5.33529 0.353705 0
M  V30 4567 H 452.217 -4.08264 -0.814006 0
M  V30 4568 H 452.75 -3.88108 0.872769 0
M  V30 4569 H 449.489 -5.68138 3.26955 0
M  V30 4570 H 449.009 -5.79145 1.5605 0
M  V30 4571 H 450.688 -6.13911 2.0426 0
M  V30 4572 N 450.82 -0.546701 -1.47814 0
M  V30 4573 C 452.066 -0.0187684 -2.02791 0
M  V30 4574 C 452.399 1.32338 -1.42128 0
M  V30 4575 O 451.674 1.85867 -0.573023 0
M  V30 4576 C 451.957 0.0854985 -3.59998 0
M  V30 4577 C 451.81 -1.283 -4.31114 0
M  V30 4578 C 453.129 0.80412 -4.32691 0
M  V30 4579 H 450.248 -0.0082946 -0.736953 0
M  V30 4580 H 452.89 -0.706962 -1.76358 0
M  V30 4581 H 451.04 0.671609 -3.82651 0
M  V30 4582 H 452.712 -1.91151 -4.19832 0
M  V30 4583 H 450.955 -1.86049 -3.91878 0
M  V30 4584 H 451.626 -1.16287 -5.39612 0
M  V30 4585 H 454.102 0.306576 -4.14969 0
M  V30 4586 H 452.978 0.846011 -5.42341 0
M  V30 4587 H 453.239 1.85802 -4.01161 0
M  V30 4588 N 452.299 1.55045 -0.282633 0
M  V30 4589 C 453.71 1.85473 0.213655 0
M  V30 4590 C 454.061 1.20465 1.54863 0
M  V30 4591 O 453.186 0.495676 2.10647 0
M  V30 4592 C 453.781 3.36496 0.394445 0
M  V30 4593 C 452.34 3.67022 0.834961 0
M  V30 4594 C 451.487 2.77218 -0.0674081 0
M  V30 4595 H 454.438 1.50478 -0.504202 0
M  V30 4596 H 454.459 3.60007 1.23186 0
M  V30 4597 H 453.971 3.83782 -0.577326 0
M  V30 4598 H 452.072 3.25241 1.81794 0
M  V30 4599 H 452.185 4.74433 0.667075 0
M  V30 4600 H 450.549 2.5069 0.450196 0
M  V30 4601 H 451.332 3.2732 -1.0352 0
M  V30 4602 N 453.777 0.010035 1.57597 0
M  V30 4603 C 454.707 -0.976857 2.12084 0
M  V30 4604 C 455.688 -1.35191 1.03235 0
M  V30 4605 O 456.873 -1.43389 1.3097 0
M  V30 4606 C 454.003 -2.26548 2.63236 0
M  V30 4607 C 452.957 -2.03175 3.76701 0
M  V30 4608 C 452.283 -3.38138 4.14206 0
M  V30 4609 C 453.583 -1.38625 5.03568 0
M  V30 4610 H 455.277 -0.523145 2.94794 0
M  V30 4611 H 452.823 -0.250195 1.4181 0
M  V30 4612 H 454.776 -2.95952 2.99984 0
M  V30 4613 H 453.5 -2.74051 1.77661 0
M  V30 4614 H 452.159 -1.36195 3.40362 0
M  V30 4615 H 451.807 -3.83363 3.25641 0
M  V30 4616 H 451.507 -3.23312 4.90656 0
M  V30 4617 H 453.031 -4.08841 4.53521 0
M  V30 4618 H 454.445 -1.98 5.38023 0
M  V30 4619 H 452.842 -1.34256 5.84889 0
M  V30 4620 H 453.912 -0.356722 4.83586 0
M  V30 4621 N 455.255 -1.55392 -0.262866 0
M  V30 4622 C 456.165 -1.92077 -1.34698 0
M  V30 4623 C 457.181 -0.819227 -1.53508 0
M  V30 4624 O 458.357 -1.11921 -1.67439 0
M  V30 4625 C 455.422 -2.19407 -2.68443 0
M  V30 4626 C 454.483 -3.42905 -2.58292 0
M  V30 4627 C 453.716 -3.68921 -3.85659 0
M  V30 4628 O 453.939 -2.97275 -4.8681 0
M  V30 4629 O 452.873 -4.62455 -3.85252 0
M  V30 4630 H 456.699 -2.84384 -1.06581 0
M  V30 4631 H 454.284 -1.42069 -0.462264 0
M  V30 4632 H 456.166 -2.38365 -3.47506 0
M  V30 4633 H 454.841 -1.30282 -2.96325 0
M  V30 4634 H 453.748 -3.29272 -1.7757 0
M  V30 4635 H 455.081 -4.32282 -2.35358 0
M  V30 4636 N 456.733 0.527833 -1.48498 0
M  V30 4637 C 457.958 1.313 -1.60546 0
M  V30 4638 C 458.383 1.86199 -0.26672 0
M  V30 4639 O 457.741 1.64513 0.761918 0
M  V30 4640 C 457.789 2.43818 -2.65678 0
M  V30 4641 O 456.893 3.46916 -2.22987 0
M  V30 4642 H 456.234 0.388784 -0.538277 0
M  V30 4643 H 458.764 0.634896 -1.945 0
M  V30 4644 H 458.774 2.89973 -2.87018 0
M  V30 4645 H 457.449 2.03222 -3.62869 0
M  V30 4646 H 456.026 3.06864 -2.11869 0
M  V30 4647 N 458.211 1.37122 0.776871 0
M  V30 4648 C 459.439 1.3523 1.5659 0
M  V30 4649 C 459.854 -0.0635518 1.88693 0
M  V30 4650 O 459.211 -1.02394 1.51069 0
M  V30 4651 C 459.262 2.18583 2.8793 0
M  V30 4652 O 458.983 3.5465 2.57206 0
M  V30 4653 C 460.484 2.24612 3.82183 0
M  V30 4654 H 457.704 0.4634 0.485285 0
M  V30 4655 H 460.248 1.80392 0.963266 0
M  V30 4656 H 458.403 1.76943 3.4463 0
M  V30 4657 H 458.817 3.98286 3.41275 0
M  V30 4658 H 460.291 2.87267 4.71361 0
M  V30 4659 H 460.768 1.25309 4.20944 0
M  V30 4660 H 461.374 2.66543 3.31414 0
M  V30 4661 N 459.689 -1.00246 1.21608 0
M  V30 4662 C 460.636 -2.09073 0.977613 0
M  V30 4663 C 461.606 -1.65815 -0.097297 0
M  V30 4664 O 462.791 -1.90734 0.0503445 0
M  V30 4665 C 459.931 -3.40671 0.551133 0
M  V30 4666 C 459.044 -3.97326 1.69576 0
M  V30 4667 C 458.179 -5.17043 1.2182 0
M  V30 4668 C 457.218 -5.65813 2.335 0
M  V30 4669 N 456.355 -6.76778 1.86859 0
M  V30 4670 H 461.195 -2.28806 1.90924 0
M  V30 4671 H 458.732 -1.12186 0.951452 0
M  V30 4672 H 460.69 -4.16225 0.285097 0
M  V30 4673 H 459.32 -3.20967 -0.343489 0
M  V30 4674 H 458.372 -3.18734 2.07637 0
M  V30 4675 H 459.684 -4.29511 2.53617 0
M  V30 4676 H 458.838 -5.99852 0.908975 0
M  V30 4677 H 457.577 -4.86458 0.347869 0
M  V30 4678 H 456.582 -4.81599 2.65222 0
M  V30 4679 H 457.807 -5.98427 3.21033 0
M  V30 4680 H 455.753 -6.47994 1.02174 0
M  V30 4681 H 455.67 -7.08231 2.64471 0
M  V30 4682 H 456.938 -7.63116 1.58978 0
M  V30 4683 N 461.167 -1.02423 -1.1978 0
M  V30 4684 C 462.13 -0.605703 -2.21052 0
M  V30 4685 C 463.13 0.328209 -1.57415 0
M  V30 4686 O 464.32 0.115853 -1.73814 0
M  V30 4687 C 461.452 0.114366 -3.40708 0
M  V30 4688 H 462.645 -1.5017 -2.59594 0
M  V30 4689 H 460.198 -0.814888 -1.33376 0
M  V30 4690 H 460.933 1.02492 -3.07678 0
M  V30 4691 H 460.718 -0.556641 -3.88129 0
M  V30 4692 H 462.208 0.394272 -4.15735 0
M  V30 4693 N 462.645 1.35699 -0.801477 0
M  V30 4694 C 463.875 2.02862 -0.3912 0
M  V30 4695 C 464.283 1.60552 1.00099 0
M  V30 4696 O 463.626 0.796215 1.65548 0
M  V30 4697 C 463.688 3.57386 -0.389299 0
M  V30 4698 C 463.352 4.22943 -1.73113 0
M  V30 4699 C 464.349 4.44984 -2.68859 0
M  V30 4700 C 462.034 4.60167 -2.01373 0
M  V30 4701 C 464.028 5.03345 -3.91053 0
M  V30 4702 C 461.715 5.18243 -3.23832 0
M  V30 4703 C 462.713 5.39773 -4.1849 0
M  V30 4704 O 462.401 5.96626 -5.38788 0
M  V30 4705 H 462.133 0.657341 -0.157732 0
M  V30 4706 H 464.687 1.74407 -1.08496 0
M  V30 4707 H 462.917 3.85011 0.361031 0
M  V30 4708 H 464.606 4.059 -0.0020365 0
M  V30 4709 H 465.372 4.1661 -2.48316 0
M  V30 4710 H 461.251 4.42726 -1.28508 0
M  V30 4711 H 464.795 5.20065 -4.64949 0
M  V30 4712 H 460.692 5.46044 -3.44248 0
M  V30 4713 H 461.46 6.15082 -5.40015 0
M  V30 4714 N 464.123 0.554532 1.47522 0
M  V30 4715 C 465.071 -0.207765 2.3167 0
M  V30 4716 C 466.065 -0.911914 1.4276 0
M  V30 4717 O 467.271 -0.833504 1.59539 0
M  V30 4718 H 463.646 -0.0858726 0.747081 0
M  V30 4719 H 465.617 0.521178 2.93813 0
M  V30 4720 C 464.366 -1.2263 3.25357 0
M  V30 4721 H 463.689 -0.693887 3.93732 0
M  V30 4722 H 465.129 -1.73062 3.87073 0
M  V30 4723 C 463.588 -2.27278 2.4869 0
M  V30 4724 O 464.118 -3.34156 2.22941 0
M  V30 4725 N 462.324 -2.01134 2.09746 0
M  V30 4726 H 461.871 -1.14232 2.30887 0
M  V30 4727 H 461.829 -2.71369 1.58765 0
M  V30 4728 N 465.601 -1.54893 0.290851 0
M  V30 4729 C 466.534 -2.19289 -0.631489 0
M  V30 4730 C 467.512 -1.15893 -1.14051 0
M  V30 4731 O 468.696 -1.4449 -1.21058 0
M  V30 4732 C 465.823 -2.82866 -1.86291 0
M  V30 4733 C 464.869 -3.997 -1.48801 0
M  V30 4734 S 465.702 -5.32641 -0.552644 0
M  V30 4735 C 466.858 -5.99696 -1.79209 0
M  V30 4736 H 467.091 -2.9718 -0.0843791 0
M  V30 4737 H 464.624 -1.54218 0.075031 0
M  V30 4738 H 466.582 -3.20124 -2.56964 0
M  V30 4739 H 465.243 -2.04839 -2.38117 0
M  V30 4740 H 464.436 -4.42932 -2.40473 0
M  V30 4741 H 464.038 -3.63947 -0.861321 0
M  V30 4742 H 466.33 -6.19886 -2.734 0
M  V30 4743 H 467.273 -6.94071 -1.40251 0
M  V30 4744 H 467.681 -5.29226 -1.96419 0
M  V30 4745 N 467.08 -0.0183926 -1.57589 0
M  V30 4746 C 468.326 0.663543 -1.91638 0
M  V30 4747 C 468.659 1.72392 -0.894134 0
M  V30 4748 O 467.934 1.94316 0.0846449 0
M  V30 4749 C 468.217 1.28984 -3.36207 0
M  V30 4750 C 468.07 0.239761 -4.49161 0
M  V30 4751 C 469.389 2.2109 -3.80536 0
M  V30 4752 H 466.508 0.239746 -0.696915 0
M  V30 4753 H 469.15 -0.073456 -1.89858 0
M  V30 4754 H 467.3 1.91799 -3.37854 0
M  V30 4755 H 468.972 -0.390119 -4.59647 0
M  V30 4756 H 467.215 -0.435972 -4.31604 0
M  V30 4757 H 467.886 0.717383 -5.47319 0
M  V30 4758 H 470.362 1.68273 -3.80557 0
M  V30 4759 H 469.238 2.61869 -4.82406 0
M  V30 4760 H 469.499 3.09764 -3.15434 0
M  V30 4761 N 468.558 1.5553 0.254621 0
M  V30 4762 C 469.835 1.6774 1.00611 0
M  V30 4763 C 470.215 0.555993 2.03647 0
M  V30 4764 O 469.563 -0.441583 2.24193 0
M  V30 4765 C 469.773 3.07725 1.6464 0
M  V30 4766 C 471.121 3.66074 2.15116 0
M  V30 4767 O 472.145 3.10476 1.74595 0
M  V30 4768 O 471.004 4.63526 2.89493 0
M  V30 4769 H 468.098 0.681958 0.467828 0
M  V30 4770 H 470.644 1.67863 0.24902 0
M  V30 4771 H 469.416 3.80792 0.900734 0
M  V30 4772 H 469.039 3.1158 2.46989 0
M  V30 4773 N 470.036 -0.519951 1.48776 0
M  V30 4774 C 471.285 -1.27175 1.56555 0
M  V30 4775 C 471.598 -1.9401 0.248869 0
M  V30 4776 O 472.804 -2.70725 0.205004 0
M  V30 4777 C 471.26 -2.30811 2.76142 0
M  V30 4778 C 470.868 -1.7 4.14493 0
M  V30 4779 C 472.612 -3.06937 2.9324 0
M  V30 4780 C 470.519 -2.71635 5.25327 0
M  V30 4781 H 469.449 -0.478329 0.582853 0
M  V30 4782 H 472.1 -0.547916 1.75129 0
M  V30 4783 H 470.482 -3.06274 2.51023 0
M  V30 4784 H 471.656 -1.00658 4.49672 0
M  V30 4785 H 469.971 -1.06331 4.02595 0
M  V30 4786 H 472.568 -3.82905 3.73213 0
M  V30 4787 H 472.911 -3.63409 2.03075 0
M  V30 4788 H 473.444 -2.38589 3.18308 0
M  V30 4789 H 470.183 -2.1997 6.1749 0
M  V30 4790 H 469.703 -3.39275 4.94624 0
M  V30 4791 H 471.382 -3.34429 5.53865 0
M  V30 4792 N 471.514 -1.37532 -0.769588 0
M  V30 4793 C 472.763 -1.32183 -1.5235 0
M  V30 4794 C 473.076 0.0906555 -1.9539 0
M  V30 4795 O 474.282 0.266628 -2.70188 0
M  V30 4796 C 472.738 -2.32029 -2.75119 0
M  V30 4797 C 472.346 -3.78816 -2.3917 0
M  V30 4798 C 474.09 -2.35694 -3.53056 0
M  V30 4799 C 471.997 -4.70388 -3.58453 0
M  V30 4800 H 470.927 -0.491275 -0.571984 0
M  V30 4801 H 473.578 -1.63004 -0.842739 0
M  V30 4802 H 471.96 -1.94229 -3.45096 0
M  V30 4803 H 473.134 -4.25466 -1.76962 0
M  V30 4804 H 471.449 -3.78117 -1.74402 0
M  V30 4805 H 474.046 -3.01312 -4.41718 0
M  V30 4806 H 474.389 -1.37117 -3.93071 0
M  V30 4807 H 474.922 -2.72212 -2.90078 0
M  V30 4808 H 471.661 -5.70102 -3.23518 0
M  V30 4809 H 471.181 -4.28442 -4.19758 0
M  V30 4810 H 472.86 -4.87628 -4.25239 0
M  V30 4811 N 472.992 0.995999 -1.22138 0
M  V30 4812 C 473.942 2.06988 -0.956042 0
M  V30 4813 C 474.926 1.60636 0.0921576 0
M  V30 4814 O 476.118 1.76607 -0.117958 0
M  V30 4815 C 473.247 3.39148 -0.532335 0
M  V30 4816 C 472.333 3.92142 -1.61509 0
M  V30 4817 N 472.724 4.18397 -2.84214 0
M  V30 4818 C 471.022 4.20514 -1.48606 0
M  V30 4819 C 471.723 4.61425 -3.54206 0
M  V30 4820 N 470.699 4.64934 -2.81669 0
M  V30 4821 H 474.501 2.25223 -1.88816 0
M  V30 4822 H 472.015 1.17748 -1.11845 0
M  V30 4823 H 474.012 4.15642 -0.323574 0
M  V30 4824 H 472.672 3.22314 0.392921 0
M  V30 4825 H 473.683 4.06682 -3.20671 0
M  V30 4826 H 470.36 4.12769 -0.626762 0
M  V30 4827 H 471.75 4.90387 -4.59315 0
M  V30 4828 N 474.47 1.03057 1.19235 0
M  V30 4829 C 475.695 0.74757 1.93458 0
M  V30 4830 C 476.12 -0.687648 1.7508 0
M  V30 4831 O 475.478 -1.47499 1.05422 0
M  V30 4832 C 475.526 1.10604 3.43219 0
M  V30 4833 O 474.63 0.225671 4.11782 0
M  V30 4834 H 473.971 0.276047 0.603899 0
M  V30 4835 H 476.501 1.3777 1.51263 0
M  V30 4836 H 476.511 1.06366 3.93891 0
M  V30 4837 H 475.186 2.15165 3.55917 0
M  V30 4838 H 473.763 0.326795 3.71465 0
M  V30 4839 N 475.948 -1.35272 0.808662 0
M  V30 4840 C 477.194 -1.99003 0.390581 0
M  V30 4841 C 477.527 -1.63999 -1.0401 0
M  V30 4842 O 476.802 -0.904368 -1.72196 0
M  V30 4843 C 477.085 -3.55454 0.576566 0
M  V30 4844 C 476.938 -4.00249 2.05233 0
M  V30 4845 C 478.257 -4.401 0.00354277 0
M  V30 4846 H 475.376 -0.722917 0.143388 0
M  V30 4847 H 478.018 -1.6039 1.01858 0
M  V30 4848 H 476.168 -3.88477 0.0419766 0
M  V30 4849 H 477.84 -3.77626 2.64946 0
M  V30 4850 H 476.083 -3.51082 2.54801 0
M  V30 4851 H 476.754 -5.0911 2.13333 0
M  V30 4852 H 479.23 -4.13548 0.460117 0
M  V30 4853 H 478.106 -5.48656 0.163575 0
M  V30 4854 H 478.367 -4.28444 -1.09032 0
M  V30 4855 N 477.426 -0.562348 -1.47226 0
M  V30 4856 C 478.672 -0.0402761 -2.0276 0
M  V30 4857 C 479.005 1.30823 -1.43523 0
M  V30 4858 O 478.28 1.85249 -0.592705 0
M  V30 4859 C 478.563 0.047311 -3.60069 0
M  V30 4860 C 478.416 -1.32865 -4.29729 0
M  V30 4861 C 479.735 0.758182 -4.3352 0
M  V30 4862 H 476.854 -0.0161105 -0.736824 0
M  V30 4863 H 479.496 -0.725628 -1.75598 0
M  V30 4864 H 477.646 0.630986 -3.83342 0
M  V30 4865 H 479.318 -1.95593 -4.17781 0
M  V30 4866 H 477.561 -1.90195 -3.89882 0
M  V30 4867 H 478.232 -1.22004 -5.38349 0
M  V30 4868 H 480.708 0.262546 -4.15271 0
M  V30 4869 H 479.584 0.78844 -5.43208 0
M  V30 4870 H 479.845 1.81537 -4.03109 0
M  V30 4871 N 478.904 1.54736 -0.299062 0
M  V30 4872 C 480.181 1.92187 0.363802 0
M  V30 4873 C 480.561 1.22607 1.71845 0
M  V30 4874 O 479.909 0.361141 2.25628 0
M  V30 4875 C 480.119 3.45678 0.480377 0
M  V30 4876 C 481.467 4.17885 0.752147 0
M  V30 4877 O 482.491 3.51702 0.564264 0
M  V30 4878 O 481.35 5.35048 1.11294 0
M  V30 4879 H 478.444 0.801681 0.203066 0
M  V30 4880 H 480.99 1.66115 -0.346978 0
M  V30 4881 H 479.762 3.88443 -0.471999 0
M  V30 4882 H 479.385 3.77779 1.2397 0
M  V30 4883 N 480.382 0.0267497 1.57577 0
M  V30 4884 C 481.292 -0.971633 2.13533 0
M  V30 4885 C 482.308 -1.35868 1.08701 0
M  V30 4886 O 483.484 -1.44058 1.40746 0
M  V30 4887 C 480.549 -2.23622 2.64941 0
M  V30 4888 C 479.61 -1.90982 3.8448 0
M  V30 4889 C 478.843 -3.11411 4.33427 0
M  V30 4890 O 479.066 -4.23992 3.81558 0
M  V30 4891 O 478 -2.93848 5.25297 0
M  V30 4892 H 481.826 -0.525853 2.99113 0
M  V30 4893 H 479.411 -0.193712 1.48139 0
M  V30 4894 H 481.293 -2.97864 2.98086 0
M  V30 4895 H 479.968 -2.67386 1.82446 0
M  V30 4896 H 478.875 -1.14132 3.56265 0
M  V30 4897 H 480.208 -1.52036 4.6813 0
M  V30 4898 N 481.861 -1.55662 -0.24637 0
M  V30 4899 C 483.277 -1.48098 -0.594907 0
M  V30 4900 C 483.477 -0.717044 -1.8831 0
M  V30 4901 O 482.533 -0.246618 -2.51293 0
M  V30 4902 C 483.846 -2.92507 -0.697146 0
M  V30 4903 C 485.394 -3.02881 -0.789436 0
M  V30 4904 C 485.869 -4.48598 -0.923232 0
M  V30 4905 N 487.36 -4.52538 -0.988088 0
M  V30 4906 C 488.095 -5.62536 -1.11089 0
M  V30 4907 N 487.591 -6.82342 -1.19919 0
M  V30 4908 N 489.384 -5.50334 -1.14408 0
M  V30 4909 H 481.535 -2.0377 0.599278 0
M  V30 4910 H 483.798 -0.925145 0.20691 0
M  V30 4911 H 483.504 -3.51242 0.179396 0
M  V30 4912 H 483.378 -3.43024 -1.5689 0
M  V30 4913 H 485.765 -2.44226 -1.65643 0
M  V30 4914 H 485.846 -2.55574 0.107482 0
M  V30 4915 H 485.49 -5.07864 -0.0607927 0
M  V30 4916 H 485.42 -4.93587 -1.8352 0
M  V30 4917 H 487.911 -3.66248 -0.931167 0
M  V30 4918 H 488.224 -7.61924 -1.29197 0
M  V30 4919 H 486.569 -6.85102 -1.16876 0
M  V30 4920 H 489.76 -4.5567 -1.07158 0
M  V30 4921 H 489.933 -6.36096 -1.23634 0
M  V30 4922 N 483.339 0.512053 -1.4905 0
M  V30 4923 C 484.249 1.64139 -1.67617 0
M  V30 4924 C 485.265 1.64786 -0.558701 0
M  V30 4925 O 486.441 1.8341 -0.832034 0
M  V30 4926 C 483.506 3.00548 -1.72835 0
M  V30 4927 C 482.567 3.10615 -2.96339 0
M  V30 4928 C 481.8 4.40517 -3.01298 0
M  V30 4929 O 482.023 5.28671 -2.14157 0
M  V30 4930 O 480.957 4.55325 -3.93653 0
M  V30 4931 H 484.783 1.51407 -2.63267 0
M  V30 4932 H 482.368 0.687131 -1.32661 0
M  V30 4933 H 484.25 3.81641 -1.78683 0
M  V30 4934 H 482.925 3.13566 -0.803616 0
M  V30 4935 H 481.832 2.2875 -2.96014 0
M  V30 4936 H 483.165 3.0252 -3.88256 0
M  V30 4937 N 484.817 1.37938 0.762283 0
M  V30 4938 C 486.064 1.33668 1.52115 0
M  V30 4939 C 486.392 -0.0759538 1.94352 0
M  V30 4940 O 485.647 -1.05121 1.6507 0
M  V30 4941 C 485.946 2.23042 2.79261 0
M  V30 4942 C 485.612 3.71159 2.56031 0
M  V30 4943 C 484.274 4.11523 2.49404 0
M  V30 4944 C 486.626 4.64955 2.35513 0
M  V30 4945 C 483.954 5.43784 2.20263 0
M  V30 4946 C 486.306 5.97464 2.07894 0
M  V30 4947 C 484.97 6.36922 1.99718 0
M  V30 4948 H 484.24 0.489127 0.556629 0
M  V30 4949 H 486.887 1.70224 0.877262 0
M  V30 4950 H 485.192 1.79512 3.48256 0
M  V30 4951 H 486.889 2.17047 3.37182 0
M  V30 4952 H 483.479 3.39153 2.62056 0
M  V30 4953 H 487.663 4.34623 2.39617 0
M  V30 4954 H 482.919 5.73307 2.12435 0
M  V30 4955 H 487.093 6.6969 1.91019 0
M  V30 4956 H 484.72 7.39331 1.76902 0
M  V30 4957 N 486.295 -0.989507 1.22664 0
M  V30 4958 C 487.542 -1.72953 1.05325 0
M  V30 4959 C 487.87 -1.90104 -0.411168 0
M  V30 4960 O 487.125 -1.44386 -1.32103 0
M  V30 4961 C 487.424 -3.13649 1.71345 0
M  V30 4962 C 487.09 -3.16403 3.21248 0
M  V30 4963 C 485.752 -3.16862 3.62149 0
M  V30 4964 C 488.104 -3.12428 4.17179 0
M  V30 4965 C 485.432 -3.11051 4.97458 0
M  V30 4966 C 487.784 -3.08159 5.52468 0
M  V30 4967 C 486.448 -3.06935 5.92746 0
M  V30 4968 H 485.718 -0.632881 0.385412 0
M  V30 4969 H 488.365 -1.15863 1.52473 0
M  V30 4970 H 486.67 -3.74069 1.16532 0
M  V30 4971 H 488.367 -3.69658 1.55416 0
M  V30 4972 H 484.957 -3.16798 2.88682 0
M  V30 4973 H 489.141 -3.11221 3.86595 0
M  V30 4974 H 484.397 -3.0845 5.27891 0
M  V30 4975 H 488.571 -3.04039 6.26525 0
M  V30 4976 H 486.198 -3.02186 6.97558 0
M  V30 4977 N 487.773 -1.03688 -1.18687 0
M  V30 4978 C 488.683 -0.634908 -2.25845 0
M  V30 4979 C 489.699 0.337065 -1.70704 0
M  V30 4980 O 490.875 0.192943 -2.00474 0
M  V30 4981 C 487.94 -0.000180054 -3.467 0
M  V30 4982 C 487.001 -1.02067 -4.1699 0
M  V30 4983 C 486.234 -0.41614 -5.32075 0
M  V30 4984 O 486.457 0.778712 -5.65059 0
M  V30 4985 O 485.391 -1.14296 -5.90948 0
M  V30 4986 H 489.217 -1.52757 -2.62486 0
M  V30 4987 H 486.802 -0.807533 -1.25695 0
M  V30 4988 H 488.684 0.353342 -4.19916 0
M  V30 4989 H 487.359 0.866367 -3.11891 0
M  V30 4990 H 486.266 -1.42592 -3.45859 0
M  V30 4991 H 487.599 -1.85786 -4.5579 0
M  V30 4992 N 489.251 1.34841 -0.815825 0
M  V30 4993 C 490.5 1.97755 -0.396976 0
M  V30 4994 C 490.813 1.65422 1.04379 0
M  V30 4995 O 492.019 2.21771 1.5662 0
M  V30 4996 C 490.475 3.53818 -0.658869 0
M  V30 4997 C 490.083 3.95051 -2.11278 0
M  V30 4998 C 491.827 4.23397 -0.305834 0
M  V30 4999 C 489.734 5.43997 -2.31994 0
M  V30 5000 H 488.664 0.739985 -0.1447 0
M  V30 5001 H 491.315 1.53781 -1.00118 0
M  V30 5002 H 489.697 3.95997 0.0154112 0
M  V30 5003 H 490.871 3.63998 -2.82564 0
M  V30 5004 H 489.186 3.38388 -2.42657 0
M  V30 5005 H 491.783 5.32899 -0.43854 0
M  V30 5006 H 492.126 4.09508 0.748952 0
M  V30 5007 H 492.659 3.8667 -0.934403 0
M  V30 5008 H 489.398 5.62865 -3.35952 0
M  V30 5009 H 488.918 5.76589 -1.65244 0
M  V30 5010 H 490.597 6.10584 -2.14001 0
M  V30 5011 N 490.729 0.570148 1.46925 0
M  V30 5012 C 491.662 -0.218362 2.27153 0
M  V30 5013 C 492.64 -0.90847 1.34854 0
M  V30 5014 O 493.824 -0.924875 1.64251 0
M  V30 5015 C 490.951 -1.3122 3.12248 0
M  V30 5016 C 489.997 -0.729277 4.20219 0
M  V30 5017 S 490.83 0.434159 5.33737 0
M  V30 5018 C 491.986 -0.661188 6.22398 0
M  V30 5019 H 492.219 0.462393 2.93682 0
M  V30 5020 H 489.752 0.356753 1.50222 0
M  V30 5021 H 491.71 -1.93856 3.61842 0
M  V30 5022 H 490.371 -1.96485 2.45056 0
M  V30 5023 H 489.564 -1.5511 4.79538 0
M  V30 5024 H 489.166 -0.178836 3.73572 0
M  V30 5025 H 491.458 -1.55006 6.5953 0
M  V30 5026 H 492.401 -0.105046 7.08022 0
M  V30 5027 H 492.809 -0.959682 5.56283 0
M  V30 5028 N 492.207 -1.54576 0.307264 0
M  V30 5029 C 493.618 -1.8579 -0.184121 0
M  V30 5030 C 493.969 -1.22914 -1.52927 0
M  V30 5031 O 493.094 -0.529126 -2.09831 0
M  V30 5032 C 493.689 -3.37081 -0.340862 0
M  V30 5033 C 492.248 -3.68304 -0.776465 0
M  V30 5034 C 491.395 -2.77076 0.111503 0
M  V30 5035 H 494.346 -1.49656 0.528078 0
M  V30 5036 H 494.367 -3.61922 -1.17443 0
M  V30 5037 H 493.879 -3.82815 0.638309 0
M  V30 5038 H 491.98 -3.28092 -1.76596 0
M  V30 5039 H 492.093 -4.75434 -0.591512 0
M  V30 5040 H 490.457 -2.51374 -0.410256 0
M  V30 5041 H 491.24 -3.25632 1.08714 0
M  V30 5042 N 493.685 -0.035106 -1.57561 0
M  V30 5043 C 494.633 0.962707 -2.11742 0
M  V30 5044 C 495.627 1.33296 -1.0454 0
M  V30 5045 O 496.833 1.31449 -1.22968 0
M  V30 5046 H 493.208 0.32826 -0.676572 0
M  V30 5047 H 495.179 0.48048 -2.94506 0
M  V30 5048 C 493.928 2.23388 -2.66445 0
M  V30 5049 H 493.251 1.95774 -3.48587 0
M  V30 5050 H 494.691 2.91402 -3.07995 0
M  V30 5051 C 493.15 2.96769 -1.59467 0
M  V30 5052 O 493.68 3.89105 -0.998 0
M  V30 5053 N 491.886 2.59212 -1.31369 0
M  V30 5054 H 491.433 1.84202 -1.80076 0
M  V30 5055 H 491.391 3.08618 -0.600173 0
M  V30 5056 N 495.163 1.55791 0.238111 0
M  V30 5057 C 496.393 1.81834 0.980809 0
M  V30 5058 C 496.801 0.609741 1.79106 0
M  V30 5059 O 496.144 -0.431073 1.78571 0
M  V30 5060 C 496.206 3.01363 1.96011 0
M  V30 5061 C 495.87 4.37037 1.33597 0
M  V30 5062 C 496.867 5.14692 0.734063 0
M  V30 5063 C 494.552 4.83743 1.3527 0
M  V30 5064 C 496.546 6.37206 0.157208 0
M  V30 5065 C 494.233 6.06204 0.77199 0
M  V30 5066 C 495.231 6.82775 0.175282 0
M  V30 5067 O 494.919 8.02922 -0.396432 0
M  V30 5068 H 494.651 0.6088 0.293834 0
M  V30 5069 H 497.205 2.03702 0.263552 0
M  V30 5070 H 495.435 2.75273 2.71591 0
M  V30 5071 H 497.124 3.14422 2.56697 0
M  V30 5072 H 497.89 4.79722 0.713582 0
M  V30 5073 H 493.769 4.24129 1.80653 0
M  V30 5074 H 497.313 6.96915 -0.30917 0
M  V30 5075 H 493.21 6.4065 0.789828 0
M  V30 5076 H 493.978 8.17989 -0.289145 0
M  V30 5077 N 496.642 -0.504142 1.49319 0
M  V30 5078 C 497.605 -1.5883 1.65244 0
M  V30 5079 C 498.605 -1.52009 0.524386 0
M  V30 5080 O 499.795 -1.55218 0.79077 0
M  V30 5081 C 496.927 -2.98481 1.64687 0
M  V30 5082 H 498.12 -1.4604 2.61939 0
M  V30 5083 H 495.673 -0.728144 1.38303 0
M  V30 5084 H 496.408 -3.16751 0.695644 0
M  V30 5085 H 496.193 -3.0484 2.46607 0
M  V30 5086 H 497.683 -3.77256 1.79075 0
M  V30 5087 N 498.12 -1.38341 -0.754957 0
M  V30 5088 C 499.067 -1.3546 -1.86867 0
M  V30 5089 C 500.037 -0.217369 -1.64672 0
M  V30 5090 O 501.222 -0.409383 -1.86356 0
M  V30 5091 C 498.362 -1.18413 -3.24149 0
M  V30 5092 C 497.475 -2.41511 -3.58185 0
M  V30 5093 C 496.61 -2.17205 -4.84763 0
M  V30 5094 C 495.649 -3.36081 -5.11582 0
M  V30 5095 N 494.786 -3.11219 -6.29354 0
M  V30 5096 H 499.626 -2.30672 -1.88664 0
M  V30 5097 H 497.163 -1.14607 -0.922154 0
M  V30 5098 H 499.121 -1.06545 -4.03366 0
M  V30 5099 H 497.751 -0.268397 -3.21682 0
M  V30 5100 H 496.803 -2.64056 -2.73822 0
M  V30 5101 H 498.115 -3.30115 -3.73932 0
M  V30 5102 H 497.269 -2.02465 -5.7192 0
M  V30 5103 H 496.008 -1.25964 -4.71152 0
M  V30 5104 H 495.013 -3.51341 -4.22894 0
M  V30 5105 H 496.238 -4.28196 -5.27091 0
M  V30 5106 H 494.184 -2.22624 -6.17069 0
M  V30 5107 H 494.101 -3.93373 -6.45596 0
M  V30 5108 H 495.369 -3.00132 -7.19403 0
M  V30 5109 N 499.598 0.982988 -1.23187 0
M  V30 5110 C 500.546 2.09616 -1.00817 0
M  V30 5111 C 501.54 1.6932 0.0519995 0
M  V30 5112 O 502.746 1.79715 -0.101284 0
M  V30 5113 H 499.121 0.685628 -0.308899 0
M  V30 5114 H 501.092 2.25652 -1.95253 0
M  V30 5115 C 499.841 3.42249 -0.613243 0
M  V30 5116 H 499.164 3.73705 -1.42073 0
M  V30 5117 H 500.604 4.21086 -0.496208 0
M  V30 5118 C 499.063 3.30002 0.678233 0
M  V30 5119 O 499.593 3.6263 1.72807 0
M  V30 5120 N 497.799 2.83164 0.653165 0
M  V30 5121 H 497.346 2.56811 -0.201492 0
M  V30 5122 H 497.304 2.75352 1.51752 0
M  V30 5123 N 501.076 1.04316 1.18135 0
M  V30 5124 C 502.325 0.74319 1.87509 0
M  V30 5125 C 502.638 -0.732136 1.81381 0
M  V30 5126 O 503.844 -1.14572 2.46141 0
M  V30 5127 C 502.3 1.27913 3.36402 0
M  V30 5128 C 501.908 2.78326 3.51053 0
M  V30 5129 C 503.652 1.0558 4.11161 0
M  V30 5130 C 501.559 3.25266 4.93919 0
M  V30 5131 H 500.489 0.274313 0.702331 0
M  V30 5132 H 503.14 1.25931 1.33467 0
M  V30 5133 H 501.522 0.690853 3.89927 0
M  V30 5134 H 502.696 3.42933 3.07788 0
M  V30 5135 H 501.011 2.991 2.89704 0
M  V30 5136 H 503.608 1.38161 5.16542 0
M  V30 5137 H 503.951 -0.00684729 4.16299 0
M  V30 5138 H 504.484 1.60882 3.63816 0
M  V30 5139 H 501.223 4.30922 4.9395 0
M  V30 5140 H 500.743 2.65396 5.3789 0
M  V30 5141 H 502.422 3.19433 5.62647 0
M  V30 5142 N 502.554 -1.34406 0.822964 0
M  V30 5143 C 503.803 -1.97542 0.407458 0
M  V30 5144 C 504.116 -1.65973 -1.035 0
M  V30 5145 O 505.322 -2.22598 -1.55442 0
M  V30 5146 C 503.778 -3.53463 0.677623 0
M  V30 5147 C 503.386 -3.93925 2.1337 0
M  V30 5148 C 505.13 -4.23229 0.328284 0
M  V30 5149 C 503.037 -5.42759 2.34876 0
M  V30 5150 H 501.967 -0.739207 0.148623 0
M  V30 5151 H 504.618 -1.53248 1.00932 0
M  V30 5152 H 503 -3.96 0.00558965 0
M  V30 5153 H 504.174 -3.62494 2.8449 0
M  V30 5154 H 502.489 -3.37097 2.44448 0
M  V30 5155 H 505.086 -5.32659 0.466794 0
M  V30 5156 H 505.429 -4.09899 -0.727224 0
M  V30 5157 H 505.962 -3.86169 0.954896 0
M  V30 5158 H 502.701 -5.61075 3.38932 0
M  V30 5159 H 502.221 -5.75704 1.68299 0
M  V30 5160 H 503.9 -6.0944 2.17236 0
M  V30 5161 N 504.032 -0.577932 -1.46621 0
M  V30 5162 C 505.278 -0.0617793 -2.02706 0
M  V30 5163 C 505.611 1.29294 -1.44903 0
M  V30 5164 O 504.886 1.8461 -0.61232 0
M  V30 5165 C 505.169 0.00911824 -3.60099 0
M  V30 5166 C 505.022 -1.37416 -4.28295 0
M  V30 5167 C 506.341 0.712159 -4.343 0
M  V30 5168 H 503.46 -0.0239246 -0.736612 0
M  V30 5169 H 506.102 -0.744211 -1.74818 0
M  V30 5170 H 504.252 0.590292 -3.83989 0
M  V30 5171 H 505.924 -2.00013 -4.15683 0
M  V30 5172 H 504.167 -1.94319 -3.87843 0
M  V30 5173 H 504.838 -1.27707 -5.37024 0
M  V30 5174 H 507.314 0.218486 -4.15526 0
M  V30 5175 H 506.19 0.730782 -5.44014 0
M  V30 5176 H 506.451 1.77251 -4.05012 0
M  V30 5177 N 505.51 1.54411 -0.315457 0
M  V30 5178 C 506.758 2.00023 0.288971 0
M  V30 5179 C 507.079 1.20529 1.5329 0
M  V30 5180 O 506.349 0.304986 1.93511 0
M  V30 5181 H 504.929 0.738891 0.109766 0
M  V30 5182 H 507.591 1.90094 -0.430129 0
M  V30 5183 H 506.687 3.07198 0.550999 0
M  V30 5184 N 506.988 0.0434614 1.5754 0
M  V30 5185 C 508.235 -0.632035 1.92384 0
M  V30 5186 C 508.563 -1.71304 0.921157 0
M  V30 5187 O 507.818 -1.95583 -0.067744 0
M  V30 5188 C 508.117 -1.2738 3.3393 0
M  V30 5189 C 507.783 -0.321757 4.49751 0
M  V30 5190 C 506.445 -0.0597611 4.81163 0
M  V30 5191 C 508.797 0.331158 5.20147 0
M  V30 5192 C 506.125 0.862715 5.80322 0
M  V30 5193 C 508.477 1.24178 6.20292 0
M  V30 5194 C 507.141 1.51252 6.50138 0
M  V30 5195 H 506.411 -0.231278 0.703983 0
M  V30 5196 H 509.058 0.108294 1.91194 0
M  V30 5197 H 507.363 -2.08921 3.3145 0
M  V30 5198 H 509.06 -1.80326 3.58167 0
M  V30 5199 H 505.65 -0.53614 4.25233 0
M  V30 5200 H 509.834 0.141826 4.96097 0
M  V30 5201 H 505.09 1.08003 6.01785 0
M  V30 5202 H 509.264 1.75381 6.73954 0
M  V30 5203 H 506.891 2.22897 7.26788 0
M  V30 5204 N 508.466 -1.55915 -0.229846 0
M  V30 5205 C 509.429 -1.90914 -1.26824 0
M  V30 5206 C 510.429 -0.786999 -1.40225 0
M  V30 5207 O 511.619 -1.05484 -1.38632 0
M  V30 5208 C 508.751 -2.15264 -2.64337 0
M  V30 5209 H 509.944 -2.8378 -0.969998 0
M  V30 5210 H 507.497 -1.49069 -0.4699 0
M  V30 5211 H 508.232 -1.24923 -2.99274 0
M  V30 5212 H 508.017 -2.97005 -2.55989 0
M  V30 5213 H 509.507 -2.43467 -3.39284 0
M  V30 5214 N 509.944 0.496216 -1.49584 0
M  V30 5215 C 511.36 0.827814 -1.36453 0
M  V30 5216 C 511.56 1.97464 -0.401285 0
M  V30 5217 O 510.616 2.51958 0.165296 0
M  V30 5218 C 511.929 1.16352 -2.77277 0
M  V30 5219 C 513.477 1.27145 -2.86013 0
M  V30 5220 C 513.952 1.64042 -4.27615 0
M  V30 5221 N 515.443 1.71082 -4.30448 0
M  V30 5222 C 516.178 2.01085 -5.36984 0
M  V30 5223 N 515.674 2.2928 -6.5376 0
M  V30 5224 N 517.467 2.02376 -5.24405 0
M  V30 5225 H 509.618 -0.259947 -2.10803 0
M  V30 5226 H 511.881 -0.0537163 -0.946477 0
M  V30 5227 H 511.587 0.394153 -3.49484 0
M  V30 5228 H 511.461 2.10582 -3.12946 0
M  V30 5229 H 513.848 2.03152 -2.1404 0
M  V30 5230 H 513.929 0.309542 -2.5392 0
M  V30 5231 H 513.573 0.88583 -5.00115 0
M  V30 5232 H 513.503 2.6134 -4.57175 0
M  V30 5233 H 515.994 1.51434 -3.46232 0
M  V30 5234 H 516.307 2.51376 -7.30774 0
M  V30 5235 H 514.652 2.26726 -6.56978 0
M  V30 5236 H 517.843 1.79829 -4.32179 0
M  V30 5237 H 518.016 2.25425 -6.07526 0
M  V30 5238 N 511.423 1.38739 0.74761 0
M  V30 5239 C 512.356 1.3083 1.86972 0
M  V30 5240 C 513.334 0.184229 1.61553 0
M  V30 5241 O 514.518 0.36256 1.8498 0
M  V30 5242 C 511.645 1.02854 3.22705 0
M  V30 5243 C 510.691 2.17281 3.67003 0
M  V30 5244 S 511.524 3.79468 3.77842 0
M  V30 5245 C 512.68 3.53692 5.16385 0
M  V30 5246 H 512.913 2.258 1.93395 0
M  V30 5247 H 510.446 1.24646 0.911199 0
M  V30 5248 H 512.404 0.87397 4.01089 0
M  V30 5249 H 511.065 0.0959295 3.13953 0
M  V30 5250 H 510.258 1.93267 4.65472 0
M  V30 5251 H 509.86 2.28876 2.9579 0
M  V30 5252 H 512.152 3.10176 6.02327 0
M  V30 5253 H 513.095 4.51576 5.45422 0
M  V30 5254 H 513.503 2.8807 4.85464 0
M  V30 5255 N 512.901 -0.976442 1.23707 0
M  V30 5256 C 513.849 -2.09078 1.01927 0
M  V30 5257 C 514.843 -1.69345 -0.0430193 0
M  V30 5258 O 516.049 -1.79659 0.110814 0
M  V30 5259 H 512.424 -0.68398 0.312531 0
M  V30 5260 H 514.395 -2.24614 1.96447 0
M  V30 5261 C 513.144 -3.41919 0.631385 0
M  V30 5262 H 512.467 -3.72946 1.44053 0
M  V30 5263 H 513.907 -4.20817 0.518532 0
M  V30 5264 C 512.366 -3.30357 -0.660723 0
M  V30 5265 O 512.896 -3.63542 -1.70881 0
M  V30 5266 N 511.102 -2.83507 -0.638139 0
M  V30 5267 H 510.649 -2.567 0.215108 0
M  V30 5268 H 510.607 -2.76153 -1.50289 0
M  V30 5269 N 514.379 -1.04941 -1.1758 0
M  V30 5270 C 515.627 -0.756492 -1.87408 0
M  V30 5271 C 515.948 0.718478 -1.81281 0
M  V30 5272 O 515.218 1.519 -1.23706 0
M  V30 5273 H 513.798 -0.276841 -0.693807 0
M  V30 5274 H 516.46 -1.32803 -1.42652 0
M  V30 5275 H 515.556 -1.06918 -2.93215 0
M  V30 5276 N 515.857 1.33968 -0.830081 0
M  V30 5277 C 517.273 1.51003 -0.516742 0
M  V30 5278 C 517.473 1.77286 0.957694 0
M  V30 5279 O 516.529 1.82797 1.74188 0
M  V30 5280 C 517.842 2.67036 -1.38247 0
M  V30 5281 C 519.39 2.80919 -1.38034 0
M  V30 5282 C 519.865 4.00004 -2.23071 0
M  V30 5283 N 521.356 4.07224 -2.20733 0
M  V30 5284 C 522.091 4.98541 -2.83275 0
M  V30 5285 N 521.587 5.95033 -3.54835 0
M  V30 5286 N 523.38 4.91469 -2.72791 0
M  V30 5287 H 515.531 1.15168 -1.78466 0
M  V30 5288 H 517.794 0.565443 -0.760906 0
M  V30 5289 H 517.5 2.54266 -2.42985 0
M  V30 5290 H 517.374 3.62226 -1.05225 0
M  V30 5291 H 519.761 2.93127 -0.340713 0
M  V30 5292 H 519.842 1.86517 -1.75057 0
M  V30 5293 H 519.486 3.88557 -3.27087 0
M  V30 5294 H 519.416 4.93634 -1.83394 0
M  V30 5295 H 521.907 3.38162 -1.68687 0
M  V30 5296 H 522.22 6.61357 -3.99784 0
M  V30 5297 H 520.565 5.95135 -3.58942 0
M  V30 5298 H 523.756 4.15048 -2.16456 0
M  V30 5299 H 523.929 5.62439 -3.21818 0
M  V30 5300 N 517.335 0.585699 1.46312 0
M  V30 5301 C 518.563 0.0781299 2.06752 0
M  V30 5302 C 518.978 -1.22812 1.43396 0
M  V30 5303 O 518.335 -1.74318 0.540314 0
M  V30 5304 C 518.386 -0.0911927 3.61385 0
M  V30 5305 O 518.107 1.16336 4.22371 0
M  V30 5306 C 519.608 -0.632765 4.38761 0
M  V30 5307 H 516.828 0.0588188 0.668417 0
M  V30 5308 H 519.372 0.807218 1.87894 0
M  V30 5309 H 517.527 -0.770514 3.7966 0
M  V30 5310 H 517.941 0.979082 5.15281 0
M  V30 5311 H 519.415 -0.70041 5.47538 0
M  V30 5312 H 519.892 -1.65039 4.07012 0
M  V30 5313 H 520.498 0.0117856 4.25298 0
M  V30 5314 N 518.813 -1.54241 0.323641 0
M  V30 5315 C 520.059 -2.00867 -0.279323 0
M  V30 5316 C 520.392 -1.21146 -1.5178 0
M  V30 5317 O 519.667 -0.29378 -1.92269 0
M  V30 5318 C 519.95 -3.54837 -0.613387 0
M  V30 5319 C 519.803 -4.45284 0.635803 0
M  V30 5320 C 521.122 -4.16186 -1.43099 0
M  V30 5321 H 518.241 -0.730177 -0.100049 0
M  V30 5322 H 520.883 -1.84829 0.440235 0
M  V30 5323 H 519.033 -3.68634 -1.22641 0
M  V30 5324 H 520.705 -4.43357 1.27406 0
M  V30 5325 H 518.948 -4.14956 1.26466 0
M  V30 5326 H 519.619 -5.5084 0.357597 0
M  V30 5327 H 522.095 -4.05964 -0.912814 0
M  V30 5328 H 520.971 -5.24031 -1.6335 0
M  V30 5329 H 521.232 -3.69516 -2.42715 0
M  V30 5330 N 520.291 -0.0518155 -1.57515 0
M  V30 5331 C 521.539 0.620595 -1.92336 0
M  V30 5332 C 521.86 1.71345 -0.930907 0
M  V30 5333 O 521.13 1.95885 0.0241341 0
M  V30 5334 H 519.71 0.232226 -0.709986 0
M  V30 5335 H 522.372 -0.104969 -1.94617 0
M  V30 5336 H 521.468 1.05879 -2.93592 0
M  V30 5337 N 521.769 1.56035 0.221574 0
M  V30 5338 C 523.018 1.78245 0.944016 0
M  V30 5339 C 523.331 0.620371 1.85501 0
M  V30 5340 O 524.537 0.726103 2.6161 0
M  V30 5341 C 522.993 3.15659 1.7288 0
M  V30 5342 C 522.601 4.39591 0.863942 0
M  V30 5343 C 524.345 3.47195 2.44246 0
M  V30 5344 C 522.252 5.6803 1.64607 0
M  V30 5345 H 521.182 0.664547 0.356222 0
M  V30 5346 H 523.833 1.8243 0.197904 0
M  V30 5347 H 522.215 3.0565 2.51781 0
M  V30 5348 H 523.389 4.60655 0.115464 0
M  V30 5349 H 521.704 4.15572 0.262407 0
M  V30 5350 H 524.301 4.40381 3.03263 0
M  V30 5351 H 524.644 2.69693 3.1713 0
M  V30 5352 H 525.177 3.58533 1.72334 0
M  V30 5353 H 521.916 6.48425 0.960507 0
M  V30 5354 H 521.436 5.51027 2.36917 0
M  V30 5355 H 523.115 6.08203 2.20675 0
M  V30 5356 N 523.247 -0.488276 1.49845 0
M  V30 5357 C 524.493 -1.24341 1.6021 0
M  V30 5358 C 524.826 -1.91967 0.293651 0
M  V30 5359 O 524.101 -1.81323 -0.703718 0
M  V30 5360 C 524.384 -2.3005 2.77036 0
M  V30 5361 C 524.237 -1.66842 4.17713 0
M  V30 5362 C 525.556 -3.31509 2.89464 0
M  V30 5363 H 522.675 -0.450704 0.583125 0
M  V30 5364 H 525.317 -0.539673 1.82174 0
M  V30 5365 H 523.467 -2.90071 2.58439 0
M  V30 5366 H 525.139 -1.1055 4.47858 0
M  V30 5367 H 523.382 -0.972079 4.22768 0
M  V30 5368 H 524.053 -2.43576 4.95353 0
M  V30 5369 H 526.529 -2.81493 3.06433 0
M  V30 5370 H 525.405 -4.02822 3.72861 0
M  V30 5371 H 525.666 -3.94603 1.99351 0
M  V30 5372 N 524.725 -1.39134 -0.740242 0
M  V30 5373 C 525.973 -1.35803 -1.49673 0
M  V30 5374 C 526.294 0.0470897 -1.94943 0
M  V30 5375 O 525.564 0.997347 -1.68611 0
M  V30 5376 H 524.144 -0.499736 -0.555224 0
M  V30 5377 H 526.806 -1.73947 -0.879107 0
M  V30 5378 H 525.902 -2.0174 -2.38133 0
M  V30 5379 N 526.204 0.969867 -1.24223 0
M  V30 5380 C 527.152 2.08535 -1.03034 0
M  V30 5381 C 528.146 1.69366 0.0340379 0
M  V30 5382 O 529.352 1.79597 -0.12034 0
M  V30 5383 H 525.727 0.682313 -0.316154 0
M  V30 5384 H 527.698 2.23569 -1.97635 0
M  V30 5385 C 526.447 3.4158 -0.649509 0
M  V30 5386 H 525.77 3.72177 -1.46028 0
M  V30 5387 H 527.21 4.20536 -0.540841 0
M  V30 5388 C 525.669 3.30703 0.643194 0
M  V30 5389 O 526.199 3.64443 1.68951 0
M  V30 5390 N 524.405 2.83841 0.623095 0
M  V30 5391 H 523.952 2.56583 -0.228719 0
M  V30 5392 H 523.91 2.76946 1.48823 0
M  V30 5393 N 527.682 1.05563 1.17022 0
M  V30 5394 C 528.614 0.617888 2.20714 0
M  V30 5395 C 529.627 -0.320303 1.59618 0
M  V30 5396 O 530.816 -0.112449 1.78145 0
M  V30 5397 C 527.916 -0.115333 3.38704 0
M  V30 5398 C 527.089 0.834493 4.29366 0
M  V30 5399 C 526.148 0.141855 5.26009 0
M  V30 5400 O 525.174 0.777151 5.6387 0
M  V30 5401 N 526.376 -1.11934 5.69606 0
M  V30 5402 H 529.141 1.50981 2.58892 0
M  V30 5403 H 526.702 0.938008 1.31958 0
M  V30 5404 H 528.694 -0.588918 4.00392 0
M  V30 5405 H 527.264 -0.908967 2.99093 0
M  V30 5406 H 526.484 1.48762 3.65053 0
M  V30 5407 H 527.772 1.4791 4.86827 0
M  V30 5408 H 527.17 -1.65574 5.40927 0
M  V30 5409 H 525.727 -1.53692 6.33421 0
M  V30 5410 N 529.16 -1.33526 0.837174 0
M  V30 5411 C 530.571 -1.80182 0.489017 0
M  V30 5412 C 530.922 -1.69285 -0.991826 0
M  V30 5413 O 530.047 -1.24113 -1.77271 0
M  V30 5414 C 530.642 -3.27149 0.880866 0
M  V30 5415 C 529.201 -3.71828 0.584872 0
M  V30 5416 C 528.348 -2.54974 1.09011 0
M  V30 5417 H 531.299 -1.21071 1.02603 0
M  V30 5418 H 531.32 -3.80024 0.190239 0
M  V30 5419 H 530.832 -3.35048 1.95869 0
M  V30 5420 H 528.933 -3.69457 -0.48295 0
M  V30 5421 H 529.046 -4.65366 1.13892 0
M  V30 5422 H 527.41 -2.4952 0.511047 0
M  V30 5423 H 528.193 -2.65637 2.17467 0
M  V30 5424 N 530.638 -0.59345 -1.46 0
M  V30 5425 C 531.585 0.133618 -2.30413 0
M  V30 5426 C 532.555 0.873736 -1.41262 0
M  V30 5427 O 533.74 0.862279 -1.70204 0
M  V30 5428 C 530.88 1.13434 -3.25924 0
M  V30 5429 C 529.993 0.39656 -4.30176 0
M  V30 5430 C 529.128 1.38575 -5.12806 0
M  V30 5431 C 528.167 0.634984 -6.08797 0
M  V30 5432 N 527.304 1.57276 -6.84258 0
M  V30 5433 H 532.144 -0.592252 -2.92055 0
M  V30 5434 H 529.681 -0.303874 -1.43927 0
M  V30 5435 H 531.639 1.72752 -3.79753 0
M  V30 5436 H 530.269 1.82779 -2.66067 0
M  V30 5437 H 529.321 -0.311861 -3.79119 0
M  V30 5438 H 530.633 -0.189869 -4.98438 0
M  V30 5439 H 529.787 2.05141 -5.70966 0
M  V30 5440 H 528.526 2.00611 -4.44529 0
M  V30 5441 H 527.531 -0.0443925 -5.49782 0
M  V30 5442 H 528.756 0.0198678 -6.79097 0
M  V30 5443 H 526.702 2.18103 -6.18682 0
M  V30 5444 H 526.619 1.03941 -7.48821 0
M  V30 5445 H 527.887 2.22844 -7.46968 0
M  V30 5446 N 532.116 1.54067 -0.331816 0
M  V30 5447 C 533.362 2.01012 0.268667 0
M  V30 5448 C 533.695 1.2195 1.51136 0
M  V30 5449 O 532.97 0.303972 1.9211 0
M  V30 5450 C 533.253 3.55158 0.59456 0
M  V30 5451 C 533.106 4.4494 -0.659409 0
M  V30 5452 C 534.425 4.16939 1.4089 0
M  V30 5453 H 531.544 0.730698 0.0961756 0
M  V30 5454 H 534.186 1.84593 -0.450031 0
M  V30 5455 H 532.336 3.6928 1.20685 0
M  V30 5456 H 534.008 4.42675 -1.29756 0
M  V30 5457 H 532.251 4.1428 -1.28665 0
M  V30 5458 H 532.922 5.50643 -0.386804 0
M  V30 5459 H 535.398 4.06443 0.891272 0
M  V30 5460 H 534.274 5.24889 1.60569 0
M  V30 5461 H 534.535 3.70798 2.40752 0
M  V30 5462 N 533.594 0.0601682 1.57485 0
M  V30 5463 C 534.557 -0.896373 2.10945 0
M  V30 5464 C 535.557 -1.23402 1.03095 0
M  V30 5465 O 536.747 -1.16921 1.29132 0
M  V30 5466 C 533.879 -2.20346 2.60116 0
M  V30 5467 H 535.072 -0.432778 2.96761 0
M  V30 5468 H 532.625 -0.188372 1.55161 0
M  V30 5469 H 533.36 -2.71268 1.7772 0
M  V30 5470 H 533.145 -1.9714 3.38937 0
M  V30 5471 H 534.635 -2.88846 3.01592 0
M  V30 5472 N 535.072 -1.5615 -0.213296 0
M  V30 5473 C 536.297 -1.83986 -0.957282 0
M  V30 5474 C 536.722 -0.641526 -1.76822 0
M  V30 5475 O 536.08 0.409722 -1.7661 0
M  V30 5476 C 536.128 -3.09889 -1.84393 0
M  V30 5477 O 535.232 -2.89163 -2.94038 0
M  V30 5478 H 534.573 -0.606357 -0.270605 0
M  V30 5479 H 537.103 -2.03369 -0.224111 0
M  V30 5480 H 537.113 -3.40209 -2.25215 0
M  V30 5481 H 535.788 -3.96735 -1.24795 0
M  V30 5482 H 534.365 -2.70097 -2.57103 0
M  V30 5483 N 536.55 0.480323 -1.50102 0
M  V30 5484 C 537.798 1.23063 -1.60312 0
M  V30 5485 C 538.119 1.92659 -0.301226 0
M  V30 5486 O 537.389 1.83691 0.680753 0
M  V30 5487 H 535.969 0.457231 -0.590719 0
M  V30 5488 H 538.631 0.554893 -1.86834 0
M  V30 5489 H 537.727 1.9835 -2.40964 0
M  V30 5490 N 538.028 1.39524 0.732853 0
M  V30 5491 C 539.268 1.383 1.50508 0
M  V30 5492 C 539.632 -0.0208271 1.91989 0
M  V30 5493 O 540.833 -0.158091 2.68335 0
M  V30 5494 C 539.104 2.33007 2.71003 0
M  V30 5495 S 540.663 2.49989 3.60626 0
M  V30 5496 H 537.481 0.490417 0.514794 0
M  V30 5497 H 540.083 1.75641 0.858524 0
M  V30 5498 H 538.787 3.33862 2.38672 0
M  V30 5499 H 538.318 1.96889 3.40585 0
M  V30 5500 H 540.333 1.7394 4.64714 0
M  V30 5501 N 539.506 -0.963266 1.24736 0
M  V30 5502 C 540.436 -2.07628 1.06832 0
M  V30 5503 C 541.417 -1.70088 -0.0200566 0
M  V30 5504 O 542.602 -1.93636 0.147854 0
M  V30 5505 C 539.732 -3.40636 0.677069 0
M  V30 5506 C 538.686 -3.9215 1.71471 0
M  V30 5507 C 538.012 -5.21553 1.1784 0
M  V30 5508 C 539.312 -4.19493 3.11164 0
M  V30 5509 H 541.006 -2.22864 1.9993 0
M  V30 5510 H 538.552 -1.07093 0.96266 0
M  V30 5511 H 540.505 -4.17941 0.538792 0
M  V30 5512 H 539.229 -3.25313 -0.289612 0
M  V30 5513 H 537.888 -3.17005 1.84128 0
M  V30 5514 H 537.536 -5.02593 0.202195 0
M  V30 5515 H 537.236 -5.56988 1.87185 0
M  V30 5516 H 538.76 -6.01463 1.05233 0
M  V30 5517 H 540.174 -4.87487 3.01711 0
M  V30 5518 H 538.571 -4.66165 3.77902 0
M  V30 5519 H 539.641 -3.26097 3.58871 0
M  V30 5520 N 540.985 -1.06182 -1.16461 0
M  V30 5521 C 542.262 -0.691364 -1.82974 0
M  V30 5522 C 542.642 0.827377 -1.9421 0
M  V30 5523 O 541.99 1.73723 -1.48434 0
M  V30 5524 C 542.2 -1.39199 -3.20038 0
M  V30 5525 C 543.548 -1.53647 -3.95825 0
M  V30 5526 O 544.572 -1.35181 -3.29552 0
M  V30 5527 O 543.431 -1.83932 -5.14618 0
M  V30 5528 H 540.525 -0.244605 -0.789998 0
M  V30 5529 H 543.071 -1.16203 -1.23673 0
M  V30 5530 H 541.843 -2.42766 -3.06888 0
M  V30 5531 H 541.466 -0.911335 -3.87015 0
M  V30 5532 N 542.463 1.3308 -0.844243 0
M  V30 5533 C 543.712 1.96868 -0.438833 0
M  V30 5534 C 544.025 1.67599 1.00846 0
M  V30 5535 O 545.231 2.25043 1.51881 0
M  V30 5536 C 543.687 3.5234 -0.73377 0
M  V30 5537 C 543.295 3.90481 -2.1961 0
M  V30 5538 C 545.039 4.22653 -0.395574 0
M  V30 5539 C 542.946 5.38954 -2.43481 0
M  V30 5540 H 541.876 0.736749 -0.160364 0
M  V30 5541 H 544.527 1.51623 -1.03358 0
M  V30 5542 H 542.909 3.95941 -0.068589 0
M  V30 5543 H 544.083 3.57922 -2.90221 0
M  V30 5544 H 542.398 3.33165 -2.4978 0
M  V30 5545 H 544.995 5.31848 -0.551477 0
M  V30 5546 H 545.338 4.11004 0.661921 0
M  V30 5547 H 545.871 3.84601 -1.01621 0
M  V30 5548 H 542.61 5.55612 -3.47816 0
M  V30 5549 H 542.13 5.72954 -1.77437 0
M  V30 5550 H 543.809 6.05907 -2.26905 0
M  V30 5551 N 543.941 0.601185 1.45683 0
M  V30 5552 C 544.889 -0.133955 2.32214 0
M  V30 5553 C 545.883 -0.866034 1.45589 0
M  V30 5554 O 547.089 -0.782326 1.6211 0
M  V30 5555 H 543.464 -0.0620613 0.749435 0
M  V30 5556 H 545.435 0.614389 2.92007 0
M  V30 5557 C 544.184 -1.12216 3.29094 0
M  V30 5558 H 543.507 -0.568273 3.95741 0
M  V30 5559 H 544.947 -1.60659 3.92383 0
M  V30 5560 C 543.406 -2.19251 2.55794 0
M  V30 5561 O 543.936 -3.26894 2.33459 0
M  V30 5562 N 542.142 -1.9436 2.16039 0
M  V30 5563 H 541.689 -1.06829 2.34404 0
M  V30 5564 H 541.647 -2.66181 1.67318 0
M  V30 5565 N 545.419 -1.53889 0.339982 0
M  V30 5566 C 546.644 -2.05741 -0.261798 0
M  V30 5567 C 547.069 -1.21354 -1.43718 0
M  V30 5568 O 546.427 -0.22645 -1.7988 0
M  V30 5569 C 546.475 -3.54542 -0.658228 0
M  V30 5570 O 545.579 -3.7302 -1.75869 0
M  V30 5571 H 544.92 -0.662529 -0.0441672 0
M  V30 5572 H 547.45 -1.98568 0.493161 0
M  V30 5573 H 547.46 -3.9711 -0.936368 0
M  V30 5574 H 546.135 -4.15412 0.201358 0
M  V30 5575 H 544.712 -3.42355 -1.47809 0
M  V30 5576 N 546.897 -0.0685191 -1.57451 0
M  V30 5577 C 548.122 0.613919 -1.98106 0
M  V30 5578 C 548.547 1.62551 -0.946501 0
M  V30 5579 O 547.905 1.81085 0.0882824 0
M  V30 5580 C 547.953 1.26189 -3.378 0
M  V30 5581 O 547.057 2.37773 -3.36954 0
M  V30 5582 H 546.398 0.158163 -0.644888 0
M  V30 5583 H 548.928 -0.142063 -2.04106 0
M  V30 5584 H 548.938 1.60951 -3.74912 0
M  V30 5585 H 547.613 0.520625 -4.12629 0
M  V30 5586 H 546.19 2.04829 -3.11608 0
M  V30 5587 N 548.375 1.56261 0.205012 0
M  V30 5588 C 549.621 1.80306 0.9283 0
M  V30 5589 C 549.954 0.640932 1.83319 0
M  V30 5590 O 549.229 -0.359032 1.91158 0
M  V30 5591 C 549.512 3.14547 1.75306 0
M  V30 5592 C 549.365 4.41236 0.873562 0
M  V30 5593 C 550.684 3.45382 2.72762 0
M  V30 5594 H 547.803 0.655929 0.336044 0
M  V30 5595 H 550.445 1.88984 0.196211 0
M  V30 5596 H 548.595 3.0728 2.37721 0
M  V30 5597 H 550.267 4.60539 0.264887 0
M  V30 5598 H 548.51 4.33427 0.179773 0
M  V30 5599 H 549.181 5.31639 1.48541 0
M  V30 5600 H 551.657 3.52884 2.20481 0
M  V30 5601 H 550.533 4.40449 3.2756 0
M  V30 5602 H 550.794 2.68377 3.51321 0
M  V30 5603 N 549.853 -0.472356 1.50355 0
M  V30 5604 C 550.8 -1.57051 1.69126 0
M  V30 5605 C 551.77 -1.5733 0.532574 0
M  V30 5606 O 552.955 -1.7488 0.762994 0
M  V30 5607 C 550.095 -2.95033 1.79024 0
M  V30 5608 C 549.208 -3.04552 3.06386 0
M  V30 5609 C 548.343 -4.33441 3.07087 0
M  V30 5610 C 547.382 -4.36697 4.28908 0
M  V30 5611 N 546.519 -5.57056 4.27356 0
M  V30 5612 H 551.359 -1.40351 2.62879 0
M  V30 5613 H 548.896 -0.682403 1.30314 0
M  V30 5614 H 550.854 -3.75048 1.82744 0
M  V30 5615 H 549.484 -3.10371 0.887109 0
M  V30 5616 H 548.536 -2.17419 3.12143 0
M  V30 5617 H 549.848 -3.02818 3.96362 0
M  V30 5618 H 549.002 -5.21801 3.09529 0
M  V30 5619 H 547.741 -4.37782 2.14939 0
M  V30 5620 H 546.746 -3.46734 4.2668 0
M  V30 5621 H 547.971 -4.34049 5.22282 0
M  V30 5622 H 545.917 -5.62184 3.3806 0
M  V30 5623 H 545.834 -5.57058 5.111 0
M  V30 5624 H 547.102 -6.47545 4.33942 0
M  V30 5625 N 551.331 -1.39911 -0.725443 0
M  V30 5626 C 552.579 -1.37382 -1.48224 0
M  V30 5627 C 552.9 0.0264107 -1.94982 0
M  V30 5628 O 552.17 0.979408 -1.6966 0
M  V30 5629 H 550.75 -0.505596 -0.549892 0
M  V30 5630 H 553.412 -1.7487 -0.860608 0
M  V30 5631 H 552.508 -2.04254 -2.3598 0
M  V30 5632 N 552.809 0.956637 -1.25245 0
M  V30 5633 C 553.772 2.03457 -1.05537 0
M  V30 5634 C 554.772 1.60798 -0.00886317 0
M  V30 5635 O 555.962 1.72384 -0.250865 0
M  V30 5636 C 553.094 3.35543 -0.601965 0
M  V30 5637 H 554.287 2.22372 -2.01223 0
M  V30 5638 H 551.84 1.13344 -1.07623 0
M  V30 5639 H 552.575 3.22323 0.357584 0
M  V30 5640 H 552.36 3.67854 -1.35743 0
M  V30 5641 H 553.85 4.14769 -0.485454 0
M  V30 5642 N 554.287 1.06798 1.15896 0
M  V30 5643 C 555.703 0.792423 1.38538 0
M  V30 5644 C 555.903 -0.60592 1.92174 0
M  V30 5645 O 554.959 -1.36561 2.12385 0
M  V30 5646 C 556.272 1.86157 2.36149 0
M  V30 5647 C 557.82 1.88567 2.49823 0
M  V30 5648 C 558.295 2.9455 3.5072 0
M  V30 5649 N 559.786 2.93616 3.58251 0
M  V30 5650 C 560.521 3.72267 4.36125 0
M  V30 5651 N 560.017 4.60751 5.17379 0
M  V30 5652 N 561.81 3.60637 4.31158 0
M  V30 5653 H 553.961 1.96993 0.794198 0
M  V30 5654 H 556.224 0.853942 0.411688 0
M  V30 5655 H 555.93 2.86603 2.03843 0
M  V30 5656 H 555.804 1.71692 3.3586 0
M  V30 5657 H 558.191 0.887765 2.8143 0
M  V30 5658 H 558.272 2.0711 1.5013 0
M  V30 5659 H 557.916 3.94537 3.19849 0
M  V30 5660 H 557.846 2.73255 4.50155 0
M  V30 5661 H 560.337 2.29472 3.00252 0
M  V30 5662 H 560.65 5.17408 5.74028 0
M  V30 5663 H 558.995 4.64803 5.16704 0
M  V30 5664 H 562.186 2.90892 3.66742 0
M  V30 5665 H 562.359 4.22176 4.91601 0
M  V30 5666 N 555.766 -1.3263 0.851289 0
M  V30 5667 C 557.013 -1.97368 0.453023 0
M  V30 5668 C 557.341 -1.67384 -0.990596 0
M  V30 5669 O 556.596 -0.952665 -1.70947 0
M  V30 5670 C 556.895 -3.51713 0.635015 0
M  V30 5671 C 556.561 -4.01676 2.04859 0
M  V30 5672 C 555.223 -4.15031 2.43522 0
M  V30 5673 C 557.575 -4.28206 2.97135 0
M  V30 5674 C 554.903 -4.52257 3.73739 0
M  V30 5675 C 557.255 -4.66889 4.26846 0
M  V30 5676 C 555.919 -4.7845 4.65448 0
M  V30 5677 H 555.189 -0.722219 0.165773 0
M  V30 5678 H 557.836 -1.58092 1.0807 0
M  V30 5679 H 556.141 -3.91726 -0.0759081 0
M  V30 5680 H 557.838 -3.99823 0.306964 0
M  V30 5681 H 554.428 -3.91764 1.73836 0
M  V30 5682 H 558.612 -4.174 2.68498 0
M  V30 5683 H 553.868 -4.59402 4.03435 0
M  V30 5684 H 558.042 -4.86372 4.98413 0
M  V30 5685 H 555.669 -5.07052 5.66395 0
M  V30 5686 N 557.244 -0.608902 -1.45362 0
M  V30 5687 C 558.49 -0.104762 -2.02529 0
M  V30 5688 C 558.823 1.26191 -1.47613 0
M  V30 5689 O 558.098 1.8327 -0.65134 0
M  V30 5690 C 558.381 -0.0672661 -3.60037 0
M  V30 5691 C 558.234 -1.4647 -4.25284 0
M  V30 5692 C 559.553 0.619877 -4.35713 0
M  V30 5693 H 556.672 -0.0395438 -0.735938 0
M  V30 5694 H 559.314 -0.781126 -1.73201 0
M  V30 5695 H 557.464 0.50871 -3.85155 0
M  V30 5696 H 559.136 -2.08785 -4.11347 0
M  V30 5697 H 557.379 -2.02502 -3.83634 0
M  V30 5698 H 558.05 -1.39069 -5.34195 0
M  V30 5699 H 560.526 0.130297 -4.15896 0
M  V30 5700 H 559.402 0.615224 -5.45441 0
M  V30 5701 H 559.663 1.68621 -4.0868 0
M  V30 5702 N 558.722 1.53707 -0.348139 0
M  V30 5703 C 560.138 1.596 0.00361134 0
M  V30 5704 C 560.338 1.36394 1.4832 0
M  V30 5705 O 559.394 1.16046 2.24253 0
M  V30 5706 C 560.707 2.97512 -0.436682 0
M  V30 5707 C 562.255 3.10568 -0.389416 0
M  V30 5708 C 562.73 4.50866 -0.805249 0
M  V30 5709 N 564.221 4.56929 -0.759616 0
M  V30 5710 C 564.956 5.63643 -1.05327 0
M  V30 5711 N 564.452 6.78189 -1.41531 0
M  V30 5712 N 566.245 5.5354 -0.977207 0
M  V30 5713 H 558.396 1.67044 -1.31187 0
M  V30 5714 H 560.659 0.782559 -0.535075 0
M  V30 5715 H 560.365 3.19575 -1.46849 0
M  V30 5716 H 560.239 3.76742 0.185744 0
M  V30 5717 H 562.626 2.88226 0.633228 0
M  V30 5718 H 562.707 2.33387 -1.04711 0
M  V30 5719 H 562.351 4.73943 -1.82593 0
M  V30 5720 H 562.281 5.26452 -0.124989 0
M  V30 5721 H 564.772 3.74675 -0.49265 0
M  V30 5722 H 565.085 7.55541 -1.62411 0
M  V30 5723 H 563.43 6.79624 -1.45381 0
M  V30 5724 H 566.621 4.62932 -0.693675 0
M  V30 5725 H 566.794 6.36614 -1.2094 0
M  V30 5726 N 560.2 0.0768682 1.57412 0
M  V30 5727 C 561.447 -0.591085 1.93681 0
M  V30 5728 C 561.775 -1.69311 0.957286 0
M  V30 5729 O 561.03 -1.95682 -0.0262428 0
M  V30 5730 C 561.329 -1.20268 3.36557 0
M  V30 5731 C 560.995 -0.226286 4.50332 0
M  V30 5732 C 559.657 0.0423142 4.81181 0
M  V30 5733 C 562.009 0.441415 5.19327 0
M  V30 5734 C 559.337 0.985616 5.78362 0
M  V30 5735 C 561.689 1.37307 6.17519 0
M  V30 5736 C 560.353 1.65009 6.46783 0
M  V30 5737 H 559.623 -0.216293 0.70873 0
M  V30 5738 H 562.27 0.148824 1.90921 0
M  V30 5739 H 560.575 -2.01844 3.35807 0
M  V30 5740 H 562.272 -1.72688 3.61911 0
M  V30 5741 H 558.862 -0.445821 4.26275 0
M  V30 5742 H 563.046 0.247023 4.95685 0
M  V30 5743 H 558.302 1.20743 5.99359 0
M  V30 5744 H 562.476 1.89637 6.70083 0
M  V30 5745 H 560.103 2.38263 7.21897 0
M  V30 5746 N 561.678 -1.56367 -0.196722 0
M  V30 5747 C 562.918 -1.82315 -0.92415 0
M  V30 5748 C 563.282 -0.654117 -1.80514 0
M  V30 5749 O 564.483 -0.79345 -2.56823 0
M  V30 5750 C 562.754 -3.13279 -1.72021 0
M  V30 5751 S 564.313 -3.60627 -2.49988 0
M  V30 5752 H 561.131 -0.639862 -0.309997 0
M  V30 5753 H 563.733 -1.94597 -0.187684 0
M  V30 5754 H 562.437 -3.96379 -1.06358 0
M  V30 5755 H 561.968 -3.03871 -2.49852 0
M  V30 5756 H 563.983 -3.25934 -3.74141 0
M  V30 5757 N 563.156 0.464375 -1.50603 0
M  V30 5758 C 564.433 1.22549 -1.5245 0
M  V30 5759 C 564.813 2.09327 -0.273035 0
M  V30 5760 O 564.161 2.16074 0.743242 0
M  V30 5761 C 564.371 2.05074 -2.82393 0
M  V30 5762 C 565.719 2.63036 -3.33313 0
M  V30 5763 O 566.743 2.1531 -2.8376 0
M  V30 5764 O 565.602 3.5001 -4.19709 0
M  V30 5765 H 562.696 0.556471 -0.611775 0
M  V30 5766 H 565.242 0.475648 -1.62898 0
M  V30 5767 H 564.014 1.41169 -3.64948 0
M  V30 5768 H 563.637 2.87179 -2.7498 0
M  V30 5769 N 564.634 1.40294 0.718013 0
M  V30 5770 C 565.597 1.4012 1.81381 0
M  V30 5771 C 566.597 0.295405 1.58063 0
M  V30 5772 O 567.787 0.554187 1.6515 0
M  V30 5773 C 564.919 1.19056 3.19435 0
M  V30 5774 H 566.112 2.37645 1.82933 0
M  V30 5775 H 563.665 1.26107 0.923405 0
M  V30 5776 H 564.4 0.222809 3.23534 0
M  V30 5777 H 564.185 1.99152 3.37758 0
M  V30 5778 H 565.675 1.21716 3.99468 0
M  V30 5779 N 566.112 -0.949982 1.2575 0
M  V30 5780 C 567.359 -1.69515 1.10774 0
M  V30 5781 C 567.687 -1.91316 -0.350479 0
M  V30 5782 O 566.942 -1.48515 -1.27443 0
M  V30 5783 C 567.241 -3.08039 1.81237 0
M  V30 5784 C 566.907 -3.06023 3.31151 0
M  V30 5785 C 565.569 -3.0518 3.72047 0
M  V30 5786 C 567.921 -2.98998 4.26907 0
M  V30 5787 C 565.249 -2.95067 5.07102 0
M  V30 5788 C 567.601 -2.90426 5.61992 0
M  V30 5789 C 566.265 -2.87922 6.0221 0
M  V30 5790 H 565.535 -0.6203 0.405351 0
M  V30 5791 H 568.182 -1.10953 1.56082 0
M  V30 5792 H 566.487 -3.70172 1.28373 0
M  V30 5793 H 568.184 -3.64526 1.67098 0
M  V30 5794 H 564.774 -3.07453 2.98614 0
M  V30 5795 H 568.958 -2.98764 3.963 0
M  V30 5796 H 564.214 -2.915 5.37436 0
M  V30 5797 H 568.388 -2.83952 6.35881 0
M  V30 5798 H 566.015 -2.79841 7.06819 0
M  V30 5799 N 567.59 -1.07411 -1.15328 0
M  V30 5800 C 568.538 -0.689316 -2.22151 0
M  V30 5801 C 569.532 0.300156 -1.6672 0
M  V30 5802 O 570.738 0.163804 -1.79253 0
M  V30 5803 H 567.113 -0.204834 -0.723566 0
M  V30 5804 H 569.084 -1.59988 -2.51886 0
M  V30 5805 C 567.833 -0.103848 -3.47545 0
M  V30 5806 H 567.156 -0.856367 -3.90521 0
M  V30 5807 H 568.596 0.127725 -4.23808 0
M  V30 5808 C 567.055 1.15563 -3.1646 0
M  V30 5809 O 567.585 2.242 -3.33312 0
M  V30 5810 N 565.791 1.06203 -2.70498 0
M  V30 5811 H 565.338 0.177933 -2.56985 0
M  V30 5812 H 565.296 1.90553 -2.50074 0
M  V30 5813 N 569.068 1.32177 -0.85831 0
M  V30 5814 C 570.317 1.96392 -0.459689 0
M  V30 5815 C 570.63 1.68659 0.990632 0
M  V30 5816 O 571.836 2.26641 1.49485 0
M  V30 5817 C 570.292 3.51542 -0.7711 0
M  V30 5818 C 569.9 3.8813 -2.2374 0
M  V30 5819 C 571.644 4.2221 -0.44038 0
M  V30 5820 C 569.551 5.36341 -2.49183 0
M  V30 5821 H 568.481 0.735007 -0.168169 0
M  V30 5822 H 571.132 1.50518 -1.0496 0
M  V30 5823 H 569.514 3.95846 -0.11058 0
M  V30 5824 H 570.688 3.54824 -2.94001 0
M  V30 5825 H 569.003 3.30497 -2.533 0
M  V30 5826 H 571.6 5.31234 -0.607855 0
M  V30 5827 H 571.943 4.11683 0.618291 0
M  V30 5828 H 572.476 3.83502 -1.05695 0
M  V30 5829 H 569.215 5.51892 -3.53689 0
M  V30 5830 H 568.735 5.7104 -1.83504 0
M  V30 5831 H 570.414 6.03466 -2.33318 0
M  V30 5832 N 570.547 0.616602 1.45037 0
M  V30 5833 C 571.958 0.199359 1.85633 0
M  V30 5834 C 572.309 -1.24588 1.51566 0
M  V30 5835 O 571.434 -1.94594 0.94668 0
M  V30 5836 C 572.029 0.355033 3.36935 0
M  V30 5837 C 570.588 -0.00758748 3.76399 0
M  V30 5838 C 569.735 0.675256 2.68953 0
M  V30 5839 H 572.686 0.822708 1.3571 0
M  V30 5840 H 572.707 -0.410201 3.78282 0
M  V30 5841 H 572.219 1.40699 3.61698 0
M  V30 5842 H 570.32 -1.05837 3.57252 0
M  V30 5843 H 570.433 0.392346 4.77491 0
M  V30 5844 H 568.797 0.111992 2.54454 0
M  V30 5845 H 569.58 1.72952 2.96551 0
M  V30 5846 N 572.025 -1.5352 0.356285 0
M  V30 5847 C 572.955 -2.28372 -0.486661 0
M  V30 5848 C 573.936 -1.30432 -1.09185 0
M  V30 5849 O 575.121 -1.59291 -1.11085 0
M  V30 5850 C 572.251 -3.06604 -1.63129 0
M  V30 5851 C 571.205 -4.12154 -1.15381 0
M  V30 5852 C 570.531 -4.78415 -2.38796 0
M  V30 5853 C 571.831 -5.21724 -0.245179 0
M  V30 5854 H 573.525 -2.99083 0.137797 0
M  V30 5855 H 571.071 -1.43841 0.0677134 0
M  V30 5856 H 573.024 -3.57712 -2.22755 0
M  V30 5857 H 571.748 -2.33568 -2.28284 0
M  V30 5858 H 570.407 -3.61978 -0.580294 0
M  V30 5859 H 570.055 -4.01959 -3.02387 0
M  V30 5860 H 569.755 -5.49734 -2.07524 0
M  V30 5861 H 571.279 -5.32313 -2.99125 0
M  V30 5862 H 572.693 -5.68391 -0.748646 0
M  V30 5863 H 571.09 -6.00095 -0.0237608 0
M  V30 5864 H 572.16 -4.79596 0.715229 0
M  V30 5865 N 573.503 -0.0852151 -1.57369 0
M  V30 5866 C 574.752 0.580443 -1.93168 0
M  V30 5867 C 575.065 1.6995 -0.968319 0
M  V30 5868 O 576.271 2.42564 -1.21963 0
M  V30 5869 C 574.727 1.08386 -3.43192 0
M  V30 5870 C 574.335 -0.00491388 -4.48 0
M  V30 5871 C 576.079 1.72281 -3.87968 0
M  V30 5872 C 573.986 0.513299 -5.89168 0
M  V30 5873 H 572.916 0.22059 -0.72101 0
M  V30 5874 H 575.567 -0.159621 -1.82804 0
M  V30 5875 H 573.949 1.8773 -3.48674 0
M  V30 5876 H 575.123 -0.780032 -4.5415 0
M  V30 5877 H 573.438 -0.548453 -4.12772 0
M  V30 5878 H 576.035 2.12108 -4.9083 0
M  V30 5879 H 576.378 2.58811 -3.26071 0
M  V30 5880 H 576.911 0.995359 -3.85146 0
M  V30 5881 H 573.65 -0.315153 -6.54742 0
M  V30 5882 H 573.17 1.25564 -5.8651 0
M  V30 5883 H 574.849 0.985433 -6.39451 0
M  V30 5884 N 574.981 1.5647 0.188427 0
M  V30 5885 C 576.209 1.85131 0.923803 0
M  V30 5886 C 576.624 0.668537 1.76567 0
M  V30 5887 O 575.981 -0.362662 1.7886 0
M  V30 5888 C 576.032 3.12661 1.81453 0
M  V30 5889 O 575.753 4.26378 1.00665 0
M  V30 5890 C 577.254 3.54548 2.66103 0
M  V30 5891 H 574.474 0.614624 0.269218 0
M  V30 5892 H 577.018 2.03581 0.193671 0
M  V30 5893 H 575.173 2.96088 2.49821 0
M  V30 5894 H 575.587 4.99041 1.61425 0
M  V30 5895 H 577.061 4.4673 3.24247 0
M  V30 5896 H 577.538 2.77853 3.40139 0
M  V30 5897 H 578.144 3.73674 2.03096 0
M  V30 5898 N 576.459 -0.456382 1.50847 0
M  V30 5899 C 577.706 -1.20736 1.62571 0
M  V30 5900 C 578.034 -1.9163 0.332904 0
M  V30 5901 O 577.289 -1.8343 -0.682058 0
M  V30 5902 C 577.588 -2.26336 2.76599 0
M  V30 5903 C 577.254 -1.7259 4.16562 0
M  V30 5904 C 575.916 -1.57654 4.54641 0
M  V30 5905 C 578.268 -1.32877 5.03977 0
M  V30 5906 C 575.596 -1.0145 5.77862 0
M  V30 5907 C 577.948 -0.7811 6.27759 0
M  V30 5908 C 576.612 -0.618488 6.64628 0
M  V30 5909 H 575.882 -0.441803 0.594888 0
M  V30 5910 H 578.529 -0.501169 1.84826 0
M  V30 5911 H 576.834 -3.0292 2.48489 0
M  V30 5912 H 578.531 -2.84227 2.82871 0
M  V30 5913 H 575.121 -1.85187 3.86528 0
M  V30 5914 H 579.305 -1.43245 4.75179 0
M  V30 5915 H 574.561 -0.876109 6.0509 0
M  V30 5916 H 578.735 -0.464783 6.94847 0
M  V30 5917 H 576.362 -0.180838 7.59985 0
M  V30 5918 N 577.937 -1.40673 -0.710563 0
M  V30 5919 C 579.183 -1.39428 -1.47267 0
M  V30 5920 C 579.516 0.00182129 -1.942 0
M  V30 5921 O 578.791 0.971387 -1.68506 0
M  V30 5922 C 579.074 -2.38812 -2.6952 0
M  V30 5923 C 578.927 -3.87467 -2.28449 0
M  V30 5924 C 580.246 -2.3566 -3.71689 0
M  V30 5925 H 577.365 -0.507768 -0.534173 0
M  V30 5926 H 580.007 -1.71843 -0.810547 0
M  V30 5927 H 578.157 -2.113 -3.26013 0
M  V30 5928 H 579.829 -4.25825 -1.77399 0
M  V30 5929 H 578.072 -4.03058 -1.60395 0
M  V30 5930 H 578.743 -4.5253 -3.16103 0
M  V30 5931 H 581.219 -2.6004 -3.24836 0
M  V30 5932 H 580.095 -3.07237 -4.54859 0
M  V30 5933 H 580.356 -1.36996 -4.20339 0
M  V30 5934 N 579.415 0.9433 -1.26252 0
M  V30 5935 C 580.692 1.66639 -1.02424 0
M  V30 5936 C 581.072 2.06335 0.446006 0
M  V30 5937 O 580.42 1.78551 1.42589 0
M  V30 5938 C 580.63 2.88019 -1.97094 0
M  V30 5939 C 581.978 3.59718 -2.25584 0
M  V30 5940 O 583.002 2.9812 -1.94943 0
M  V30 5941 O 581.861 4.7066 -2.77743 0
M  V30 5942 H 578.955 0.729643 -0.389294 0
M  V30 5943 H 581.501 0.995218 -1.37454 0
M  V30 5944 H 580.273 2.5556 -2.96319 0
M  V30 5945 H 579.896 3.62863 -1.62532 0
M  V30 5946 N 580.893 1.08022 1.14757 0
M  V30 5947 C 582.139 0.808705 1.85978 0
M  V30 5948 C 582.472 -0.663764 1.82504 0
M  V30 5949 O 581.747 -1.48765 1.25296 0
M  V30 5950 C 582.03 1.32623 3.34788 0
M  V30 5951 C 581.883 2.86375 3.46856 0
M  V30 5952 C 583.202 0.948291 4.29762 0
M  V30 5953 H 580.321 0.295244 0.675278 0
M  V30 5954 H 582.963 1.33917 1.34783 0
M  V30 5955 H 581.113 0.875002 3.78518 0
M  V30 5956 H 582.785 3.39839 3.11941 0
M  V30 5957 H 581.028 3.24232 2.88194 0
M  V30 5958 H 581.699 3.17658 4.51439 0
M  V30 5959 H 584.175 1.33722 3.94028 0
M  V30 5960 H 583.051 1.33765 5.32352 0
M  V30 5961 H 583.312 -0.145094 4.41862 0
M  V30 5962 N 582.371 -1.3172 0.865308 0
M  V30 5963 C 583.782 -1.79104 0.527126 0
M  V30 5964 C 584.133 -1.7135 -0.955695 0
M  V30 5965 O 583.258 -1.27845 -1.74598 0
M  V30 5966 C 583.853 -3.25207 0.950061 0
M  V30 5967 C 582.412 -3.70504 0.663611 0
M  V30 5968 C 581.559 -2.52605 1.14395 0
M  V30 5969 H 584.51 -1.18868 1.05148 0
M  V30 5970 H 584.531 -3.79535 0.270805 0
M  V30 5971 H 584.043 -3.30818 2.02931 0
M  V30 5972 H 582.144 -3.70398 -0.404474 0
M  V30 5973 H 582.257 -4.62845 1.23737 0
M  V30 5974 H 580.621 -2.4838 0.563859 0
M  V30 5975 H 581.404 -2.60964 2.23053 0
M  V30 5976 N 583.85 -0.624285 -1.44708 0
M  V30 5977 C 585.098 -0.125802 -2.01708 0
M  V30 5978 C 585.418 1.2543 -1.49306 0
M  V30 5979 O 584.689 1.83198 -0.693924 0
M  V30 5980 H 583.269 -0.0435161 -0.745731 0
M  V30 5981 H 585.931 -0.809446 -1.77296 0
M  V30 5982 H 585.027 -0.0882734 -3.11975 0
M  V30 5983 N 585.328 1.53329 -0.364422 0
M  V30 5984 C 586.575 2.01239 0.225634 0
M  V30 5985 C 586.903 1.25172 1.48869 0
M  V30 5986 O 586.158 0.333289 1.92841 0
M  V30 5987 C 586.457 3.52911 0.564661 0
M  V30 5988 C 586.123 4.46837 -0.603936 0
M  V30 5989 C 584.785 4.72234 -0.924585 0
M  V30 5990 C 587.137 5.02409 -1.38691 0
M  V30 5991 C 584.465 5.50454 -2.0302 0
M  V30 5992 C 586.817 5.81836 -2.48293 0
M  V30 5993 C 585.481 6.0552 -2.80894 0
M  V30 5994 H 584.751 0.736386 0.0825654 0
M  V30 5995 H 587.398 1.84948 -0.496645 0
M  V30 5996 H 585.703 3.67144 1.36794 0
M  V30 5997 H 587.4 3.87455 1.03344 0
M  V30 5998 H 583.99 4.27217 -0.343983 0
M  V30 5999 H 588.174 4.82735 -1.15243 0
M  V30 6000 H 583.43 5.67024 -2.28678 0
M  V30 6001 H 587.604 6.23905 -3.0938 0
M  V30 6002 H 585.231 6.65916 -3.66688 0
M  V30 6003 N 586.806 0.0935595 1.57322 0
M  V30 6004 C 587.736 -0.863062 2.16964 0
M  V30 6005 C 588.717 -1.29528 1.10256 0
M  V30 6006 O 589.902 -1.36245 1.38387 0
M  V30 6007 C 587.032 -2.12276 2.74875 0
M  V30 6008 C 585.986 -1.82921 3.86942 0
M  V30 6009 C 585.312 -3.15707 4.31548 0
M  V30 6010 C 586.612 -1.11737 5.10208 0
M  V30 6011 H 588.306 -0.366145 2.97153 0
M  V30 6012 H 585.852 -0.174673 1.42937 0
M  V30 6013 H 587.805 -2.79634 3.1525 0
M  V30 6014 H 586.529 -2.64248 1.91938 0
M  V30 6015 H 585.188 -1.17961 3.47103 0
M  V30 6016 H 584.836 -3.65563 3.45504 0
M  V30 6017 H 584.536 -2.96849 5.07104 0
M  V30 6018 H 586.06 -3.84226 4.74555 0
M  V30 6019 H 587.474 -1.69203 5.47762 0
M  V30 6020 H 585.871 -1.03064 5.91183 0
M  V30 6021 H 586.941 -0.0998818 4.84797 0
M  V30 6022 N 588.284 -1.56567 -0.180126 0
M  V30 6023 C 589.695 -1.7126 -0.743422 0
M  V30 6024 C 590.046 -0.70263 -1.83187 0
M  V30 6025 O 589.171 0.137856 -2.1596 0
M  V30 6026 C 589.766 -3.10512 -1.35528 0
M  V30 6027 C 588.325 -3.26919 -1.8655 0
M  V30 6028 C 587.472 -2.67213 -0.741099 0
M  V30 6029 H 590.423 -1.58636 0.0451543 0
M  V30 6030 H 590.444 -3.08673 -2.22489 0
M  V30 6031 H 589.956 -3.83997 -0.562862 0
M  V30 6032 H 588.057 -2.58376 -2.68464 0
M  V30 6033 H 588.17 -4.34574 -2.01699 0
M  V30 6034 H 586.534 -2.26788 -1.15927 0
M  V30 6035 H 587.317 -3.43277 0.0393291 0
M  V30 6036 N 589.762 0.448376 -1.51087 0
M  V30 6037 C 591.01 1.19635 -1.62886 0
M  V30 6038 C 591.331 1.91977 -0.342024 0
M  V30 6039 O 590.601 1.85094 0.641636 0
M  V30 6040 H 589.181 0.444598 -0.600285 0
M  V30 6041 H 591.843 0.515138 -1.87969 0
M  V30 6042 H 590.939 1.93194 -2.45117 0
M  V30 6043 N 591.24 1.41047 0.703093 0
M  V30 6044 C 592.468 1.4334 1.49202 0
M  V30 6045 C 592.883 0.0365596 1.88765 0
M  V30 6046 O 592.24 -0.942419 1.56284 0
M  V30 6047 C 592.291 2.33538 2.75939 0
M  V30 6048 O 592.012 3.67786 2.38045 0
M  V30 6049 C 593.513 2.44555 3.6974 0
M  V30 6050 H 590.733 0.488472 0.460039 0
M  V30 6051 H 593.277 1.85245 0.86629 0
M  V30 6052 H 591.432 1.94962 3.34766 0
M  V30 6053 H 591.846 4.15816 3.19683 0
M  V30 6054 H 593.32 3.11849 4.55471 0
M  V30 6055 H 593.797 1.47447 4.1371 0
M  V30 6056 H 594.403 2.83735 3.16819 0
M  V30 6057 N 592.718 -0.936591 1.26751 0
M  V30 6058 C 593.681 -2.01752 1.08761 0
M  V30 6059 C 594.681 -1.60763 0.0344435 0
M  V30 6060 O 595.871 -1.71963 0.278258 0
M  V30 6061 C 593.003 -3.34543 0.655271 0
M  V30 6062 H 594.196 -2.19143 2.04735 0
M  V30 6063 H 591.749 -1.11618 1.09413 0
M  V30 6064 H 592.484 -3.22851 -0.30626 0
M  V30 6065 H 592.269 -3.65647 1.41578 0
M  V30 6066 H 593.759 -4.13944 0.551378 0
M  V30 6067 N 594.196 -1.08629 -1.14182 0
M  V30 6068 C 595.128 -0.676189 -2.18998 0
M  V30 6069 C 596.141 0.277871 -1.60411 0
M  V30 6070 O 597.33 0.0651771 -1.78381 0
M  V30 6071 C 594.43 0.0254916 -3.3889 0
M  V30 6072 C 593.603 -0.948039 -4.27002 0
M  V30 6073 C 592.662 -0.281268 -5.25448 0
M  V30 6074 O 591.688 -0.926378 -5.61611 0
M  V30 6075 N 592.89 0.967923 -5.72374 0
M  V30 6076 H 595.655 -1.57792 -2.54798 0
M  V30 6077 H 593.216 -0.972665 -1.29425 0
M  V30 6078 H 595.208 0.482554 -4.01813 0
M  V30 6079 H 593.778 0.829348 -3.01398 0
M  V30 6080 H 592.998 -1.58388 -3.6098 0
M  V30 6081 H 594.286 -1.60765 -4.82734 0
M  V30 6082 H 593.684 1.51175 -5.45126 0
M  V30 6083 H 592.241 1.36844 -6.37273 0
M  V30 6084 N 595.674 1.31259 -0.872281 0
M  V30 6085 C 596.584 2.32221 -0.333255 0
M  V30 6086 C 597.6 1.6481 0.558013 0
M  V30 6087 O 598.776 1.96212 0.454175 0
M  V30 6088 C 595.841 3.43708 0.454479 0
M  V30 6089 C 594.902 4.26774 -0.465024 0
M  V30 6090 C 594.135 5.32937 0.28521 0
M  V30 6091 O 594.358 5.49968 1.513 0
M  V30 6092 O 593.292 6.00834 -0.358126 0
M  V30 6093 H 597.118 2.80252 -1.17016 0
M  V30 6094 H 594.703 1.352 -0.635724 0
M  V30 6095 H 596.585 4.11656 0.900963 0
M  V30 6096 H 595.26 2.97836 1.26789 0
M  V30 6097 H 594.167 3.61571 -0.960055 0
M  V30 6098 H 595.5 4.76217 -1.2441 0
M  V30 6099 N 597.152 0.631951 1.44375 0
M  V30 6100 C 598.382 0.143658 2.061 0
M  V30 6101 C 598.79 -1.18733 1.47306 0
M  V30 6102 O 598.133 -1.73943 0.590724 0
M  V30 6103 C 598.195 -0.0446102 3.59472 0
M  V30 6104 C 597.859 1.20835 4.40736 0
M  V30 6105 C 598.856 2.13224 4.74164 0
M  V30 6106 C 596.541 1.44399 4.81097 0
M  V30 6107 C 598.535 3.27487 5.46838 0
M  V30 6108 C 596.222 2.58959 5.53519 0
M  V30 6109 C 597.22 3.50329 5.86309 0
M  V30 6110 O 596.908 4.62891 6.57257 0
M  V30 6111 H 596.64 0.0772939 0.671567 0
M  V30 6112 H 599.194 0.866677 1.8622 0
M  V30 6113 H 597.424 -0.822783 3.77845 0
M  V30 6114 H 599.113 -0.487561 4.02961 0
M  V30 6115 H 599.879 1.96253 4.4352 0
M  V30 6116 H 595.758 0.741696 4.54994 0
M  V30 6117 H 599.302 3.98826 5.72349 0
M  V30 6118 H 595.199 2.75873 5.83579 0
M  V30 6119 H 595.967 4.61883 6.75726 0
M  V30 6120 N 598.631 -1.53133 0.372548 0
M  V30 6121 C 599.879 -2.00958 -0.214534 0
M  V30 6122 C 600.2 -1.26135 -1.48711 0
M  V30 6123 O 599.47 -0.376597 -1.92246 0
M  V30 6124 H 598.05 -0.742456 -0.0822664 0
M  V30 6125 H 600.712 -1.88367 0.500385 0
M  V30 6126 H 599.808 -3.09031 -0.436605 0
M  V30 6127 N 600.109 -0.101901 -1.5727 0
M  V30 6128 C 601.357 0.559091 -1.94213 0
M  V30 6129 C 601.678 1.68297 -0.984948 0
M  V30 6130 O 600.948 1.95863 -0.0381975 0
M  V30 6131 H 599.528 0.20952 -0.717015 0
M  V30 6132 H 602.19 -0.166831 -1.94185 0
M  V30 6133 H 601.286 0.96485 -2.96811 0
M  V30 6134 N 601.587 1.56661 0.17182 0
M  V30 6135 C 602.836 1.81158 0.886831 0
M  V30 6136 C 603.149 0.679072 1.83434 0
M  V30 6137 O 604.355 0.808964 2.59168 0
M  V30 6138 C 602.811 3.20999 1.6275 0
M  V30 6139 C 602.419 4.42117 0.723652 0
M  V30 6140 C 604.163 3.5479 2.33076 0
M  V30 6141 C 602.07 5.7298 1.46452 0
M  V30 6142 H 601 0.675543 0.334899 0
M  V30 6143 H 603.651 1.82967 0.139765 0
M  V30 6144 H 602.033 3.13506 2.4193 0
M  V30 6145 H 603.207 4.60789 -0.0311485 0
M  V30 6146 H 601.522 4.16197 0.130063 0
M  V30 6147 H 604.119 4.49806 2.89099 0
M  V30 6148 H 604.462 2.79646 3.08389 0
M  V30 6149 H 604.995 3.63834 1.6084 0
M  V30 6150 H 601.734 6.51152 0.753729 0
M  V30 6151 H 601.254 5.58285 2.19266 0
M  V30 6152 H 602.933 6.14916 2.01214 0
M  V30 6153 N 603.065 -0.440357 1.51323 0
M  V30 6154 C 604.314 -1.18697 1.63076 0
M  V30 6155 C 604.627 -1.92418 0.35136 0
M  V30 6156 O 605.833 -2.69258 0.348221 0
M  V30 6157 C 604.289 -2.15849 2.87988 0
M  V30 6158 C 603.897 -1.47789 4.22921 0
M  V30 6159 C 605.641 -2.90962 3.09098 0
M  V30 6160 C 603.548 -2.43407 5.38987 0
M  V30 6161 H 602.478 -0.44676 0.607389 0
M  V30 6162 H 605.129 -0.454313 1.77787 0
M  V30 6163 H 603.511 -2.92537 2.66905 0
M  V30 6164 H 604.685 -0.7668 4.54375 0
M  V30 6165 H 603 -0.848404 4.07665 0
M  V30 6166 H 605.597 -3.62584 3.92985 0
M  V30 6167 H 605.94 -3.52133 2.22053 0
M  V30 6168 H 606.473 -2.21381 3.30507 0
M  V30 6169 H 603.212 -1.86929 6.28282 0
M  V30 6170 H 602.732 -3.12579 5.11913 0
M  V30 6171 H 604.411 -3.046 5.70813 0
M  V30 6172 N 604.543 -1.41418 -0.695603 0
M  V30 6173 C 605.959 -1.23887 -1.00619 0
M  V30 6174 C 606.159 -0.128206 -2.01092 0
M  V30 6175 O 605.215 0.507408 -2.47349 0
M  V30 6176 C 606.528 -2.58816 -1.53083 0
M  V30 6177 C 608.076 -2.65998 -1.64967 0
M  V30 6178 C 608.551 -4.01244 -2.20833 0
M  V30 6179 N 610.042 -4.0309 -2.28194 0
M  V30 6180 C 610.777 -5.04539 -2.72448 0
M  V30 6181 N 610.273 -6.16378 -3.16306 0
M  V30 6182 N 612.066 -4.91901 -2.72011 0
M  V30 6183 H 604.217 -2.12379 -0.0300061 0
M  V30 6184 H 606.48 -0.944958 -0.0758797 0
M  V30 6185 H 606.186 -3.40842 -0.867147 0
M  V30 6186 H 606.06 -2.81299 -2.51298 0
M  V30 6187 H 608.447 -1.84331 -2.30448 0
M  V30 6188 H 608.528 -2.47325 -0.652982 0
M  V30 6189 H 608.172 -4.83359 -1.55968 0
M  V30 6190 H 608.102 -4.17257 -3.21254 0
M  V30 6191 H 610.593 -3.22341 -1.97242 0
M  V30 6192 H 610.906 -6.89658 -3.487 0
M  V30 6193 H 609.251 -6.19914 -3.14215 0
M  V30 6194 H 612.442 -4.03613 -2.37095 0
M  V30 6195 H 612.615 -5.71102 -3.06181 0
M  V30 6196 N 606.021 0.929856 -1.27246 0
M  V30 6197 C 606.971 2.01629 -1.06442 0
M  V30 6198 C 607.955 1.60899 0.00687842 0
M  V30 6199 O 609.147 1.75733 -0.211407 0
M  V30 6200 C 606.276 3.35849 -0.711361 0
M  V30 6201 C 605.362 3.8303 -1.82069 0
M  V30 6202 N 605.753 4.02743 -3.05993 0
M  V30 6203 C 604.051 4.12046 -1.70687 0
M  V30 6204 C 604.752 4.42001 -3.78167 0
M  V30 6205 N 603.728 4.4935 -3.05918 0
M  V30 6206 H 607.53 2.14898 -2.00489 0
M  V30 6207 H 605.044 1.11654 -1.17929 0
M  V30 6208 H 607.041 4.13343 -0.543442 0
M  V30 6209 H 605.701 3.23944 0.221517 0
M  V30 6210 H 606.712 3.89112 -3.41778 0
M  V30 6211 H 603.389 4.08866 -0.844681 0
M  V30 6212 H 604.779 4.6535 -4.84664 0
M  V30 6213 N 607.499 1.09233 1.13605 0
M  V30 6214 C 608.747 0.825525 1.84471 0
M  V30 6215 C 609.068 -0.650702 1.83823 0
M  V30 6216 O 608.338 -1.47204 1.29259 0
M  V30 6217 H 606.918 0.3024 0.683054 0
M  V30 6218 H 609.58 1.38006 1.37624 0
M  V30 6219 H 608.676 1.17727 2.89045 0
M  V30 6220 N 608.977 -1.30795 0.87923 0
M  V30 6221 C 609.94 -2.26563 0.346676 0
M  V30 6222 C 610.94 -1.52578 -0.507597 0
M  V30 6223 O 612.13 -1.71318 -0.315575 0
M  V30 6224 C 609.262 -3.37115 -0.506611 0
M  V30 6225 H 610.455 -2.75183 1.19223 0
M  V30 6226 H 608.008 -1.41886 0.655598 0
M  V30 6227 H 608.743 -2.93802 -1.37299 0
M  V30 6228 H 608.528 -3.91959 0.105218 0
M  V30 6229 H 610.018 -4.08412 -0.871192 0
M  V30 6230 N 610.455 -0.639598 -1.44038 0
M  V30 6231 C 611.402 0.0602458 -2.30721 0
M  V30 6232 C 612.372 0.828352 -1.43971 0
M  V30 6233 O 613.557 0.807693 -1.72861 0
M  V30 6234 C 610.697 1.03008 -3.29368 0
M  V30 6235 C 609.81 0.259502 -4.3122 0
M  V30 6236 C 608.945 1.22191 -5.16955 0
M  V30 6237 C 607.984 0.440978 -6.10509 0
M  V30 6238 N 607.121 1.35428 -6.88915 0
M  V30 6239 H 611.961 -0.684867 -2.90023 0
M  V30 6240 H 609.498 -0.349509 -1.42888 0
M  V30 6241 H 611.456 1.60583 -3.85057 0
M  V30 6242 H 610.086 1.74222 -2.71747 0
M  V30 6243 H 609.138 -0.432317 -3.77935 0
M  V30 6244 H 610.45 -0.348347 -4.97582 0
M  V30 6245 H 609.604 1.86873 -5.77203 0
M  V30 6246 H 608.343 1.86367 -4.50687 0
M  V30 6247 H 607.348 -0.219279 -5.49363 0
M  V30 6248 H 608.573 -0.196192 -6.78817 0
M  V30 6249 H 606.519 1.9831 -6.25307 0
M  V30 6250 H 606.436 0.800657 -7.51748 0
M  V30 6251 H 607.704 1.98967 -7.53679 0
M  V30 6252 N 611.933 1.52934 -0.380664 0
M  V30 6253 C 612.863 2.29118 0.450268 0
M  V30 6254 C 613.844 1.32153 1.07096 0
M  V30 6255 O 615.029 1.61038 1.08537 0
M  V30 6256 C 612.159 3.09161 1.58231 0
M  V30 6257 C 611.113 4.13938 1.0881 0
M  V30 6258 C 610.439 4.82153 2.31155 0
M  V30 6259 C 611.739 5.22048 0.162146 0
M  V30 6260 H 613.433 2.98826 -0.185361 0
M  V30 6261 H 610.979 1.43715 -0.0905886 0
M  V30 6262 H 612.932 3.61211 2.17036 0
M  V30 6263 H 611.656 2.3717 2.2454 0
M  V30 6264 H 610.315 3.62855 0.522633 0
M  V30 6265 H 609.963 4.06719 2.95953 0
M  V30 6266 H 609.663 5.52966 1.98752 0
M  V30 6267 H 611.187 5.37004 2.90618 0
M  V30 6268 H 612.601 5.6951 0.658126 0
M  V30 6269 H 610.998 6.00057 -0.0717122 0
M  V30 6270 H 612.068 4.78398 -0.791438 0
M  V30 6271 N 613.412 0.11024 1.57214 0
M  V30 6272 C 614.342 -0.840002 2.17867 0
M  V30 6273 C 615.323 -1.28352 1.11624 0
M  V30 6274 O 616.508 -1.3477 1.39824 0
M  V30 6275 C 613.638 -2.09349 2.77111 0
M  V30 6276 C 612.592 -1.78807 3.8886 0
M  V30 6277 C 611.918 -3.11112 4.34872 0
M  V30 6278 C 613.218 -1.0632 5.11364 0
M  V30 6279 H 614.912 -0.334608 2.97524 0
M  V30 6280 H 612.458 -0.159502 1.43114 0
M  V30 6281 H 614.411 -2.76275 3.18198 0
M  V30 6282 H 613.135 -2.62198 1.9473 0
M  V30 6283 H 611.794 -1.14273 3.48335 0
M  V30 6284 H 611.442 -3.61877 3.49362 0
M  V30 6285 H 611.142 -2.91453 5.10224 0
M  V30 6286 H 612.666 -3.79171 4.78604 0
M  V30 6287 H 614.08 -1.63383 5.49526 0
M  V30 6288 H 612.477 -0.967876 5.92243 0
M  V30 6289 H 613.547 -0.0484569 4.84876 0
M  V30 6290 N 614.89 -1.56749 -0.16351 0
M  V30 6291 C 616.12 -1.86307 -0.892936 0
M  V30 6292 C 616.528 -0.6945 -1.75992 0
M  V30 6293 O 615.871 0.345384 -1.80424 0
M  V30 6294 C 615.933 -3.10372 -1.81409 0
M  V30 6295 C 615.597 -4.42913 -1.12593 0
M  V30 6296 C 616.594 -5.17608 -0.487661 0
M  V30 6297 C 614.279 -4.89646 -1.12035 0
M  V30 6298 C 616.273 -6.3723 0.14699 0
M  V30 6299 C 613.96 -6.09197 -0.481883 0
M  V30 6300 C 614.958 -6.82834 0.150678 0
M  V30 6301 O 614.646 -8.00116 0.779065 0
M  V30 6302 H 614.378 -0.622126 -0.264452 0
M  V30 6303 H 616.932 -2.04728 -0.166063 0
M  V30 6304 H 615.162 -2.87917 -2.58148 0
M  V30 6305 H 616.851 -3.26312 -2.41403 0
M  V30 6306 H 617.617 -4.8258 -0.483888 0
M  V30 6307 H 613.496 -4.32265 -1.60212 0
M  V30 6308 H 617.04 -6.94646 0.641325 0
M  V30 6309 H 612.937 -6.43688 -0.483266 0
M  V30 6310 H 613.705 -8.15678 0.679089 0
M  V30 6311 N 616.368 0.432326 -1.51554 0
M  V30 6312 C 617.331 1.50765 -1.72634 0
M  V30 6313 C 618.331 1.49334 -0.596314 0
M  V30 6314 O 619.521 1.51268 -0.863925 0
M  V30 6315 C 616.653 2.90284 -1.7874 0
M  V30 6316 H 617.846 1.33377 -2.68609 0
M  V30 6317 H 615.399 0.661329 -1.4162 0
M  V30 6318 H 616.134 3.13071 -0.845977 0
M  V30 6319 H 615.919 2.92727 -2.6087 0
M  V30 6320 H 617.409 3.68282 -1.96871 0
M  V30 6321 N 617.846 1.41785 0.688094 0
M  V30 6322 C 619.093 1.41544 1.44816 0
M  V30 6323 C 619.421 0.0271746 1.94481 0
M  V30 6324 O 618.676 -0.962235 1.7041 0
M  V30 6325 C 618.975 2.37532 2.67046 0
M  V30 6326 C 618.641 3.84209 2.35996 0
M  V30 6327 C 617.303 4.24165 2.27239 0
M  V30 6328 C 619.655 4.76785 2.10536 0
M  V30 6329 C 616.983 5.54695 1.91128 0
M  V30 6330 C 619.335 6.07644 1.75931 0
M  V30 6331 C 617.999 6.46613 1.65675 0
M  V30 6332 H 617.269 0.517945 0.529919 0
M  V30 6333 H 619.916 1.74635 0.785797 0
M  V30 6334 H 618.221 1.9772 3.38251 0
M  V30 6335 H 619.918 2.34615 3.25203 0
M  V30 6336 H 616.508 3.52567 2.4371 0
M  V30 6337 H 620.692 4.46714 2.16242 0
M  V30 6338 H 615.948 5.83762 1.81746 0
M  V30 6339 H 620.122 6.78874 1.55252 0
M  V30 6340 H 617.749 7.47668 1.37463 0
M  V30 6341 N 619.324 -0.923095 1.27737 0
M  V30 6342 C 620.287 -2.00587 1.10894 0
M  V30 6343 C 621.287 -1.60718 0.0514927 0
M  V30 6344 O 622.477 -1.71658 0.296481 0
M  V30 6345 C 619.609 -3.33829 0.690717 0
M  V30 6346 H 620.802 -2.16959 2.07048 0
M  V30 6347 H 618.355 -1.10451 1.1059 0
M  V30 6348 H 619.09 -3.23157 -0.272 0
M  V30 6349 H 618.875 -3.64125 1.45448 0
M  V30 6350 H 620.365 -4.13336 0.595252 0
M  V30 6351 N 620.802 -1.09834 -1.13024 0
M  V30 6352 C 621.712 -0.753731 -2.22162 0
M  V30 6353 C 622.728 0.246105 -1.72251 0
M  V30 6354 O 623.904 0.0864051 -2.01215 0
M  V30 6355 C 620.969 -0.183958 -3.46212 0
M  V30 6356 C 620.03 -1.24028 -4.10993 0
M  V30 6357 C 619.263 -0.697597 -5.29121 0
M  V30 6358 O 619.486 0.478092 -5.68393 0
M  V30 6359 O 618.42 -1.4546 -5.84059 0
M  V30 6360 H 622.246 -1.66456 -2.5402 0
M  V30 6361 H 619.831 -0.873026 -1.21238 0
M  V30 6362 H 621.713 0.130257 -4.21199 0
M  V30 6363 H 620.388 0.699823 -3.16045 0
M  V30 6364 H 619.295 -1.60725 -3.37814 0
M  V30 6365 H 620.628 -2.09685 -4.45301 0
M  V30 6366 N 622.28 1.30327 -0.886154 0
M  V30 6367 C 623.243 2.26376 -0.358687 0
M  V30 6368 C 624.243 1.52845 0.499498 0
M  V30 6369 O 625.433 1.71483 0.306485 0
M  V30 6370 C 622.565 3.37379 0.488726 0
M  V30 6371 H 623.758 2.74547 -1.20681 0
M  V30 6372 H 621.311 1.41536 -0.663113 0
M  V30 6373 H 622.046 2.94526 1.35739 0
M  V30 6374 H 621.831 3.91897 -0.126003 0
M  V30 6375 H 623.321 4.08868 0.84952 0
M  V30 6376 N 623.758 0.647228 1.43697 0
M  V30 6377 C 624.986 0.16575 2.06235 0
M  V30 6378 C 625.401 -1.1662 1.48476 0
M  V30 6379 O 624.758 -1.7187 0.613762 0
M  V30 6380 C 624.809 0.0621651 3.61447 0
M  V30 6381 O 624.53 1.34146 4.17057 0
M  V30 6382 C 626.031 -0.446102 4.4105 0
M  V30 6383 H 623.251 0.0871158 0.665321 0
M  V30 6384 H 625.795 0.886183 1.84301 0
M  V30 6385 H 623.95 -0.608794 3.82587 0
M  V30 6386 H 624.364 1.19675 5.10664 0
M  V30 6387 H 625.838 -0.46755 5.50016 0
M  V30 6388 H 626.315 -1.47627 4.13646 0
M  V30 6389 H 626.921 0.192159 4.24866 0
M  V30 6390 N 625.236 -1.5273 0.388769 0
M  V30 6391 C 626.482 -2.01871 -0.193877 0
M  V30 6392 C 626.815 -1.27475 -1.46505 0
M  V30 6393 O 626.09 -0.375063 -1.90849 0
M  V30 6394 C 626.373 -3.5712 -0.462336 0
M  V30 6395 C 626.226 -4.42186 0.824091 0
M  V30 6396 C 627.545 -4.21881 -1.25319 0
M  V30 6397 H 624.664 -0.733764 -0.0689899 0
M  V30 6398 H 627.306 -1.82796 0.518231 0
M  V30 6399 H 625.456 -3.73504 -1.06896 0
M  V30 6400 H 627.128 -4.37554 1.46096 0
M  V30 6401 H 625.371 -4.09219 1.43952 0
M  V30 6402 H 626.042 -5.48828 0.590905 0
M  V30 6403 H 628.518 -4.0947 -0.73981 0
M  V30 6404 H 627.394 -5.30487 -1.40977 0
M  V30 6405 H 627.655 -3.79478 -2.26824 0
M  V30 6406 N 626.714 -0.118576 -1.57153 0
M  V30 6407 C 628.125 0.40687 -1.82213 0
M  V30 6408 C 628.476 1.66636 -1.03571 0
M  V30 6409 O 627.601 2.14682 -0.272171 0
M  V30 6410 C 628.196 0.744949 -3.30509 0
M  V30 6411 C 626.755 1.21503 -3.5625 0
M  V30 6412 C 625.902 0.223511 -2.76398 0
M  V30 6413 H 628.853 -0.343712 -1.54933 0
M  V30 6414 H 628.874 1.6024 -3.45114 0
M  V30 6415 H 628.386 -0.171911 -3.87719 0
M  V30 6416 H 626.487 2.1488 -3.04396 0
M  V30 6417 H 626.6 1.16065 -4.64829 0
M  V30 6418 H 624.964 0.71046 -2.44591 0
M  V30 6419 H 625.747 -0.686439 -3.36367 0
M  V30 6420 N 628.193 1.56834 0.155195 0
M  V30 6421 C 629.14 1.97646 1.19184 0
M  V30 6422 C 630.11 0.842788 1.4313 0
M  V30 6423 O 631.295 1.1042 1.55602 0
M  V30 6424 C 628.435 2.35527 2.52232 0
M  V30 6425 C 627.548 3.62147 2.35529 0
M  V30 6426 C 626.683 3.89167 3.61555 0
M  V30 6427 C 625.722 5.09084 3.39853 0
M  V30 6428 N 624.859 5.32156 4.5799 0
M  V30 6429 H 629.699 2.8601 0.836802 0
M  V30 6430 H 627.236 1.41507 0.401758 0
M  V30 6431 H 629.194 2.55516 3.29799 0
M  V30 6432 H 627.824 1.50253 2.85699 0
M  V30 6433 H 626.876 3.4998 1.49057 0
M  V30 6434 H 628.188 4.49871 2.15448 0
M  V30 6435 H 627.342 4.09611 4.47553 0
M  V30 6436 H 626.081 2.9985 3.84632 0
M  V30 6437 H 625.086 4.88522 2.52243 0
M  V30 6438 H 626.311 5.99947 3.18183 0
M  V30 6439 H 624.257 4.45791 4.81255 0
M  V30 6440 H 624.174 6.14133 4.40882 0
M  V30 6441 H 625.442 5.57091 5.45225 0
M  V30 6442 N 629.671 -0.424282 1.51781 0
M  V30 6443 C 630.917 -1.17434 1.6534 0
M  V30 6444 C 631.25 -1.90549 0.374806 0
M  V30 6445 O 630.525 -1.84145 -0.626179 0
M  V30 6446 C 630.808 -2.18093 2.86544 0
M  V30 6447 C 630.661 -1.48975 4.24413 0
M  V30 6448 C 631.98 -3.18934 3.03264 0
M  V30 6449 H 629.099 -0.425566 0.601716 0
M  V30 6450 H 631.741 -0.461921 1.84299 0
M  V30 6451 H 629.891 -2.78849 2.7051 0
M  V30 6452 H 631.563 -0.914551 4.52143 0
M  V30 6453 H 629.806 -0.791893 4.26511 0
M  V30 6454 H 630.477 -2.22347 5.05238 0
M  V30 6455 H 632.953 -2.68243 3.18096 0
M  V30 6456 H 631.829 -3.86645 3.89611 0
M  V30 6457 H 632.09 -3.85793 2.15908 0
M  V30 6458 N 631.149 -1.42148 -0.680565 0
M  V30 6459 C 632.377 -1.45696 -1.46902 0
M  V30 6460 C 632.792 -0.0665858 -1.88683 0
M  V30 6461 O 632.149 0.917436 -1.57764 0
M  V30 6462 C 632.2 -2.37898 -2.72188 0
M  V30 6463 O 631.921 -3.71526 -2.32163 0
M  V30 6464 C 633.422 -2.50407 -3.65802 0
M  V30 6465 H 630.642 -0.495729 -0.45221 0
M  V30 6466 H 633.186 -1.866 -0.836709 0
M  V30 6467 H 631.341 -2.00263 -3.31622 0
M  V30 6468 H 631.755 -4.20849 -3.13027 0
M  V30 6469 H 633.229 -3.19056 -4.50452 0
M  V30 6470 H 633.706 -1.5401 -4.11312 0
M  V30 6471 H 634.312 -2.8874 -3.12265 0
M  V30 6472 N 632.627 0.916307 -1.28225 0
M  V30 6473 C 633.873 1.66765 -1.154 0
M  V30 6474 C 634.206 1.91912 0.297251 0
M  V30 6475 O 633.481 1.51766 1.21644 0
M  V30 6476 C 633.764 3.02715 -1.95028 0
M  V30 6477 C 633.617 2.84738 -3.48201 0
M  V30 6478 C 634.936 4.03215 -1.76369 0
M  V30 6479 H 632.055 0.605205 -0.42059 0
M  V30 6480 H 634.697 1.06255 -1.57512 0
M  V30 6481 H 632.847 3.54365 -1.59242 0
M  V30 6482 H 634.519 2.40118 -3.9388 0
M  V30 6483 H 632.762 2.19848 -3.73964 0
M  V30 6484 H 633.433 3.8127 -3.99171 0
M  V30 6485 H 635.909 3.60617 -2.07593 0
M  V30 6486 H 634.785 4.96306 -2.34459 0
M  V30 6487 H 635.046 4.36288 -0.71452 0
M  V30 6488 N 634.105 1.10431 1.1244 0
M  V30 6489 C 635.354 0.841539 1.83306 0
M  V30 6490 C 635.667 -0.634961 1.85007 0
M  V30 6491 O 636.873 -1.01363 2.51869 0
M  V30 6492 C 635.329 1.45565 3.29149 0
M  V30 6493 C 634.937 2.96544 3.35806 0
M  V30 6494 C 636.681 1.27227 4.04986 0
M  V30 6495 C 634.588 3.5099 4.75983 0
M  V30 6496 H 633.518 0.311156 0.686803 0
M  V30 6497 H 636.169 1.32829 1.26604 0
M  V30 6498 H 634.551 0.896574 3.85717 0
M  V30 6499 H 635.725 3.58766 2.89177 0
M  V30 6500 H 634.04 3.14036 2.73442 0
M  V30 6501 H 636.637 1.65348 5.08492 0
M  V30 6502 H 636.98 0.213834 4.1575 0
M  V30 6503 H 637.513 1.79941 3.54776 0
M  V30 6504 H 634.252 4.56499 4.70413 0
M  V30 6505 H 633.772 2.93535 5.23065 0
M  V30 6506 H 635.451 3.48808 5.44924 0
M  V30 6507 N 635.583 -1.29855 0.893053 0
M  V30 6508 C 636.811 -1.99976 0.530788 0
M  V30 6509 C 637.226 -1.66889 -0.882799 0
M  V30 6510 O 636.583 -0.910352 -1.58173 0
M  V30 6511 C 636.634 -3.54547 0.705587 0
M  V30 6512 O 636.355 -3.86458 2.06353 0
M  V30 6513 C 637.856 -4.41937 0.347387 0
M  V30 6514 H 635.076 -0.639129 0.204339 0
M  V30 6515 H 637.62 -1.65549 1.20057 0
M  V30 6516 H 635.775 -3.87311 0.0830685 0
M  V30 6517 H 636.189 -4.81146 2.08803 0
M  V30 6518 H 637.663 -5.4954 0.520557 0
M  V30 6519 H 638.14 -4.33339 -0.715139 0
M  V30 6520 H 638.746 -4.14633 0.946567 0
M  V30 6521 N 637.061 -0.65484 -1.43351 0
M  V30 6522 C 638.477 -0.32255 -1.56307 0
M  V30 6523 C 638.677 1.17324 -1.63821 0
M  V30 6524 O 637.733 1.95813 -1.59417 0
M  V30 6525 C 639.046 -1.03533 -2.82314 0
M  V30 6526 C 640.594 -1.01574 -2.9606 0
M  V30 6527 C 641.069 -1.70945 -4.24902 0
M  V30 6528 N 642.56 -1.67716 -4.3177 0
M  V30 6529 C 643.295 -2.18265 -5.30234 0
M  V30 6530 N 642.791 -2.7711 -6.34966 0
M  V30 6531 N 644.584 -2.08756 -5.21898 0
M  V30 6532 H 636.735 -1.62549 -1.36717 0
M  V30 6533 H 638.998 -0.683676 -0.656727 0
M  V30 6534 H 638.704 -2.09045 -2.8283 0
M  V30 6535 H 638.578 -0.587913 -3.7259 0
M  V30 6536 H 640.965 0.0309834 -2.95084 0
M  V30 6537 H 641.046 -1.50186 -2.07069 0
M  V30 6538 H 640.69 -2.75574 -4.26639 0
M  V30 6539 H 640.62 -1.19797 -5.12793 0
M  V30 6540 H 643.111 -1.24777 -3.56706 0
M  V30 6541 H 643.424 -3.13353 -7.06421 0
M  V30 6542 H 641.769 -2.81171 -6.35585 0
M  V30 6543 H 644.96 -1.62488 -4.38994 0
M  V30 6544 H 645.133 -2.48459 -5.98475 0
M  V30 6545 N 638.539 1.52521 -0.396863 0
M  V30 6546 C 639.486 2.26671 0.434624 0
M  V30 6547 C 640.456 1.28584 1.05144 0
M  V30 6548 O 641.641 1.57426 1.07804 0
M  V30 6549 C 638.781 3.08234 1.55196 0
M  V30 6550 C 637.894 4.21261 0.957262 0
M  V30 6551 C 637.029 4.90205 2.04627 0
M  V30 6552 C 636.068 5.95213 1.42787 0
M  V30 6553 N 635.205 6.57723 2.45651 0
M  V30 6554 H 640.045 2.973 -0.204139 0
M  V30 6555 H 637.582 1.46669 -0.112505 0
M  V30 6556 H 639.54 3.53819 2.2106 0
M  V30 6557 H 638.17 2.398 2.16092 0
M  V30 6558 H 637.222 3.79935 0.188005 0
M  V30 6559 H 638.534 4.96624 0.465416 0
M  V30 6560 H 637.688 5.39133 2.78246 0
M  V30 6561 H 636.427 4.14383 2.57174 0
M  V30 6562 H 635.432 5.45616 0.676968 0
M  V30 6563 H 636.657 6.72972 0.910255 0
M  V30 6564 H 634.603 5.84737 2.97353 0
M  V30 6565 H 634.52 7.28723 2.01243 0
M  V30 6566 H 635.788 7.11293 3.18876 0
M  V30 6567 N 640.017 0.126909 1.57088 0
M  V30 6568 C 640.98 -0.806097 2.14557 0
M  V30 6569 C 641.98 -1.18918 1.08236 0
M  V30 6570 O 643.17 -1.11339 1.33975 0
M  V30 6571 C 640.302 -2.09116 2.69227 0
M  V30 6572 H 641.495 -0.306522 2.98329 0
M  V30 6573 H 639.048 -0.122393 1.5582 0
M  V30 6574 H 639.783 -2.63486 1.89065 0
M  V30 6575 H 639.568 -1.82588 3.46993 0
M  V30 6576 H 641.058 -2.75794 3.13572 0
M  V30 6577 N 641.495 -1.56914 -0.146875 0
M  V30 6578 C 642.725 -1.87243 -0.873126 0
M  V30 6579 C 643.133 -0.713127 -1.75246 0
M  V30 6580 O 642.476 0.326228 -1.8078 0
M  V30 6581 C 642.538 -3.12279 -1.78107 0
M  V30 6582 C 642.202 -4.44082 -1.07889 0
M  V30 6583 C 643.199 -5.18096 -0.432734 0
M  V30 6584 C 640.884 -4.90807 -1.06836 0
M  V30 6585 C 642.878 -6.37039 0.214569 0
M  V30 6586 C 640.565 -6.09674 -0.417243 0
M  V30 6587 C 641.563 -6.82636 0.223093 0
M  V30 6588 O 641.251 -7.99245 0.863884 0
M  V30 6589 H 640.983 -0.624896 -0.257839 0
M  V30 6590 H 643.537 -2.04892 -0.14434 0
M  V30 6591 H 641.767 -2.90639 -2.5508 0
M  V30 6592 H 643.456 -3.28854 -2.37929 0
M  V30 6593 H 644.222 -4.83066 -0.432677 0
M  V30 6594 H 640.101 -4.3394 -1.55618 0
M  V30 6595 H 643.645 -6.93927 0.714965 0
M  V30 6596 H 639.542 -6.44165 -0.414967 0
M  V30 6597 H 640.31 -8.14912 0.765564 0
M  V30 6598 N 642.974 0.416227 -1.52004 0
M  V30 6599 C 644.222 1.16153 -1.65387 0
M  V30 6600 C 644.543 1.91208 -0.382669 0
M  V30 6601 O 643.813 1.86413 0.602231 0
M  V30 6602 H 642.393 0.431765 -0.60958 0
M  V30 6603 H 645.055 0.475151 -1.89019 0
M  V30 6604 H 644.151 1.87952 -2.4916 0
M  V30 6605 N 644.452 1.42507 0.673017 0
M  V30 6606 C 645.7 1.42789 1.43023 0
M  V30 6607 C 646.021 0.0459738 1.94946 0
M  V30 6608 O 645.291 -0.915765 1.73178 0
M  V30 6609 H 643.871 0.525657 0.530748 0
M  V30 6610 H 646.533 1.77944 0.795113 0
M  V30 6611 H 645.629 2.12872 2.28237 0
M  V30 6612 N 645.93 -0.909495 1.28709 0
M  V30 6613 C 646.893 -1.99399 1.13016 0
M  V30 6614 C 647.893 -1.60654 0.068536 0
M  V30 6615 O 649.083 -1.71334 0.314671 0
M  V30 6616 C 646.215 -3.33078 0.726085 0
M  V30 6617 H 647.408 -2.14751 2.09338 0
M  V30 6618 H 644.961 -1.09272 1.11756 0
M  V30 6619 H 645.696 -3.23428 -0.23771 0
M  V30 6620 H 645.481 -3.62562 1.49302 0
M  V30 6621 H 646.971 -4.12681 0.639058 0
M  V30 6622 N 647.408 -1.11026 -1.11852 0
M  V30 6623 C 648.638 -0.877544 -1.87037 0
M  V30 6624 C 649.046 0.575925 -1.80221 0
M  V30 6625 O 648.389 1.40916 -1.17849 0
M  V30 6626 C 648.451 -1.25529 -3.36872 0
M  V30 6627 C 648.115 -2.71704 -3.67459 0
M  V30 6628 C 649.112 -3.69931 -3.65304 0
M  V30 6629 C 646.797 -3.08243 -3.966 0
M  V30 6630 C 648.791 -5.02717 -3.9186 0
M  V30 6631 C 646.478 -4.41215 -4.22815 0
M  V30 6632 C 647.476 -5.38262 -4.20432 0
M  V30 6633 O 647.164 -6.68839 -4.45992 0
M  V30 6634 H 646.896 -0.314374 -0.598452 0
M  V30 6635 H 649.45 -1.48015 -1.42411 0
M  V30 6636 H 647.68 -0.595808 -3.82082 0
M  V30 6637 H 649.369 -0.999064 -3.93413 0
M  V30 6638 H 650.135 -3.43047 -3.42846 0
M  V30 6639 H 646.014 -2.33326 -3.97593 0
M  V30 6640 H 649.558 -5.78456 -3.89916 0
M  V30 6641 H 645.455 -4.67835 -4.44748 0
M  V30 6642 H 646.223 -6.74563 -4.63581 0
M  V30 6643 N 648.886 1.2938 -0.899927 0
M  V30 6644 C 650.163 1.9046 -0.445443 0
M  V30 6645 C 650.543 1.81683 1.07492 0
M  V30 6646 O 649.891 1.24371 1.91688 0
M  V30 6647 C 650.101 3.35529 -0.960279 0
M  V30 6648 C 651.449 4.12556 -1.00412 0
M  V30 6649 O 652.473 3.44434 -0.907965 0
M  V30 6650 O 651.332 5.34294 -1.14857 0
M  V30 6651 H 648.426 0.815253 -0.138893 0
M  V30 6652 H 650.972 1.37844 -0.989808 0
M  V30 6653 H 649.744 3.36074 -2.00425 0
M  V30 6654 H 649.367 3.95624 -0.395939 0
M  V30 6655 N 650.364 0.662433 1.43002 0
M  V30 6656 C 651.61 0.179857 2.02001 0
M  V30 6657 C 651.943 -1.20625 1.52195 0
M  V30 6658 O 651.218 -1.80726 0.718911 0
M  V30 6659 C 651.501 0.200845 3.59539 0
M  V30 6660 C 651.354 1.62153 4.19555 0
M  V30 6661 C 652.673 -0.457738 4.37713 0
M  V30 6662 H 649.792 0.0668305 0.733964 0
M  V30 6663 H 652.434 0.84487 1.70182 0
M  V30 6664 H 650.584 -0.365411 3.86778 0
M  V30 6665 H 652.256 2.23908 4.03315 0
M  V30 6666 H 650.499 2.16601 3.75854 0
M  V30 6667 H 651.17 1.58799 5.28665 0
M  V30 6668 H 653.646 0.0241495 4.16093 0
M  V30 6669 H 652.522 -0.412363 5.47349 0
M  V30 6670 H 652.783 -1.53336 4.14657 0
M  V30 6671 N 651.842 -1.52309 0.404946 0
M  V30 6672 C 652.775 -2.23369 -0.467087 0
M  V30 6673 C 653.753 -1.24034 -1.0514 0
M  V30 6674 O 654.937 -1.53071 -1.10006 0
M  V30 6675 C 652.064 -2.95906 -1.64795 0
M  V30 6676 C 651.11 -4.09637 -1.18743 0
M  V30 6677 S 651.943 -5.35273 -0.156022 0
M  V30 6678 C 653.099 -6.11337 -1.34231 0
M  V30 6679 H 653.332 -2.96987 0.136294 0
M  V30 6680 H 650.865 -1.53236 0.189219 0
M  V30 6681 H 652.823 -3.38304 -2.3251 0
M  V30 6682 H 651.484 -2.21937 -2.22267 0
M  V30 6683 H 650.677 -4.59549 -2.06955 0
M  V30 6684 H 650.279 -3.69333 -0.588981 0
M  V30 6685 H 652.571 -6.38458 -2.26665 0
M  V30 6686 H 653.514 -7.02563 -0.883804 0
M  V30 6687 H 653.922 -5.42338 -1.56621 0
M  V30 6688 N 653.32 -0.135238 -1.57019 0
M  V30 6689 C 654.545 0.529343 -2.00531 0
M  V30 6690 C 654.97 1.58391 -1.01459 0
M  V30 6691 O 654.328 1.81296 0.0113986 0
M  V30 6692 C 654.376 1.11748 -3.42848 0
M  V30 6693 O 653.48 2.23267 -3.46736 0
M  V30 6694 H 652.821 0.130669 -0.651016 0
M  V30 6695 H 655.351 -0.228503 -2.0332 0
M  V30 6696 H 655.361 1.44905 -3.81401 0
M  V30 6697 H 654.036 0.345147 -4.14465 0
M  V30 6698 H 652.613 1.91428 -3.20015 0
M  V30 6699 N 654.798 1.5699 0.138552 0
M  V30 6700 C 656.023 1.88344 0.86841 0
M  V30 6701 C 656.448 0.725159 1.7356 0
M  V30 6702 O 655.806 -0.324992 1.78363 0
M  V30 6703 C 655.854 3.18334 1.69398 0
M  V30 6704 O 654.958 3.02863 2.79907 0
M  V30 6705 H 654.299 0.618577 0.241367 0
M  V30 6706 H 656.829 2.04207 0.126826 0
M  V30 6707 H 656.839 3.50567 2.08726 0
M  V30 6708 H 655.514 4.02238 1.05725 0
M  V30 6709 H 654.091 2.82056 2.43924 0
M  V30 6710 N 656.276 -0.40816 1.52223 0
M  V30 6711 C 657.223 -1.49737 1.75635 0
M  V30 6712 C 658.193 -1.5493 0.598824 0
M  V30 6713 O 659.378 -1.71487 0.83648 0
M  V30 6714 C 656.518 -2.87174 1.91376 0
M  V30 6715 C 655.631 -2.91283 3.19027 0
M  V30 6716 C 654.766 -4.20026 3.25195 0
M  V30 6717 C 653.805 -4.18113 4.47044 0
M  V30 6718 N 652.942 -5.38429 4.50598 0
M  V30 6719 H 657.782 -1.29075 2.68596 0
M  V30 6720 H 655.319 -0.626518 1.33091 0
M  V30 6721 H 657.277 -3.66959 1.98486 0
M  V30 6722 H 655.907 -3.06329 1.01795 0
M  V30 6723 H 654.959 -2.03984 3.21084 0
M  V30 6724 H 656.271 -2.85734 4.08849 0
M  V30 6725 H 655.425 -5.08204 3.31382 0
M  V30 6726 H 654.164 -4.28271 2.33313 0
M  V30 6727 H 653.169 -3.28325 4.41002 0
M  V30 6728 H 654.394 -4.11507 5.40221 0
M  V30 6729 H 652.34 -5.4734 3.616 0
M  V30 6730 H 652.257 -5.34879 5.34266 0
M  V30 6731 H 653.525 -6.28557 4.61016 0
M  V30 6732 N 657.755 -1.42862 -0.66545 0
M  V30 6733 C 658.705 -1.43521 -1.7716 0
M  V30 6734 C 659.689 -0.305267 -1.57978 0
M  V30 6735 O 660.881 -0.548176 -1.68297 0
M  V30 6736 C 658.01 -1.34914 -3.15679 0
M  V30 6737 C 657.096 -2.5289 -3.40452 0
M  V30 6738 N 657.487 -3.78284 -3.3576 0
M  V30 6739 C 655.785 -2.47351 -3.71124 0
M  V30 6740 C 656.486 -4.56701 -3.60276 0
M  V30 6741 N 655.462 -3.87249 -3.81496 0
M  V30 6742 H 659.264 -2.38357 -1.7194 0
M  V30 6743 H 656.778 -1.37342 -0.866653 0
M  V30 6744 H 658.775 -1.33468 -3.94958 0
M  V30 6745 H 657.435 -0.410881 -3.2209 0
M  V30 6746 H 658.446 -4.10746 -3.15448 0
M  V30 6747 H 655.123 -1.62152 -3.84725 0
M  V30 6748 H 656.513 -5.65704 -3.6253 0
M  V30 6749 N 659.233 0.902656 -1.29189 0
M  V30 6750 C 660.163 2.02294 -1.16616 0
M  V30 6751 C 661.144 1.6999 -0.0611175 0
M  V30 6752 O 662.329 1.9271 -0.240072 0
M  V30 6753 C 659.459 3.37018 -0.83882 0
M  V30 6754 C 658.413 3.83522 -1.89986 0
M  V30 6755 C 657.739 5.15337 -1.42589 0
M  V30 6756 C 659.039 4.04169 -3.30824 0
M  V30 6757 H 660.733 2.13071 -2.10336 0
M  V30 6758 H 658.279 1.02378 -1.01266 0
M  V30 6759 H 660.232 4.14895 -0.737584 0
M  V30 6760 H 658.956 3.26325 0.134071 0
M  V30 6761 H 657.615 3.07859 -1.99043 0
M  V30 6762 H 657.263 5.01056 -0.441759 0
M  V30 6763 H 656.963 5.47423 -2.13547 0
M  V30 6764 H 658.487 5.95758 -1.3381 0
M  V30 6765 H 659.901 4.72537 -3.24626 0
M  V30 6766 H 658.298 4.47604 -3.99713 0
M  V30 6767 H 659.368 3.08604 -3.74021 0
M  V30 6768 N 660.711 1.11618 1.11262 0
M  V30 6769 C 661.951 0.876154 1.8467 0
M  V30 6770 C 662.315 -0.587551 1.82789 0
M  V30 6771 O 663.516 -0.944411 2.51663 0
M  V30 6772 C 661.787 1.42461 3.2778 0
M  V30 6773 S 663.346 1.32185 4.18417 0
M  V30 6774 H 660.164 0.31628 0.636779 0
M  V30 6775 H 662.766 1.42404 1.33946 0
M  V30 6776 H 661.47 2.48367 3.26714 0
M  V30 6777 H 661.001 0.873844 3.83572 0
M  V30 6778 H 663.016 0.287607 4.95366 0
M  V30 6779 N 662.189 -1.289 0.906776 0
M  V30 6780 C 663.437 -1.94883 0.535266 0
M  V30 6781 C 663.758 -1.71784 -0.922791 0
M  V30 6782 O 663.028 -1.05359 -1.65156 0
M  V30 6783 H 661.608 -0.721109 0.194962 0
M  V30 6784 H 664.27 -1.57018 1.15461 0
M  V30 6785 H 663.366 -3.03591 0.723821 0
M  V30 6786 N 663.667 -0.670007 -1.42649 0
M  V30 6787 C 664.944 -0.119451 -1.95235 0
M  V30 6788 C 665.324 1.36461 -1.61064 0
M  V30 6789 O 664.672 2.09843 -0.904329 0
M  V30 6790 C 664.882 -0.383498 -3.46887 0
M  V30 6791 C 666.23 -0.297431 -4.23557 0
M  V30 6792 O 667.254 -0.31698 -3.54787 0
M  V30 6793 O 666.113 -0.235507 -5.45992 0
M  V30 6794 H 663.207 -8.85474e-05 -0.827 0
M  V30 6795 H 665.753 -0.744406 -1.52501 0
M  V30 6796 H 664.525 -1.41174 -3.64946 0
M  V30 6797 H 664.148 0.273702 -3.96657 0
M  V30 6798 N 665.145 1.52092 -0.413018 0
M  V30 6799 C 666.373 2.06274 0.160881 0
M  V30 6800 C 666.788 1.28273 1.38533 0
M  V30 6801 O 666.145 0.33563 1.79387 0
M  V30 6802 C 666.196 3.57921 0.507443 0
M  V30 6803 O 665.917 4.32971 -0.668388 0
M  V30 6804 C 667.418 4.28533 1.13465 0
M  V30 6805 H 664.638 0.67074 0.0186759 0
M  V30 6806 H 667.182 1.95951 -0.585092 0
M  V30 6807 H 665.337 3.68238 1.20331 0
M  V30 6808 H 665.751 5.23135 -0.378169 0
M  V30 6809 H 667.225 5.35804 1.32732 0
M  V30 6810 H 667.702 3.85258 2.10886 0
M  V30 6811 H 668.308 4.22595 0.478876 0
M  V30 6812 N 666.623 0.143563 1.56945 0
M  V30 6813 C 667.571 -0.814556 2.17871 0
M  V30 6814 C 668.565 -1.25778 1.13474 0
M  V30 6815 O 669.771 -1.22666 1.31731 0
M  V30 6816 H 666.146 -0.280873 0.697578 0
M  V30 6817 H 668.117 -0.276459 2.97117 0
M  V30 6818 C 666.866 -2.04503 2.81201 0
M  V30 6819 H 666.189 -1.71296 3.61245 0
M  V30 6820 H 667.629 -2.69493 3.27337 0
M  V30 6821 C 666.088 -2.85079 1.79532 0
M  V30 6822 O 666.618 -3.81306 1.26368 0
M  V30 6823 N 664.824 -2.49546 1.48913 0
M  V30 6824 H 664.371 -1.71359 1.92338 0
M  V30 6825 H 664.329 -3.03751 0.811348 0
M  V30 6826 N 668.101 -1.57061 -0.130224 0
M  V30 6827 C 669.331 -1.88159 -0.853217 0
M  V30 6828 C 669.739 -0.731675 -1.7448 0
M  V30 6829 O 669.082 0.307035 -1.81116 0
M  V30 6830 C 669.144 -3.1415 -1.74785 0
M  V30 6831 C 668.808 -4.45202 -1.03173 0
M  V30 6832 C 669.805 -5.18526 -0.377759 0
M  V30 6833 C 667.49 -4.91912 -1.01624 0
M  V30 6834 C 669.484 -6.36775 0.282123 0
M  V30 6835 C 667.171 -6.10082 -0.352555 0
M  V30 6836 C 668.169 -6.82361 0.295483 0
M  V30 6837 O 667.857 -7.98284 0.948606 0
M  V30 6838 H 667.589 -0.627596 -0.251197 0
M  V30 6839 H 670.143 -2.05034 -0.1226 0
M  V30 6840 H 668.373 -2.93328 -2.51983 0
M  V30 6841 H 670.062 -3.31359 -2.34427 0
M  V30 6842 H 670.828 -4.83498 -0.381417 0
M  V30 6843 H 666.707 -4.35566 -1.51007 0
M  V30 6844 H 670.251 -6.93129 0.788525 0
M  V30 6845 H 666.148 -6.44569 -0.346621 0
M  V30 6846 H 666.916 -8.14054 0.851954 0
M  V30 6847 N 669.579 0.400081 -1.52437 0
M  V30 6848 C 670.542 1.4707 -1.75793 0
M  V30 6849 C 671.542 1.48036 -0.627856 0
M  V30 6850 O 672.732 1.49401 -0.895817 0
M  V30 6851 C 669.864 2.86427 -1.84858 0
M  V30 6852 H 671.057 1.27649 -2.71377 0
M  V30 6853 H 668.61 0.631141 -1.42991 0
M  V30 6854 H 669.345 3.11207 -0.912194 0
M  V30 6855 H 669.13 2.87128 -2.6702 0
M  V30 6856 H 670.62 3.64023 -2.04638 0
M  V30 6857 N 671.057 1.43213 0.657864 0
M  V30 6858 C 672.303 1.45795 1.41829 0
M  V30 6859 C 672.658 0.0792176 1.92237 0
M  V30 6860 O 671.951 -0.901406 1.69072 0
M  V30 6861 C 672.145 2.43143 2.61947 0
M  V30 6862 C 671.974 3.90345 2.23295 0
M  V30 6863 C 670.744 4.58749 2.11843 0
M  V30 6864 C 672.942 4.80308 1.83873 0
M  V30 6865 N 670.924 5.90898 1.66473 0
M  V30 6866 C 672.295 6.01693 1.49549 0
M  V30 6867 C 674.35 4.67609 1.71015 0
M  V30 6868 C 673.053 7.11792 1.03657 0
M  V30 6869 C 675.079 5.77707 1.26527 0
M  V30 6870 C 674.441 6.98215 0.931379 0
M  V30 6871 H 670.54 0.588628 0.514822 0
M  V30 6872 H 673.124 1.7936 0.7575 0
M  V30 6873 H 671.295 2.11612 3.25692 0
M  V30 6874 H 673.027 2.36193 3.28626 0
M  V30 6875 H 669.782 4.1319 2.31453 0
M  V30 6876 H 670.206 6.61034 1.46163 0
M  V30 6877 H 674.848 3.74902 1.95469 0
M  V30 6878 H 672.566 8.04332 0.779502 0
M  V30 6879 H 676.152 5.69899 1.17074 0
M  V30 6880 H 675.032 7.81959 0.592379 0
M  V30 6881 N 672.536 -0.895792 1.29666 0
M  V30 6882 C 673.947 -1.46195 1.1612 0
M  V30 6883 C 674.298 -1.94699 -0.242195 0
M  V30 6884 O 673.423 -1.8406 -1.13802 0
M  V30 6885 C 674.018 -2.65718 2.10189 0
M  V30 6886 C 672.577 -3.18458 2.00653 0
M  V30 6887 C 671.724 -1.91149 2.00891 0
M  V30 6888 H 674.675 -0.706756 1.42094 0
M  V30 6889 H 674.696 -3.4158 1.6764 0
M  V30 6890 H 674.208 -2.30386 3.12321 0
M  V30 6891 H 672.309 -3.58474 1.01623 0
M  V30 6892 H 672.422 -3.82491 2.88509 0
M  V30 6893 H 670.786 -2.09021 1.45542 0
M  V30 6894 H 671.569 -1.58089 3.04734 0
M  V30 6895 N 674.014 -1.12206 -1.10668 0
M  V30 6896 C 675.242 -0.898635 -1.86366 0
M  V30 6897 C 675.657 0.551991 -1.80551 0
M  V30 6898 O 675.014 1.38152 -1.19249 0
M  V30 6899 C 675.065 -1.36199 -3.34861 0
M  V30 6900 O 674.786 -2.75576 -3.40573 0
M  V30 6901 C 676.287 -1.17515 -4.2744 0
M  V30 6902 H 673.507 -0.321281 -0.589084 0
M  V30 6903 H 676.051 -1.49142 -1.39918 0
M  V30 6904 H 674.206 -0.81249 -3.78784 0
M  V30 6905 H 674.62 -2.95851 -4.33096 0
M  V30 6906 H 676.094 -1.54827 -5.29842 0
M  V30 6907 H 676.571 -0.115486 -4.39048 0
M  V30 6908 H 677.177 -1.71203 -3.89319 0
M  V30 6909 N 675.492 1.28418 -0.913599 0
M  V30 6910 C 676.455 2.25564 -0.406624 0
M  V30 6911 C 677.455 1.5387 0.466965 0
M  V30 6912 O 678.645 1.72094 0.270042 0
M  V30 6913 C 675.777 3.38339 0.417053 0
M  V30 6914 H 676.97 2.71926 -1.26477 0
M  V30 6915 H 674.523 1.40098 -0.692986 0
M  V30 6916 H 675.258 2.97339 1.29461 0
M  V30 6917 H 675.043 3.91542 -0.209102 0
M  V30 6918 H 676.533 4.10578 0.762602 0
M  V30 6919 N 676.97 0.677563 1.42291 0
M  V30 6920 C 677.88 0.000962654 2.346 0
M  V30 6921 C 678.896 -0.785833 1.55244 0
M  V30 6922 O 680.072 -0.727523 1.87801 0
M  V30 6923 C 677.137 -0.936746 3.33805 0
M  V30 6924 C 676.198 -0.144173 4.29058 0
M  V30 6925 C 675.431 -1.03722 5.23524 0
M  V30 6926 O 675.654 -2.27675 5.22992 0
M  V30 6927 O 674.588 -0.496542 5.99848 0
M  V30 6928 H 678.414 0.761397 2.94001 0
M  V30 6929 H 675.999 0.43781 1.42841 0
M  V30 6930 H 677.881 -1.47497 3.94744 0
M  V30 6931 H 676.556 -1.67698 2.76874 0
M  V30 6932 H 675.463 0.438224 3.71524 0
M  V30 6933 H 676.796 0.55701 4.89038 0
M  V30 6934 N 678.448 -1.51871 0.421078 0
M  V30 6935 C 679.697 -2.01125 -0.152206 0
M  V30 6936 C 680.01 -1.3106 -1.45199 0
M  V30 6937 O 681.216 -1.71195 -2.10724 0
M  V30 6938 C 679.672 -3.58458 -0.3218 0
M  V30 6939 C 679.28 -4.37448 0.96659 0
M  V30 6940 C 681.024 -4.15908 -0.84973 0
M  V30 6941 C 678.931 -5.86451 0.763529 0
M  V30 6942 H 677.861 -0.751556 -0.0606565 0
M  V30 6943 H 680.512 -1.75115 0.548354 0
M  V30 6944 H 678.894 -3.80847 -1.08498 0
M  V30 6945 H 680.068 -4.26814 1.73684 0
M  V30 6946 H 678.383 -3.91373 1.42183 0
M  V30 6947 H 680.98 -5.24922 -1.01788 0
M  V30 6948 H 681.323 -3.74031 -1.82774 0
M  V30 6949 H 681.856 -3.97535 -0.145297 0
M  V30 6950 H 678.595 -6.3271 1.71344 0
M  V30 6951 H 678.115 -5.99791 0.0327889 0
M  V30 6952 H 679.794 -6.45697 0.410354 0
M  V30 6953 N 679.926 -0.151884 -1.56866 0
M  V30 6954 C 680.889 0.771861 -2.15812 0
M  V30 6955 C 681.889 1.17181 -1.10115 0
M  V30 6956 O 683.079 1.09194 -1.35729 0
M  V30 6957 C 680.211 2.04806 -2.7252 0
M  V30 6958 H 681.404 0.259021 -2.98779 0
M  V30 6959 H 678.957 0.097588 -1.55995 0
M  V30 6960 H 679.692 2.60445 -1.93233 0
M  V30 6961 H 679.477 1.77044 -3.49854 0
M  V30 6962 H 680.967 2.70771 -3.1792 0
M  V30 6963 N 681.404 1.57128 0.121893 0
M  V30 6964 C 682.65 1.84974 0.831418 0
M  V30 6965 C 682.983 0.737204 1.79663 0
M  V30 6966 O 682.258 -0.257199 1.92792 0
M  V30 6967 C 682.541 3.23397 1.58386 0
M  V30 6968 C 682.394 4.45246 0.638445 0
M  V30 6969 C 683.713 3.59355 2.54071 0
M  V30 6970 H 680.832 0.67282 0.300803 0
M  V30 6971 H 683.474 1.89759 0.0957587 0
M  V30 6972 H 681.624 3.19449 2.21098 0
M  V30 6973 H 683.296 4.61295 0.0203925 0
M  V30 6974 H 681.539 4.33771 -0.05023 0
M  V30 6975 H 682.21 5.38765 1.20151 0
M  V30 6976 H 684.686 3.64075 2.01465 0
M  V30 6977 H 683.562 4.57193 3.03752 0
M  V30 6978 H 683.823 2.86622 3.36601 0
M  V30 6979 N 682.882 -0.391992 1.52647 0
M  V30 6980 C 683.815 -1.50019 1.71958 0
M  V30 6981 C 684.793 -1.5238 0.567365 0
M  V30 6982 O 685.977 -1.70831 0.796806 0
M  V30 6983 C 683.104 -2.88496 1.77447 0
M  V30 6984 C 682.15 -3.03974 2.99169 0
M  V30 6985 S 682.983 -2.75487 4.59203 0
M  V30 6986 C 684.139 -4.16163 4.67503 0
M  V30 6987 H 684.372 -1.33413 2.65685 0
M  V30 6988 H 681.905 -0.584674 1.42902 0
M  V30 6989 H 683.863 -3.68296 1.81296 0
M  V30 6990 H 682.524 -3.02431 0.848188 0
M  V30 6991 H 681.717 -4.05328 2.99542 0
M  V30 6992 H 681.319 -2.32062 2.93297 0
M  V30 6993 H 683.611 -5.10048 4.45934 0
M  V30 6994 H 684.554 -4.20806 5.69498 0
M  V30 6995 H 684.962 -4.01933 3.96371 0
M  V30 6996 N 684.36 -1.4356 -0.65026 0
M  V30 6997 C 685.608 -1.45046 -1.40734 0
M  V30 6998 C 685.929 -0.0769822 -1.94848 0
M  V30 6999 O 685.199 0.888098 -1.74613 0
M  V30 7000 H 683.779 -0.534034 -0.522318 0
M  V30 7001 H 686.441 -1.79186 -0.766703 0
M  V30 7002 H 685.537 -2.16476 -2.24822 0
M  V30 7003 N 685.838 0.888903 -1.30139 0
M  V30 7004 C 686.801 1.97576 -1.16174 0
M  V30 7005 C 687.801 1.60525 -0.094086 0
M  V30 7006 O 688.991 1.70812 -0.341889 0
M  V30 7007 C 686.123 3.3188 -0.778983 0
M  V30 7008 H 687.316 2.11393 -2.12728 0
M  V30 7009 H 684.869 1.0748 -1.1348 0
M  V30 7010 H 685.604 3.23765 0.186225 0
M  V30 7011 H 685.389 3.60141 -1.55051 0
M  V30 7012 H 686.879 4.11612 -0.704631 0
M  V30 7013 N 687.317 1.12792 1.10072 0
M  V30 7014 C 688.264 0.79921 2.16521 0
M  V30 7015 C 689.234 -0.235726 1.64419 0
M  V30 7016 O 690.419 -0.109457 1.90486 0
M  V30 7017 C 687.559 0.264091 3.44088 0
M  V30 7018 C 686.672 1.35729 4.10124 0
M  V30 7019 C 685.807 0.781212 5.25424 0
M  V30 7020 C 684.846 1.85327 5.8337 0
M  V30 7021 N 683.983 1.29564 6.90042 0
M  V30 7022 H 688.823 1.71105 2.43981 0
M  V30 7023 H 686.36 0.854225 1.19756 0
M  V30 7024 H 688.318 -0.0642423 4.17151 0
M  V30 7025 H 686.948 -0.610901 3.16967 0
M  V30 7026 H 686 1.80234 3.34993 0
M  V30 7027 H 687.312 2.16782 4.4923 0
M  V30 7028 H 686.466 0.403769 6.05355 0
M  V30 7029 H 685.205 -0.0604686 4.87663 0
M  V30 7030 H 684.21 2.23986 5.02106 0
M  V30 7031 H 685.435 2.69824 6.23195 0
M  V30 7032 H 683.381 0.475844 6.54272 0
M  V30 7033 H 683.298 2.04271 7.2788 0
M  V30 7034 H 684.566 0.945545 7.73744 0
M  V30 7035 N 688.795 -1.27931 0.920396 0
M  V30 7036 C 690.043 -1.94304 0.555906 0
M  V30 7037 C 690.364 -1.72753 -0.904519 0
M  V30 7038 O 689.634 -1.07104 -1.64029 0
M  V30 7039 H 688.214 -0.719001 0.202599 0
M  V30 7040 H 690.876 -1.55785 1.1712 0
M  V30 7041 H 689.972 -3.02806 0.755981 0
M  V30 7042 N 690.273 -0.685099 -1.4193 0
M  V30 7043 C 691.236 -0.0222632 -2.29189 0
M  V30 7044 C 692.236 0.7186 -1.4385 0
M  V30 7045 O 693.426 0.555058 -1.6512 0
M  V30 7046 C 690.558 0.979013 -3.2654 0
M  V30 7047 H 691.751 -0.790424 -2.89296 0
M  V30 7048 H 689.304 -0.448012 -1.49742 0
M  V30 7049 H 690.039 1.77531 -2.71392 0
M  V30 7050 H 689.824 0.451037 -3.89497 0
M  V30 7051 H 691.314 1.44091 -3.91954 0
M  V30 7052 N 691.751 1.51645 -0.429126 0
M  V30 7053 C 692.997 2.02314 0.140286 0
M  V30 7054 C 693.33 1.31314 1.43074 0
M  V30 7055 O 692.605 0.425531 1.89788 0
M  V30 7056 C 692.888 3.5822 0.36749 0
M  V30 7057 C 692.741 4.39846 -0.941039 0
M  V30 7058 C 694.06 4.25055 1.14089 0
M  V30 7059 H 691.179 0.735335 0.0495112 0
M  V30 7060 H 693.821 1.81358 -0.566514 0
M  V30 7061 H 691.971 3.76207 0.969556 0
M  V30 7062 H 693.643 4.33527 -1.57646 0
M  V30 7063 H 691.886 4.05259 -1.54751 0
M  V30 7064 H 692.557 5.47069 -0.73621 0
M  V30 7065 H 695.033 4.11288 0.630986 0
M  V30 7066 H 693.909 5.34038 1.26863 0
M  V30 7067 H 694.17 3.85358 2.16683 0
M  V30 7068 N 693.229 0.160201 1.56784 0
M  V30 7069 C 694.139 -0.787167 2.21 0
M  V30 7070 C 695.155 -1.26167 1.19825 0
M  V30 7071 O 696.331 -1.31611 1.52448 0
M  V30 7072 C 693.396 -2.00364 2.8294 0
M  V30 7073 C 692.457 -1.5771 3.99282 0
M  V30 7074 C 691.69 -2.73558 4.58259 0
M  V30 7075 O 691.913 -3.90129 4.16119 0
M  V30 7076 O 690.847 -2.48271 5.48311 0
M  V30 7077 H 694.673 -0.270462 3.02493 0
M  V30 7078 H 692.258 -0.0674666 1.49248 0
M  V30 7079 H 694.14 -2.71529 3.22257 0
M  V30 7080 H 692.815 -2.50961 2.04451 0
M  V30 7081 H 691.722 -0.835274 3.64656 0
M  V30 7082 H 693.055 -1.11815 4.79331 0
M  V30 7083 N 694.707 -1.5719 -0.113559 0
M  V30 7084 C 695.956 -1.84325 -0.818984 0
M  V30 7085 C 696.269 -0.746685 -1.80787 0
M  V30 7086 O 697.475 -0.904596 -2.55987 0
M  V30 7087 C 695.931 -3.26818 -1.50724 0
M  V30 7088 C 695.539 -4.44498 -0.559065 0
M  V30 7089 C 697.283 -3.63196 -2.19748 0
M  V30 7090 C 695.19 -5.7802 -1.25086 0
M  V30 7091 H 694.12 -0.687507 -0.309596 0
M  V30 7092 H 696.771 -1.8336 -0.0717621 0
M  V30 7093 H 695.153 -3.22269 -2.30128 0
M  V30 7094 H 696.327 -4.60356 0.202146 0
M  V30 7095 H 694.642 -4.16393 0.024495 0
M  V30 7096 H 697.239 -4.60226 -2.72206 0
M  V30 7097 H 697.582 -2.90899 -2.97798 0
M  V30 7098 H 698.115 -3.69553 -1.47226 0
M  V30 7099 H 694.854 -6.53501 -0.511539 0
M  V30 7100 H 694.374 -5.66038 -1.98395 0
M  V30 7101 H 696.053 -6.2196 -1.78253 0
M  V30 7102 N 696.185 0.383891 -1.52853 0
M  V30 7103 C 697.434 1.12563 -1.67369 0
M  V30 7104 C 697.747 1.90982 -0.422533 0
M  V30 7105 O 698.953 2.6778 -0.447914 0
M  V30 7106 C 697.409 2.05011 -2.95801 0
M  V30 7107 C 697.017 1.31991 -4.28115 0
M  V30 7108 C 698.761 2.79289 -3.19684 0
M  V30 7109 C 696.668 2.23235 -5.4765 0
M  V30 7110 H 695.598 0.42391 -0.623552 0
M  V30 7111 H 698.249 0.388016 -1.79351 0
M  V30 7112 H 696.631 2.82429 -2.77578 0
M  V30 7113 H 697.805 0.597633 -4.56908 0
M  V30 7114 H 696.12 0.696517 -4.10533 0
M  V30 7115 H 698.717 3.47749 -4.06171 0
M  V30 7116 H 699.06 3.43649 -2.3497 0
M  V30 7117 H 699.593 2.08962 -3.38496 0
M  V30 7118 H 696.332 1.63482 -6.34786 0
M  V30 7119 H 695.852 2.93364 -5.23161 0
M  V30 7120 H 697.531 2.83205 -5.81725 0
M  V30 7121 N 697.663 1.43903 0.642637 0
M  V30 7122 C 698.91 1.46079 1.40239 0
M  V30 7123 C 699.238 0.0890335 1.94296 0
M  V30 7124 O 698.493 -0.907533 1.73385 0
M  V30 7125 C 698.792 2.45907 2.59354 0
M  V30 7126 C 698.458 3.91522 2.23654 0
M  V30 7127 C 697.12 4.31179 2.1363 0
M  V30 7128 C 699.472 4.83242 1.95261 0
M  V30 7129 C 696.8 5.60495 1.73384 0
M  V30 7130 C 699.152 6.12933 1.56511 0
M  V30 7131 C 697.816 6.51556 1.4502 0
M  V30 7132 H 697.086 0.534542 0.513172 0
M  V30 7133 H 699.733 1.77047 0.72984 0
M  V30 7134 H 698.038 2.08381 3.3179 0
M  V30 7135 H 699.735 2.44842 3.17574 0
M  V30 7136 H 696.325 3.60142 2.32369 0
M  V30 7137 H 700.509 4.53367 2.0192 0
M  V30 7138 H 695.765 5.89249 1.63082 0
M  V30 7139 H 699.939 6.83469 1.33576 0
M  V30 7140 H 697.566 7.51663 1.13606 0
M  V30 7141 N 699.141 -0.881989 1.30609 0
M  V30 7142 C 700.088 -1.98803 1.17244 0
M  V30 7143 C 701.058 -1.65987 0.0611905 0
M  V30 7144 O 702.243 -1.89385 0.231911 0
M  V30 7145 C 699.383 -3.33867 0.87333 0
M  V30 7146 C 698.496 -3.79354 2.06675 0
M  V30 7147 C 697.631 -5.03078 1.70547 0
M  V30 7148 C 696.67 -5.40981 2.86366 0
M  V30 7149 N 695.807 -6.55886 2.50514 0
M  V30 7150 H 700.647 -2.09566 2.11863 0
M  V30 7151 H 698.184 -1.02607 1.05405 0
M  V30 7152 H 700.142 -4.11612 0.680519 0
M  V30 7153 H 698.772 -3.2278 -0.0359983 0
M  V30 7154 H 697.824 -2.97492 2.37071 0
M  V30 7155 H 699.136 -4.03382 2.93401 0
M  V30 7156 H 698.29 -5.88457 1.47658 0
M  V30 7157 H 697.029 -4.80927 0.809947 0
M  V30 7158 H 696.034 -4.54127 3.09917 0
M  V30 7159 H 697.259 -5.65104 3.76609 0
M  V30 7160 H 695.205 -6.35306 1.63471 0
M  V30 7161 H 695.122 -6.79799 3.30771 0
M  V30 7162 H 696.39 -7.44489 2.30989 0
M  V30 7163 N 700.619 -1.13374 -1.09472 0
M  V30 7164 C 701.867 -0.893422 -1.8128 0
M  V30 7165 C 702.188 0.582029 -1.86111 0
M  V30 7166 O 701.458 1.42305 -1.34633 0
M  V30 7167 H 700.038 -0.327543 -0.67136 0
M  V30 7168 H 702.7 -1.43018 -1.32408 0
M  V30 7169 H 701.796 -1.28374 -2.84476 0
M  V30 7170 N 702.098 1.27442 -0.927168 0
M  V30 7171 C 703.048 2.24519 -0.396878 0
M  V30 7172 C 704.032 1.52981 0.498555 0
M  V30 7173 O 705.224 1.7378 0.336087 0
M  V30 7174 C 702.353 3.41514 0.349694 0
M  V30 7175 C 701.439 4.20357 -0.562226 0
M  V30 7176 N 701.83 4.7702 -1.68182 0
M  V30 7177 C 700.128 4.44503 -0.365135 0
M  V30 7178 C 700.829 5.36467 -2.24895 0
M  V30 7179 N 699.805 5.21371 -1.5386 0
M  V30 7180 H 703.607 2.65911 -1.25173 0
M  V30 7181 H 701.121 1.42366 -0.78138 0
M  V30 7182 H 703.118 4.10161 0.746536 0
M  V30 7183 H 701.778 3.01653 1.20148 0
M  V30 7184 H 702.789 4.74985 -2.06421 0
M  V30 7185 H 699.466 4.15111 0.446037 0
M  V30 7186 H 700.856 5.91264 -3.1915 0
M  V30 7187 N 703.576 0.692616 1.41565 0
M  V30 7188 C 704.486 0.0258451 2.34586 0
M  V30 7189 C 705.502 -0.769324 1.56069 0
M  V30 7190 O 706.678 -0.707563 1.88562 0
M  V30 7191 C 703.743 -0.901289 3.3478 0
M  V30 7192 C 702.804 -0.0986579 4.29187 0
M  V30 7193 C 702.037 -0.981634 5.24595 0
M  V30 7194 O 702.26 -2.22115 5.25377 0
M  V30 7195 O 701.194 -0.432892 6.00341 0
M  V30 7196 H 705.02 0.792537 2.93177 0
M  V30 7197 H 702.605 0.452935 1.42369 0
M  V30 7198 H 704.487 -1.43302 3.96286 0
M  V30 7199 H 703.162 -1.64752 2.78637 0
M  V30 7200 H 702.069 0.477604 3.71039 0
M  V30 7201 H 703.402 0.608848 4.8842 0
M  V30 7202 N 705.054 -1.51416 0.437162 0
M  V30 7203 C 706.002 -2.29328 -0.388765 0
M  V30 7204 C 706.996 -1.35171 -1.02104 0
M  V30 7205 O 708.202 -1.52513 -0.956024 0
M  V30 7206 H 704.577 -0.738048 -0.144183 0
M  V30 7207 H 706.548 -2.96995 0.289212 0
M  V30 7208 C 705.297 -3.14741 -1.47761 0
M  V30 7209 H 704.62 -3.8708 -1.00045 0
M  V30 7210 H 706.06 -3.72313 -2.02877 0
M  V30 7211 C 704.519 -2.30105 -2.46076 0
M  V30 7212 O 705.049 -1.96055 -3.50607 0
M  V30 7213 N 703.255 -1.93331 -2.1696 0
M  V30 7214 H 702.802 -2.2122 -1.31983 0
M  V30 7215 H 702.76 -1.36999 -2.82982 0
M  V30 7216 N 706.532 -0.168513 -1.56696 0
M  V30 7217 C 707.778 0.477865 -1.9709 0
M  V30 7218 C 708.111 1.63084 -1.05438 0
M  V30 7219 O 707.386 1.94238 -0.10095 0
M  V30 7220 C 707.669 0.963521 -3.4697 0
M  V30 7221 C 707.522 -0.189443 -4.49401 0
M  V30 7222 C 708.841 1.83813 -3.99876 0
M  V30 7223 H 705.96 0.172229 -0.716593 0
M  V30 7224 H 708.602 -0.254083 -1.88293 0
M  V30 7225 H 706.752 1.58724 -3.54597 0
M  V30 7226 H 708.424 -0.826451 -4.53836 0
M  V30 7227 H 706.667 -0.845366 -4.25483 0
M  V30 7228 H 707.338 0.192446 -5.51664 0
M  V30 7229 H 709.814 1.31235 -3.94863 0
M  V30 7230 H 708.69 2.14697 -5.0517 0
M  V30 7231 H 708.951 2.78289 -3.43523 0
M  V30 7232 N 708.01 1.57248 0.105221 0
M  V30 7233 C 708.92 2.04653 1.14693 0
M  V30 7234 C 709.936 0.969488 1.44489 0
M  V30 7235 O 711.112 1.28196 1.55331 0
M  V30 7236 C 708.177 2.45297 2.45011 0
M  V30 7237 C 707.238 3.67148 2.22489 0
M  V30 7238 C 706.471 4.05844 3.46592 0
M  V30 7239 O 706.694 3.44736 4.54437 0
M  V30 7240 O 705.628 4.98862 3.36779 0
M  V30 7241 H 709.454 2.93663 0.774336 0
M  V30 7242 H 707.039 1.45998 0.31701 0
M  V30 7243 H 708.921 2.72112 3.21766 0
M  V30 7244 H 707.596 1.59429 2.81717 0
M  V30 7245 H 706.503 3.45463 1.43547 0
M  V30 7246 H 707.836 4.53764 1.9068 0
M  V30 7247 N 709.488 -0.375779 1.53054 0
M  V30 7248 C 710.451 -1.44254 1.7811 0
M  V30 7249 C 711.451 -1.47018 0.651328 0
M  V30 7250 O 712.641 -1.47957 0.919472 0
M  V30 7251 C 709.773 -2.8345 1.89391 0
M  V30 7252 H 710.966 -1.23316 2.73374 0
M  V30 7253 H 708.519 -0.608312 1.43977 0
M  V30 7254 H 709.254 -3.09716 0.961589 0
M  V30 7255 H 709.039 -2.82844 2.71555 0
M  V30 7256 H 710.529 -3.60722 2.10404 0
M  V30 7257 N 710.966 -1.44241 -0.634997 0
M  V30 7258 C 711.929 -1.50457 -1.72903 0
M  V30 7259 C 712.929 -0.387058 -1.56072 0
M  V30 7260 O 714.119 -0.649531 -1.61638 0
M  V30 7261 C 711.251 -1.37477 -3.1195 0
M  V30 7262 H 712.444 -2.47907 -1.68767 0
M  V30 7263 H 709.997 -1.31276 -0.84831 0
M  V30 7264 H 710.732 -0.41106 -3.21684 0
M  V30 7265 H 710.517 -2.18506 -3.25573 0
M  V30 7266 H 712.007 -1.44799 -3.91692 0
M  V30 7267 N 712.444 0.87505 -1.31075 0
M  V30 7268 C 713.376 1.98773 -1.14114 0
M  V30 7269 C 714.389 1.62595 -0.0816119 0
M  V30 7270 O 715.578 1.75449 -0.32861 0
M  V30 7271 C 712.678 3.31159 -0.720224 0
M  V30 7272 C 711.851 3.9571 -1.86366 0
M  V30 7273 C 710.91 5.06407 -1.42965 0
M  V30 7274 O 709.936 5.27501 -2.13848 0
M  V30 7275 N 711.138 5.79649 -0.314194 0
M  V30 7276 H 713.903 2.1387 -2.09951 0
M  V30 7277 H 711.464 1.04873 -1.23342 0
M  V30 7278 H 713.456 4.0259 -0.412687 0
M  V30 7279 H 712.026 3.12257 0.146396 0
M  V30 7280 H 711.246 3.17324 -2.33879 0
M  V30 7281 H 712.534 4.35576 -2.62966 0
M  V30 7282 H 711.932 5.65025 0.276228 0
M  V30 7283 H 710.489 6.51766 -0.0661641 0
M  V30 7284 N 713.922 1.13953 1.08869 0
M  V30 7285 C 714.885 0.824991 2.13838 0
M  V30 7286 C 715.885 -0.168198 1.59918 0
M  V30 7287 O 717.075 0.0595778 1.74098 0
M  V30 7288 C 714.207 0.228938 3.4013 0
M  V30 7289 H 715.4 1.75521 2.43171 0
M  V30 7290 H 712.953 0.94492 1.24503 0
M  V30 7291 H 713.688 -0.710227 3.16427 0
M  V30 7292 H 713.473 0.944243 3.80561 0
M  V30 7293 H 714.963 0.0259223 4.17592 0
M  V30 7294 N 715.4 -1.26948 0.933913 0
M  V30 7295 C 716.31 -2.30366 0.443671 0
M  V30 7296 C 717.326 -1.67284 -0.478745 0
M  V30 7297 O 718.502 -1.98156 -0.360043 0
M  V30 7298 C 715.567 -3.45485 -0.289974 0
M  V30 7299 C 714.628 -4.24069 0.668114 0
M  V30 7300 C 713.861 -5.33691 -0.0306138 0
M  V30 7301 O 714.084 -5.5656 -1.24888 0
M  V30 7302 O 713.018 -5.98441 0.644384 0
M  V30 7303 H 716.844 -2.74349 1.30254 0
M  V30 7304 H 714.429 -1.32012 0.699506 0
M  V30 7305 H 716.311 -4.15486 -0.70353 0
M  V30 7306 H 714.986 -3.03546 -1.12435 0
M  V30 7307 H 713.893 -3.56579 1.13147 0
M  V30 7308 H 715.226 -4.69739 1.46989 0
M  V30 7309 N 716.879 -0.700114 -1.41195 0
M  V30 7310 C 718.109 -0.241828 -2.0518 0
M  V30 7311 C 718.517 1.1157 -1.52803 0
M  V30 7312 O 717.86 1.70926 -0.673042 0
M  V30 7313 C 717.922 -0.12695 -3.59276 0
M  V30 7314 C 717.586 -1.41725 -4.34469 0
M  V30 7315 C 718.583 -2.35604 -4.63451 0
M  V30 7316 C 716.268 -1.67189 -4.73659 0
M  V30 7317 C 718.262 -3.53204 -5.3059 0
M  V30 7318 C 715.949 -2.85073 -5.40534 0
M  V30 7319 C 716.947 -3.77904 -5.68927 0
M  V30 7320 O 716.635 -4.93723 -6.34424 0
M  V30 7321 H 716.367 -0.109247 -0.667114 0
M  V30 7322 H 718.921 -0.954538 -1.81873 0
M  V30 7323 H 717.151 0.641571 -3.81341 0
M  V30 7324 H 718.84 0.294748 -4.04828 0
M  V30 7325 H 719.606 -2.1719 -4.33651 0
M  V30 7326 H 715.485 -0.957935 -4.50937 0
M  V30 7327 H 719.029 -4.25679 -5.52669 0
M  V30 7328 H 714.926 -3.03402 -5.69752 0
M  V30 7329 H 715.694 -4.93597 -6.5292 0
M  V30 7330 N 718.357 1.51182 -0.445186 0
M  V30 7331 C 719.606 2.01342 0.120189 0
M  V30 7332 C 719.919 1.33353 1.43095 0
M  V30 7333 O 721.125 1.74525 2.07974 0
M  V30 7334 C 719.581 3.58925 0.264732 0
M  V30 7335 C 719.189 4.35855 -1.03606 0
M  V30 7336 C 720.933 4.17208 0.783455 0
M  V30 7337 C 718.84 5.85162 -0.856731 0
M  V30 7338 H 717.77 0.752426 0.0486922 0
M  V30 7339 H 720.421 1.74221 -0.576143 0
M  V30 7340 H 718.803 3.82525 1.02425 0
M  V30 7341 H 719.977 4.23997 -1.80452 0
M  V30 7342 H 718.292 3.89062 -1.48391 0
M  V30 7343 H 720.889 5.26475 0.934239 0
M  V30 7344 H 721.232 3.76892 1.768 0
M  V30 7345 H 721.765 3.97715 0.0820346 0
M  V30 7346 H 718.504 6.29904 -1.81388 0
M  V30 7347 H 718.024 5.99663 -0.128206 0
M  V30 7348 H 719.703 6.44963 -0.513027 0
M  V30 7349 N 719.835 0.176821 1.56605 0
M  V30 7350 C 720.745 -0.763682 2.21822 0
M  V30 7351 C 721.761 -1.24889 1.21156 0
M  V30 7352 O 722.937 -1.29987 1.53836 0
M  V30 7353 C 720.002 -1.97352 2.8505 0
M  V30 7354 C 719.063 -1.53466 4.00932 0
M  V30 7355 C 718.296 -2.68682 4.61135 0
M  V30 7356 O 718.519 -3.85694 4.20234 0
M  V30 7357 O 717.453 -2.42442 5.50913 0
M  V30 7358 H 721.279 -0.238363 3.02763 0
M  V30 7359 H 718.864 -0.0516331 1.49311 0
M  V30 7360 H 720.746 -2.68096 3.25119 0
M  V30 7361 H 719.421 -2.48779 2.07101 0
M  V30 7362 H 718.328 -0.796551 3.65521 0
M  V30 7363 H 719.661 -1.06724 4.8049 0
M  V30 7364 N 721.313 -1.57302 -0.09688 0
M  V30 7365 C 722.26 -2.01933 -1.11766 0
M  V30 7366 C 723.23 -0.895329 -1.39904 0
M  V30 7367 O 724.415 -1.16119 -1.51397 0
M  V30 7368 C 721.555 -2.44726 -2.43317 0
M  V30 7369 C 720.668 -3.70639 -2.21925 0
M  V30 7370 C 719.803 -4.02318 -3.46862 0
M  V30 7371 C 718.842 -5.21346 -3.20725 0
M  V30 7372 N 717.979 -5.48787 -4.37924 0
M  V30 7373 H 722.819 -2.88919 -0.730075 0
M  V30 7374 H 720.356 -1.42901 -0.348962 0
M  V30 7375 H 722.314 -2.6758 -3.20088 0
M  V30 7376 H 720.944 -1.60753 -2.79926 0
M  V30 7377 H 719.996 -3.55271 -1.35965 0
M  V30 7378 H 721.308 -4.57557 -1.98603 0
M  V30 7379 H 720.462 -4.25939 -4.32042 0
M  V30 7380 H 719.201 -3.13918 -3.73238 0
M  V30 7381 H 718.206 -4.97547 -2.33938 0
M  V30 7382 H 719.431 -6.11343 -2.95697 0
M  V30 7383 H 717.377 -4.63346 -4.64378 0
M  V30 7384 H 717.294 -6.30073 -4.17785 0
M  V30 7385 H 718.562 -5.76943 -5.24173 0
M  V30 7386 N 722.791 0.367657 -1.53252 0
M  V30 7387 C 724.038 1.11052 -1.69333 0
M  V30 7388 C 724.366 1.89363 -0.444064 0
M  V30 7389 O 723.621 1.87094 0.573953 0
M  V30 7390 C 723.92 2.09825 -2.89324 0
M  V30 7391 C 723.586 1.4801 -4.25915 0
M  V30 7392 C 722.248 1.30879 -4.6306 0
M  V30 7393 C 724.6 1.03268 -5.10867 0
M  V30 7394 C 721.928 0.675868 -5.82794 0
M  V30 7395 C 724.28 0.41377 -6.31245 0
M  V30 7396 C 722.944 0.229939 -6.67104 0
M  V30 7397 H 722.214 0.406367 -0.619634 0
M  V30 7398 H 724.861 0.392558 -1.87433 0
M  V30 7399 H 723.166 2.87917 -2.65728 0
M  V30 7400 H 724.863 2.67252 -2.98961 0
M  V30 7401 H 721.453 1.62336 -3.96667 0
M  V30 7402 H 725.637 1.15297 -4.82722 0
M  V30 7403 H 720.893 0.521833 -6.09169 0
M  V30 7404 H 725.067 0.0588768 -6.96375 0
M  V30 7405 H 722.694 -0.262562 -7.59746 0
M  V30 7406 N 724.269 1.44576 0.627338 0
M  V30 7407 C 725.232 1.51372 1.72102 0
M  V30 7408 C 726.232 0.395329 1.55865 0
M  V30 7409 O 727.422 0.658094 1.61291 0
M  V30 7410 C 724.554 1.39129 3.11217 0
M  V30 7411 H 725.747 2.48798 1.6745 0
M  V30 7412 H 723.3 1.31724 0.841336 0
M  V30 7413 H 724.035 0.428114 3.21462 0
M  V30 7414 H 723.82 2.20229 3.24409 0
M  V30 7415 H 725.31 1.46874 3.90919 0
M  V30 7416 N 725.747 -0.868086 1.31537 0
M  V30 7417 C 726.695 -1.99688 1.1928 0
M  V30 7418 C 727.689 -1.69101 0.100656 0
M  V30 7419 O 728.895 -1.78073 0.262677 0
M  V30 7420 H 725.27 -0.655032 0.369374 0
M  V30 7421 H 727.241 -2.07157 2.14776 0
M  V30 7422 C 725.99 -3.35338 0.918892 0
M  V30 7423 H 725.313 -3.59396 1.75142 0
M  V30 7424 H 726.753 -4.14909 0.873311 0
M  V30 7425 C 725.212 -3.34769 -0.378366 0
M  V30 7426 O 725.742 -3.76716 -1.39456 0
M  V30 7427 N 723.948 -2.87895 -0.39557 0
M  V30 7428 H 723.495 -2.53954 0.431889 0
M  V30 7429 H 723.453 -2.87897 -1.26344 0
M  V30 7430 N 727.225 -1.14528 -1.08264 0
M  V30 7431 C 728.636 -0.925261 -1.6216 0
M  V30 7432 C 728.987 0.535587 -1.88748 0
M  V30 7433 O 728.112 1.4048 -1.64604 0
M  V30 7434 C 728.707 -1.67316 -2.94603 0
M  V30 7435 C 727.266 -1.49868 -3.45278 0
M  V30 7436 C 726.413 -1.69471 -2.19487 0
M  V30 7437 H 729.364 -1.29687 -0.914707 0
M  V30 7438 H 729.385 -1.13721 -3.63109 0
M  V30 7439 H 728.897 -2.73635 -2.75219 0
M  V30 7440 H 726.998 -0.459032 -3.69762 0
M  V30 7441 H 727.111 -2.2696 -4.21931 0
M  V30 7442 H 725.475 -1.12048 -2.2873 0
M  V30 7443 H 726.258 -2.77136 -2.0261 0
M  V30 7444 N 728.703 1.26451 -0.940633 0
M  V30 7445 C 729.95 1.93778 -0.587909 0
M  V30 7446 C 730.278 1.73811 0.872935 0
M  V30 7447 O 729.533 1.06816 1.63978 0
M  V30 7448 C 729.832 3.46503 -0.875794 0
M  V30 7449 C 729.498 3.86609 -2.32043 0
M  V30 7450 C 728.16 3.97269 -2.71534 0
M  V30 7451 C 730.512 4.0672 -3.25927 0
M  V30 7452 C 727.84 4.25436 -4.04006 0
M  V30 7453 C 730.192 4.36375 -4.57995 0
M  V30 7454 C 728.856 4.45249 -4.97302 0
M  V30 7455 H 728.126 0.709084 -0.215131 0
M  V30 7456 H 730.773 1.50272 -1.18704 0
M  V30 7457 H 729.078 3.91319 -0.194124 0
M  V30 7458 H 730.775 3.96759 -0.581665 0
M  V30 7459 H 727.365 3.78858 -2.00411 0
M  V30 7460 H 731.549 3.97912 -2.96614 0
M  V30 7461 H 726.805 4.30519 -4.34124 0
M  V30 7462 H 730.979 4.50882 -5.30734 0
M  V30 7463 H 728.606 4.66829 -5.99979 0
M  V30 7464 N 730.181 0.707592 1.40822 0
M  V30 7465 C 731.592 0.317011 1.83989 0
M  V30 7466 C 731.943 -1.14697 1.59182 0
M  V30 7467 O 731.068 -1.8818 1.06852 0
M  V30 7468 C 731.663 0.568593 3.33995 0
M  V30 7469 C 730.222 0.231804 3.75686 0
M  V30 7470 C 729.369 0.844933 2.64114 0
M  V30 7471 H 732.32 0.907349 1.30203 0
M  V30 7472 H 732.341 -0.168798 3.80125 0
M  V30 7473 H 731.853 1.63417 3.52018 0
M  V30 7474 H 729.954 -0.82903 3.6326 0
M  V30 7475 H 730.067 0.695219 4.74029 0
M  V30 7476 H 728.431 0.273588 2.53226 0
M  V30 7477 H 729.214 1.91462 2.84951 0
M  V30 7478 N 731.66 -1.50943 0.453197 0
M  V30 7479 C 732.623 -2.26684 -0.338705 0
M  V30 7480 C 733.623 -1.30748 -0.936032 0
M  V30 7481 O 734.813 -1.54327 -0.808002 0
M  V30 7482 C 731.945 -3.07063 -1.48071 0
M  V30 7483 H 733.138 -2.98131 0.325289 0
M  V30 7484 H 730.691 -1.54926 0.206771 0
M  V30 7485 H 731.426 -2.4007 -2.18029 0
M  V30 7486 H 731.211 -3.77545 -1.0584 0
M  V30 7487 H 732.701 -3.64393 -2.0398 0
M  V30 7488 N 733.138 -0.185124 -1.56509 0
M  V30 7489 C 734.101 0.72591 -2.17401 0
M  V30 7490 C 735.101 1.14819 -1.12575 0
M  V30 7491 O 736.291 1.0629 -1.38015 0
M  V30 7492 C 733.423 1.98979 -2.76803 0
M  V30 7493 H 734.616 0.195588 -2.99262 0
M  V30 7494 H 732.169 0.0644772 -1.56167 0
M  V30 7495 H 732.904 2.56287 -1.98714 0
M  V30 7496 H 732.689 1.69583 -3.53531 0
M  V30 7497 H 734.179 2.63966 -3.23592 0
M  V30 7498 N 734.616 1.57351 0.0885366 0
M  V30 7499 C 735.862 1.86696 0.791996 0
M  V30 7500 C 736.195 0.775148 1.78059 0
M  V30 7501 O 735.47 -0.216247 1.93294 0
M  V30 7502 C 735.753 3.26684 1.51491 0
M  V30 7503 C 735.606 4.465 0.543858 0
M  V30 7504 C 736.925 3.64664 2.46391 0
M  V30 7505 H 734.044 0.679049 0.286463 0
M  V30 7506 H 736.686 1.89919 0.0554866 0
M  V30 7507 H 734.836 3.24067 2.14273 0
M  V30 7508 H 736.508 4.61235 -0.0774597 0
M  V30 7509 H 734.751 4.33567 -0.142228 0
M  V30 7510 H 735.422 5.41192 1.08696 0
M  V30 7511 H 737.898 3.68267 1.93698 0
M  V30 7512 H 736.774 4.63534 2.93986 0
M  V30 7513 H 737.035 2.93698 3.30445 0
M  V30 7514 N 736.094 -0.359525 1.53444 0
M  V30 7515 C 737.51 -0.701599 1.43352 0
M  V30 7516 C 737.71 -1.93049 0.577439 0
M  V30 7517 O 736.766 -2.52423 0.0622224 0
M  V30 7518 C 738.079 -0.90915 2.86627 0
M  V30 7519 C 739.627 -1.00878 2.96298 0
M  V30 7520 C 740.102 -1.24876 4.40647 0
M  V30 7521 N 741.593 -1.31632 4.44103 0
M  V30 7522 C 742.328 -1.51922 5.52908 0
M  V30 7523 N 741.824 -1.69489 6.71748 0
M  V30 7524 N 743.617 -1.54341 5.40496 0
M  V30 7525 H 735.768 0.448685 2.07607 0
M  V30 7526 H 738.031 0.138713 0.937797 0
M  V30 7527 H 737.737 -0.0778997 3.51614 0
M  V30 7528 H 737.611 -1.81551 3.30634 0
M  V30 7529 H 739.998 -1.83057 2.31461 0
M  V30 7530 H 740.079 -0.0796721 2.55676 0
M  V30 7531 H 739.723 -0.431961 5.0606 0
M  V30 7532 H 739.653 -2.19118 4.78848 0
M  V30 7533 H 742.144 -1.19646 3.5846 0
M  V30 7534 H 742.457 -1.84561 7.50438 0
M  V30 7535 H 740.802 -1.66655 6.74723 0
M  V30 7536 H 743.993 -1.40188 4.46615 0
M  V30 7537 H 744.166 -1.69812 6.25354 0
M  V30 7538 N 737.572 -1.44907 -0.619662 0
M  V30 7539 C 738.82 -1.47999 -1.37625 0
M  V30 7540 C 739.141 -0.118295 -1.94641 0
M  V30 7541 O 738.411 0.85086 -1.76457 0
M  V30 7542 H 736.991 -0.544993 -0.510873 0
M  V30 7543 H 739.653 -1.80772 -0.728522 0
M  V30 7544 H 738.749 -2.21196 -2.20179 0
M  V30 7545 N 739.05 0.861098 -1.31996 0
M  V30 7546 C 740.297 1.61481 -1.22188 0
M  V30 7547 C 740.625 1.93276 0.217853 0
M  V30 7548 O 739.88 1.56942 1.16909 0
M  V30 7549 C 740.179 2.94822 -2.02027 0
M  V30 7550 C 739.845 2.82483 -3.51446 0
M  V30 7551 C 738.507 2.78825 -3.92186 0
M  V30 7552 C 740.859 2.68878 -4.46491 0
M  V30 7553 C 738.187 2.59433 -5.26224 0
M  V30 7554 C 740.539 2.51022 -5.80664 0
M  V30 7555 C 739.203 2.45753 -6.20614 0
M  V30 7556 H 738.473 0.590902 -0.447119 0
M  V30 7557 H 741.12 0.999376 -1.63355 0
M  V30 7558 H 739.425 3.6045 -1.53569 0
M  V30 7559 H 741.122 3.52149 -1.91812 0
M  V30 7560 H 737.712 2.86152 -3.19085 0
M  V30 7561 H 741.896 2.70754 -4.1594 0
M  V30 7562 H 737.152 2.53784 -5.5624 0
M  V30 7563 H 741.326 2.39473 -6.53931 0
M  V30 7564 H 738.953 2.30485 -7.24417 0
M  V30 7565 N 740.528 1.15101 1.07655 0
M  V30 7566 C 741.774 0.925343 1.80458 0
M  V30 7567 C 742.107 -0.546354 1.86356 0
M  V30 7568 O 741.382 -1.40496 1.34503 0
M  V30 7569 C 741.665 1.53646 3.25676 0
M  V30 7570 C 741.518 3.07854 3.27942 0
M  V30 7571 C 742.837 1.21968 4.22861 0
M  V30 7572 H 739.956 0.337592 0.655134 0
M  V30 7573 H 742.598 1.42217 1.25993 0
M  V30 7574 H 740.748 1.11395 3.72187 0
M  V30 7575 H 742.42 3.58989 2.89697 0
M  V30 7576 H 740.663 3.41904 2.66991 0
M  V30 7577 H 741.334 3.45725 4.30324 0
M  V30 7578 H 743.81 1.5851 3.84726 0
M  V30 7579 H 742.686 1.67349 5.22767 0
M  V30 7580 H 742.947 0.136207 4.4189 0
M  V30 7581 N 742.006 -1.2595 0.947325 0
M  V30 7582 C 743.283 -1.88676 0.515824 0
M  V30 7583 C 743.663 -1.85547 -1.00675 0
M  V30 7584 O 743.011 -1.31399 -1.8694 0
M  V30 7585 C 743.221 -3.31734 1.08415 0
M  V30 7586 C 744.569 -4.08545 1.15654 0
M  V30 7587 O 745.593 -3.40826 1.03517 0
M  V30 7588 O 744.452 -5.29663 1.34608 0
M  V30 7589 H 741.546 -0.809537 0.169055 0
M  V30 7590 H 744.092 -1.34075 1.04029 0
M  V30 7591 H 742.864 -3.28404 2.1276 0
M  V30 7592 H 742.487 -3.93882 0.542499 0
M  V30 7593 N 743.484 -0.715051 -1.40445 0
M  V30 7594 C 744.761 -0.181503 -1.94756 0
M  V30 7595 C 745.141 1.31268 -1.65324 0
M  V30 7596 O 744.489 2.0686 -0.970631 0
M  V30 7597 C 744.699 -0.493663 -3.45491 0
M  V30 7598 C 746.047 -0.432032 -4.22396 0
M  V30 7599 O 747.071 -0.429692 -3.53599 0
M  V30 7600 O 745.93 -0.409091 -5.44967 0
M  V30 7601 H 743.024 -0.0263989 -0.826579 0
M  V30 7602 H 745.57 -0.792546 -1.50056 0
M  V30 7603 H 744.342 -1.52713 -3.6027 0
M  V30 7604 H 743.965 0.14737 -3.97327 0
M  V30 7605 N 744.962 1.50701 -0.461195 0
M  V30 7606 C 746.211 2.01458 0.0988277 0
M  V30 7607 C 746.524 1.34863 1.41673 0
M  V30 7608 O 747.73 1.76721 2.06111 0
M  V30 7609 C 746.186 3.59186 0.226648 0
M  V30 7610 C 745.794 4.34732 -1.08223 0
M  V30 7611 C 747.538 4.18015 0.73916 0
M  V30 7612 C 745.445 5.8422 -0.918747 0
M  V30 7613 H 744.375 0.7529 0.040709 0
M  V30 7614 H 747.026 1.736 -0.594589 0
M  V30 7615 H 745.408 3.83589 0.983621 0
M  V30 7616 H 746.582 4.22059 -1.84939 0
M  V30 7617 H 744.897 3.87466 -1.52509 0
M  V30 7618 H 747.494 5.27436 0.878347 0
M  V30 7619 H 747.837 3.78746 1.72793 0
M  V30 7620 H 748.37 3.9778 0.0398469 0
M  V30 7621 H 745.109 6.27944 -1.88059 0
M  V30 7622 H 744.629 5.99493 -0.191801 0
M  V30 7623 H 746.308 6.44382 -0.581405 0
M  V30 7624 N 746.441 0.193421 1.56409 0
M  V30 7625 C 747.69 -0.445995 1.96707 0
M  V30 7626 C 748.003 -1.62876 1.08309 0
M  V30 7627 O 749.209 -2.33586 1.38383 0
M  V30 7628 C 747.665 -0.844863 3.49843 0
M  V30 7629 C 747.273 0.31352 4.46902 0
M  V30 7630 C 749.017 -1.45146 3.98915 0
M  V30 7631 C 746.924 -0.106214 5.91305 0
M  V30 7632 H 745.854 -0.170398 0.734493 0
M  V30 7633 H 748.505 0.285172 1.81271 0
M  V30 7634 H 746.887 -1.63265 3.60778 0
M  V30 7635 H 748.061 1.09103 4.47698 0
M  V30 7636 H 746.376 0.8315 4.08014 0
M  V30 7637 H 748.973 -1.77792 5.04276 0
M  V30 7638 H 749.316 -2.35734 3.43126 0
M  V30 7639 H 749.849 -0.727675 3.91088 0
M  V30 7640 H 746.588 0.765442 6.51016 0
M  V30 7641 H 746.108 -0.848623 5.93766 0
M  V30 7642 H 747.787 -0.542588 6.44721 0
M  V30 7643 N 747.919 -1.57396 -0.0801906 0
M  V30 7644 C 748.851 -1.9982 -1.12271 0
M  V30 7645 C 749.864 -0.902902 -1.35468 0
M  V30 7646 O 751.053 -1.18088 -1.33856 0
M  V30 7647 C 748.153 -2.31476 -2.47532 0
M  V30 7648 C 747.326 -3.62745 -2.44407 0
M  V30 7649 C 746.385 -3.82168 -3.6171 0
M  V30 7650 O 745.411 -4.53852 -3.43522 0
M  V30 7651 N 746.613 -3.2388 -4.81749 0
M  V30 7652 H 749.378 -2.89864 -0.761501 0
M  V30 7653 H 746.939 -1.5965 -0.268965 0
M  V30 7654 H 748.931 -2.4165 -3.24634 0
M  V30 7655 H 747.501 -1.47364 -2.75686 0
M  V30 7656 H 746.721 -3.63403 -1.52747 0
M  V30 7657 H 748.009 -4.48954 -2.39412 0
M  V30 7658 H 747.407 -2.6568 -4.9943 0
M  V30 7659 H 745.964 -3.39515 -5.56392 0
M  V30 7660 N 749.397 0.351382 -1.53633 0
M  V30 7661 C 750.808 0.927429 -1.62036 0
M  V30 7662 C 751.159 1.89809 -0.496706 0
M  V30 7663 O 750.284 2.1313 0.374749 0
M  V30 7664 C 750.879 1.68886 -2.93706 0
M  V30 7665 C 749.438 2.21404 -3.04397 0
M  V30 7666 C 748.585 1.03075 -2.57431 0
M  V30 7667 H 751.536 0.129748 -1.58169 0
M  V30 7668 H 751.557 2.55116 -2.82305 0
M  V30 7669 H 751.069 0.982149 -3.75467 0
M  V30 7670 H 749.17 2.95274 -2.27253 0
M  V30 7671 H 749.283 2.48312 -4.09729 0
M  V30 7672 H 747.647 1.40188 -2.12649 0
M  V30 7673 H 748.43 0.338793 -3.41624 0
M  V30 7674 N 750.875 1.45233 0.611969 0
M  V30 7675 C 752.1 1.52767 1.40274 0
M  V30 7676 C 752.525 0.159701 1.87421 0
M  V30 7677 O 751.883 -0.854837 1.59882 0
M  V30 7678 C 751.931 2.51286 2.58626 0
M  V30 7679 O 751.035 2.02764 3.59111 0
M  V30 7680 H 750.376 0.515141 0.418958 0
M  V30 7681 H 752.906 1.90547 0.745188 0
M  V30 7682 H 752.916 2.69949 3.05927 0
M  V30 7683 H 751.591 3.50641 2.23659 0
M  V30 7684 H 750.168 1.93957 3.18489 0
M  V30 7685 N 752.353 -0.854086 1.3245 0
M  V30 7686 C 753.578 -1.64597 1.26185 0
M  V30 7687 C 754.003 -1.87357 -0.167074 0
M  V30 7688 O 753.361 -1.42675 -1.11864 0
M  V30 7689 C 753.409 -2.98213 2.02734 0
M  V30 7690 O 752.513 -3.88784 1.37554 0
M  V30 7691 H 751.854 -0.50179 0.434859 0
M  V30 7692 H 754.384 -1.06372 1.74775 0
M  V30 7693 H 754.394 -3.4803 2.1293 0
M  V30 7694 H 753.069 -2.80969 3.06642 0
M  V30 7695 H 751.646 -3.4725 1.3591 0
M  V30 7696 N 753.831 -1.1567 -1.07043 0
M  V30 7697 C 755.059 -0.957471 -1.83412 0
M  V30 7698 C 755.474 0.494271 -1.82215 0
M  V30 7699 O 754.831 1.34288 -1.23584 0
M  V30 7700 C 754.882 -1.46784 -3.30359 0
M  V30 7701 O 754.603 -2.86271 -3.31633 0
M  V30 7702 C 756.104 -1.31054 -4.23485 0
M  V30 7703 H 753.324 -0.33986 -0.578564 0
M  V30 7704 H 755.868 -1.53518 -1.35102 0
M  V30 7705 H 754.023 -0.932586 -3.76007 0
M  V30 7706 H 754.437 -3.0948 -4.23465 0
M  V30 7707 H 755.911 -1.71605 -5.24648 0
M  V30 7708 H 756.388 -0.255107 -4.38458 0
M  V30 7709 H 756.994 -1.83503 -3.83676 0
M  V30 7710 N 755.309 1.25446 -0.953992 0
M  V30 7711 C 756.725 1.4539 -0.658316 0
M  V30 7712 C 756.925 1.85607 0.784356 0
M  V30 7713 O 755.981 1.98568 1.55972 0
M  V30 7714 C 757.294 2.52643 -1.6307 0
M  V30 7715 C 758.842 2.66484 -1.64181 0
M  V30 7716 C 759.317 3.76921 -2.60182 0
M  V30 7717 N 760.808 3.84331 -2.58542 0
M  V30 7718 C 761.543 4.69271 -3.29503 0
M  V30 7719 N 761.039 5.58503 -4.09934 0
M  V30 7720 N 762.832 4.6323 -3.18393 0
M  V30 7721 H 754.983 0.976337 -1.8863 0
M  V30 7722 H 757.246 0.490343 -0.811337 0
M  V30 7723 H 756.952 2.29949 -2.66114 0
M  V30 7724 H 756.826 3.50547 -1.39271 0
M  V30 7725 H 759.213 2.88545 -0.618552 0
M  V30 7726 H 759.294 1.68982 -1.92038 0
M  V30 7727 H 758.938 3.55612 -3.62633 0
M  V30 7728 H 758.868 4.73906 -2.29609 0
M  V30 7729 H 761.359 3.20544 -2.0015 0
M  V30 7730 H 761.672 6.20241 -4.61 0
M  V30 7731 H 760.017 5.58214 -4.14032 0
M  V30 7732 H 763.208 3.92527 -2.5503 0
M  V30 7733 H 763.381 5.29204 -3.73961 0
M  V30 7734 N 756.787 0.722489 1.40064 0
M  V30 7735 C 757.75 0.0830209 2.2905 0
M  V30 7736 C 758.75 -0.680208 1.45705 0
M  V30 7737 O 759.94 -0.511084 1.66534 0
M  V30 7738 C 757.072 -0.892092 3.29021 0
M  V30 7739 H 758.265 0.866848 2.87099 0
M  V30 7740 H 755.818 0.487556 1.48501 0
M  V30 7741 H 756.553 -1.70273 2.76003 0
M  V30 7742 H 756.338 -0.34761 3.90556 0
M  V30 7743 H 757.828 -1.33648 3.95636 0
M  V30 7744 N 758.265 -1.50454 0.469181 0
M  V30 7745 C 759.681 -1.59124 0.123226 0
M  V30 7746 C 759.881 -1.47749 -1.37013 0
M  V30 7747 O 758.937 -1.335 -2.14322 0
M  V30 7748 C 760.25 -2.93101 0.67172 0
M  V30 7749 C 761.798 -3.06491 0.634978 0
M  V30 7750 C 762.273 -4.43041 1.16098 0
M  V30 7751 N 763.764 -4.49448 1.12031 0
M  V30 7752 C 764.499 -5.53491 1.49784 0
M  V30 7753 N 763.995 -6.64798 1.94976 0
M  V30 7754 N 765.788 -5.44025 1.41399 0
M  V30 7755 H 757.939 -1.56091 1.44046 0
M  V30 7756 H 760.202 -0.737564 0.59557 0
M  V30 7757 H 759.908 -3.06895 1.7178 0
M  V30 7758 H 759.782 -3.77027 0.114222 0
M  V30 7759 H 762.169 -2.92346 -0.402187 0
M  V30 7760 H 762.25 -2.24328 1.22926 0
M  V30 7761 H 761.894 -4.57935 2.19677 0
M  V30 7762 H 761.824 -5.23794 0.542939 0
M  V30 7763 H 764.315 -3.69575 0.788828 0
M  V30 7764 H 764.628 -7.40246 2.21936 0
M  V30 7765 H 762.973 -6.65923 1.98927 0
M  V30 7766 H 766.164 -4.55955 1.05935 0
M  V30 7767 H 766.337 -6.2499 1.71147 0
M  V30 7768 N 759.743 -0.201713 -1.56304 0
M  V30 7769 C 760.992 0.435557 -1.96941 0
M  V30 7770 C 761.305 1.62299 -1.09172 0
M  V30 7771 O 762.511 2.32849 -1.3962 0
M  V30 7772 C 760.967 0.826298 -3.50286 0
M  V30 7773 C 760.575 -0.337216 -4.46729 0
M  V30 7774 C 762.319 1.43028 -3.99679 0
M  V30 7775 C 760.226 0.0748539 -5.91353 0
M  V30 7776 H 759.156 0.1665 -0.735387 0
M  V30 7777 H 761.807 -0.294781 -1.81117 0
M  V30 7778 H 760.189 1.61349 -3.61639 0
M  V30 7779 H 761.363 -1.11476 -4.47113 0
M  V30 7780 H 759.678 -0.853126 -4.07567 0
M  V30 7781 H 762.275 1.75115 -5.05212 0
M  V30 7782 H 762.618 2.33911 -3.44371 0
M  V30 7783 H 763.151 0.706924 -3.91468 0
M  V30 7784 H 759.89 -0.799957 -6.506 0
M  V30 7785 H 759.41 0.817122 -5.94208 0
M  V30 7786 H 761.089 0.508389 -6.45 0
M  V30 7787 N 761.222 1.57436 0.0718424 0
M  V30 7788 C 762.462 1.89082 0.776351 0
M  V30 7789 C 762.826 0.795494 1.74745 0
M  V30 7790 O 764.027 0.995025 2.49705 0
M  V30 7791 C 762.298 3.25958 1.46582 0
M  V30 7792 S 763.857 3.79352 2.2054 0
M  V30 7793 H 760.675 0.662472 0.25817 0
M  V30 7794 H 763.277 1.95473 0.0324536 0
M  V30 7795 H 761.981 4.03577 0.745237 0
M  V30 7796 H 761.512 3.22764 2.24915 0
M  V30 7797 H 763.527 3.54634 3.47058 0
M  V30 7798 N 762.7 -0.34323 1.53817 0
M  V30 7799 C 763.94 -1.09188 1.72793 0
M  V30 7800 C 764.304 -1.85876 0.481062 0
M  V30 7801 O 765.505 -2.63158 0.547851 0
M  V30 7802 C 763.776 -2.00783 2.9567 0
M  V30 7803 S 765.335 -2.82866 3.35459 0
M  V30 7804 H 762.153 -0.368926 0.607795 0
M  V30 7805 H 764.755 -0.370265 1.91962 0
M  V30 7806 H 763.459 -1.43245 3.84589 0
M  V30 7807 H 762.99 -2.77381 2.78968 0
M  V30 7808 H 765.005 -4.03196 2.89218 0
M  V30 7809 N 764.178 -1.45556 -0.604258 0
M  V30 7810 C 765.455 -1.40221 -1.36373 0
M  V30 7811 C 765.835 -0.0745195 -2.10968 0
M  V30 7812 O 765.183 0.943594 -2.08107 0
M  V30 7813 C 765.393 -2.61807 -2.30777 0
M  V30 7814 C 766.741 -3.07037 -2.93281 0
M  V30 7815 O 767.765 -2.62203 -2.41097 0
M  V30 7816 O 766.624 -3.8485 -3.88011 0
M  V30 7817 H 763.718 -0.556602 -0.611656 0
M  V30 7818 H 766.264 -1.57689 -0.627069 0
M  V30 7819 H 765.036 -3.50017 -1.74939 0
M  V30 7820 H 764.659 -2.46688 -3.11818 0
M  V30 7821 N 765.656 0.84705 -1.32902 0
M  V30 7822 C 766.586 1.97166 -1.25091 0
M  V30 7823 C 767.567 1.69578 -0.133161 0
M  V30 7824 O 768.752 1.91519 -0.321591 0
M  V30 7825 C 765.882 3.33157 -0.981006 0
M  V30 7826 C 764.836 3.75119 -2.06082 0
M  V30 7827 C 764.162 5.08826 -1.64318 0
M  V30 7828 C 765.462 3.89774 -3.47669 0
M  V30 7829 H 767.156 2.03958 -2.19184 0
M  V30 7830 H 764.702 0.979907 -1.05517 0
M  V30 7831 H 766.655 4.11393 -0.912891 0
M  V30 7832 H 765.379 3.266 -0.00445559 0
M  V30 7833 H 764.038 2.9914 -2.11921 0
M  V30 7834 H 763.686 4.98732 -0.653876 0
M  V30 7835 H 763.386 5.37873 -2.36572 0
M  V30 7836 H 764.91 5.89546 -1.58958 0
M  V30 7837 H 766.324 4.58343 -3.44376 0
M  V30 7838 H 764.721 4.30248 -4.18338 0
M  V30 7839 H 765.791 2.92463 -3.86773 0
M  V30 7840 N 767.134 1.16236 1.06428 0
M  V30 7841 C 768.411 0.853294 1.76006 0
M  V30 7842 C 768.791 -0.649162 2.00871 0
M  V30 7843 O 768.139 -1.59653 1.63472 0
M  V30 7844 C 768.349 1.67448 3.06206 0
M  V30 7845 C 769.697 1.8866 3.80385 0
M  V30 7846 O 770.721 1.64303 3.16043 0
M  V30 7847 O 769.58 2.29518 4.95968 0
M  V30 7848 H 766.674 0.314737 0.764767 0
M  V30 7849 H 769.22 1.26865 1.12709 0
M  V30 7850 H 767.992 2.69411 2.83784 0
M  V30 7851 H 767.615 1.25608 3.77238 0
M  V30 7852 N 768.612 -1.24939 0.960631 0
M  V30 7853 C 769.858 -1.93104 0.61958 0
M  V30 7854 C 770.191 -1.74991 -0.84212 0
M  V30 7855 O 769.466 -1.09867 -1.60498 0
M  V30 7856 C 769.749 -3.46326 0.986422 0
M  V30 7857 C 769.602 -3.73638 2.50429 0
M  V30 7858 C 770.921 -4.37067 0.515827 0
M  V30 7859 H 768.04 -0.701311 0.226566 0
M  V30 7860 H 770.682 -1.47442 1.19836 0
M  V30 7861 H 768.832 -3.85348 0.493907 0
M  V30 7862 H 770.504 -3.44217 3.07103 0
M  V30 7863 H 768.747 -3.19035 2.93937 0
M  V30 7864 H 769.418 -4.80815 2.71147 0
M  V30 7865 H 771.894 -4.05381 0.938389 0
M  V30 7866 H 770.77 -5.43022 0.80114 0
M  V30 7867 H 771.031 -4.38224 -0.584171 0
M  V30 7868 N 770.09 -0.729906 -1.39679 0
M  V30 7869 C 771.02 -0.101618 -2.33279 0
M  V30 7870 C 772.001 0.729854 -1.53646 0
M  V30 7871 O 773.186 0.67587 -1.82059 0
M  V30 7872 C 770.316 0.81024 -3.37716 0
M  V30 7873 C 769.27 0.0833126 -4.27919 0
M  V30 7874 C 768.596 1.11185 -5.23012 0
M  V30 7875 C 769.896 -1.07107 -5.112 0
M  V30 7876 H 771.59 -0.883452 -2.86069 0
M  V30 7877 H 769.136 -0.426283 -1.37546 0
M  V30 7878 H 771.089 1.25927 -4.02145 0
M  V30 7879 H 769.813 1.62413 -2.83354 0
M  V30 7880 H 768.472 -0.346043 -3.64963 0
M  V30 7881 H 768.12 1.91917 -4.64948 0
M  V30 7882 H 767.82 0.63026 -5.8421 0
M  V30 7883 H 769.344 1.56068 -5.90318 0
M  V30 7884 H 770.758 -0.700726 -5.69002 0
M  V30 7885 H 769.155 -1.48196 -5.81514 0
M  V30 7886 H 770.225 -1.89513 -4.46332 0
M  V30 7887 N 771.568 1.50203 -0.477153 0
M  V30 7888 C 772.531 2.27194 0.302599 0
M  V30 7889 C 773.531 1.32221 0.915112 0
M  V30 7890 O 774.721 1.55593 0.783348 0
M  V30 7891 C 771.853 3.0938 1.43167 0
M  V30 7892 H 773.046 2.97575 -0.372678 0
M  V30 7893 H 770.599 1.54578 -0.231392 0
M  V30 7894 H 771.334 2.43509 2.14182 0
M  V30 7895 H 771.119 3.79181 0.998197 0
M  V30 7896 H 772.609 3.67592 1.98157 0
M  V30 7897 N 773.046 0.209999 1.56195 0
M  V30 7898 C 774.271 -0.433064 2.02828 0
M  V30 7899 C 774.696 -1.5337 1.08901 0
M  V30 7900 O 774.054 -1.81144 0.0751132 0
M  V30 7901 C 774.102 -0.952635 3.47789 0
M  V30 7902 O 773.206 -2.0647 3.56993 0
M  V30 7903 H 772.547 -0.0994594 0.656509 0
M  V30 7904 H 775.077 0.32525 2.01998 0
M  V30 7905 H 775.087 -1.26542 3.8788 0
M  V30 7906 H 773.762 -0.147007 4.1564 0
M  V30 7907 H 772.339 -1.75942 3.28784 0
M  V30 7908 N 774.524 -1.57472 -0.0634922 0
M  V30 7909 C 775.471 -2.04258 -1.07457 0
M  V30 7910 C 776.441 -0.924804 -1.37973 0
M  V30 7911 O 777.626 -1.19305 -1.48899 0
M  V30 7912 C 774.766 -2.49832 -2.38071 0
M  V30 7913 C 773.879 -3.75263 -2.14014 0
M  V30 7914 C 773.014 -4.09585 -3.38251 0
M  V30 7915 C 772.053 -5.28032 -3.09594 0
M  V30 7916 N 771.19 -5.57953 -4.26185 0
M  V30 7917 H 776.03 -2.90402 -0.668626 0
M  V30 7918 H 773.567 -1.43609 -0.318572 0
M  V30 7919 H 775.525 -2.7431 -3.14341 0
M  V30 7920 H 774.155 -1.66654 -2.76453 0
M  V30 7921 H 773.207 -3.58075 -1.28399 0
M  V30 7922 H 774.519 -4.61667 -1.88852 0
M  V30 7923 H 773.673 -4.35008 -4.2291 0
M  V30 7924 H 772.412 -3.21765 -3.66495 0
M  V30 7925 H 771.417 -5.02397 -2.23332 0
M  V30 7926 H 772.642 -6.17477 -2.82663 0
M  V30 7927 H 770.588 -4.73092 -4.54445 0
M  V30 7928 H 770.505 -6.38793 -4.04326 0
M  V30 7929 H 771.773 -5.87931 -5.11817 0
M  V30 7930 N 776.003 0.335068 -1.53997 0
M  V30 7931 C 776.95 1.41187 -1.82579 0
M  V30 7932 C 777.92 1.51897 -0.672061 0
M  V30 7933 O 779.105 1.673 -0.917346 0
M  V30 7934 C 776.245 2.77717 -2.0486 0
M  V30 7935 C 775.358 2.7573 -3.32561 0
M  V30 7936 C 774.493 4.04032 -3.44864 0
M  V30 7937 C 773.532 3.96308 -4.66483 0
M  V30 7938 N 772.669 5.16317 -4.75774 0
M  V30 7939 H 777.509 1.16113 -2.74448 0
M  V30 7940 H 775.046 0.562305 -1.35928 0
M  V30 7941 H 777.004 3.57071 -2.15768 0
M  V30 7942 H 775.634 3.01124 -1.16294 0
M  V30 7943 H 774.686 1.88432 -3.3045 0
M  V30 7944 H 775.998 2.65902 -4.22016 0
M  V30 7945 H 775.152 4.91814 -3.55251 0
M  V30 7946 H 773.891 4.16652 -2.53481 0
M  V30 7947 H 772.896 3.06911 -4.56164 0
M  V30 7948 H 774.121 3.85263 -5.5924 0
M  V30 7949 H 772.067 5.29464 -3.87303 0
M  V30 7950 H 771.984 5.08779 -5.59178 0
M  V30 7951 H 773.252 6.05846 -4.9048 0
M  V30 7952 N 777.481 1.45874 0.596531 0
M  V30 7953 C 778.727 1.5069 1.35722 0
M  V30 7954 C 779.06 0.152506 1.936 0
M  V30 7955 O 778.335 -0.834411 1.75692 0
M  V30 7956 C 778.618 2.59474 2.4969 0
M  V30 7957 C 778.471 4.04396 1.96937 0
M  V30 7958 C 779.79 2.64451 3.51787 0
M  V30 7959 H 776.909 0.548611 0.492133 0
M  V30 7960 H 779.551 1.77741 0.671428 0
M  V30 7961 H 777.701 2.36539 3.08191 0
M  V30 7962 H 779.373 4.38576 1.43 0
M  V30 7963 H 777.616 4.14529 1.27859 0
M  V30 7964 H 778.287 4.76218 2.79143 0
M  V30 7965 H 780.763 2.85031 3.03145 0
M  V30 7966 H 779.639 3.42411 4.29006 0
M  V30 7967 H 779.9 1.69965 4.08123 0
M  V30 7968 N 778.959 -0.83999 1.33349 0
M  V30 7969 C 779.891 -1.95678 1.19344 0
M  V30 7970 C 780.904 -1.62322 0.124692 0
M  V30 7971 O 782.093 -1.74516 0.375012 0
M  V30 7972 C 779.193 -3.29133 0.807771 0
M  V30 7973 C 778.366 -3.9063 1.96792 0
M  V30 7974 C 777.425 -5.02438 1.56341 0
M  V30 7975 O 776.451 -5.21646 2.27759 0
M  V30 7976 N 777.653 -5.78612 0.467767 0
M  V30 7977 H 780.418 -2.08229 2.15548 0
M  V30 7978 H 777.979 -1.01566 1.26079 0
M  V30 7979 H 779.971 -4.01355 0.519282 0
M  V30 7980 H 778.541 -3.12535 -0.063555 0
M  V30 7981 H 777.761 -3.11011 2.4221 0
M  V30 7982 H 779.049 -4.2845 2.74422 0
M  V30 7983 H 778.447 -5.65559 -0.126324 0
M  V30 7984 H 777.004 -6.51362 0.238945 0
M  V30 7985 N 780.437 -1.16799 -1.0581 0
M  V30 7986 C 781.853 -0.913935 -1.30841 0
M  V30 7987 C 782.053 0.430439 -1.96849 0
M  V30 7988 O 781.109 1.16885 -2.23817 0
M  V30 7989 C 782.422 -2.06662 -2.18429 0
M  V30 7990 C 783.97 -2.10294 -2.31831 0
M  V30 7991 C 784.445 -3.2493 -3.22776 0
M  V30 7992 N 785.936 -3.24678 -3.30361 0
M  V30 7993 C 786.671 -4.10021 -4.00837 0
M  V30 7994 N 786.167 -5.05461 -4.73795 0
M  V30 7995 N 787.96 -3.97991 -3.96937 0
M  V30 7996 H 780.111 -2.03343 -0.613613 0
M  V30 7997 H 782.374 -0.88754 -0.333133 0
M  V30 7998 H 782.08 -3.03791 -1.77211 0
M  V30 7999 H 781.954 -2.01233 -3.19038 0
M  V30 8000 H 784.341 -1.13754 -2.72294 0
M  V30 8001 H 784.422 -2.19786 -1.30873 0
M  V30 8002 H 784.066 -4.21731 -2.83028 0
M  V30 8003 H 783.996 -3.12674 -4.23725 0
M  V30 8004 H 786.487 -2.55573 -2.78372 0
M  V30 8005 H 786.8 -5.66989 -5.25113 0
M  V30 8006 H 785.145 -5.09436 -4.72758 0
M  V30 8007 H 788.336 -3.2273 -3.39062 0
M  V30 8008 H 788.509 -4.64722 -4.51594 0
M  V30 8009 N 781.915 1.24427 -0.967243 0
M  V30 8010 C 783.326 1.74349 -0.667785 0
M  V30 8011 C 783.677 1.78403 0.816509 0
M  V30 8012 O 782.802 1.41315 1.63887 0
M  V30 8013 C 783.397 3.16628 -1.20548 0
M  V30 8014 C 781.956 3.64059 -0.955934 0
M  V30 8015 C 781.103 2.42715 -1.34106 0
M  V30 8016 H 784.054 1.10136 -1.14262 0
M  V30 8017 H 784.075 3.76183 -0.571547 0
M  V30 8018 H 783.587 3.13646 -2.28578 0
M  V30 8019 H 781.688 3.72441 0.108858 0
M  V30 8020 H 781.801 4.51549 -1.60126 0
M  V30 8021 H 780.165 2.43114 -0.759452 0
M  V30 8022 H 780.948 2.42414 -2.43085 0
M  V30 8023 N 783.393 0.737304 1.3929 0
M  V30 8024 C 784.639 0.295581 2.01241 0
M  V30 8025 C 784.994 -1.10561 1.57461 0
M  V30 8026 O 784.287 -1.74346 0.7946 0
M  V30 8027 C 784.481 0.338438 3.55794 0
M  V30 8028 C 784.31 1.74225 4.14579 0
M  V30 8029 C 783.08 2.35502 4.47065 0
M  V30 8030 C 785.278 2.69623 4.37959 0
M  V30 8031 N 783.26 3.68014 4.91365 0
M  V30 8032 C 784.631 3.86873 4.84489 0
M  V30 8033 C 786.686 2.67355 4.2003 0
M  V30 8034 C 785.389 5.02193 5.14971 0
M  V30 8035 C 787.415 3.8182 4.51627 0
M  V30 8036 C 786.777 4.97806 4.98366 0
M  V30 8037 H 782.876 0.154468 0.766592 0
M  V30 8038 H 785.46 0.963768 1.69173 0
M  V30 8039 H 783.631 -0.299406 3.87244 0
M  V30 8040 H 785.363 -0.122053 4.04516 0
M  V30 8041 H 782.118 1.87406 4.34943 0
M  V30 8042 H 782.542 4.36051 5.17869 0
M  V30 8043 H 787.184 1.78876 3.83097 0
M  V30 8044 H 784.902 5.913 5.50809 0
M  V30 8045 H 788.488 3.81366 4.39376 0
M  V30 8046 H 787.368 5.84909 5.22351 0
M  V30 8047 N 784.871 -1.49948 0.485112 0
M  V30 8048 C 786.287 -1.58984 0.140096 0
M  V30 8049 C 786.487 -1.49194 -1.35438 0
M  V30 8050 O 785.543 -1.35765 -2.12894 0
M  V30 8051 C 786.856 -2.92372 0.702769 0
M  V30 8052 C 788.404 -3.05801 0.66745 0
M  V30 8053 C 788.879 -4.41785 1.20791 0
M  V30 8054 N 790.37 -4.48234 1.16792 0
M  V30 8055 C 791.105 -5.51871 1.55646 0
M  V30 8056 N 790.601 -6.62692 2.02016 0
M  V30 8057 N 792.394 -5.42494 1.47161 0
M  V30 8058 H 784.545 -1.54555 1.45693 0
M  V30 8059 H 786.808 -0.731206 0.603359 0
M  V30 8060 H 786.514 -3.05056 1.75025 0
M  V30 8061 H 786.388 -3.76885 0.154205 0
M  V30 8062 H 788.775 -2.92757 -0.371157 0
M  V30 8063 H 788.856 -2.23011 1.25298 0
M  V30 8064 H 788.5 -4.55579 2.24522 0
M  V30 8065 H 788.43 -5.23188 0.598464 0
M  V30 8066 H 790.921 -3.68718 0.827982 0
M  V30 8067 H 791.234 -7.3785 2.29775 0
M  V30 8068 H 789.579 -6.63775 2.05979 0
M  V30 8069 H 792.77 -4.54806 1.10765 0
M  V30 8070 H 792.943 -6.2314 1.77766 0
M  V30 8071 N 786.349 -0.21828 -1.56081 0
M  V30 8072 C 787.296 0.693189 -2.20144 0
M  V30 8073 C 788.266 1.19274 -1.15598 0
M  V30 8074 O 789.451 1.25243 -1.4394 0
M  V30 8075 C 786.591 1.89715 -2.88275 0
M  V30 8076 C 785.704 1.4368 -4.07407 0
M  V30 8077 C 784.839 2.59807 -4.63329 0
M  V30 8078 C 783.878 2.10492 -5.74769 0
M  V30 8079 N 783.015 3.1988 -6.24997 0
M  V30 8080 H 787.855 0.14016 -2.9767 0
M  V30 8081 H 785.392 0.0574292 -1.46988 0
M  V30 8082 H 787.35 2.60398 -3.25958 0
M  V30 8083 H 785.98 2.42311 -2.13273 0
M  V30 8084 H 785.032 0.625007 -3.7523 0
M  V30 8085 H 786.344 1.03517 -4.8794 0
M  V30 8086 H 785.498 3.38577 -5.03438 0
M  V30 8087 H 784.237 3.03256 -3.81951 0
M  V30 8088 H 783.242 1.30182 -5.34165 0
M  V30 8089 H 784.467 1.68045 -6.5798 0
M  V30 8090 H 782.413 3.62817 -5.46534 0
M  V30 8091 H 782.33 2.83958 -7.00645 0
M  V30 8092 H 783.598 3.98796 -6.69763 0
M  V30 8093 N 787.827 1.57504 0.0551401 0
M  V30 8094 C 788.777 2.0128 1.071 0
M  V30 8095 C 789.761 0.897592 1.33537 0
M  V30 8096 O 790.953 1.16151 1.33558 0
M  V30 8097 C 788.082 2.47414 2.37994 0
M  V30 8098 C 787.168 3.65703 2.14761 0
M  V30 8099 N 787.559 4.79323 1.61504 0
M  V30 8100 C 785.857 3.72574 2.45162 0
M  V30 8101 C 786.558 5.61089 1.53472 0
M  V30 8102 N 785.534 5.05426 2.00114 0
M  V30 8103 H 789.336 2.86558 0.652829 0
M  V30 8104 H 786.85 1.60274 0.26193 0
M  V30 8105 H 788.847 2.77023 3.11551 0
M  V30 8106 H 787.507 1.6353 2.80514 0
M  V30 8107 H 788.518 5.01284 1.30134 0
M  V30 8108 H 785.195 2.99439 2.90934 0
M  V30 8109 H 786.585 6.62328 1.13008 0
M  V30 8110 N 789.305 -0.326896 1.54172 0
M  V30 8111 C 790.268 -1.38515 1.8261 0
M  V30 8112 C 791.268 -1.44872 0.697771 0
M  V30 8113 O 792.458 -1.44957 0.966078 0
M  V30 8114 C 789.59 -2.77281 1.98313 0
M  V30 8115 H 790.783 -1.14556 2.77159 0
M  V30 8116 H 788.336 -0.562199 1.45839 0
M  V30 8117 H 789.071 -3.065 1.05964 0
M  V30 8118 H 788.856 -2.74061 2.80416 0
M  V30 8119 H 790.346 -3.53845 2.21773 0
M  V30 8120 N 790.784 -1.46188 -0.588786 0
M  V30 8121 C 791.732 -1.56653 -1.71938 0
M  V30 8122 C 792.726 -0.435354 -1.6371 0
M  V30 8123 O 793.932 -0.611996 -1.69277 0
M  V30 8124 H 790.307 -0.492408 -0.568365 0
M  V30 8125 H 792.278 -2.51724 -1.60242 0
M  V30 8126 C 791.027 -1.56822 -3.10326 0
M  V30 8127 H 790.35 -2.43198 -3.17325 0
M  V30 8128 H 791.79 -1.68199 -3.89211 0
M  V30 8129 C 790.249 -0.295802 -3.35599 0
M  V30 8130 O 790.779 0.616515 -3.96941 0
M  V30 8131 N 788.985 -0.185609 -2.90007 0
M  V30 8132 H 788.532 -0.928914 -2.40269 0
M  V30 8133 H 788.49 0.664883 -3.07289 0
M  V30 8134 N 792.262 0.832906 -1.33792 0
M  V30 8135 C 793.511 1.58351 -1.24932 0
M  V30 8136 C 793.824 1.94754 0.181703 0
M  V30 8137 O 795.03 2.6865 0.392375 0
M  V30 8138 C 793.486 2.85643 -2.18943 0
M  V30 8139 C 793.094 2.56581 -3.67247 0
M  V30 8140 C 794.838 3.63667 -2.18968 0
M  V30 8141 C 792.745 3.80006 -4.53155 0
M  V30 8142 H 791.675 0.594278 -0.464058 0
M  V30 8143 H 794.326 0.91786 -1.58895 0
M  V30 8144 H 792.708 3.53781 -1.77919 0
M  V30 8145 H 793.882 1.96617 -4.16747 0
M  V30 8146 H 792.197 1.91851 -3.6957 0
M  V30 8147 H 794.794 4.55293 -2.80379 0
M  V30 8148 H 795.137 3.99039 -1.18631 0
M  V30 8149 H 795.67 3.0246 -2.58384 0
M  V30 8150 H 792.409 3.4976 -5.5439 0
M  V30 8151 H 791.929 4.39288 -4.08395 0
M  V30 8152 H 793.608 4.47523 -4.6726 0
M  V30 8153 N 793.74 1.17359 1.05189 0
M  V30 8154 C 795.151 0.96793 1.5965 0
M  V30 8155 C 795.502 -0.485355 1.90102 0
M  V30 8156 O 794.627 -1.36066 1.6827 0
M  V30 8157 C 795.222 1.75068 2.90063 0
M  V30 8158 C 793.781 1.58969 3.41183 0
M  V30 8159 C 792.928 1.75231 2.14917 0
M  V30 8160 H 795.879 1.32067 0.880001 0
M  V30 8161 H 795.9 1.23308 3.59966 0
M  V30 8162 H 795.412 2.80835 2.67868 0
M  V30 8163 H 793.513 0.556906 3.68415 0
M  V30 8164 H 793.626 2.38067 4.15766 0
M  V30 8165 H 791.99 1.18073 2.25679 0
M  V30 8166 H 792.773 2.8241 1.95191 0
M  V30 8167 N 795.218 -1.23913 0.973828 0
M  V30 8168 C 796.148 -2.27453 0.527969 0
M  V30 8169 C 797.129 -1.6443 -0.435513 0
M  V30 8170 O 798.314 -1.9137 -0.330306 0
M  V30 8171 C 795.444 -3.4685 -0.176757 0
M  V30 8172 C 794.398 -4.22181 0.703352 0
M  V30 8173 C 793.724 -5.34534 -0.133215 0
M  V30 8174 C 795.024 -4.82865 1.99096 0
M  V30 8175 H 796.718 -2.65 1.3934 0
M  V30 8176 H 794.264 -1.27388 0.671446 0
M  V30 8177 H 796.217 -4.18424 -0.499934 0
M  V30 8178 H 794.941 -3.08346 -1.07659 0
M  V30 8179 H 793.6 -3.52416 1.00989 0
M  V30 8180 H 793.248 -4.92271 -1.03338 0
M  V30 8181 H 792.948 -5.85855 0.452494 0
M  V30 8182 H 794.472 -6.08933 -0.450924 0
M  V30 8183 H 795.886 -5.46481 1.73297 0
M  V30 8184 H 794.283 -5.44444 2.52389 0
M  V30 8185 H 795.353 -4.03977 2.68199 0
M  V30 8186 O 796.735 -0.882192 -1.35276 0
M  V30 8187 H 797.426 -0.486499 -1.87491 0
M  V30 END ATOM
M  V30 BEGIN BOND
M  V30 END BOND
M  V30 END CTAB
M  END
$$$$
