drugbank_target|Q9WZI0 Uracil phosphoribosyltransferase (DB03685)
 OpenBabel12092120023D

  0  0  0     0  0            999 V3000
M  V30 BEGIN CTAB
M  V30 COUNTS 3363 3389 0 0 0
M  V30 BEGIN ATOM
M  V30 1 H -0.908 1.98254 -0.117106 0
M  V30 2 N 0 1.576 0 0
M  V30 3 C 0.933 2.03868 1.02534 0
M  V30 4 C 1.911 0.928543 1.3348 0
M  V30 5 O 3.095 1.19667 1.45644 0
M  V30 6 C 0.222 2.43627 2.35294 0
M  V30 7 C -0.732 3.65373 2.2001 0
M  V30 8 S 0.101 5.13292 1.52614 0
M  V30 9 C 1.257 5.56322 2.86805 0
M  V30 10 H 1.49 2.90518 0.631377 0
M  V30 11 H -0.977 1.52953 0.210867 0
M  V30 12 H 0.981 2.67203 3.11629 0
M  V30 13 H -0.358 1.57376 2.7183 0
M  V30 14 H -1.165 3.90944 3.18086 0
M  V30 15 H -1.563 3.418 1.51819 0
M  V30 16 H 0.729 5.58782 3.83104 0
M  V30 17 H 1.672 6.56266 2.65933 0
M  V30 18 H 2.08 4.83886 2.90714 0
M  V30 19 N 1.4781 -0.272755 1.55222 0
M  V30 20 C 2.4251 -1.33716 1.88119 0
M  V30 21 C 3.3951 -1.49066 0.73271 0
M  V30 22 O 4.5801 -1.63469 0.984002 0
M  V30 23 C 1.7201 -2.69238 2.15882 0
M  V30 24 C 0.8331 -2.62108 3.43399 0
M  V30 25 C -0.0319 -3.89811 3.60861 0
M  V30 26 C -0.9929 -3.77193 4.8207 0
M  V30 27 N -1.8559 -4.9673 4.96189 0
M  V30 28 H 2.9841 -1.04962 2.78903 0
M  V30 29 H 0.5211 -0.507088 1.38083 0
M  V30 30 H 2.4791 -3.48089 2.29978 0
M  V30 31 H 1.1091 -2.96194 1.28331 0
M  V30 32 H 0.1611 -1.74967 3.37773 0
M  V30 33 H 1.4731 -2.48685 4.32386 0
M  V30 34 H 0.6271 -4.77103 3.74777 0
M  V30 35 H -0.6339 -4.06102 2.7006 0
M  V30 36 H -1.6289 -2.88284 4.68159 0
M  V30 37 H -0.4039 -3.62421 5.74307 0
M  V30 38 H -2.4579 -5.13431 4.08319 0
M  V30 39 H -2.5409 -4.85839 5.79221 0
M  V30 40 H -1.2729 -5.85594 5.1449 0
M  V30 41 N 2.9562 -1.48159 -0.537278 0
M  V30 42 C 3.9042 -1.62573 -1.66352 0
M  V30 43 C 4.8982 -0.492366 -1.62087 0
M  V30 44 O 6.1042 -0.670847 -1.67032 0
M  V30 45 H 2.4792 -0.511992 -0.550789 0
M  V30 46 H 4.4502 -2.57176 -1.51337 0
M  V30 47 C 3.1992 -1.67583 -3.04649 0
M  V30 48 H 2.5222 -2.54151 -3.08622 0
M  V30 49 H 3.9622 -1.81713 -3.83088 0
M  V30 50 C 2.4212 -0.413039 -3.34358 0
M  V30 51 O 2.9512 0.477259 -3.98855 0
M  V30 52 N 1.1572 -0.286961 -2.8918 0
M  V30 53 H 0.7042 -1.01241 -2.36871 0
M  V30 54 H 0.6622 0.556963 -3.09427 0
M  V30 55 N 4.4343 0.785586 -1.36625 0
M  V30 56 C 5.3643 1.91259 -1.33949 0
M  V30 57 C 6.3453 1.68795 -0.210325 0
M  V30 58 O 7.5303 1.89854 -0.408561 0
M  V30 59 C 4.6603 3.28339 -1.13186 0
M  V30 60 C 3.6143 3.65335 -2.22967 0
M  V30 61 C 2.9403 5.00806 -1.87342 0
M  V30 62 C 4.2403 3.7352 -3.65075 0
M  V30 63 H 5.9343 1.93755 -2.28253 0
M  V30 64 H 3.4803 0.930788 -1.09874 0
M  V30 65 H 5.4333 4.06804 -1.09948 0
M  V30 66 H 4.1573 3.2624 -0.153332 0
M  V30 67 H 2.8163 2.89169 -2.25337 0
M  V30 68 H 2.4643 4.95233 -0.880545 0
M  V30 69 H 2.1643 5.26529 -2.60846 0
M  V30 70 H 3.6883 5.81687 -1.85667 0
M  V30 71 H 5.1023 4.42168 -3.64911 0
M  V30 72 H 3.4993 4.10731 -4.37516 0
M  V30 73 H 4.5693 2.74527 -3.99703 0
M  V30 74 N 5.9124 1.20967 1.01018 0
M  V30 75 C 7.1584 1.02526 1.74975 0
M  V30 76 C 7.4914 -0.4408 1.89131 0
M  V30 77 O 6.7664 -1.32718 1.42184 0
M  V30 78 C 7.0494 1.71699 3.1653 0
M  V30 79 C 6.9024 3.25791 3.10129 0
M  V30 80 C 8.2214 1.45531 4.15342 0
M  V30 81 H 5.3404 0.373863 0.635134 0
M  V30 82 H 7.9824 1.49071 1.17805 0
M  V30 83 H 6.1324 1.32128 3.65341 0
M  V30 84 H 7.8044 3.74697 2.69072 0
M  V30 85 H 6.0474 3.56363 2.47362 0
M  V30 86 H 6.7184 3.69353 4.10222 0
M  V30 87 H 9.1944 1.79872 3.75213 0
M  V30 88 H 8.0704 1.96453 5.1254 0
M  V30 89 H 8.3314 0.384237 4.40427 0
M  V30 90 N 7.3905 -1.2043 1.01659 0
M  V30 91 C 8.6365 -1.90079 0.706963 0
M  V30 92 C 8.9695 -1.78648 -0.761474 0
M  V30 93 O 8.2445 -1.17069 -1.55323 0
M  V30 94 C 8.5275 -3.41469 1.14327 0
M  V30 95 C 8.3805 -3.61833 2.67201 0
M  V30 96 C 9.6995 -4.34261 0.714529 0
M  V30 97 H 6.8185 -0.690254 0.2583 0
M  V30 98 H 9.4605 -1.41826 1.26433 0
M  V30 99 H 7.6105 -3.82696 0.669056 0
M  V30 100 H 9.2825 -3.2986 3.22475 0
M  V30 101 H 7.5255 -3.05304 3.08175 0
M  V30 102 H 8.1965 -4.67955 2.92783 0
M  V30 103 H 10.6725 -4.00682 1.12221 0
M  V30 104 H 9.5485 -5.38806 1.04784 0
M  V30 105 H 9.8095 -4.40431 -0.383799 0
M  V30 106 N 8.8686 -0.792821 -1.36206 0
M  V30 107 C 10.1146 -0.36733 -1.99446 0
M  V30 108 C 10.4476 1.05917 -1.62774 0
M  V30 109 O 9.7226 1.7324 -0.88421 0
M  V30 110 C 10.0056 -0.535044 -3.56103 0
M  V30 111 C 9.8586 -2.00548 -4.02617 0
M  V30 112 C 11.1776 0.0478191 -4.40074 0
M  V30 113 H 8.2966 -0.134941 -0.724541 0
M  V30 114 H 10.9386 -0.999794 -1.61568 0
M  V30 115 H 9.0886 0.00336329 -3.885 0
M  V30 116 H 10.7606 -2.60521 -3.80692 0
M  V30 117 H 9.0036 -2.50686 -3.54032 0
M  V30 118 H 9.6746 -2.07377 -5.11565 0
M  V30 119 H 12.1506 -0.411822 -4.14057 0
M  V30 120 H 11.0266 -0.0995336 -5.4881 0
M  V30 121 H 11.2876 1.14025 -4.27142 0
M  V30 122 N 10.3467 1.47872 -0.545128 0
M  V30 123 C 11.6237 1.9554 0.0485222 0
M  V30 124 C 12.0037 1.4876 1.49779 0
M  V30 125 O 11.3517 0.720925 2.16829 0
M  V30 126 C 11.5617 3.48898 -0.084417 0
M  V30 127 C 12.9097 4.24547 0.0671239 0
M  V30 128 O 13.9337 3.56198 -0.0113649 0
M  V30 129 O 12.7927 5.45999 0.233882 0
M  V30 130 H 9.8867 0.823957 0.0708773 0
M  V30 131 H 12.4327 1.58327 -0.610798 0
M  V30 132 H 11.2047 3.75714 -1.09337 0
M  V30 133 H 10.8277 3.92845 0.613066 0
M  V30 134 N 11.8248 0.280983 1.55075 0
M  V30 135 C 12.7748 -0.618585 2.19448 0
M  V30 136 C 13.7588 -1.11401 1.16098 0
M  V30 137 O 14.9508 -1.0581 1.41891 0
M  V30 138 C 12.0798 -1.79951 2.92357 0
M  V30 139 C 11.1658 -1.321 4.03002 0
M  V30 140 N 11.5568 -0.559044 5.02701 0
M  V30 141 C 9.8548 -1.60346 4.16179 0
M  V30 142 C 10.5558 -0.306722 5.80891 0
M  V30 143 N 9.5318 -0.880825 5.36416 0
M  V30 144 H 13.3338 -0.0286638 2.93886 0
M  V30 145 H 10.8478 0.0848104 1.62178 0
M  V30 146 H 12.8448 -2.45531 3.36927 0
M  V30 147 H 11.5048 -2.39333 2.19431 0
M  V30 148 H 12.5158 -0.205827 5.17491 0
M  V30 149 H 9.1928 -2.20621 3.54447 0
M  V30 150 H 10.5828 0.30391 6.71212 0
M  V30 151 N 13.3029 -1.57598 0.00835791 0
M  V30 152 C 14.7139 -1.7892 -0.53333 0
M  V30 153 C 15.0649 -0.916609 -1.73473 0
M  V30 154 O 14.1899 -0.121336 -2.1606 0
M  V30 155 C 14.7849 -3.24488 -0.974313 0
M  V30 156 C 13.3439 -3.46878 -1.46125 0
M  V30 157 C 12.4909 -2.74157 -0.416302 0
M  V30 158 H 15.4419 -1.56958 0.234495 0
M  V30 159 H 15.4629 -3.3306 -1.83988 0
M  V30 160 H 14.9749 -3.87972 -0.099718 0
M  V30 161 H 13.0759 -2.8862 -2.35646 0
M  V30 162 H 13.1889 -4.55572 -1.48295 0
M  V30 163 H 11.5529 -2.39022 -0.87981 0
M  V30 164 H 12.3359 -3.40345 0.44947 0
M  V30 165 N 14.781 0.264519 -1.55364 0
M  V30 166 C 15.711 1.33121 -1.91836 0
M  V30 167 C 16.692 1.51101 -0.781192 0
M  V30 168 O 17.877 1.64003 -1.04003 0
M  V30 169 C 15.007 2.68921 -2.19769 0
M  V30 170 C 13.961 2.65661 -3.35571 0
M  V30 171 C 13.287 4.05093 -3.49004 0
M  V30 172 C 14.587 2.24187 -4.71739 0
M  V30 173 H 16.281 1.02844 -2.81182 0
M  V30 174 H 13.827 0.493286 -1.35287 0
M  V30 175 H 15.78 3.43663 -2.43872 0
M  V30 176 H 14.504 3.00799 -1.27231 0
M  V30 177 H 13.163 1.93377 -3.1145 0
M  V30 178 H 12.811 4.34206 -2.53917 0
M  V30 179 H 12.511 4.03804 -4.26868 0
M  V30 180 H 14.035 4.81561 -3.75408 0
M  V30 181 H 15.449 2.88654 -4.9533 0
M  V30 182 H 13.846 2.34044 -5.52579 0
M  V30 183 H 14.916 1.19327 -4.69988 0
M  V30 184 N 16.2591 1.48442 0.529413 0
M  V30 185 C 17.5081 1.55742 1.28169 0
M  V30 186 C 17.8211 0.236511 1.94165 0
M  V30 187 O 19.0271 0.187761 2.7085 0
M  V30 188 C 17.4831 2.74667 2.32564 0
M  V30 189 C 17.0911 4.13402 1.72636 0
M  V30 190 C 18.8351 2.9128 3.08798 0
M  V30 191 C 16.7421 5.23587 2.74975 0
M  V30 192 H 15.6721 0.579796 0.48203 0
M  V30 193 H 18.3231 1.74776 0.559056 0
M  V30 194 H 16.7051 2.49067 3.07866 0
M  V30 195 H 17.8791 4.49022 1.03519 0
M  V30 196 H 16.1941 4.0191 1.08892 0
M  V30 197 H 18.7911 3.70767 3.85274 0
M  V30 198 H 19.1341 2.00757 3.64695 0
M  V30 199 H 19.6671 3.16782 2.40611 0
M  V30 200 H 16.4061 6.16076 2.23897 0
M  V30 201 H 15.9261 4.92454 3.42417 0
M  V30 202 H 17.6051 5.51724 3.37949 0
M  V30 203 N 17.7372 -0.778329 1.37039 0
M  V30 204 C 18.6842 -1.89139 1.32269 0
M  V30 205 C 19.6542 -1.65017 0.189387 0
M  V30 206 O 20.8392 -1.87024 0.377693 0
M  V30 207 C 17.9792 -3.26112 1.12894 0
M  V30 208 C 17.0922 -3.62233 2.35396 0
M  V30 209 C 16.2272 -4.8838 2.08946 0
M  V30 210 C 15.2662 -5.17212 3.2735 0
M  V30 211 N 14.4032 -6.34546 3.00492 0
M  V30 212 H 19.2432 -1.92552 2.27437 0
M  V30 213 H 16.7802 -0.941473 1.13025 0
M  V30 214 H 18.7382 -4.05116 0.996835 0
M  V30 215 H 17.3682 -3.22091 0.213758 0
M  V30 216 H 16.4202 -2.78265 2.5937 0
M  V30 217 H 17.7322 -3.79481 3.23721 0
M  V30 218 H 16.8862 -5.75274 1.92729 0
M  V30 219 H 15.6252 -4.73222 1.17949 0
M  V30 220 H 14.6302 -4.28796 3.44113 0
M  V30 221 H 15.8552 -5.34283 4.19188 0
M  V30 222 H 13.8012 -6.20759 2.12118 0
M  V30 223 H 13.7182 -6.52179 3.82358 0
M  V30 224 H 14.9862 -7.24394 2.87879 0
M  V30 225 N 19.2153 -1.21501 -1.00376 0
M  V30 226 C 20.1653 -0.942843 -2.07592 0
M  V30 227 C 21.1493 0.102384 -1.60574 0
M  V30 228 O 22.3413 -0.10671 -1.76678 0
M  V30 229 C 19.4703 -0.510729 -3.3948 0
M  V30 230 C 18.5563 -1.59009 -3.93163 0
M  V30 231 N 18.9473 -2.81544 -4.20198 0
M  V30 232 C 17.2453 -1.45925 -4.21452 0
M  V30 233 C 17.9463 -3.51261 -4.63671 0
M  V30 234 N 16.9223 -2.78703 -4.66718 0
M  V30 235 H 20.7243 -1.87378 -2.26421 0
M  V30 236 H 18.2383 -1.11093 -1.18458 0
M  V30 237 H 20.2353 -0.297101 -4.1584 0
M  V30 238 H 18.8953 0.413436 -3.22057 0
M  V30 239 H 19.9063 -3.18075 -4.08716 0
M  V30 240 H 16.5833 -0.600467 -4.13159 0
M  V30 241 H 17.9733 -4.56183 -4.93302 0
M  V30 242 N 20.6934 1.19889 -1.02296 0
M  V30 243 C 21.6404 2.22901 -0.598651 0
M  V30 244 C 22.6104 1.61588 0.384521 0
M  V30 245 O 23.7954 1.88697 0.282522 0
M  V30 246 C 20.9354 3.45063 0.0504476 0
M  V30 247 C 20.0484 4.20783 -0.978053 0
M  V30 248 C 19.1834 5.30356 -0.299338 0
M  V30 249 C 18.2224 5.97826 -1.31416 0
M  V30 250 N 17.3594 6.98975 -0.661667 0
M  V30 251 H 22.1994 2.58554 -1.48169 0
M  V30 252 H 19.7364 1.27039 -0.741584 0
M  V30 253 H 21.6944 4.14831 0.443971 0
M  V30 254 H 20.3244 3.10084 0.897097 0
M  V30 255 H 19.3764 3.50018 -1.48969 0
M  V30 256 H 20.6884 4.67109 -1.74958 0
M  V30 257 H 19.8424 6.06516 0.149347 0
M  V30 258 H 18.5814 4.85084 0.504445 0
M  V30 259 H 17.5864 5.20422 -1.77317 0
M  V30 260 H 18.8114 6.45183 -2.11933 0
M  V30 261 H 16.7574 6.55886 0.122132 0
M  V30 262 H 16.6744 7.43461 -1.37117 0
M  V30 263 H 17.9424 7.7914 -0.236785 0
M  V30 264 N 22.1715 0.800033 1.35784 0
M  V30 265 C 23.1015 0.220184 2.3246 0
M  V30 266 C 24.0825 -0.65073 1.57161 0
M  V30 267 O 25.2675 -0.582359 1.85263 0
M  V30 268 C 22.3975 -0.637353 3.41402 0
M  V30 269 C 21.3515 0.134531 4.27789 0
M  V30 270 C 20.6775 -0.844285 5.27992 0
M  V30 271 C 21.9775 1.32979 5.05088 0
M  V30 272 H 23.6715 1.02787 2.81203 0
M  V30 273 H 21.2175 0.495717 1.35199 0
M  V30 274 H 23.1705 -1.05302 4.08031 0
M  V30 275 H 21.8945 -1.47785 2.91251 0
M  V30 276 H 20.5535 0.531296 3.6273 0
M  V30 277 H 20.2015 -1.68011 4.74111 0
M  V30 278 H 19.9015 -0.332184 5.8666 0
M  V30 279 H 21.4255 -1.2583 5.97494 0
M  V30 280 H 22.8395 0.98934 5.64699 0
M  V30 281 H 21.2365 1.77593 5.7322 0
M  V30 282 H 22.3065 2.11978 4.36111 0
M  V30 283 N 23.6496 -1.47581 0.552962 0
M  V30 284 C 24.8776 -2.06875 0.0320556 0
M  V30 285 C 25.2926 -1.40625 -1.25976 0
M  V30 286 O 24.6496 -0.501349 -1.75479 0
M  V30 287 C 24.7006 -3.61092 -0.17167 0
M  V30 288 O 24.4216 -4.24858 1.06899 0
M  V30 289 C 25.9226 -4.37242 -0.730344 0
M  V30 290 H 23.1426 -0.669561 0.043915 0
M  V30 291 H 25.6866 -1.89646 0.765163 0
M  V30 292 H 23.8416 -3.7785 -0.854894 0
M  V30 293 H 24.2556 -5.17334 0.864059 0
M  V30 294 H 25.7296 -5.45842 -0.822203 0
M  V30 295 H 26.2066 -4.03235 -1.74064 0
M  V30 296 H 26.8126 -4.25219 -0.0829543 0
M  V30 297 N 25.1277 -0.289203 -1.54924 0
M  V30 298 C 26.3767 0.324231 -1.99077 0
M  V30 299 C 26.6897 1.5591 -1.18117 0
M  V30 300 O 27.8957 2.24637 -1.52481 0
M  V30 301 C 26.3517 0.628209 -3.54375 0
M  V30 302 C 25.9597 -0.587647 -4.44129 0
M  V30 303 C 27.7037 1.20349 -4.07083 0
M  V30 304 C 25.6107 -0.257475 -5.90839 0
M  V30 305 H 24.5407 0.124924 -0.743579 0
M  V30 306 H 27.1917 -0.396063 -1.79175 0
M  V30 307 H 25.5737 1.40778 -3.70132 0
M  V30 308 H 26.7477 -1.36418 -4.40144 0
M  V30 309 H 25.0627 -1.08074 -4.0213 0
M  V30 310 H 27.6597 1.46456 -5.14252 0
M  V30 311 H 28.0027 2.14195 -3.56968 0
M  V30 312 H 28.5357 0.485889 -3.94821 0
M  V30 313 H 25.2747 -1.16419 -6.45079 0
M  V30 314 H 24.7947 0.482018 -5.9786 0
M  V30 315 H 26.4737 0.145238 -6.46837 0
M  V30 316 N 26.6058 1.57591 -0.0167156 0
M  V30 317 C 27.5388 2.04944 1.00366 0
M  V30 318 C 28.5168 0.942648 1.32487 0
M  V30 319 O 29.7008 1.21205 1.44367 0
M  V30 320 C 26.8278 2.46109 2.32697 0
M  V30 321 C 25.8738 3.67686 2.16123 0
M  V30 322 S 26.7068 5.14882 1.47161 0
M  V30 323 C 27.8628 5.59332 2.80888 0
M  V30 324 H 28.0958 2.91172 0.600528 0
M  V30 325 H 25.6288 1.53168 0.194632 0
M  V30 326 H 27.5868 2.70493 3.08778 0
M  V30 327 H 26.2478 1.6025 2.70146 0
M  V30 328 H 25.4408 3.94296 3.13922 0
M  V30 329 H 25.0428 3.43391 1.48185 0
M  V30 330 H 27.3348 5.62814 3.77156 0
M  V30 331 H 28.2778 6.5905 2.58958 0
M  V30 332 H 28.6858 4.86942 2.85565 0
M  V30 333 N 28.0839 -0.256276 1.55502 0
M  V30 334 C 29.4999 -0.604325 1.47716 0
M  V30 335 C 29.6999 -1.88763 0.705039 0
M  V30 336 O 28.7559 -2.51445 0.230613 0
M  V30 337 C 30.0689 -0.715756 2.92057 0
M  V30 338 C 31.6169 -0.808706 3.02372 0
M  V30 339 C 32.0919 -0.951777 4.48001 0
M  V30 340 N 33.5829 -1.01688 4.519 0
M  V30 341 C 34.3179 -1.14668 5.61817 0
M  V30 342 N 33.8139 -1.24261 6.81565 0
M  V30 343 N 35.6069 -1.1791 5.49594 0
M  V30 344 H 27.7579 0.586291 2.04148 0
M  V30 345 H 30.0209 0.201015 0.926443 0
M  V30 346 H 29.7269 0.157027 3.51349 0
M  V30 347 H 29.6009 -1.59071 3.42018 0
M  V30 348 H 31.9879 -1.67195 2.43166 0
M  V30 349 H 32.0689 0.0912063 2.55637 0
M  V30 350 H 31.7129 -0.0931291 5.07815 0
M  V30 351 H 31.6429 -1.86659 4.92408 0
M  V30 352 H 34.1339 -0.954468 3.65648 0
M  V30 353 H 34.4469 -1.34046 7.61086 0
M  V30 354 H 32.7919 -1.21236 6.84344 0
M  V30 355 H 35.9829 -1.10057 4.54978 0
M  V30 356 H 36.1559 -1.27681 6.35296 0
M  V30 357 N 29.562 -1.4872 -0.521534 0
M  V30 358 C 30.839 -1.4766 -1.2828 0
M  V30 359 C 31.219 -0.19292 -2.10217 0
M  V30 360 O 30.567 0.825193 -2.13079 0
M  V30 361 C 30.777 -2.74358 -2.15705 0
M  V30 362 C 32.125 -3.23028 -2.75569 0
M  V30 363 O 33.149 -2.75333 -2.25987 0
M  V30 364 O 32.008 -4.0604 -3.65778 0
M  V30 365 H 29.102 -0.590085 -0.579421 0
M  V30 366 H 31.648 -1.60963 -0.537492 0
M  V30 367 H 30.42 -3.59292 -1.54999 0
M  V30 368 H 30.043 -2.63816 -2.97467 0
M  V30 369 N 31.0401 0.771051 -1.3745 0
M  V30 370 C 31.9871 1.88435 -1.3327 0
M  V30 371 C 32.9571 1.64914 -0.198136 0
M  V30 372 O 34.1421 1.86821 -0.387606 0
M  V30 373 C 31.2821 3.25509 -1.14622 0
M  V30 374 C 30.3951 3.60979 -2.37314 0
M  V30 375 C 29.5301 4.87265 -2.11533 0
M  V30 376 C 28.5691 5.15469 -3.30088 0
M  V30 377 N 27.7061 6.32944 -3.03853 0
M  V30 378 H 32.5461 1.91344 -2.28455 0
M  V30 379 H 30.0831 0.935466 -1.13523 0
M  V30 380 H 32.0411 4.04582 -1.01831 0
M  V30 381 H 30.6711 3.21974 -0.230837 0
M  V30 382 H 29.7231 2.76885 -2.60842 0
M  V30 383 H 31.0351 3.77759 -3.25729 0
M  V30 384 H 30.1891 5.74244 -1.95777 0
M  V30 385 H 28.9281 4.7259 -1.20457 0
M  V30 386 H 27.9331 4.26966 -3.46382 0
M  V30 387 H 29.1581 5.32052 -4.22016 0
M  V30 388 H 27.1041 6.19625 -2.15407 0
M  V30 389 H 27.0211 6.50143 -3.85812 0
M  V30 390 H 28.2891 7.22857 -2.91716 0
M  V30 391 N 32.5182 1.22032 0.997298 0
M  V30 392 C 33.4662 0.983634 2.10778 0
M  V30 393 C 34.4602 -0.0717564 1.69248 0
M  V30 394 O 35.6662 0.080304 1.79821 0
M  V30 395 H 32.0412 0.300877 0.689186 0
M  V30 396 H 34.0122 1.92606 2.27916 0
M  V30 397 C 32.7612 0.57326 3.42942 0
M  V30 398 H 32.0842 1.37702 3.75338 0
M  V30 399 H 33.5242 0.447031 4.21637 0
M  V30 400 C 31.9832 -0.7167 3.29188 0
M  V30 401 O 32.5132 -1.77027 3.60589 0
M  V30 402 N 30.7192 -0.686167 2.82383 0
M  V30 403 H 30.2662 0.171507 2.57028 0
M  V30 404 H 30.2242 -1.54955 2.73562 0
M  V30 405 N 33.9963 -1.19345 1.0293 0
M  V30 406 C 35.2243 -1.92997 0.745644 0
M  V30 407 C 35.6393 -1.75519 -0.695589 0
M  V30 408 O 34.9963 -1.07737 -1.47306 0
M  V30 409 C 35.0473 -3.44741 1.08792 0
M  V30 410 O 34.7683 -3.61658 2.47256 0
M  V30 411 C 36.2693 -4.35515 0.827129 0
M  V30 412 H 33.4893 -0.613042 0.272801 0
M  V30 413 H 36.0333 -1.51473 1.3739 0
M  V30 414 H 34.1883 -3.84097 0.504832 0
M  V30 415 H 34.6023 -4.55514 2.60015 0
M  V30 416 H 36.0763 -5.40589 1.11658 0
M  V30 417 H 36.5533 -4.38552 -0.238436 0
M  V30 418 H 37.1593 -4.01841 1.39297 0
M  V30 419 N 35.4744 -0.807222 -1.35358 0
M  V30 420 C 36.7224 -0.387122 -1.98358 0
M  V30 421 C 37.0434 1.04942 -1.64354 0
M  V30 422 O 36.3134 1.72615 -0.926339 0
M  V30 423 H 34.8934 -0.140154 -0.733734 0
M  V30 424 H 37.5554 -1.0332 -1.6526 0
M  V30 425 H 36.6514 -0.493352 -3.08176 0
M  V30 426 N 36.9525 1.47285 -0.560781 0
M  V30 427 C 38.3635 1.86258 -0.128343 0
M  V30 428 C 38.7145 1.46699 1.30284 0
M  V30 429 O 37.8395 0.871698 1.98067 0
M  V30 430 C 38.4345 3.38044 -0.22614 0
M  V30 431 C 36.9935 3.76096 0.151283 0
M  V30 432 C 36.1405 2.71335 -0.572084 0
M  V30 433 H 39.0915 1.38752 -0.770297 0
M  V30 434 H 39.1125 3.76441 0.554322 0
M  V30 435 H 38.6245 3.66806 -1.26788 0
M  V30 436 H 36.7255 3.52951 1.19399 0
M  V30 437 H 36.8385 4.78641 -0.209765 0
M  V30 438 H 35.2025 2.54696 -0.0147653 0
M  V30 439 H 35.9855 3.02938 -1.61504 0
M  V30 440 N 38.4306 0.297415 1.54768 0
M  V30 441 C 39.3776 -0.580276 2.23386 0
M  V30 442 C 40.3476 -1.13238 1.21517 0
M  V30 443 O 41.5326 -1.17757 1.50126 0
M  V30 444 C 38.6726 -1.74801 2.97555 0
M  V30 445 C 37.7856 -1.22764 4.1419 0
M  V30 446 C 36.9206 -2.35895 4.75949 0
M  V30 447 C 35.9596 -1.80974 5.84735 0
M  V30 448 N 35.0966 -2.87664 6.40464 0
M  V30 449 H 39.9366 0.0114833 2.97998 0
M  V30 450 H 37.4736 0.0174361 1.4709 0
M  V30 451 H 39.4316 -2.43475 3.38786 0
M  V30 452 H 38.0616 -2.31145 2.25326 0
M  V30 453 H 37.1136 -0.433271 3.77924 0
M  V30 454 H 38.4256 -0.785551 4.92575 0
M  V30 455 H 37.5796 -3.12523 5.20014 0
M  V30 456 H 36.3186 -2.83429 3.96887 0
M  V30 457 H 35.3236 -1.02834 5.40097 0
M  V30 458 H 36.5486 -1.34348 6.65678 0
M  V30 459 H 34.4946 -3.34538 5.64287 0
M  V30 460 H 34.4116 -2.4794 7.14186 0
M  V30 461 H 35.6796 -3.642 6.89187 0
M  V30 462 N 39.9087 -1.5758 0.0250728 0
M  V30 463 C 40.8187 -2.1343 -0.973905 0
M  V30 464 C 41.8347 -1.08556 -1.35984 0
M  V30 465 O 43.0107 -1.40592 -1.44207 0
M  V30 466 C 40.0757 -2.64703 -2.23904 0
M  V30 467 C 39.1367 -3.84276 -1.91391 0
M  V30 468 C 38.3697 -4.33095 -3.11873 0
M  V30 469 O 38.5927 -3.81107 -4.24398 0
M  V30 470 O 37.5267 -5.24984 -2.94406 0
M  V30 471 H 41.3527 -2.99057 -0.529036 0
M  V30 472 H 38.9377 -1.48118 -0.195288 0
M  V30 473 H 40.8197 -2.97769 -2.98181 0
M  V30 474 H 39.4947 -1.82161 -2.6758 0
M  V30 475 H 38.4017 -3.56143 -1.14511 0
M  V30 476 H 39.7347 -4.67968 -1.52534 0
M  V30 477 N 41.3868 0.248026 -1.55636 0
M  V30 478 C 42.6338 0.976224 -1.77415 0
M  V30 479 C 42.9618 1.85361 -0.589193 0
M  V30 480 O 42.2168 1.90973 0.427529 0
M  V30 481 C 42.5158 1.86819 -3.04686 0
M  V30 482 C 42.1818 1.14625 -4.36087 0
M  V30 483 C 40.8438 0.946723 -4.71795 0
M  V30 484 C 43.1958 0.634463 -5.17324 0
M  V30 485 C 40.5238 0.223091 -5.86276 0
M  V30 486 C 42.8758 -0.0756959 -6.32555 0
M  V30 487 C 41.5398 -0.286711 -6.66884 0
M  V30 488 H 40.8098 0.357226 -0.649208 0
M  V30 489 H 43.4568 0.246415 -1.89908 0
M  V30 490 H 41.7618 2.66502 -2.872 0
M  V30 491 H 43.4588 2.43329 -3.18735 0
M  V30 492 H 40.0488 1.3117 -4.08035 0
M  V30 493 H 44.2328 0.77616 -4.90193 0
M  V30 494 H 39.4888 0.0491185 -6.1138 0
M  V30 495 H 43.6628 -0.479899 -6.94745 0
M  V30 496 H 41.2898 -0.849389 -7.5544 0
M  V30 497 N 42.8649 1.48995 0.513639 0
M  V30 498 C 44.2809 1.35478 0.843682 0
M  V30 499 C 44.4809 0.378213 1.97919 0
M  V30 500 O 43.5369 -0.194689 2.51748 0
M  V30 501 C 44.8499 2.75901 1.1958 0
M  V30 502 C 46.3979 2.84509 1.30474 0
M  V30 503 C 46.8729 4.25671 1.69021 0
M  V30 504 N 48.3639 4.28422 1.76094 0
M  V30 505 C 49.0989 5.34601 2.07338 0
M  V30 506 N 48.5949 6.5104 2.36894 0
M  V30 507 N 50.3879 5.22007 2.08483 0
M  V30 508 H 42.5389 2.11092 -0.235328 0
M  V30 509 H 44.8019 0.947039 -0.0426669 0
M  V30 510 H 44.5079 3.49001 0.434913 0
M  V30 511 H 44.3819 3.10467 2.1422 0
M  V30 512 H 46.7689 2.11655 2.05637 0
M  V30 513 H 46.8499 2.53542 0.339155 0
M  V30 514 H 46.4939 4.99048 0.944135 0
M  V30 515 H 46.4239 4.54094 2.66658 0
M  V30 516 H 48.9149 3.44441 1.55464 0
M  V30 517 H 49.2279 7.2779 2.59887 0
M  V30 518 H 47.5729 6.54287 2.34378 0
M  V30 519 H 50.7639 4.30051 1.84861 0
M  V30 520 H 50.9369 6.04854 2.325 0
M  V30 521 N 44.343 -0.763751 1.37857 0
M  V30 522 C 45.253 -1.90817 1.36478 0
M  V30 523 C 46.269 -1.71997 0.263248 0
M  V30 524 O 47.445 -1.95095 0.499979 0
M  V30 525 C 44.51 -3.2605 1.17864 0
M  V30 526 C 43.571 -3.57467 2.3773 0
M  V30 527 C 42.804 -4.86249 2.19995 0
M  V30 528 O 43.027 -5.57884 1.18836 0
M  V30 529 O 41.961 -5.16911 3.08361 0
M  V30 530 H 45.787 -1.94933 2.32884 0
M  V30 531 H 43.372 -0.907619 1.1867 0
M  V30 532 H 45.254 -4.06924 1.09504 0
M  V30 533 H 43.929 -3.22769 0.245372 0
M  V30 534 H 42.836 -2.76796 2.51664 0
M  V30 535 H 44.169 -3.655 3.29652 0
M  V30 536 N 45.8211 -1.22559 -0.990812 0
M  V30 537 C 46.7511 -1.0218 -2.09956 0
M  V30 538 C 47.7321 0.0579394 -1.70001 0
M  V30 539 O 48.9171 -0.104684 -1.93918 0
M  V30 540 C 46.0471 -0.601023 -3.4206 0
M  V30 541 C 45.0011 -1.62694 -3.95872 0
M  V30 542 C 44.3271 -1.06193 -5.24049 0
M  V30 543 C 45.6271 -3.01743 -4.2632 0
M  V30 544 H 47.3211 -1.94916 -2.27262 0
M  V30 545 H 44.8671 -0.938566 -1.09211 0
M  V30 546 H 46.8201 -0.445561 -4.19038 0
M  V30 547 H 45.5441 0.362005 -3.24588 0
M  V30 548 H 44.2031 -1.77021 -3.21028 0
M  V30 549 H 43.8511 -0.0901903 -5.02919 0
M  V30 550 H 43.5511 -1.74732 -5.61019 0
M  V30 551 H 45.0751 -0.918092 -6.03658 0
M  V30 552 H 46.4891 -2.90777 -4.94087 0
M  V30 553 H 44.8861 -3.67425 -4.74467 0
M  V30 554 H 45.9561 -3.51518 -3.34011 0
M  V30 555 N 47.2992 1.18797 -1.03562 0
M  V30 556 C 48.2292 2.24472 -0.643019 0
M  V30 557 C 49.2102 1.66433 0.351283 0
M  V30 558 O 50.3952 1.92803 0.232505 0
M  V30 559 C 47.5252 3.473 4.24935e-05 0
M  V30 560 C 46.4792 4.18055 -0.917257 0
M  V30 561 C 45.8052 5.34519 -0.138941 0
M  V30 562 C 47.1052 4.72109 -2.23407 0
M  V30 563 H 48.7992 2.57566 -1.52643 0
M  V30 564 H 46.3452 1.23806 -0.735394 0
M  V30 565 H 48.2982 4.20426 0.286383 0
M  V30 566 H 47.0222 3.13424 0.918299 0
M  V30 567 H 45.6812 3.46821 -1.1879 0
M  V30 568 H 45.3292 4.96891 0.781562 0
M  V30 569 H 45.0292 5.82794 -0.750005 0
M  V30 570 H 46.5532 6.10438 0.1405 0
M  V30 571 H 47.9672 5.36955 -2.00879 0
M  V30 572 H 46.3642 5.30897 -2.79765 0
M  V30 573 H 47.4342 3.89807 -2.88407 0
M  V30 574 N 48.7773 0.814389 1.34928 0
M  V30 575 C 50.1933 0.499084 1.51596 0
M  V30 576 C 50.3933 -0.978319 1.76157 0
M  V30 577 O 49.4493 -1.76309 1.80752 0
M  V30 578 C 50.7623 1.35121 2.68631 0
M  V30 579 C 52.3103 1.34746 2.82511 0
M  V30 580 C 52.7853 2.18388 4.0258 0
M  V30 581 N 54.2763 2.15966 4.09772 0
M  V30 582 C 55.0113 2.77437 5.01813 0
M  V30 583 N 54.5073 3.47866 5.99134 0
M  V30 584 N 56.3003 2.67037 4.94619 0
M  V30 585 H 48.4513 1.7711 1.17243 0
M  V30 586 H 50.7143 0.754256 0.574284 0
M  V30 587 H 50.4203 2.40001 2.57085 0
M  V30 588 H 50.2943 1.00991 3.63429 0
M  V30 589 H 52.6813 0.30648 2.93504 0
M  V30 590 H 52.7623 1.72869 1.88547 0
M  V30 591 H 52.4063 3.2253 3.92347 0
M  V30 592 H 52.3363 1.77621 4.9574 0
M  V30 593 H 54.8273 1.64729 3.40107 0
M  V30 594 H 55.1403 3.92038 6.65977 0
M  V30 595 H 53.4853 3.51972 5.99284 0
M  V30 596 H 56.6763 2.11597 4.17546 0
M  V30 597 H 56.8493 3.15232 5.66156 0
M  V30 598 N 50.2554 -1.46986 0.568584 0
M  V30 599 C 51.1654 -2.33942 -0.17555 0
M  V30 600 C 52.1814 -1.48891 -0.90041 0
M  V30 601 O 53.3574 -1.81794 -0.86676 0
M  V30 602 C 50.4224 -3.25811 -1.18524 0
M  V30 603 C 49.4834 -4.26757 -0.466582 0
M  V30 604 C 48.7164 -5.14236 -1.42817 0
M  V30 605 O 48.9394 -5.04379 -2.66379 0
M  V30 606 O 47.8734 -5.94412 -0.946453 0
M  V30 607 H 51.6994 -2.98896 0.538036 0
M  V30 608 H 49.2844 -1.4573 0.329097 0
M  V30 609 H 51.1664 -3.82527 -1.76779 0
M  V30 610 H 49.8414 -2.63471 -1.88055 0
M  V30 611 H 48.7484 -3.73769 0.157451 0
M  V30 612 H 50.0814 -4.91843 0.187485 0
M  V30 613 N 51.7335 -0.305618 -1.54608 0
M  V30 614 C 52.9825 0.303098 -1.9941 0
M  V30 615 C 53.2955 1.54648 -1.19764 0
M  V30 616 O 54.5015 2.23007 -1.54855 0
M  V30 617 C 52.9575 0.590588 -3.55021 0
M  V30 618 C 52.5655 -0.634719 -4.43481 0
M  V30 619 C 54.3095 1.16025 -4.08336 0
M  V30 620 C 52.2165 -0.320126 -5.90533 0
M  V30 621 H 51.1465 0.117031 -0.744862 0
M  V30 622 H 53.7975 -0.415045 -1.78745 0
M  V30 623 H 52.1795 1.36845 -3.71604 0
M  V30 624 H 53.3535 -1.41079 -4.38672 0
M  V30 625 H 51.6685 -1.12333 -4.00962 0
M  V30 626 H 54.2655 1.40994 -5.15776 0
M  V30 627 H 54.6085 2.10397 -3.5922 0
M  V30 628 H 55.1415 0.443985 -3.95315 0
M  V30 629 H 51.8805 -1.23254 -6.43808 0
M  V30 630 H 51.4005 0.418579 -5.98338 0
M  V30 631 H 53.0795 0.0766241 -6.46955 0
M  V30 632 N 53.2116 1.57565 -0.0334293 0
M  V30 633 C 54.4396 1.9628 0.654347 0
M  V30 634 C 54.8546 0.910138 1.65414 0
M  V30 635 O 54.2116 -0.107595 1.82183 0
M  V30 636 C 54.2626 3.35067 1.35693 0
M  V30 637 O 53.9836 4.36296 0.397191 0
M  V30 638 C 55.4846 3.88439 2.13613 0
M  V30 639 H 52.7046 0.646369 0.180132 0
M  V30 640 H 55.2486 2.04282 -0.0944721 0
M  V30 641 H 53.4036 3.2827 2.05712 0
M  V30 642 H 53.8176 5.1678 0.896597 0
M  V30 643 H 55.2916 4.8788 2.58219 0
M  V30 644 H 55.7686 3.22914 2.97696 0
M  V30 645 H 56.3746 3.98516 1.48543 0
M  V30 646 N 54.6897 -0.239769 1.55765 0
M  V30 647 C 55.6197 -1.30052 1.9393 0
M  V30 648 C 56.6007 -1.49839 0.805132 0
M  V30 649 O 57.7857 -1.62328 1.06599 0
M  V30 650 C 54.9157 -2.65391 2.2402 0
M  V30 651 C 53.8697 -2.60289 3.39755 0
M  V30 652 C 53.1957 -3.99489 3.55405 0
M  V30 653 C 54.4957 -2.16654 4.75246 0
M  V30 654 H 56.1897 -0.983573 2.82783 0
M  V30 655 H 53.7357 -0.471701 1.36055 0
M  V30 656 H 55.6887 -3.3974 2.49308 0
M  V30 657 H 54.4127 -2.98736 1.32 0
M  V30 658 H 53.0717 -1.88398 3.14487 0
M  V30 659 H 52.7197 -4.30112 2.60793 0
M  V30 660 H 52.4197 -3.96962 4.33238 0
M  V30 661 H 53.9437 -4.75528 3.83022 0
M  V30 662 H 55.3577 -2.80737 4.99859 0
M  V30 663 H 53.7547 -2.25223 5.56232 0
M  V30 664 H 54.8247 -1.11835 4.71827 0
M  V30 665 N 56.1678 -1.49265 -0.50573 0
M  V30 666 C 57.0978 -1.68495 -1.61653 0
M  V30 667 C 58.0788 -0.53366 -1.61512 0
M  V30 668 O 59.2638 -0.76897 -1.78327 0
M  V30 669 C 56.3938 -1.74709 -3.00157 0
M  V30 670 C 55.3478 -2.89581 -3.15162 0
M  V30 671 C 54.6738 -2.80903 -4.5497 0
M  V30 672 C 55.9738 -4.30578 -2.95634 0
M  V30 673 H 57.6678 -2.61493 -1.45814 0
M  V30 674 H 55.2138 -1.25838 -0.70005 0
M  V30 675 H 57.1668 -1.86748 -3.77761 0
M  V30 676 H 55.8908 -0.783067 -3.17074 0
M  V30 677 H 54.5498 -2.77136 -2.39982 0
M  V30 678 H 54.1978 -1.82419 -4.68756 0
M  V30 679 H 53.8978 -3.57999 -4.65951 0
M  V30 680 H 55.4218 -2.94944 -5.34641 0
M  V30 681 H 56.8358 -4.4373 -3.63011 0
M  V30 682 H 55.2328 -5.0886 -3.18091 0
M  V30 683 H 56.3028 -4.45352 -1.91806 0
M  V30 684 N 57.6459 0.756429 -1.3826 0
M  V30 685 C 58.5759 1.88374 -1.37976 0
M  V30 686 C 59.5569 1.68311 -0.246082 0
M  V30 687 O 60.7419 1.88944 -0.44874 0
M  V30 688 C 57.8719 3.25864 -1.20125 0
M  V30 689 C 56.8259 3.60523 -2.30666 0
M  V30 690 C 56.1519 4.9672 -1.97923 0
M  V30 691 C 57.4519 3.65692 -3.72916 0
M  V30 692 H 59.1459 1.88869 -2.32312 0
M  V30 693 H 56.6919 0.907272 -1.11824 0
M  V30 694 H 58.6449 4.0438 -1.18552 0
M  V30 695 H 57.3689 3.25841 -0.222498 0
M  V30 696 H 56.0279 2.84324 -2.3142 0
M  V30 697 H 55.6759 4.93253 -0.985393 0
M  V30 698 H 55.3759 5.20878 -2.71955 0
M  V30 699 H 56.8999 5.77618 -1.97964 0
M  V30 700 H 58.3139 4.34328 -3.74208 0
M  V30 701 H 56.7109 4.01358 -4.4613 0
M  V30 702 H 57.7809 2.65987 -4.05436 0
M  V30 703 N 59.124 1.23083 0.984299 0
M  V30 704 C 60.087 1.00979 2.05757 0
M  V30 705 C 61.087 -0.0269573 1.60777 0
M  V30 706 O 62.277 0.212403 1.729 0
M  V30 707 C 59.409 0.527072 3.36801 0
M  V30 708 H 60.602 1.9622 2.26799 0
M  V30 709 H 58.155 1.05072 1.15714 0
M  V30 710 H 58.89 -0.429294 3.21446 0
M  V30 711 H 58.675 1.27515 3.70786 0
M  V30 712 H 60.165 0.392942 4.15747 0
M  V30 713 N 60.6021 -1.18246 1.0419 0
M  V30 714 C 61.8321 -1.91916 0.764961 0
M  V30 715 C 62.2401 -1.76485 -0.681898 0
M  V30 716 O 61.5831 -1.09275 -1.47664 0
M  V30 717 C 61.6451 -3.4373 1.05309 0
M  V30 718 C 61.3091 -3.8294 2.4941 0
M  V30 719 C 62.3061 -3.86621 3.47592 0
M  V30 720 C 59.9911 -4.142 2.84155 0
M  V30 721 C 61.9851 -4.21013 4.78568 0
M  V30 722 C 59.6721 -4.48262 4.15337 0
M  V30 723 C 60.6701 -4.51645 5.12353 0
M  V30 724 O 60.3581 -4.84911 6.41183 0
M  V30 725 H 60.0901 -0.61606 0.278292 0
M  V30 726 H 62.6441 -1.50947 1.39299 0
M  V30 727 H 60.8741 -3.84946 0.367933 0
M  V30 728 H 62.5631 -3.9865 0.763752 0
M  V30 729 H 63.3291 -3.62607 3.22089 0
M  V30 730 H 59.2081 -4.10743 2.09311 0
M  V30 731 H 62.7521 -4.23568 5.54289 0
M  V30 732 H 58.6491 -4.71737 4.40607 0
M  V30 733 H 59.4171 -5.02809 6.45852 0
M  V30 734 N 62.0802 -0.821533 -1.34494 0
M  V30 735 C 62.9902 -0.244355 -2.33324 0
M  V30 736 C 64.0062 0.620527 -1.62559 0
M  V30 737 O 65.1822 0.528754 -1.94335 0
M  V30 738 C 62.2472 0.585368 -3.41723 0
M  V30 739 C 61.3082 -0.301752 -4.28238 0
M  V30 740 C 60.5412 0.488466 -5.3146 0
M  V30 741 O 60.7642 1.72186 -5.4379 0
M  V30 742 O 59.6982 -0.12848 -6.01763 0
M  V30 743 H 63.5242 -1.06231 -2.84515 0
M  V30 744 H 61.1092 -0.583645 -1.37528 0
M  V30 745 H 62.9912 1.05747 -4.07916 0
M  V30 746 H 61.6662 1.38068 -2.92778 0
M  V30 747 H 60.5732 -0.821315 -3.64973 0
M  V30 748 H 61.9062 -1.06138 -4.8062 0
M  V30 749 N 63.5583 1.46682 -0.576371 0
M  V30 750 C 64.5213 2.28707 0.150239 0
M  V30 751 C 65.5213 1.38035 0.824794 0
M  V30 752 O 66.7113 1.60476 0.677719 0
M  V30 753 C 63.8433 3.18248 1.22192 0
M  V30 754 H 65.0363 2.94423 -0.570521 0
M  V30 755 H 62.5893 1.52688 -0.334078 0
M  V30 756 H 63.3243 2.57265 1.97447 0
M  V30 757 H 63.1093 3.85 0.742812 0
M  V30 758 H 64.5993 3.80001 1.73172 0
M  V30 759 N 65.0364 0.313813 1.54444 0
M  V30 760 C 66.2644 -0.293918 2.04802 0
M  V30 761 C 66.6794 -1.46537 1.19047 0
M  V30 762 O 66.0364 -1.81182 0.218939 0
M  V30 763 C 66.0874 -0.737806 3.53891 0
M  V30 764 O 65.8084 0.387038 4.36387 0
M  V30 765 C 67.3094 -1.40936 4.203 0
M  V30 766 H 64.5294 -0.0620057 0.668129 0
M  V30 767 H 67.0734 0.457169 1.99324 0
M  V30 768 H 65.2284 -1.43889 3.59687 0
M  V30 769 H 65.6424 0.0391274 5.24485 0
M  V30 770 H 67.1164 -1.67099 5.26101 0
M  V30 771 H 67.5934 -2.35355 3.70816 0
M  V30 772 H 68.1994 -0.751117 4.18615 0
M  V30 773 N 66.5145 -1.57545 0.0417849 0
M  V30 774 C 67.9305 -1.56467 -0.314704 0
M  V30 775 C 68.1305 -1.04859 -1.72066 0
M  V30 776 O 67.1865 -0.700983 -2.42575 0
M  V30 777 C 68.4995 -3.00317 -0.15174 0
M  V30 778 C 70.0475 -3.12201 -0.223553 0
M  V30 779 C 70.5225 -4.57913 -0.0892295 0
M  V30 780 N 72.0135 -4.6297 -0.145808 0
M  V30 781 C 72.7485 -5.73362 -0.0658459 0
M  V30 782 N 72.2445 -6.92769 0.0659282 0
M  V30 783 N 74.0375 -5.6197 -0.12075 0
M  V30 784 H 66.1885 -1.89416 0.961014 0
M  V30 785 H 68.4515 -0.871862 0.372237 0
M  V30 786 H 68.1575 -3.42073 0.817254 0
M  V30 787 H 68.0315 -3.65892 -0.916692 0
M  V30 788 H 70.4185 -2.70349 -1.18301 0
M  V30 789 H 70.4995 -2.49323 0.571994 0
M  V30 790 H 70.1435 -5.00448 0.866867 0
M  V30 791 H 70.0735 -5.18786 -0.903802 0
M  V30 792 H 72.5645 -3.7709 -0.247286 0
M  V30 793 H 72.8775 -7.72707 0.119905 0
M  V30 794 H 71.2225 -6.94927 0.100885 0
M  V30 795 H 74.4135 -4.67572 -0.222187 0
M  V30 796 H 74.5865 -6.47977 -0.0549735 0
M  V30 797 N 67.9926 0.231505 -1.5589 0
M  V30 798 C 68.9426 1.29007 -1.87993 0
M  V30 799 C 69.9266 1.42764 -0.742102 0
M  V30 800 O 71.1186 1.45747 -1.00433 0
M  V30 801 C 68.2476 2.6425 -2.1915 0
M  V30 802 C 67.3336 2.54435 -3.39299 0
M  V30 803 N 67.7246 2.14262 -4.58176 0
M  V30 804 C 66.0226 2.85416 -3.42715 0
M  V30 805 C 66.7236 2.15455 -5.40328 0
M  V30 806 N 65.6996 2.55558 -4.79783 0
M  V30 807 H 69.5016 0.970213 -2.77424 0
M  V30 808 H 67.0156 0.440097 -1.56323 0
M  V30 809 H 69.0126 3.40665 -2.40319 0
M  V30 810 H 67.6726 2.9709 -1.31025 0
M  V30 811 H 68.6836 1.85554 -4.83518 0
M  V30 812 H 65.3606 3.22693 -2.64906 0
M  V30 813 H 66.7506 1.86605 -6.45467 0
M  V30 814 N 69.4707 1.49531 0.497807 0
M  V30 815 C 70.4007 1.6935 1.60757 0
M  V30 816 C 71.3817 0.542218 1.61227 0
M  V30 817 O 72.5667 0.778417 1.77917 0
M  V30 818 C 69.6967 1.76298 2.99226 0
M  V30 819 C 68.6507 2.91248 3.13622 0
M  V30 820 C 67.9767 2.83312 4.53474 0
M  V30 821 C 69.2767 4.3214 2.93346 0
M  V30 822 H 70.9707 2.62263 1.44425 0
M  V30 823 H 68.5167 1.26208 0.693367 0
M  V30 824 H 70.4697 1.88749 3.76765 0
M  V30 825 H 69.1937 0.799871 3.16654 0
M  V30 826 H 67.8527 2.78404 2.38509 0
M  V30 827 H 67.5007 1.84902 4.67782 0
M  V30 828 H 67.2007 3.60465 4.64046 0
M  V30 829 H 68.7247 2.97775 5.33069 0
M  V30 830 H 70.1387 4.45649 3.60652 0
M  V30 831 H 68.5357 5.1054 3.15387 0
M  V30 832 H 69.6057 4.46363 1.89441 0
M  V30 833 N 70.9488 -0.749086 1.3866 0
M  V30 834 C 71.8958 -1.86291 1.36251 0
M  V30 835 C 72.8658 -1.64578 0.224347 0
M  V30 836 O 74.0508 -1.86181 0.417279 0
M  V30 837 C 71.1908 -3.23644 1.19786 0
M  V30 838 C 70.3038 -3.57158 2.43027 0
M  V30 839 C 69.4388 -4.83838 2.19258 0
M  V30 840 C 68.4778 -5.10152 3.38247 0
M  V30 841 N 67.6148 -6.28029 3.13884 0
M  V30 842 H 72.4548 -1.87685 2.3147 0
M  V30 843 H 69.9918 -0.917287 1.14997 0
M  V30 844 H 71.9498 -4.0291 1.08254 0
M  V30 845 H 70.5798 -3.21566 0.282031 0
M  V30 846 H 69.6318 -2.72701 2.65214 0
M  V30 847 H 70.9438 -3.7253 3.31697 0
M  V30 848 H 70.0978 -5.71057 2.04888 0
M  V30 849 H 68.8368 -4.70614 1.2796 0
M  V30 850 H 67.8418 -4.21401 3.53131 0
M  V30 851 H 69.0668 -5.25271 4.30427 0
M  V30 852 H 67.0128 -6.1612 2.25238 0
M  V30 853 H 66.9298 -6.43922 3.96106 0
M  V30 854 H 68.1978 -7.18124 3.03179 0
M  V30 855 N 72.4269 -1.23603 -0.977757 0
M  V30 856 C 73.6669 -1.08148 -1.73446 0
M  V30 857 C 74.0309 0.374785 -1.88307 0
M  V30 858 O 75.2319 0.650588 -2.60808 0
M  V30 859 C 73.5029 -1.78991 -3.0935 0
M  V30 860 S 75.0619 -1.79141 -4.00567 0
M  V30 861 H 71.8799 -0.386987 -0.596458 0
M  V30 862 H 74.4819 -1.5678 -1.16792 0
M  V30 863 H 73.1859 -2.8408 -2.96187 0
M  V30 864 H 72.7169 -1.30651 -3.71071 0
M  V30 865 H 74.7319 -0.851892 -4.88833 0
M  V30 866 N 73.905 1.17692 -1.04816 0
M  V30 867 C 74.815 2.25229 -0.65643 0
M  V30 868 C 75.831 1.71018 0.320761 0
M  V30 869 O 77.007 2.00649 0.173805 0
M  V30 870 C 74.072 3.46684 -0.0332629 0
M  V30 871 C 73.133 4.15997 -1.06042 0
M  V30 872 C 72.366 5.31654 -0.466893 0
M  V30 873 O 72.589 5.65777 0.724758 0
M  V30 874 O 71.523 5.89831 -1.1993 0
M  V30 875 H 75.349 2.61016 -1.55255 0
M  V30 876 H 72.934 1.24919 -0.81949 0
M  V30 877 H 74.816 4.20234 0.313256 0
M  V30 878 H 73.491 3.12703 0.836566 0
M  V30 879 H 72.398 3.44482 -1.45886 0
M  V30 880 H 73.731 4.53996 -1.90127 0
M  V30 881 N 75.3831 0.828654 1.34056 0
M  V30 882 C 76.2931 0.256725 2.33191 0
M  V30 883 C 77.3091 -0.611898 1.62886 0
M  V30 884 O 78.4851 -0.51844 1.94613 0
M  V30 885 C 75.5501 -0.567238 3.42028 0
M  V30 886 C 74.6111 0.324458 4.28072 0
M  V30 887 C 73.8441 -0.460274 5.31712 0
M  V30 888 O 74.0671 -1.693 5.44696 0
M  V30 889 O 73.0011 0.160391 6.01686 0
M  V30 890 H 76.8271 1.07739 2.83947 0
M  V30 891 H 74.4121 0.59093 1.37217 0
M  V30 892 H 76.2941 -1.03582 4.08471 0
M  V30 893 H 74.9691 -1.36513 2.93506 0
M  V30 894 H 73.8761 0.840659 3.64532 0
M  V30 895 H 75.2091 1.08685 4.8005 0
M  V30 896 N 76.8612 -1.46375 0.584142 0
M  V30 897 C 78.1072 -2.02678 0.0703716 0
M  V30 898 C 78.4402 -1.4545 -1.28678 0
M  V30 899 O 77.7152 -0.62014 -1.84349 0
M  V30 900 C 77.9982 -3.60099 0.00614674 0
M  V30 901 C 77.8512 -4.27709 1.3923 0
M  V30 902 C 79.1702 -4.34598 -0.693742 0
M  V30 903 H 76.2892 -0.736504 0.027047 0
M  V30 904 H 78.9312 -1.74501 0.751615 0
M  V30 905 H 77.0812 -3.84236 -0.574009 0
M  V30 906 H 78.7532 -4.14832 2.01773 0
M  V30 907 H 76.9962 -3.87016 1.95962 0
M  V30 908 H 77.6672 -5.36478 1.29982 0
M  V30 909 H 80.1432 -4.15615 -0.200869 0
M  V30 910 H 79.0192 -5.44318 -0.707714 0
M  V30 911 H 79.2802 -4.05759 -1.75533 0
M  V30 912 N 78.3393 -0.321999 -1.54275 0
M  V30 913 C 79.2493 0.553631 -2.27974 0
M  V30 914 C 80.2653 1.13054 -1.32268 0
M  V30 915 O 81.4413 1.15084 -1.6528 0
M  V30 916 C 78.5063 1.69927 -3.02201 0
M  V30 917 C 77.5673 1.15433 -4.1349 0
M  V30 918 C 76.8003 2.24537 -4.84168 0
M  V30 919 O 77.0233 3.44852 -4.5435 0
M  V30 920 O 75.9573 1.90044 -5.7111 0
M  V30 921 H 79.7833 -0.0448345 -3.03667 0
M  V30 922 H 77.3683 -0.0877418 -1.49142 0
M  V30 923 H 79.2503 2.3663 -3.48689 0
M  V30 924 H 77.9253 2.28395 -2.29385 0
M  V30 925 H 76.8323 0.452436 -3.71354 0
M  V30 926 H 78.1653 0.614805 -4.88345 0
M  V30 927 N 79.8174 1.5752 -0.0501392 0
M  V30 928 C 81.0634 1.92936 0.624798 0
M  V30 929 C 81.3964 0.928685 1.70555 0
M  V30 930 O 80.6714 -0.0454779 1.94447 0
M  V30 931 C 80.9544 3.38737 1.22185 0
M  V30 932 C 80.8074 4.49552 0.149218 0
M  V30 933 C 82.1264 3.84913 2.13378 0
M  V30 934 H 79.2454 0.701604 0.225657 0
M  V30 935 H 81.8874 1.89671 -0.111693 0
M  V30 936 H 80.0374 3.4165 1.84953 0
M  V30 937 H 81.7094 4.58768 -0.482648 0
M  V30 938 H 79.9524 4.30638 -0.522841 0
M  V30 939 H 80.6234 5.48653 0.606966 0
M  V30 940 H 83.0994 3.8387 1.60572 0
M  V30 941 H 81.9754 4.87584 2.52097 0
M  V30 942 H 82.2364 3.21611 3.03346 0
M  V30 943 N 81.2955 -0.223234 1.56011 0
M  V30 944 C 82.2055 -1.29766 1.95443 0
M  V30 945 C 83.2215 -1.51373 0.858028 0
M  V30 946 O 84.3975 -1.64536 1.16146 0
M  V30 947 C 81.4625 -2.62772 2.26167 0
M  V30 948 C 80.5235 -2.49482 3.49367 0
M  V30 949 C 79.7565 -3.76145 3.78616 0
M  V30 950 O 79.9795 -4.79087 3.09568 0
M  V30 951 O 78.9135 -3.73358 4.72109 0
M  V30 952 H 82.7395 -0.99309 2.87004 0
M  V30 953 H 80.3245 -0.425958 1.43199 0
M  V30 954 H 82.2065 -3.41327 2.47131 0
M  V30 955 H 80.8815 -2.92913 1.37781 0
M  V30 956 H 79.7885 -1.69133 3.33684 0
M  V30 957 H 81.1215 -2.2428 4.38131 0
M  V30 958 N 82.7736 -1.49793 -0.48987 0
M  V30 959 C 84.0016 -1.63568 -1.26701 0
M  V30 960 C 84.4166 -0.311465 -1.86213 0
M  V30 961 O 83.7736 0.704416 -1.68357 0
M  V30 962 C 83.8246 -2.71284 -2.38929 0
M  V30 963 O 83.5456 -3.9857 -1.81861 0
M  V30 964 C 85.0466 -2.95864 -3.3012 0
M  V30 965 H 82.2666 -0.550342 -0.383881 0
M  V30 966 H 84.8106 -1.95898 -0.586864 0
M  V30 967 H 82.9656 -2.417 -3.02753 0
M  V30 968 H 83.3796 -4.57993 -2.55622 0
M  V30 969 H 84.8536 -3.74941 -4.05121 0
M  V30 970 H 85.3306 -2.06206 -3.87783 0
M  V30 971 H 85.9366 -3.26907 -2.72051 0
M  V30 972 N 84.2517 0.741722 -1.39055 0
M  V30 973 C 85.6627 1.31966 -1.32068 0
M  V30 974 C 86.0137 1.96192 0.0180797 0
M  V30 975 O 85.1387 1.95861 0.920196 0
M  V30 976 C 85.7337 2.39954 -2.39181 0
M  V30 977 C 84.2927 2.93438 -2.35735 0
M  V30 978 C 83.4397 1.66936 -2.21422 0
M  V30 979 H 86.3907 0.539721 -1.4924 0
M  V30 980 H 86.4117 3.20182 -2.05581 0
M  V30 981 H 85.9237 1.9318 -3.36605 0
M  V30 982 H 84.0247 3.4451 -1.41929 0
M  V30 983 H 84.1377 3.4701 -3.30335 0
M  V30 984 H 82.5017 1.91016 -1.68478 0
M  V30 985 H 83.2847 1.22224 -3.20806 0
M  V30 986 N 85.7298 1.2412 0.971189 0
M  V30 987 C 86.9788 1.07284 1.70801 0
M  V30 988 C 87.2918 -0.388902 1.91695 0
M  V30 989 O 88.4978 -0.677379 2.62914 0
M  V30 990 C 86.9538 1.87145 3.07416 0
M  V30 991 C 86.5618 3.37707 2.94377 0
M  V30 992 C 88.3058 1.78828 3.84995 0
M  V30 993 C 86.2128 4.09925 4.26281 0
M  V30 994 H 85.1428 0.397854 0.64049 0
M  V30 995 H 87.7938 1.4817 1.0825 0
M  V30 996 H 86.1758 1.39071 3.70777 0
M  V30 997 H 87.3498 3.93335 2.4005 0
M  V30 998 H 85.6648 3.46938 2.30267 0
M  V30 999 H 88.2618 2.30089 4.82662 0
M  V30 1000 H 88.6048 0.75284 4.09436 0
M  V30 1001 H 89.1378 2.24563 3.28354 0
M  V30 1002 H 85.8768 5.13813 4.07033 0
M  V30 1003 H 85.3968 3.59083 4.80437 0
M  V30 1004 H 87.0758 4.1673 4.94919 0
M  V30 1005 N 87.2079 -1.17134 1.05439 0
M  V30 1006 C 88.4359 -1.91372 0.786414 0
M  V30 1007 C 88.8509 -1.76955 -0.658202 0
M  V30 1008 O 88.2079 -1.10838 -1.44987 0
M  V30 1009 C 88.2589 -3.42356 1.1608 0
M  V30 1010 O 87.9799 -3.56332 2.54871 0
M  V30 1011 C 89.4809 -4.33663 0.919322 0
M  V30 1012 H 86.7009 -0.607118 0.285743 0
M  V30 1013 H 89.2449 -1.48525 1.40572 0
M  V30 1014 H 87.3999 -3.82939 0.586191 0
M  V30 1015 H 87.8139 -4.49896 2.69618 0
M  V30 1016 H 89.2879 -5.38099 1.231 0
M  V30 1017 H 89.7649 -4.38959 -0.145359 0
M  V30 1018 H 90.3709 -3.98796 1.47789 0
M  V30 1019 N 88.686 -0.835752 -1.33615 0
M  V30 1020 C 89.633 -0.26473 -2.29277 0
M  V30 1021 C 90.603 0.617712 -1.54187 0
M  V30 1022 O 91.788 0.556641 -1.825 0
M  V30 1023 C 88.928 0.556777 -3.40579 0
M  V30 1024 C 88.041 -0.349339 -4.30585 0
M  V30 1025 C 87.176 0.482969 -5.29 0
M  V30 1026 C 86.215 -0.421732 -6.10645 0
M  V30 1027 N 85.352 0.372262 -7.01112 0
M  V30 1028 H 90.192 -1.08582 -2.77514 0
M  V30 1029 H 87.729 -0.546927 -1.36554 0
M  V30 1030 H 89.687 1.04852 -4.03809 0
M  V30 1031 H 88.317 1.34286 -2.93542 0
M  V30 1032 H 87.369 -0.959372 -3.68104 0
M  V30 1033 H 88.681 -1.04445 -4.87742 0
M  V30 1034 H 87.835 1.03866 -5.97743 0
M  V30 1035 H 86.574 1.21153 -4.72412 0
M  V30 1036 H 85.579 -0.989464 -5.40823 0
M  V30 1037 H 86.804 -1.14861 -6.69316 0
M  V30 1038 H 84.75 1.08426 -6.46977 0
M  V30 1039 H 84.667 -0.264198 -7.55538 0
M  V30 1040 H 85.935 0.910293 -7.74167 0
M  V30 1041 N 90.1641 1.46063 -0.591896 0
M  V30 1042 C 91.3921 2.06717 -0.0868936 0
M  V30 1043 C 91.8071 1.43916 1.22203 0
M  V30 1044 O 91.1641 0.547698 1.74088 0
M  V30 1045 C 91.2151 3.6142 0.0758725 0
M  V30 1046 O 90.9361 4.21874 -1.18126 0
M  V30 1047 C 92.4371 4.39025 0.61416 0
M  V30 1048 H 89.6571 0.668162 -0.0616518 0
M  V30 1049 H 92.2011 1.8755 -0.815175 0
M  V30 1050 H 90.3561 3.79983 0.754413 0
M  V30 1051 H 90.7701 5.14861 -1.00092 0
M  V30 1052 H 92.2441 5.4783 0.677193 0
M  V30 1053 H 92.7211 4.07708 1.63312 0
M  V30 1054 H 93.3271 4.2529 -0.0298142 0
M  V30 1055 N 91.6422 0.330177 1.54103 0
M  V30 1056 C 92.8912 -0.271336 1.99867 0
M  V30 1057 C 93.2042 -1.52723 1.22209 0
M  V30 1058 O 94.4102 -2.20515 1.58383 0
M  V30 1059 C 92.8662 -0.534032 3.55916 0
M  V30 1060 C 92.4742 0.705193 4.42415 0
M  V30 1061 C 94.2182 -1.09514 4.1013 0
M  V30 1062 C 92.1252 0.414035 5.89949 0
M  V30 1063 H 91.0552 -0.105166 0.74663 0
M  V30 1064 H 93.7062 0.443429 1.78062 0
M  V30 1065 H 92.0882 -1.30915 3.73734 0
M  V30 1066 H 93.2622 1.4804 4.36372 0
M  V30 1067 H 91.5772 1.18698 3.99124 0
M  V30 1068 H 94.1742 -1.3277 5.17954 0
M  V30 1069 H 94.5172 -2.04656 3.62521 0
M  V30 1070 H 95.0502 -0.381038 3.95971 0
M  V30 1071 H 91.7892 1.33481 6.41766 0
M  V30 1072 H 91.3092 -0.323336 5.98928 0
M  V30 1073 H 92.9882 0.0263105 6.46995 0
M  V30 1074 N 93.1203 -1.57491 0.0584922 0
M  V30 1075 C 94.3683 -1.92597 -0.612436 0
M  V30 1076 C 94.6893 -0.938162 -1.70949 0
M  V30 1077 O 93.9593 0.0158301 -1.95894 0
M  V30 1078 H 92.5393 -0.710964 -0.229214 0
M  V30 1079 H 95.2013 -1.94571 0.113218 0
M  V30 1080 H 94.2973 -2.94038 -1.04633 0
M  V30 1081 N 94.5984 0.214957 -1.56127 0
M  V30 1082 C 95.8284 0.953707 -1.8327 0
M  V30 1083 C 96.2364 1.78181 -0.636262 0
M  V30 1084 O 95.5794 1.79191 0.404516 0
M  V30 1085 C 95.6414 1.91516 -3.0424 0
M  V30 1086 C 95.3054 1.27094 -4.38972 0
M  V30 1087 C 96.3024 0.657575 -5.15725 0
M  V30 1088 C 93.9874 1.28073 -4.85698 0
M  V30 1089 C 95.9814 0.0625968 -6.37369 0
M  V30 1090 C 93.6684 0.681914 -6.07283 0
M  V30 1091 C 94.6664 0.0739046 -6.8296 0
M  V30 1092 O 94.3544 -0.515582 -8.02245 0
M  V30 1093 H 94.0864 0.284764 -0.613095 0
M  V30 1094 H 96.6404 0.233283 -2.04071 0
M  V30 1095 H 94.8704 2.67475 -2.79274 0
M  V30 1096 H 96.5594 2.52001 -3.18198 0
M  V30 1097 H 97.3254 0.642288 -4.80728 0
M  V30 1098 H 93.2044 1.74337 -4.26764 0
M  V30 1099 H 96.7484 -0.412593 -6.96379 0
M  V30 1100 H 92.6454 0.694636 -6.41752 0
M  V30 1101 H 93.4134 -0.410544 -8.1747 0
M  V30 1102 N 96.0765 1.50051 0.48192 0
M  V30 1103 C 97.4925 1.37237 0.814756 0
M  V30 1104 C 97.6925 0.420109 1.97072 0
M  V30 1105 O 96.7485 -0.141246 2.52105 0
M  V30 1106 C 98.0615 2.78375 1.13701 0
M  V30 1107 C 99.6095 2.87213 1.2441 0
M  V30 1108 C 100.084 4.29161 1.59954 0
M  V30 1109 N 101.575 4.32061 1.66967 0
M  V30 1110 C 102.31 5.38879 1.95952 0
M  V30 1111 N 101.806 6.55918 2.23031 0
M  V30 1112 N 103.599 5.26312 1.97363 0
M  V30 1113 H 95.7505 2.10546 -0.28005 0
M  V30 1114 H 98.0135 0.945921 -0.0627454 0
M  V30 1115 H 97.7195 3.49845 0.360787 0
M  V30 1116 H 97.5935 3.14941 2.07586 0
M  V30 1117 H 99.9805 2.15969 2.01101 0
M  V30 1118 H 100.061 2.54204 0.285299 0
M  V30 1119 H 99.7055 5.00938 0.838067 0
M  V30 1120 H 99.6355 4.59648 2.56966 0
M  V30 1121 H 102.126 3.47661 1.48123 0
M  V30 1122 H 102.439 7.33139 2.44391 0
M  V30 1123 H 100.784 6.59112 2.20447 0
M  V30 1124 H 103.975 4.33876 1.75697 0
M  V30 1125 H 104.148 6.09649 2.19618 0
M  V30 1126 N 97.5546 -0.734337 1.39446 0
M  V30 1127 C 98.8036 -1.48937 1.36017 0
M  V30 1128 C 99.1166 -1.95557 -0.0409005 0
M  V30 1129 O 100.323 -2.70779 -0.19778 0
M  V30 1130 C 98.7786 -2.69125 2.38955 0
M  V30 1131 C 98.3866 -2.29452 3.8478 0
M  V30 1132 C 100.131 -3.46944 2.44603 0
M  V30 1133 C 98.0376 -3.46366 4.79358 0
M  V30 1134 H 96.9676 -0.559296 0.505672 0
M  V30 1135 H 99.6186 -0.800983 1.65095 0
M  V30 1136 H 98.0006 -3.40041 2.02948 0
M  V30 1137 H 99.1746 -1.66077 4.29831 0
M  V30 1138 H 97.4896 -1.64723 3.82433 0
M  V30 1139 H 100.087 -4.33907 3.12456 0
M  V30 1140 H 100.43 -3.89454 1.47076 0
M  V30 1141 H 100.963 -2.83056 2.79507 0
M  V30 1142 H 97.7016 -3.08905 5.78151 0
M  V30 1143 H 97.2216 -4.08719 4.38986 0
M  V30 1144 H 98.9006 -4.12691 4.98292 0
M  V30 1145 N 99.0327 -1.24633 -0.964593 0
M  V30 1146 C 99.9807 -1.03917 -2.08096 0
M  V30 1147 C 100.975 0.0268581 -1.69379 0
M  V30 1148 O 102.181 -0.127952 -1.79545 0
M  V30 1149 H 98.5557 -0.319044 -0.680966 0
M  V30 1150 H 100.527 -1.98581 -2.22729 0
M  V30 1151 C 99.2757 -0.663983 -3.41301 0
M  V30 1152 H 98.5987 -1.47605 -3.71555 0
M  V30 1153 H 100.039 -0.558663 -4.20303 0
M  V30 1154 C 98.4977 0.629169 -3.30973 0
M  V30 1155 O 99.0277 1.67404 -3.65156 0
M  V30 1156 N 97.2337 0.611057 -2.84103 0
M  V30 1157 H 96.7807 -0.239593 -2.56483 0
M  V30 1158 H 96.7387 1.47647 -2.77575 0
M  V30 1159 N 100.511 1.16574 -1.06058 0
M  V30 1160 C 101.788 1.83048 -0.689416 0
M  V30 1161 C 102.168 1.94122 0.829443 0
M  V30 1162 O 101.516 1.48249 1.7388 0
M  V30 1163 C 101.726 3.20186 -1.38859 0
M  V30 1164 C 103.074 3.95989 -1.53226 0
M  V30 1165 O 104.098 3.29696 -1.3483 0
M  V30 1166 O 102.957 5.14813 -1.83384 0
M  V30 1167 H 100.051 0.790258 -0.243764 0
M  V30 1168 H 102.597 1.23797 -1.16071 0
M  V30 1169 H 101.369 3.07146 -2.4244 0
M  V30 1170 H 100.992 3.87112 -0.907216 0
M  V30 1171 N 101.989 0.842826 1.3317 0
M  V30 1172 C 102.936 0.276885 2.29133 0
M  V30 1173 C 103.906 -0.609527 1.54512 0
M  V30 1174 O 105.091 -0.546955 1.82792 0
M  V30 1175 C 102.231 -0.538707 3.40869 0
M  V30 1176 C 101.344 0.372169 4.30394 0
M  V30 1177 C 100.479 -0.454908 5.29249 0
M  V30 1178 C 99.5179 0.45411 6.10413 0
M  V30 1179 N 98.6549 -0.335075 7.013 0
M  V30 1180 H 103.495 1.10052 2.76934 0
M  V30 1181 H 101.032 0.554161 1.36262 0
M  V30 1182 H 102.99 -1.02709 4.0436 0
M  V30 1183 H 101.62 -1.32727 2.9425 0
M  V30 1184 H 100.672 0.97888 3.6759 0
M  V30 1185 H 101.984 1.0703 4.87182 0
M  V30 1186 H 101.138 -1.00695 5.98285 0
M  V30 1187 H 99.8769 -1.18646 4.73048 0
M  V30 1188 H 98.8819 1.01813 5.40291 0
M  V30 1189 H 100.107 1.18409 6.68697 0
M  V30 1190 H 98.0529 -1.04994 6.47543 0
M  V30 1191 H 97.9699 0.304262 7.55387 0
M  V30 1192 H 99.2379 -0.869224 7.74638 0
M  V30 1193 N 103.467 -1.45747 0.599634 0
M  V30 1194 C 104.744 -1.95585 0.0240846 0
M  V30 1195 C 105.124 -1.54217 -1.44154 0
M  V30 1196 O 104.472 -0.800903 -2.14004 0
M  V30 1197 C 104.682 -3.48344 0.21385 0
M  V30 1198 C 106.03 -4.24504 0.0904902 0
M  V30 1199 O 107.054 -3.55911 0.143558 0
M  V30 1200 O 105.913 -5.46491 -0.0310766 0
M  V30 1201 H 103.007 -0.82602 -0.0402478 0
M  V30 1202 H 105.553 -1.55951 0.669139 0
M  V30 1203 H 104.325 -3.71397 1.23206 0
M  V30 1204 H 103.948 -3.9485 -0.466842 0
M  V30 1205 N 104.945 -0.338344 -1.53925 0
M  V30 1206 C 106.194 0.260732 -2.00008 0
M  V30 1207 C 106.507 1.52073 -1.23017 0
M  V30 1208 O 107.713 2.19672 -1.5955 0
M  V30 1209 C 106.169 0.51515 -3.56194 0
M  V30 1210 C 105.777 -0.728645 -4.42035 0
M  V30 1211 C 107.521 1.07337 -4.10706 0
M  V30 1212 C 105.428 -0.445315 -5.89721 0
M  V30 1213 H 104.358 0.101205 -0.747177 0
M  V30 1214 H 107.009 -0.452866 -1.77824 0
M  V30 1215 H 105.391 1.28932 -3.74423 0
M  V30 1216 H 106.565 -1.50352 -4.35581 0
M  V30 1217 H 104.88 -1.20813 -3.98489 0
M  V30 1218 H 107.477 1.30022 -5.18651 0
M  V30 1219 H 107.82 2.0273 -3.63602 0
M  V30 1220 H 108.353 0.360034 -3.96167 0
M  V30 1221 H 105.092 -1.36883 -6.41049 0
M  V30 1222 H 104.612 0.291569 -5.99091 0
M  V30 1223 H 106.291 -0.0606218 -6.46972 0
M  V30 1224 N 106.423 1.57458 -0.0668435 0
M  V30 1225 C 107.669 1.93587 0.6043 0
M  V30 1226 C 108.002 0.946722 1.69561 0
M  V30 1227 O 107.277 -0.0248516 1.94484 0
M  V30 1228 C 107.56 3.40014 1.18585 0
M  V30 1229 C 107.413 4.49685 0.101529 0
M  V30 1230 C 108.732 3.87154 2.09284 0
M  V30 1231 H 105.851 0.703958 0.218202 0
M  V30 1232 H 108.493 1.89542 -0.131804 0
M  V30 1233 H 106.643 3.43592 1.81319 0
M  V30 1234 H 108.315 4.5823 -0.531279 0
M  V30 1235 H 106.558 4.30059 -0.568487 0
M  V30 1236 H 107.229 5.49266 0.54874 0
M  V30 1237 H 109.705 3.85551 1.56491 0
M  V30 1238 H 108.581 4.90231 2.46911 0
M  V30 1239 H 108.842 3.2481 2.99918 0
M  V30 1240 N 107.901 -0.206675 1.56239 0
M  V30 1241 C 109.147 -0.930218 1.80208 0
M  V30 1242 C 109.48 -1.83387 0.638981 0
M  V30 1243 O 108.755 -1.91119 -0.361066 0
M  V30 1244 C 109.038 -1.75641 3.1436 0
M  V30 1245 C 108.891 -0.878257 4.41142 0
M  V30 1246 C 110.21 -2.73129 3.45092 0
M  V30 1247 H 107.329 -0.336742 0.655571 0
M  V30 1248 H 109.971 -0.198222 1.88963 0
M  V30 1249 H 108.121 -2.38048 3.07027 0
M  V30 1250 H 109.793 -0.269787 4.6051 0
M  V30 1251 H 108.036 -0.184385 4.33408 0
M  V30 1252 H 108.707 -1.49106 5.3148 0
M  V30 1253 H 111.183 -2.20856 3.52649 0
M  V30 1254 H 110.059 -3.28028 4.40101 0
M  V30 1255 H 110.32 -3.51606 2.68003 0
M  V30 1256 N 109.379 -1.50304 -0.473955 0
M  V30 1257 C 110.625 -1.61389 -1.22806 0
M  V30 1258 C 110.958 -0.311955 -1.91678 0
M  V30 1259 O 110.233 0.686384 -1.81986 0
M  V30 1260 C 110.516 -2.79219 -2.27396 0
M  V30 1261 C 110.369 -4.19286 -1.62848 0
M  V30 1262 C 111.688 -2.92614 -3.28732 0
M  V30 1263 H 108.807 -0.587399 -0.445119 0
M  V30 1264 H 111.449 -1.82681 -0.522265 0
M  V30 1265 H 109.599 -2.61195 -2.87592 0
M  V30 1266 H 111.271 -4.48892 -1.06271 0
M  V30 1267 H 109.514 -4.23677 -0.931693 0
M  V30 1268 H 110.185 -4.97655 -2.38838 0
M  V30 1269 H 112.661 -3.09105 -2.78556 0
M  V30 1270 H 111.537 -3.76688 -3.99246 0
M  V30 1271 H 111.798 -2.03107 -3.92683 0
M  V30 1272 N 110.857 0.726932 -1.39834 0
M  V30 1273 C 112.268 1.30558 -1.3346 0
M  V30 1274 C 112.619 1.962 -0.00273003 0
M  V30 1275 O 111.744 1.96826 0.899371 0
M  V30 1276 C 112.339 2.37404 -2.41713 0
M  V30 1277 C 110.898 2.90921 -2.38835 0
M  V30 1278 C 110.045 1.64578 -2.2318 0
M  V30 1279 H 112.996 0.523862 -1.49804 0
M  V30 1280 H 113.017 3.17984 -2.08966 0
M  V30 1281 H 112.529 1.89599 -3.38635 0
M  V30 1282 H 110.63 3.42985 -1.45575 0
M  V30 1283 H 110.743 3.43487 -3.33997 0
M  V30 1284 H 109.107 1.89219 -1.70494 0
M  V30 1285 H 109.89 1.18814 -3.22084 0
M  V30 1286 N 112.336 1.25143 0.95797 0
M  V30 1287 C 113.585 1.0909 1.69654 0
M  V30 1288 C 113.898 -0.368548 1.92097 0
M  V30 1289 O 115.104 -0.649455 2.63618 0
M  V30 1290 C 113.56 1.90395 3.05414 0
M  V30 1291 C 113.168 3.4081 2.90779 0
M  V30 1292 C 114.912 1.82901 3.83076 0
M  V30 1293 C 112.819 4.14423 4.21909 0
M  V30 1294 H 111.749 0.404625 0.636235 0
M  V30 1295 H 114.4 1.4931 1.06672 0
M  V30 1296 H 112.782 1.42996 3.69281 0
M  V30 1297 H 113.956 3.95859 2.35865 0
M  V30 1298 H 112.271 3.49361 2.26575 0
M  V30 1299 H 114.868 2.35196 4.80195 0
M  V30 1300 H 115.211 0.796224 4.08615 0
M  V30 1301 H 115.744 2.28033 3.25954 0
M  V30 1302 H 112.483 5.18102 4.01561 0
M  V30 1303 H 112.003 3.64159 4.76601 0
M  V30 1304 H 113.682 4.21956 4.90471 0
M  V30 1305 N 113.814 -1.1601 1.06675 0
M  V30 1306 C 114.744 -2.22688 0.702307 0
M  V30 1307 C 115.725 -1.67306 -0.307032 0
M  V30 1308 O 116.91 -1.93352 -0.181305 0
M  V30 1309 C 114.04 -3.47178 0.092038 0
M  V30 1310 C 112.994 -4.15477 1.02777 0
M  V30 1311 C 112.32 -5.33963 0.28061 0
M  V30 1312 C 113.62 -4.66019 2.35846 0
M  V30 1313 H 115.314 -2.53429 1.59419 0
M  V30 1314 H 112.86 -1.21813 0.767961 0
M  V30 1315 H 114.813 -4.21037 -0.174814 0
M  V30 1316 H 113.537 -3.15749 -0.834877 0
M  V30 1317 H 112.196 -3.43549 1.27944 0
M  V30 1318 H 111.844 -4.98788 -0.649545 0
M  V30 1319 H 111.544 -5.806 0.904258 0
M  V30 1320 H 113.068 -6.10596 0.021396 0
M  V30 1321 H 114.482 -5.3144 2.15045 0
M  V30 1322 H 112.879 -5.23293 2.93743 0
M  V30 1323 H 113.949 -3.82023 2.98641 0
M  V30 1324 N 115.292 -0.849877 -1.32721 0
M  V30 1325 C 116.708 -0.539102 -1.50219 0
M  V30 1326 C 116.908 0.931271 -1.78689 0
M  V30 1327 O 115.964 1.71455 -1.85363 0
M  V30 1328 C 117.277 -1.42196 -2.64954 0
M  V30 1329 C 118.825 -1.42189 -2.78839 0
M  V30 1330 C 119.3 -2.28985 -3.96648 0
M  V30 1331 N 120.791 -2.26754 -4.03902 0
M  V30 1332 C 121.526 -2.90644 -4.94281 0
M  V30 1333 N 121.022 -3.63629 -5.897 0
M  V30 1334 N 122.815 -2.80057 -4.87365 0
M  V30 1335 H 114.966 -1.80156 -1.12506 0
M  V30 1336 H 117.229 -0.769217 -0.554085 0
M  V30 1337 H 116.935 -2.46733 -2.50631 0
M  V30 1338 H 116.809 -1.10591 -3.60624 0
M  V30 1339 H 119.196 -0.38419 -2.92588 0
M  V30 1340 H 119.277 -1.77807 -1.83898 0
M  V30 1341 H 118.921 -3.32819 -3.83658 0
M  V30 1342 H 118.851 -1.90702 -4.90857 0
M  V30 1343 H 121.342 -1.73688 -3.3562 0
M  V30 1344 H 121.655 -4.09558 -6.55349 0
M  V30 1345 H 120 -3.67737 -5.89741 0
M  V30 1346 H 123.191 -2.22593 -4.11789 0
M  V30 1347 H 123.364 -3.30132 -5.57599 0
M  V30 1348 N 116.77 1.45427 -0.607355 0
M  V30 1349 C 117.733 2.28974 0.101693 0
M  V30 1350 C 118.733 1.39754 0.795329 0
M  V30 1351 O 119.923 1.61878 0.643527 0
M  V30 1352 C 117.055 3.20768 1.15414 0
M  V30 1353 H 118.248 2.93147 -0.632844 0
M  V30 1354 H 115.801 1.51945 -0.366391 0
M  V30 1355 H 116.536 2.61395 1.91945 0
M  V30 1356 H 116.321 3.86489 0.66098 0
M  V30 1357 H 117.811 3.83589 1.65073 0
M  V30 1358 N 118.248 0.346503 1.53744 0
M  V30 1359 C 119.496 -0.248612 2.00565 0
M  V30 1360 C 119.817 -1.5083 1.23593 0
M  V30 1361 O 119.087 -1.92858 0.343912 0
M  V30 1362 H 117.667 -0.0948564 0.740953 0
M  V30 1363 H 120.329 0.468341 1.89189 0
M  V30 1364 H 119.425 -0.488994 3.08245 0
M  V30 1365 N 119.726 -1.57421 0.075193 0
M  V30 1366 C 120.656 -2.15942 -0.888324 0
M  V30 1367 C 121.637 -1.08737 -1.30806 0
M  V30 1368 O 122.822 -1.36787 -1.37851 0
M  V30 1369 C 119.952 -2.72379 -2.1547 0
M  V30 1370 C 118.906 -3.8478 -1.87425 0
M  V30 1371 C 118.232 -4.27834 -3.20721 0
M  V30 1372 C 119.532 -5.08869 -1.17684 0
M  V30 1373 H 121.226 -2.96705 -0.400799 0
M  V30 1374 H 118.772 -1.42723 -0.191342 0
M  V30 1375 H 120.725 -3.11965 -2.83295 0
M  V30 1376 H 119.449 -1.88841 -2.6647 0
M  V30 1377 H 118.108 -3.45703 -1.22004 0
M  V30 1378 H 117.756 -3.41214 -3.6957 0
M  V30 1379 H 117.456 -5.03605 -3.02746 0
M  V30 1380 H 118.98 -4.70039 -3.89738 0
M  V30 1381 H 120.394 -5.4575 -1.75584 0
M  V30 1382 H 118.791 -5.8994 -1.09956 0
M  V30 1383 H 119.861 -4.84648 -0.156453 0
M  V30 1384 N 121.204 0.198386 -1.56346 0
M  V30 1385 C 122.45 0.920648 -1.80698 0
M  V30 1386 C 122.783 1.83045 -0.648697 0
M  V30 1387 O 122.058 1.91308 0.350925 0
M  V30 1388 C 122.341 1.73971 -3.15287 0
M  V30 1389 C 122.194 0.85485 -4.41602 0
M  V30 1390 C 123.513 2.71296 -3.46535 0
M  V30 1391 H 120.632 0.333261 -0.657348 0
M  V30 1392 H 123.274 0.188198 -1.89066 0
M  V30 1393 H 121.424 2.36416 -3.08285 0
M  V30 1394 H 123.096 0.245362 -4.60647 0
M  V30 1395 H 121.339 0.161398 -4.335 0
M  V30 1396 H 122.01 1.46286 -5.32264 0
M  V30 1397 H 124.486 2.18983 -3.53816 0
M  V30 1398 H 123.362 3.2569 -4.41834 0
M  V30 1399 H 123.623 3.5018 -2.69864 0
M  V30 1400 N 122.682 1.50554 0.465978 0
M  V30 1401 C 123.615 1.64436 1.58227 0
M  V30 1402 C 124.593 0.492367 1.54966 0
M  V30 1403 O 125.777 0.712536 1.74514 0
M  V30 1404 C 122.904 1.63165 2.96808 0
M  V30 1405 C 121.95 2.83987 3.18204 0
M  V30 1406 S 122.783 4.45219 2.97557 0
M  V30 1407 C 123.939 4.46649 4.3847 0
M  V30 1408 H 124.172 2.58861 1.46213 0
M  V30 1409 H 121.705 1.3988 0.653678 0
M  V30 1410 H 123.663 1.63116 3.76701 0
M  V30 1411 H 122.324 0.69967 3.06208 0
M  V30 1412 H 121.517 2.79416 4.19455 0
M  V30 1413 H 121.119 2.81629 2.46092 0
M  V30 1414 H 123.411 4.20526 5.31191 0
M  V30 1415 H 124.354 5.48295 4.48082 0
M  V30 1416 H 124.762 3.76296 4.20787 0
M  V30 1417 N 124.16 -0.719506 1.40217 0
M  V30 1418 C 125.123 -1.8153 1.39927 0
M  V30 1419 C 126.123 -1.58095 0.293723 0
M  V30 1420 O 127.313 -1.65209 0.552429 0
M  V30 1421 C 124.445 -3.19561 1.18716 0
M  V30 1422 H 125.638 -1.83186 2.37451 0
M  V30 1423 H 123.191 -0.924746 1.26008 0
M  V30 1424 H 123.926 -3.23557 0.219366 0
M  V30 1425 H 123.711 -3.3797 1.98793 0
M  V30 1426 H 125.201 -3.99598 1.21291 0
M  V30 1427 N 125.638 -1.25649 -0.95132 0
M  V30 1428 C 126.915 -1.01361 -1.67288 0
M  V30 1429 C 127.295 0.459135 -2.06046 0
M  V30 1430 O 126.643 1.43723 -1.7764 0
M  V30 1431 C 126.853 -1.95256 -2.89268 0
M  V30 1432 C 128.201 -2.23289 -3.61147 0
M  V30 1433 O 129.225 -1.93041 -2.99355 0
M  V30 1434 O 128.084 -2.74741 -4.72419 0
M  V30 1435 H 125.178 -0.38464 -0.732107 0
M  V30 1436 H 127.724 -1.36817 -1.00395 0
M  V30 1437 H 126.496 -2.94685 -2.57442 0
M  V30 1438 H 126.119 -1.60218 -3.6389 0
M  V30 1439 N 127.117 1.15442 -1.07289 0
M  V30 1440 C 128.365 1.85845 -0.794096 0
M  V30 1441 C 128.686 1.82692 0.681809 0
M  V30 1442 O 127.956 1.26741 1.49377 0
M  V30 1443 H 126.536 0.688089 -0.290763 0
M  V30 1444 H 129.198 1.39947 -1.3565 0
M  V30 1445 H 128.294 2.91001 -1.12804 0
M  V30 1446 N 128.595 0.856903 1.32268 0
M  V30 1447 C 129.844 0.457599 1.96441 0
M  V30 1448 C 130.157 -0.992426 1.68553 0
M  V30 1449 O 131.363 -1.49727 2.26482 0
M  V30 1450 C 129.819 0.767358 3.51624 0
M  V30 1451 C 129.427 2.23326 3.88367 0
M  V30 1452 C 131.171 0.435887 4.22256 0
M  V30 1453 C 129.078 2.48613 5.36606 0
M  V30 1454 H 128.008 0.167387 0.735185 0
M  V30 1455 H 130.659 1.048 1.5063 0
M  V30 1456 H 129.041 0.106367 3.95857 0
M  V30 1457 H 130.215 2.93623 3.55137 0
M  V30 1458 H 128.53 2.52948 3.30766 0
M  V30 1459 H 131.127 0.602202 5.31298 0
M  V30 1460 H 131.47 -0.622672 4.11617 0
M  V30 1461 H 132.003 1.05286 3.83614 0
M  V30 1462 H 128.742 3.53101 5.52268 0
M  V30 1463 H 128.262 1.82896 5.71235 0
M  V30 1464 H 129.941 2.32676 6.03714 0
M  V30 1465 N 130.073 -1.45103 0.615059 0
M  V30 1466 C 131.003 -2.33339 -0.0865619 0
M  V30 1467 C 131.984 -1.4727 -0.851209 0
M  V30 1468 O 133.169 -1.76026 -0.820281 0
M  V30 1469 C 130.299 -3.30095 -1.07956 0
M  V30 1470 C 129.253 -4.25858 -0.427628 0
M  V30 1471 C 128.579 -5.12361 -1.5294 0
M  V30 1472 C 129.879 -5.18165 0.655944 0
M  V30 1473 H 131.573 -2.92254 0.650224 0
M  V30 1474 H 129.119 -1.40532 0.314138 0
M  V30 1475 H 131.072 -3.90698 -1.57901 0
M  V30 1476 H 129.796 -2.69355 -1.84703 0
M  V30 1477 H 128.455 -3.66564 0.0510292 0
M  V30 1478 H 128.103 -4.47984 -2.28734 0
M  V30 1479 H 127.803 -5.77238 -1.09865 0
M  V30 1480 H 129.327 -5.75833 -2.03098 0
M  V30 1481 H 130.741 -5.72796 0.240257 0
M  V30 1482 H 129.138 -5.91559 1.00888 0
M  V30 1483 H 130.208 -4.60144 1.52957 0
M  V30 1484 N 131.551 -0.354651 -1.53558 0
M  V30 1485 C 132.461 0.50515 -2.29097 0
M  V30 1486 C 133.477 1.10223 -1.34636 0
M  V30 1487 O 134.653 1.11553 -1.67684 0
M  V30 1488 C 131.718 1.63479 -3.05738 0
M  V30 1489 C 130.779 1.06636 -4.15845 0
M  V30 1490 C 130.012 2.14217 -4.88822 0
M  V30 1491 O 130.235 3.35137 -4.61562 0
M  V30 1492 O 129.169 1.77887 -5.75013 0
M  V30 1493 H 132.995 -0.109237 -3.03503 0
M  V30 1494 H 130.58 -0.119357 -1.48922 0
M  V30 1495 H 132.462 2.2918 -3.5363 0
M  V30 1496 H 131.137 2.23478 -2.34178 0
M  V30 1497 H 130.044 0.373565 -3.7223 0
M  V30 1498 H 131.377 0.511081 -4.89539 0
M  V30 1499 N 133.029 1.57378 -0.0835403 0
M  V30 1500 C 133.959 2.1641 0.87686 0
M  V30 1501 C 134.94 1.09429 1.30228 0
M  V30 1502 O 136.125 1.37516 1.37124 0
M  V30 1503 C 133.255 2.73517 2.14022 0
M  V30 1504 C 132.209 3.85769 1.85381 0
M  V30 1505 C 131.535 4.29529 3.18448 0
M  V30 1506 C 132.835 5.09486 1.14984 0
M  V30 1507 H 134.529 2.96914 0.385059 0
M  V30 1508 H 132.075 1.42823 0.18377 0
M  V30 1509 H 134.028 3.13463 2.81636 0
M  V30 1510 H 132.752 1.90252 2.65465 0
M  V30 1511 H 131.411 3.46345 1.20169 0
M  V30 1512 H 131.059 3.43169 3.67755 0
M  V30 1513 H 130.759 5.05204 3.00071 0
M  V30 1514 H 132.283 4.72099 3.8724 0
M  V30 1515 H 133.697 5.46674 1.72687 0
M  V30 1516 H 132.094 5.90515 1.06826 0
M  V30 1517 H 133.164 4.84724 0.130749 0
M  V30 1518 N 134.507 -0.190092 1.56449 0
M  V30 1519 C 135.437 -1.23816 1.97969 0
M  V30 1520 C 136.418 -1.47201 0.852395 0
M  V30 1521 O 137.603 -1.58854 1.1171 0
M  V30 1522 C 134.733 -2.5813 2.3235 0
M  V30 1523 C 133.687 -2.49348 3.47864 0
M  V30 1524 C 133.013 -3.8798 3.67934 0
M  V30 1525 C 134.313 -2.01424 4.81898 0
M  V30 1526 H 136.007 -0.89311 2.85769 0
M  V30 1527 H 133.553 -0.428177 1.37487 0
M  V30 1528 H 135.506 -3.31637 2.59991 0
M  V30 1529 H 134.23 -2.94386 1.41438 0
M  V30 1530 H 132.889 -1.78297 3.20321 0
M  V30 1531 H 132.537 -4.21597 2.74344 0
M  V30 1532 H 132.237 -3.82978 4.45648 0
M  V30 1533 H 133.761 -4.63101 3.97957 0
M  V30 1534 H 135.175 -2.64693 5.08538 0
M  V30 1535 H 133.572 -2.07413 5.63116 0
M  V30 1536 H 134.642 -0.967677 4.75146 0
M  V30 1537 N 135.985 -1.50799 -0.457987 0
M  V30 1538 C 137.396 -1.55152 -1.0385 0
M  V30 1539 C 137.747 -0.362719 -1.92818 0
M  V30 1540 O 136.872 0.522915 -2.09987 0
M  V30 1541 C 137.467 -2.81173 -1.89017 0
M  V30 1542 C 136.026 -2.88164 -2.42154 0
M  V30 1543 C 135.173 -2.49591 -1.20829 0
M  V30 1544 H 138.124 -1.56874 -0.240068 0
M  V30 1545 H 138.145 -2.63769 -2.74238 0
M  V30 1546 H 137.657 -3.67677 -1.24238 0
M  V30 1547 H 135.758 -2.06042 -3.10447 0
M  V30 1548 H 135.871 -3.91356 -2.76364 0
M  V30 1549 H 134.235 -2.02322 -1.54719 0
M  V30 1550 H 135.018 -3.38418 -0.576927 0
M  V30 1551 N 137.463 0.71206 -1.40597 0
M  V30 1552 C 138.411 1.84746 -1.41321 0
M  V30 1553 C 139.405 1.66842 -0.293268 0
M  V30 1554 O 140.611 1.73904 -0.464481 0
M  V30 1555 H 136.986 0.608522 -0.441819 0
M  V30 1556 H 138.957 1.81252 -2.37045 0
M  V30 1557 C 137.706 3.22638 -1.29614 0
M  V30 1558 H 137.029 3.37023 -2.15071 0
M  V30 1559 H 138.469 4.02209 -1.3418 0
M  V30 1560 C 136.928 3.36899 -0.00673121 0
M  V30 1561 O 137.458 3.90186 0.954859 0
M  V30 1562 N 135.664 2.9053 0.0639327 0
M  V30 1563 H 135.211 2.47353 -0.719311 0
M  V30 1564 H 135.169 3.0045 0.926118 0
M  V30 1565 N 138.941 1.26152 0.944643 0
M  V30 1566 C 139.904 1.07474 2.0244 0
M  V30 1567 C 140.904 0.0242064 1.60782 0
M  V30 1568 O 142.094 0.267302 1.72137 0
M  V30 1569 C 139.226 0.633956 3.34953 0
M  V30 1570 H 140.419 2.03336 2.20442 0
M  V30 1571 H 137.972 1.087 1.12312 0
M  V30 1572 H 138.707 -0.326811 3.22649 0
M  V30 1573 H 138.492 1.39247 3.66542 0
M  V30 1574 H 139.982 0.52501 4.14287 0
M  V30 1575 N 140.419 -1.14872 1.07899 0
M  V30 1576 C 141.644 -1.90202 0.826926 0
M  V30 1577 C 142.069 -1.77774 -0.614664 0
M  V30 1578 O 141.427 -1.11431 -1.43013 0
M  V30 1579 C 141.475 -3.38352 1.24702 0
M  V30 1580 O 140.579 -4.10497 0.39575 0
M  V30 1581 H 139.92 -0.591968 0.300782 0
M  V30 1582 H 142.45 -1.45437 1.43907 0
M  V30 1583 H 142.46 -3.89156 1.22563 0
M  V30 1584 H 141.135 -3.46715 2.29698 0
M  V30 1585 H 139.712 -3.69796 0.480117 0
M  V30 1586 N 141.898 -0.863906 -1.31812 0
M  V30 1587 C 143.144 -0.472535 -1.97218 0
M  V30 1588 C 143.477 0.971394 -1.68159 0
M  V30 1589 O 142.752 1.68309 -0.974798 0
M  V30 1590 C 143.035 -0.723054 -3.52766 0
M  V30 1591 C 142.888 -2.21608 -3.91421 0
M  V30 1592 C 144.207 -0.185522 -4.39709 0
M  V30 1593 H 141.326 -0.173158 -0.71637 0
M  V30 1594 H 143.968 -1.08403 -1.56041 0
M  V30 1595 H 142.118 -0.202577 -3.87971 0
M  V30 1596 H 143.79 -2.80334 -3.66347 0
M  V30 1597 H 142.033 -2.691 -3.40246 0
M  V30 1598 H 142.704 -2.34203 -4.99853 0
M  V30 1599 H 145.18 -0.630726 -4.11292 0
M  V30 1600 H 144.056 -0.390306 -5.47511 0
M  V30 1601 H 144.317 0.912229 -4.32586 0
M  V30 1602 N 143.376 1.44774 -0.622745 0
M  V30 1603 C 144.624 2.01721 -0.123655 0
M  V30 1604 C 144.945 1.49172 1.25589 0
M  V30 1605 O 144.215 0.691974 1.83272 0
M  V30 1606 H 142.795 0.745777 -0.0427225 0
M  V30 1607 H 145.457 1.77382 -0.807559 0
M  V30 1608 H 144.553 3.11984 -0.0849534 0
M  V30 1609 N 144.854 0.36279 1.53368 0
M  V30 1610 C 145.804 -0.501391 2.22419 0
M  V30 1611 C 146.788 -1.0509 1.2184 0
M  V30 1612 O 147.98 -0.981404 1.47301 0
M  V30 1613 C 145.109 -1.64201 3.01484 0
M  V30 1614 C 144.195 -1.10552 4.09438 0
M  V30 1615 N 144.586 -0.291788 5.04958 0
M  V30 1616 C 142.884 -1.3806 4.24094 0
M  V30 1617 C 143.585 0.00162655 5.817 0
M  V30 1618 N 142.561 -0.595244 5.40331 0
M  V30 1619 H 146.363 0.127159 2.93625 0
M  V30 1620 H 143.877 0.170658 1.61501 0
M  V30 1621 H 145.874 -2.27326 3.49469 0
M  V30 1622 H 144.534 -2.27365 2.31809 0
M  V30 1623 H 145.545 0.0687731 5.17854 0
M  V30 1624 H 142.222 -2.01522 3.65644 0
M  V30 1625 H 143.612 0.659278 6.68658 0
M  V30 1626 N 146.332 -1.57332 0.0918853 0
M  V30 1627 C 147.581 -1.93412 -0.572249 0
M  V30 1628 C 147.894 -0.975515 -1.69538 0
M  V30 1629 O 149.1 -1.22991 -2.42045 0
M  V30 1630 C 147.556 -3.43648 -1.0693 0
M  V30 1631 C 147.164 -4.47994 0.0239049 0
M  V30 1632 C 148.908 -3.88695 -1.70635 0
M  V30 1633 C 146.815 -5.89381 -0.488319 0
M  V30 1634 H 145.745 -0.721939 -0.217532 0
M  V30 1635 H 148.396 -1.82735 0.167369 0
M  V30 1636 H 146.778 -3.49466 -1.8625 0
M  V30 1637 H 147.952 -4.53815 0.799277 0
M  V30 1638 H 146.267 -4.12536 0.565946 0
M  V30 1639 H 148.864 -4.91725 -2.10025 0
M  V30 1640 H 149.207 -3.27166 -2.57426 0
M  V30 1641 H 149.74 -3.85564 -0.979023 0
M  V30 1642 H 146.479 -6.54602 0.342906 0
M  V30 1643 H 145.999 -5.87037 -1.23077 0
M  V30 1644 H 147.678 -6.39863 -0.958317 0
M  V30 1645 N 147.81 0.181792 -1.56548 0
M  V30 1646 C 149.058 0.89832 -1.81038 0
M  V30 1647 C 149.379 1.83232 -0.667164 0
M  V30 1648 O 148.649 1.93372 0.313673 0
M  V30 1649 H 147.229 0.33471 -0.667816 0
M  V30 1650 H 149.891 0.184116 -1.94028 0
M  V30 1651 H 148.987 1.4815 -2.74696 0
M  V30 1652 N 149.288 1.51039 0.449983 0
M  V30 1653 C 150.537 1.62317 1.19733 0
M  V30 1654 C 150.85 0.339101 1.92638 0
M  V30 1655 O 152.056 0.331069 2.69474 0
M  V30 1656 C 150.512 2.86608 2.17678 0
M  V30 1657 C 150.12 4.21972 1.50479 0
M  V30 1658 C 151.864 3.07239 2.92924 0
M  V30 1659 C 149.771 5.37426 2.46834 0
M  V30 1660 H 148.701 0.604532 0.450619 0
M  V30 1661 H 151.352 1.77494 0.465625 0
M  V30 1662 H 149.734 2.65037 2.94231 0
M  V30 1663 H 150.908 4.53878 0.795716 0
M  V30 1664 H 149.223 4.07117 0.874344 0
M  V30 1665 H 151.82 3.90668 3.65079 0
M  V30 1666 H 152.163 2.19807 3.5354 0
M  V30 1667 H 152.696 3.29091 2.23481 0
M  V30 1668 H 149.435 6.27079 1.90926 0
M  V30 1669 H 148.955 5.09912 3.15832 0
M  V30 1670 H 150.634 5.68862 3.08228 0
M  V30 1671 N 150.766 -0.704594 1.40972 0
M  V30 1672 C 151.996 -1.49138 1.42974 0
M  V30 1673 C 152.404 -1.89175 0.0308406 0
M  V30 1674 O 151.747 -1.56734 -0.958138 0
M  V30 1675 C 151.809 -2.79016 2.26694 0
M  V30 1676 C 151.473 -2.61236 3.74973 0
M  V30 1677 C 152.47 -2.27773 4.67349 0
M  V30 1678 C 150.155 -2.77158 4.18914 0
M  V30 1679 C 152.149 -2.10457 6.01653 0
M  V30 1680 C 149.836 -2.59459 5.53285 0
M  V30 1681 C 150.834 -2.26158 6.4447 0
M  V30 1682 O 150.522 -2.08605 7.76363 0
M  V30 1683 H 150.254 -0.466443 0.489292 0
M  V30 1684 H 152.808 -0.8758 1.85793 0
M  V30 1685 H 151.038 -3.42947 1.78673 0
M  V30 1686 H 152.727 -3.40782 2.20504 0
M  V30 1687 H 153.493 -2.15095 4.34694 0
M  V30 1688 H 149.372 -3.02064 3.48251 0
M  V30 1689 H 152.916 -1.84387 6.72791 0
M  V30 1690 H 148.813 -2.71725 5.85522 0
M  V30 1691 H 149.581 -2.23439 7.87412 0
M  V30 1692 N 152.244 -1.26651 -0.937939 0
M  V30 1693 C 153.66 -1.03834 -1.21205 0
M  V30 1694 C 153.86 0.234502 -2.00131 0
M  V30 1695 O 152.916 0.942767 -2.3424 0
M  V30 1696 C 154.229 -2.27167 -1.97017 0
M  V30 1697 C 155.777 -2.32101 -2.09996 0
M  V30 1698 C 156.252 -3.55136 -2.8921 0
M  V30 1699 N 157.743 -3.55632 -2.96783 0
M  V30 1700 C 158.478 -4.475 -3.58512 0
M  V30 1701 N 157.974 -5.4966 -4.21717 0
M  V30 1702 N 159.767 -4.35145 -3.55816 0
M  V30 1703 H 151.918 -2.08398 -0.410391 0
M  V30 1704 H 154.181 -0.916031 -0.244114 0
M  V30 1705 H 153.887 -3.19765 -1.46434 0
M  V30 1706 H 153.761 -2.31672 -2.97671 0
M  V30 1707 H 156.148 -1.40015 -2.59769 0
M  V30 1708 H 156.229 -2.31605 -1.08594 0
M  V30 1709 H 155.873 -4.47553 -2.40123 0
M  V30 1710 H 155.803 -3.5288 -3.90875 0
M  V30 1711 H 158.294 -2.81743 -2.51852 0
M  V30 1712 H 158.607 -6.15943 -4.66727 0
M  V30 1713 H 156.952 -5.53514 -4.20294 0
M  V30 1714 H 160.143 -3.5455 -3.05634 0
M  V30 1715 H 160.316 -5.06934 -4.03636 0
M  V30 1716 N 153.722 1.14298 -1.08507 0
M  V30 1717 C 154.999 1.81544 -0.728088 0
M  V30 1718 C 155.379 1.95838 0.78808 0
M  V30 1719 O 154.727 1.51904 1.70697 0
M  V30 1720 C 154.937 3.17169 -1.45619 0
M  V30 1721 C 156.285 3.9265 -1.61591 0
M  V30 1722 O 157.309 3.26762 -1.41793 0
M  V30 1723 O 156.168 5.10807 -1.94263 0
M  V30 1724 H 153.262 0.78491 -0.260471 0
M  V30 1725 H 155.808 1.21307 -1.18671 0
M  V30 1726 H 154.58 3.01934 -2.489 0
M  V30 1727 H 154.203 3.851 -0.989124 0
M  V30 1728 N 155.201 0.870884 1.31352 0
M  V30 1729 C 156.612 0.534714 1.78879 0
M  V30 1730 C 156.963 -0.948423 1.71754 0
M  V30 1731 O 156.088 -1.74055 1.28584 0
M  V30 1732 C 156.683 0.963839 3.24801 0
M  V30 1733 C 155.242 0.679311 3.70219 0
M  V30 1734 C 154.389 1.15465 2.52117 0
M  V30 1735 H 157.34 1.05651 1.18421 0
M  V30 1736 H 157.361 0.286892 3.79417 0
M  V30 1737 H 156.873 2.04332 3.29955 0
M  V30 1738 H 154.974 -0.388769 3.70566 0
M  V30 1739 H 155.087 1.25698 4.62317 0
M  V30 1740 H 153.451 0.574383 2.48139 0
M  V30 1741 H 154.234 2.24157 2.60016 0
M  V30 1742 N 156.679 -1.44442 0.630414 0
M  V30 1743 C 157.589 -2.34476 -0.0761693 0
M  V30 1744 C 158.605 -1.52576 -0.836449 0
M  V30 1745 O 159.781 -1.85307 -0.788874 0
M  V30 1746 C 156.846 -3.30545 -1.04599 0
M  V30 1747 C 155.907 -4.28352 -0.28516 0
M  V30 1748 C 155.14 -5.19831 -1.20878 0
M  V30 1749 O 155.363 -5.15223 -2.44747 0
M  V30 1750 O 154.297 -5.97892 -0.693491 0
M  V30 1751 H 158.123 -2.96345 0.664324 0
M  V30 1752 H 155.708 -1.44203 0.39061 0
M  V30 1753 H 157.59 -3.89681 -1.60396 0
M  V30 1754 H 156.265 -2.7121 -1.76711 0
M  V30 1755 H 155.172 -3.72764 0.315837 0
M  V30 1756 H 156.505 -4.90605 0.395924 0
M  V30 1757 N 158.157 -0.370918 -1.53173 0
M  V30 1758 C 159.385 0.217704 -2.05751 0
M  V30 1759 C 159.8 1.42018 -1.24404 0
M  V30 1760 O 159.157 1.80245 -0.286033 0
M  V30 1761 C 159.208 0.605954 -3.56385 0
M  V30 1762 O 158.929 -0.548734 -4.3465 0
M  V30 1763 C 160.43 1.2524 -4.25241 0
M  V30 1764 H 157.65 0.0371659 -0.66997 0
M  V30 1765 H 160.194 -0.530832 -1.9749 0
M  V30 1766 H 158.349 1.3044 -3.6478 0
M  V30 1767 H 158.763 -0.23376 -5.23979 0
M  V30 1768 H 160.237 1.47458 -5.3194 0
M  V30 1769 H 160.714 2.2143 -3.79296 0
M  V30 1770 H 161.32 0.595233 -4.21114 0
M  V30 1771 N 159.635 1.57281 -0.100228 0
M  V30 1772 C 160.565 2.17328 0.853857 0
M  V30 1773 C 161.546 1.10804 1.2906 0
M  V30 1774 O 162.731 1.38963 1.35657 0
M  V30 1775 C 159.861 2.75772 2.11109 0
M  V30 1776 C 158.815 3.87713 1.81279 0
M  V30 1777 C 158.141 4.32882 3.13874 0
M  V30 1778 C 159.441 5.10677 1.09574 0
M  V30 1779 H 161.135 2.97305 0.353545 0
M  V30 1780 H 158.681 1.43009 0.168612 0
M  V30 1781 H 160.634 3.16433 2.78296 0
M  V30 1782 H 159.358 1.93057 2.63432 0
M  V30 1783 H 158.017 3.476 1.16489 0
M  V30 1784 H 157.665 3.47051 3.64095 0
M  V30 1785 H 157.365 5.08358 2.94696 0
M  V30 1786 H 158.889 4.7618 3.82211 0
M  V30 1787 H 160.303 5.48474 1.66879 0
M  V30 1788 H 158.7 5.91615 1.00557 0
M  V30 1789 H 159.77 4.84835 0.0793299 0
M  V30 1790 N 161.113 -0.173488 1.56642 0
M  V30 1791 C 162.045 -1.23935 1.92802 0
M  V30 1792 C 163.058 -1.40589 0.820889 0
M  V30 1793 O 164.247 -1.40631 1.09933 0
M  V30 1794 C 161.347 -2.60837 2.16373 0
M  V30 1795 C 160.52 -2.6551 3.47596 0
M  V30 1796 C 159.579 -3.8376 3.60021 0
M  V30 1797 O 158.605 -3.69859 4.32658 0
M  V30 1798 N 159.807 -5.00127 2.94709 0
M  V30 1799 H 162.572 -0.932236 2.84832 0
M  V30 1800 H 160.133 -0.363268 1.57772 0
M  V30 1801 H 162.125 -3.38407 2.21952 0
M  V30 1802 H 160.695 -2.83948 1.30738 0
M  V30 1803 H 159.915 -1.74052 3.53694 0
M  V30 1804 H 161.203 -2.65641 4.33949 0
M  V30 1805 H 160.601 -5.14322 2.35563 0
M  V30 1806 H 159.158 -5.75567 3.05886 0
M  V30 1807 N 162.591 -1.51276 -0.441967 0
M  V30 1808 C 163.554 -1.7167 -1.51862 0
M  V30 1809 C 164.554 -0.586793 -1.49711 0
M  V30 1810 O 165.744 -0.854276 -1.51815 0
M  V30 1811 C 162.876 -1.76889 -2.91416 0
M  V30 1812 H 164.069 -2.67754 -1.35084 0
M  V30 1813 H 161.622 -1.41196 -0.670333 0
M  V30 1814 H 162.357 -0.826026 -3.13604 0
M  V30 1815 H 162.142 -2.59001 -2.94382 0
M  V30 1816 H 163.632 -1.94522 -3.69528 0
M  V30 1817 N 164.069 0.697108 -1.41344 0
M  V30 1818 C 165.315 1.4593 -1.40827 0
M  V30 1819 C 165.648 1.94193 -0.0167098 0
M  V30 1820 O 164.923 1.69425 0.955263 0
M  V30 1821 C 165.206 2.67229 -2.41373 0
M  V30 1822 C 165.059 2.24741 -3.8963 0
M  V30 1823 C 166.378 3.69423 -2.39196 0
M  V30 1824 H 163.497 0.529303 -0.512842 0
M  V30 1825 H 166.139 0.794112 -1.72609 0
M  V30 1826 H 164.289 3.23982 -2.14401 0
M  V30 1827 H 165.961 1.73327 -4.27499 0
M  V30 1828 H 164.204 1.56542 -4.0457 0
M  V30 1829 H 164.875 3.1177 -4.55525 0
M  V30 1830 H 167.351 3.2234 -2.63128 0
M  V30 1831 H 166.227 4.51907 -3.11563 0
M  V30 1832 H 166.488 4.19012 -1.41001 0
M  V30 1833 N 165.547 1.27147 0.931209 0
M  V30 1834 C 166.457 1.11372 2.06478 0
M  V30 1835 C 167.473 0.044645 1.73943 0
M  V30 1836 O 168.649 0.250417 1.99837 0
M  V30 1837 C 165.714 0.758838 3.38294 0
M  V30 1838 C 164.775 1.90841 3.84549 0
M  V30 1839 C 164.008 1.57036 5.10074 0
M  V30 1840 O 164.231 0.476645 5.68405 0
M  V30 1841 O 163.165 2.40839 5.51616 0
M  V30 1842 H 166.991 2.06493 2.22698 0
M  V30 1843 H 164.576 1.06301 1.04978 0
M  V30 1844 H 166.458 0.574098 4.17471 0
M  V30 1845 H 165.133 -0.162879 3.2329 0
M  V30 1846 H 164.04 2.14819 3.06274 0
M  V30 1847 H 165.373 2.81021 4.04089 0
M  V30 1848 N 167.025 -1.13721 1.09112 0
M  V30 1849 C 168.255 -1.88499 0.845671 0
M  V30 1850 C 168.663 -1.79218 -0.606432 0
M  V30 1851 O 168.006 -1.1544 -1.42896 0
M  V30 1852 C 168.068 -3.38954 1.19793 0
M  V30 1853 C 167.732 -3.72018 2.65428 0
M  V30 1854 C 168.729 -3.7153 3.63677 0
M  V30 1855 C 166.414 -4.01775 3.01467 0
M  V30 1856 C 168.408 -4.00336 4.95994 0
M  V30 1857 C 166.095 -4.30243 4.33975 0
M  V30 1858 C 167.093 -4.29508 5.31048 0
M  V30 1859 O 166.781 -4.5728 6.61173 0
M  V30 1860 H 166.513 -0.603702 0.304171 0
M  V30 1861 H 169.067 -1.44903 1.45576 0
M  V30 1862 H 167.297 -3.83039 0.530871 0
M  V30 1863 H 168.986 -3.95052 0.932146 0
M  V30 1864 H 169.752 -3.4862 3.37179 0
M  V30 1865 H 165.631 -4.01496 2.26544 0
M  V30 1866 H 169.175 -3.99678 5.71755 0
M  V30 1867 H 165.072 -4.52625 4.60219 0
M  V30 1868 H 165.84 -4.74964 6.66597 0
M  V30 1869 N 168.503 -0.877838 -1.30888 0
M  V30 1870 C 169.733 -0.506678 -2.00291 0
M  V30 1871 C 170.141 0.907449 -1.66018 0
M  V30 1872 O 169.484 1.60719 -0.88967 0
M  V30 1873 C 169.546 -0.59323 -3.54572 0
M  V30 1874 C 169.21 -1.97038 -4.12341 0
M  V30 1875 C 170.207 -2.93889 -4.28865 0
M  V30 1876 C 167.892 -2.27383 -4.47886 0
M  V30 1877 C 169.886 -4.19224 -4.80136 0
M  V30 1878 C 167.573 -3.52965 -4.98857 0
M  V30 1879 C 168.571 -4.48701 -5.14934 0
M  V30 1880 O 168.259 -5.72056 -5.64808 0
M  V30 1881 H 167.991 -0.1951 -0.647234 0
M  V30 1882 H 170.545 -1.18301 -1.6791 0
M  V30 1883 H 168.775 0.140057 -3.86446 0
M  V30 1884 H 170.464 -0.234372 -4.05223 0
M  V30 1885 H 171.23 -2.71756 -4.01714 0
M  V30 1886 H 167.109 -1.53639 -4.34645 0
M  V30 1887 H 170.653 -4.93956 -4.92599 0
M  V30 1888 H 166.55 -3.74939 -5.25443 0
M  V30 1889 H 167.318 -5.74337 -5.83163 0
M  V30 1890 N 169.982 1.44106 -0.638065 0
M  V30 1891 C 170.945 2.29138 0.0531013 0
M  V30 1892 C 171.945 1.41409 0.765506 0
M  V30 1893 O 173.135 1.63206 0.609046 0
M  V30 1894 C 170.267 3.23144 1.08584 0
M  V30 1895 H 171.46 2.91739 -0.694883 0
M  V30 1896 H 169.013 1.51134 -0.398538 0
M  V30 1897 H 169.748 2.65408 1.86357 0
M  V30 1898 H 169.533 3.87804 0.578852 0
M  V30 1899 H 171.023 3.87004 1.56899 0
M  V30 1900 N 171.46 0.379036 1.52974 0
M  V30 1901 C 172.407 -0.461048 2.26148 0
M  V30 1902 C 173.377 -1.06637 1.27349 0
M  V30 1903 O 174.562 -1.09633 1.56157 0
M  V30 1904 C 171.702 -1.58782 3.06402 0
M  V30 1905 C 170.815 -1.00636 4.20115 0
M  V30 1906 C 169.95 -2.10334 4.87784 0
M  V30 1907 C 168.989 -1.49724 5.93506 0
M  V30 1908 N 168.126 -2.5331 6.54812 0
M  V30 1909 H 172.966 0.169429 2.97518 0
M  V30 1910 H 170.503 0.0953806 1.4679 0
M  V30 1911 H 172.461 -2.25174 3.51215 0
M  V30 1912 H 171.091 -2.18876 2.37261 0
M  V30 1913 H 170.143 -0.232332 3.7969 0
M  V30 1914 H 171.455 -0.523343 4.96047 0
M  V30 1915 H 170.609 -2.84519 5.35849 0
M  V30 1916 H 169.348 -2.61992 4.11353 0
M  V30 1917 H 168.353 -0.740598 5.44789 0
M  V30 1918 H 169.578 -0.988732 6.71864 0
M  V30 1919 H 167.524 -3.04156 5.81227 0
M  V30 1920 H 167.441 -2.09734 7.26325 0
M  V30 1921 H 168.709 -3.27155 7.07524 0
M  V30 1922 N 172.938 -1.57226 0.108567 0
M  V30 1923 C 173.868 -2.17778 -0.84232 0
M  V30 1924 C 174.849 -1.11487 -1.2847 0
M  V30 1925 O 176.034 -1.39681 -1.34918 0
M  V30 1926 C 173.164 -2.76888 -2.09644 0
M  V30 1927 C 172.118 -3.88669 -1.79221 0
M  V30 1928 C 171.444 -4.34541 -3.11574 0
M  V30 1929 C 172.744 -5.11251 -1.06864 0
M  V30 1930 H 174.438 -2.97489 -0.337774 0
M  V30 1931 H 171.984 -1.43097 -0.161025 0
M  V30 1932 H 173.937 -3.17904 -2.76614 0
M  V30 1933 H 172.661 -1.94451 -2.62405 0
M  V30 1934 H 171.32 -3.48213 -1.14644 0
M  V30 1935 H 170.968 -3.48977 -3.62249 0
M  V30 1936 H 170.668 -5.09914 -2.91996 0
M  V30 1937 H 172.192 -4.782 -3.7968 0
M  V30 1938 H 173.606 -5.49352 -1.63968 0
M  V30 1939 H 172.003 -5.9214 -0.974178 0
M  V30 1940 H 173.073 -4.8487 -0.0536168 0
M  V30 1941 N 174.416 0.165178 -1.56732 0
M  V30 1942 C 175.827 0.727046 -1.71962 0
M  V30 1943 C 176.178 1.82508 -0.720078 0
M  V30 1944 O 175.303 2.16082 0.117242 0
M  V30 1945 C 175.898 1.32559 -3.11791 0
M  V30 1946 C 174.457 1.83422 -3.28684 0
M  V30 1947 C 173.604 0.715567 -2.67908 0
M  V30 1948 H 176.555 -0.0602896 -1.58585 0
M  V30 1949 H 176.576 2.19533 -3.10782 0
M  V30 1950 H 176.088 0.526195 -3.84516 0
M  V30 1951 H 174.189 2.65986 -2.60926 0
M  V30 1952 H 174.302 1.97543 -4.36478 0
M  V30 1953 H 172.666 1.13758 -2.27884 0
M  V30 1954 H 173.449 -0.0720836 -3.43224 0
M  V30 1955 N 175.894 1.51508 0.433938 0
M  V30 1956 C 177.305 1.56784 1.01369 0
M  V30 1957 C 177.656 0.393349 1.92217 0
M  V30 1958 O 176.781 -0.489441 2.10792 0
M  V30 1959 C 177.376 2.84144 1.8452 0
M  V30 1960 C 175.935 2.9198 2.37539 0
M  V30 1961 C 175.082 2.51482 1.16843 0
M  V30 1962 H 178.033 1.57236 0.215081 0
M  V30 1963 H 178.054 2.68098 2.70007 0
M  V30 1964 H 177.566 3.69607 1.18373 0
M  V30 1965 H 175.667 2.10955 3.0713 0
M  V30 1966 H 175.78 3.95704 2.70103 0
M  V30 1967 H 174.144 2.04758 1.51481 0
M  V30 1968 H 174.927 3.39293 0.523015 0
M  V30 1969 N 177.372 -0.689602 1.41712 0
M  V30 1970 C 178.302 -1.81577 1.46806 0
M  V30 1971 C 179.283 -1.66945 0.326105 0
M  V30 1972 O 180.468 -1.86588 0.538377 0
M  V30 1973 C 177.598 -3.19762 1.35535 0
M  V30 1974 C 176.552 -3.49107 2.47605 0
M  V30 1975 C 175.878 -4.86711 2.21397 0
M  V30 1976 C 177.178 -3.47483 3.89939 0
M  V30 1977 H 178.872 -1.7757 2.41058 0
M  V30 1978 H 176.418 -0.852887 1.16025 0
M  V30 1979 H 178.371 -3.98263 1.3771 0
M  V30 1980 H 177.095 -3.24409 0.377708 0
M  V30 1981 H 175.754 -2.72959 2.44722 0
M  V30 1982 H 175.402 -4.8799 1.21961 0
M  V30 1983 H 175.102 -5.0731 2.96497 0
M  V30 1984 H 176.626 -5.67515 2.25297 0
M  V30 1985 H 178.04 -4.1598 3.94505 0
M  V30 1986 H 176.437 -3.79615 4.64771 0
M  V30 1987 H 177.507 -2.46341 4.17665 0
M  V30 1988 N 178.85 -1.27639 -0.924453 0
M  V30 1989 C 179.798 -1.10485 -2.04685 0
M  V30 1990 C 180.792 -0.0270421 -1.69378 0
M  V30 1991 O 181.998 -0.185008 -1.79047 0
M  V30 1992 H 178.373 -0.340546 -0.670472 0
M  V30 1993 H 180.344 -2.05566 -2.16298 0
M  V30 1994 C 179.093 -0.772229 -3.39016 0
M  V30 1995 H 178.416 -1.59351 -3.66671 0
M  V30 1996 H 179.856 -0.692097 -4.18313 0
M  V30 1997 C 178.315 0.523554 -3.32807 0
M  V30 1998 O 178.845 1.55702 -3.70297 0
M  V30 1999 N 177.051 0.520363 -2.85903 0
M  V30 2000 H 176.598 -0.32107 -2.55591 0
M  V30 2001 H 176.556 1.38742 -2.82131 0
M  V30 2002 N 180.328 1.1314 -1.09713 0
M  V30 2003 C 181.605 1.80762 -0.747302 0
M  V30 2004 C 181.985 1.96663 0.767265 0
M  V30 2005 O 181.333 1.53706 1.69076 0
M  V30 2006 C 181.543 3.15606 -1.48975 0
M  V30 2007 C 182.891 3.90914 -1.65746 0
M  V30 2008 O 183.915 3.25239 -1.45251 0
M  V30 2009 O 182.774 5.08718 -1.9967 0
M  V30 2010 H 179.868 0.782103 -0.268782 0
M  V30 2011 H 182.414 1.20041 -1.19951 0
M  V30 2012 H 181.186 2.99278 -2.52088 0
M  V30 2013 H 180.809 3.84029 -1.02991 0
M  V30 2014 N 181.806 0.884767 1.30421 0
M  V30 2015 C 183.083 0.423185 1.90967 0
M  V30 2016 C 183.463 -1.09605 1.80416 0
M  V30 2017 O 182.811 -1.93126 1.22125 0
M  V30 2018 C 183.021 0.921056 3.36627 0
M  V30 2019 C 184.369 0.955903 4.137 0
M  V30 2020 O 185.393 0.867706 3.4547 0
M  V30 2021 O 184.252 1.08614 5.35598 0
M  V30 2022 H 181.346 0.129369 0.816819 0
M  V30 2023 H 183.892 0.973653 1.3899 0
M  V30 2024 H 182.664 1.96489 3.3839 0
M  V30 2025 H 182.287 0.349741 3.96059 0
M  V30 2026 N 183.284 -1.43765 0.645699 0
M  V30 2027 C 184.231 -2.30745 -0.0504648 0
M  V30 2028 C 185.201 -1.4432 -0.822241 0
M  V30 2029 O 186.386 -1.73202 -0.800358 0
M  V30 2030 C 183.526 -3.29802 -1.0161 0
M  V30 2031 C 182.639 -4.31326 -0.241219 0
M  V30 2032 C 181.774 -5.17469 -1.19998 0
M  V30 2033 C 180.813 -6.10691 -0.415094 0
M  V30 2034 N 179.95 -6.89483 -1.32506 0
M  V30 2035 H 184.79 -2.8973 0.697155 0
M  V30 2036 H 182.327 -1.42738 0.355563 0
M  V30 2037 H 184.285 -3.85734 -1.58949 0
M  V30 2038 H 182.915 -2.72483 -1.73069 0
M  V30 2039 H 181.967 -3.77749 0.448334 0
M  V30 2040 H 183.279 -4.9743 0.369437 0
M  V30 2041 H 182.433 -5.7799 -1.84424 0
M  V30 2042 H 181.172 -4.51473 -1.84455 0
M  V30 2043 H 180.177 -5.49265 0.242565 0
M  V30 2044 H 181.402 -6.78727 0.224966 0
M  V30 2045 H 179.348 -6.26142 -1.95657 0
M  V30 2046 H 179.265 -7.52081 -0.768783 0
M  V30 2047 H 180.533 -7.54516 -1.9577 0
M  V30 2048 N 184.763 -0.387143 -1.52771 0
M  V30 2049 C 185.673 0.456442 -2.30117 0
M  V30 2050 C 186.689 1.07342 -1.36944 0
M  V30 2051 O 187.865 1.07971 -1.70013 0
M  V30 2052 C 184.93 1.56957 -3.09136 0
M  V30 2053 C 183.991 0.977916 -4.18014 0
M  V30 2054 C 183.224 2.038 -4.93256 0
M  V30 2055 O 183.447 3.25271 -4.68567 0
M  V30 2056 O 182.381 1.6565 -5.78657 0
M  V30 2057 H 186.207 -0.17359 -3.03203 0
M  V30 2058 H 183.792 -0.150919 -1.48636 0
M  V30 2059 H 185.674 2.21628 -3.58412 0
M  V30 2060 H 184.349 2.18461 -2.38865 0
M  V30 2061 H 183.256 0.294525 -3.72939 0
M  V30 2062 H 184.589 0.407128 -4.90513 0
M  V30 2063 N 186.241 1.57166 -0.116904 0
M  V30 2064 C 187.487 1.95412 0.542405 0
M  V30 2065 C 187.82 1.00019 1.66463 0
M  V30 2066 O 187.095 0.0370346 1.94465 0
M  V30 2067 C 187.378 3.43615 1.07708 0
M  V30 2068 C 187.231 4.49781 -0.0415868 0
M  V30 2069 C 188.55 3.93616 1.96861 0
M  V30 2070 H 185.669 0.710543 0.195696 0
M  V30 2071 H 188.311 1.89027 -0.192038 0
M  V30 2072 H 186.461 3.49187 1.70296 0
M  V30 2073 H 188.133 4.56308 -0.676793 0
M  V30 2074 H 186.376 4.28033 -0.705019 0
M  V30 2075 H 187.047 5.50733 0.373717 0
M  V30 2076 H 189.523 3.90335 1.44146 0
M  V30 2077 H 188.399 4.97838 2.3119 0
M  V30 2078 H 188.66 3.34188 2.89432 0
M  V30 2079 N 187.719 -0.156864 1.56817 0
M  V30 2080 C 188.966 -0.871125 1.82805 0
M  V30 2081 C 189.294 -1.81611 0.696262 0
M  V30 2082 O 188.549 -1.93141 -0.315459 0
M  V30 2083 C 188.848 -1.68737 3.1506 0
M  V30 2084 C 188.514 -0.890045 4.42028 0
M  V30 2085 C 187.176 -0.670042 4.76512 0
M  V30 2086 C 189.528 -0.331769 5.20143 0
M  V30 2087 C 186.856 0.119104 5.86579 0
M  V30 2088 C 189.208 0.444365 6.31037 0
M  V30 2089 C 187.872 0.675035 6.64078 0
M  V30 2090 H 187.142 -0.318767 0.668931 0
M  V30 2091 H 189.789 -0.135274 1.91022 0
M  V30 2092 H 188.094 -2.49304 3.0225 0
M  V30 2093 H 189.791 -2.24331 3.3238 0
M  V30 2094 H 186.381 -1.07157 4.14988 0
M  V30 2095 H 190.565 -0.489043 4.93885 0
M  V30 2096 H 185.821 0.307417 6.10627 0
M  V30 2097 H 189.995 0.884139 6.90765 0
M  V30 2098 H 187.622 1.28839 7.49203 0
M  V30 2099 N 189.197 -1.51736 -0.425897 0
M  V30 2100 C 190.127 -1.76827 -1.52494 0
M  V30 2101 C 191.108 -0.618524 -1.58456 0
M  V30 2102 O 192.293 -0.862416 -1.74 0
M  V30 2103 C 189.423 -1.90374 -2.90474 0
M  V30 2104 C 188.377 -3.0588 -2.99369 0
M  V30 2105 C 187.703 -3.04625 -4.3944 0
M  V30 2106 C 189.003 -4.45644 -2.72394 0
M  V30 2107 H 190.697 -2.68855 -1.31748 0
M  V30 2108 H 188.243 -1.29372 -0.632362 0
M  V30 2109 H 190.196 -2.0651 -3.6733 0
M  V30 2110 H 188.92 -0.95004 -3.12477 0
M  V30 2111 H 187.579 -2.89467 -2.24954 0
M  V30 2112 H 187.227 -2.0701 -4.58428 0
M  V30 2113 H 186.927 -3.82195 -4.46319 0
M  V30 2114 H 188.451 -3.22869 -5.18255 0
M  V30 2115 H 189.865 -4.62348 -3.38979 0
M  V30 2116 H 188.262 -5.25006 -2.9067 0
M  V30 2117 H 189.332 -4.54893 -1.67929 0
M  V30 2118 N 190.675 0.682077 -1.42076 0
M  V30 2119 C 191.605 1.80796 -1.47767 0
M  V30 2120 C 192.586 1.6677 -0.334954 0
M  V30 2121 O 193.771 1.863 -0.548264 0
M  V30 2122 C 190.901 3.19038 -1.37229 0
M  V30 2123 C 189.855 3.47789 -2.49453 0
M  V30 2124 C 189.181 4.8553 -2.23975 0
M  V30 2125 C 190.481 3.45411 -3.91776 0
M  V30 2126 H 192.175 1.7629 -2.41997 0
M  V30 2127 H 189.721 0.846721 -1.16476 0
M  V30 2128 H 191.674 3.97528 -1.39821 0
M  V30 2129 H 190.398 3.24204 -0.394907 0
M  V30 2130 H 189.057 2.71657 -2.46166 0
M  V30 2131 H 188.705 4.87337 -1.24547 0
M  V30 2132 H 188.405 5.0573 -2.99184 0
M  V30 2133 H 189.929 5.66312 -2.28304 0
M  V30 2134 H 191.343 4.13882 -3.96705 0
M  V30 2135 H 189.74 3.77145 -4.66778 0
M  V30 2136 H 190.81 2.44122 -4.18966 0
M  V30 2137 N 192.153 1.28127 0.917671 0
M  V30 2138 C 193.43 1.05761 1.64542 0
M  V30 2139 C 193.81 -0.404344 2.07191 0
M  V30 2140 O 193.158 -1.38963 1.81388 0
M  V30 2141 C 193.368 2.02857 2.83989 0
M  V30 2142 C 194.716 2.32786 3.551 0
M  V30 2143 O 195.74 2.0091 2.94132 0
M  V30 2144 O 194.599 2.87169 4.64969 0
M  V30 2145 H 191.693 0.403916 0.721652 0
M  V30 2146 H 194.239 1.39431 0.967322 0
M  V30 2147 H 193.011 3.01407 2.49538 0
M  V30 2148 H 192.634 1.69809 3.59514 0
M  V30 2149 N 193.631 -1.12557 1.10312 0
M  V30 2150 C 195.042 -1.65574 0.862678 0
M  V30 2151 C 195.393 -1.86566 -0.607256 0
M  V30 2152 O 194.518 -1.59121 -1.46662 0
M  V30 2153 C 195.113 -3.00776 1.55947 0
M  V30 2154 C 193.672 -3.50748 1.36576 0
M  V30 2155 C 192.819 -2.25797 1.60968 0
M  V30 2156 H 195.77 -0.963552 1.26101 0
M  V30 2157 H 195.791 -3.67185 0.997753 0
M  V30 2158 H 195.303 -2.85465 2.62928 0
M  V30 2159 H 193.404 -3.71245 0.317531 0
M  V30 2160 H 193.517 -4.30289 2.10686 0
M  V30 2161 H 191.881 -2.32841 1.03234 0
M  V30 2162 H 192.664 -2.13043 2.69198 0
M  V30 2163 N 195.109 -0.891671 -1.2995 0
M  V30 2164 C 196.042 -0.307994 -2.26112 0
M  V30 2165 C 197.02 0.575262 -1.52084 0
M  V30 2166 O 198.204 0.523864 -1.81074 0
M  V30 2167 C 195.331 0.561734 -3.34009 0
M  V30 2168 C 194.377 -0.253107 -4.25748 0
M  V30 2169 S 195.21 -1.64572 -5.09584 0
M  V30 2170 C 196.366 -0.782699 -6.20987 0
M  V30 2171 H 196.599 -1.12309 -2.75271 0
M  V30 2172 H 194.132 -0.691509 -1.38049 0
M  V30 2173 H 196.09 1.05777 -3.96638 0
M  V30 2174 H 194.751 1.35099 -2.83561 0
M  V30 2175 H 193.944 0.410908 -5.02322 0
M  V30 2176 H 193.546 -0.682004 -3.67729 0
M  V30 2177 H 195.838 -0.00257476 -6.775 0
M  V30 2178 H 196.781 -1.52026 -6.91588 0
M  V30 2179 H 197.189 -0.340638 -5.63471 0
M  V30 2180 N 196.587 1.43421 -0.653314 0
M  V30 2181 C 197.517 2.33487 0.0246656 0
M  V30 2182 C 198.498 1.49475 0.811863 0
M  V30 2183 O 199.683 1.78139 0.773322 0
M  V30 2184 C 196.813 3.32841 0.99166 0
M  V30 2185 C 195.767 4.26842 0.314568 0
M  V30 2186 C 195.093 5.16236 1.39302 0
M  V30 2187 C 196.393 5.16243 -0.793095 0
M  V30 2188 H 198.087 2.90427 -0.727481 0
M  V30 2189 H 195.633 1.39649 -0.351287 0
M  V30 2190 H 197.586 3.94747 1.47487 0
M  V30 2191 H 196.31 2.74158 1.77497 0
M  V30 2192 H 194.969 3.663 -0.148199 0
M  V30 2193 H 194.617 4.53891 2.16776 0
M  V30 2194 H 194.317 5.79948 0.945223 0
M  V30 2195 H 195.841 5.81015 1.87759 0
M  V30 2196 H 197.255 5.71958 -0.392039 0
M  V30 2197 H 195.652 5.88676 -1.16536 0
M  V30 2198 H 196.722 4.55927 -1.65103 0
M  V30 2199 N 198.065 0.39524 1.52563 0
M  V30 2200 C 199.028 -0.425001 2.25225 0
M  V30 2201 C 200.028 -0.985266 1.27079 0
M  V30 2202 O 201.218 -0.866332 1.5113 0
M  V30 2203 C 198.35 -1.59686 3.01186 0
M  V30 2204 H 199.543 0.211233 2.99155 0
M  V30 2205 H 197.096 0.147472 1.55603 0
M  V30 2206 H 197.831 -2.27035 2.31572 0
M  V30 2207 H 197.616 -1.20176 3.73229 0
M  V30 2208 H 199.106 -2.17743 3.5634 0
M  V30 2209 N 199.544 -1.57102 0.125237 0
M  V30 2210 C 200.772 -1.99761 -0.538797 0
M  V30 2211 C 201.187 -1.00503 -1.59827 0
M  V30 2212 O 200.544 0.00119474 -1.825 0
M  V30 2213 C 200.595 -3.42408 -1.15927 0
M  V30 2214 O 200.316 -4.37869 -0.142143 0
M  V30 2215 C 201.817 -4.00232 -1.90602 0
M  V30 2216 H 199.037 -0.655772 -0.14214 0
M  V30 2217 H 201.581 -2.03383 0.213413 0
M  V30 2218 H 199.736 -3.39706 -1.86223 0
M  V30 2219 H 200.15 -5.21128 -0.593775 0
M  V30 2220 H 201.624 -5.02105 -2.29335 0
M  V30 2221 H 202.101 -3.39721 -2.78363 0
M  V30 2222 H 202.707 -4.06499 -1.25055 0
M  V30 2223 N 201.022 0.148545 -1.56898 0
M  V30 2224 C 202.27 0.859717 -1.82902 0
M  V30 2225 C 202.591 1.81775 -0.70588 0
M  V30 2226 O 201.861 1.93994 0.272586 0
M  V30 2227 H 200.441 0.320469 -0.674766 0
M  V30 2228 H 203.103 0.142918 -1.94375 0
M  V30 2229 H 202.199 1.4229 -2.77777 0
M  V30 2230 N 202.5 1.5196 0.417844 0
M  V30 2231 C 203.746 1.65836 1.16732 0
M  V30 2232 C 204.079 0.382881 1.90388 0
M  V30 2233 O 203.354 -0.618368 1.84408 0
M  V30 2234 C 203.637 2.87466 2.16876 0
M  V30 2235 C 203.49 4.25041 1.47174 0
M  V30 2236 C 204.809 3.04613 3.17646 0
M  V30 2237 H 201.928 0.603515 0.423011 0
M  V30 2238 H 204.57 1.84494 0.454105 0
M  V30 2239 H 202.72 2.71689 2.777 0
M  V30 2240 H 204.392 4.52527 0.895376 0
M  V30 2241 H 202.635 4.26843 0.773806 0
M  V30 2242 H 203.306 5.06176 2.20204 0
M  V30 2243 H 205.782 3.1923 2.66892 0
M  V30 2244 H 204.658 3.91247 3.8499 0
M  V30 2245 H 204.919 2.17541 3.84874 0
M  V30 2246 N 203.978 -0.674533 1.42435 0
M  V30 2247 C 205.203 -1.46784 1.46524 0
M  V30 2248 C 205.628 -1.87938 0.078066 0
M  V30 2249 O 204.986 -1.56014 -0.92354 0
M  V30 2250 C 205.034 -2.69307 2.39805 0
M  V30 2251 O 204.138 -3.67587 1.86959 0
M  V30 2252 H 203.479 -0.440959 0.496439 0
M  V30 2253 H 206.009 -0.827326 1.87127 0
M  V30 2254 H 206.019 -3.17374 2.56393 0
M  V30 2255 H 204.694 -2.38692 3.40586 0
M  V30 2256 H 203.271 -3.2662 1.79927 0
M  V30 2257 N 205.456 -1.28612 -0.910864 0
M  V30 2258 C 206.681 -1.1891 -1.69927 0
M  V30 2259 C 207.106 0.248372 -1.86453 0
M  V30 2260 O 206.464 1.17961 -1.37676 0
M  V30 2261 C 206.512 -1.89578 -3.06745 0
M  V30 2262 O 205.616 -1.20521 -3.94396 0
M  V30 2263 H 204.957 -0.412632 -0.520222 0
M  V30 2264 H 207.487 -1.69985 -1.1387 0
M  V30 2265 H 207.497 -1.97597 -3.56958 0
M  V30 2266 H 206.172 -2.94136 -2.94035 0
M  V30 2267 H 204.749 -1.20684 -3.52831 0
M  V30 2268 N 206.934 1.1197 -1.10907 0
M  V30 2269 C 208.183 1.82947 -0.849302 0
M  V30 2270 C 208.496 1.85275 0.627112 0
M  V30 2271 O 209.702 2.52296 1.00295 0
M  V30 2272 C 208.158 3.28529 -1.46959 0
M  V30 2273 C 207.766 3.34546 -2.97965 0
M  V30 2274 C 209.51 4.04443 -1.28942 0
M  V30 2275 C 207.417 4.74491 -3.53004 0
M  V30 2276 H 206.347 0.685477 -0.314065 0
M  V30 2277 H 208.998 1.2604 -1.33365 0
M  V30 2278 H 207.38 3.85333 -0.912917 0
M  V30 2279 H 208.554 2.87654 -3.59989 0
M  V30 2280 H 206.869 2.72108 -3.15192 0
M  V30 2281 H 209.466 5.07787 -1.67502 0
M  V30 2282 H 209.809 4.15656 -0.231456 0
M  V30 2283 H 210.342 3.5401 -1.81443 0
M  V30 2284 H 207.081 4.68474 -4.58489 0
M  V30 2285 H 206.601 5.21816 -2.9575 0
M  V30 2286 H 208.28 5.4344 -3.51115 0
M  V30 2287 N 208.412 0.89855 1.29475 0
M  V30 2288 C 209.359 0.373819 2.27753 0
M  V30 2289 C 210.329 -0.543444 1.56958 0
M  V30 2290 O 211.514 -0.468934 1.84948 0
M  V30 2291 C 208.654 -0.393648 3.42848 0
M  V30 2292 C 207.767 0.554379 4.28428 0
M  V30 2293 C 206.902 -0.230026 5.30702 0
M  V30 2294 C 205.941 0.712599 6.07938 0
M  V30 2295 N 205.078 -0.0373283 7.0209 0
M  V30 2296 H 209.918 1.21699 2.72017 0
M  V30 2297 H 207.455 0.611456 1.33789 0
M  V30 2298 H 209.413 -0.85466 4.08352 0
M  V30 2299 H 208.043 -1.20128 2.99615 0
M  V30 2300 H 207.095 1.13391 3.63107 0
M  V30 2301 H 208.407 1.27597 4.82204 0
M  V30 2302 H 207.561 -0.752288 6.02018 0
M  V30 2303 H 206.3 -0.984758 4.77654 0
M  V30 2304 H 205.305 1.24637 5.35486 0
M  V30 2305 H 206.53 1.46664 6.63074 0
M  V30 2306 H 204.476 -0.774348 6.51414 0
M  V30 2307 H 204.393 0.624374 7.53417 0
M  V30 2308 H 205.661 -0.539891 7.77628 0
M  V30 2309 N 209.89 -1.43072 0.660911 0
M  V30 2310 C 210.853 -2.29194 -0.0166406 0
M  V30 2311 C 211.853 -1.42609 -0.742912 0
M  V30 2312 O 213.043 -1.64155 -0.583004 0
M  V30 2313 C 210.175 -3.24831 -1.0343 0
M  V30 2314 H 211.368 -2.90596 0.741208 0
M  V30 2315 H 208.921 -1.5048 0.422532 0
M  V30 2316 H 209.656 -2.68339 -1.82111 0
M  V30 2317 H 209.441 -3.88676 -0.517082 0
M  V30 2318 H 210.931 -3.89451 -1.50723 0
M  V30 2319 N 211.368 -0.403325 -1.52352 0
M  V30 2320 C 212.617 0.175668 -2.00934 0
M  V30 2321 C 212.93 1.46718 -1.29356 0
M  V30 2322 O 214.136 2.12708 -1.68724 0
M  V30 2323 C 212.592 0.363612 -3.58058 0
M  V30 2324 C 212.2 -0.915472 -4.38547 0
M  V30 2325 C 213.944 0.89821 -4.14888 0
M  V30 2326 C 211.851 -0.695035 -5.87302 0
M  V30 2327 H 210.781 0.0694234 -0.750797 0
M  V30 2328 H 213.432 -0.527879 -1.75743 0
M  V30 2329 H 211.814 1.12935 -3.79555 0
M  V30 2330 H 212.988 -1.68691 -4.28812 0
M  V30 2331 H 211.303 -1.37606 -3.93006 0
M  V30 2332 H 213.9 1.07907 -5.23699 0
M  V30 2333 H 214.243 1.87126 -3.71873 0
M  V30 2334 H 214.776 0.191681 -3.97338 0
M  V30 2335 H 211.515 -1.63948 -6.34666 0
M  V30 2336 H 211.035 0.0372116 -5.99788 0
M  V30 2337 H 212.714 -0.33497 -6.46132 0
M  V30 2338 N 212.846 1.57033 -0.133567 0
M  V30 2339 C 213.756 2.19632 0.824564 0
M  V30 2340 C 214.772 1.17666 1.28182 0
M  V30 2341 O 215.948 1.50193 1.3418 0
M  V30 2342 C 213.013 2.79499 2.05137 0
M  V30 2343 C 212.074 3.96548 1.64464 0
M  V30 2344 C 211.307 4.5355 2.81297 0
M  V30 2345 O 211.53 4.09438 3.97136 0
M  V30 2346 O 210.464 5.44018 2.57542 0
M  V30 2347 H 214.29 3.01991 0.321766 0
M  V30 2348 H 211.875 1.49112 0.0927889 0
M  V30 2349 H 213.757 3.17602 2.7696 0
M  V30 2350 H 212.432 2.00162 2.54395 0
M  V30 2351 H 211.339 3.63186 0.897048 0
M  V30 2352 H 212.672 4.77364 1.19934 0
M  V30 2353 N 214.325 -0.140222 1.56975 0
M  V30 2354 C 215.574 -0.850152 1.82908 0
M  V30 2355 C 215.887 -1.82028 0.715892 0
M  V30 2356 O 217.093 -2.57485 0.861016 0
M  V30 2357 C 215.549 -1.5625 3.24213 0
M  V30 2358 C 215.157 -0.63443 4.43485 0
M  V30 2359 C 216.901 -2.25881 3.59413 0
M  V30 2360 C 214.808 -1.34879 5.75814 0
M  V30 2361 H 213.738 -0.321221 0.682153 0
M  V30 2362 H 216.389 -0.102874 1.83211 0
M  V30 2363 H 214.771 -2.35565 3.18316 0
M  V30 2364 H 215.945 0.12398 4.60633 0
M  V30 2365 H 214.26 -0.0461836 4.16374 0
M  V30 2366 H 216.857 -2.79978 4.5554 0
M  V30 2367 H 217.2 -3.02693 2.85802 0
M  V30 2368 H 217.733 -1.53477 3.67001 0
M  V30 2369 H 214.472 -0.622385 6.52539 0
M  V30 2370 H 213.992 -2.07974 5.6259 0
M  V30 2371 H 215.671 -1.88784 6.18845 0
M  V30 2372 N 215.803 -1.52179 -0.40978 0
M  V30 2373 C 216.733 -1.78435 -1.5061 0
M  V30 2374 C 217.714 -0.635295 -1.57791 0
M  V30 2375 O 218.899 -0.880823 -1.73076 0
M  V30 2376 C 216.029 -1.93444 -2.88439 0
M  V30 2377 C 214.983 -3.09038 -2.96108 0
M  V30 2378 C 214.309 -3.09268 -4.36185 0
M  V30 2379 C 215.609 -4.48508 -2.67652 0
M  V30 2380 H 217.303 -2.70237 -1.28889 0
M  V30 2381 H 214.849 -1.30036 -0.618605 0
M  V30 2382 H 216.802 -2.10394 -3.65119 0
M  V30 2383 H 215.526 -0.983129 -3.11452 0
M  V30 2384 H 214.185 -2.91837 -2.21872 0
M  V30 2385 H 213.833 -2.11861 -4.56206 0
M  V30 2386 H 213.533 -3.86907 -4.42241 0
M  V30 2387 H 215.057 -3.28348 -5.14801 0
M  V30 2388 H 216.471 -4.65918 -3.34056 0
M  V30 2389 H 214.868 -5.28059 -2.85085 0
M  V30 2390 H 215.938 -4.56649 -1.63095 0
M  V30 2391 N 217.281 0.66697 -1.42791 0
M  V30 2392 C 218.228 1.7803 -1.4688 0
M  V30 2393 C 219.198 1.6299 -0.319919 0
M  V30 2394 O 220.383 1.83432 -0.525118 0
M  V30 2395 C 217.523 3.1611 -1.38451 0
M  V30 2396 C 216.636 3.42381 -2.63437 0
M  V30 2397 C 215.771 4.70232 -2.47094 0
M  V30 2398 C 214.81 4.89564 -3.67415 0
M  V30 2399 N 213.947 6.08661 -3.49966 0
M  V30 2400 H 218.787 1.7387 -2.42019 0
M  V30 2401 H 216.324 0.84868 -1.20149 0
M  V30 2402 H 218.282 3.95914 -1.31561 0
M  V30 2403 H 216.912 3.19374 -0.469033 0
M  V30 2404 H 215.964 2.56774 -2.80662 0
M  V30 2405 H 217.276 3.52557 -3.52853 0
M  V30 2406 H 216.43 5.5814 -2.37834 0
M  V30 2407 H 215.169 4.62353 -1.5518 0
M  V30 2408 H 214.174 4.00096 -3.77099 0
M  V30 2409 H 215.399 4.99282 -4.6032 0
M  V30 2410 H 213.345 6.0194 -2.60776 0
M  V30 2411 H 213.262 6.19733 -4.32975 0
M  V30 2412 H 214.53 6.99226 -3.44532 0
M  V30 2413 N 218.759 1.29093 0.90403 0
M  V30 2414 C 219.669 1.15727 2.0407 0
M  V30 2415 C 220.685 0.0815308 1.73809 0
M  V30 2416 O 221.861 0.292749 1.99261 0
M  V30 2417 C 218.926 0.830424 3.36608 0
M  V30 2418 C 217.987 1.98955 3.80415 0
M  V30 2419 C 217.22 1.6782 5.06628 0
M  V30 2420 O 217.443 0.597105 5.67266 0
M  V30 2421 O 216.377 2.52486 5.46383 0
M  V30 2422 H 220.203 2.11171 2.18267 0
M  V30 2423 H 217.788 1.08504 1.027 0
M  V30 2424 H 219.67 0.662521 4.16159 0
M  V30 2425 H 218.345 -0.0942678 3.23563 0
M  V30 2426 H 217.252 2.21267 3.01648 0
M  V30 2427 H 218.585 2.89529 3.98037 0
M  V30 2428 N 220.237 -1.11381 1.11499 0
M  V30 2429 C 221.185 -2.19522 0.768956 0
M  V30 2430 C 222.179 -1.67693 -0.239857 0
M  V30 2431 O 223.385 -1.79727 -0.0990755 0
M  V30 2432 H 219.76 -0.715711 0.230786 0
M  V30 2433 H 221.731 -2.45954 1.68964 0
M  V30 2434 C 220.48 -3.46945 0.229073 0
M  V30 2435 H 219.803 -3.8718 0.996596 0
M  V30 2436 H 221.243 -4.23993 0.0251441 0
M  V30 2437 C 219.702 -3.2042 -1.04079 0
M  V30 2438 O 220.232 -3.41178 -2.12038 0
M  V30 2439 N 218.438 -2.74151 -0.963823 0
M  V30 2440 H 217.985 -2.57459 -0.0851722 0
M  V30 2441 H 217.943 -2.56781 -1.81414 0
M  V30 2442 N 221.715 -0.905404 -1.28997 0
M  V30 2443 C 222.963 -0.533192 -1.9494 0
M  V30 2444 C 223.284 0.924618 -1.71685 0
M  V30 2445 O 222.554 1.65268 -1.05183 0
M  V30 2446 H 221.134 -0.194194 -0.721317 0
M  V30 2447 H 223.796 -1.15294 -1.57141 0
M  V30 2448 H 222.892 -0.72059 -3.03667 0
M  V30 2449 N 223.193 1.4272 -0.668489 0
M  V30 2450 C 224.156 2.292 0.00448567 0
M  V30 2451 C 225.156 1.43001 0.735339 0
M  V30 2452 O 226.346 1.64461 0.57429 0
M  V30 2453 C 223.478 3.25375 1.01705 0
M  V30 2454 H 224.671 2.90199 -0.756608 0
M  V30 2455 H 222.224 1.50254 -0.430506 0
M  V30 2456 H 222.959 2.69301 1.80686 0
M  V30 2457 H 222.744 3.88944 0.496463 0
M  V30 2458 H 224.234 3.90245 1.48655 0
M  V30 2459 N 224.671 0.411399 1.52136 0
M  V30 2460 C 225.618 -0.412975 2.27075 0
M  V30 2461 C 226.588 -1.03912 1.29582 0
M  V30 2462 O 227.773 -1.06296 1.58448 0
M  V30 2463 C 224.913 -1.52247 3.09701 0
M  V30 2464 C 224.026 -0.917021 4.22155 0
M  V30 2465 C 223.161 -1.9994 4.92135 0
M  V30 2466 C 222.2 -1.37101 5.96548 0
M  V30 2467 N 221.337 -2.39364 6.60038 0
M  V30 2468 H 226.177 0.232499 2.97092 0
M  V30 2469 H 223.714 0.126496 1.46555 0
M  V30 2470 H 225.672 -2.17674 3.55913 0
M  V30 2471 H 224.302 -2.13794 2.41851 0
M  V30 2472 H 223.354 -0.151742 3.80097 0
M  V30 2473 H 224.666 -0.418006 4.97045 0
M  V30 2474 H 223.82 -2.73088 5.41763 0
M  V30 2475 H 222.559 -2.53208 4.16818 0
M  V30 2476 H 221.564 -0.624873 5.46237 0
M  V30 2477 H 222.789 -0.845998 6.7381 0
M  V30 2478 H 220.735 -2.91759 5.87548 0
M  V30 2479 H 220.652 -1.9428 7.3061 0
M  V30 2480 H 221.92 -3.12074 7.14304 0
M  V30 2481 N 226.149 -1.5696 0.141893 0
M  V30 2482 C 227.096 -2.16501 -0.799737 0
M  V30 2483 C 228.066 -1.09643 -1.24771 0
M  V30 2484 O 229.251 -1.3766 -1.32115 0
M  V30 2485 C 226.391 -2.78679 -2.03549 0
M  V30 2486 C 225.504 -3.99914 -1.6338 0
M  V30 2487 C 224.639 -4.50106 -2.82096 0
M  V30 2488 C 223.678 -5.63819 -2.38275 0
M  V30 2489 N 222.815 -6.08651 -3.49983 0
M  V30 2490 H 227.655 -2.96632 -0.285179 0
M  V30 2491 H 225.192 -1.46533 -0.129053 0
M  V30 2492 H 227.15 -3.1287 -2.75986 0
M  V30 2493 H 225.78 -2.012 -2.52425 0
M  V30 2494 H 224.832 -3.71735 -0.807279 0
M  V30 2495 H 226.144 -4.82311 -1.27192 0
M  V30 2496 H 225.298 -4.86325 -3.62729 0
M  V30 2497 H 224.037 -3.66706 -3.21525 0
M  V30 2498 H 223.042 -5.2718 -1.56081 0
M  V30 2499 H 224.267 -6.49 -1.99938 0
M  V30 2500 H 222.213 -5.28188 -3.89042 0
M  V30 2501 H 222.13 -6.85961 -3.17794 0
M  V30 2502 H 223.398 -6.49515 -4.30988 0
M  V30 2503 N 227.627 0.131896 -1.57047 0
M  V30 2504 C 228.876 0.84044 -1.83356 0
M  V30 2505 C 229.189 1.81646 -0.725535 0
M  V30 2506 O 230.395 2.57025 -0.874659 0
M  V30 2507 C 228.851 1.54528 -3.25037 0
M  V30 2508 C 228.459 0.610902 -4.43815 0
M  V30 2509 C 230.203 2.23972 -3.60606 0
M  V30 2510 C 228.11 1.31823 -5.76521 0
M  V30 2511 H 227.04 0.317599 -0.683847 0
M  V30 2512 H 229.691 0.0931561 -1.83263 0
M  V30 2513 H 228.073 2.33873 -3.19561 0
M  V30 2514 H 229.247 -0.148407 -4.60561 0
M  V30 2515 H 227.562 0.0241016 -4.16393 0
M  V30 2516 H 230.159 2.77558 -4.57018 0
M  V30 2517 H 230.502 3.01173 -2.87403 0
M  V30 2518 H 231.035 1.51529 -3.6781 0
M  V30 2519 H 227.774 0.587771 -6.52859 0
M  V30 2520 H 227.294 2.04987 -5.63685 0
M  V30 2521 H 228.973 1.855 -6.19838 0
M  V30 2522 N 229.106 1.52395 0.401703 0
M  V30 2523 C 230.334 1.70676 1.16949 0
M  V30 2524 C 230.749 0.419503 1.8408 0
M  V30 2525 O 230.106 -0.605061 1.72178 0
M  V30 2526 C 230.157 2.84753 2.22706 0
M  V30 2527 O 229.878 4.08495 1.58314 0
M  V30 2528 C 231.379 3.14608 3.12309 0
M  V30 2529 H 228.599 0.571787 0.351142 0
M  V30 2530 H 231.143 1.98987 0.471652 0
M  V30 2531 H 229.298 2.58941 2.88147 0
M  V30 2532 H 229.712 4.72117 2.28485 0
M  V30 2533 H 231.186 3.97923 3.82572 0
M  V30 2534 H 231.663 2.28464 3.75101 0
M  V30 2535 H 232.269 3.42212 2.52529 0
M  V30 2536 N 230.584 -0.659388 1.43143 0
M  V30 2537 C 231.514 -1.78422 1.50625 0
M  V30 2538 C 232.495 -1.66216 0.361443 0
M  V30 2539 O 233.68 -1.85404 0.577834 0
M  V30 2540 C 230.81 -3.16815 1.42287 0
M  V30 2541 C 229.764 -3.43777 2.54954 0
M  V30 2542 C 229.09 -4.81905 2.31671 0
M  V30 2543 C 230.39 -3.39134 3.97222 0
M  V30 2544 H 232.084 -1.72417 2.44771 0
M  V30 2545 H 229.63 -0.828084 1.17808 0
M  V30 2546 H 231.583 -3.95253 1.46127 0
M  V30 2547 H 230.307 -3.23534 0.446435 0
M  V30 2548 H 228.966 -2.67707 2.50457 0
M  V30 2549 H 228.614 -4.85294 1.32284 0
M  V30 2550 H 228.314 -5.00906 3.07192 0
M  V30 2551 H 229.838 -5.62609 2.37284 0
M  V30 2552 H 231.252 -4.07518 4.03239 0
M  V30 2553 H 229.649 -3.69671 4.72719 0
M  V30 2554 H 230.719 -2.37426 4.22797 0
M  V30 2555 N 232.062 -1.29571 -0.897171 0
M  V30 2556 C 233.308 -1.17863 -1.65034 0
M  V30 2557 C 233.641 0.268729 -1.92332 0
M  V30 2558 O 232.916 1.19378 -1.53555 0
M  V30 2559 C 233.199 -1.995 -2.99786 0
M  V30 2560 C 233.052 -3.5239 -2.79538 0
M  V30 2561 C 234.371 -1.82335 -4.00552 0
M  V30 2562 H 231.49 -0.429528 -0.598895 0
M  V30 2563 H 234.132 -1.59072 -1.03905 0
M  V30 2564 H 232.282 -1.64485 -3.51962 0
M  V30 2565 H 233.954 -3.97401 -2.34244 0
M  V30 2566 H 232.197 -3.77187 -2.14273 0
M  V30 2567 H 232.868 -4.04787 -3.75302 0
M  V30 2568 H 235.344 -2.12924 -3.57495 0
M  V30 2569 H 234.22 -2.41801 -4.92771 0
M  V30 2570 H 234.481 -0.779209 -4.35179 0
M  V30 2571 N 233.54 1.10788 -1.12088 0
M  V30 2572 C 234.503 2.15207 -0.788577 0
M  V30 2573 C 235.503 1.59609 0.195317 0
M  V30 2574 O 236.693 1.74174 -0.0300193 0
M  V30 2575 C 233.825 3.4047 -0.171174 0
M  V30 2576 H 235.018 2.46116 -1.71368 0
M  V30 2577 H 232.571 1.26089 -0.923652 0
M  V30 2578 H 233.306 3.15176 0.763832 0
M  V30 2579 H 233.091 3.82109 -0.879514 0
M  V30 2580 H 234.581 4.17576 0.04496 0
M  V30 2581 N 235.018 0.912232 1.28515 0
M  V30 2582 C 235.948 0.416403 2.29757 0
M  V30 2583 C 236.929 -0.515194 1.6211 0
M  V30 2584 O 238.114 -0.423253 1.89532 0
M  V30 2585 C 235.244 -0.34572 3.45575 0
M  V30 2586 C 234.198 0.496599 4.25109 0
M  V30 2587 C 233.524 -0.393771 5.33248 0
M  V30 2588 C 234.824 1.75307 4.92001 0
M  V30 2589 H 236.518 1.26249 2.7148 0
M  V30 2590 H 234.064 0.608515 1.30511 0
M  V30 2591 H 236.017 -0.703422 4.15488 0
M  V30 2592 H 234.741 -1.2257 3.02728 0
M  V30 2593 H 233.4 0.8368 3.56922 0
M  V30 2594 H 233.048 -1.27225 4.86644 0
M  V30 2595 H 232.748 0.166209 5.87365 0
M  V30 2596 H 234.272 -0.747389 6.06009 0
M  V30 2597 H 235.686 1.46437 5.54283 0
M  V30 2598 H 234.083 2.25534 5.56106 0
M  V30 2599 H 235.153 2.48176 4.16577 0
M  V30 2600 N 236.496 -1.42363 0.676048 0
M  V30 2601 C 237.745 -2.00745 0.196037 0
M  V30 2602 C 238.058 -1.54083 -1.20489 0
M  V30 2603 O 239.264 -2.04891 -1.78134 0
M  V30 2604 C 237.72 -3.58651 0.299616 0
M  V30 2605 C 237.328 -4.143 1.70468 0
M  V30 2606 C 239.072 -4.24326 -0.121619 0
M  V30 2607 C 236.979 -5.64574 1.76096 0
M  V30 2608 H 235.909 -0.750787 0.0695301 0
M  V30 2609 H 238.56 -1.63072 0.841412 0
M  V30 2610 H 236.942 -3.93833 -0.413673 0
M  V30 2611 H 238.116 -3.90575 2.44515 0
M  V30 2612 H 236.431 -3.61081 2.07387 0
M  V30 2613 H 239.028 -5.34607 -0.0997362 0
M  V30 2614 H 239.371 -3.99897 -1.15708 0
M  V30 2615 H 239.904 -3.94108 0.540706 0
M  V30 2616 H 236.643 -5.93804 2.77628 0
M  V30 2617 H 236.163 -5.90286 1.06406 0
M  V30 2618 H 237.842 -6.29013 1.51496 0
M  V30 2619 N 237.974 -0.419461 -1.51915 0
M  V30 2620 C 238.937 0.389116 -2.25873 0
M  V30 2621 C 239.937 0.964924 -1.28631 0
M  V30 2622 O 241.127 0.842179 -1.52489 0
M  V30 2623 C 238.259 1.54874 -3.03689 0
M  V30 2624 H 239.452 -0.258799 -2.98781 0
M  V30 2625 H 237.005 -0.172209 -1.55348 0
M  V30 2626 H 237.74 2.23323 -2.35154 0
M  V30 2627 H 237.525 1.14223 -3.75094 0
M  V30 2628 H 239.015 2.12046 -3.59759 0
M  V30 2629 N 239.452 1.56882 -0.150215 0
M  V30 2630 C 240.415 2.1573 0.774157 0
M  V30 2631 C 241.415 1.0999 1.17298 0
M  V30 2632 O 242.605 1.35613 1.09338 0
M  V30 2633 C 239.737 2.72302 2.05096 0
M  V30 2634 H 240.93 2.98752 0.262201 0
M  V30 2635 H 238.483 1.55985 0.099248 0
M  V30 2636 H 239.218 1.92956 2.6065 0
M  V30 2637 H 239.003 3.49665 1.77416 0
M  V30 2638 H 240.493 3.17632 2.71109 0
M  V30 2639 N 240.93 -0.123565 1.57115 0
M  V30 2640 C 242.341 -0.681198 1.73829 0
M  V30 2641 C 242.692 -1.80535 0.768214 0
M  V30 2642 O 241.817 -2.16317 -0.0599103 0
M  V30 2643 C 242.412 -1.24246 3.15196 0
M  V30 2644 C 240.971 -1.74643 3.33432 0
M  V30 2645 C 240.118 -0.644284 2.69711 0
M  V30 2646 H 243.069 0.102315 1.5837 0
M  V30 2647 H 243.09 -2.11216 3.16493 0
M  V30 2648 H 242.602 -0.424062 3.85776 0
M  V30 2649 H 240.703 -2.58974 2.67886 0
M  V30 2650 H 240.816 -1.85902 4.41562 0
M  V30 2651 H 239.18 -1.07676 2.3082 0
M  V30 2652 H 239.963 0.163058 3.42913 0
M  V30 2653 N 242.408 -1.52605 -0.393616 0
M  V30 2654 C 243.318 -1.79971 -1.50492 0
M  V30 2655 C 244.334 -0.686181 -1.59899 0
M  V30 2656 O 245.51 -0.973274 -1.76322 0
M  V30 2657 C 242.575 -1.95867 -2.86072 0
M  V30 2658 C 241.636 -3.19781 -2.86424 0
M  V30 2659 C 240.869 -3.34909 -4.15538 0
M  V30 2660 O 241.092 -2.54948 -5.10253 0
M  V30 2661 O 240.026 -4.28141 -4.23059 0
M  V30 2662 H 243.852 -2.74328 -1.30299 0
M  V30 2663 H 241.437 -1.3764 -0.581005 0
M  V30 2664 H 243.319 -2.08056 -3.66457 0
M  V30 2665 H 241.994 -1.04699 -3.063 0
M  V30 2666 H 240.901 -3.13038 -2.04837 0
M  V30 2667 H 242.234 -4.1078 -2.71147 0
M  V30 2668 N 243.887 0.651787 -1.4349 0
M  V30 2669 C 245.135 1.40888 -1.44897 0
M  V30 2670 C 245.456 1.94856 -0.0749086 0
M  V30 2671 O 244.726 1.74518 0.889956 0
M  V30 2672 H 243.306 0.522887 -0.533478 0
M  V30 2673 H 245.968 0.768609 -1.79104 0
M  V30 2674 H 245.064 2.25052 -2.16236 0
M  V30 2675 N 245.365 1.30045 0.890287 0
M  V30 2676 C 246.611 1.18737 1.64406 0
M  V30 2677 C 246.944 -0.258525 1.92472 0
M  V30 2678 O 246.219 -1.18562 1.54186 0
M  V30 2679 C 246.502 2.01087 2.98724 0
M  V30 2680 C 246.355 3.53867 2.77665 0
M  V30 2681 C 247.674 1.84457 3.9958 0
M  V30 2682 H 244.793 0.432698 0.596608 0
M  V30 2683 H 247.435 1.5962 1.0306 0
M  V30 2684 H 245.585 1.66349 3.51084 0
M  V30 2685 H 247.257 3.98637 2.32133 0
M  V30 2686 H 245.5 3.78318 2.12269 0
M  V30 2687 H 246.171 4.06772 3.7315 0
M  V30 2688 H 248.647 2.14817 3.56361 0
M  V30 2689 H 247.523 2.44411 4.91482 0
M  V30 2690 H 247.784 0.802276 4.3476 0
M  V30 2691 N 246.843 -1.10192 1.12674 0
M  V30 2692 C 247.753 -2.20172 0.810026 0
M  V30 2693 C 248.769 -1.72821 -0.202188 0
M  V30 2694 O 249.945 -2.01369 -0.0351691 0
M  V30 2695 C 247.01 -3.45631 0.272007 0
M  V30 2696 C 246.071 -4.07704 1.34447 0
M  V30 2697 C 245.304 -5.27175 0.832029 0
M  V30 2698 O 245.527 -5.69425 -0.333284 0
M  V30 2699 O 244.461 -5.80168 1.60277 0
M  V30 2700 H 248.287 -2.49701 1.72867 0
M  V30 2701 H 245.872 -1.18977 0.903597 0
M  V30 2702 H 247.754 -4.21394 -0.0230219 0
M  V30 2703 H 246.429 -3.17723 -0.619164 0
M  V30 2704 H 245.336 -3.33614 1.6927 0
M  V30 2705 H 246.669 -4.3982 2.2095 0
M  V30 2706 N 248.321 -0.919034 -1.28029 0
M  V30 2707 C 249.284 -0.416182 -2.2539 0
M  V30 2708 C 250.284 0.460438 -1.54067 0
M  V30 2709 O 251.474 0.262744 -1.72207 0
M  V30 2710 C 248.606 0.402707 -3.38513 0
M  V30 2711 H 249.799 -1.27629 -2.71387 0
M  V30 2712 H 247.352 -0.698919 -1.39803 0
M  V30 2713 H 248.087 1.282 -2.97885 0
M  V30 2714 H 247.872 -0.225698 -3.9145 0
M  V30 2715 H 249.362 0.745191 -4.10897 0
M  V30 2716 N 249.799 1.42003 -0.683588 0
M  V30 2717 C 251.045 2.01712 -0.209825 0
M  V30 2718 C 251.378 1.53968 1.18353 0
M  V30 2719 O 250.653 0.745661 1.79639 0
M  V30 2720 C 250.936 3.59202 -0.254197 0
M  V30 2721 C 250.789 4.17102 -1.68363 0
M  V30 2722 C 252.108 4.38344 0.392709 0
M  V30 2723 H 249.227 0.732891 -0.0777189 0
M  V30 2724 H 251.869 1.68909 -0.87004 0
M  V30 2725 H 250.019 3.87278 0.307954 0
M  V30 2726 H 251.691 3.99946 -2.29871 0
M  V30 2727 H 249.934 3.72597 -2.22157 0
M  V30 2728 H 250.605 5.26249 -1.6663 0
M  V30 2729 H 253.081 4.16011 -0.0859162 0
M  V30 2730 H 251.957 5.47901 0.331063 0
M  V30 2731 H 252.218 4.16887 1.47164 0
M  V30 2732 N 251.277 0.427512 1.51691 0
M  V30 2733 C 252.187 -0.39527 2.31246 0
M  V30 2734 C 253.203 -1.03674 1.39742 0
M  V30 2735 O 254.379 -1.03425 1.72816 0
M  V30 2736 C 251.444 -1.48706 3.13189 0
M  V30 2737 C 250.505 -0.866743 4.20459 0
M  V30 2738 C 249.738 -1.90651 4.98486 0
M  V30 2739 O 249.961 -3.12733 4.77026 0
M  V30 2740 O 248.895 -1.5025 5.82845 0
M  V30 2741 H 252.721 0.253918 3.02637 0
M  V30 2742 H 250.306 0.190274 1.48183 0
M  V30 2743 H 252.188 -2.12047 3.64162 0
M  V30 2744 H 250.863 -2.12051 2.44573 0
M  V30 2745 H 249.77 -0.195544 3.73589 0
M  V30 2746 H 251.103 -0.276934 4.9142 0
M  V30 2747 N 252.755 -1.56801 0.158532 0
M  V30 2748 C 253.702 -2.17337 -0.776729 0
M  V30 2749 C 254.672 -1.1096 -1.23601 0
M  V30 2750 O 255.857 -1.39054 -1.30647 0
M  V30 2751 C 252.997 -2.80822 -2.00582 0
M  V30 2752 C 252.11 -4.01624 -1.59129 0
M  V30 2753 C 251.245 -4.53072 -2.77306 0
M  V30 2754 C 250.284 -5.66314 -2.32282 0
M  V30 2755 N 249.421 -6.12329 -3.43508 0
M  V30 2756 H 254.261 -2.96918 -0.253701 0
M  V30 2757 H 251.798 -1.46661 -0.113504 0
M  V30 2758 H 253.756 -3.15779 -2.72652 0
M  V30 2759 H 252.386 -2.03866 -2.50277 0
M  V30 2760 H 251.438 -3.72571 -0.767806 0
M  V30 2761 H 252.75 -4.83633 -1.2207 0
M  V30 2762 H 251.904 -4.90145 -3.57551 0
M  V30 2763 H 250.643 -3.70095 -3.17617 0
M  V30 2764 H 249.648 -5.28806 -1.5048 0
M  V30 2765 H 250.873 -6.51085 -1.93043 0
M  V30 2766 H 248.819 -5.32284 -3.83418 0
M  V30 2767 H 248.736 -6.89293 -3.105 0
M  V30 2768 H 250.004 -6.5405 -4.24075 0
M  V30 2769 N 254.233 0.115231 -1.57178 0
M  V30 2770 C 255.18 1.14115 -2.00615 0
M  V30 2771 C 256.15 1.40939 -0.878941 0
M  V30 2772 O 257.335 1.52741 -1.14345 0
M  V30 2773 C 254.475 2.46156 -2.4187 0
M  V30 2774 C 253.588 2.26236 -3.68024 0
M  V30 2775 C 252.723 3.51534 -3.98243 0
M  V30 2776 C 251.762 3.26787 -5.17568 0
M  V30 2777 N 250.899 4.44298 -5.43639 0
M  V30 2778 H 255.739 0.763743 -2.88047 0
M  V30 2779 H 253.276 0.365615 -1.42484 0
M  V30 2780 H 255.234 3.23189 -2.63827 0
M  V30 2781 H 253.864 2.81783 -1.57475 0
M  V30 2782 H 252.916 1.40102 -3.5366 0
M  V30 2783 H 254.228 2.03929 -4.55208 0
M  V30 2784 H 253.382 4.36984 -4.20868 0
M  V30 2785 H 252.121 3.76876 -3.09541 0
M  V30 2786 H 251.126 2.39729 -4.94783 0
M  V30 2787 H 252.351 3.02812 -6.0785 0
M  V30 2788 H 250.297 4.69754 -4.57895 0
M  V30 2789 H 250.214 4.25109 -6.25154 0
M  V30 2790 H 251.482 5.3087 -5.70786 0
M  V30 2791 N 255.711 1.52812 0.385517 0
M  V30 2792 C 256.941 1.71658 1.14966 0
M  V30 2793 C 257.349 0.436253 1.84102 0
M  V30 2794 O 256.692 -0.599313 1.73649 0
M  V30 2795 C 256.754 2.81309 2.23843 0
M  V30 2796 C 256.418 4.22313 1.74644 0
M  V30 2797 C 257.415 5.05352 1.22129 0
M  V30 2798 C 255.1 4.68648 1.80761 0
M  V30 2799 C 257.094 6.32807 0.763838 0
M  V30 2800 C 254.781 5.96086 1.34627 0
M  V30 2801 C 255.779 6.77996 0.825264 0
M  V30 2802 O 255.467 8.03045 0.370669 0
M  V30 2803 H 255.199 0.578022 0.350523 0
M  V30 2804 H 257.753 2.00263 0.456509 0
M  V30 2805 H 255.983 2.48133 2.96592 0
M  V30 2806 H 257.672 2.88524 2.85497 0
M  V30 2807 H 258.438 4.70736 1.16758 0
M  V30 2808 H 254.317 4.04979 2.20256 0
M  V30 2809 H 257.861 6.96689 0.356494 0
M  V30 2810 H 253.758 6.30205 1.39686 0
M  V30 2811 H 254.526 8.17021 0.491829 0
M  V30 2812 N 257.189 -0.644168 1.43834 0
M  V30 2813 C 258.099 -1.78563 1.52159 0
M  V30 2814 C 259.115 -1.69147 0.408069 0
M  V30 2815 O 260.291 -1.90156 0.663524 0
M  V30 2816 C 257.356 -3.14888 1.45073 0
M  V30 2817 C 256.417 -3.36034 2.6717 0
M  V30 2818 C 255.65 -4.65855 2.60413 0
M  V30 2819 O 255.873 -5.45805 1.65689 0
M  V30 2820 O 254.807 -4.88918 3.5106 0
M  V30 2821 H 258.633 -1.74494 2.48567 0
M  V30 2822 H 256.218 -0.80378 1.25935 0
M  V30 2823 H 258.1 -3.96179 1.43597 0
M  V30 2824 H 256.775 -3.19528 0.518037 0
M  V30 2825 H 255.682 -2.54472 2.74217 0
M  V30 2826 H 257.015 -3.36247 3.59442 0
M  V30 2827 N 258.668 -1.30515 -0.883378 0
M  V30 2828 C 259.945 -1.10086 -1.6168 0
M  V30 2829 C 260.325 0.349269 -2.08191 0
M  V30 2830 O 259.673 1.34105 -1.85008 0
M  V30 2831 C 259.883 -2.10315 -2.78511 0
M  V30 2832 C 261.231 -2.42119 -3.48803 0
M  V30 2833 O 262.255 -2.08638 -2.88702 0
M  V30 2834 O 261.114 -2.99396 -4.57192 0
M  V30 2835 H 258.208 -0.422907 -0.710689 0
M  V30 2836 H 260.754 -1.41947 -0.930015 0
M  V30 2837 H 259.526 -3.07917 -2.41459 0
M  V30 2838 H 259.149 -1.79282 -3.54886 0
M  V30 2839 N 260.146 1.09593 -1.13257 0
M  V30 2840 C 261.392 1.82003 -0.89458 0
M  V30 2841 C 261.725 1.85402 0.577906 0
M  V30 2842 O 261 1.32099 1.42759 0
M  V30 2843 C 261.283 3.28237 -1.48096 0
M  V30 2844 C 261.136 3.3312 -3.02244 0
M  V30 2845 C 262.455 4.24871 -1.14774 0
M  V30 2846 H 259.574 0.66077 -0.326424 0
M  V30 2847 H 262.216 1.28389 -1.40058 0
M  V30 2848 H 260.366 3.74024 -1.05062 0
M  V30 2849 H 262.038 2.95748 -3.54021 0
M  V30 2850 H 260.281 2.72756 -3.37323 0
M  V30 2851 H 260.952 4.3613 -3.38371 0
M  V30 2852 H 263.428 3.87361 -1.51957 0
M  V30 2853 H 262.304 5.25532 -1.58452 0
M  V30 2854 H 262.565 4.42058 -0.0611849 0
M  V30 2855 N 261.624 0.925811 1.2754 0
M  V30 2856 C 262.571 0.422045 2.26908 0
M  V30 2857 C 263.541 -0.510029 1.58076 0
M  V30 2858 O 264.726 -0.429599 1.85901 0
M  V30 2859 C 261.866 -0.320837 3.43605 0
M  V30 2860 C 260.979 0.64513 4.27156 0
M  V30 2861 C 260.114 -0.117405 5.3107 0
M  V30 2862 C 259.153 0.841391 6.0629 0
M  V30 2863 N 258.29 0.111604 7.02011 0
M  V30 2864 H 263.13 1.27441 2.69375 0
M  V30 2865 H 260.667 0.639697 1.32462 0
M  V30 2866 H 262.625 -0.76785 4.10073 0
M  V30 2867 H 261.255 -1.13745 3.02096 0
M  V30 2868 H 260.307 1.21067 3.6062 0
M  V30 2869 H 261.619 1.37797 4.79389 0
M  V30 2870 H 260.773 -0.624422 6.03478 0
M  V30 2871 H 259.512 -0.883219 4.79636 0
M  V30 2872 H 258.517 1.35967 5.32722 0
M  V30 2873 H 259.742 1.60696 6.59813 0
M  V30 2874 H 257.688 -0.635999 6.5291 0
M  V30 2875 H 257.605 0.784044 7.51923 0
M  V30 2876 H 258.873 -0.374823 7.78598 0
M  V30 2877 N 263.102 -1.41638 0.69111 0
M  V30 2878 C 264.351 -2.00526 0.217318 0
M  V30 2879 C 264.664 -1.55353 -1.18848 0
M  V30 2880 O 265.87 -2.06769 -1.75951 0
M  V30 2881 C 264.326 -3.58313 0.337639 0
M  V30 2882 C 263.934 -4.12469 1.74852 0
M  V30 2883 C 265.678 -4.24431 -0.0766066 0
M  V30 2884 C 263.585 -5.62675 1.82074 0
M  V30 2885 H 262.515 -0.750008 0.0774893 0
M  V30 2886 H 265.166 -1.6217 0.858661 0
M  V30 2887 H 263.548 -3.9425 -0.371879 0
M  V30 2888 H 264.722 -3.8796 2.48644 0
M  V30 2889 H 263.037 -3.58861 2.11205 0
M  V30 2890 H 265.634 -5.34683 -0.0430284 0
M  V30 2891 H 265.977 -4.01101 -1.1146 0
M  V30 2892 H 266.51 -3.93512 0.582476 0
M  V30 2893 H 263.249 -5.90826 2.83911 0
M  V30 2894 H 262.769 -5.89124 1.12661 0
M  V30 2895 H 264.448 -6.27371 1.58159 0
M  V30 2896 N 264.58 -0.43555 -1.51462 0
M  V30 2897 C 265.81 0.130053 -2.0619 0
M  V30 2898 C 266.218 1.37164 -1.30317 0
M  V30 2899 O 265.561 1.80225 -0.355598 0
M  V30 2900 C 265.623 0.519418 -3.55728 0
M  V30 2901 C 265.287 -0.615119 -4.52841 0
M  V30 2902 C 266.284 -1.48671 -4.9819 0
M  V30 2903 C 263.969 -0.795341 -4.95963 0
M  V30 2904 C 265.963 -2.52324 -5.8533 0
M  V30 2905 C 263.65 -1.83514 -5.82894 0
M  V30 2906 C 264.648 -2.69748 -6.27475 0
M  V30 2907 O 264.336 -3.71944 -7.1268 0
M  V30 2908 H 264.068 0.0121612 -0.675891 0
M  V30 2909 H 266.622 -0.6129 -1.96043 0
M  V30 2910 H 264.852 1.31505 -3.63653 0
M  V30 2911 H 266.541 1.01597 -3.92979 0
M  V30 2912 H 267.307 -1.359 -4.65571 0
M  V30 2913 H 263.186 -0.133713 -4.60806 0
M  V30 2914 H 266.73 -3.19665 -6.20048 0
M  V30 2915 H 262.627 -1.96306 -6.14926 0
M  V30 2916 H 263.395 -3.68503 -7.30854 0
M  V30 2917 N 266.058 1.56714 -0.166846 0
M  V30 2918 C 267.304 1.97039 0.479962 0
M  V30 2919 C 267.637 1.05264 1.63197 0
M  V30 2920 O 266.912 0.0988833 1.94248 0
M  V30 2921 C 267.195 3.46867 0.967212 0
M  V30 2922 C 267.048 4.49421 -0.18466 0
M  V30 2923 C 268.367 3.9968 1.84238 0
M  V30 2924 H 265.486 0.71641 0.172992 0
M  V30 2925 H 268.128 1.8832 -0.252079 0
M  V30 2926 H 266.278 3.54428 1.59101 0
M  V30 2927 H 267.95 4.53924 -0.821621 0
M  V30 2928 H 266.193 4.25573 -0.840837 0
M  V30 2929 H 266.864 5.51644 0.198317 0
M  V30 2930 H 269.34 3.94723 1.31655 0
M  V30 2931 H 268.216 5.04941 2.15234 0
M  V30 2932 H 268.477 3.43226 2.78654 0
M  V30 2933 N 267.536 -0.106894 1.57237 0
M  V30 2934 C 268.499 -1.11466 2.0027 0
M  V30 2935 C 269.499 -1.33623 0.894519 0
M  V30 2936 O 270.689 -1.29935 1.16028 0
M  V30 2937 C 267.821 -2.46646 2.35327 0
M  V30 2938 H 269.014 -0.744516 2.90512 0
M  V30 2939 H 266.567 -0.351576 1.52295 0
M  V30 2940 H 267.302 -2.88558 1.48003 0
M  V30 2941 H 267.087 -2.31915 3.16161 0
M  V30 2942 H 268.577 -3.19151 2.69318 0
M  V30 2943 N 269.014 -1.53014 -0.377408 0
M  V30 2944 C 269.977 -1.77957 -1.44444 0
M  V30 2945 C 270.977 -0.649763 -1.47087 0
M  V30 2946 O 272.167 -0.917897 -1.48055 0
M  V30 2947 C 269.299 -1.89089 -2.83651 0
M  V30 2948 H 270.492 -2.73243 -1.23606 0
M  V30 2949 H 268.045 -1.43912 -0.609844 0
M  V30 2950 H 268.78 -0.958293 -3.09818 0
M  V30 2951 H 268.565 -2.71254 -2.83132 0
M  V30 2952 H 270.055 -2.1002 -3.60945 0
M  V30 2953 N 270.492 0.636531 -1.44174 0
M  V30 2954 C 271.422 1.76003 -1.53444 0
M  V30 2955 C 272.403 1.65619 -0.387841 0
M  V30 2956 O 273.588 1.84461 -0.607257 0
M  V30 2957 C 270.718 3.14511 -1.4731 0
M  V30 2958 C 269.672 3.39677 -2.60391 0
M  V30 2959 C 268.998 4.78159 -2.39308 0
M  V30 2960 C 270.298 3.32772 -4.02567 0
M  V30 2961 H 271.992 1.68501 -2.47483 0
M  V30 2962 H 269.538 0.809237 -1.19111 0
M  V30 2963 H 271.491 3.92878 -1.52397 0
M  V30 2964 H 270.215 3.22783 -0.49785 0
M  V30 2965 H 268.874 2.63688 -2.54684 0
M  V30 2966 H 268.522 4.83128 -1.39988 0
M  V30 2967 H 268.222 4.95956 -3.15122 0
M  V30 2968 H 269.746 5.58762 -2.46205 0
M  V30 2969 H 271.16 4.01051 -4.09672 0
M  V30 2970 H 269.557 3.62104 -4.7854 0
M  V30 2971 H 270.627 2.30669 -4.2652 0
M  V30 2972 N 271.97 1.30982 0.876444 0
M  V30 2973 C 273.247 1.10942 1.61094 0
M  V30 2974 C 273.627 -0.338223 2.08373 0
M  V30 2975 O 272.975 -1.33122 1.85717 0
M  V30 2976 C 273.185 2.11789 2.77392 0
M  V30 2977 C 274.533 2.43965 3.47514 0
M  V30 2978 O 275.557 2.10166 2.87591 0
M  V30 2979 O 274.416 3.01817 4.55597 0
M  V30 2980 H 271.51 0.42667 0.708436 0
M  V30 2981 H 274.056 1.42438 0.922474 0
M  V30 2982 H 272.828 3.09194 2.39823 0
M  V30 2983 H 272.451 1.81161 3.5393 0
M  V30 2984 N 273.449 -1.08991 1.13837 0
M  V30 2985 C 274.359 -2.19301 0.833333 0
M  V30 2986 C 275.375 -1.73026 -0.183847 0
M  V30 2987 O 276.551 -2.01395 -0.0138092 0
M  V30 2988 C 273.616 -3.45323 0.308651 0
M  V30 2989 C 272.677 -4.06255 1.38764 0
M  V30 2990 C 271.91 -5.26262 0.887896 0
M  V30 2991 O 272.133 -5.69747 -0.27287 0
M  V30 2992 O 271.067 -5.78435 1.66421 0
M  V30 2993 H 274.893 -2.47854 1.75506 0
M  V30 2994 H 272.478 -1.18012 0.916166 0
M  V30 2995 H 274.36 -4.21394 0.0216739 0
M  V30 2996 H 273.035 -3.18362 -0.585431 0
M  V30 2997 H 271.942 -3.318 1.72799 0
M  V30 2998 H 273.275 -4.37452 2.25602 0
M  V30 2999 N 274.927 -0.932562 -1.27047 0
M  V30 3000 C 276.343 -0.633544 -1.46487 0
M  V30 3001 C 276.543 0.815746 -1.84249 0
M  V30 3002 O 275.599 1.59319 -1.95892 0
M  V30 3003 C 276.912 -1.58758 -2.55375 0
M  V30 3004 C 278.46 -1.59634 -2.69232 0
M  V30 3005 C 278.935 -2.53747 -3.81283 0
M  V30 3006 N 280.426 -2.51982 -3.88664 0
M  V30 3007 C 281.161 -3.21491 -4.74796 0
M  V30 3008 N 280.657 -4.00395 -5.65381 0
M  V30 3009 N 282.45 -3.10485 -4.68568 0
M  V30 3010 H 274.601 -1.86946 -1.00821 0
M  V30 3011 H 276.864 -0.802897 -0.504044 0
M  V30 3012 H 276.57 -2.62172 -2.34432 0
M  V30 3013 H 276.444 -1.33301 -3.52861 0
M  V30 3014 H 278.831 -0.569488 -2.89553 0
M  V30 3015 H 278.912 -1.89142 -1.72218 0
M  V30 3016 H 278.556 -3.56545 -3.61715 0
M  V30 3017 H 278.486 -2.21532 -4.77735 0
M  V30 3018 H 280.977 -1.94681 -3.23895 0
M  V30 3019 H 281.29 -4.50406 -6.27976 0
M  V30 3020 H 279.635 -4.04498 -5.65161 0
M  V30 3021 H 282.826 -2.48331 -3.96799 0
M  V30 3022 H 282.999 -3.64925 -5.35475 0
M  V30 3023 N 276.405 1.4127 -0.698611 0
M  V30 3024 C 277.335 2.33447 -0.049629 0
M  V30 3025 C 278.316 1.51982 0.763898 0
M  V30 3026 O 279.501 1.80509 0.716257 0
M  V30 3027 C 276.631 3.35828 0.885267 0
M  V30 3028 C 275.585 4.27627 0.178613 0
M  V30 3029 C 274.911 5.20406 1.22807 0
M  V30 3030 C 276.211 5.13459 -0.956933 0
M  V30 3031 H 277.905 2.87966 -0.81951 0
M  V30 3032 H 275.451 1.38461 -0.395538 0
M  V30 3033 H 277.404 3.9924 1.34854 0
M  V30 3034 H 276.128 2.79666 1.68685 0
M  V30 3035 H 274.787 3.65643 -0.26466 0
M  V30 3036 H 274.435 4.60558 2.02226 0
M  V30 3037 H 274.135 5.82661 0.760239 0
M  V30 3038 H 275.659 5.86695 1.69179 0
M  V30 3039 H 277.073 5.70421 -0.573805 0
M  V30 3040 H 275.47 5.8467 -1.35205 0
M  V30 3041 H 276.54 4.50443 -1.79524 0
M  V30 3042 N 277.883 0.443576 1.51229 0
M  V30 3043 C 278.831 -0.37904 2.29491 0
M  V30 3044 C 279.825 -1.0153 1.35603 0
M  V30 3045 O 281.031 -0.94955 1.52917 0
M  V30 3046 H 277.406 -0.141053 0.738653 0
M  V30 3047 H 279.377 0.301799 2.9687 0
M  V30 3048 C 278.126 -1.46426 3.15364 0
M  V30 3049 H 277.449 -0.984037 3.87501 0
M  V30 3050 H 278.889 -2.01297 3.7317 0
M  V30 3051 C 277.348 -2.45099 2.31146 0
M  V30 3052 O 277.878 -3.49773 1.9754 0
M  V30 3053 N 276.084 -2.16139 1.94249 0
M  V30 3054 H 275.631 -1.31044 2.21777 0
M  V30 3055 H 275.589 -2.82398 1.38198 0
M  V30 3056 N 279.361 -1.56624 0.175154 0
M  V30 3057 C 280.638 -1.88688 -0.515373 0
M  V30 3058 C 281.018 -1.08564 -1.81044 0
M  V30 3059 O 280.366 -0.180703 -2.27784 0
M  V30 3060 C 280.576 -3.40768 -0.753552 0
M  V30 3061 C 281.924 -4.10587 -1.08184 0
M  V30 3062 O 282.948 -3.46106 -0.841961 0
M  V30 3063 O 281.807 -5.24512 -1.53459 0
M  V30 3064 H 278.901 -0.78301 -0.26613 0
M  V30 3065 H 281.447 -1.68347 0.213877 0
M  V30 3066 H 280.219 -3.90965 0.161829 0
M  V30 3067 H 279.842 -3.66733 -1.53598 0
M  V30 3068 N 280.839 0.0985539 -1.57292 0
M  V30 3069 C 281.789 1.1261 -1.9825 0
M  V30 3070 C 282.773 1.35961 -0.860426 0
M  V30 3071 O 283.965 1.36711 -1.12424 0
M  V30 3072 C 281.094 2.44727 -2.40757 0
M  V30 3073 C 280.18 2.24764 -3.59642 0
M  V30 3074 N 280.571 1.74661 -4.74687 0
M  V30 3075 C 278.869 2.55344 -3.65672 0
M  V30 3076 C 279.57 1.68887 -5.56644 0
M  V30 3077 N 278.546 2.13976 -4.99715 0
M  V30 3078 H 282.348 0.731604 -2.84648 0
M  V30 3079 H 279.862 0.306029 -1.59491 0
M  V30 3080 H 281.859 3.19072 -2.68326 0
M  V30 3081 H 280.519 2.84917 -1.55733 0
M  V30 3082 H 281.53 1.43908 -4.97505 0
M  V30 3083 H 278.207 2.99081 -2.91302 0
M  V30 3084 H 279.597 1.3123 -6.5896 0
M  V30 3085 N 282.317 1.53212 0.369288 0
M  V30 3086 C 283.565 1.68881 1.11012 0
M  V30 3087 C 283.886 0.441285 1.89941 0
M  V30 3088 O 283.156 -0.544623 1.88177 0
M  V30 3089 H 281.736 0.622569 0.412816 0
M  V30 3090 H 284.398 1.90391 0.416802 0
M  V30 3091 H 283.494 2.54822 1.80201 0
M  V30 3092 N 283.795 -0.628877 1.44509 0
M  V30 3093 C 285.025 -1.41349 1.50678 0
M  V30 3094 C 285.433 -1.88745 0.131075 0
M  V30 3095 O 284.776 -1.61592 -0.87371 0
M  V30 3096 C 284.838 -2.66608 2.41165 0
M  V30 3097 C 284.502 -2.40993 3.88293 0
M  V30 3098 C 285.499 -2.0268 4.78766 0
M  V30 3099 C 283.184 -2.54563 4.33016 0
M  V30 3100 C 285.178 -1.78269 6.11963 0
M  V30 3101 C 282.865 -2.29766 5.6626 0
M  V30 3102 C 283.863 -1.91678 6.55552 0
M  V30 3103 O 283.551 -1.67158 7.86329 0
M  V30 3104 H 283.283 -0.439851 0.51333 0
M  V30 3105 H 285.837 -0.776084 1.90174 0
M  V30 3106 H 284.067 -3.32994 1.96601 0
M  V30 3107 H 285.756 -3.28615 2.38259 0
M  V30 3108 H 286.522 -1.91751 4.45485 0
M  V30 3109 H 282.401 -2.83179 3.63773 0
M  V30 3110 H 285.945 -1.48465 6.81619 0
M  V30 3111 H 281.842 -2.40306 5.99102 0
M  V30 3112 H 282.61 -1.81386 7.98149 0
M  V30 3113 N 285.273 -1.31445 -0.869486 0
M  V30 3114 C 286.522 -1.20517 -1.61736 0
M  V30 3115 C 286.835 0.235341 -1.94179 0
M  V30 3116 O 288.041 0.466312 -2.67465 0
M  V30 3117 C 286.497 -2.10982 -2.91573 0
M  V30 3118 C 286.105 -3.60032 -2.66611 0
M  V30 3119 C 287.849 -2.08856 -3.69567 0
M  V30 3120 C 285.756 -4.42503 -3.92358 0
M  V30 3121 H 284.686 -0.447493 -0.606849 0
M  V30 3122 H 287.337 -1.56303 -0.96133 0
M  V30 3123 H 285.719 -1.68095 -3.58553 0
M  V30 3124 H 286.893 -4.11167 -2.08035 0
M  V30 3125 H 285.208 -3.64139 -2.0197 0
M  V30 3126 H 287.805 -2.67716 -4.62852 0
M  V30 3127 H 288.148 -1.07582 -4.02159 0
M  V30 3128 H 288.681 -2.49945 -3.09471 0
M  V30 3129 H 285.42 -5.44533 -3.64916 0
M  V30 3130 H 284.94 -3.96125 -4.50383 0
M  V30 3131 H 286.619 -4.54741 -4.60238 0
M  V30 3132 N 286.751 1.08385 -1.14413 0
M  V30 3133 C 288 1.80153 -0.907076 0
M  V30 3134 C 288.313 1.87176 0.567851 0
M  V30 3135 O 289.519 2.55359 0.922172 0
M  V30 3136 C 287.975 3.23687 -1.57336 0
M  V30 3137 C 287.583 3.24897 -3.08457 0
M  V30 3138 C 289.327 4.00136 -1.41744 0
M  V30 3139 C 287.234 4.6302 -3.67921 0
M  V30 3140 H 286.164 0.675139 -0.335714 0
M  V30 3141 H 288.815 1.21733 -1.37307 0
M  V30 3142 H 287.197 3.82234 -1.03505 0
M  V30 3143 H 288.371 2.76055 -3.68958 0
M  V30 3144 H 286.686 2.61943 -3.2369 0
M  V30 3145 H 289.283 5.02201 -1.83572 0
M  V30 3146 H 289.626 4.14709 -0.363576 0
M  V30 3147 H 290.159 3.48058 -1.92614 0
M  V30 3148 H 286.898 4.5365 -4.73161 0
M  V30 3149 H 286.418 5.12143 -3.12201 0
M  V30 3150 H 288.097 5.31994 -3.68227 0
M  V30 3151 N 288.23 0.939286 1.26551 0
M  V30 3152 C 289.641 0.628782 1.75793 0
M  V30 3153 C 289.992 -0.856046 1.7654 0
M  V30 3154 O 289.117 -1.66994 1.3763 0
M  V30 3155 C 289.712 1.13465 3.19235 0
M  V30 3156 C 288.271 0.874601 3.66098 0
M  V30 3157 C 287.418 1.28667 2.45642 0
M  V30 3158 H 290.369 1.1178 1.12654 0
M  V30 3159 H 290.39 0.487609 3.77363 0
M  V30 3160 H 289.902 2.21535 3.1866 0
M  V30 3161 H 288.003 -0.191793 3.72106 0
M  V30 3162 H 288.116 1.50028 4.55004 0
M  V30 3163 H 286.48 0.705109 2.44745 0
M  V30 3164 H 287.263 2.37625 2.47769 0
M  V30 3165 N 289.708 -1.40897 0.706093 0
M  V30 3166 C 290.956 -2.00657 0.241054 0
M  V30 3167 C 291.277 -1.56241 -1.16678 0
M  V30 3168 O 290.547 -0.79765 -1.78926 0
M  V30 3169 H 289.127 -0.742018 0.0861308 0
M  V30 3170 H 291.789 -1.72372 0.909604 0
M  V30 3171 H 290.885 -3.10958 0.266705 0
M  V30 3172 N 291.186 -0.45159 -1.50991 0
M  V30 3173 C 292.116 0.342898 -2.30969 0
M  V30 3174 C 293.097 1.00815 -1.37005 0
M  V30 3175 O 294.282 1.00907 -1.65926 0
M  V30 3176 C 291.412 1.43637 -3.16205 0
M  V30 3177 C 290.366 0.893818 -4.18563 0
M  V30 3178 C 289.692 2.08411 -4.92411 0
M  V30 3179 C 290.992 -0.0815568 -5.22236 0
M  V30 3180 H 292.686 -0.324556 -2.97636 0
M  V30 3181 H 290.232 -0.157531 -1.43136 0
M  V30 3182 H 292.185 1.9995 -3.70942 0
M  V30 3183 H 290.909 2.13232 -2.47386 0
M  V30 3184 H 289.568 0.352798 -3.64898 0
M  V30 3185 H 289.216 2.76658 -4.20082 0
M  V30 3186 H 288.916 1.72741 -5.61636 0
M  V30 3187 H 290.44 2.65251 -5.49976 0
M  V30 3188 H 291.854 0.391742 -5.7196 0
M  V30 3189 H 290.251 -0.351551 -5.99069 0
M  V30 3190 H 291.321 -1.01374 -4.74185 0
M  V30 3191 N 292.664 1.56529 -0.183458 0
M  V30 3192 C 293.912 1.96855 0.457452 0
M  V30 3193 C 294.233 1.07104 1.62953 0
M  V30 3194 O 293.503 0.139887 1.954 0
M  V30 3195 H 292.083 0.72693 0.171992 0
M  V30 3196 H 294.745 1.93056 -0.267476 0
M  V30 3197 H 293.841 3.01423 0.809368 0
M  V30 3198 N 294.142 -0.090211 1.57342 0
M  V30 3199 C 295.419 -0.824761 1.77361 0
M  V30 3200 C 295.799 -1.96698 0.76637 0
M  V30 3201 O 295.147 -2.27586 -0.204179 0
M  V30 3202 C 295.357 -1.31481 3.23286 0
M  V30 3203 C 296.705 -1.75563 3.86604 0
M  V30 3204 O 297.729 -1.41093 3.27065 0
M  V30 3205 O 296.588 -2.39317 4.91314 0
M  V30 3206 H 293.682 -0.393776 0.727234 0
M  V30 3207 H 296.228 -0.0717138 1.69548 0
M  V30 3208 H 295 -0.496671 3.88135 0
M  V30 3209 H 294.623 -2.12973 3.35751 0
M  V30 3210 N 295.62 -1.53406 -0.361157 0
M  V30 3211 C 296.583 -1.79479 -1.42548 0
M  V30 3212 C 297.583 -0.665327 -1.4639 0
M  V30 3213 O 298.773 -0.933549 -1.47073 0
M  V30 3214 C 295.905 -1.92087 -2.8163 0
M  V30 3215 H 297.098 -2.74538 -1.20701 0
M  V30 3216 H 294.651 -1.4455 -0.594546 0
M  V30 3217 H 295.386 -0.991099 -3.08784 0
M  V30 3218 H 295.171 -2.74241 -2.80239 0
M  V30 3219 H 296.661 -2.13836 -3.58697 0
M  V30 3220 N 297.098 0.621204 -1.44841 0
M  V30 3221 C 298.346 1.37783 -1.47852 0
M  V30 3222 C 298.667 1.94653 -0.116224 0
M  V30 3223 O 297.937 1.76367 0.852737 0
M  V30 3224 H 296.517 0.511453 -0.544449 0
M  V30 3225 H 299.179 0.730446 -1.80694 0
M  V30 3226 H 298.275 2.20414 -2.20961 0
M  V30 3227 N 298.576 1.31904 0.862503 0
M  V30 3228 C 299.853 1.12644 1.59908 0
M  V30 3229 C 300.233 -0.316104 2.0872 0
M  V30 3230 O 299.581 -1.31145 1.87118 0
M  V30 3231 C 299.791 2.1472 2.7513 0
M  V30 3232 C 301.139 2.47637 3.44907 0
M  V30 3233 O 302.163 2.13205 2.85346 0
M  V30 3234 O 301.022 3.06632 4.52371 0
M  V30 3235 H 298.116 0.43416 0.703871 0
M  V30 3236 H 300.662 1.43408 0.907314 0
M  V30 3237 H 299.434 3.1172 2.3653 0
M  V30 3238 H 299.057 1.84905 3.51989 0
M  V30 3239 N 300.054 -1.07777 1.14986 0
M  V30 3240 C 301.47 -1.32373 0.891596 0
M  V30 3241 C 301.67 -1.9609 -0.463788 0
M  V30 3242 O 300.726 -2.21801 -1.20667 0
M  V30 3243 C 302.039 -2.21905 2.02925 0
M  V30 3244 C 303.587 -2.35367 2.06329 0
M  V30 3245 C 304.062 -3.28245 3.19405 0
M  V30 3246 N 305.553 -3.35824 3.19024 0
M  V30 3247 C 306.288 -4.07739 4.03158 0
M  V30 3248 N 305.784 -4.82306 4.97346 0
M  V30 3249 N 307.577 -4.03635 3.91197 0
M  V30 3250 H 299.728 -0.648039 2.02273 0
M  V30 3251 H 301.991 -0.348149 0.881757 0
M  V30 3252 H 301.697 -1.82342 3.0074 0
M  V30 3253 H 301.571 -3.22407 1.95789 0
M  V30 3254 H 303.958 -2.74186 1.09116 0
M  V30 3255 H 304.039 -1.34585 2.17533 0
M  V30 3256 H 303.683 -2.90146 4.16867 0
M  V30 3257 H 303.613 -4.28971 3.05437 0
M  V30 3258 H 306.104 -2.8267 2.50811 0
M  V30 3259 H 306.417 -5.34661 5.57994 0
M  V30 3260 H 304.762 -4.81337 5.01338 0
M  V30 3261 H 307.953 -3.44491 3.16928 0
M  V30 3262 H 308.126 -4.59417 4.5699 0
M  V30 3263 N 301.532 -0.945985 -1.26051 0
M  V30 3264 C 302.462 -0.477172 -2.28572 0
M  V30 3265 C 303.443 0.472032 -1.63419 0
M  V30 3266 O 304.628 0.372853 -1.90587 0
M  V30 3267 C 301.758 0.253975 -3.4637 0
M  V30 3268 C 300.712 -0.609135 -4.23643 0
M  V30 3269 C 300.038 0.252252 -5.34105 0
M  V30 3270 C 301.338 -1.8829 -4.8718 0
M  V30 3271 H 303.032 -1.33402 -2.68038 0
M  V30 3272 H 300.578 -0.642904 -1.28852 0
M  V30 3273 H 302.531 0.593016 -4.17207 0
M  V30 3274 H 301.255 1.145 -3.05871 0
M  V30 3275 H 299.914 -0.931138 -3.54578 0
M  V30 3276 H 299.562 1.14278 -4.89846 0
M  V30 3277 H 299.262 -0.32188 -5.86718 0
M  V30 3278 H 300.786 0.586454 -6.07777 0
M  V30 3279 H 302.2 -1.61081 -5.50205 0
M  V30 3280 H 300.597 -2.40199 -5.49931 0
M  V30 3281 H 301.667 -2.59134 -4.09851 0
M  V30 3282 N 303.011 1.40521 -0.713556 0
M  V30 3283 C 304.258 2.00923 -0.25219 0
M  V30 3284 C 304.586 1.56571 1.15395 0
M  V30 3285 O 303.841 0.775874 1.79663 0
M  V30 3286 C 304.14 3.56317 -0.278 0
M  V30 3287 C 303.806 4.20246 -1.63415 0
M  V30 3288 C 302.468 4.37422 -2.00538 0
M  V30 3289 C 304.82 4.55923 -2.52554 0
M  V30 3290 C 302.148 4.87558 -3.2635 0
M  V30 3291 C 304.5 5.07458 -3.77716 0
M  V30 3292 C 303.164 5.22843 -4.14959 0
M  V30 3293 H 302.434 0.735231 -0.0922829 0
M  V30 3294 H 305.081 1.68161 -0.916188 0
M  V30 3295 H 303.386 3.88976 0.469567 0
M  V30 3296 H 305.083 4.00883 0.0967819 0
M  V30 3297 H 301.673 4.07263 -1.33546 0
M  V30 3298 H 305.857 4.42291 -2.25149 0
M  V30 3299 H 301.113 4.97654 -3.55176 0
M  V30 3300 H 305.287 5.34041 -4.4696 0
M  V30 3301 H 302.914 5.61454 -5.12516 0
M  V30 3302 N 304.489 0.459591 1.5075 0
M  V30 3303 C 305.905 0.113092 1.59199 0
M  V30 3304 C 306.105 -1.37951 1.46874 0
M  V30 3305 O 305.161 -2.15168 1.32132 0
M  V30 3306 C 306.474 0.653043 2.93523 0
M  V30 3307 C 308.022 0.615449 3.0689 0
M  V30 3308 C 308.497 1.13275 4.43771 0
M  V30 3309 N 309.988 1.09167 4.50152 0
M  V30 3310 C 310.723 1.46256 5.54434 0
M  V30 3311 N 310.219 1.90739 6.66026 0
M  V30 3312 N 312.012 1.37932 5.44914 0
M  V30 3313 H 304.163 1.43049 1.57005 0
M  V30 3314 H 306.426 0.590861 0.741341 0
M  V30 3315 H 306.132 1.69822 3.07983 0
M  V30 3316 H 306.006 0.0902132 3.77092 0
M  V30 3317 H 308.393 -0.420793 2.92084 0
M  V30 3318 H 308.474 1.21495 2.25106 0
M  V30 3319 H 308.118 2.16757 4.59324 0
M  V30 3320 H 308.048 0.509576 5.24129 0
M  V30 3321 H 310.539 0.76528 3.7007 0
M  V30 3322 H 310.852 2.17218 7.41644 0
M  V30 3323 H 309.197 1.94683 6.67176 0
M  V30 3324 H 312.388 1.0303 4.56621 0
M  V30 3325 H 312.561 1.67164 6.26067 0
M  V30 3326 N 305.967 -1.56429 0.191757 0
M  V30 3327 C 307.195 -2.01867 -0.453586 0
M  V30 3328 C 307.61 -1.07191 -1.5542 0
M  V30 3329 O 306.967 -0.0762108 -1.82341 0
M  V30 3330 C 307.018 -3.47017 -1.013 0
M  V30 3331 O 306.739 -4.38078 0.0437005 0
M  V30 3332 C 308.24 -4.07956 -1.73456 0
M  V30 3333 H 305.46 -0.661211 -0.114199 0
M  V30 3334 H 308.004 -2.02295 0.299483 0
M  V30 3335 H 306.159 -3.47298 -1.71647 0
M  V30 3336 H 306.573 -5.23178 -0.372212 0
M  V30 3337 H 308.047 -5.1138 -2.07833 0
M  V30 3338 H 308.524 -3.51222 -2.63704 0
M  V30 3339 H 309.13 -4.11437 -1.07702 0
M  V30 3340 N 307.445 0.0818655 -1.57387 0
M  V30 3341 C 308.392 1.09834 -2.0299 0
M  V30 3342 C 309.362 1.39043 -0.908639 0
M  V30 3343 O 310.547 1.50282 -1.17559 0
M  V30 3344 C 307.687 2.40971 -2.47037 0
M  V30 3345 C 306.8 2.18379 -3.7274 0
M  V30 3346 C 305.935 3.43008 -4.0561 0
M  V30 3347 C 304.974 3.15736 -5.24383 0
M  V30 3348 N 304.111 4.32667 -5.52941 0
M  V30 3349 H 308.951 0.702472 -2.89602 0
M  V30 3350 H 306.488 0.33531 -1.43227 0
M  V30 3351 H 308.446 3.1752 -2.70623 0
M  V30 3352 H 307.076 2.78379 -1.63417 0
M  V30 3353 H 306.128 1.32569 -3.56552 0
M  V30 3354 H 307.44 1.94227 -4.59431 0
M  V30 3355 H 306.594 4.27958 -4.30043 0
M  V30 3356 H 305.333 3.70225 -3.17466 0
M  V30 3357 H 304.338 2.2918 -4.99757 0
M  V30 3358 H 305.563 2.8985 -6.14136 0
M  V30 3359 H 303.509 4.59935 -4.67756 0
M  V30 3360 H 303.426 4.11753 -6.34031 0
M  V30 3361 H 304.694 5.18644 -5.81918 0
M  V30 3362 O 308.962 1.59916 0.225637 0
M  V30 3363 H 309.653 1.73205 0.867161 0
M  V30 END ATOM
M  V30 BEGIN BOND
M  V30 END BOND
M  V30 END CTAB
M  END
$$$$
