drugbank_target|O75936 Gamma-butyrobetaine dioxygenase (DB00126)
 OpenBabel12092120073D

  0  0  0     0  0            999 V3000
M  V30 BEGIN CTAB
M  V30 COUNTS 6247 6325 0 0 0
M  V30 BEGIN ATOM
M  V30 1 H -0.908 1.98254 -0.117106 0
M  V30 2 N 0 1.576 0 0
M  V30 3 C 0.933 2.03868 1.02534 0
M  V30 4 C 1.911 0.928543 1.3348 0
M  V30 5 O 3.095 1.19667 1.45644 0
M  V30 6 C 0.222 2.43627 2.35294 0
M  V30 7 C -0.732 3.65373 2.2001 0
M  V30 8 S 0.101 5.13292 1.52614 0
M  V30 9 C 1.257 5.56322 2.86805 0
M  V30 10 H 1.49 2.90518 0.631377 0
M  V30 11 H -0.977 1.52953 0.210867 0
M  V30 12 H 0.981 2.67203 3.11629 0
M  V30 13 H -0.358 1.57376 2.7183 0
M  V30 14 H -1.165 3.90944 3.18086 0
M  V30 15 H -1.563 3.418 1.51819 0
M  V30 16 H 0.729 5.58782 3.83104 0
M  V30 17 H 1.672 6.56266 2.65933 0
M  V30 18 H 2.08 4.83886 2.90714 0
M  V30 19 N 1.4781 -0.272755 1.55222 0
M  V30 20 C 2.4411 -1.32041 1.87344 0
M  V30 21 C 3.4411 -1.42342 0.74803 0
M  V30 22 O 4.6311 -1.41488 1.0162 0
M  V30 23 C 1.7631 -2.70173 2.07893 0
M  V30 24 H 2.9561 -1.04789 2.80997 0
M  V30 25 H 0.5091 -0.51083 1.47717 0
M  V30 26 H 1.2441 -3.02605 1.16622 0
M  V30 27 H 1.0291 -2.64082 2.89833 0
M  V30 28 H 2.5191 -3.45869 2.34017 0
M  V30 29 N 2.9562 -1.48159 -0.537278 0
M  V30 30 C 4.1962 -1.57397 -1.30405 0
M  V30 31 C 4.5602 -0.239202 -1.90504 0
M  V30 32 O 5.7612 -0.206528 -2.68005 0
M  V30 33 C 4.0322 -2.6754 -2.36974 0
M  V30 34 S 5.5912 -2.96496 -3.23475 0
M  V30 35 H 2.4092 -0.555577 -0.443684 0
M  V30 36 H 5.0112 -1.85644 -0.612912 0
M  V30 37 H 3.7152 -3.63092 -1.91291 0
M  V30 38 H 3.2462 -2.41172 -3.10805 0
M  V30 39 H 5.2612 -2.35234 -4.36897 0
M  V30 40 N 4.4343 0.785586 -1.36625 0
M  V30 41 C 5.6623 1.57448 -1.3423 0
M  V30 42 C 6.0773 1.88649 0.0755653 0
M  V30 43 O 5.4343 1.50414 1.03354 0
M  V30 44 C 5.4853 2.89316 -2.16745 0
M  V30 45 O 5.2063 2.59459 -3.53005 0
M  V30 46 C 6.7073 3.83606 -2.22174 0
M  V30 47 H 3.9273 0.488226 -0.4603 0
M  V30 48 H 6.4713 0.974733 -1.79775 0
M  V30 49 H 4.6263 3.4575 -1.74745 0
M  V30 50 H 5.0403 3.43804 -3.96105 0
M  V30 51 H 6.5143 4.73181 -2.8426 0
M  V30 52 H 6.9913 4.21734 -1.22627 0
M  V30 53 H 7.5973 3.33104 -2.64427 0
M  V30 54 N 5.9124 1.20967 1.01018 0
M  V30 55 C 7.1614 1.01796 1.74128 0
M  V30 56 C 7.4744 -0.449691 1.90361 0
M  V30 57 O 8.6804 -0.76068 2.60626 0
M  V30 58 C 7.1364 1.7727 3.13215 0
M  V30 59 C 6.7444 3.28171 3.04972 0
M  V30 60 C 8.4884 1.66489 3.90489 0
M  V30 61 C 6.3954 3.96156 4.39107 0
M  V30 62 H 5.3254 0.377276 0.652824 0
M  V30 63 H 7.9764 1.44651 1.12909 0
M  V30 64 H 6.3584 1.27205 3.75013 0
M  V30 65 H 7.5324 3.85499 2.52443 0
M  V30 66 H 5.8474 3.39437 2.41188 0
M  V30 67 H 8.4444 2.14617 4.89738 0
M  V30 68 H 8.7874 0.6222 4.11624 0
M  V30 69 H 9.3204 2.14003 3.35332 0
M  V30 70 H 6.0594 5.00604 4.23174 0
M  V30 71 H 5.5794 3.43617 4.91617 0
M  V30 72 H 7.2584 4.00774 5.07926 0
M  V30 73 N 7.3905 -1.2043 1.01659 0
M  V30 74 C 8.3225 -2.22626 0.544988 0
M  V30 75 C 9.3355 -1.58479 -0.372609 0
M  V30 76 O 10.5245 -1.77679 -0.170958 0
M  V30 77 C 7.6245 -3.38141 -0.22663 0
M  V30 78 C 6.7975 -4.31877 0.692876 0
M  V30 79 C 5.8565 -5.26191 -0.0311616 0
M  V30 80 O 4.8825 -5.6612 0.591343 0
M  V30 81 N 6.0845 -5.65618 -1.30601 0
M  V30 82 H 8.8495 -2.63716 1.42388 0
M  V30 83 H 6.4105 -1.34971 0.894116 0
M  V30 84 H 8.4025 -3.98239 -0.72024 0
M  V30 85 H 6.9725 -2.95943 -1.00681 0
M  V30 86 H 6.1925 -3.69746 1.36679 0
M  V30 87 H 7.4805 -4.91426 1.31824 0
M  V30 88 H 6.8785 -5.3519 -1.83269 0
M  V30 89 H 5.4355 -6.28025 -1.74435 0
M  V30 90 N 8.8686 -0.792821 -1.36206 0
M  V30 91 C 9.8156 -0.191653 -2.30003 0
M  V30 92 C 10.7856 0.666453 -1.52143 0
M  V30 93 O 11.9706 0.61442 -1.80636 0
M  V30 94 C 9.1106 0.664848 -3.38635 0
M  V30 95 C 8.2236 -0.212175 -4.31479 0
M  V30 96 C 7.3586 0.651022 -5.27196 0
M  V30 97 C 6.3976 -0.227247 -6.11678 0
M  V30 98 N 5.5346 0.595127 -6.99573 0
M  V30 99 H 10.3746 -0.996978 -2.80828 0
M  V30 100 H 7.9116 -0.503206 -1.38225 0
M  V30 101 H 9.8696 1.17645 -4.00269 0
M  V30 102 H 8.4996 1.43557 -2.89122 0
M  V30 103 H 7.5516 -0.841777 -3.70969 0
M  V30 104 H 8.8636 -0.888751 -4.90818 0
M  V30 105 H 8.0176 1.2283 -5.94136 0
M  V30 106 H 6.7566 1.36121 -4.68319 0
M  V30 107 H 5.7616 -0.816904 -5.43697 0
M  V30 108 H 6.9866 -0.93509 -6.72631 0
M  V30 109 H 4.9326 1.28955 -6.432 0
M  V30 110 H 4.8496 -0.0236952 -7.55996 0
M  V30 111 H 6.1176 1.15613 -7.70879 0
M  V30 112 N 10.3467 1.47872 -0.545128 0
M  V30 113 C 11.3097 2.28337 0.198717 0
M  V30 114 C 12.3097 1.36255 0.853888 0
M  V30 115 O 13.4997 1.59003 0.711606 0
M  V30 116 C 10.6317 3.15585 1.28915 0
M  V30 117 H 11.8247 2.95567 -0.507941 0
M  V30 118 H 9.3777 1.53362 -0.301616 0
M  V30 119 H 10.1127 2.53019 2.02859 0
M  V30 120 H 9.8977 3.83337 0.824309 0
M  V30 121 H 11.3877 3.76243 1.81194 0
M  V30 122 N 11.8248 0.280983 1.55075 0
M  V30 123 C 12.7348 -0.61388 2.26426 0
M  V30 124 C 13.7508 -1.16521 1.29224 0
M  V30 125 O 14.9268 -1.19426 1.62171 0
M  V30 126 C 11.9918 -1.7788 2.9759 0
M  V30 127 C 11.0528 -1.26355 4.10284 0
M  V30 128 C 10.2858 -2.37295 4.78045 0
M  V30 129 O 10.5088 -3.56777 4.45047 0
M  V30 130 O 9.4428 -2.05119 5.65871 0
M  V30 131 H 13.2688 -0.0356932 3.03679 0
M  V30 132 H 10.8538 0.0481686 1.49322 0
M  V30 133 H 12.7358 -2.45791 3.42293 0
M  V30 134 H 11.4108 -2.34397 2.23249 0
M  V30 135 H 10.3178 -0.550735 3.70024 0
M  V30 136 H 11.6508 -0.744065 4.86543 0
M  V30 137 N 13.3029 -1.57598 0.00835791 0
M  V30 138 C 14.2659 -2.07884 -0.965242 0
M  V30 139 C 15.2659 -0.989825 -1.26725 0
M  V30 140 O 16.4559 -1.25218 -1.21104 0
M  V30 141 C 13.5879 -2.52731 -2.28779 0
M  V30 142 H 14.7809 -2.95178 -0.530112 0
M  V30 143 H 12.3339 -1.54458 -0.239283 0
M  V30 144 H 13.0689 -1.68705 -2.76964 0
M  V30 145 H 12.8539 -3.32272 -2.08177 0
M  V30 146 H 14.3439 -2.91933 -2.98605 0
M  V30 147 N 14.781 0.264519 -1.55364 0
M  V30 148 C 15.711 1.33121 -1.91836 0
M  V30 149 C 16.692 1.51101 -0.781192 0
M  V30 150 O 17.877 1.64003 -1.04003 0
M  V30 151 C 15.007 2.68921 -2.19769 0
M  V30 152 C 13.961 2.65661 -3.35571 0
M  V30 153 C 13.287 4.05093 -3.49004 0
M  V30 154 C 14.587 2.24187 -4.71739 0
M  V30 155 H 16.281 1.02844 -2.81182 0
M  V30 156 H 13.827 0.493286 -1.35287 0
M  V30 157 H 15.78 3.43663 -2.43872 0
M  V30 158 H 14.504 3.00799 -1.27231 0
M  V30 159 H 13.163 1.93377 -3.1145 0
M  V30 160 H 12.811 4.34206 -2.53917 0
M  V30 161 H 12.511 4.03804 -4.26868 0
M  V30 162 H 14.035 4.81561 -3.75408 0
M  V30 163 H 15.449 2.88654 -4.9533 0
M  V30 164 H 13.846 2.34044 -5.52579 0
M  V30 165 H 14.916 1.19327 -4.69988 0
M  V30 166 N 16.2591 1.48442 0.529413 0
M  V30 167 C 17.5361 1.46978 1.29062 0
M  V30 168 C 17.9161 0.181769 2.10316 0
M  V30 169 O 17.2641 -0.836481 2.12639 0
M  V30 170 C 17.4741 2.7321 2.17157 0
M  V30 171 C 18.8221 3.21562 2.77278 0
M  V30 172 O 19.8461 2.74131 2.27444 0
M  V30 173 O 18.7051 4.04094 3.67927 0
M  V30 174 H 15.7991 0.587003 0.582543 0
M  V30 175 H 18.3451 1.60676 0.546021 0
M  V30 176 H 17.1171 3.58465 1.56903 0
M  V30 177 H 16.7401 2.62235 2.98862 0
M  V30 178 N 17.7372 -0.778329 1.37039 0
M  V30 179 C 18.9852 -1.53361 1.31623 0
M  V30 180 C 19.3062 -1.94739 -0.100831 0
M  V30 181 O 18.5762 -1.65797 -1.04347 0
M  V30 182 H 17.1562 -0.568794 0.484234 0
M  V30 183 H 19.8182 -0.926742 1.71457 0
M  V30 184 H 18.9142 -2.43606 1.95096 0
M  V30 185 N 19.2153 -1.21501 -1.00376 0
M  V30 186 C 20.1783 -0.976927 -2.07337 0
M  V30 187 C 21.1783 0.0525322 -1.60714 0
M  V30 188 O 22.3683 -0.184869 -1.73216 0
M  V30 189 C 19.5003 -0.473423 -3.37597 0
M  V30 190 H 20.6933 -1.92587 -2.29892 0
M  V30 191 H 18.2463 -1.03217 -1.17371 0
M  V30 192 H 18.9813 0.480379 -3.20722 0
M  V30 193 H 18.7663 -1.216 -3.72768 0
M  V30 194 H 20.2563 -0.32675 -4.1632 0
M  V30 195 N 20.6934 1.19889 -1.02296 0
M  V30 196 C 21.6434 2.20777 -0.56934 0
M  V30 197 C 22.6274 1.56379 0.378741 0
M  V30 198 O 23.8194 1.75859 0.200673 0
M  V30 199 C 20.9484 3.43196 0.0845077 0
M  V30 200 C 20.0344 4.14749 -0.88566 0
M  V30 201 N 20.4254 4.62584 -2.04573 0
M  V30 202 C 18.7234 4.40347 -0.707835 0
M  V30 203 C 19.4244 5.17466 -2.65714 0
M  V30 204 N 18.4004 5.0791 -1.93723 0
M  V30 205 H 22.2024 2.55434 -1.45365 0
M  V30 206 H 19.7164 1.35897 -0.88915 0
M  V30 207 H 21.7134 4.14707 0.427067 0
M  V30 208 H 20.3734 3.10042 0.964574 0
M  V30 209 H 21.3844 4.57597 -2.4254 0
M  V30 210 H 18.0614 4.17317 0.12364 0
M  V30 211 H 19.4514 5.64808 -3.63925 0
M  V30 212 N 22.1715 0.800033 1.35784 0
M  V30 213 C 23.1015 0.220184 2.3246 0
M  V30 214 C 24.0825 -0.65073 1.57161 0
M  V30 215 O 25.2675 -0.582359 1.85263 0
M  V30 216 C 22.3975 -0.637353 3.41402 0
M  V30 217 C 21.3515 0.134531 4.27789 0
M  V30 218 C 20.6775 -0.844285 5.27992 0
M  V30 219 C 21.9775 1.32979 5.05088 0
M  V30 220 H 23.6715 1.02787 2.81203 0
M  V30 221 H 21.2175 0.495717 1.35199 0
M  V30 222 H 23.1705 -1.05302 4.08031 0
M  V30 223 H 21.8945 -1.47785 2.91251 0
M  V30 224 H 20.5535 0.531296 3.6273 0
M  V30 225 H 20.2015 -1.68011 4.74111 0
M  V30 226 H 19.9015 -0.332184 5.8666 0
M  V30 227 H 21.4255 -1.2583 5.97494 0
M  V30 228 H 22.8395 0.98934 5.64699 0
M  V30 229 H 21.2365 1.77593 5.7322 0
M  V30 230 H 22.3065 2.11978 4.36111 0
M  V30 231 N 23.6496 -1.47581 0.552962 0
M  V30 232 C 24.5826 -2.26883 -0.244857 0
M  V30 233 C 25.5606 -1.33784 -0.924147 0
M  V30 234 O 26.7446 -1.6316 -0.943981 0
M  V30 235 C 23.8716 -3.10695 -1.34856 0
M  V30 236 C 22.9176 -4.19339 -0.778268 0
M  V30 237 S 23.7506 -5.34207 0.37184 0
M  V30 238 C 24.9066 -6.21584 -0.733779 0
M  V30 239 H 25.1396 -2.94202 0.428087 0
M  V30 240 H 22.6726 -1.50628 0.339197 0
M  V30 241 H 24.6306 -3.59555 -1.98066 0
M  V30 242 H 23.2916 -2.42746 -1.99332 0
M  V30 243 H 22.4846 -4.77695 -1.60696 0
M  V30 244 H 22.0866 -3.73338 -0.222422 0
M  V30 245 H 24.3786 -6.57676 -1.62692 0
M  V30 246 H 25.3216 -7.07851 -0.187668 0
M  V30 247 H 25.7296 -5.55125 -1.02454 0
M  V30 248 N 25.1277 -0.289203 -1.54924 0
M  V30 249 C 26.0597 0.625583 -2.20497 0
M  V30 250 C 27.0727 1.10667 -1.19402 0
M  V30 251 O 28.2617 1.02615 -1.46056 0
M  V30 252 C 25.3617 1.86702 -2.82835 0
M  V30 253 C 24.5347 1.5304 -4.09753 0
M  V30 254 C 23.5937 2.62576 -4.56005 0
M  V30 255 O 22.6197 2.28167 -5.21468 0
M  V30 256 N 23.8217 3.92901 -4.27328 0
M  V30 257 H 26.5867 0.0642801 -2.99631 0
M  V30 258 H 24.1477 -0.110896 -1.6152 0
M  V30 259 H 26.1397 2.59304 -3.10715 0
M  V30 260 H 24.7097 2.33702 -2.07611 0
M  V30 261 H 23.9297 0.637564 -3.8901 0
M  V30 262 H 25.2177 1.28072 -4.92418 0
M  V30 263 H 24.6157 4.23671 -3.74859 0
M  V30 264 H 23.1727 4.61837 -4.59946 0
M  V30 265 N 26.6058 1.57591 -0.0167156 0
M  V30 266 C 27.8548 1.90461 0.663877 0
M  V30 267 C 28.1678 0.893515 1.73999 0
M  V30 268 O 29.3738 1.11302 2.47637 0
M  V30 269 C 27.8298 3.38155 1.23204 0
M  V30 270 C 27.4378 4.47597 0.189866 0
M  V30 271 C 29.1818 3.80111 1.88986 0
M  V30 272 C 27.0888 5.86379 0.768964 0
M  V30 273 H 26.0188 0.710738 0.251729 0
M  V30 274 H 28.6698 1.83326 -0.0799926 0
M  V30 275 H 27.0518 3.40182 2.02712 0
M  V30 276 H 28.2258 4.57112 -0.581846 0
M  V30 277 H 26.5408 4.14766 -0.368475 0
M  V30 278 H 29.1378 4.81145 2.33247 0
M  V30 279 H 29.4808 3.14511 2.72743 0
M  V30 280 H 30.0138 3.80454 1.16187 0
M  V30 281 H 26.7528 6.55493 -0.0301957 0
M  V30 282 H 26.2728 5.80496 1.50945 0
M  V30 283 H 27.9518 6.34563 1.26251 0
M  V30 284 N 28.0839 -0.256276 1.55502 0
M  V30 285 C 29.0139 -1.32102 1.92539 0
M  V30 286 C 29.9949 -1.50684 0.789194 0
M  V30 287 O 31.1799 -1.63449 1.04872 0
M  V30 288 C 28.3099 -2.67752 2.21192 0
M  V30 289 C 27.2639 -2.63878 3.36975 0
M  V30 290 C 26.5899 -4.03236 3.51147 0
M  V30 291 C 27.8899 -2.21682 4.72921 0
M  V30 292 H 29.5839 -1.01351 2.81724 0
M  V30 293 H 27.1299 -0.486105 1.35547 0
M  V30 294 H 29.0829 -3.42365 2.45691 0
M  V30 295 H 27.8069 -3.0012 1.28824 0
M  V30 296 H 26.4659 -1.91722 3.12471 0
M  V30 297 H 26.1139 -4.32854 2.56216 0
M  V30 298 H 25.8139 -4.01535 4.29003 0
M  V30 299 H 27.3379 -4.79563 3.77957 0
M  V30 300 H 28.7519 -2.86023 4.96854 0
M  V30 301 H 27.1489 -2.3111 5.53812 0
M  V30 302 H 28.2189 -1.16833 4.70615 0
M  V30 303 N 29.562 -1.4872 -0.521534 0
M  V30 304 C 30.808 -1.58378 -1.27624 0
M  V30 305 C 31.163 -0.258028 -1.90662 0
M  V30 306 O 30.456 0.739917 -1.76736 0
M  V30 307 C 30.65 -2.66497 -2.38148 0
M  V30 308 C 30.479 -4.09456 -1.85945 0
M  V30 309 C 29.249 -4.76495 -1.68168 0
M  V30 310 C 31.447 -4.95353 -1.3831 0
M  V30 311 N 29.429 -6.0384 -1.1068 0
M  V30 312 C 30.8 -6.13012 -0.928238 0
M  V30 313 C 32.855 -4.81512 -1.26692 0
M  V30 314 C 31.558 -7.18354 -0.368701 0
M  V30 315 C 33.584 -5.86984 -0.721368 0
M  V30 316 C 32.946 -7.03857 -0.276623 0
M  V30 317 H 29.045 -0.634045 -0.457724 0
M  V30 318 H 31.629 -1.85639 -0.587049 0
M  V30 319 H 29.8 -2.41043 -3.04553 0
M  V30 320 H 31.532 -2.65791 -3.05184 0
M  V30 321 H 28.287 -4.32962 -1.91939 0
M  V30 322 H 28.711 -6.71778 -0.839217 0
M  V30 323 H 33.353 -3.91487 -1.5968 0
M  V30 324 H 31.071 -8.08096 -0.0265122 0
M  V30 325 H 34.657 -5.78329 -0.634531 0
M  V30 326 H 33.537 -7.84077 0.138947 0
M  V30 327 N 31.0401 0.771051 -1.3745 0
M  V30 328 C 32.2701 1.55789 -1.35696 0
M  V30 329 C 32.6781 1.89107 0.0594523 0
M  V30 330 O 32.0211 1.51984 1.03183 0
M  V30 331 C 32.0831 2.89515 -2.13123 0
M  V30 332 C 31.7471 2.78829 -3.62082 0
M  V30 333 C 32.7441 2.49812 -4.5595 0
M  V30 334 C 30.4291 2.9683 -4.05213 0
M  V30 335 C 32.4231 2.38923 -5.90927 0
M  V30 336 C 30.1101 2.85562 -5.40276 0
M  V30 337 C 31.1081 2.56649 -6.32946 0
M  V30 338 O 30.7961 2.45408 -7.65526 0
M  V30 339 H 30.5281 0.489257 -0.466481 0
M  V30 340 H 33.0821 0.963446 -1.81403 0
M  V30 341 H 31.3121 3.51081 -1.62107 0
M  V30 342 H 33.0011 3.50915 -2.03994 0
M  V30 343 H 33.7671 2.3559 -4.23937 0
M  V30 344 H 29.6461 3.18335 -3.33442 0
M  V30 345 H 33.1901 2.16277 -6.63227 0
M  V30 346 H 29.0871 2.99351 -5.71891 0
M  V30 347 H 29.8551 2.60753 -7.75855 0
M  V30 348 N 32.5182 1.22032 0.997298 0
M  V30 349 C 33.7952 0.950823 1.70935 0
M  V30 350 C 34.1752 -0.535292 2.042 0
M  V30 351 O 33.5232 -1.50217 1.72183 0
M  V30 352 C 33.7332 1.84386 2.96315 0
M  V30 353 C 35.0812 2.09732 3.69185 0
M  V30 354 O 36.1052 1.81798 3.06314 0
M  V30 355 O 34.9642 2.57018 4.82291 0
M  V30 356 H 32.0582 0.357204 0.745878 0
M  V30 357 H 34.6042 1.32997 1.05404 0
M  V30 358 H 33.3762 2.84928 2.68201 0
M  V30 359 H 32.9992 1.46602 3.69586 0
M  V30 360 N 33.9963 -1.19345 1.0293 0
M  V30 361 C 34.9063 -2.26245 0.620515 0
M  V30 362 C 35.9223 -1.70486 -0.347928 0
M  V30 363 O 37.0983 -2.00347 -0.205704 0
M  V30 364 C 34.1633 -3.46693 -0.0218957 0
M  V30 365 C 33.2243 -4.17632 0.994102 0
M  V30 366 C 32.4573 -5.32329 0.382253 0
M  V30 367 O 32.6803 -5.64552 -0.814676 0
M  V30 368 O 31.6143 -5.91664 1.10531 0
M  V30 369 H 35.4403 -2.63453 1.51083 0
M  V30 370 H 33.0253 -1.26207 0.799513 0
M  V30 371 H 34.9073 -4.19683 -0.380072 0
M  V30 372 H 33.5823 -3.11333 -0.886209 0
M  V30 373 H 32.4893 -3.4676 1.40387 0
M  V30 374 H 33.8223 -4.56964 1.8288 0
M  V30 375 N 35.4744 -0.807222 -1.35358 0
M  V30 376 C 36.3844 -0.219594 -2.3357 0
M  V30 377 C 37.4004 0.637734 -1.61892 0
M  V30 378 O 38.5764 0.549336 -1.93763 0
M  V30 379 C 35.6414 0.62158 -3.41083 0
M  V30 380 C 34.7024 -0.256315 -4.28534 0
M  V30 381 C 33.9354 0.544807 -5.30912 0
M  V30 382 O 34.1584 1.77944 -5.41934 0
M  V30 383 O 33.0924 -0.0646478 -6.01865 0
M  V30 384 H 36.9184 -1.03208 -2.85625 0
M  V30 385 H 34.5034 -0.569025 -1.38139 0
M  V30 386 H 36.3854 1.10067 -4.06772 0
M  V30 387 H 35.0604 1.41165 -2.91297 0
M  V30 388 H 33.9674 -0.782559 -3.65823 0
M  V30 389 H 35.3004 -1.01034 -4.81719 0
M  V30 390 N 36.9525 1.47285 -0.560781 0
M  V30 391 C 37.8625 2.33846 0.187954 0
M  V30 392 C 38.8785 1.48412 0.908293 0
M  V30 393 O 40.0545 1.81332 0.876388 0
M  V30 394 C 37.1195 3.25178 1.2025 0
M  V30 395 C 36.1805 4.26504 0.489208 0
M  V30 396 C 35.4135 5.13472 1.45542 0
M  V30 397 O 35.6365 5.02959 2.6905 0
M  V30 398 O 34.5705 5.93902 0.977963 0
M  V30 399 H 38.3965 2.99177 -0.522177 0
M  V30 400 H 35.9815 1.45903 -0.321364 0
M  V30 401 H 37.8635 3.81584 1.78805 0
M  V30 402 H 36.5385 2.6247 1.89449 0
M  V30 403 H 35.4455 3.73847 -0.137627 0
M  V30 404 H 36.7785 4.91935 -0.161399 0
M  V30 405 N 38.4306 0.297415 1.54768 0
M  V30 406 C 39.6556 -0.318435 2.04941 0
M  V30 407 C 40.0806 -1.4701 1.17345 0
M  V30 408 O 39.4386 -1.80436 0.176758 0
M  V30 409 C 39.4866 -0.755749 3.52592 0
M  V30 410 O 38.5906 -1.86088 3.68028 0
M  V30 411 H 37.9316 -0.062421 0.661059 0
M  V30 412 H 40.4616 0.438215 1.99852 0
M  V30 413 H 40.4716 -1.04552 3.94376 0
M  V30 414 H 39.1466 0.0867233 4.1581 0
M  V30 415 H 37.7236 -1.57193 3.38149 0
M  V30 416 N 39.9087 -1.5758 0.0250728 0
M  V30 417 C 40.8387 -2.13007 -0.956575 0
M  V30 418 C 41.8197 -1.0452 -1.342 0
M  V30 419 O 43.0047 -1.32332 -1.42133 0
M  V30 420 C 40.1347 -2.65386 -2.24026 0
M  V30 421 C 39.0887 -3.78623 -1.99571 0
M  V30 422 C 38.4147 -4.17414 -3.3417 0
M  V30 423 C 39.7147 -5.04867 -1.33814 0
M  V30 424 H 41.4087 -2.9528 -0.494991 0
M  V30 425 H 38.9547 -1.42042 -0.236651 0
M  V30 426 H 40.9077 -3.02794 -2.93076 0
M  V30 427 H 39.6317 -1.80268 -2.72343 0
M  V30 428 H 38.2907 -3.41646 -1.32941 0
M  V30 429 H 37.9387 -3.29284 -3.80238 0
M  V30 430 H 37.6387 -4.93719 -3.18615 0
M  V30 431 H 39.1627 -4.57402 -4.04495 0
M  V30 432 H 40.5767 -5.39888 -1.92857 0
M  V30 433 H 38.9737 -5.86144 -1.28669 0
M  V30 434 H 40.0437 -4.83904 -0.310561 0
M  V30 435 N 41.3868 0.248026 -1.55636 0
M  V30 436 C 42.6168 0.992367 -1.81206 0
M  V30 437 C 43.0248 1.7949 -0.598324 0
M  V30 438 O 42.3678 1.78292 0.442434 0
M  V30 439 C 42.4298 1.97926 -3.00109 0
M  V30 440 C 42.0938 1.36377 -4.36177 0
M  V30 441 C 43.0908 0.76682 -5.14214 0
M  V30 442 C 40.7758 1.38347 -4.82872 0
M  V30 443 C 42.7698 0.197778 -6.37093 0
M  V30 444 C 40.4568 0.810574 -6.057 0
M  V30 445 C 41.4548 0.218754 -6.8265 0
M  V30 446 O 41.1428 -0.345298 -8.03158 0
M  V30 447 H 40.8748 0.297704 -0.606917 0
M  V30 448 H 43.4288 0.276517 -2.0353 0
M  V30 449 H 41.6588 2.73339 -2.73538 0
M  V30 450 H 43.3478 2.58694 -3.12781 0
M  V30 451 H 44.1138 0.744114 -4.79258 0
M  V30 452 H 39.9928 1.8335 -4.2297 0
M  V30 453 H 43.5368 -0.264788 -6.97097 0
M  V30 454 H 39.4338 0.830604 -6.40134 0
M  V30 455 H 40.2018 -0.237055 -8.18157 0
M  V30 456 N 42.8649 1.48995 0.513639 0
M  V30 457 C 44.2759 1.5119 1.09537 0
M  V30 458 C 44.6269 0.290906 1.94031 0
M  V30 459 O 43.7519 -0.60049 2.07902 0
M  V30 460 C 44.3469 2.73964 1.99322 0
M  V30 461 C 42.9059 2.78978 2.52682 0
M  V30 462 C 42.0529 2.44934 1.30009 0
M  V30 463 H 45.0039 1.55875 0.298125 0
M  V30 464 H 45.0249 2.53409 2.83838 0
M  V30 465 H 44.5369 3.62813 1.37799 0
M  V30 466 H 42.6379 1.94378 3.1788 0
M  V30 467 H 42.7509 3.8083 2.90698 0
M  V30 468 H 41.1149 1.9644 1.62122 0
M  V30 469 H 41.8979 3.36043 0.702131 0
M  V30 470 N 44.343 -0.763751 1.37857 0
M  V30 471 C 45.306 -1.85889 1.34081 0
M  V30 472 C 46.306 -1.58949 0.243277 0
M  V30 473 O 47.496 -1.66882 0.499589 0
M  V30 474 C 44.628 -3.23176 1.08489 0
M  V30 475 H 45.821 -1.90648 2.31502 0
M  V30 476 H 43.374 -0.964367 1.23003 0
M  V30 477 H 44.109 -3.24091 0.116318 0
M  V30 478 H 43.894 -3.44124 1.8794 0
M  V30 479 H 45.384 -4.03254 1.08517 0
M  V30 480 N 45.8211 -1.22559 -0.990812 0
M  V30 481 C 47.0671 -1.05297 -1.73322 0
M  V30 482 C 47.4001 0.410655 -1.89808 0
M  V30 483 O 46.6751 1.30439 -1.44277 0
M  V30 484 C 46.9581 -1.76713 -3.13759 0
M  V30 485 C 46.8111 -3.30684 -3.04907 0
M  V30 486 C 48.1301 -1.52121 -4.12974 0
M  V30 487 H 45.2491 -0.38392 -0.629106 0
M  V30 488 H 47.8911 -1.50926 -1.15418 0
M  V30 489 H 46.0411 -1.37924 -3.63193 0
M  V30 490 H 47.7131 -3.7893 -2.63077 0
M  V30 491 H 45.9561 -3.60253 -2.41661 0
M  V30 492 H 46.6271 -3.75833 -4.04294 0
M  V30 493 H 49.1031 -1.85819 -3.72304 0
M  V30 494 H 47.9791 -2.04582 -5.0935 0
M  V30 495 H 48.2401 -0.454257 -4.3976 0
M  V30 496 N 47.2992 1.18797 -1.03562 0
M  V30 497 C 48.5452 1.89192 -0.746867 0
M  V30 498 C 48.9002 1.78531 0.717245 0
M  V30 499 O 48.1932 1.17137 1.51622 0
M  V30 500 C 48.3872 3.38692 -1.14117 0
M  V30 501 C 48.2162 3.63902 -2.64207 0
M  V30 502 C 46.9862 3.81553 -3.31279 0
M  V30 503 C 49.1842 3.64903 -3.62423 0
M  V30 504 N 47.1662 3.94455 -4.70402 0
M  V30 505 C 48.5372 3.83458 -4.87196 0
M  V30 506 C 50.5922 3.47965 -3.56125 0
M  V30 507 C 49.2952 3.86829 -6.06429 0
M  V30 508 C 51.3212 3.52616 -4.7478 0
M  V30 509 C 50.6832 3.71663 -5.9837 0
M  V30 510 H 46.7822 0.711141 -0.325273 0
M  V30 511 H 49.3662 1.42727 -1.32428 0
M  V30 512 H 47.5372 3.83864 -0.591889 0
M  V30 513 H 49.2692 3.96634 -0.803966 0
M  V30 514 H 46.0242 3.80723 -2.81686 0
M  V30 515 H 46.4482 4.0474 -5.42692 0
M  V30 516 H 51.0902 3.32189 -2.61553 0
M  V30 517 H 48.8082 4.01395 -7.01362 0
M  V30 518 H 52.3942 3.40791 -4.71543 0
M  V30 519 H 51.2742 3.75145 -6.88648 0
M  V30 520 N 48.7773 0.814389 1.34928 0
M  V30 521 C 49.7073 0.244827 2.32213 0
M  V30 522 C 50.6883 -0.634024 1.57842 0
M  V30 523 O 51.8733 -0.562676 1.8587 0
M  V30 524 C 49.0033 -0.601106 3.42058 0
M  V30 525 C 47.9573 0.179896 4.27622 0
M  V30 526 C 47.2833 -0.788237 5.28858 0
M  V30 527 C 48.5833 1.38329 5.03649 0
M  V30 528 H 50.2773 1.05763 2.80097 0
M  V30 529 H 47.8233 0.510029 1.34665 0
M  V30 530 H 49.7763 -1.00968 4.09125 0
M  V30 531 H 48.5003 -1.44688 2.92802 0
M  V30 532 H 47.1593 0.569739 3.62146 0
M  V30 533 H 46.8073 -1.62973 4.75866 0
M  V30 534 H 46.5073 -0.269942 5.8698 0
M  V30 535 H 48.0313 -1.19485 5.98795 0
M  V30 536 H 49.4453 1.04918 5.63618 0
M  V30 537 H 47.8423 1.83662 5.71304 0
M  V30 538 H 48.9123 2.16592 4.33839 0
M  V30 539 N 50.2554 -1.46986 0.568584 0
M  V30 540 C 51.6714 -1.57946 0.229189 0
M  V30 541 C 51.8714 -1.56567 -1.26843 0
M  V30 542 O 50.9274 -1.47511 -2.04931 0
M  V30 543 C 52.2404 -2.87963 0.865909 0
M  V30 544 C 53.7884 -3.01568 0.838188 0
M  V30 545 C 54.2634 -4.34301 1.45419 0
M  V30 546 N 55.7544 -4.40965 1.41788 0
M  V30 547 C 56.4894 -5.42256 1.86403 0
M  V30 548 N 55.9854 -6.50297 2.38926 0
M  V30 549 N 57.7784 -5.3337 1.77405 0
M  V30 550 H 49.9294 -1.46126 1.54146 0
M  V30 551 H 52.1924 -0.696156 0.643484 0
M  V30 552 H 51.8984 -2.94742 1.91886 0
M  V30 553 H 51.7724 -3.75423 0.365687 0
M  V30 554 H 54.1594 -2.94379 -0.206106 0
M  V30 555 H 54.2404 -2.1562 1.37629 0
M  V30 556 H 53.8844 -4.42247 2.49761 0
M  V30 557 H 53.8144 -5.19 0.891435 0
M  V30 558 H 56.3054 -3.63484 1.03381 0
M  V30 559 H 56.6184 -7.23777 2.70863 0
M  V30 560 H 54.9634 -6.51155 2.42944 0
M  V30 561 H 58.1544 -4.47865 1.3614 0
M  V30 562 H 58.3274 -6.12169 2.12492 0
M  V30 563 N 51.7335 -0.305618 -1.54608 0
M  V30 564 C 53.0105 0.355652 -1.92339 0
M  V30 565 C 53.3905 1.71324 -1.23335 0
M  V30 566 O 52.7385 2.25473 -0.370702 0
M  V30 567 C 52.9485 0.46572 -3.45879 0
M  V30 568 C 54.2965 0.734426 -4.182 0
M  V30 569 O 55.3205 0.54935 -3.51938 0
M  V30 570 O 54.1795 1.09024 -5.35515 0
M  V30 571 H 51.2735 0.199666 -0.802535 0
M  V30 572 H 53.8195 -0.354017 -1.65966 0
M  V30 573 H 52.5915 -0.488461 -3.88239 0
M  V30 574 H 52.2145 1.22367 -3.78301 0
M  V30 575 N 53.2116 1.57565 -0.0334293 0
M  V30 576 C 54.1596 2.1164 0.96496 0
M  V30 577 C 55.1536 1.04398 1.33407 0
M  V30 578 O 56.3596 1.22828 1.3158 0
M  V30 579 H 52.7346 0.676222 0.32898 0
M  V30 580 H 54.7056 2.94455 0.483614 0
M  V30 581 C 53.4546 2.66207 2.23672 0
M  V30 582 H 52.7776 3.48378 1.96145 0
M  V30 583 H 54.2176 3.07685 2.9173 0
M  V30 584 C 52.6766 1.59151 2.96939 0
M  V30 585 O 53.2066 0.993858 3.89211 0
M  V30 586 N 51.4126 1.31093 2.59351 0
M  V30 587 H 50.9596 1.7988 1.84393 0
M  V30 588 H 50.9176 0.596889 3.08682 0
M  V30 589 N 54.6897 -0.239769 1.55765 0
M  V30 590 C 55.9297 -0.974076 1.79697 0
M  V30 591 C 56.2937 -1.82249 0.604088 0
M  V30 592 O 57.4947 -2.58913 0.722324 0
M  V30 593 C 55.7657 -1.80595 3.08416 0
M  V30 594 S 57.3247 -2.59838 3.53596 0
M  V30 595 H 54.1427 -0.327524 0.63107 0
M  V30 596 H 56.7447 -0.241277 1.94005 0
M  V30 597 H 55.4487 -1.17249 3.93295 0
M  V30 598 H 54.9797 -2.58137 2.96865 0
M  V30 599 H 56.9947 -3.82987 3.15492 0
M  V30 600 N 56.1678 -1.49265 -0.50573 0
M  V30 601 C 57.5788 -1.51769 -1.08734 0
M  V30 602 C 57.9298 -0.301192 -1.93874 0
M  V30 603 O 57.0548 0.589456 -2.08217 0
M  V30 604 C 57.6498 -2.75017 -1.97867 0
M  V30 605 C 56.2088 -2.80314 -2.51199 0
M  V30 606 C 55.3558 -2.4562 -1.28709 0
M  V30 607 H 58.3068 -1.56031 -0.289855 0
M  V30 608 H 58.3278 -2.5491 -2.82491 0
M  V30 609 H 57.8398 -3.63539 -1.35873 0
M  V30 610 H 55.9408 -1.96061 -3.16845 0
M  V30 611 H 56.0538 -3.82366 -2.88675 0
M  V30 612 H 54.4178 -1.97297 -1.61078 0
M  V30 613 H 55.2008 -3.36411 -0.6843 0
M  V30 614 N 57.6459 0.756429 -1.3826 0
M  V30 615 C 58.8859 1.52833 -1.35725 0
M  V30 616 C 59.2499 1.91926 0.0534106 0
M  V30 617 O 60.4509 2.68028 0.203613 0
M  V30 618 C 58.7219 2.74919 -2.28373 0
M  V30 619 S 60.2809 3.64817 -2.43832 0
M  V30 620 H 57.0989 0.523043 -0.481608 0
M  V30 621 H 59.7009 0.888212 -1.74158 0
M  V30 622 H 58.4049 2.44304 -3.29763 0
M  V30 623 H 57.9359 3.43878 -1.91079 0
M  V30 624 H 59.9509 4.676 -1.66027 0
M  V30 625 N 59.124 1.23083 0.984299 0
M  V30 626 C 60.349 1.088 1.76571 0
M  V30 627 C 60.774 -0.356657 1.84688 0
M  V30 628 O 60.132 -1.25788 1.30565 0
M  V30 629 C 60.18 1.71371 3.17277 0
M  V30 630 O 59.284 0.973213 4.00752 0
M  V30 631 H 58.625 0.381599 0.543395 0
M  V30 632 H 61.155 1.63057 1.23587 0
M  V30 633 H 61.165 1.76449 3.67872 0
M  V30 634 H 59.84 2.76493 3.10684 0
M  V30 635 H 58.417 0.999078 3.59267 0
M  V30 636 N 60.6021 -1.18246 1.0419 0
M  V30 637 C 61.8791 -1.84121 0.660208 0
M  V30 638 C 62.2591 -1.92778 -0.860221 0
M  V30 639 O 61.6071 -1.45464 -1.76217 0
M  V30 640 C 61.8171 -3.22355 1.33747 0
M  V30 641 C 63.1651 -3.98376 1.46906 0
M  V30 642 O 64.1891 -3.31799 1.29568 0
M  V30 643 O 63.0481 -5.17665 1.75171 0
M  V30 644 H 60.1421 -0.794036 0.231161 0
M  V30 645 H 62.6881 -1.25628 1.14087 0
M  V30 646 H 61.4601 -3.10964 2.37522 0
M  V30 647 H 61.0831 -3.88506 0.845515 0
M  V30 648 N 62.0802 -0.821533 -1.34494 0
M  V30 649 C 63.3202 -0.414785 -2.00147 0
M  V30 650 C 63.6842 1.00299 -1.6372 0
M  V30 651 O 64.8852 1.51255 -2.22206 0
M  V30 652 C 63.1562 -0.609403 -3.52166 0
M  V30 653 S 64.7152 -0.295297 -4.37805 0
M  V30 654 H 61.5332 -0.15679 -0.693497 0
M  V30 655 H 64.1352 -1.06705 -1.63812 0
M  V30 656 H 62.8392 -1.64096 -3.76166 0
M  V30 657 H 62.3702 0.0576414 -3.93358 0
M  V30 658 H 64.3852 0.891531 -4.88125 0
M  V30 659 N 63.5583 1.46682 -0.576371 0
M  V30 660 C 64.7883 2.06498 -0.0648694 0
M  V30 661 C 65.1963 1.42665 1.24271 0
M  V30 662 O 64.5393 0.523886 1.76071 0
M  V30 663 C 64.6013 3.5904 0.181816 0
M  V30 664 C 64.2653 4.45028 -1.0392 0
M  V30 665 C 65.2623 4.81959 -1.94966 0
M  V30 666 C 62.9473 4.86259 -1.25927 0
M  V30 667 C 64.9413 5.58942 -3.06371 0
M  V30 668 C 62.6283 5.63002 -2.37638 0
M  V30 669 C 63.6263 5.99257 -3.2769 0
M  V30 670 O 63.3143 6.7445 -4.37461 0
M  V30 671 H 63.0463 0.674028 -0.0515987 0
M  V30 672 H 65.6003 1.89393 -0.794951 0
M  V30 673 H 63.8303 3.74429 0.966436 0
M  V30 674 H 65.5193 4.00806 0.641047 0
M  V30 675 H 66.2853 4.50689 -1.79177 0
M  V30 676 H 62.1643 4.57494 -0.567448 0
M  V30 677 H 65.7083 5.87158 -3.76684 0
M  V30 678 H 61.6053 5.93686 -2.53392 0
M  V30 679 H 62.3733 6.92867 -4.35749 0
M  V30 680 N 65.0364 0.313813 1.54444 0
M  V30 681 C 65.9664 -0.549454 2.26943 0
M  V30 682 C 66.9474 -1.12741 1.27372 0
M  V30 683 O 68.1324 -1.15436 1.56167 0
M  V30 684 C 65.2624 -1.71523 3.01989 0
M  V30 685 C 64.2164 -1.26703 4.08816 0
M  V30 686 C 63.5424 -2.51898 4.71647 0
M  V30 687 C 64.8424 -0.388962 5.2085 0
M  V30 688 H 66.5364 0.0552661 2.99349 0
M  V30 689 H 64.0824 0.0280207 1.43973 0
M  V30 690 H 66.0354 -2.32535 3.51433 0
M  V30 691 H 64.7594 -2.34639 2.27183 0
M  V30 692 H 63.4184 -0.679896 3.6024 0
M  V30 693 H 63.0664 -3.13356 3.93468 0
M  V30 694 H 62.7664 -2.22605 5.43802 0
M  V30 695 H 64.2904 -3.1369 5.23861 0
M  V30 696 H 65.7044 -0.905107 5.6611 0
M  V30 697 H 64.1014 -0.18924 5.99802 0
M  V30 698 H 65.1714 0.582699 4.81386 0
M  V30 699 N 66.5145 -1.57545 0.0417849 0
M  V30 700 C 67.7915 -1.83642 -0.673433 0
M  V30 701 C 68.1715 -0.928298 -1.89594 0
M  V30 702 O 67.5195 0.0129955 -2.28496 0
M  V30 703 C 67.7295 -3.33155 -1.03964 0
M  V30 704 C 69.0775 -3.99941 -1.42592 0
M  V30 705 O 70.1015 -3.37725 -1.13226 0
M  V30 706 O 68.9605 -5.09619 -1.9736 0
M  V30 707 H 66.0545 -0.757638 -0.331533 0
M  V30 708 H 68.6005 -1.69554 0.070433 0
M  V30 709 H 67.3725 -3.9093 -0.170098 0
M  V30 710 H 66.9955 -3.52396 -1.84126 0
M  V30 711 N 67.9926 0.231505 -1.5589 0
M  V30 712 C 69.2176 0.978689 -1.82856 0
M  V30 713 C 69.6426 1.77559 -0.620846 0
M  V30 714 O 69.0006 1.76119 0.430305 0
M  V30 715 C 69.0486 1.87997 -3.07716 0
M  V30 716 O 68.1526 2.97393 -2.85712 0
M  V30 717 H 67.4936 0.277663 -0.603158 0
M  V30 718 H 70.0236 0.24783 -2.03093 0
M  V30 719 H 70.0336 2.2917 -3.37558 0
M  V30 720 H 68.7086 1.29417 -3.95252 0
M  V30 721 H 67.2856 2.60238 -2.67078 0
M  V30 722 N 69.4707 1.49531 0.497807 0
M  V30 723 C 70.4337 1.65916 1.58128 0
M  V30 724 C 71.4337 0.530825 1.51786 0
M  V30 725 O 72.6237 0.797342 1.54881 0
M  V30 726 C 69.7557 1.65951 2.9778 0
M  V30 727 H 70.9487 2.62556 1.44929 0
M  V30 728 H 68.5017 1.38611 0.722275 0
M  V30 729 H 69.2367 0.709065 3.16453 0
M  V30 730 H 69.0217 2.47897 3.03792 0
M  V30 731 H 70.5117 1.80673 3.76493 0
M  V30 732 N 70.9488 -0.749086 1.3866 0
M  V30 733 C 71.8958 -1.86291 1.36251 0
M  V30 734 C 72.8658 -1.64578 0.224347 0
M  V30 735 O 74.0508 -1.86181 0.417279 0
M  V30 736 C 71.1908 -3.23644 1.19786 0
M  V30 737 C 70.3038 -3.57158 2.43027 0
M  V30 738 C 69.4388 -4.83838 2.19258 0
M  V30 739 C 68.4778 -5.10152 3.38247 0
M  V30 740 N 67.6148 -6.28029 3.13884 0
M  V30 741 H 72.4548 -1.87685 2.3147 0
M  V30 742 H 69.9918 -0.917287 1.14997 0
M  V30 743 H 71.9498 -4.0291 1.08254 0
M  V30 744 H 70.5798 -3.21566 0.282031 0
M  V30 745 H 69.6318 -2.72701 2.65214 0
M  V30 746 H 70.9438 -3.7253 3.31697 0
M  V30 747 H 70.0978 -5.71057 2.04888 0
M  V30 748 H 68.8368 -4.70614 1.2796 0
M  V30 749 H 67.8418 -4.21401 3.53131 0
M  V30 750 H 69.0668 -5.25271 4.30427 0
M  V30 751 H 67.0128 -6.1612 2.25238 0
M  V30 752 H 66.9298 -6.43922 3.96106 0
M  V30 753 H 68.1978 -7.18124 3.03179 0
M  V30 754 N 72.4269 -1.23603 -0.977757 0
M  V30 755 C 73.3899 -1.02069 -2.05218 0
M  V30 756 C 74.3899 0.0184305 -1.60789 0
M  V30 757 O 75.5799 -0.221569 -1.72785 0
M  V30 758 C 72.7119 -0.544926 -3.36517 0
M  V30 759 H 73.9049 -1.9742 -2.25755 0
M  V30 760 H 71.4579 -1.05684 -1.15155 0
M  V30 761 H 72.1929 0.412241 -3.21669 0
M  V30 762 H 71.9779 -1.2948 -3.70105 0
M  V30 763 H 73.4679 -0.414985 -4.15533 0
M  V30 764 N 73.905 1.17692 -1.04816 0
M  V30 765 C 75.321 1.39863 -0.768794 0
M  V30 766 C 75.521 1.91118 0.638451 0
M  V30 767 O 74.577 2.10036 1.40146 0
M  V30 768 C 75.89 2.39274 -1.82122 0
M  V30 769 C 77.438 2.52987 -1.843 0
M  V30 770 C 77.913 3.55669 -2.88555 0
M  V30 771 N 79.404 3.63183 -2.87493 0
M  V30 772 C 80.139 4.42381 -3.64811 0
M  V30 773 N 79.635 5.25125 -4.51903 0
M  V30 774 N 81.428 4.37217 -3.53267 0
M  V30 775 H 73.579 0.82752 -1.95617 0
M  V30 776 H 75.842 0.426123 -0.846831 0
M  V30 777 H 75.548 2.08678 -2.83102 0
M  V30 778 H 75.422 3.38725 -1.65967 0
M  V30 779 H 77.809 2.82896 -0.839869 0
M  V30 780 H 77.89 1.53623 -2.04532 0
M  V30 781 H 77.534 3.26499 -3.89051 0
M  V30 782 H 77.464 4.54728 -2.65575 0
M  V30 783 H 79.955 3.04103 -2.24343 0
M  V30 784 H 80.268 5.82728 -5.07591 0
M  V30 785 H 78.613 5.24519 -4.55966 0
M  V30 786 H 81.804 3.71626 -2.84625 0
M  V30 787 H 81.977 4.98696 -4.13771 0
M  V30 788 N 75.3831 0.828654 1.34056 0
M  V30 789 C 76.3301 0.252567 2.29414 0
M  V30 790 C 77.3001 -0.62588 1.53857 0
M  V30 791 O 78.4851 -0.566312 1.82202 0
M  V30 792 C 75.6251 -0.574831 3.40279 0
M  V30 793 C 74.7381 0.326499 4.30764 0
M  V30 794 C 73.8731 -0.511016 5.28736 0
M  V30 795 C 72.9121 0.389342 6.1086 0
M  V30 796 N 72.0491 -0.409439 7.00905 0
M  V30 797 H 76.8891 1.07108 2.78086 0
M  V30 798 H 74.4261 0.539677 1.36843 0
M  V30 799 H 76.3841 -1.06992 4.03248 0
M  V30 800 H 75.0141 -1.35841 2.92826 0
M  V30 801 H 74.0661 0.939837 3.68607 0
M  V30 802 H 75.3781 1.01857 4.88289 0
M  V30 803 H 74.5321 -1.07035 5.97184 0
M  V30 804 H 73.2711 -1.23657 4.71763 0
M  V30 805 H 72.2761 0.960769 5.4134 0
M  V30 806 H 73.5011 1.1131 6.69916 0
M  V30 807 H 71.4471 -1.11856 6.46393 0
M  V30 808 H 71.3641 0.224126 7.55668 0
M  V30 809 H 72.6321 -0.951336 7.73673 0
M  V30 810 N 76.8612 -1.46375 0.584142 0
M  V30 811 C 77.7912 -2.33103 -0.136037 0
M  V30 812 C 78.7722 -1.45431 -0.882255 0
M  V30 813 O 79.9572 -1.74246 -0.857434 0
M  V30 814 C 77.0872 -3.27731 -1.14933 0
M  V30 815 C 76.0412 -4.24855 -0.517862 0
M  V30 816 C 75.3672 -5.09001 -1.63773 0
M  V30 817 C 76.6672 -5.19439 0.545886 0
M  V30 818 H 78.3612 -2.93568 0.588086 0
M  V30 819 H 75.9072 -1.41166 0.284259 0
M  V30 820 H 77.8602 -3.87261 -1.66153 0
M  V30 821 H 76.5842 -2.65377 -1.90375 0
M  V30 822 H 75.2432 -3.6659 -0.0267361 0
M  V30 823 H 74.8912 -4.43031 -2.38185 0
M  V30 824 H 74.5912 -5.74777 -1.22085 0
M  V30 825 H 76.1152 -5.71396 -2.15266 0
M  V30 826 H 77.5292 -5.73177 0.118704 0
M  V30 827 H 75.9262 -5.93566 0.88317 0
M  V30 828 H 76.9962 -4.63285 1.43162 0
M  V30 829 N 78.3393 -0.321999 -1.54275 0
M  V30 830 C 79.2693 0.537411 -2.27231 0
M  V30 831 C 80.2503 1.12064 -1.27968 0
M  V30 832 O 81.4353 1.14606 -1.56777 0
M  V30 833 C 78.5653 1.69919 -3.02894 0
M  V30 834 C 77.5193 1.24534 -4.09482 0
M  V30 835 C 76.8453 2.49394 -4.72977 0
M  V30 836 C 78.1453 0.361335 -5.21049 0
M  V30 837 H 79.8393 -0.0711406 -2.99315 0
M  V30 838 H 77.3853 -0.0356555 -1.43956 0
M  V30 839 H 79.3383 2.30668 -3.52662 0
M  V30 840 H 78.0623 2.33431 -2.28424 0
M  V30 841 H 76.7213 0.660782 -3.60596 0
M  V30 842 H 76.3693 3.11265 -3.95124 0
M  V30 843 H 76.0693 2.19718 -5.44975 0
M  V30 844 H 77.5933 3.10908 -5.25517 0
M  V30 845 H 79.0073 0.875072 -5.66582 0
M  V30 846 H 77.4043 0.157428 -5.99893 0
M  V30 847 H 78.4743 -0.60822 -4.8107 0
M  V30 848 N 79.8174 1.5752 -0.0501392 0
M  V30 849 C 81.0634 1.92936 0.624798 0
M  V30 850 C 81.3964 0.928685 1.70555 0
M  V30 851 O 80.6714 -0.0454779 1.94447 0
M  V30 852 C 80.9544 3.38737 1.22185 0
M  V30 853 C 80.8074 4.49552 0.149218 0
M  V30 854 C 82.1264 3.84913 2.13378 0
M  V30 855 H 79.2454 0.701604 0.225657 0
M  V30 856 H 81.8874 1.89671 -0.111693 0
M  V30 857 H 80.0374 3.4165 1.84953 0
M  V30 858 H 81.7094 4.58768 -0.482648 0
M  V30 859 H 79.9524 4.30638 -0.522841 0
M  V30 860 H 80.6234 5.48653 0.606966 0
M  V30 861 H 83.0994 3.8387 1.60572 0
M  V30 862 H 81.9754 4.87584 2.52097 0
M  V30 863 H 82.2364 3.21611 3.03346 0
M  V30 864 N 81.2955 -0.223234 1.56011 0
M  V30 865 C 82.2055 -1.29766 1.95443 0
M  V30 866 C 83.2215 -1.51373 0.858028 0
M  V30 867 O 84.3975 -1.64536 1.16146 0
M  V30 868 C 81.4625 -2.62772 2.26167 0
M  V30 869 C 80.5235 -2.49482 3.49367 0
M  V30 870 C 79.7565 -3.76145 3.78616 0
M  V30 871 O 79.9795 -4.79087 3.09568 0
M  V30 872 O 78.9135 -3.73358 4.72109 0
M  V30 873 H 82.7395 -0.99309 2.87004 0
M  V30 874 H 80.3245 -0.425958 1.43199 0
M  V30 875 H 82.2065 -3.41327 2.47131 0
M  V30 876 H 80.8815 -2.92913 1.37781 0
M  V30 877 H 79.7885 -1.69133 3.33684 0
M  V30 878 H 81.1215 -2.2428 4.38131 0
M  V30 879 N 82.7736 -1.49793 -0.48987 0
M  V30 880 C 83.7366 -1.66752 -1.57246 0
M  V30 881 C 84.7366 -0.538867 -1.51502 0
M  V30 882 O 85.9266 -0.805545 -1.54456 0
M  V30 883 C 83.0586 -1.67528 -2.96896 0
M  V30 884 H 84.2516 -2.63321 -1.43534 0
M  V30 885 H 81.8046 -1.38992 -0.714914 0
M  V30 886 H 82.5396 -0.725837 -3.16073 0
M  V30 887 H 82.3246 -2.49504 -3.02473 0
M  V30 888 H 83.8146 -1.82667 -3.7553 0
M  V30 889 N 84.2517 0.741722 -1.39055 0
M  V30 890 C 85.1817 1.869 -1.39966 0
M  V30 891 C 86.1627 1.6804 -0.26392 0
M  V30 892 O 87.3477 1.88458 -0.468755 0
M  V30 893 C 84.4777 3.24572 -1.23574 0
M  V30 894 C 83.4317 3.58056 -2.34477 0
M  V30 895 C 82.7577 4.94593 -2.0318 0
M  V30 896 C 84.0577 3.61716 -3.76774 0
M  V30 897 H 85.7517 1.86395 -2.34302 0
M  V30 898 H 83.2977 0.895361 -1.1278 0
M  V30 899 H 85.2507 4.031 -1.22834 0
M  V30 900 H 83.9747 3.25587 -0.257045 0
M  V30 901 H 82.6337 2.81854 -2.34423 0
M  V30 902 H 82.2817 4.92181 -1.03765 0
M  V30 903 H 81.9817 5.17964 -2.77465 0
M  V30 904 H 83.5057 5.75486 -2.04079 0
M  V30 905 H 84.9197 4.30335 -3.78794 0
M  V30 906 H 83.3167 3.96603 -4.50362 0
M  V30 907 H 84.3867 2.61672 -4.08235 0
M  V30 908 N 85.7298 1.2412 0.971189 0
M  V30 909 C 87.0068 0.986867 1.6888 0
M  V30 910 C 87.3868 -0.491857 2.0529 0
M  V30 911 O 86.7348 -1.46531 1.75331 0
M  V30 912 C 86.9448 1.9063 2.92338 0
M  V30 913 C 88.2928 2.17515 3.64654 0
M  V30 914 O 89.3168 1.88254 3.02388 0
M  V30 915 O 88.1758 2.6719 4.7673 0
M  V30 916 H 85.2698 0.372944 0.738134 0
M  V30 917 H 87.8158 1.35203 1.02559 0
M  V30 918 H 86.5878 2.90552 2.62097 0
M  V30 919 H 86.2108 1.54408 3.66393 0
M  V30 920 N 87.2079 -1.17134 1.05439 0
M  V30 921 C 88.4539 -1.87733 0.767077 0
M  V30 922 C 88.7869 -1.8098 -0.704253 0
M  V30 923 O 88.0619 -1.21951 -1.5152 0
M  V30 924 C 88.3449 -3.37659 1.25133 0
M  V30 925 C 88.1979 -3.53149 2.78578 0
M  V30 926 C 89.5169 -4.31768 0.852324 0
M  V30 927 H 86.6359 -0.681687 0.280129 0
M  V30 928 H 89.2779 -1.37732 1.30881 0
M  V30 929 H 87.4279 -3.80373 0.790469 0
M  V30 930 H 89.0999 -3.19434 3.32806 0
M  V30 931 H 87.3429 -2.95345 3.17732 0
M  V30 932 H 88.0139 -4.58403 3.07523 0
M  V30 933 H 90.4899 -3.96909 1.24911 0
M  V30 934 H 89.3659 -5.35199 1.21873 0
M  V30 935 H 89.6269 -4.41429 -0.243485 0
M  V30 936 N 88.686 -0.835752 -1.33615 0
M  V30 937 C 89.634 -0.255238 -2.31195 0
M  V30 938 C 90.628 0.61107 -1.57995 0
M  V30 939 O 91.834 0.500979 -1.72888 0
M  V30 940 H 88.209 -0.0638085 -0.749288 0
M  V30 941 H 90.18 -1.09283 -2.77669 0
M  V30 942 C 88.929 0.55754 -3.43201 0
M  V30 943 H 88.252 -0.0997553 -3.99676 0
M  V30 944 H 89.692 0.929622 -4.13683 0
M  V30 945 C 88.151 1.73515 -2.88781 0
M  V30 946 O 88.681 2.83376 -2.84712 0
M  V30 947 N 86.887 1.55603 -2.4543 0
M  V30 948 H 86.434 0.662354 -2.48939 0
M  V30 949 H 86.392 2.34545 -2.09371 0
M  V30 950 N 90.1641 1.46063 -0.591896 0
M  V30 951 C 91.4131 2.01547 -0.0786637 0
M  V30 952 C 91.7261 1.46796 1.29268 0
M  V30 953 O 92.9321 1.94157 1.89777 0
M  V30 954 C 91.3881 3.59787 -0.0900024 0
M  V30 955 C 90.9961 4.23534 -1.46023 0
M  V30 956 C 92.7401 4.22895 0.368806 0
M  V30 957 C 90.6471 5.73881 -1.4288 0
M  V30 958 H 89.5771 0.753564 -0.0256388 0
M  V30 959 H 92.2281 1.677 -0.744905 0
M  V30 960 H 90.6101 3.90752 0.642586 0
M  V30 961 H 91.7841 4.04167 -2.21328 0
M  V30 962 H 90.0991 3.72558 -1.85982 0
M  V30 963 H 92.6961 5.33116 0.411258 0
M  V30 964 H 93.0391 3.9247 1.38827 0
M  V30 965 H 93.5721 3.9659 -0.31001 0
M  V30 966 H 90.3111 6.0898 -2.42536 0
M  V30 967 H 89.8311 5.95486 -0.718095 0
M  V30 968 H 91.5101 6.36776 -1.14565 0
M  V30 969 N 91.6422 0.330177 1.54103 0
M  V30 970 C 92.8902 -0.269871 2.0029 0
M  V30 971 C 93.2112 -1.52133 1.21986 0
M  V30 972 O 92.4812 -1.93212 0.323438 0
M  V30 973 H 91.0612 -0.10271 0.739905 0
M  V30 974 H 93.7232 0.448249 1.89675 0
M  V30 975 H 92.8192 -0.52166 3.07709 0
M  V30 976 N 93.1203 -1.57491 0.0584922 0
M  V30 977 C 94.3693 -1.92155 -0.613146 0
M  V30 978 C 94.6823 -0.939334 -1.71569 0
M  V30 979 O 95.8883 -1.17829 -2.44599 0
M  V30 980 C 94.3443 -3.41303 -1.14195 0
M  V30 981 C 93.9523 -4.47944 -0.0711265 0
M  V30 982 C 95.6963 -3.84988 -1.78841 0
M  V30 983 C 93.6033 -5.88212 -0.613225 0
M  V30 984 H 92.5333 -0.717162 -0.232796 0
M  V30 985 H 95.1843 -1.83049 0.12857 0
M  V30 986 H 93.5663 -3.45437 -1.93621 0
M  V30 987 H 94.7403 -4.55408 0.702836 0
M  V30 988 H 93.0553 -4.13644 0.478313 0
M  V30 989 H 95.6523 -4.87159 -2.20408 0
M  V30 990 H 95.9953 -3.21632 -2.64308 0
M  V30 991 H 96.5283 -3.83401 -1.06059 0
M  V30 992 H 93.2673 -6.55183 0.203978 0
M  V30 993 H 92.7873 -5.84294 -1.35501 0
M  V30 994 H 94.4663 -6.37687 -1.09383 0
M  V30 995 N 94.5984 0.214957 -1.56127 0
M  V30 996 C 95.5454 1.26642 -1.92952 0
M  V30 997 C 96.5154 1.46244 -0.78753 0
M  V30 998 O 97.7004 1.59704 -1.04399 0
M  V30 999 C 94.8404 2.6104 -2.25726 0
M  V30 1000 C 93.9534 2.49183 -3.52891 0
M  V30 1001 C 93.0884 3.76149 -3.7508 0
M  V30 1002 C 92.1274 3.59041 -4.95738 0
M  V30 1003 N 91.2644 4.77972 -5.14283 0
M  V30 1004 H 96.1044 0.945384 -2.82607 0
M  V30 1005 H 93.6414 0.455489 -1.3987 0
M  V30 1006 H 95.5994 3.39313 -2.42739 0
M  V30 1007 H 94.2294 2.91227 -1.39236 0
M  V30 1008 H 93.2814 1.6231 -3.44034 0
M  V30 1009 H 94.5934 2.32466 -4.41318 0
M  V30 1010 H 93.7474 4.62865 -3.92226 0
M  V30 1011 H 92.4864 3.95799 -2.84947 0
M  V30 1012 H 91.4914 2.7071 -4.78535 0
M  V30 1013 H 92.7164 3.40856 -5.87362 0
M  V30 1014 H 90.6624 4.97923 -4.27093 0
M  V30 1015 H 90.5794 4.64006 -5.96853 0
M  V30 1016 H 91.8474 5.66096 -5.35869 0
M  V30 1017 N 96.0765 1.50051 0.48192 0
M  V30 1018 C 97.3245 1.60181 1.23234 0
M  V30 1019 C 97.6455 0.299176 1.92691 0
M  V30 1020 O 96.9155 -0.682708 1.83619 0
M  V30 1021 H 95.4955 0.590232 0.457859 0
M  V30 1022 H 98.1575 1.86775 0.556881 0
M  V30 1023 H 97.2535 2.40753 1.98607 0
M  V30 1024 N 97.5546 -0.734337 1.39446 0
M  V30 1025 C 98.4846 -1.86155 1.40955 0
M  V30 1026 C 99.4656 -1.67898 0.272827 0
M  V30 1027 O 100.651 -1.88207 0.478743 0
M  V30 1028 C 97.7806 -3.23912 1.25294 0
M  V30 1029 C 96.7346 -3.56808 2.36373 0
M  V30 1030 C 96.0606 -4.93508 2.058 0
M  V30 1031 C 97.3606 -3.59713 3.78687 0
M  V30 1032 H 99.0546 -1.8515 2.35287 0
M  V30 1033 H 96.6006 -0.889367 1.13253 0
M  V30 1034 H 98.5536 -4.02443 1.2497 0
M  V30 1035 H 97.2776 -3.25446 0.274308 0
M  V30 1036 H 95.9366 -2.80606 2.35914 0
M  V30 1037 H 95.5846 -4.91623 1.06374 0
M  V30 1038 H 95.2846 -5.16486 2.80208 0
M  V30 1039 H 96.8086 -5.74396 2.07128 0
M  V30 1040 H 98.2226 -4.2832 3.81071 0
M  V30 1041 H 96.6196 -3.94209 4.52459 0
M  V30 1042 H 97.6896 -2.59504 4.09617 0
M  V30 1043 N 99.0327 -1.24633 -0.964593 0
M  V30 1044 C 100.282 -1.08188 -1.7023 0
M  V30 1045 C 100.595 0.37873 -1.91898 0
M  V30 1046 O 101.801 0.663427 -2.6327 0
M  V30 1047 C 100.257 -1.88773 -3.06419 0
M  V30 1048 C 99.8647 -3.39263 -2.92582 0
M  V30 1049 C 101.609 -1.80867 -3.84041 0
M  V30 1050 C 99.5157 -4.1218 -4.24101 0
M  V30 1051 H 98.4457 -0.401245 -0.638372 0
M  V30 1052 H 101.097 -1.48742 -1.07462 0
M  V30 1053 H 99.4787 -1.41035 -3.70034 0
M  V30 1054 H 100.653 -3.94603 -2.37961 0
M  V30 1055 H 98.9677 -3.48154 -2.28424 0
M  V30 1056 H 101.565 -2.32646 -4.81435 0
M  V30 1057 H 101.908 -0.774543 -4.09031 0
M  V30 1058 H 102.441 -2.26301 -3.27159 0
M  V30 1059 H 99.1797 -5.15965 -4.04303 0
M  V30 1060 H 98.6997 -3.61626 -4.78526 0
M  V30 1061 H 100.379 -4.19349 -4.92702 0
M  V30 1062 N 100.511 1.16574 -1.06058 0
M  V30 1063 C 101.758 1.87047 -0.775873 0
M  V30 1064 C 102.086 1.81562 0.697534 0
M  V30 1065 O 101.341 1.22445 1.52662 0
M  V30 1066 C 101.64 3.36195 -1.21275 0
M  V30 1067 C 101.306 3.6188 -2.68986 0
M  V30 1068 C 99.9678 3.68599 -3.09335 0
M  V30 1069 C 102.32 3.72648 -3.64394 0
M  V30 1070 C 99.6478 3.83584 -4.43937 0
M  V30 1071 C 102 3.89154 -4.98741 0
M  V30 1072 C 100.664 3.94114 -5.3873 0
M  V30 1073 H 99.9338 0.684452 -0.283912 0
M  V30 1074 H 102.581 1.37853 -1.32925 0
M  V30 1075 H 100.886 3.87505 -0.578528 0
M  V30 1076 H 102.583 3.89103 -0.969542 0
M  V30 1077 H 99.1728 3.57281 -2.36744 0
M  V30 1078 H 103.357 3.66769 -3.34356 0
M  V30 1079 H 98.6128 3.85677 -4.74409 0
M  V30 1080 H 102.787 3.96427 -5.72554 0
M  V30 1081 H 100.414 4.05478 -6.43033 0
M  V30 1082 N 101.989 0.842826 1.3317 0
M  V30 1083 C 103.266 0.362216 1.92217 0
M  V30 1084 C 103.646 -1.15289 1.76838 0
M  V30 1085 O 102.994 -1.96914 1.15919 0
M  V30 1086 C 103.204 0.813495 3.39387 0
M  V30 1087 C 104.552 0.823804 4.16532 0
M  V30 1088 O 105.576 0.757358 3.48055 0
M  V30 1089 O 104.435 0.915193 5.38782 0
M  V30 1090 H 101.529 0.103317 0.820521 0
M  V30 1091 H 104.075 0.928942 1.42017 0
M  V30 1092 H 102.847 1.85624 3.4447 0
M  V30 1093 H 102.47 0.223561 3.96971 0
M  V30 1094 N 103.467 -1.45747 0.599634 0
M  V30 1095 C 104.883 -1.57424 0.26264 0
M  V30 1096 C 105.083 -1.59222 -1.23493 0
M  V30 1097 O 104.139 -1.51825 -2.01756 0
M  V30 1098 C 105.452 -2.86061 0.926795 0
M  V30 1099 C 107 -2.99722 0.901967 0
M  V30 1100 C 107.475 -4.31119 1.54598 0
M  V30 1101 N 108.966 -4.37858 1.5111 0
M  V30 1102 C 109.701 -5.3818 1.97863 0
M  V30 1103 N 109.197 -6.45083 2.52666 0
M  V30 1104 N 110.99 -5.29487 1.88679 0
M  V30 1105 H 103.141 -1.42823 1.57211 0
M  V30 1106 H 105.404 -0.68235 0.658105 0
M  V30 1107 H 105.11 -2.90605 1.98095 0
M  V30 1108 H 104.984 -3.74563 0.445238 0
M  V30 1109 H 107.371 -2.9475 -0.143617 0
M  V30 1110 H 107.452 -2.12652 1.42171 0
M  V30 1111 H 107.096 -4.36849 2.59085 0
M  V30 1112 H 107.026 -5.16992 1.00132 0
M  V30 1113 H 109.517 -3.61209 1.11068 0
M  V30 1114 H 109.83 -7.17869 2.86155 0
M  V30 1115 H 108.175 -6.45856 2.56701 0
M  V30 1116 H 111.366 -4.44877 1.4561 0
M  V30 1117 H 111.539 -6.07524 2.25429 0
M  V30 1118 N 104.945 -0.338344 -1.53925 0
M  V30 1119 C 105.892 0.520845 -2.24846 0
M  V30 1120 C 106.862 1.09976 -1.24477 0
M  V30 1121 O 108.047 1.13735 -1.53196 0
M  V30 1122 C 105.187 1.6685 -3.02084 0
M  V30 1123 C 104.3 1.11739 -4.17299 0
M  V30 1124 C 103.435 2.23193 -4.82036 0
M  V30 1125 C 102.474 1.65407 -5.89328 0
M  V30 1126 N 101.611 2.70582 -6.47866 0
M  V30 1127 H 106.451 -0.0904881 -2.97863 0
M  V30 1128 H 103.988 -0.0564282 -1.46992 0
M  V30 1129 H 105.946 2.34407 -3.45122 0
M  V30 1130 H 104.576 2.2509 -2.31375 0
M  V30 1131 H 103.628 0.332919 -3.7894 0
M  V30 1132 H 104.94 0.654677 -4.94485 0
M  V30 1133 H 104.094 2.98626 -5.28117 0
M  V30 1134 H 102.833 2.72807 -4.04262 0
M  V30 1135 H 101.838 0.884779 -5.42634 0
M  V30 1136 H 103.063 1.16652 -6.69006 0
M  V30 1137 H 101.009 3.1946 -5.72959 0
M  V30 1138 H 100.926 2.28917 -7.20509 0
M  V30 1139 H 102.194 3.45799 -6.98601 0
M  V30 1140 N 106.423 1.57458 -0.0668435 0
M  V30 1141 C 107.37 2.12439 0.902122 0
M  V30 1142 C 108.34 1.03565 1.2986 0
M  V30 1143 O 109.525 1.312 1.38532 0
M  V30 1144 C 106.665 2.6865 2.16614 0
M  V30 1145 C 105.778 3.91663 1.82274 0
M  V30 1146 C 104.913 4.36134 3.0325 0
M  V30 1147 C 103.952 5.51808 2.64904 0
M  V30 1148 N 103.089 5.9126 3.78624 0
M  V30 1149 H 107.929 2.94934 0.426382 0
M  V30 1150 H 105.466 1.4575 0.198819 0
M  V30 1151 H 107.424 2.99346 2.90599 0
M  V30 1152 H 106.054 1.88928 2.61737 0
M  V30 1153 H 105.106 3.6746 0.983719 0
M  V30 1154 H 106.418 4.75693 1.50059 0
M  V30 1155 H 105.572 4.68465 3.85519 0
M  V30 1156 H 104.311 3.50948 3.38655 0
M  V30 1157 H 103.316 5.19133 1.81055 0
M  V30 1158 H 104.541 6.38722 2.30675 0
M  V30 1159 H 102.487 5.09024 4.138 0
M  V30 1160 H 102.404 6.70018 3.5016 0
M  V30 1161 H 103.672 6.28212 4.61486 0
M  V30 1162 N 107.901 -0.206675 1.56239 0
M  V30 1163 C 109.147 -0.930218 1.80208 0
M  V30 1164 C 109.48 -1.83387 0.638981 0
M  V30 1165 O 108.755 -1.91119 -0.361066 0
M  V30 1166 C 109.038 -1.75641 3.1436 0
M  V30 1167 C 108.891 -0.878257 4.41142 0
M  V30 1168 C 110.21 -2.73129 3.45092 0
M  V30 1169 H 107.329 -0.336742 0.655571 0
M  V30 1170 H 109.971 -0.198222 1.88963 0
M  V30 1171 H 108.121 -2.38048 3.07027 0
M  V30 1172 H 109.793 -0.269787 4.6051 0
M  V30 1173 H 108.036 -0.184385 4.33408 0
M  V30 1174 H 108.707 -1.49106 5.3148 0
M  V30 1175 H 111.183 -2.20856 3.52649 0
M  V30 1176 H 110.059 -3.28028 4.40101 0
M  V30 1177 H 110.32 -3.51606 2.68003 0
M  V30 1178 N 109.379 -1.50304 -0.473955 0
M  V30 1179 C 110.609 -1.64663 -1.24778 0
M  V30 1180 C 111.017 -0.328174 -1.86332 0
M  V30 1181 O 110.36 0.699536 -1.69859 0
M  V30 1182 C 110.422 -2.6778 -2.39863 0
M  V30 1183 C 110.086 -4.11413 -1.98969 0
M  V30 1184 C 111.083 -4.97372 -1.51385 0
M  V30 1185 C 108.768 -4.57312 -2.07777 0
M  V30 1186 C 110.762 -6.27277 -1.13148 0
M  V30 1187 C 108.449 -5.87223 -1.69152 0
M  V30 1188 C 109.447 -6.72031 -1.21915 0
M  V30 1189 O 109.135 -7.99518 -0.838237 0
M  V30 1190 H 108.867 -0.556602 -0.383627 0
M  V30 1191 H 111.421 -1.9726 -0.572491 0
M  V30 1192 H 109.651 -2.30419 -3.10554 0
M  V30 1193 H 111.34 -2.71388 -3.01833 0
M  V30 1194 H 112.106 -4.63128 -1.44004 0
M  V30 1195 H 107.985 -3.91449 -2.43493 0
M  V30 1196 H 111.529 -6.93425 -0.762077 0
M  V30 1197 H 107.426 -6.20989 -1.76191 0
M  V30 1198 H 108.194 -8.12764 -0.967339 0
M  V30 1199 N 110.857 0.726932 -1.39834 0
M  V30 1200 C 112.106 1.48214 -1.36805 0
M  V30 1201 C 112.419 1.95576 0.0305291 0
M  V30 1202 O 113.625 2.7088 0.183417 0
M  V30 1203 C 112.081 2.67854 -2.40379 0
M  V30 1204 C 111.689 2.27408 -3.85992 0
M  V30 1205 C 113.433 3.45641 -2.46439 0
M  V30 1206 C 111.34 3.43819 -4.81189 0
M  V30 1207 H 110.27 0.556606 -0.508631 0
M  V30 1208 H 112.921 0.792216 -1.65518 0
M  V30 1209 H 111.303 3.3896 -2.04749 0
M  V30 1210 H 112.477 1.63795 -4.30706 0
M  V30 1211 H 110.792 1.62692 -3.83302 0
M  V30 1212 H 113.389 4.32244 -3.14753 0
M  V30 1213 H 113.732 3.88669 -1.49139 0
M  V30 1214 H 114.265 2.8157 -2.81004 0
M  V30 1215 H 111.004 3.05834 -5.79781 0
M  V30 1216 H 110.524 4.06385 -4.41148 0
M  V30 1217 H 112.203 4.10043 -5.00474 0
M  V30 1218 N 112.336 1.25143 0.95797 0
M  V30 1219 C 113.564 1.12424 1.73691 0
M  V30 1220 C 113.979 -0.322304 1.86029 0
M  V30 1221 O 113.336 -1.22186 1.35561 0
M  V30 1222 C 113.387 1.76933 3.15241 0
M  V30 1223 O 113.108 3.15932 3.03511 0
M  V30 1224 C 114.609 1.6995 4.09429 0
M  V30 1225 H 111.829 0.3923 0.544373 0
M  V30 1226 H 114.373 1.6544 1.20207 0
M  V30 1227 H 112.528 1.27895 3.6568 0
M  V30 1228 H 112.942 3.47598 3.9278 0
M  V30 1229 H 114.416 2.19753 5.06372 0
M  V30 1230 H 114.893 0.662619 4.34173 0
M  V30 1231 H 115.499 2.18461 3.64904 0
M  V30 1232 N 113.814 -1.1601 1.06675 0
M  V30 1233 C 115.06 -1.87145 0.796766 0
M  V30 1234 C 115.415 -1.8037 -0.669658 0
M  V30 1235 O 114.708 -1.21116 -1.48463 0
M  V30 1236 C 114.902 -3.35547 1.23057 0
M  V30 1237 C 114.731 -3.56769 2.73762 0
M  V30 1238 C 113.501 -3.72635 3.41279 0
M  V30 1239 C 115.699 -3.55166 3.7197 0
M  V30 1240 N 113.681 -3.81845 4.80695 0
M  V30 1241 C 115.052 -3.70406 4.97191 0
M  V30 1242 C 117.107 -3.384 3.65226 0
M  V30 1243 C 115.81 -3.70615 6.16471 0
M  V30 1244 C 117.836 -3.39904 4.83962 0
M  V30 1245 C 117.198 -3.55667 6.08013 0
M  V30 1246 H 113.297 -0.702267 0.344014 0
M  V30 1247 H 115.881 -1.39165 1.36166 0
M  V30 1248 H 114.052 -3.82159 0.693456 0
M  V30 1249 H 115.784 -3.94363 0.908844 0
M  V30 1250 H 112.539 -3.73121 2.91681 0
M  V30 1251 H 112.963 -3.90209 5.53232 0
M  V30 1252 H 117.605 -3.25138 2.70269 0
M  V30 1253 H 115.323 -3.82658 7.11757 0
M  V30 1254 H 118.909 -3.28169 4.80413 0
M  V30 1255 H 117.789 -3.56755 6.98352 0
M  V30 1256 N 115.292 -0.849877 -1.32721 0
M  V30 1257 C 116.703 -0.506188 -1.79707 0
M  V30 1258 C 117.054 0.975627 -1.70223 0
M  V30 1259 O 116.179 1.76078 -1.25799 0
M  V30 1260 C 116.774 -0.912044 -3.26293 0
M  V30 1261 C 115.333 -0.620326 -3.71253 0
M  V30 1262 C 114.48 -1.11439 -2.53922 0
M  V30 1263 H 117.431 -1.03754 -1.20087 0
M  V30 1264 H 117.452 -0.226493 -3.79825 0
M  V30 1265 H 116.964 -1.99057 -3.33164 0
M  V30 1266 H 115.065 0.447674 -3.69901 0
M  V30 1267 H 115.178 -1.18327 -4.64258 0
M  V30 1268 H 113.542 -0.534834 -2.49021 0
M  V30 1269 H 114.325 -2.19992 -2.6355 0
M  V30 1270 N 116.77 1.45427 -0.607355 0
M  V30 1271 C 118.047 1.9557 -0.0344566 0
M  V30 1272 C 118.427 1.54979 1.43334 0
M  V30 1273 O 117.775 0.812241 2.13576 0
M  V30 1274 C 117.985 3.48226 -0.232321 0
M  V30 1275 C 119.333 4.2445 -0.113001 0
M  V30 1276 O 120.357 3.55829 -0.162431 0
M  V30 1277 O 119.216 5.465 0.00209442 0
M  V30 1278 H 116.31 0.826222 0.0358667 0
M  V30 1279 H 118.856 1.55594 -0.6774 0
M  V30 1280 H 117.628 3.70739 -1.25174 0
M  V30 1281 H 117.251 3.95092 0.445896 0
M  V30 1282 N 118.248 0.346503 1.53744 0
M  V30 1283 C 119.158 -0.517293 2.28826 0
M  V30 1284 C 120.174 -1.10935 1.3405 0
M  V30 1285 O 121.35 -1.1244 1.6709 0
M  V30 1286 C 118.415 -1.65098 3.04866 0
M  V30 1287 C 117.476 -1.0884 4.15274 0
M  V30 1288 C 116.709 -2.16806 4.87679 0
M  V30 1289 O 116.932 -3.3758 4.59778 0
M  V30 1290 O 115.866 -1.80934 5.74061 0
M  V30 1291 H 119.692 0.0931396 3.03557 0
M  V30 1292 H 117.277 0.111458 1.48984 0
M  V30 1293 H 119.159 -2.31053 3.5241 0
M  V30 1294 H 117.834 -2.24717 2.32989 0
M  V30 1295 H 116.741 -0.3933 3.72027 0
M  V30 1296 H 118.074 -0.537036 4.89261 0
M  V30 1297 N 119.726 -1.57421 0.075193 0
M  V30 1298 C 120.676 -2.09441 -0.901025 0
M  V30 1299 C 121.66 -1.00486 -1.25663 0
M  V30 1300 O 122.852 -1.2679 -1.23504 0
M  V30 1301 C 119.981 -2.66233 -2.16737 0
M  V30 1302 C 119.067 -3.82198 -1.83808 0
M  V30 1303 N 119.458 -4.91028 -1.21345 0
M  V30 1304 C 117.756 -3.91558 -2.13538 0
M  V30 1305 C 118.457 -5.71852 -1.06585 0
M  V30 1306 N 117.433 -5.20233 -1.57667 0
M  V30 1307 H 121.235 -2.90972 -0.413815 0
M  V30 1308 H 118.749 -1.6189 -0.128601 0
M  V30 1309 H 120.746 -3.01819 -2.87595 0
M  V30 1310 H 119.406 -1.8615 -2.66042 0
M  V30 1311 H 120.417 -5.10323 -0.88268 0
M  V30 1312 H 117.094 -3.22454 -2.65197 0
M  V30 1313 H 118.484 -6.69401 -0.578933 0
M  V30 1314 N 121.204 0.198386 -1.56346 0
M  V30 1315 C 122.434 0.934215 -1.84271 0
M  V30 1316 C 122.842 1.77496 -0.655125 0
M  V30 1317 O 122.185 1.7961 0.385488 0
M  V30 1318 C 122.247 1.88278 -3.06254 0
M  V30 1319 C 121.911 1.22431 -4.40295 0
M  V30 1320 C 122.908 0.602839 -5.16393 0
M  V30 1321 C 120.593 1.22915 -4.87029 0
M  V30 1322 C 122.587 -0.0050083 -6.374 0
M  V30 1323 C 120.274 0.617465 -6.07973 0
M  V30 1324 C 121.272 0.00146341 -6.83 0
M  V30 1325 O 120.96 -0.600642 -8.01653 0
M  V30 1326 H 120.692 0.278245 -0.616081 0
M  V30 1327 H 123.246 0.211626 -2.04307 0
M  V30 1328 H 121.476 2.64498 -2.82095 0
M  V30 1329 H 123.165 2.48612 -3.20853 0
M  V30 1330 H 123.931 0.591265 -4.81382 0
M  V30 1331 H 119.81 1.69801 -4.28589 0
M  V30 1332 H 123.354 -0.48643 -6.95902 0
M  V30 1333 H 119.251 0.62653 -6.42452 0
M  V30 1334 H 120.019 -0.497225 -8.16988 0
M  V30 1335 N 122.682 1.50554 0.465978 0
M  V30 1336 C 123.907 1.65838 1.24549 0
M  V30 1337 C 124.332 0.343486 1.84937 0
M  V30 1338 O 123.69 -0.69324 1.67523 0
M  V30 1339 C 123.738 2.75533 2.32624 0
M  V30 1340 O 122.842 2.37142 3.37398 0
M  V30 1341 H 122.183 0.553893 0.366194 0
M  V30 1342 H 124.713 1.96959 0.553927 0
M  V30 1343 H 124.723 2.98763 2.77857 0
M  V30 1344 H 123.398 3.70962 1.88043 0
M  V30 1345 H 121.975 2.24377 2.97841 0
M  V30 1346 N 124.16 -0.719506 1.40217 0
M  V30 1347 C 125.07 -1.86378 1.42479 0
M  V30 1348 C 126.086 -1.71073 0.317834 0
M  V30 1349 O 127.262 -1.93406 0.561794 0
M  V30 1350 C 124.327 -3.22136 1.28178 0
M  V30 1351 C 123.388 -3.49723 2.48982 0
M  V30 1352 C 122.621 -4.79004 2.35353 0
M  V30 1353 O 122.844 -5.53821 1.36524 0
M  V30 1354 O 121.778 -5.06839 3.2465 0
M  V30 1355 H 125.604 -1.87425 2.38968 0
M  V30 1356 H 123.189 -0.869405 1.21498 0
M  V30 1357 H 125.071 -4.03234 1.22395 0
M  V30 1358 H 123.746 -3.21825 0.347934 0
M  V30 1359 H 122.653 -2.6865 2.60342 0
M  V30 1360 H 123.986 -3.54828 3.41113 0
M  V30 1361 N 125.638 -1.25649 -0.95132 0
M  V30 1362 C 126.885 -1.10594 -1.69633 0
M  V30 1363 C 127.213 0.352515 -1.91279 0
M  V30 1364 O 126.468 1.27601 -1.4838 0
M  V30 1365 C 126.767 -1.80909 -3.08231 0
M  V30 1366 C 126.433 -3.30825 -3.06375 0
M  V30 1367 C 125.095 -3.71722 -3.05576 0
M  V30 1368 C 127.447 -4.26589 -2.99452 0
M  V30 1369 C 124.775 -5.06788 -2.95606 0
M  V30 1370 C 127.127 -5.61683 -2.91024 0
M  V30 1371 C 125.791 -6.01904 -2.88562 0
M  V30 1372 H 125.061 -0.404691 -0.620731 0
M  V30 1373 H 127.708 -1.55964 -1.11119 0
M  V30 1374 H 126.013 -1.27979 -3.70309 0
M  V30 1375 H 127.71 -1.6671 -3.64704 0
M  V30 1376 H 124.3 -2.98287 -3.07771 0
M  V30 1377 H 128.484 -3.95982 -2.99185 0
M  V30 1378 H 123.74 -5.37126 -2.92071 0
M  V30 1379 H 127.914 -6.35578 -2.84629 0
M  V30 1380 H 125.541 -7.06521 -2.80593 0
M  V30 1381 N 127.117 1.15442 -1.07289 0
M  V30 1382 C 128.049 2.19773 -0.650585 0
M  V30 1383 C 129.062 1.60076 0.296572 0
M  V30 1384 O 130.251 1.78293 0.0859905 0
M  V30 1385 C 127.351 3.38838 0.0650398 0
M  V30 1386 C 126.524 4.2808 -0.898141 0
M  V30 1387 C 125.583 5.2574 -0.219926 0
M  V30 1388 O 124.609 5.62654 -0.860773 0
M  V30 1389 N 125.811 5.71205 1.03466 0
M  V30 1390 H 128.576 2.56622 -1.54808 0
M  V30 1391 H 126.137 1.30551 -0.957494 0
M  V30 1392 H 128.129 4.01222 0.529415 0
M  V30 1393 H 126.699 3.00409 0.864466 0
M  V30 1394 H 125.919 3.62804 -1.54165 0
M  V30 1395 H 127.207 4.84577 -1.5512 0
M  V30 1396 H 126.605 5.43325 1.57526 0
M  V30 1397 H 125.162 6.35633 1.44272 0
M  V30 1398 N 128.595 0.856903 1.32268 0
M  V30 1399 C 129.558 0.308171 2.27119 0
M  V30 1400 C 130.558 -0.533421 1.51695 0
M  V30 1401 O 131.748 -0.344607 1.70757 0
M  V30 1402 C 128.88 -0.563757 3.36206 0
M  V30 1403 H 130.073 1.14535 2.77167 0
M  V30 1404 H 127.626 0.631421 1.42978 0
M  V30 1405 H 128.361 -1.42266 2.91429 0
M  V30 1406 H 128.146 0.0386749 3.92081 0
M  V30 1407 H 129.636 -0.940386 4.06874 0
M  V30 1408 N 130.073 -1.45103 0.615059 0
M  V30 1409 C 131.35 -1.95549 0.0448276 0
M  V30 1410 C 131.73 -1.55737 -1.4251 0
M  V30 1411 O 131.078 -0.823556 -2.13143 0
M  V30 1412 C 131.288 -3.48098 0.250785 0
M  V30 1413 C 132.636 -4.24384 0.135509 0
M  V30 1414 O 133.66 -3.55738 0.181299 0
M  V30 1415 O 132.519 -5.46493 0.0268878 0
M  V30 1416 H 129.613 -0.8264 -0.0314845 0
M  V30 1417 H 132.159 -1.55232 0.685642 0
M  V30 1418 H 130.931 -3.7007 1.27139 0
M  V30 1419 H 130.554 -3.95323 -0.424937 0
M  V30 1420 N 131.551 -0.354651 -1.53558 0
M  V30 1421 C 132.797 0.231422 -2.02079 0
M  V30 1422 C 133.152 1.47308 -1.23767 0
M  V30 1423 O 132.445 1.8891 -0.319947 0
M  V30 1424 C 132.639 0.587121 -3.52545 0
M  V30 1425 C 132.468 -0.618513 -4.45426 0
M  V30 1426 C 131.238 -1.12724 -4.92566 0
M  V30 1427 C 133.436 -1.48039 -4.92533 0
M  V30 1428 N 131.418 -2.29404 -5.69427 0
M  V30 1429 C 132.789 -2.49397 -5.67628 0
M  V30 1430 C 134.844 -1.50454 -4.74624 0
M  V30 1431 C 133.547 -3.53013 -6.26717 0
M  V30 1432 C 135.573 -2.52958 -5.34571 0
M  V30 1433 C 134.935 -3.5304 -6.09543 0
M  V30 1434 H 131.034 0.0476909 -0.780544 0
M  V30 1435 H 133.618 -0.496727 -1.88257 0
M  V30 1436 H 131.789 1.28436 -3.6655 0
M  V30 1437 H 133.521 1.15734 -3.87799 0
M  V30 1438 H 130.276 -0.693577 -4.68494 0
M  V30 1439 H 130.7 -2.88347 -6.12524 0
M  V30 1440 H 135.342 -0.744356 -4.16196 0
M  V30 1441 H 133.06 -4.2992 -6.84247 0
M  V30 1442 H 136.646 -2.55667 -5.22614 0
M  V30 1443 H 135.526 -4.31056 -6.55103 0
M  V30 1444 N 133.029 1.57378 -0.0835403 0
M  V30 1445 C 133.959 2.1641 0.87686 0
M  V30 1446 C 134.94 1.09429 1.30228 0
M  V30 1447 O 136.125 1.37516 1.37124 0
M  V30 1448 C 133.255 2.73517 2.14022 0
M  V30 1449 C 132.209 3.85769 1.85381 0
M  V30 1450 C 131.535 4.29529 3.18448 0
M  V30 1451 C 132.835 5.09486 1.14984 0
M  V30 1452 H 134.529 2.96914 0.385059 0
M  V30 1453 H 132.075 1.42823 0.18377 0
M  V30 1454 H 134.028 3.13463 2.81636 0
M  V30 1455 H 132.752 1.90252 2.65465 0
M  V30 1456 H 131.411 3.46345 1.20169 0
M  V30 1457 H 131.059 3.43169 3.67755 0
M  V30 1458 H 130.759 5.05204 3.00071 0
M  V30 1459 H 132.283 4.72099 3.8724 0
M  V30 1460 H 133.697 5.46674 1.72687 0
M  V30 1461 H 132.094 5.90515 1.06826 0
M  V30 1462 H 133.164 4.84724 0.130749 0
M  V30 1463 N 134.507 -0.190092 1.56449 0
M  V30 1464 C 135.454 -1.23557 1.94942 0
M  V30 1465 C 136.424 -1.44972 0.810696 0
M  V30 1466 O 137.609 -1.58023 1.06927 0
M  V30 1467 C 134.749 -2.57416 2.2985 0
M  V30 1468 C 133.862 -2.43537 3.5681 0
M  V30 1469 C 132.997 -3.70134 3.81017 0
M  V30 1470 C 132.036 -3.51109 5.01387 0
M  V30 1471 N 131.173 -4.6973 5.21822 0
M  V30 1472 H 136.013 -0.900304 2.84075 0
M  V30 1473 H 133.55 -0.43318 1.40577 0
M  V30 1474 H 135.508 -3.35409 2.48106 0
M  V30 1475 H 134.138 -2.88975 1.43852 0
M  V30 1476 H 133.19 -1.56816 3.46573 0
M  V30 1477 H 134.502 -2.25415 4.4496 0
M  V30 1478 H 133.656 -4.56566 3.9954 0
M  V30 1479 H 132.395 -3.91215 2.91207 0
M  V30 1480 H 131.4 -2.63063 4.82782 0
M  V30 1481 H 132.625 -3.31468 5.9271 0
M  V30 1482 H 130.571 -4.91065 4.34961 0
M  V30 1483 H 130.488 -4.54452 6.0416 0
M  V30 1484 H 131.756 -5.57499 5.44808 0
M  V30 1485 N 135.985 -1.50799 -0.457987 0
M  V30 1486 C 136.932 -1.70617 -1.5543 0
M  V30 1487 C 137.902 -0.547562 -1.56815 0
M  V30 1488 O 139.087 -0.779647 -1.74144 0
M  V30 1489 C 136.227 -1.81831 -2.93311 0
M  V30 1490 C 135.34 -3.09278 -3.01615 0
M  V30 1491 C 134.475 -3.11209 -4.30491 0
M  V30 1492 C 133.514 -4.33055 -4.32585 0
M  V30 1493 N 132.651 -4.32652 -5.52952 0
M  V30 1494 H 137.491 -2.64207 -1.37836 0
M  V30 1495 H 135.028 -1.30959 -0.669937 0
M  V30 1496 H 136.986 -1.86314 -3.73287 0
M  V30 1497 H 135.616 -0.916685 -3.0951 0
M  V30 1498 H 134.668 -3.14203 -2.1443 0
M  V30 1499 H 135.98 -3.99233 -2.99022 0
M  V30 1500 H 135.134 -3.14494 -5.18824 0
M  V30 1501 H 133.873 -2.19106 -4.35711 0
M  V30 1502 H 132.878 -4.29969 -3.42647 0
M  V30 1503 H 134.103 -5.264 -4.29046 0
M  V30 1504 H 132.049 -3.43409 -5.58933 0
M  V30 1505 H 131.966 -5.16392 -5.52155 0
M  V30 1506 H 133.234 -4.40101 -6.43375 0
M  V30 1507 N 137.463 0.71206 -1.40597 0
M  V30 1508 C 138.879 1.02058 -1.22704 0
M  V30 1509 C 139.079 2.01228 -0.104729 0
M  V30 1510 O 138.135 2.4674 0.53624 0
M  V30 1511 C 139.448 1.56094 -2.57012 0
M  V30 1512 C 140.996 1.6806 -2.64054 0
M  V30 1513 C 141.471 2.25501 -3.9864 0
M  V30 1514 N 142.962 2.32882 -4.004 0
M  V30 1515 C 143.697 2.78317 -5.01325 0
M  V30 1516 N 143.193 3.23478 -6.12645 0
M  V30 1517 N 144.986 2.77733 -4.88693 0
M  V30 1518 H 137.137 0.0547896 -2.12329 0
M  V30 1519 H 139.4 0.0869027 -0.944008 0
M  V30 1520 H 139.106 0.906865 -3.39807 0
M  V30 1521 H 138.98 2.54564 -2.78347 0
M  V30 1522 H 141.367 2.32583 -1.81629 0
M  V30 1523 H 141.448 0.681802 -2.46546 0
M  V30 1524 H 141.092 1.61598 -4.81506 0
M  V30 1525 H 141.022 3.26102 -4.13479 0
M  V30 1526 H 143.513 2.00991 -3.20017 0
M  V30 1527 H 143.826 3.56725 -6.85542 0
M  V30 1528 H 142.171 3.21429 -6.16205 0
M  V30 1529 H 145.362 2.4179 -4.00818 0
M  V30 1530 H 145.535 3.12826 -5.67489 0
M  V30 1531 N 138.941 1.26152 0.944643 0
M  V30 1532 C 140.181 1.12708 1.70517 0
M  V30 1533 C 140.545 -0.324727 1.89234 0
M  V30 1534 O 141.746 -0.581211 2.62441 0
M  V30 1535 C 140.017 1.8713 3.04495 0
M  V30 1536 S 141.576 1.89698 3.95677 0
M  V30 1537 H 138.394 0.402665 0.585988 0
M  V30 1538 H 140.996 1.59821 1.12594 0
M  V30 1539 H 139.7 2.91833 2.88551 0
M  V30 1540 H 139.231 1.40444 3.67477 0
M  V30 1541 H 141.246 0.981198 4.86402 0
M  V30 1542 N 140.419 -1.14872 1.07899 0
M  V30 1543 C 141.666 -1.85789 0.805532 0
M  V30 1544 C 141.994 -1.82649 -0.668561 0
M  V30 1545 O 141.249 -1.24858 -1.50695 0
M  V30 1546 C 141.548 -3.34223 1.26609 0
M  V30 1547 C 141.214 -3.57555 2.74709 0
M  V30 1548 C 139.876 -3.63631 3.1516 0
M  V30 1549 C 142.228 -3.66803 3.70277 0
M  V30 1550 C 139.556 -3.76473 4.49983 0
M  V30 1551 C 141.908 -3.8117 5.04869 0
M  V30 1552 C 140.572 -3.85494 5.44932 0
M  V30 1553 H 139.842 -0.679849 0.294765 0
M  V30 1554 H 142.489 -1.3572 1.35101 0
M  V30 1555 H 140.794 -3.86536 0.640103 0
M  V30 1556 H 142.491 -3.87511 1.03132 0
M  V30 1557 H 139.081 -3.5347 2.42398 0
M  V30 1558 H 143.265 -3.61404 3.40149 0
M  V30 1559 H 138.521 -3.7808 4.80484 0
M  V30 1560 H 142.695 -3.87268 5.78789 0
M  V30 1561 H 140.322 -3.95197 6.49403 0
M  V30 1562 N 141.898 -0.863906 -1.31812 0
M  V30 1563 C 143.123 -0.48527 -2.01643 0
M  V30 1564 C 143.548 0.913058 -1.64453 0
M  V30 1565 O 142.906 1.6014 -0.849985 0
M  V30 1566 C 142.954 -0.642625 -3.54828 0
M  V30 1567 O 142.058 0.320659 -4.11151 0
M  V30 1568 H 141.399 -0.193793 -0.635091 0
M  V30 1569 H 143.929 -1.16565 -1.68148 0
M  V30 1570 H 143.939 -0.533628 -4.04495 0
M  V30 1571 H 142.614 -1.66227 -3.81237 0
M  V30 1572 H 141.191 0.167126 -3.72525 0
M  V30 1573 N 143.376 1.44774 -0.622745 0
M  V30 1574 C 144.323 2.30635 0.0871679 0
M  V30 1575 C 145.293 1.42994 0.845097 0
M  V30 1576 O 146.478 1.71907 0.827812 0
M  V30 1577 C 143.618 3.28144 1.06844 0
M  V30 1578 C 142.731 4.30888 0.309809 0
M  V30 1579 C 141.866 5.15494 1.28215 0
M  V30 1580 C 140.905 6.09953 0.512198 0
M  V30 1581 N 140.042 6.87287 1.43458 0
M  V30 1582 H 144.882 2.90803 -0.650974 0
M  V30 1583 H 142.419 1.43286 -0.33281 0
M  V30 1584 H 144.377 3.83157 1.65066 0
M  V30 1585 H 143.007 2.69695 1.77382 0
M  V30 1586 H 142.059 3.78414 -0.388181 0
M  V30 1587 H 143.371 4.97955 -0.290254 0
M  V30 1588 H 142.525 5.74983 1.93596 0
M  V30 1589 H 141.264 4.48481 1.91614 0
M  V30 1590 H 140.269 5.49581 -0.155151 0
M  V30 1591 H 141.494 6.78999 -0.116958 0
M  V30 1592 H 139.44 6.2295 2.05594 0
M  V30 1593 H 139.357 7.50763 0.888335 0
M  V30 1594 H 140.625 7.51306 2.07749 0
M  V30 1595 N 144.854 0.36279 1.53368 0
M  V30 1596 C 145.786 -0.519668 2.23231 0
M  V30 1597 C 146.799 -1.04844 1.24546 0
M  V30 1598 O 147.988 -0.955296 1.50786 0
M  V30 1599 C 145.088 -1.72995 2.9142 0
M  V30 1600 C 144.261 -1.33316 4.16588 0
M  V30 1601 C 143.32 -2.40521 4.68013 0
M  V30 1602 O 142.346 -2.03027 5.3176 0
M  V30 1603 N 143.548 -3.72065 4.45587 0
M  V30 1604 H 146.313 0.078751 2.99597 0
M  V30 1605 H 143.874 0.187833 1.60807 0
M  V30 1606 H 145.866 -2.44184 3.22733 0
M  V30 1607 H 144.436 -2.2353 2.18525 0
M  V30 1608 H 143.656 -0.451236 3.91609 0
M  V30 1609 H 144.944 -1.04432 4.97967 0
M  V30 1610 H 144.342 -4.05304 3.94646 0
M  V30 1611 H 142.899 -4.39366 4.81457 0
M  V30 1612 N 146.332 -1.57332 0.0918853 0
M  V30 1613 C 147.295 -2.12708 -0.85369 0
M  V30 1614 C 148.295 -1.05561 -1.213 0
M  V30 1615 O 149.485 -1.31461 -1.14296 0
M  V30 1616 C 146.617 -2.64503 -2.15061 0
M  V30 1617 H 147.81 -2.97573 -0.3729 0
M  V30 1618 H 145.363 -1.55509 -0.157072 0
M  V30 1619 H 146.098 -1.83149 -2.67632 0
M  V30 1620 H 145.883 -3.4284 -1.90272 0
M  V30 1621 H 147.373 -3.07351 -2.82711 0
M  V30 1622 N 147.81 0.181792 -1.56548 0
M  V30 1623 C 149.226 0.53316 -1.50431 0
M  V30 1624 C 149.426 1.85184 -0.794297 0
M  V30 1625 O 148.482 2.50058 -0.350318 0
M  V30 1626 C 149.795 0.575597 -2.9514 0
M  V30 1627 C 151.343 0.663519 -3.05886 0
M  V30 1628 C 151.818 0.736946 -4.52032 0
M  V30 1629 N 153.309 0.800118 -4.56237 0
M  V30 1630 C 154.044 0.877327 -5.66649 0
M  V30 1631 N 153.54 0.916016 -6.86718 0
M  V30 1632 N 155.333 0.915542 -5.54594 0
M  V30 1633 H 147.484 -0.683025 -2.01118 0
M  V30 1634 H 149.747 -0.244988 -0.915797 0
M  V30 1635 H 149.453 -0.324482 -3.502 0
M  V30 1636 H 149.327 1.42572 -3.49218 0
M  V30 1637 H 151.714 1.55403 -2.50867 0
M  V30 1638 H 151.795 -0.21307 -2.54911 0
M  V30 1639 H 151.439 -0.149262 -5.07681 0
M  V30 1640 H 151.369 1.62953 -5.00753 0
M  V30 1641 H 153.86 0.778926 -3.69785 0
M  V30 1642 H 154.173 0.975813 -7.66614 0
M  V30 1643 H 152.518 0.884469 -6.89349 0
M  V30 1644 H 155.709 0.882245 -4.59711 0
M  V30 1645 H 155.882 0.972253 -6.40665 0
M  V30 1646 N 149.288 1.51039 0.449983 0
M  V30 1647 C 150.251 1.70863 1.5277 0
M  V30 1648 C 151.251 0.578846 1.5002 0
M  V30 1649 O 152.441 0.846213 1.52266 0
M  V30 1650 C 149.573 1.75341 2.9235 0
M  V30 1651 H 150.766 2.67034 1.36502 0
M  V30 1652 H 148.319 1.40838 0.677812 0
M  V30 1653 H 149.054 0.809383 3.14037 0
M  V30 1654 H 148.839 2.57436 2.95752 0
M  V30 1655 H 150.329 1.92559 3.70555 0
M  V30 1656 N 150.766 -0.704594 1.40972 0
M  V30 1657 C 151.713 -1.81862 1.42109 0
M  V30 1658 C 152.683 -1.63781 0.276593 0
M  V30 1659 O 153.868 -1.84759 0.4763 0
M  V30 1660 C 151.008 -3.19669 1.30022 0
M  V30 1661 C 150.121 -3.49246 2.54267 0
M  V30 1662 C 149.256 -4.76618 2.3454 0
M  V30 1663 C 148.295 -4.99133 3.54306 0
M  V30 1664 N 147.432 -6.17726 3.33706 0
M  V30 1665 H 152.272 -1.80226 2.37324 0
M  V30 1666 H 149.809 -0.880238 1.17857 0
M  V30 1667 H 151.767 -3.99263 1.21018 0
M  V30 1668 H 150.397 -3.20506 0.384192 0
M  V30 1669 H 149.449 -2.64125 2.73756 0
M  V30 1670 H 150.761 -3.61788 3.43381 0
M  V30 1671 H 149.915 -5.64249 2.22952 0
M  V30 1672 H 148.654 -4.66305 1.42867 0
M  V30 1673 H 147.659 -4.09953 3.66359 0
M  V30 1674 H 148.884 -5.11311 4.4692 0
M  V30 1675 H 146.83 -6.08642 2.44725 0
M  V30 1676 H 146.747 -6.30995 4.16391 0
M  V30 1677 H 148.015 -7.08115 3.25873 0
M  V30 1678 N 152.244 -1.26651 -0.937939 0
M  V30 1679 C 153.174 -1.10993 -2.05433 0
M  V30 1680 C 154.155 -0.0142161 -1.70094 0
M  V30 1681 O 155.34 -0.186837 -1.93299 0
M  V30 1682 C 152.47 -0.745561 -3.39203 0
M  V30 1683 C 151.424 -1.79337 -3.88616 0
M  V30 1684 C 150.75 -1.28324 -5.19073 0
M  V30 1685 C 152.05 -3.19553 -4.13138 0
M  V30 1686 H 153.744 -2.0438 -2.1879 0
M  V30 1687 H 151.29 -0.984041 -1.05131 0
M  V30 1688 H 153.243 -0.622888 -4.16771 0
M  V30 1689 H 151.967 0.22401 -3.25831 0
M  V30 1690 H 150.626 -1.90477 -3.13231 0
M  V30 1691 H 150.274 -0.303414 -5.02084 0
M  V30 1692 H 149.974 -1.98369 -5.53103 0
M  V30 1693 H 151.498 -1.1733 -5.99221 0
M  V30 1694 H 152.912 -3.11471 -4.81309 0
M  V30 1695 H 151.309 -3.87218 -4.58457 0
M  V30 1696 H 152.379 -3.65368 -3.18801 0
M  V30 1697 N 153.722 1.14298 -1.08507 0
M  V30 1698 C 154.654 2.1907 -0.673859 0
M  V30 1699 C 155.667 1.60381 0.279577 0
M  V30 1700 O 156.856 1.78374 0.0670754 0
M  V30 1701 C 153.956 3.38888 0.0290979 0
M  V30 1702 C 153.129 4.27103 -0.943494 0
M  V30 1703 C 152.188 5.25477 -0.275676 0
M  V30 1704 O 151.214 5.61709 -0.920401 0
M  V30 1705 N 152.416 5.7227 0.974013 0
M  V30 1706 H 155.181 2.54965 -1.57521 0
M  V30 1707 H 152.742 1.29528 -0.971287 0
M  V30 1708 H 154.734 4.01761 0.48683 0
M  V30 1709 H 153.304 3.01309 0.832555 0
M  V30 1710 H 152.524 3.61149 -1.58004 0
M  V30 1711 H 153.812 4.82905 -1.60251 0
M  V30 1712 H 153.21 5.44965 1.51755 0
M  V30 1713 H 151.767 6.37127 1.37522 0
M  V30 1714 N 155.201 0.870884 1.31352 0
M  V30 1715 C 156.617 0.562932 1.49343 0
M  V30 1716 C 156.817 -0.902725 1.80148 0
M  V30 1717 O 155.873 -1.68484 1.88067 0
M  V30 1718 C 157.186 1.46393 2.62659 0
M  V30 1719 C 158.734 1.46607 2.76542 0
M  V30 1720 C 159.209 2.35266 3.92955 0
M  V30 1721 N 160.7 2.33151 4.00243 0
M  V30 1722 C 161.435 2.98471 4.89594 0
M  V30 1723 N 160.931 3.72964 5.8384 0
M  V30 1724 N 162.724 2.87775 4.82848 0
M  V30 1725 H 154.875 1.81923 1.09626 0
M  V30 1726 H 157.138 0.777934 0.541777 0
M  V30 1727 H 156.844 2.50689 2.46674 0
M  V30 1728 H 156.718 1.16314 3.58819 0
M  V30 1729 H 159.105 0.43069 2.9194 0
M  V30 1730 H 159.186 1.8071 1.81046 0
M  V30 1731 H 158.83 3.38881 3.78315 0
M  V30 1732 H 158.76 1.98487 4.87761 0
M  V30 1733 H 161.251 1.79006 3.32814 0
M  V30 1734 H 161.564 4.19932 6.4875 0
M  V30 1735 H 159.909 3.77073 5.83816 0
M  V30 1736 H 163.1 2.29116 4.08195 0
M  V30 1737 H 163.273 3.38961 5.52277 0
M  V30 1738 N 156.679 -1.44442 0.630414 0
M  V30 1739 C 157.589 -2.34476 -0.0761693 0
M  V30 1740 C 158.605 -1.52576 -0.836449 0
M  V30 1741 O 159.781 -1.85307 -0.788874 0
M  V30 1742 C 156.846 -3.30545 -1.04599 0
M  V30 1743 C 155.907 -4.28352 -0.28516 0
M  V30 1744 C 155.14 -5.19831 -1.20878 0
M  V30 1745 O 155.363 -5.15223 -2.44747 0
M  V30 1746 O 154.297 -5.97892 -0.693491 0
M  V30 1747 H 158.123 -2.96345 0.664324 0
M  V30 1748 H 155.708 -1.44203 0.39061 0
M  V30 1749 H 157.59 -3.89681 -1.60396 0
M  V30 1750 H 156.265 -2.7121 -1.76711 0
M  V30 1751 H 155.172 -3.72764 0.315837 0
M  V30 1752 H 156.505 -4.90605 0.395924 0
M  V30 1753 N 158.157 -0.370918 -1.53173 0
M  V30 1754 C 159.087 0.464847 -2.28826 0
M  V30 1755 C 160.068 1.07936 -1.31468 0
M  V30 1756 O 161.253 1.0956 -1.60344 0
M  V30 1757 C 158.383 1.60196 -3.08147 0
M  V30 1758 C 157.337 1.11443 -4.13237 0
M  V30 1759 C 156.663 2.3422 -4.80672 0
M  V30 1760 C 157.963 0.195384 -5.21934 0
M  V30 1761 H 159.657 -0.166329 -2.98938 0
M  V30 1762 H 157.203 -0.0814359 -1.4377 0
M  V30 1763 H 159.156 2.19332 -3.59822 0
M  V30 1764 H 157.88 2.26045 -2.35735 0
M  V30 1765 H 156.539 0.545727 -3.62515 0
M  V30 1766 H 156.187 2.98537 -4.04827 0
M  V30 1767 H 155.887 2.02269 -5.51689 0
M  V30 1768 H 157.411 2.94032 -5.35143 0
M  V30 1769 H 158.825 0.694375 -5.69079 0
M  V30 1770 H 157.222 -0.0335027 -6.00091 0
M  V30 1771 H 158.292 -0.760961 -4.78892 0
M  V30 1772 N 159.635 1.57281 -0.100228 0
M  V30 1773 C 160.882 1.94537 0.562268 0
M  V30 1774 C 161.21 0.982315 1.67871 0
M  V30 1775 O 160.465 0.00280936 1.957 0
M  V30 1776 C 160.764 3.38305 1.15259 0
M  V30 1777 C 160.43 4.50618 0.159409 0
M  V30 1778 C 159.092 4.81066 -0.113741 0
M  V30 1779 C 161.444 5.18615 -0.518461 0
M  V30 1780 C 158.772 5.76835 -1.07137 0
M  V30 1781 C 161.124 6.15412 -1.46459 0
M  V30 1782 C 159.788 6.44262 -1.74592 0
M  V30 1783 H 159.058 0.711863 0.205748 0
M  V30 1784 H 161.705 1.90679 -0.17715 0
M  V30 1785 H 160.01 3.38766 1.96836 0
M  V30 1786 H 161.707 3.64435 1.67297 0
M  V30 1787 H 158.297 4.2689 0.382491 0
M  V30 1788 H 162.481 4.95264 -0.320581 0
M  V30 1789 H 157.737 5.975 -1.29628 0
M  V30 1790 H 161.911 6.67194 -1.99564 0
M  V30 1791 H 159.538 7.1828 -2.48953 0
M  V30 1792 N 161.113 -0.173488 1.56642 0
M  V30 1793 C 162.36 -0.890465 1.81871 0
M  V30 1794 C 162.688 -1.82339 0.67696 0
M  V30 1795 O 161.943 -1.92795 -0.335926 0
M  V30 1796 C 162.242 -1.72069 3.13252 0
M  V30 1797 C 161.908 -0.936878 4.41059 0
M  V30 1798 C 160.57 -0.720545 4.75775 0
M  V30 1799 C 162.922 -0.386919 5.19762 0
M  V30 1800 C 160.25 0.0568829 5.86672 0
M  V30 1801 C 162.602 0.37741 6.31473 0
M  V30 1802 C 161.266 0.604563 6.64757 0
M  V30 1803 H 160.536 -0.325844 0.665512 0
M  V30 1804 H 163.183 -0.155527 1.90867 0
M  V30 1805 H 161.488 -2.52496 2.99588 0
M  V30 1806 H 163.185 -2.27844 3.29982 0
M  V30 1807 H 159.775 -1.11553 4.13828 0
M  V30 1808 H 163.959 -0.541398 4.93338 0
M  V30 1809 H 159.215 0.242635 6.10918 0
M  V30 1810 H 163.389 0.810825 6.91664 0
M  V30 1811 H 161.016 1.20885 7.50527 0
M  V30 1812 N 162.591 -1.51276 -0.441967 0
M  V30 1813 C 164.002 -1.56244 -1.02199 0
M  V30 1814 C 164.353 -0.383149 -1.92422 0
M  V30 1815 O 163.478 0.500613 -2.1053 0
M  V30 1816 C 164.073 -2.83162 -1.86024 0
M  V30 1817 C 162.632 -2.90716 -2.39084 0
M  V30 1818 C 161.779 -2.50858 -1.18175 0
M  V30 1819 H 164.73 -1.5712 -0.223416 0
M  V30 1820 H 164.751 -2.66663 -2.71425 0
M  V30 1821 H 164.263 -3.68974 -1.20331 0
M  V30 1822 H 162.364 -2.09323 -3.08244 0
M  V30 1823 H 162.477 -3.94266 -2.72198 0
M  V30 1824 H 160.841 -2.03951 -1.52565 0
M  V30 1825 H 161.624 -3.3901 -0.541001 0
M  V30 1826 N 164.069 0.697108 -1.41344 0
M  V30 1827 C 164.979 1.84088 -1.45427 0
M  V30 1828 C 165.995 1.70545 -0.34501 0
M  V30 1829 O 167.171 1.92488 -0.592492 0
M  V30 1830 C 164.236 3.20056 -1.33286 0
M  V30 1831 C 163.297 3.45718 -2.54514 0
M  V30 1832 C 162.53 4.75199 -2.42944 0
M  V30 1833 O 162.753 5.51579 -1.45318 0
M  V30 1834 O 161.687 5.0161 -3.32672 0
M  V30 1835 H 165.513 1.836 -2.41919 0
M  V30 1836 H 163.098 0.849966 -1.22866 0
M  V30 1837 H 164.98 4.01236 -1.28794 0
M  V30 1838 H 163.655 3.2123 -0.39909 0
M  V30 1839 H 162.562 2.64474 -2.64583 0
M  V30 1840 H 163.895 3.49356 -3.46715 0
M  V30 1841 N 165.547 1.27147 0.931209 0
M  V30 1842 C 166.787 1.14511 1.69312 0
M  V30 1843 C 167.151 -0.304638 1.89568 0
M  V30 1844 O 168.352 -0.553343 2.63043 0
M  V30 1845 C 166.623 1.90349 3.02493 0
M  V30 1846 S 168.182 1.93884 3.93642 0
M  V30 1847 H 165 0.408858 0.581684 0
M  V30 1848 H 167.602 1.61006 1.10893 0
M  V30 1849 H 166.306 2.94877 2.85439 0
M  V30 1850 H 165.837 1.44333 3.65966 0
M  V30 1851 H 167.852 1.03273 4.85334 0
M  V30 1852 N 167.025 -1.13721 1.09112 0
M  V30 1853 C 167.957 -2.1871 0.685467 0
M  V30 1854 C 168.97 -1.60527 -0.271068 0
M  V30 1855 O 170.159 -1.78407 -0.0576148 0
M  V30 1856 C 167.259 -3.38898 -0.0111255 0
M  V30 1857 C 166.432 -4.26597 0.966131 0
M  V30 1858 C 165.491 -5.25324 0.303539 0
M  V30 1859 O 164.517 -5.61213 0.950177 0
M  V30 1860 N 165.719 -5.72779 -0.943651 0
M  V30 1861 H 168.484 -2.54126 1.58871 0
M  V30 1862 H 166.045 -1.29012 0.978143 0
M  V30 1863 H 168.037 -4.02014 -0.465517 0
M  V30 1864 H 166.607 -3.01747 -0.816565 0
M  V30 1865 H 165.827 -3.60306 1.59917 0
M  V30 1866 H 167.115 -4.82048 1.6281 0
M  V30 1867 H 166.513 -5.45762 -1.48862 0
M  V30 1868 H 165.07 -6.37847 -1.34142 0
M  V30 1869 N 168.503 -0.877838 -1.30888 0
M  V30 1870 C 169.733 -0.506678 -2.00291 0
M  V30 1871 C 170.141 0.907449 -1.66018 0
M  V30 1872 O 169.484 1.60719 -0.88967 0
M  V30 1873 C 169.546 -0.59323 -3.54572 0
M  V30 1874 C 169.21 -1.97038 -4.12341 0
M  V30 1875 C 170.207 -2.93889 -4.28865 0
M  V30 1876 C 167.892 -2.27383 -4.47886 0
M  V30 1877 C 169.886 -4.19224 -4.80136 0
M  V30 1878 C 167.573 -3.52965 -4.98857 0
M  V30 1879 C 168.571 -4.48701 -5.14934 0
M  V30 1880 O 168.259 -5.72056 -5.64808 0
M  V30 1881 H 167.991 -0.1951 -0.647234 0
M  V30 1882 H 170.545 -1.18301 -1.6791 0
M  V30 1883 H 168.775 0.140057 -3.86446 0
M  V30 1884 H 170.464 -0.234372 -4.05223 0
M  V30 1885 H 171.23 -2.71756 -4.01714 0
M  V30 1886 H 167.109 -1.53639 -4.34645 0
M  V30 1887 H 170.653 -4.93956 -4.92599 0
M  V30 1888 H 166.55 -3.74939 -5.25443 0
M  V30 1889 H 167.318 -5.74337 -5.83163 0
M  V30 1890 N 169.982 1.44106 -0.638065 0
M  V30 1891 C 171.228 2.02815 -0.15409 0
M  V30 1892 C 171.583 1.49342 1.21304 0
M  V30 1893 O 170.876 0.670699 1.79478 0
M  V30 1894 C 171.07 3.5729 -0.0887327 0
M  V30 1895 C 170.899 4.2575 -1.44799 0
M  V30 1896 C 169.669 4.62443 -2.03653 0
M  V30 1897 C 171.867 4.55746 -2.38327 0
M  V30 1898 N 169.849 5.15903 -3.32741 0
M  V30 1899 C 171.22 5.10364 -3.52036 0
M  V30 1900 C 173.275 4.37703 -2.3732 0
M  V30 1901 C 171.978 5.48837 -4.64941 0
M  V30 1902 C 174.004 4.77229 -3.49294 0
M  V30 1903 C 173.366 5.31966 -4.61726 0
M  V30 1904 H 169.465 0.775519 -0.100466 0
M  V30 1905 H 172.049 1.755 -0.843071 0
M  V30 1906 H 170.22 3.84201 0.569548 0
M  V30 1907 H 171.952 4.02671 0.404711 0
M  V30 1908 H 168.707 4.46987 -1.56523 0
M  V30 1909 H 169.131 5.47102 -3.98758 0
M  V30 1910 H 173.773 3.94671 -1.51641 0
M  V30 1911 H 171.491 5.9082 -5.51323 0
M  V30 1912 H 175.077 4.64976 -3.49698 0
M  V30 1913 H 173.957 5.61986 -5.46939 0
M  V30 1914 N 171.46 0.379036 1.52974 0
M  V30 1915 C 172.708 -0.206014 2.01047 0
M  V30 1916 C 173.029 -1.48175 1.26765 0
M  V30 1917 O 172.299 -1.92085 0.384743 0
M  V30 1918 H 170.879 -0.0791184 0.742798 0
M  V30 1919 H 173.541 0.508366 1.88153 0
M  V30 1920 H 172.637 -0.423501 3.09213 0
M  V30 1921 N 172.938 -1.57226 0.108567 0
M  V30 1922 C 174.163 -1.99604 -0.563303 0
M  V30 1923 C 174.588 -0.987563 -1.6009 0
M  V30 1924 O 173.946 0.0421687 -1.81251 0
M  V30 1925 C 173.994 -3.40902 -1.17552 0
M  V30 1926 O 173.098 -3.42896 -2.2912 0
M  V30 1927 H 172.439 -0.648704 -0.1417 0
M  V30 1928 H 174.969 -2.03679 0.193961 0
M  V30 1929 H 174.979 -3.78886 -1.51357 0
M  V30 1930 H 173.654 -4.1382 -0.415445 0
M  V30 1931 H 172.231 -3.1672 -1.96832 0
M  V30 1932 N 174.416 0.165178 -1.56732 0
M  V30 1933 C 175.326 1.22423 -2.00125 0
M  V30 1934 C 176.342 1.48084 -0.913619 0
M  V30 1935 O 177.518 1.60112 -1.22172 0
M  V30 1936 C 174.583 2.54197 -2.35764 0
M  V30 1937 C 173.644 2.36343 -3.58386 0
M  V30 1938 C 172.877 3.61834 -3.92316 0
M  V30 1939 O 173.1 4.67267 -3.27135 0
M  V30 1940 O 172.034 3.55579 -4.85641 0
M  V30 1941 H 175.86 0.885886 -2.90492 0
M  V30 1942 H 173.445 0.372518 -1.44681 0
M  V30 1943 H 175.327 3.3192 -2.59629 0
M  V30 1944 H 174.002 2.87598 -1.48557 0
M  V30 1945 H 172.909 1.56632 -3.39731 0
M  V30 1946 H 174.242 2.07865 -4.46154 0
M  V30 1947 N 175.894 1.51508 0.433938 0
M  V30 1948 C 176.824 1.76016 1.53429 0
M  V30 1949 C 177.805 0.610112 1.58782 0
M  V30 1950 O 178.99 0.853177 1.74455 0
M  V30 1951 C 176.12 1.88831 2.9148 0
M  V30 1952 C 175.074 3.04288 3.00987 0
M  V30 1953 C 174.4 3.0229 4.4105 0
M  V30 1954 C 175.7 4.44193 2.74754 0
M  V30 1955 H 177.394 2.68152 1.33171 0
M  V30 1956 H 174.94 1.29035 0.639214 0
M  V30 1957 H 176.893 2.04559 3.6842 0
M  V30 1958 H 175.617 0.933455 3.12976 0
M  V30 1959 H 174.276 2.8827 2.26486 0
M  V30 1960 H 173.924 2.04576 4.59519 0
M  V30 1961 H 173.624 3.79822 4.4834 0
M  V30 1962 H 175.148 3.20116 5.1996 0
M  V30 1963 H 176.562 4.60544 3.41426 0
M  V30 1964 H 174.959 5.23457 2.9345 0
M  V30 1965 H 176.029 4.53996 1.70339 0
M  V30 1966 N 177.372 -0.689602 1.41712 0
M  V30 1967 C 178.304 -1.815 1.39966 0
M  V30 1968 C 179.317 -1.59995 0.300917 0
M  V30 1969 O 180.506 -1.69387 0.563039 0
M  V30 1970 C 177.606 -3.18364 1.16179 0
M  V30 1971 C 176.779 -3.66847 2.38206 0
M  V30 1972 C 175.838 -4.82398 2.10186 0
M  V30 1973 O 174.864 -4.93706 2.83272 0
M  V30 1974 N 176.066 -5.70064 1.0958 0
M  V30 1975 H 178.831 -1.83488 2.36965 0
M  V30 1976 H 176.392 -0.872149 1.36401 0
M  V30 1977 H 178.384 -3.93301 0.953756 0
M  V30 1978 H 176.954 -3.11365 0.27756 0
M  V30 1979 H 176.174 -2.82751 2.74673 0
M  V30 1980 H 177.462 -3.95978 3.19498 0
M  V30 1981 H 176.86 -5.63565 0.491019 0
M  V30 1982 H 175.417 -6.44874 0.947656 0
M  V30 1983 N 178.85 -1.27639 -0.924453 0
M  V30 1984 C 179.78 -1.13166 -2.04244 0
M  V30 1985 C 180.761 -0.032256 -1.70069 0
M  V30 1986 O 181.946 -0.207328 -1.9309 0
M  V30 1987 C 179.076 -0.781496 -3.38393 0
M  V30 1988 C 178.03 -1.83449 -3.86692 0
M  V30 1989 C 177.356 -1.33822 -5.17683 0
M  V30 1990 C 178.656 -3.23917 -4.09726 0
M  V30 1991 H 180.35 -2.06689 -2.1661 0
M  V30 1992 H 177.896 -0.995136 -1.04082 0
M  V30 1993 H 179.849 -0.667057 -4.16087 0
M  V30 1994 H 178.573 0.189439 -3.2605 0
M  V30 1995 H 177.232 -1.93789 -3.11193 0
M  V30 1996 H 176.88 -0.35665 -5.01734 0
M  V30 1997 H 176.58 -2.04224 -5.50968 0
M  V30 1998 H 178.104 -1.23679 -5.97943 0
M  V30 1999 H 179.518 -3.16559 -4.77978 0
M  V30 2000 H 177.915 -3.92059 -4.54324 0
M  V30 2001 H 178.985 -3.68729 -3.14908 0
M  V30 2002 N 180.328 1.1314 -1.09713 0
M  V30 2003 C 181.739 1.66029 -0.853885 0
M  V30 2004 C 182.09 1.86241 0.617142 0
M  V30 2005 O 181.215 1.5834 1.47503 0
M  V30 2006 C 181.81 3.01599 -1.5435 0
M  V30 2007 C 180.369 3.51467 -1.34714 0
M  V30 2008 C 179.516 2.26648 -1.59769 0
M  V30 2009 H 182.467 0.970226 -1.25588 0
M  V30 2010 H 182.488 3.67709 -0.978267 0
M  V30 2011 H 182 2.86856 -2.6141 0
M  V30 2012 H 180.101 3.71408 -0.297838 0
M  V30 2013 H 180.214 4.314 -2.08401 0
M  V30 2014 H 178.578 2.33385 -1.01998 0
M  V30 2015 H 179.361 2.14467 -2.68065 0
M  V30 2016 N 181.806 0.884767 1.30421 0
M  V30 2017 C 183.034 0.518044 2.0031 0
M  V30 2018 C 183.449 -0.893408 1.66324 0
M  V30 2019 O 182.806 -1.5875 0.900262 0
M  V30 2020 C 182.857 0.682997 3.54989 0
M  V30 2021 O 182.578 2.03888 3.87764 0
M  V30 2022 C 184.079 0.31924 4.42149 0
M  V30 2023 H 181.299 0.200265 0.640418 0
M  V30 2024 H 183.843 1.19001 1.6631 0
M  V30 2025 H 181.998 0.0584052 3.87356 0
M  V30 2026 H 182.412 2.05735 4.82466 0
M  V30 2027 H 183.886 0.485555 5.4986 0
M  V30 2028 H 184.363 -0.742717 4.32875 0
M  V30 2029 H 184.969 0.920147 4.15227 0
M  V30 2030 N 183.284 -1.43765 0.645699 0
M  V30 2031 C 184.214 -2.33471 -0.0370477 0
M  V30 2032 C 185.195 -1.49042 -0.819779 0
M  V30 2033 O 186.38 -1.77726 -0.782758 0
M  V30 2034 C 183.51 -3.32311 -1.0093 0
M  V30 2035 C 182.464 -4.2667 -0.337201 0
M  V30 2036 C 181.79 -5.1549 -1.42037 0
M  V30 2037 C 183.09 -5.16657 0.765706 0
M  V30 2038 H 184.784 -2.90809 0.712069 0
M  V30 2039 H 182.33 -1.39834 0.343876 0
M  V30 2040 H 184.283 -3.9396 -1.49578 0
M  V30 2041 H 183.007 -2.73213 -1.78948 0
M  V30 2042 H 181.666 -3.66374 0.128771 0
M  V30 2043 H 181.314 -4.52735 -2.1918 0
M  V30 2044 H 181.014 -5.79438 -0.975966 0
M  V30 2045 H 182.538 -5.80012 -1.90838 0
M  V30 2046 H 183.952 -5.72158 0.361702 0
M  V30 2047 H 182.349 -5.89286 1.13413 0
M  V30 2048 H 183.419 -4.56796 1.62683 0
M  V30 2049 N 184.763 -0.387143 -1.52771 0
M  V30 2050 C 186.04 0.253197 -1.93954 0
M  V30 2051 C 186.42 1.64545 -1.32243 0
M  V30 2052 O 185.768 2.23191 -0.489699 0
M  V30 2053 C 185.978 0.281722 -3.47861 0
M  V30 2054 C 187.326 0.511715 -4.21505 0
M  V30 2055 O 188.35 0.362023 -3.54356 0
M  V30 2056 O 187.209 0.804847 -5.40541 0
M  V30 2057 H 184.303 0.156845 -0.811991 0
M  V30 2058 H 186.849 -0.441494 -1.63856 0
M  V30 2059 H 185.621 -0.693571 -3.85104 0
M  V30 2060 H 185.244 1.02142 -3.84256 0
M  V30 2061 N 186.241 1.57166 -0.116904 0
M  V30 2062 C 187.488 1.95123 0.541603 0
M  V30 2063 C 187.816 1.00006 1.6682 0
M  V30 2064 O 187.071 0.0235658 1.95686 0
M  V30 2065 C 187.37 3.39508 1.11664 0
M  V30 2066 C 187.036 4.50762 0.111606 0
M  V30 2067 C 185.698 4.80918 -0.164758 0
M  V30 2068 C 188.05 5.18036 -0.573438 0
M  V30 2069 C 185.378 5.75666 -1.13249 0
M  V30 2070 C 187.73 6.13824 -1.52978 0
M  V30 2071 C 186.394 6.42374 -1.81415 0
M  V30 2072 H 185.664 0.714005 0.198187 0
M  V30 2073 H 188.311 1.9048 -0.197365 0
M  V30 2074 H 186.616 3.40835 1.93232 0
M  V30 2075 H 188.313 3.66189 1.63422 0
M  V30 2076 H 184.903 4.27272 0.337192 0
M  V30 2077 H 189.087 4.94896 -0.373092 0
M  V30 2078 H 184.343 5.96092 -1.35958 0
M  V30 2079 H 188.517 6.65039 -2.06629 0
M  V30 2080 H 186.144 7.15599 -2.56557 0
M  V30 2081 N 187.719 -0.156864 1.56817 0
M  V30 2082 C 188.629 -1.2136 2.00771 0
M  V30 2083 C 189.645 -1.47598 0.921459 0
M  V30 2084 O 190.821 -1.59462 1.2302 0
M  V30 2085 C 187.886 -2.52943 2.37109 0
M  V30 2086 C 186.947 -2.34439 3.59634 0
M  V30 2087 C 186.18 -3.59748 3.94229 0
M  V30 2088 O 186.403 -4.65526 3.29609 0
M  V30 2089 O 185.337 -3.52998 4.8752 0
M  V30 2090 H 189.163 -0.870468 2.90958 0
M  V30 2091 H 186.748 -0.36484 1.44877 0
M  V30 2092 H 188.63 -3.30538 2.61386 0
M  V30 2093 H 187.305 -2.86806 1.5008 0
M  V30 2094 H 186.212 -1.54828 3.40557 0
M  V30 2095 H 187.545 -2.05496 4.4725 0
M  V30 2096 N 189.197 -1.51736 -0.425897 0
M  V30 2097 C 190.474 -1.55519 -1.1863 0
M  V30 2098 C 190.854 -0.326219 -2.08564 0
M  V30 2099 O 190.202 0.688012 -2.17896 0
M  V30 2100 C 190.412 -2.87521 -1.9782 0
M  V30 2101 C 191.76 -3.39899 -2.54468 0
M  V30 2102 O 192.784 -2.89148 -2.08019 0
M  V30 2103 O 191.643 -4.2848 -3.39215 0
M  V30 2104 H 188.737 -0.625739 -0.540721 0
M  V30 2105 H 191.283 -1.64055 -0.434038 0
M  V30 2106 H 190.055 -3.68422 -1.31836 0
M  V30 2107 H 189.678 -2.822 -2.80088 0
M  V30 2108 N 190.675 0.682077 -1.42076 0
M  V30 2109 C 191.921 1.44428 -1.42367 0
M  V30 2110 C 192.254 1.94164 -0.0373056 0
M  V30 2111 O 191.529 1.70429 0.937239 0
M  V30 2112 C 191.812 2.64654 -2.44194 0
M  V30 2113 C 191.665 2.20596 -3.91991 0
M  V30 2114 C 192.984 3.66865 -2.431 0
M  V30 2115 H 190.103 0.523834 -0.518428 0
M  V30 2116 H 192.745 0.77576 -1.73442 0
M  V30 2117 H 190.895 3.2169 -2.17826 0
M  V30 2118 H 192.567 1.68783 -4.29313 0
M  V30 2119 H 190.81 1.52242 -4.06208 0
M  V30 2120 H 191.481 3.06921 -4.58807 0
M  V30 2121 H 193.957 3.19531 -2.66532 0
M  V30 2122 H 192.833 4.48577 -3.16339 0
M  V30 2123 H 193.094 4.17493 -1.45437 0
M  V30 2124 N 192.153 1.28127 0.917671 0
M  V30 2125 C 193.083 1.14248 2.03641 0
M  V30 2126 C 194.064 0.0412748 1.7005 0
M  V30 2127 O 195.249 0.217566 1.92977 0
M  V30 2128 C 192.379 0.799431 3.37974 0
M  V30 2129 C 191.333 1.85497 3.85713 0
M  V30 2130 C 190.659 1.36565 5.16966 0
M  V30 2131 C 191.959 3.26085 4.08002 0
M  V30 2132 H 193.653 2.07835 2.15511 0
M  V30 2133 H 191.199 1.00064 1.03553 0
M  V30 2134 H 193.152 0.689114 4.15727 0
M  V30 2135 H 191.876 -0.172145 3.26146 0
M  V30 2136 H 190.535 1.95437 3.10161 0
M  V30 2137 H 190.183 0.383253 5.01538 0
M  V30 2138 H 189.883 2.07143 5.49878 0
M  V30 2139 H 191.407 1.26848 5.97279 0
M  V30 2140 H 192.821 3.19089 4.76293 0
M  V30 2141 H 191.218 3.94462 4.52238 0
M  V30 2142 H 192.288 3.70394 3.12948 0
M  V30 2143 N 193.631 -1.12557 1.10312 0
M  V30 2144 C 195.047 -1.36036 0.834649 0
M  V30 2145 C 195.247 -1.93946 -0.546539 0
M  V30 2146 O 194.303 -2.16484 -1.29966 0
M  V30 2147 C 195.616 -2.30312 1.9333 0
M  V30 2148 C 197.164 -2.43906 1.9616 0
M  V30 2149 C 197.639 -3.41496 3.05195 0
M  V30 2150 N 199.13 -3.49053 3.04494 0
M  V30 2151 C 199.865 -4.24471 3.85502 0
M  V30 2152 N 199.361 -5.02966 4.76442 0
M  V30 2153 N 201.154 -4.19864 3.73725 0
M  V30 2154 H 193.305 -0.733246 1.99342 0
M  V30 2155 H 195.568 -0.385234 0.866198 0
M  V30 2156 H 195.274 -1.94933 2.92735 0
M  V30 2157 H 195.148 -3.30421 1.81939 0
M  V30 2158 H 197.535 -2.78567 0.973886 0
M  V30 2159 H 197.616 -1.4369 2.11629 0
M  V30 2160 H 197.26 -3.07565 4.04186 0
M  V30 2161 H 197.19 -4.41539 2.86968 0
M  V30 2162 H 199.681 -2.93053 2.38596 0
M  V30 2163 H 199.994 -5.57846 5.34815 0
M  V30 2164 H 198.339 -5.02167 4.80472 0
M  V30 2165 H 201.53 -3.57623 3.02032 0
M  V30 2166 H 201.703 -4.78386 4.37093 0
M  V30 2167 N 195.109 -0.891671 -1.2995 0
M  V30 2168 C 196.339 -0.527893 -1.99742 0
M  V30 2169 C 196.747 0.88979 -1.66971 0
M  V30 2170 O 196.09 1.59766 -0.906667 0
M  V30 2171 C 196.152 -0.630804 -3.53922 0
M  V30 2172 C 195.816 -2.01401 -4.10228 0
M  V30 2173 C 196.813 -2.98422 -4.25724 0
M  V30 2174 C 194.498 -2.32121 -4.45449 0
M  V30 2175 C 196.492 -4.24293 -4.75662 0
M  V30 2176 C 194.179 -3.58237 -4.95086 0
M  V30 2177 C 195.177 -4.54137 -5.10146 0
M  V30 2178 O 194.865 -5.78014 -5.58708 0
M  V30 2179 H 194.597 -0.201953 -0.645129 0
M  V30 2180 H 197.151 -1.20076 -1.66646 0
M  V30 2181 H 195.381 0.0990616 -3.86573 0
M  V30 2182 H 197.07 -0.277338 -4.04951 0
M  V30 2183 H 197.836 -2.76001 -3.98809 0
M  V30 2184 H 193.715 -1.5824 -4.32991 0
M  V30 2185 H 197.259 -4.99153 -4.87332 0
M  V30 2186 H 193.156 -3.80491 -5.21437 0
M  V30 2187 H 193.924 -5.8049 -5.77039 0
M  V30 2188 N 196.587 1.43421 -0.653314 0
M  V30 2189 C 197.864 1.95361 -0.0966581 0
M  V30 2190 C 198.244 1.59461 1.38331 0
M  V30 2191 O 197.592 0.879777 2.10884 0
M  V30 2192 C 197.802 3.47311 -0.342988 0
M  V30 2193 C 199.15 4.23875 -0.24798 0
M  V30 2194 O 200.174 3.55133 -0.275553 0
M  V30 2195 O 199.033 5.4623 -0.171771 0
M  V30 2196 H 196.127 0.826945 0.00956291 0
M  V30 2197 H 198.673 1.5336 -0.726558 0
M  V30 2198 H 197.445 3.66569 -1.36906 0
M  V30 2199 H 197.068 3.9631 0.319975 0
M  V30 2200 N 198.065 0.39524 1.52563 0
M  V30 2201 C 198.975 -0.444232 2.30356 0
M  V30 2202 C 199.991 -1.06615 1.37511 0
M  V30 2203 O 201.167 -1.07067 1.70583 0
M  V30 2204 C 198.232 -1.55315 3.09964 0
M  V30 2205 C 197.293 -0.955734 4.18526 0
M  V30 2206 C 196.526 -2.01181 4.9433 0
M  V30 2207 O 196.749 -3.22781 4.70285 0
M  V30 2208 O 195.683 -1.62579 5.79527 0
M  V30 2209 H 199.509 0.189667 3.03107 0
M  V30 2210 H 197.094 0.1588 1.48554 0
M  V30 2211 H 198.976 -2.19724 3.59582 0
M  V30 2212 H 197.651 -2.17191 2.4002 0
M  V30 2213 H 196.558 -0.274743 3.7309 0
M  V30 2214 H 197.891 -0.381109 4.90722 0
M  V30 2215 N 199.544 -1.57102 0.125237 0
M  V30 2216 C 200.494 -2.12202 -0.833936 0
M  V30 2217 C 201.478 -1.04433 -1.22403 0
M  V30 2218 O 202.67 -1.30655 -1.19408 0
M  V30 2219 C 199.799 -2.72994 -2.08157 0
M  V30 2220 C 198.885 -3.87852 -1.71556 0
M  V30 2221 N 199.276 -4.9464 -1.05662 0
M  V30 2222 C 197.574 -3.98153 -2.00973 0
M  V30 2223 C 198.275 -5.74953 -0.883376 0
M  V30 2224 N 197.251 -5.24985 -1.41036 0
M  V30 2225 H 201.053 -2.92141 -0.321035 0
M  V30 2226 H 198.567 -1.62217 -0.0770315 0
M  V30 2227 H 200.564 -3.10816 -2.77847 0
M  V30 2228 H 199.224 -1.9452 -2.59985 0
M  V30 2229 H 200.235 -5.12872 -0.719878 0
M  V30 2230 H 196.912 -3.30728 -2.54804 0
M  V30 2231 H 198.302 -6.70904 -0.365675 0
M  V30 2232 N 201.022 0.148545 -1.56898 0
M  V30 2233 C 201.985 1.16736 -1.97244 0
M  V30 2234 C 202.985 1.35947 -0.858777 0
M  V30 2235 O 204.175 1.32966 -1.12542 0
M  V30 2236 C 201.307 2.52798 -2.28705 0
M  V30 2237 H 202.5 0.821279 -2.88435 0
M  V30 2238 H 200.053 0.391831 -1.51309 0
M  V30 2239 H 200.788 2.92381 -1.403 0
M  V30 2240 H 200.573 2.40216 -3.09901 0
M  V30 2241 H 202.063 3.26179 -2.60762 0
M  V30 2242 N 202.5 1.5196 0.417844 0
M  V30 2243 C 203.73 1.69181 1.18581 0
M  V30 2244 C 204.138 0.397104 1.84986 0
M  V30 2245 O 203.481 -0.636011 1.72339 0
M  V30 2246 C 203.543 2.76497 2.29759 0
M  V30 2247 C 203.207 4.18514 1.83563 0
M  V30 2248 C 204.204 5.02648 1.32821 0
M  V30 2249 C 201.889 4.64708 1.90661 0
M  V30 2250 C 203.883 6.31044 0.897894 0
M  V30 2251 C 201.57 5.93096 1.47241 0
M  V30 2252 C 202.568 6.76093 0.968891 0
M  V30 2253 O 202.256 8.02078 0.540924 0
M  V30 2254 H 201.988 0.570457 0.362705 0
M  V30 2255 H 204.542 1.99249 0.498885 0
M  V30 2256 H 202.772 2.41786 3.01789 0
M  V30 2257 H 204.461 2.82403 2.91553 0
M  V30 2258 H 205.227 4.68154 1.26716 0
M  V30 2259 H 201.106 4.00216 2.28797 0
M  V30 2260 H 204.65 6.95776 0.504192 0
M  V30 2261 H 200.547 6.271 1.53022 0
M  V30 2262 H 201.315 8.15794 0.66502 0
M  V30 2263 N 203.978 -0.674533 1.42435 0
M  V30 2264 C 204.925 -1.78807 1.45934 0
M  V30 2265 C 205.895 -1.63157 0.311271 0
M  V30 2266 O 207.08 -1.83707 0.515383 0
M  V30 2267 C 204.22 -3.16839 1.36773 0
M  V30 2268 C 203.333 -3.43774 2.61617 0
M  V30 2269 C 202.468 -4.71536 2.44597 0
M  V30 2270 C 201.507 -4.91505 3.64814 0
M  V30 2271 N 200.644 -6.10508 3.46734 0
M  V30 2272 H 205.484 -1.75151 2.41093 0
M  V30 2273 H 203.021 -0.85504 1.19697 0
M  V30 2274 H 204.979 -3.96606 1.29459 0
M  V30 2275 H 203.609 -3.19619 0.452089 0
M  V30 2276 H 202.661 -2.58259 2.79297 0
M  V30 2277 H 203.973 -3.54423 3.50978 0
M  V30 2278 H 203.127 -5.59393 2.3487 0
M  V30 2279 H 201.866 -4.6317 1.52726 0
M  V30 2280 H 200.871 -4.0209 3.74972 0
M  V30 2281 H 202.096 -5.01716 4.57665 0
M  V30 2282 H 200.042 -6.03315 2.5758 0
M  V30 2283 H 199.959 -6.2202 4.29682 0
M  V30 2284 H 201.227 -7.01044 3.40819 0
M  V30 2285 N 205.456 -1.28612 -0.910864 0
M  V30 2286 C 206.702 -1.17116 -1.66299 0
M  V30 2287 C 207.057 0.276917 -1.90397 0
M  V30 2288 O 206.35 1.19795 -1.49532 0
M  V30 2289 C 206.544 -1.90624 -3.0232 0
M  V30 2290 C 206.373 -3.42431 -2.91498 0
M  V30 2291 C 205.143 -4.11773 -2.92867 0
M  V30 2292 C 207.341 -4.38124 -2.69355 0
M  V30 2293 N 205.323 -5.50025 -2.72664 0
M  V30 2294 C 206.694 -5.63759 -2.58023 0
M  V30 2295 C 208.749 -4.28016 -2.54375 0
M  V30 2296 C 207.452 -6.80436 -2.33238 0
M  V30 2297 C 209.478 -5.44433 -2.30969 0
M  V30 2298 C 208.84 -6.69034 -2.20394 0
M  V30 2299 H 204.939 -0.483506 -0.61461 0
M  V30 2300 H 207.523 -1.62299 -1.0755 0
M  V30 2301 H 205.694 -1.4787 -3.5915 0
M  V30 2302 H 207.426 -1.71488 -3.66571 0
M  V30 2303 H 204.181 -3.63378 -3.03732 0
M  V30 2304 H 204.605 -6.22705 -2.65646 0
M  V30 2305 H 209.247 -3.32388 -2.613 0
M  V30 2306 H 206.965 -7.7613 -2.25051 0
M  V30 2307 H 210.551 -5.38504 -2.20238 0
M  V30 2308 H 209.431 -7.57595 -2.02531 0
M  V30 2309 N 206.934 1.1197 -1.10907 0
M  V30 2310 C 207.864 2.19928 -0.784473 0
M  V30 2311 C 208.845 1.6833 0.244726 0
M  V30 2312 O 210.03 1.93892 0.109418 0
M  V30 2313 C 207.16 3.46597 -0.220827 0
M  V30 2314 C 206.114 4.11376 -1.18127 0
M  V30 2315 C 205.44 5.32554 -0.478594 0
M  V30 2316 C 206.74 4.56945 -2.52979 0
M  V30 2317 H 208.434 2.47337 -1.68715 0
M  V30 2318 H 205.98 1.18879 -0.812642 0
M  V30 2319 H 207.933 4.21396 0.0184278 0
M  V30 2320 H 206.657 3.1863 0.717113 0
M  V30 2321 H 205.316 3.38564 -1.40606 0
M  V30 2322 H 204.964 5.00856 0.463976 0
M  V30 2323 H 204.664 5.76844 -1.11912 0
M  V30 2324 H 206.188 6.10096 -0.248 0
M  V30 2325 H 207.602 5.23093 -2.3462 0
M  V30 2326 H 205.999 5.1203 -3.12962 0
M  V30 2327 H 207.069 3.70676 -3.12614 0
M  V30 2328 N 208.412 0.89855 1.29475 0
M  V30 2329 C 209.637 0.538561 2.00285 0
M  V30 2330 C 210.062 -0.869135 1.66816 0
M  V30 2331 O 209.42 -1.57831 0.892145 0
M  V30 2332 C 209.468 0.736475 3.52999 0
M  V30 2333 O 208.572 -0.211537 4.11857 0
M  V30 2334 H 207.913 0.210563 0.62973 0
M  V30 2335 H 210.443 1.20982 1.64998 0
M  V30 2336 H 210.453 0.640685 4.02938 0
M  V30 2337 H 209.128 1.76276 3.76696 0
M  V30 2338 H 207.705 -0.0682991 3.72837 0
M  V30 2339 N 209.89 -1.43072 0.660911 0
M  V30 2340 C 211.118 -2.06067 0.185422 0
M  V30 2341 C 211.533 -1.49582 -1.15198 0
M  V30 2342 O 210.89 -0.630134 -1.71276 0
M  V30 2343 C 210.941 -3.61371 0.0966523 0
M  V30 2344 O 210.662 -4.15758 1.38119 0
M  V30 2345 C 212.163 -4.41455 -0.403996 0
M  V30 2346 H 209.383 -0.664459 0.0934604 0
M  V30 2347 H 211.927 -1.83447 0.90373 0
M  V30 2348 H 210.082 -3.8315 -0.572259 0
M  V30 2349 H 210.496 -5.09499 1.24542 0
M  V30 2350 H 211.97 -5.50437 -0.415045 0
M  V30 2351 H 212.447 -4.15036 -1.43674 0
M  V30 2352 H 213.053 -4.24663 0.232691 0
M  V30 2353 N 211.368 -0.403325 -1.52352 0
M  V30 2354 C 212.298 0.416205 -2.29761 0
M  V30 2355 C 213.279 1.05123 -1.33728 0
M  V30 2356 O 214.464 1.06134 -1.62632 0
M  V30 2357 C 211.594 1.53624 -3.11475 0
M  V30 2358 C 210.548 1.02653 -4.15507 0
M  V30 2359 C 209.874 2.23971 -4.85532 0
M  V30 2360 C 211.174 0.08463 -5.22231 0
M  V30 2361 H 212.868 -0.229701 -2.98518 0
M  V30 2362 H 210.414 -0.111913 -1.43564 0
M  V30 2363 H 212.367 2.1165 -3.64393 0
M  V30 2364 H 211.091 2.20994 -2.40477 0
M  V30 2365 H 209.75 0.46871 -3.63591 0
M  V30 2366 H 209.398 2.89883 -4.11068 0
M  V30 2367 H 209.098 1.90521 -5.55856 0
M  V30 2368 H 210.622 2.82614 -5.41259 0
M  V30 2369 H 212.036 0.573509 -5.70424 0
M  V30 2370 H 210.433 -0.160783 -5.99885 0
M  V30 2371 H 211.503 -0.86237 -4.7717 0
M  V30 2372 N 212.846 1.57033 -0.133567 0
M  V30 2373 C 213.793 2.16074 0.811208 0
M  V30 2374 C 214.763 1.08979 1.2535 0
M  V30 2375 O 215.948 1.36958 1.32843 0
M  V30 2376 C 213.088 2.77595 2.05024 0
M  V30 2377 C 212.201 3.99042 1.65498 0
M  V30 2378 C 211.336 4.48603 2.84479 0
M  V30 2379 C 210.375 5.62547 2.41262 0
M  V30 2380 N 209.512 6.06787 3.53206 0
M  V30 2381 H 214.352 2.96477 0.300906 0
M  V30 2382 H 211.889 1.46462 0.136822 0
M  V30 2383 H 213.847 3.11402 2.77642 0
M  V30 2384 H 212.477 1.99859 2.53488 0
M  V30 2385 H 211.529 3.71302 0.826981 0
M  V30 2386 H 212.841 4.81629 1.29748 0
M  V30 2387 H 211.995 4.84395 3.65303 0
M  V30 2388 H 210.734 3.64995 3.23465 0
M  V30 2389 H 209.739 5.26345 1.58874 0
M  V30 2390 H 210.964 6.47931 2.03377 0
M  V30 2391 H 208.91 5.26117 3.91838 0
M  V30 2392 H 208.827 6.84266 3.21427 0
M  V30 2393 H 210.095 6.4722 4.34427 0
M  V30 2394 N 214.325 -0.140222 1.56975 0
M  V30 2395 C 215.272 -1.17292 1.98774 0
M  V30 2396 C 216.242 -1.4232 0.856408 0
M  V30 2397 O 217.427 -1.54541 1.119 0
M  V30 2398 C 214.567 -2.49973 2.37923 0
M  V30 2399 C 213.68 -2.32062 3.64378 0
M  V30 2400 C 212.815 -3.57825 3.926 0
M  V30 2401 C 211.854 -3.3498 5.12303 0
M  V30 2402 N 210.991 -4.52891 5.36502 0
M  V30 2403 H 215.831 -0.809472 2.86795 0
M  V30 2404 H 213.368 -0.388237 1.41884 0
M  V30 2405 H 215.326 -3.27346 2.58652 0
M  V30 2406 H 213.956 -2.84252 1.52972 0
M  V30 2407 H 213.008 -1.45711 3.51387 0
M  V30 2408 H 214.32 -2.11145 4.51906 0
M  V30 2409 H 213.474 -4.43624 4.13863 0
M  V30 2410 H 212.213 -3.81753 3.03506 0
M  V30 2411 H 211.218 -2.4757 4.90906 0
M  V30 2412 H 212.443 -3.12444 6.02956 0
M  V30 2413 H 210.389 -4.76979 4.50363 0
M  V30 2414 H 210.306 -4.35001 6.18312 0
M  V30 2415 H 211.574 -5.39884 5.62268 0
M  V30 2416 N 215.803 -1.52179 -0.40978 0
M  V30 2417 C 217.049 -1.66453 -1.15851 0
M  V30 2418 C 217.382 -0.392972 -1.90182 0
M  V30 2419 O 216.657 0.608579 -1.84734 0
M  V30 2420 C 216.94 -2.88612 -2.15349 0
M  V30 2421 C 216.793 -4.25815 -1.44918 0
M  V30 2422 C 218.112 -3.06294 -3.16026 0
M  V30 2423 H 215.231 -0.60575 -0.419805 0
M  V30 2424 H 217.873 -1.84732 -0.444314 0
M  V30 2425 H 216.023 -2.73158 -2.76255 0
M  V30 2426 H 217.695 -4.52995 -0.871365 0
M  V30 2427 H 215.938 -4.27247 -0.751159 0
M  V30 2428 H 216.609 -5.07337 -2.17516 0
M  V30 2429 H 219.085 -3.20641 -2.65195 0
M  V30 2430 H 217.961 -3.93283 -3.8291 0
M  V30 2431 H 218.222 -2.19579 -3.83715 0
M  V30 2432 N 217.281 0.66697 -1.42791 0
M  V30 2433 C 218.529 1.42417 -1.43394 0
M  V30 2434 C 218.85 1.94925 -0.0542373 0
M  V30 2435 O 218.12 1.73564 0.908415 0
M  V30 2436 H 216.7 0.528515 -0.527902 0
M  V30 2437 H 219.362 0.787562 -1.78279 0
M  V30 2438 H 218.458 2.27333 -2.13837 0
M  V30 2439 N 218.759 1.29093 0.90403 0
M  V30 2440 C 220.008 1.16187 1.64874 0
M  V30 2441 C 220.321 -0.286742 1.93487 0
M  V30 2442 O 221.527 -0.537062 2.66135 0
M  V30 2443 C 219.983 2.03177 2.97064 0
M  V30 2444 C 219.591 3.52836 2.76062 0
M  V30 2445 C 221.335 1.98984 3.74974 0
M  V30 2446 C 219.242 4.31945 4.03952 0
M  V30 2447 H 218.172 0.431246 0.618501 0
M  V30 2448 H 220.823 1.53699 1.00243 0
M  V30 2449 H 219.205 1.5853 3.62883 0
M  V30 2450 H 220.379 4.05507 2.18863 0
M  V30 2451 H 218.694 3.58656 2.11553 0
M  V30 2452 H 221.291 2.55351 4.69787 0
M  V30 2453 H 221.634 0.968815 4.0487 0
M  V30 2454 H 222.167 2.41652 3.15989 0
M  V30 2455 H 218.906 5.34667 3.79225 0
M  V30 2456 H 218.426 3.84045 4.60727 0
M  V30 2457 H 220.105 4.42379 4.72133 0
M  V30 2458 N 220.237 -1.11381 1.11499 0
M  V30 2459 C 221.483 -1.83403 0.865512 0
M  V30 2460 C 221.816 -1.84459 -0.607329 0
M  V30 2461 O 221.091 -1.29811 -1.44842 0
M  V30 2462 C 221.374 -3.30552 1.42855 0
M  V30 2463 C 221.227 -3.37886 2.96906 0
M  V30 2464 C 222.546 -4.26643 1.08 0
M  V30 2465 H 219.665 -0.665879 0.31587 0
M  V30 2466 H 222.307 -1.30601 1.37998 0
M  V30 2467 H 220.457 -3.75648 0.990985 0
M  V30 2468 H 222.129 -3.01343 3.49271 0
M  V30 2469 H 220.372 -2.78088 3.32941 0
M  V30 2470 H 221.043 -4.41458 3.31389 0
M  V30 2471 H 223.519 -3.89729 1.45775 0
M  V30 2472 H 222.395 -5.27986 1.50072 0
M  V30 2473 H 222.656 -4.42099 -0.00915037 0
M  V30 2474 N 221.715 -0.905404 -1.28997 0
M  V30 2475 C 223.131 -0.60233 -1.47798 0
M  V30 2476 C 223.331 0.854645 -1.82478 0
M  V30 2477 O 222.387 1.63439 -1.92468 0
M  V30 2478 C 223.7 -1.53306 -2.58685 0
M  V30 2479 C 225.248 -1.53887 -2.72558 0
M  V30 2480 C 225.723 -2.45602 -3.86579 0
M  V30 2481 N 227.214 -2.43681 -3.93921 0
M  V30 2482 C 227.949 -3.11347 -4.81509 0
M  V30 2483 N 227.445 -3.88313 -5.73746 0
M  V30 2484 N 229.238 -3.00476 -4.75048 0
M  V30 2485 H 221.389 -1.84765 -1.04764 0
M  V30 2486 H 223.652 -0.792025 -0.520961 0
M  V30 2487 H 223.358 -2.57141 -2.39941 0
M  V30 2488 H 223.232 -1.25787 -3.55609 0
M  V30 2489 H 225.619 -0.507941 -2.90696 0
M  V30 2490 H 225.7 -1.85447 -1.76191 0
M  V30 2491 H 225.344 -3.48792 -3.69197 0
M  V30 2492 H 225.274 -2.11349 -4.82327 0
M  V30 2493 H 227.765 -1.87767 -3.27951 0
M  V30 2494 H 228.078 -4.36985 -6.37389 0
M  V30 2495 H 226.423 -3.92419 -5.73614 0
M  V30 2496 H 229.614 -2.39858 -4.01977 0
M  V30 2497 H 229.787 -3.53485 -5.43095 0
M  V30 2498 N 223.193 1.4272 -0.668489 0
M  V30 2499 C 224.123 2.335 -0.000100175 0
M  V30 2500 C 225.104 1.50328 0.795964 0
M  V30 2501 O 226.289 1.78949 0.754385 0
M  V30 2502 C 223.419 3.33874 0.956302 0
M  V30 2503 C 222.373 4.27152 0.269278 0
M  V30 2504 C 221.699 5.17684 1.33818 0
M  V30 2505 C 222.999 5.15373 -0.847805 0
M  V30 2506 H 224.693 2.89639 -0.758244 0
M  V30 2507 H 222.239 1.39269 -0.366079 0
M  V30 2508 H 224.192 3.9629 1.43292 0
M  V30 2509 H 222.916 2.76025 1.74579 0
M  V30 2510 H 221.575 3.66123 -0.187042 0
M  V30 2511 H 221.223 4.56165 2.1195 0
M  V30 2512 H 220.923 5.80918 0.883659 0
M  V30 2513 H 222.447 5.82974 1.81586 0
M  V30 2514 H 223.861 5.7151 -0.452681 0
M  V30 2515 H 222.258 5.87407 -1.22773 0
M  V30 2516 H 223.328 4.5415 -1.69929 0
M  V30 2517 N 224.671 0.411399 1.52136 0
M  V30 2518 C 225.899 -0.163076 2.06256 0
M  V30 2519 C 226.314 -1.3867 1.28125 0
M  V30 2520 O 225.671 -1.79423 0.333721 0
M  V30 2521 C 225.722 -0.511252 3.57867 0
M  V30 2522 O 225.443 0.66378 4.33042 0
M  V30 2523 C 226.944 -1.13921 4.28412 0
M  V30 2524 H 224.164 -0.0193897 0.67072 0
M  V30 2525 H 226.708 0.583007 1.96013 0
M  V30 2526 H 224.863 -1.20723 3.6811 0
M  V30 2527 H 225.277 0.372601 5.23175 0
M  V30 2528 H 226.751 -1.33302 5.35663 0
M  V30 2529 H 227.228 -2.11296 3.85033 0
M  V30 2530 H 227.834 -0.483373 4.22544 0
M  V30 2531 N 226.149 -1.5696 0.141893 0
M  V30 2532 C 227.397 -1.95573 -0.509484 0
M  V30 2533 C 227.718 -1.02746 -1.65736 0
M  V30 2534 O 226.988 -0.0880311 -1.95702 0
M  V30 2535 H 225.568 -0.722115 -0.191205 0
M  V30 2536 H 228.23 -1.93697 0.216196 0
M  V30 2537 H 227.326 -2.99171 -0.889 0
M  V30 2538 N 227.627 0.131896 -1.57047 0
M  V30 2539 C 228.59 1.14638 -1.98471 0
M  V30 2540 C 229.59 1.35029 -0.873148 0
M  V30 2541 O 230.78 1.31764 -1.13946 0
M  V30 2542 C 227.912 2.50358 -2.31373 0
M  V30 2543 H 229.105 0.79064 -2.8929 0
M  V30 2544 H 226.658 0.375761 -1.51716 0
M  V30 2545 H 227.393 2.90876 -1.43393 0
M  V30 2546 H 227.178 2.36915 -3.12432 0
M  V30 2547 H 228.668 3.23395 -2.64207 0
M  V30 2548 N 229.106 1.52395 0.401703 0
M  V30 2549 C 230.331 1.70972 1.17403 0
M  V30 2550 C 230.756 0.421615 1.83314 0
M  V30 2551 O 230.114 -0.621564 1.70312 0
M  V30 2552 C 230.162 2.85151 2.20728 0
M  V30 2553 O 229.266 2.51238 3.27037 0
M  V30 2554 H 228.607 0.568927 0.342372 0
M  V30 2555 H 231.137 1.99131 0.469891 0
M  V30 2556 H 231.147 3.10279 2.64936 0
M  V30 2557 H 229.822 3.78603 1.7214 0
M  V30 2558 H 228.399 2.36808 2.88057 0
M  V30 2559 N 230.584 -0.659388 1.43143 0
M  V30 2560 C 231.861 -1.41627 1.34912 0
M  V30 2561 C 232.241 -2.11099 -0.00607785 0
M  V30 2562 O 231.589 -2.04353 -1.02236 0
M  V30 2563 C 231.799 -2.40604 2.52805 0
M  V30 2564 C 233.147 -3.04789 2.95616 0
M  V30 2565 O 234.171 -2.50932 2.52807 0
M  V30 2566 O 233.03 -4.02421 3.69756 0
M  V30 2567 H 230.124 -0.63246 0.532844 0
M  V30 2568 H 232.67 -0.686814 1.5518 0
M  V30 2569 H 231.442 -1.88174 3.43083 0
M  V30 2570 H 231.065 -3.21009 2.34604 0
M  V30 2571 N 232.062 -1.29571 -0.897171 0
M  V30 2572 C 233.009 -1.14916 -2.00158 0
M  V30 2573 C 233.979 -0.0418149 -1.66047 0
M  V30 2574 O 235.164 -0.209793 -1.89643 0
M  V30 2575 C 232.304 -0.834307 -3.34863 0
M  V30 2576 C 231.417 -2.02234 -3.8174 0
M  V30 2577 C 230.552 -1.64664 -5.05034 0
M  V30 2578 C 229.591 -2.80033 -5.44286 0
M  V30 2579 N 228.728 -2.42843 -6.58765 0
M  V30 2580 H 233.568 -2.09403 -2.12025 0
M  V30 2581 H 231.105 -1.042 -1.0383 0
M  V30 2582 H 233.063 -0.632436 -4.12379 0
M  V30 2583 H 231.693 0.0736656 -3.22716 0
M  V30 2584 H 230.745 -2.33583 -3.00238 0
M  V30 2585 H 232.057 -2.88673 -4.06779 0
M  V30 2586 H 231.211 -1.4078 -5.9014 0
M  V30 2587 H 229.95 -0.753766 -4.8184 0
M  V30 2588 H 228.955 -3.04596 -4.57713 0
M  V30 2589 H 230.18 -3.69989 -5.6946 0
M  V30 2590 H 228.126 -1.56046 -6.3717 0
M  V30 2591 H 228.043 -3.22815 -6.83613 0
M  V30 2592 H 229.311 -2.22285 -7.47134 0
M  V30 2593 N 233.54 1.10788 -1.12088 0
M  V30 2594 C 234.951 1.64181 -0.88891 0
M  V30 2595 C 235.302 1.87508 0.577498 0
M  V30 2596 O 234.427 1.61434 1.44112 0
M  V30 2597 C 235.022 2.98257 -1.60712 0
M  V30 2598 C 233.581 3.4853 -1.42139 0
M  V30 2599 C 232.728 2.23208 -1.6454 0
M  V30 2600 H 235.679 0.943368 -1.27618 0
M  V30 2601 H 235.7 3.65552 -1.05604 0
M  V30 2602 H 235.212 2.81246 -2.67436 0
M  V30 2603 H 233.313 3.70692 -0.376552 0
M  V30 2604 H 233.426 4.26882 -2.17505 0
M  V30 2605 H 231.79 2.31169 -1.06925 0
M  V30 2606 H 232.573 2.08733 -2.72554 0
M  V30 2607 N 235.018 0.912232 1.28515 0
M  V30 2608 C 236.266 0.543523 1.94654 0
M  V30 2609 C 236.587 -0.9155 1.72173 0
M  V30 2610 O 235.857 -1.64708 1.06058 0
M  V30 2611 H 234.437 0.198017 0.720277 0
M  V30 2612 H 237.099 1.16126 1.56527 0
M  V30 2613 H 236.195 0.736684 3.03281 0
M  V30 2614 N 236.496 -1.42363 0.676048 0
M  V30 2615 C 237.406 -2.346 -0.00153389 0
M  V30 2616 C 238.422 -1.5516 -0.787485 0
M  V30 2617 O 239.598 -1.87723 -0.729521 0
M  V30 2618 C 236.663 -3.33705 -0.940298 0
M  V30 2619 C 235.724 -4.29042 -0.148739 0
M  V30 2620 C 234.957 -5.23413 -1.04279 0
M  V30 2621 O 235.18 -5.22749 -2.28232 0
M  V30 2622 O 234.114 -5.99795 -0.502925 0
M  V30 2623 H 237.94 -2.94082 0.758268 0
M  V30 2624 H 235.525 -1.42888 0.436289 0
M  V30 2625 H 237.407 -3.94586 -1.47917 0
M  V30 2626 H 236.082 -2.76695 -1.67993 0
M  V30 2627 H 234.989 -3.71571 0.43427 0
M  V30 2628 H 236.322 -4.89097 0.551805 0
M  V30 2629 N 237.974 -0.419461 -1.51915 0
M  V30 2630 C 239.22 0.153166 -2.02221 0
M  V30 2631 C 239.553 1.43907 -1.30401 0
M  V30 2632 O 238.828 1.90055 -0.413438 0
M  V30 2633 C 239.111 0.390291 -3.57979 0
M  V30 2634 C 238.964 -0.913014 -4.40436 0
M  V30 2635 C 240.283 1.16794 -4.2432 0
M  V30 2636 H 237.402 0.0541924 -0.735005 0
M  V30 2637 H 240.044 -0.554955 -1.81715 0
M  V30 2638 H 238.194 0.993491 -3.75582 0
M  V30 2639 H 239.866 -1.54882 -4.34522 0
M  V30 2640 H 238.109 -1.52168 -4.06236 0
M  V30 2641 H 238.78 -0.701361 -5.47526 0
M  V30 2642 H 241.256 0.657161 -4.10878 0
M  V30 2643 H 240.132 1.3026 -5.3322 0
M  V30 2644 H 240.393 2.19132 -3.83971 0
M  V30 2645 N 239.452 1.56882 -0.150215 0
M  V30 2646 C 240.677 2.01027 0.510184 0
M  V30 2647 C 241.102 1.02966 1.57415 0
M  V30 2648 O 240.46 0.00590158 1.81299 0
M  V30 2649 C 240.508 3.43899 1.08472 0
M  V30 2650 O 239.612 3.4885 2.19948 0
M  V30 2651 H 238.953 0.652233 0.124451 0
M  V30 2652 H 241.483 2.03093 -0.247894 0
M  V30 2653 H 241.493 3.82766 1.41259 0
M  V30 2654 H 240.168 4.14776 0.305582 0
M  V30 2655 H 238.745 3.21827 1.88366 0
M  V30 2656 N 240.93 -0.123565 1.57115 0
M  V30 2657 C 241.877 -1.15177 2.00007 0
M  V30 2658 C 242.847 -1.41403 0.871454 0
M  V30 2659 O 244.032 -1.53346 1.13533 0
M  V30 2660 C 241.172 -2.47436 2.40561 0
M  V30 2661 C 240.285 -2.28184 3.66819 0
M  V30 2662 C 239.42 -3.53641 3.96373 0
M  V30 2663 C 238.459 -3.29528 5.15827 0
M  V30 2664 N 237.596 -4.47175 5.41275 0
M  V30 2665 H 242.436 -0.779008 2.87638 0
M  V30 2666 H 239.973 -0.373166 1.42288 0
M  V30 2667 H 241.931 -3.24584 2.62109 0
M  V30 2668 H 240.561 -2.82614 1.55978 0
M  V30 2669 H 239.613 -1.41976 3.52912 0
M  V30 2670 H 240.925 -2.0634 4.5412 0
M  V30 2671 H 240.079 -4.39209 4.18545 0
M  V30 2672 H 238.818 -3.78512 3.07538 0
M  V30 2673 H 237.823 -2.42349 4.93505 0
M  V30 2674 H 239.048 -3.06031 6.06236 0
M  V30 2675 H 236.994 -4.72175 4.55397 0
M  V30 2676 H 236.911 -4.28419 6.22891 0
M  V30 2677 H 238.179 -5.3389 5.67963 0
M  V30 2678 N 242.408 -1.52605 -0.393616 0
M  V30 2679 C 243.338 -1.80022 -1.48709 0
M  V30 2680 C 244.319 -0.651995 -1.57108 0
M  V30 2681 O 245.504 -0.89913 -1.72132 0
M  V30 2682 C 242.634 -1.96492 -2.86371 0
M  V30 2683 C 241.588 -3.12161 -2.92813 0
M  V30 2684 C 240.914 -3.13877 -4.3288 0
M  V30 2685 C 242.214 -4.51322 -2.6288 0
M  V30 2686 H 243.908 -2.71589 -1.26015 0
M  V30 2687 H 241.454 -1.30684 -0.604778 0
M  V30 2688 H 243.407 -2.14255 -3.62867 0
M  V30 2689 H 242.131 -1.01611 -3.10391 0
M  V30 2690 H 240.79 -2.94173 -2.18764 0
M  V30 2691 H 240.438 -2.16687 -4.53933 0
M  V30 2692 H 240.138 -3.91576 -4.38112 0
M  V30 2693 H 241.662 -3.33789 -5.1129 0
M  V30 2694 H 243.076 -4.69435 -3.29096 0
M  V30 2695 H 241.473 -5.31053 -2.79468 0
M  V30 2696 H 242.543 -4.58353 -1.58242 0
M  V30 2697 N 243.887 0.651787 -1.4349 0
M  V30 2698 C 245.135 1.40888 -1.44897 0
M  V30 2699 C 245.456 1.94856 -0.0749086 0
M  V30 2700 O 244.726 1.74518 0.889956 0
M  V30 2701 H 243.306 0.522887 -0.533478 0
M  V30 2702 H 245.968 0.768609 -1.79104 0
M  V30 2703 H 245.064 2.25052 -2.16236 0
M  V30 2704 N 245.365 1.30045 0.890287 0
M  V30 2705 C 246.312 1.15976 1.99545 0
M  V30 2706 C 247.282 0.0506202 1.66023 0
M  V30 2707 O 248.467 0.219847 1.89529 0
M  V30 2708 C 245.607 0.852054 3.34416 0
M  V30 2709 C 244.72 2.04255 3.80662 0
M  V30 2710 C 243.855 1.6734 5.04154 0
M  V30 2711 C 242.894 2.82916 5.42794 0
M  V30 2712 N 242.031 2.46333 6.57468 0
M  V30 2713 H 246.871 2.10524 2.10911 0
M  V30 2714 H 244.408 1.04749 1.03276 0
M  V30 2715 H 246.366 0.654296 4.12037 0
M  V30 2716 H 244.996 -0.0565502 3.2275 0
M  V30 2717 H 244.048 2.35172 2.98995 0
M  V30 2718 H 245.36 2.90826 4.05242 0
M  V30 2719 H 244.514 1.43908 5.89386 0
M  V30 2720 H 243.253 0.779308 4.81433 0
M  V30 2721 H 242.258 3.0702 4.56091 0
M  V30 2722 H 243.483 3.73004 5.6749 0
M  V30 2723 H 241.429 1.59423 6.36334 0
M  V30 2724 H 241.346 3.26436 6.81891 0
M  V30 2725 H 242.614 2.26244 7.45945 0
M  V30 2726 N 246.843 -1.10192 1.12674 0
M  V30 2727 C 248.259 -1.34235 0.863317 0
M  V30 2728 C 248.459 -1.95062 -0.505277 0
M  V30 2729 O 247.515 -2.19192 -1.25345 0
M  V30 2730 C 248.828 -2.2616 1.98172 0
M  V30 2731 C 250.376 -2.3969 2.0129 0
M  V30 2732 C 250.851 -3.34946 3.1237 0
M  V30 2733 N 252.342 -3.42515 3.11829 0
M  V30 2734 C 253.077 -4.16199 3.94419 0
M  V30 2735 N 252.573 -4.92747 4.87004 0
M  V30 2736 N 254.366 -4.11843 3.82547 0
M  V30 2737 H 246.517 -0.690798 2.00853 0
M  V30 2738 H 248.78 -0.366774 0.874174 0
M  V30 2739 H 248.486 -1.8868 2.96804 0
M  V30 2740 H 248.36 -3.26488 1.88906 0
M  V30 2741 H 250.747 -2.76438 1.03276 0
M  V30 2742 H 250.828 -1.39169 2.14629 0
M  V30 2743 H 250.472 -2.98923 4.10619 0
M  V30 2744 H 250.402 -4.35353 2.96269 0
M  V30 2745 H 252.893 -2.87926 2.44759 0
M  V30 2746 H 253.206 -5.46376 5.46528 0
M  V30 2747 H 251.551 -4.91862 4.91016 0
M  V30 2748 H 254.742 -3.51136 3.0955 0
M  V30 2749 H 254.915 -4.69007 4.47142 0
M  V30 2750 N 248.321 -0.919034 -1.28029 0
M  V30 2751 C 249.254 -0.355887 -2.25408 0
M  V30 2752 C 250.232 0.542874 -1.5327 0
M  V30 2753 O 251.416 0.485338 -1.82145 0
M  V30 2754 C 248.543 0.490759 -3.35126 0
M  V30 2755 C 247.589 -0.343358 -4.25116 0
M  V30 2756 S 248.422 -1.75344 -5.05979 0
M  V30 2757 C 249.578 -0.914244 -6.19187 0
M  V30 2758 H 249.811 -1.18123 -2.72826 0
M  V30 2759 H 247.344 -0.720636 -1.36551 0
M  V30 2760 H 249.302 0.973404 -3.98792 0
M  V30 2761 H 247.963 1.29054 -2.86363 0
M  V30 2762 H 247.156 0.304266 -5.03081 0
M  V30 2763 H 246.758 -0.759851 -3.662 0
M  V30 2764 H 249.05 -0.146282 -6.77342 0
M  V30 2765 H 249.993 -1.66661 -6.88208 0
M  V30 2766 H 250.401 -0.460082 -5.62622 0
M  V30 2767 N 249.799 1.42003 -0.683588 0
M  V30 2768 C 251.047 2.01015 -0.209101 0
M  V30 2769 C 251.368 1.54365 1.19149 0
M  V30 2770 O 250.638 0.769083 1.80172 0
M  V30 2771 H 249.218 0.743294 -0.074315 0
M  V30 2772 H 251.88 1.73798 -0.882066 0
M  V30 2773 H 250.976 3.11343 -0.2172 0
M  V30 2774 N 251.277 0.427512 1.51691 0
M  V30 2775 C 252.524 -0.142229 2.02 0
M  V30 2776 C 252.852 -1.43566 1.31221 0
M  V30 2777 O 252.107 -1.91298 0.412744 0
M  V30 2778 C 252.406 -0.418249 3.54944 0
M  V30 2779 C 252.072 0.788187 4.43958 0
M  V30 2780 C 250.734 1.11906 4.68007 0
M  V30 2781 C 253.086 1.59347 4.96244 0
M  V30 2782 C 250.414 2.25608 5.41588 0
M  V30 2783 C 252.766 2.7214 5.71072 0
M  V30 2784 C 251.43 3.05692 5.93387 0
M  V30 2785 H 250.7 -0.0520451 0.73917 0
M  V30 2786 H 253.347 0.572697 1.82736 0
M  V30 2787 H 251.652 -1.21496 3.72486 0
M  V30 2788 H 253.349 -0.872339 3.91397 0
M  V30 2789 H 249.939 0.520344 4.2543 0
M  V30 2790 H 254.123 1.35106 4.77556 0
M  V30 2791 H 249.379 2.51929 5.57083 0
M  V30 2792 H 253.553 3.34914 6.10578 0
M  V30 2793 H 251.18 3.9391 6.50184 0
M  V30 2794 N 252.755 -1.56801 0.158532 0
M  V30 2795 C 253.685 -2.20347 -0.772609 0
M  V30 2796 C 254.666 -1.15518 -1.24859 0
M  V30 2797 O 255.851 -1.43902 -1.30406 0
M  V30 2798 C 252.981 -2.83417 -2.00729 0
M  V30 2799 C 251.935 -3.94174 -1.66765 0
M  V30 2800 C 251.261 -4.44233 -2.97592 0
M  V30 2801 C 252.561 -5.14392 -0.905447 0
M  V30 2802 H 254.255 -2.98413 -0.242959 0
M  V30 2803 H 251.801 -1.43537 -0.115419 0
M  V30 2804 H 253.754 -3.26543 -2.6636 0
M  V30 2805 H 252.478 -2.02701 -2.56086 0
M  V30 2806 H 251.137 -3.51684 -1.03508 0
M  V30 2807 H 250.785 -3.60325 -3.50963 0
M  V30 2808 H 250.485 -5.18945 -2.75626 0
M  V30 2809 H 252.009 -4.90037 -3.64274 0
M  V30 2810 H 253.423 -5.5429 -1.46408 0
M  V30 2811 H 251.82 -5.9494 -0.7853 0
M  V30 2812 H 252.89 -4.84795 0.100668 0
M  V30 2813 N 254.233 0.115231 -1.57178 0
M  V30 2814 C 255.463 0.835224 -1.88964 0
M  V30 2815 C 255.871 1.73774 -0.74829 0
M  V30 2816 O 255.214 1.81401 0.289739 0
M  V30 2817 C 255.276 1.7178 -3.15804 0
M  V30 2818 C 254.94 0.989198 -4.46166 0
M  V30 2819 C 255.937 0.328263 -5.18863 0
M  V30 2820 C 253.622 0.969256 -4.9286 0
M  V30 2821 C 255.616 -0.342873 -6.36477 0
M  V30 2822 C 253.303 0.294324 -6.10391 0
M  V30 2823 C 254.301 -0.360582 -6.82048 0
M  V30 2824 O 253.989 -1.02474 -7.97342 0
M  V30 2825 H 253.721 0.245197 -0.629964 0
M  V30 2826 H 256.275 0.10303 -2.05141 0
M  V30 2827 H 254.505 2.49173 -2.95719 0
M  V30 2828 H 256.194 2.31255 -3.33581 0
M  V30 2829 H 256.96 0.335263 -4.8384 0
M  V30 2830 H 252.839 1.46844 -4.36987 0
M  V30 2831 H 256.383 -0.854629 -6.92345 0
M  V30 2832 H 252.28 0.285099 -6.4487 0
M  V30 2833 H 253.048 -0.929594 -8.13204 0
M  V30 2834 N 255.711 1.52812 0.385517 0
M  V30 2835 C 256.641 1.80808 1.47752 0
M  V30 2836 C 257.622 0.660318 1.5676 0
M  V30 2837 O 258.807 0.908246 1.71652 0
M  V30 2838 C 255.937 1.98008 2.85324 0
M  V30 2839 C 254.891 3.13709 2.91154 0
M  V30 2840 C 254.217 3.16169 4.31209 0
M  V30 2841 C 255.517 4.52709 2.60483 0
M  V30 2842 H 257.211 2.72253 1.24573 0
M  V30 2843 H 254.757 1.31003 0.597839 0
M  V30 2844 H 256.71 2.16176 3.61726 0
M  V30 2845 H 255.434 1.03255 3.09848 0
M  V30 2846 H 254.093 2.95329 2.17201 0
M  V30 2847 H 253.741 2.19092 4.52778 0
M  V30 2848 H 253.441 3.93894 4.36029 0
M  V30 2849 H 254.965 3.36496 5.09512 0
M  V30 2850 H 256.379 4.71173 3.26602 0
M  V30 2851 H 254.776 5.32528 2.76648 0
M  V30 2852 H 255.846 4.59186 1.55809 0
M  V30 2853 N 257.189 -0.644168 1.43834 0
M  V30 2854 C 258.417 -1.43147 1.49387 0
M  V30 2855 C 258.832 -1.88452 0.114583 0
M  V30 2856 O 258.189 -1.60047 -0.876989 0
M  V30 2857 C 258.24 -2.66046 2.44748 0
M  V30 2858 O 257.961 -2.22633 3.77314 0
M  V30 2859 C 259.462 -3.59311 2.59635 0
M  V30 2860 H 256.682 -0.439447 0.507077 0
M  V30 2861 H 259.226 -0.78895 1.88669 0
M  V30 2862 H 257.381 -3.26418 2.08638 0
M  V30 2863 H 257.795 -3.02216 4.28679 0
M  V30 2864 H 259.269 -4.42187 3.30416 0
M  V30 2865 H 259.746 -4.07259 1.64427 0
M  V30 2866 H 260.352 -3.04816 2.96593 0
M  V30 2867 N 258.668 -1.30515 -0.883378 0
M  V30 2868 C 259.915 -1.1943 -1.63532 0
M  V30 2869 C 260.243 0.250627 -1.92878 0
M  V30 2870 O 259.498 1.19556 -1.54935 0
M  V30 2871 C 259.797 -1.96994 -2.98209 0
M  V30 2872 C 259.463 -3.466 -2.88408 0
M  V30 2873 C 258.125 -3.87397 -2.85442 0
M  V30 2874 C 260.477 -4.41863 -2.76418 0
M  V30 2875 C 257.805 -5.21745 -2.68327 0
M  V30 2876 C 260.157 -5.7632 -2.60841 0
M  V30 2877 C 258.821 -6.16354 -2.56251 0
M  V30 2878 H 258.091 -0.437025 -0.598406 0
M  V30 2879 H 260.738 -1.61635 -1.02696 0
M  V30 2880 H 259.043 -1.47429 -3.63004 0
M  V30 2881 H 260.74 -1.85808 -3.55354 0
M  V30 2882 H 257.33 -3.14182 -2.91527 0
M  V30 2883 H 261.514 -4.11285 -2.77775 0
M  V30 2884 H 256.77 -5.51853 -2.63189 0
M  V30 2885 H 260.944 -6.49772 -2.50538 0
M  V30 2886 H 258.571 -7.20401 -2.42748 0
M  V30 2887 N 260.146 1.09593 -1.13257 0
M  V30 2888 C 261.376 1.85231 -0.915049 0
M  V30 2889 C 261.784 1.81345 0.539498 0
M  V30 2890 O 261.127 1.20664 1.38513 0
M  V30 2891 C 261.189 3.34275 -1.3229 0
M  V30 2892 C 260.853 3.6191 -2.79052 0
M  V30 2893 C 261.85 3.57777 -3.77216 0
M  V30 2894 C 259.535 3.90309 -3.16171 0
M  V30 2895 C 261.529 3.81652 -5.1051 0
M  V30 2896 C 259.216 4.13839 -4.49644 0
M  V30 2897 C 260.214 4.09502 -5.46623 0
M  V30 2898 O 259.902 4.32426 -6.77689 0
M  V30 2899 H 259.634 0.591997 -0.326367 0
M  V30 2900 H 262.188 1.394 -1.50854 0
M  V30 2901 H 260.418 3.80805 -0.672667 0
M  V30 2902 H 262.107 3.9132 -1.07812 0
M  V30 2903 H 262.873 3.35865 -3.49885 0
M  V30 2904 H 258.752 3.92811 -2.41289 0
M  V30 2905 H 262.296 3.78182 -5.86195 0
M  V30 2906 H 258.193 4.35232 -4.767 0
M  V30 2907 H 258.961 4.49896 -6.83766 0
M  V30 2908 N 261.624 0.925811 1.2754 0
M  V30 2909 C 262.872 0.564138 1.94067 0
M  V30 2910 C 263.193 -0.897188 1.73134 0
M  V30 2911 O 262.463 -1.63573 1.07799 0
M  V30 2912 H 261.043 0.205645 0.718136 0
M  V30 2913 H 263.705 1.1778 1.55287 0
M  V30 2914 H 262.801 0.76881 3.02483 0
M  V30 2915 N 263.102 -1.41638 0.69111 0
M  V30 2916 C 264.052 -2.28 -0.000107832 0
M  V30 2917 C 265.036 -1.41964 -0.757304 0
M  V30 2918 O 266.228 -1.65274 -0.633532 0
M  V30 2919 C 263.357 -3.30209 -0.938983 0
M  V30 2920 C 262.443 -4.23725 -0.17827 0
M  V30 2921 N 262.834 -4.99017 0.825563 0
M  V30 2922 C 261.132 -4.44071 -0.414392 0
M  V30 2923 C 261.833 -5.67431 1.28052 0
M  V30 2924 N 260.809 -5.40197 0.607304 0
M  V30 2925 H 264.611 -2.83644 0.769617 0
M  V30 2926 H 262.125 -1.53797 0.521562 0
M  V30 2927 H 264.122 -3.90898 -1.44929 0
M  V30 2928 H 262.782 -2.76126 -1.70836 0
M  V30 2929 H 263.793 -5.03671 1.20566 0
M  V30 2930 H 260.47 -4.01004 -1.162 0
M  V30 2931 H 261.86 -6.37801 2.11327 0
M  V30 2932 N 264.58 -0.43555 -1.51462 0
M  V30 2933 C 265.808 0.130242 -2.0649 0
M  V30 2934 C 266.223 1.36614 -1.30315 0
M  V30 2935 O 265.58 1.78869 -0.362223 0
M  V30 2936 C 265.631 0.454253 -3.58635 0
M  V30 2937 O 265.352 -0.73259 -4.31931 0
M  V30 2938 C 266.853 1.07091 -4.3017 0
M  V30 2939 H 264.073 0.00871669 -0.670943 0
M  V30 2940 H 266.617 -0.614117 -1.95061 0
M  V30 2941 H 264.772 1.14851 -3.69984 0
M  V30 2942 H 265.186 -0.455787 -5.22516 0
M  V30 2943 H 266.66 1.24764 -5.37716 0
M  V30 2944 H 267.137 2.05144 -3.88346 0
M  V30 2945 H 267.743 0.416089 -4.2326 0
M  V30 2946 N 266.058 1.56714 -0.166846 0
M  V30 2947 C 267.304 1.97813 0.473473 0
M  V30 2948 C 267.659 1.05095 1.61161 0
M  V30 2949 O 266.952 0.0897541 1.9139 0
M  V30 2950 C 267.146 3.42889 1.00806 0
M  V30 2951 C 266.975 4.49635 -0.0767392 0
M  V30 2952 C 265.745 5.02566 -0.524894 0
M  V30 2953 C 267.943 5.06793 -0.875504 0
M  V30 2954 N 265.925 5.9294 -1.59047 0
M  V30 2955 C 267.296 5.93565 -1.79111 0
M  V30 2956 C 269.351 4.89306 -0.921083 0
M  V30 2957 C 268.054 6.64721 -2.74843 0
M  V30 2958 C 270.08 5.61179 -1.86633 0
M  V30 2959 C 269.442 6.47675 -2.76942 0
M  V30 2960 H 265.541 0.769093 0.141489 0
M  V30 2961 H 268.125 1.92874 -0.266031 0
M  V30 2962 H 266.296 3.48382 1.7171 0
M  V30 2963 H 268.028 3.71008 1.61664 0
M  V30 2964 H 264.783 4.73439 -0.123432 0
M  V30 2965 H 265.207 6.42831 -2.12361 0
M  V30 2966 H 269.849 4.22136 -0.23692 0
M  V30 2967 H 267.567 7.31107 -3.44249 0
M  V30 2968 H 271.153 5.49636 -1.90764 0
M  V30 2969 H 270.033 7.02313 -3.48893 0
M  V30 2970 N 267.536 -0.106894 1.57237 0
M  V30 2971 C 268.468 -1.15646 1.97885 0
M  V30 2972 C 269.481 -1.36981 0.879779 0
M  V30 2973 O 270.67 -1.35841 1.15799 0
M  V30 2974 C 267.77 -2.51425 2.27241 0
M  V30 2975 C 266.943 -2.50529 3.58545 0
M  V30 2976 C 266.002 -3.68145 3.75973 0
M  V30 2977 O 265.028 -3.51176 4.47956 0
M  V30 2978 N 266.23 -4.87177 3.15656 0
M  V30 2979 H 268.995 -0.81059 2.8853 0
M  V30 2980 H 266.556 -0.296024 1.59171 0
M  V30 2981 H 268.548 -3.28689 2.36105 0
M  V30 2982 H 267.118 -2.78147 1.42663 0
M  V30 2983 H 266.338 -1.58894 3.60758 0
M  V30 2984 H 267.626 -2.46997 4.44826 0
M  V30 2985 H 267.024 -5.03868 2.57165 0
M  V30 2986 H 265.581 -5.62075 3.30023 0
M  V30 2987 N 269.014 -1.53014 -0.377408 0
M  V30 2988 C 270.26 -1.68872 -1.12294 0
M  V30 2989 C 270.593 -0.433224 -1.89306 0
M  V30 2990 O 269.868 0.569258 -1.85983 0
M  V30 2991 C 270.151 -2.93115 -2.09179 0
M  V30 2992 C 270.004 -4.28794 -1.35853 0
M  V30 2993 C 271.323 -3.12928 -3.09458 0
M  V30 2994 H 268.442 -0.614518 -0.406862 0
M  V30 2995 H 271.084 -1.85633 -0.40503 0
M  V30 2996 H 269.234 -2.78956 -2.70399 0
M  V30 2997 H 270.906 -4.54742 -0.775082 0
M  V30 2998 H 269.149 -4.28744 -0.660364 0
M  V30 2999 H 269.82 -5.11837 -2.06706 0
M  V30 3000 H 272.296 -3.26194 -2.58334 0
M  V30 3001 H 271.172 -4.01316 -3.74482 0
M  V30 3002 H 271.433 -2.27669 -3.78971 0
M  V30 3003 N 270.492 0.636531 -1.44174 0
M  V30 3004 C 271.424 1.7618 -1.46606 0
M  V30 3005 C 272.437 1.58768 -0.360091 0
M  V30 3006 O 273.626 1.67181 -0.625518 0
M  V30 3007 C 270.726 3.13833 -1.27915 0
M  V30 3008 C 269.899 3.57753 -2.51658 0
M  V30 3009 C 268.958 4.74265 -2.27945 0
M  V30 3010 O 267.984 4.82852 -3.01401 0
M  V30 3011 N 269.186 5.65604 -1.30662 0
M  V30 3012 H 271.951 1.74567 -2.43612 0
M  V30 3013 H 269.512 0.820924 -1.39544 0
M  V30 3014 H 271.504 3.8949 -1.09907 0
M  V30 3015 H 270.074 3.10121 -0.39293 0
M  V30 3016 H 269.294 2.72362 -2.84978 0
M  V30 3017 H 270.582 3.83847 -3.33974 0
M  V30 3018 H 269.98 5.61354 -0.699844 0
M  V30 3019 H 268.537 6.40913 -1.18634 0
M  V30 3020 N 271.97 1.30982 0.876444 0
M  V30 3021 C 273.247 1.10942 1.61094 0
M  V30 3022 C 273.627 -0.338223 2.08373 0
M  V30 3023 O 272.975 -1.33122 1.85717 0
M  V30 3024 C 273.185 2.11789 2.77392 0
M  V30 3025 C 274.533 2.43965 3.47514 0
M  V30 3026 O 275.557 2.10166 2.87591 0
M  V30 3027 O 274.416 3.01817 4.55597 0
M  V30 3028 H 271.51 0.42667 0.708436 0
M  V30 3029 H 274.056 1.42438 0.922474 0
M  V30 3030 H 272.828 3.09194 2.39823 0
M  V30 3031 H 272.451 1.81161 3.5393 0
M  V30 3032 N 273.449 -1.08991 1.13837 0
M  V30 3033 C 274.396 -2.15748 0.819835 0
M  V30 3034 C 275.366 -1.64636 -0.220026 0
M  V30 3035 O 276.551 -1.90582 -0.0912757 0
M  V30 3036 C 273.691 -3.4382 0.296913 0
M  V30 3037 C 272.804 -4.0881 1.39636 0
M  V30 3038 C 271.939 -5.24655 0.831314 0
M  V30 3039 C 270.978 -5.81575 1.90886 0
M  V30 3040 N 270.115 -6.88774 1.36142 0
M  V30 3041 H 274.955 -2.42338 1.73426 0
M  V30 3042 H 272.492 -1.18935 0.865613 0
M  V30 3043 H 274.45 -4.17193 -0.0244339 0
M  V30 3044 H 273.08 -3.17535 -0.580628 0
M  V30 3045 H 272.132 -3.33258 1.83422 0
M  V30 3046 H 273.444 -4.47141 2.21058 0
M  V30 3047 H 272.598 -6.04942 0.461515 0
M  V30 3048 H 271.337 -4.87698 -0.013932 0
M  V30 3049 H 270.342 -4.99946 2.28767 0
M  V30 3050 H 271.567 -6.20592 2.75758 0
M  V30 3051 H 269.513 -6.53788 0.538254 0
M  V30 3052 H 269.43 -7.25898 2.11208 0
M  V30 3053 H 270.698 -7.72806 1.01933 0
M  V30 3054 N 274.927 -0.932562 -1.27047 0
M  V30 3055 C 276.176 -0.571351 -1.93439 0
M  V30 3056 C 276.489 0.892467 -1.74053 0
M  V30 3057 O 277.695 1.36267 -2.34826 0
M  V30 3058 C 276.151 -0.97106 -3.46552 0
M  V30 3059 C 275.759 -2.4559 -3.74686 0
M  V30 3060 C 277.503 -0.681333 -4.18997 0
M  V30 3061 C 275.41 -2.79475 -5.21198 0
M  V30 3062 H 274.34 -0.209966 -0.724176 0
M  V30 3063 H 276.991 -1.13403 -1.44263 0
M  V30 3064 H 275.373 -0.336983 -3.94564 0
M  V30 3065 H 276.547 -3.13829 -3.37414 0
M  V30 3066 H 274.862 -2.71802 -3.15456 0
M  V30 3067 H 277.459 -0.910939 -5.26883 0
M  V30 3068 H 277.802 0.381628 -4.14547 0
M  V30 3069 H 278.335 -1.27473 -3.76823 0
M  V30 3070 H 275.074 -3.847 -5.30741 0
M  V30 3071 H 274.594 -2.1589 -5.596 0
M  V30 3072 H 276.273 -2.67478 -5.89122 0
M  V30 3073 N 276.405 1.4127 -0.698611 0
M  V30 3074 C 277.682 1.94955 -0.158762 0
M  V30 3075 C 278.062 1.63781 1.33188 0
M  V30 3076 O 277.41 0.946423 2.07979 0
M  V30 3077 C 277.62 3.46044 -0.453309 0
M  V30 3078 C 278.968 4.22872 -0.382707 0
M  V30 3079 O 279.992 3.54076 -0.388396 0
M  V30 3080 O 278.851 5.45407 -0.345463 0
M  V30 3081 H 275.945 0.82683 -0.0167505 0
M  V30 3082 H 278.491 1.50971 -0.77498 0
M  V30 3083 H 277.263 3.62028 -1.48498 0
M  V30 3084 H 276.886 3.97128 0.19373 0
M  V30 3085 N 277.883 0.443576 1.51229 0
M  V30 3086 C 278.846 -0.353132 2.26463 0
M  V30 3087 C 279.846 -0.944338 1.3015 0
M  V30 3088 O 281.036 -0.817813 1.5381 0
M  V30 3089 C 278.168 -1.50023 3.06114 0
M  V30 3090 H 279.361 0.3063 2.98332 0
M  V30 3091 H 276.914 0.196902 1.55055 0
M  V30 3092 H 277.649 -2.19553 2.38677 0
M  V30 3093 H 277.434 -1.08241 3.76864 0
M  V30 3094 H 278.924 -2.06296 3.63087 0
M  V30 3095 N 279.361 -1.56624 0.175154 0
M  V30 3096 C 280.309 -2.19468 -0.770495 0
M  V30 3097 C 281.303 -1.15985 -1.23466 0
M  V30 3098 O 282.509 -1.34176 -1.19987 0
M  V30 3099 H 278.884 -0.703095 -0.266761 0
M  V30 3100 H 280.855 -2.97613 -0.216542 0
M  V30 3101 C 279.604 -2.85264 -1.98796 0
M  V30 3102 H 278.927 -3.64623 -1.63983 0
M  V30 3103 H 280.367 -3.327 -2.62843 0
M  V30 3104 C 278.826 -1.85239 -2.81404 0
M  V30 3105 O 279.356 -1.34024 -3.78682 0
M  V30 3106 N 277.562 -1.53911 -2.46495 0
M  V30 3107 H 277.109 -1.95751 -1.67449 0
M  V30 3108 H 277.067 -0.872382 -3.02054 0
M  V30 3109 N 280.839 0.0985539 -1.57292 0
M  V30 3110 C 281.787 1.1387 -2.02821 0
M  V30 3111 C 282.781 1.41676 -0.928666 0
M  V30 3112 O 283.987 1.41398 -1.11385 0
M  V30 3113 H 280.362 0.384419 -0.646317 0
M  V30 3114 H 282.333 0.728347 -2.89375 0
M  V30 3115 C 281.082 2.45166 -2.46554 0
M  V30 3116 H 280.405 2.24613 -3.3074 0
M  V30 3117 H 281.845 3.16456 -2.8219 0
M  V30 3118 C 280.304 3.09216 -1.33742 0
M  V30 3119 O 280.834 3.96163 -0.66464 0
M  V30 3120 N 279.04 2.69413 -1.08928 0
M  V30 3121 H 278.587 1.98801 -1.63817 0
M  V30 3122 H 278.545 3.12594 -0.336458 0
M  V30 3123 N 282.317 1.53212 0.369288 0
M  V30 3124 C 283.563 1.69466 1.11397 0
M  V30 3125 C 283.896 0.443257 1.89074 0
M  V30 3126 O 283.171 -0.559386 1.86282 0
M  V30 3127 C 283.454 2.9422 2.07621 0
M  V30 3128 C 283.307 4.29508 1.33577 0
M  V30 3129 C 284.626 3.14565 3.07794 0
M  V30 3130 H 281.745 0.616667 0.403597 0
M  V30 3131 H 284.387 1.85845 0.395179 0
M  V30 3132 H 282.537 2.80387 2.68916 0
M  V30 3133 H 284.209 4.55147 0.750955 0
M  V30 3134 H 282.452 4.29088 0.637618 0
M  V30 3135 H 283.123 5.12926 2.03989 0
M  V30 3136 H 285.599 3.2756 2.56601 0
M  V30 3137 H 284.475 4.03297 3.72348 0
M  V30 3138 H 284.736 2.29675 3.77759 0
M  V30 3139 N 283.795 -0.628877 1.44509 0
M  V30 3140 C 284.758 -1.72263 1.51188 0
M  V30 3141 C 285.758 -1.55907 0.39367 0
M  V30 3142 O 286.948 -1.61361 0.656377 0
M  V30 3143 C 284.08 -3.11365 1.38798 0
M  V30 3144 H 285.273 -1.67714 2.4862 0
M  V30 3145 H 282.826 -0.842737 1.31634 0
M  V30 3146 H 283.561 -3.21507 0.424693 0
M  V30 3147 H 283.346 -3.24644 2.19884 0
M  V30 3148 H 284.836 -3.91075 1.46458 0
M  V30 3149 N 285.273 -1.31445 -0.869486 0
M  V30 3150 C 286.503 -1.23942 -1.65294 0
M  V30 3151 C 286.911 0.197561 -1.88166 0
M  V30 3152 O 286.254 1.14019 -1.44033 0
M  V30 3153 C 286.316 -1.91385 -3.04322 0
M  V30 3154 C 285.98 -3.40726 -3.04557 0
M  V30 3155 C 286.977 -4.36464 -2.82481 0
M  V30 3156 C 284.662 -3.82425 -3.25663 0
M  V30 3157 C 286.656 -5.71876 -2.8149 0
M  V30 3158 C 284.343 -5.1795 -3.243 0
M  V30 3159 C 285.341 -6.12486 -3.02241 0
M  V30 3160 O 285.029 -7.45534 -3.00724 0
M  V30 3161 H 284.761 -0.429459 -0.522054 0
M  V30 3162 H 287.315 -1.73873 -1.0935 0
M  V30 3163 H 285.545 -1.36004 -3.61994 0
M  V30 3164 H 287.234 -1.77791 -3.64891 0
M  V30 3165 H 288 -4.05576 -2.65956 0
M  V30 3166 H 283.879 -3.09274 -3.41863 0
M  V30 3167 H 287.423 -6.45638 -2.64191 0
M  V30 3168 H 283.32 -5.48473 -3.40365 0
M  V30 3169 H 284.088 -7.54713 -3.16782 0
M  V30 3170 N 286.751 1.08385 -1.14413 0
M  V30 3171 C 287.979 1.84517 -0.936001 0
M  V30 3172 C 288.394 1.81626 0.515503 0
M  V30 3173 O 287.751 1.22008 1.35721 0
M  V30 3174 C 287.802 3.32049 -1.42918 0
M  V30 3175 O 287.523 3.34951 -2.82381 0
M  V30 3176 C 289.024 4.24986 -1.26103 0
M  V30 3177 H 286.244 0.582491 -0.333084 0
M  V30 3178 H 288.788 1.36885 -1.5193 0
M  V30 3179 H 286.943 3.7707 -0.888641 0
M  V30 3180 H 287.357 4.27048 -3.04517 0
M  V30 3181 H 288.831 5.26615 -1.6547 0
M  V30 3182 H 289.308 4.38726 -0.20392 0
M  V30 3183 H 289.914 3.85791 -1.79012 0
M  V30 3184 N 288.23 0.939286 1.26551 0
M  V30 3185 C 289.458 0.602536 1.97932 0
M  V30 3186 C 289.873 -0.82206 1.69964 0
M  V30 3187 O 289.23 -1.54789 0.966784 0
M  V30 3188 C 289.281 0.832946 3.51773 0
M  V30 3189 O 289.002 2.20151 3.78768 0
M  V30 3190 C 290.503 0.506483 4.40397 0
M  V30 3191 H 287.723 0.227248 0.631347 0
M  V30 3192 H 290.267 1.25948 1.61113 0
M  V30 3193 H 288.422 0.222644 3.8676 0
M  V30 3194 H 288.836 2.26013 4.73306 0
M  V30 3195 H 290.31 0.718333 5.47306 0
M  V30 3196 H 290.787 -0.558451 4.35635 0
M  V30 3197 H 291.393 1.09543 4.10951 0
M  V30 3198 N 289.708 -1.40897 0.706093 0
M  V30 3199 C 290.956 -2.00657 0.241054 0
M  V30 3200 C 291.277 -1.56241 -1.16678 0
M  V30 3201 O 290.547 -0.79765 -1.78926 0
M  V30 3202 H 289.127 -0.742018 0.0861308 0
M  V30 3203 H 291.789 -1.72372 0.909604 0
M  V30 3204 H 290.885 -3.10958 0.266705 0
M  V30 3205 N 291.186 -0.45159 -1.50991 0
M  V30 3206 C 292.133 0.352625 -2.2809 0
M  V30 3207 C 293.103 1.0044 -1.32291 0
M  V30 3208 O 294.288 1.02058 -1.6121 0
M  V30 3209 C 291.428 1.43983 -3.13629 0
M  V30 3210 C 290.541 0.804772 -4.24438 0
M  V30 3211 C 289.676 1.86822 -4.97263 0
M  V30 3212 C 288.715 1.21236 -5.99973 0
M  V30 3213 N 287.852 2.2178 -6.66152 0
M  V30 3214 H 292.692 -0.311186 -2.96371 0
M  V30 3215 H 290.229 -0.165308 -1.46168 0
M  V30 3216 H 292.187 2.08161 -3.61559 0
M  V30 3217 H 290.817 2.07307 -2.47434 0
M  V30 3218 H 289.869 0.0509129 -3.80366 0
M  V30 3219 H 291.181 0.286076 -4.97979 0
M  V30 3220 H 290.335 2.58628 -5.48813 0
M  V30 3221 H 289.074 2.42068 -4.23385 0
M  V30 3222 H 288.079 0.479828 -5.47702 0
M  V30 3223 H 289.304 0.667051 -6.75816 0
M  V30 3224 H 287.25 2.76079 -5.95077 0
M  V30 3225 H 287.167 1.74841 -7.35504 0
M  V30 3226 H 288.435 2.93026 -7.22327 0
M  V30 3227 N 292.664 1.56529 -0.183458 0
M  V30 3228 C 293.594 2.21549 0.737456 0
M  V30 3229 C 294.575 1.17489 1.23005 0
M  V30 3230 O 295.76 1.45959 1.281 0
M  V30 3231 C 292.89 2.86575 1.96194 0
M  V30 3232 C 291.844 3.96778 1.60473 0
M  V30 3233 C 291.17 4.48911 2.90487 0
M  V30 3234 C 292.47 5.15767 0.823497 0
M  V30 3235 H 294.164 2.98761 0.195453 0
M  V30 3236 H 291.71 1.43702 0.0925686 0
M  V30 3237 H 293.663 3.30739 2.61131 0
M  V30 3238 H 292.387 2.06749 2.52828 0
M  V30 3239 H 291.046 3.53286 0.978997 0
M  V30 3240 H 290.694 3.65862 3.45186 0
M  V30 3241 H 290.394 5.23265 2.67335 0
M  V30 3242 H 291.918 4.95771 3.56432 0
M  V30 3243 H 293.332 5.56549 1.37571 0
M  V30 3244 H 291.729 5.96114 0.690551 0
M  V30 3245 H 292.799 4.84574 -0.177782 0
M  V30 3246 N 294.142 -0.090211 1.57342 0
M  V30 3247 C 295.367 -0.810082 1.90925 0
M  V30 3248 C 295.792 -1.71248 0.778187 0
M  V30 3249 O 295.15 -1.79278 -0.269991 0
M  V30 3250 C 295.198 -1.59529 3.23393 0
M  V30 3251 O 294.302 -2.70461 3.11327 0
M  V30 3252 H 293.643 -0.222231 0.625707 0
M  V30 3253 H 296.173 -0.0639716 2.045 0
M  V30 3254 H 296.183 -1.97847 3.5682 0
M  V30 3255 H 294.858 -0.933055 4.05299 0
M  V30 3256 H 293.435 -2.35135 2.89423 0
M  V30 3257 N 295.62 -1.53406 -0.361157 0
M  V30 3258 C 296.867 -1.69802 -1.10333 0
M  V30 3259 C 297.195 -0.452087 -1.89173 0
M  V30 3260 O 296.45 0.566017 -1.87336 0
M  V30 3261 C 296.749 -2.90211 -2.08596 0
M  V30 3262 C 296.415 -4.26539 -1.46203 0
M  V30 3263 C 295.077 -4.6361 -1.28915 0
M  V30 3264 C 297.429 -5.113 -1.01101 0
M  V30 3265 C 294.757 -5.83075 -0.651157 0
M  V30 3266 C 297.109 -6.31415 -0.387007 0
M  V30 3267 C 295.773 -6.67195 -0.201657 0
M  V30 3268 H 295.043 -0.621351 -0.403737 0
M  V30 3269 H 297.69 -1.87598 -0.384609 0
M  V30 3270 H 295.995 -2.66946 -2.86788 0
M  V30 3271 H 297.692 -3.00091 -2.65982 0
M  V30 3272 H 294.282 -3.97352 -1.60653 0
M  V30 3273 H 298.466 -4.83206 -1.13249 0
M  V30 3274 H 293.722 -6.09385 -0.496006 0
M  V30 3275 H 297.896 -6.96394 -0.0293563 0
M  V30 3276 H 295.523 -7.59628 0.294766 0
M  V30 3277 N 297.098 0.621204 -1.44841 0
M  V30 3278 C 298.048 1.72663 -1.48901 0
M  V30 3279 C 299.032 1.56964 -0.353702 0
M  V30 3280 O 300.224 1.66532 -0.599669 0
M  V30 3281 C 297.353 3.11381 -1.44557 0
M  V30 3282 C 296.439 3.32514 -2.6324 0
M  V30 3283 N 296.83 3.23969 -3.8843 0
M  V30 3284 C 295.128 3.63343 -2.58647 0
M  V30 3285 C 295.829 3.46062 -4.67564 0
M  V30 3286 N 294.805 3.69407 -3.98797 0
M  V30 3287 H 298.607 1.64529 -2.43531 0
M  V30 3288 H 296.121 0.82401 -1.39942 0
M  V30 3289 H 298.118 3.90667 -1.4555 0
M  V30 3290 H 296.778 3.20674 -0.509731 0
M  V30 3291 H 297.789 3.02669 -4.20252 0
M  V30 3292 H 294.466 3.79556 -1.73906 0
M  V30 3293 H 295.856 3.44963 -5.76585 0
M  V30 3294 N 298.576 1.31904 0.862503 0
M  V30 3295 C 299.804 1.24998 1.64873 0
M  V30 3296 C 300.219 -0.183425 1.87907 0
M  V30 3297 O 299.576 -1.11794 1.44251 0
M  V30 3298 C 299.627 1.99829 3.01248 0
M  V30 3299 O 299.348 3.37575 2.79239 0
M  V30 3300 C 300.849 1.99852 3.95694 0
M  V30 3301 H 298.069 0.431599 0.513773 0
M  V30 3302 H 300.613 1.73901 1.07604 0
M  V30 3303 H 298.768 1.54668 3.55185 0
M  V30 3304 H 299.182 3.75776 3.65914 0
M  V30 3305 H 300.656 2.56709 4.88676 0
M  V30 3306 H 301.133 0.982852 4.28062 0
M  V30 3307 H 301.739 2.44926 3.47694 0
M  V30 3308 N 300.054 -1.07777 1.14986 0
M  V30 3309 C 301.331 -1.7699 0.832695 0
M  V30 3310 C 301.711 -2.001 -0.672561 0
M  V30 3311 O 301.059 -1.61598 -1.6155 0
M  V30 3312 C 301.269 -3.08139 1.63863 0
M  V30 3313 C 302.617 -3.8256 1.84208 0
M  V30 3314 O 303.641 -3.17939 1.60603 0
M  V30 3315 O 302.5 -4.98612 2.23714 0
M  V30 3316 H 299.594 -0.768389 0.305791 0
M  V30 3317 H 302.14 -1.14182 1.25541 0
M  V30 3318 H 300.912 -2.86909 2.6608 0
M  V30 3319 H 300.535 -3.78678 1.21197 0
M  V30 3320 N 301.532 -0.945985 -1.26051 0
M  V30 3321 C 302.762 -0.612136 -1.97323 0
M  V30 3322 C 303.17 0.818171 -1.70595 0
M  V30 3323 O 302.513 1.55777 -0.973613 0
M  V30 3324 C 302.575 -0.780347 -3.50929 0
M  V30 3325 C 302.239 -2.18619 -4.01317 0
M  V30 3326 C 303.236 -3.16209 -4.12683 0
M  V30 3327 C 300.921 -2.50805 -4.35203 0
M  V30 3328 C 302.915 -4.44085 -4.57238 0
M  V30 3329 C 300.602 -3.78912 -4.79446 0
M  V30 3330 C 301.6 -4.75365 -4.90425 0
M  V30 3331 O 301.288 -6.01191 -5.3369 0
M  V30 3332 H 301.02 -0.229134 -0.635982 0
M  V30 3333 H 303.574 -1.27036 -1.61404 0
M  V30 3334 H 301.804 -0.0649864 -3.86645 0
M  V30 3335 H 303.493 -0.448842 -4.03411 0
M  V30 3336 H 304.259 -2.92668 -3.86744 0
M  V30 3337 H 300.138 -1.76463 -4.2589 0
M  V30 3338 H 303.682 -5.19373 -4.65723 0
M  V30 3339 H 299.579 -4.02265 -5.0483 0
M  V30 3340 H 300.347 -6.04442 -5.51899 0
M  V30 3341 N 303.011 1.40521 -0.713556 0
M  V30 3342 C 304.422 1.83853 -0.324807 0
M  V30 3343 C 304.773 1.59667 1.14021 0
M  V30 3344 O 303.898 1.07649 1.87725 0
M  V30 3345 C 304.493 3.33751 -0.582746 0
M  V30 3346 C 303.052 3.75584 -0.247727 0
M  V30 3347 C 302.199 2.63753 -0.856121 0
M  V30 3348 H 305.15 1.29817 -0.91286 0
M  V30 3349 H 305.171 3.80194 0.152682 0
M  V30 3350 H 304.683 3.51322 -1.64908 0
M  V30 3351 H 302.784 3.63608 0.813624 0
M  V30 3352 H 302.897 4.7373 -0.715307 0
M  V30 3353 H 301.261 2.53108 -0.28432 0
M  V30 3354 H 302.044 2.84137 -1.92668 0
M  V30 3355 N 304.489 0.459591 1.5075 0
M  V30 3356 C 305.452 -0.329093 2.26825 0
M  V30 3357 C 306.452 -0.930481 1.31144 0
M  V30 3358 O 307.642 -0.801453 1.54669 0
M  V30 3359 C 304.774 -1.46768 3.07688 0
M  V30 3360 H 305.967 0.337924 2.9799 0
M  V30 3361 H 303.52 0.213336 1.54837 0
M  V30 3362 H 304.255 -2.17009 2.40993 0
M  V30 3363 H 304.04 -1.04238 3.77991 0
M  V30 3364 H 305.53 -2.02433 3.65254 0
M  V30 3365 N 305.967 -1.56429 0.191757 0
M  V30 3366 C 306.897 -2.21937 -0.725696 0
M  V30 3367 C 307.878 -1.1814 -1.2238 0
M  V30 3368 O 309.063 -1.46636 -1.27325 0
M  V30 3369 C 306.193 -2.87611 -1.94672 0
M  V30 3370 C 305.147 -3.97623 -1.58366 0
M  V30 3371 C 304.473 -4.50446 -2.88102 0
M  V30 3372 C 305.773 -5.16197 -0.796133 0
M  V30 3373 H 307.467 -2.98861 -0.179606 0
M  V30 3374 H 305.013 -1.43749 -0.0849464 0
M  V30 3375 H 306.966 -3.3212 -2.59373 0
M  V30 3376 H 305.69 -2.08087 -2.51728 0
M  V30 3377 H 304.349 -3.53801 -0.960247 0
M  V30 3378 H 303.997 -3.67688 -3.43241 0
M  V30 3379 H 303.697 -5.24675 -2.64556 0
M  V30 3380 H 305.221 -4.97654 -3.53798 0
M  V30 3381 H 306.635 -5.57271 -1.34618 0
M  V30 3382 H 305.032 -5.96471 -0.658928 0
M  V30 3383 H 306.102 -4.84473 0.203478 0
M  V30 3384 N 307.445 0.0818655 -1.57387 0
M  V30 3385 C 308.395 1.10501 -1.99433 0
M  V30 3386 C 309.379 1.35041 -0.874798 0
M  V30 3387 O 310.571 1.35511 -1.13868 0
M  V30 3388 C 307.7 2.42159 -2.43339 0
M  V30 3389 C 306.786 2.20937 -3.62005 0
M  V30 3390 N 307.177 1.69616 -4.76512 0
M  V30 3391 C 305.475 2.51451 -3.68359 0
M  V30 3392 C 306.176 1.62973 -5.58404 0
M  V30 3393 N 305.152 2.08664 -5.01956 0
M  V30 3394 H 308.954 0.701373 -2.85408 0
M  V30 3395 H 306.468 0.289096 -1.59806 0
M  V30 3396 H 308.465 3.16208 -2.71695 0
M  V30 3397 H 307.125 2.83249 -1.58746 0
M  V30 3398 H 308.136 1.38624 -4.99003 0
M  V30 3399 H 304.813 2.95975 -2.94457 0
M  V30 3400 H 306.203 1.24233 -6.60315 0
M  V30 3401 N 308.923 1.53595 0.353017 0
M  V30 3402 C 309.873 1.77299 1.43349 0
M  V30 3403 C 310.857 0.627884 1.48143 0
M  V30 3404 O 312.049 0.88697 1.53173 0
M  V30 3405 C 309.178 1.97757 2.80619 0
M  V30 3406 C 308.264 3.18305 2.80254 0
M  V30 3407 N 308.655 4.39967 2.49526 0
M  V30 3408 C 306.953 3.19283 3.11407 0
M  V30 3409 C 307.654 5.21772 2.57156 0
M  V30 3410 N 306.63 4.58269 2.92388 0
M  V30 3411 H 310.432 2.68963 1.18474 0
M  V30 3412 H 307.946 1.52391 0.561306 0
M  V30 3413 H 309.943 2.1287 3.58458 0
M  V30 3414 H 308.603 1.07329 3.06448 0
M  V30 3415 H 309.614 4.67482 2.22893 0
M  V30 3416 H 306.291 2.3879 3.4247 0
M  V30 3417 H 307.681 6.2885 2.36638 0
M  V30 3418 N 310.401 -0.613514 1.45168 0
M  V30 3419 C 311.812 -1.19539 1.43413 0
M  V30 3420 C 312.163 -1.95558 0.158632 0
M  V30 3421 O 311.288 -2.0335 -0.740119 0
M  V30 3422 C 311.883 -2.17445 2.59813 0
M  V30 3423 C 310.442 -2.71022 2.61197 0
M  V30 3424 C 309.589 -1.46323 2.35552 0
M  V30 3425 H 312.54 -0.403163 1.53494 0
M  V30 3426 H 312.561 -3.00373 2.33574 0
M  V30 3427 H 312.073 -1.62089 3.52631 0
M  V30 3428 H 310.174 -3.30332 1.7237 0
M  V30 3429 H 310.287 -3.15859 3.60236 0
M  V30 3430 H 308.651 -1.75072 1.84992 0
M  V30 3431 H 309.434 -0.92844 3.30507 0
M  V30 3432 N 311.879 -1.3236 -0.855495 0
M  V30 3433 C 313.29 -1.2056 -1.42556 0
M  V30 3434 C 313.641 0.182209 -1.95352 0
M  V30 3435 O 312.766 1.08088 -1.87472 0
M  V30 3436 C 313.361 -2.1826 -2.59129 0
M  V30 3437 C 311.92 -2.10351 -3.12137 0
M  V30 3438 C 311.067 -2.06674 -1.84882 0
M  V30 3439 H 314.018 -1.442 -0.662727 0
M  V30 3440 H 314.039 -1.78064 -3.36264 0
M  V30 3441 H 313.551 -3.19257 -2.20673 0
M  V30 3442 H 311.652 -1.12599 -3.55179 0
M  V30 3443 H 311.765 -3.00135 -3.73438 0
M  V30 3444 H 310.129 -1.51901 -2.04446 0
M  V30 3445 H 310.912 -3.09451 -1.48643 0
M  V30 3446 N 313.357 1.07166 -1.15556 0
M  V30 3447 C 314.605 1.79443 -0.929764 0
M  V30 3448 C 314.926 1.87246 0.544414 0
M  V30 3449 O 314.196 1.37473 1.39564 0
M  V30 3450 H 312.776 0.664625 -0.341003 0
M  V30 3451 H 315.438 1.29499 -1.45657 0
M  V30 3452 H 314.534 2.81832 -1.34079 0
M  V30 3453 N 314.835 0.952656 1.25548 0
M  V30 3454 C 316.081 0.607272 1.93494 0
M  V30 3455 C 316.414 -0.853245 1.74452 0
M  V30 3456 O 315.689 -1.61194 1.08843 0
M  V30 3457 C 315.972 0.96435 3.46947 0
M  V30 3458 C 315.825 2.48045 3.75225 0
M  V30 3459 C 317.144 0.487987 4.37386 0
M  V30 3460 H 314.263 0.222096 0.702739 0
M  V30 3461 H 316.905 1.18895 1.48203 0
M  V30 3462 H 315.055 0.469361 3.85654 0
M  V30 3463 H 316.727 3.04905 3.46166 0
M  V30 3464 H 314.97 2.919 3.209 0
M  V30 3465 H 315.641 2.6808 4.82532 0
M  V30 3466 H 318.117 0.912558 4.0597 0
M  V30 3467 H 316.993 0.766547 5.43521 0
M  V30 3468 H 317.254 -0.612063 4.37843 0
M  V30 3469 N 316.313 -1.40141 0.720998 0
M  V30 3470 C 317.245 -2.29177 0.0324669 0
M  V30 3471 C 318.258 -1.46105 -0.718126 0
M  V30 3472 O 319.447 -1.69335 -0.564608 0
M  V30 3473 C 316.547 -3.24473 -0.978292 0
M  V30 3474 C 315.72 -4.36423 -0.292115 0
M  V30 3475 C 314.779 -5.12122 -1.20901 0
M  V30 3476 O 313.805 -5.64981 -0.691766 0
M  V30 3477 N 315.007 -5.21992 -2.53978 0
M  V30 3478 H 317.772 -2.88909 0.796984 0
M  V30 3479 H 315.333 -1.51569 0.569068 0
M  V30 3480 H 317.325 -3.71987 -1.59398 0
M  V30 3481 H 315.895 -2.65871 -1.64413 0
M  V30 3482 H 315.115 -3.90967 0.503847 0
M  V30 3483 H 316.403 -5.08467 0.183971 0
M  V30 3484 H 315.801 -4.8054 -2.98493 0
M  V30 3485 H 314.358 -5.72995 -3.10677 0
M  V30 3486 N 317.792 -0.46758 -1.50504 0
M  V30 3487 C 318.722 0.318381 -2.31319 0
M  V30 3488 C 319.703 0.993564 -1.38066 0
M  V30 3489 O 320.888 0.991411 -1.66987 0
M  V30 3490 C 318.018 1.40275 -3.17711 0
M  V30 3491 C 316.972 0.849373 -4.19487 0
M  V30 3492 C 316.298 2.03177 -4.94594 0
M  V30 3493 C 317.598 -0.136942 -5.2212 0
M  V30 3494 H 319.292 -0.356106 -2.97275 0
M  V30 3495 H 316.838 -0.172703 -1.42961 0
M  V30 3496 H 318.791 1.96004 -3.73042 0
M  V30 3497 H 317.515 2.10596 -2.49634 0
M  V30 3498 H 316.174 0.314076 -3.65252 0
M  V30 3499 H 315.822 2.72187 -4.22993 0
M  V30 3500 H 315.522 1.66774 -5.63436 0
M  V30 3501 H 317.046 2.59403 -5.52759 0
M  V30 3502 H 318.46 0.331056 -5.72343 0
M  V30 3503 H 316.857 -0.41507 -5.98663 0
M  V30 3504 H 317.927 -1.06398 -4.73083 0
M  V30 3505 N 319.27 1.56325 -0.20005 0
M  V30 3506 C 320.2 2.22318 0.713916 0
M  V30 3507 C 321.181 1.18788 1.21752 0
M  V30 3508 O 322.366 1.47309 1.26545 0
M  V30 3509 C 319.496 2.88639 1.93144 0
M  V30 3510 C 318.45 3.98457 1.56255 0
M  V30 3511 C 317.776 4.51967 2.85709 0
M  V30 3512 C 319.076 5.16612 0.768747 0
M  V30 3513 H 320.77 2.98952 0.163755 0
M  V30 3514 H 318.316 1.43792 0.0773219 0
M  V30 3515 H 320.269 3.33491 2.57608 0
M  V30 3516 H 318.993 2.09419 2.50621 0
M  V30 3517 H 317.652 3.54305 0.941471 0
M  V30 3518 H 317.3 3.69503 3.41287 0
M  V30 3519 H 317 5.26071 2.6177 0
M  V30 3520 H 318.524 4.99523 3.51154 0
M  V30 3521 H 319.938 5.57977 1.3166 0
M  V30 3522 H 318.335 5.96812 0.627286 0
M  V30 3523 H 319.405 4.84358 -0.229168 0
M  V30 3524 N 320.748 -0.0735177 1.57428 0
M  V30 3525 C 321.698 -1.09442 2.00016 0
M  V30 3526 C 322.682 -1.34575 0.881947 0
M  V30 3527 O 323.874 -1.34905 1.14585 0
M  V30 3528 C 321.003 -2.40865 2.4462 0
M  V30 3529 C 320.089 -2.19014 3.63172 0
M  V30 3530 N 320.48 -1.67087 4.77405 0
M  V30 3531 C 318.778 -2.49494 3.69688 0
M  V30 3532 C 319.479 -1.6001 5.5926 0
M  V30 3533 N 318.455 -2.05999 5.03056 0
M  V30 3534 H 322.257 -0.686227 2.85776 0
M  V30 3535 H 319.771 -0.280617 1.59957 0
M  V30 3536 H 321.768 -3.14763 2.73368 0
M  V30 3537 H 320.428 -2.82403 1.60246 0
M  V30 3538 H 321.439 -1.35975 4.99731 0
M  V30 3539 H 318.116 -2.94409 2.96023 0
M  V30 3540 H 319.506 -1.2073 6.60964 0
M  V30 3541 N 322.226 -1.5378 -0.344866 0
M  V30 3542 C 323.466 -1.72677 -1.09371 0
M  V30 3543 C 323.83 -0.479084 -1.85927 0
M  V30 3544 O 325.031 -0.54505 -2.63216 0
M  V30 3545 C 323.302 -2.95457 -2.01097 0
M  V30 3546 S 324.861 -3.35158 -2.83222 0
M  V30 3547 H 321.679 -0.607402 -0.369573 0
M  V30 3548 H 324.281 -1.91922 -0.372307 0
M  V30 3549 H 322.985 -3.84437 -1.43655 0
M  V30 3550 H 322.516 -2.78673 -2.77678 0
M  V30 3551 H 324.531 -2.88789 -4.03504 0
M  V30 3552 N 323.704 0.605807 -1.45491 0
M  V30 3553 C 324.953 1.36086 -1.48874 0
M  V30 3554 C 325.266 1.95131 -0.135333 0
M  V30 3555 O 326.472 2.7146 -0.0468144 0
M  V30 3556 C 324.928 2.46518 -2.62215 0
M  V30 3557 C 324.536 1.93877 -4.03876 0
M  V30 3558 C 326.28 3.23512 -2.74846 0
M  V30 3559 C 324.187 3.01801 -5.08596 0
M  V30 3560 H 323.117 0.511497 -0.553974 0
M  V30 3561 H 325.768 0.649089 -1.71636 0
M  V30 3562 H 324.15 3.20388 -2.32739 0
M  V30 3563 H 325.324 1.26704 -4.43038 0
M  V30 3564 H 323.639 1.29622 -3.95711 0
M  V30 3565 H 326.236 4.04013 -3.50253 0
M  V30 3566 H 326.579 3.74631 -1.81542 0
M  V30 3567 H 327.112 2.56742 -3.03856 0
M  V30 3568 H 323.851 2.55597 -6.03614 0
M  V30 3569 H 323.371 3.67535 -4.74002 0
M  V30 3570 H 325.05 3.66152 -5.33424 0
M  V30 3571 N 325.182 1.32811 0.848464 0
M  V30 3572 C 326.129 1.22265 1.95755 0
M  V30 3573 C 327.099 0.103413 1.65778 0
M  V30 3574 O 328.284 0.280033 1.88734 0
M  V30 3575 C 325.424 0.958014 3.31536 0
M  V30 3576 C 324.537 2.16262 3.73971 0
M  V30 3577 C 323.672 1.83295 4.98575 0
M  V30 3578 C 322.711 3.00041 5.33518 0
M  V30 3579 N 321.848 2.67125 6.49299 0
M  V30 3580 H 326.688 2.17128 2.04107 0
M  V30 3581 H 324.225 1.07982 0.998913 0
M  V30 3582 H 326.183 0.785052 4.09747 0
M  V30 3583 H 324.813 0.046159 3.22767 0
M  V30 3584 H 323.865 2.44565 2.91362 0
M  V30 3585 H 325.177 3.03572 3.95785 0
M  V30 3586 H 324.331 1.62586 5.84509 0
M  V30 3587 H 323.07 0.932078 4.7871 0
M  V30 3588 H 322.075 3.21374 4.46093 0
M  V30 3589 H 323.3 3.90869 5.55336 0
M  V30 3590 H 321.246 1.79586 6.3094 0
M  V30 3591 H 321.163 3.47965 6.71161 0
M  V30 3592 H 322.431 2.49861 7.3837 0
M  V30 3593 N 326.66 -1.06551 1.16123 0
M  V30 3594 C 327.592 -2.13908 0.823171 0
M  V30 3595 C 328.605 -1.61926 -0.16843 0
M  V30 3596 O 329.794 -1.78412 0.055962 0
M  V30 3597 C 326.894 -3.38283 0.204424 0
M  V30 3598 C 326.067 -4.19589 1.23548 0
M  V30 3599 C 325.126 -5.2233 0.637011 0
M  V30 3600 O 324.152 -5.54034 1.30516 0
M  V30 3601 N 325.354 -5.77621 -0.577474 0
M  V30 3602 H 328.119 -2.43508 1.74711 0
M  V30 3603 H 325.68 -1.2253 1.05821 0
M  V30 3604 H 327.672 -4.0416 -0.208909 0
M  V30 3605 H 326.242 -3.06329 -0.623012 0
M  V30 3606 H 325.462 -3.49406 1.82507 0
M  V30 3607 H 326.75 -4.70718 1.93137 0
M  V30 3608 H 326.148 -5.54125 -1.13853 0
M  V30 3609 H 324.705 -6.45087 -0.933053 0
M  V30 3610 N 328.138 -0.959301 -1.25041 0
M  V30 3611 C 329.366 -0.633949 -1.96948 0
M  V30 3612 C 329.781 0.794916 -1.7125 0
M  V30 3613 O 329.138 1.53231 -0.991287 0
M  V30 3614 C 329.189 -0.888805 -3.50403 0
M  V30 3615 O 328.91 -2.26149 -3.75218 0
M  V30 3616 C 330.411 -0.576482 -4.39536 0
M  V30 3617 H 327.631 -0.237263 -0.627652 0
M  V30 3618 H 330.175 -1.28495 -1.59089 0
M  V30 3619 H 328.33 -0.284145 -3.86357 0
M  V30 3620 H 328.744 -2.33514 -4.6965 0
M  V30 3621 H 330.218 -0.805314 -5.46094 0
M  V30 3622 H 330.695 0.489075 -4.36468 0
M  V30 3623 H 331.301 -1.16067 -4.09156 0
M  V30 3624 N 329.616 1.39756 -0.72842 0
M  V30 3625 C 330.862 2.00942 -0.273892 0
M  V30 3626 C 331.195 1.57656 1.13394 0
M  V30 3627 O 330.47 0.802434 1.77176 0
M  V30 3628 C 330.753 3.58211 -0.368346 0
M  V30 3629 C 330.606 4.11534 -1.81548 0
M  V30 3630 C 331.925 4.39372 0.253054 0
M  V30 3631 H 329.044 0.730047 -0.100996 0
M  V30 3632 H 331.686 1.66056 -0.923337 0
M  V30 3633 H 329.836 3.88061 0.184588 0
M  V30 3634 H 331.508 3.92431 -2.42478 0
M  V30 3635 H 329.751 3.65341 -2.33898 0
M  V30 3636 H 330.422 5.20682 -1.83288 0
M  V30 3637 H 332.898 4.15527 -0.218224 0
M  V30 3638 H 331.774 5.48677 0.156585 0
M  V30 3639 H 332.035 4.21358 1.33826 0
M  V30 3640 N 331.094 0.475555 1.50254 0
M  V30 3641 C 332.322 -0.0754493 2.06762 0
M  V30 3642 C 332.737 -1.33111 1.33891 0
M  V30 3643 O 332.094 -1.77846 0.40952 0
M  V30 3644 C 332.145 -0.359008 3.59713 0
M  V30 3645 O 331.866 0.846851 4.29837 0
M  V30 3646 C 333.367 -0.956484 4.32858 0
M  V30 3647 H 330.587 0.00907525 0.670939 0
M  V30 3648 H 333.131 0.665618 1.93364 0
M  V30 3649 H 331.286 -1.05001 3.72899 0
M  V30 3650 H 331.7 0.594162 5.21124 0
M  V30 3651 H 333.174 -1.10463 5.40834 0
M  V30 3652 H 333.651 -1.94775 3.93649 0
M  V30 3653 H 334.257 -0.303723 4.24214 0
M  V30 3654 N 332.573 -1.56217 0.208337 0
M  V30 3655 C 333.821 -1.97558 -0.426076 0
M  V30 3656 C 334.142 -1.09683 -1.61229 0
M  V30 3657 O 333.412 -0.170956 -1.95153 0
M  V30 3658 H 331.992 -0.729575 -0.160405 0
M  V30 3659 H 334.654 -1.92606 0.298155 0
M  V30 3660 H 333.75 -3.02672 -0.761312 0
M  V30 3661 N 334.051 0.0651679 -1.57465 0
M  V30 3662 C 335.299 0.761555 -1.87202 0
M  V30 3663 C 335.62 1.77778 -0.801243 0
M  V30 3664 O 334.89 1.95166 0.16937 0
M  V30 3665 H 333.47 0.284251 -0.690804 0
M  V30 3666 H 336.132 0.0396827 -1.9486 0
M  V30 3667 H 335.228 1.27365 -2.84929 0
M  V30 3668 N 335.529 1.53961 0.336706 0
M  V30 3669 C 336.806 1.62171 1.09361 0
M  V30 3670 C 337.186 0.447263 2.06307 0
M  V30 3671 O 336.534 -0.559802 2.21537 0
M  V30 3672 C 336.744 2.98565 1.80721 0
M  V30 3673 C 338.092 3.54157 2.34218 0
M  V30 3674 O 339.116 3.00784 1.90807 0
M  V30 3675 O 337.975 4.47528 3.13657 0
M  V30 3676 H 335.069 0.6562 0.503319 0
M  V30 3677 H 337.615 1.66307 0.33765 0
M  V30 3678 H 336.387 3.75482 1.10132 0
M  V30 3679 H 336.01 2.9805 2.63158 0
M  V30 3680 N 337.007 -0.598083 1.45811 0
M  V30 3681 C 338.232 -1.3881 1.54099 0
M  V30 3682 C 338.657 -1.8726 0.177578 0
M  V30 3683 O 338.015 -1.6069 -0.839541 0
M  V30 3684 C 338.063 -2.56217 2.53743 0
M  V30 3685 O 337.167 -3.5716 2.06182 0
M  V30 3686 H 336.508 -0.414024 0.519115 0
M  V30 3687 H 339.038 -0.726971 1.91249 0
M  V30 3688 H 339.048 -3.03337 2.72856 0
M  V30 3689 H 337.723 -2.20303 3.5276 0
M  V30 3690 H 336.3 -3.16624 1.96987 0
M  V30 3691 N 338.485 -1.33259 -0.841409 0
M  V30 3692 C 339.395 -1.25332 -1.98316 0
M  V30 3693 C 340.411 -0.164364 -1.73222 0
M  V30 3694 O 341.587 -0.387486 -1.97637 0
M  V30 3695 C 338.652 -0.990078 -3.32262 0
M  V30 3696 C 337.713 -2.16879 -3.70489 0
M  V30 3697 C 336.946 -1.91801 -4.98044 0
M  V30 3698 O 337.169 -0.867075 -5.63771 0
M  V30 3699 O 336.103 -2.78267 -5.33714 0
M  V30 3700 H 339.929 -2.21344 -2.07944 0
M  V30 3701 H 337.514 -1.1328 -0.974058 0
M  V30 3702 H 339.396 -0.860321 -4.12524 0
M  V30 3703 H 338.071 -0.0602155 -3.23644 0
M  V30 3704 H 336.978 -2.35407 -2.90748 0
M  V30 3705 H 338.311 -3.0819 -3.8377 0
M  V30 3706 N 339.963 1.05934 -1.16686 0
M  V30 3707 C 341.212 1.78188 -0.945085 0
M  V30 3708 C 341.525 1.88338 0.528021 0
M  V30 3709 O 342.731 2.57258 0.867799 0
M  V30 3710 C 341.187 3.20277 -1.64167 0
M  V30 3711 C 340.795 3.18281 -3.15279 0
M  V30 3712 C 342.539 3.97039 -1.502 0
M  V30 3713 C 340.446 4.55112 -3.7766 0
M  V30 3714 H 339.376 0.667866 -0.349959 0
M  V30 3715 H 342.027 1.18794 -1.39858 0
M  V30 3716 H 340.409 3.79952 -1.11589 0
M  V30 3717 H 341.583 2.68167 -3.74731 0
M  V30 3718 H 339.898 2.55018 -3.29173 0
M  V30 3719 H 342.495 4.98194 -1.94183 0
M  V30 3720 H 342.838 4.13845 -0.451461 0
M  V30 3721 H 343.371 3.43894 -1.99954 0
M  V30 3722 H 340.11 4.43512 -4.82677 0
M  V30 3723 H 339.63 5.05406 -3.22994 0
M  V30 3724 H 341.309 5.24064 -3.79428 0
M  V30 3725 N 341.441 0.965919 1.2453 0
M  V30 3726 C 342.687 0.62776 1.92839 0
M  V30 3727 C 343.02 -0.834694 1.75347 0
M  V30 3728 O 342.295 -1.60031 1.10546 0
M  V30 3729 C 342.578 1.00109 3.45905 0
M  V30 3730 C 342.431 2.52011 3.72573 0
M  V30 3731 C 343.75 0.53435 4.36844 0
M  V30 3732 H 340.869 0.229537 0.700344 0
M  V30 3733 H 343.511 1.2046 1.46933 0
M  V30 3734 H 341.661 0.510238 3.85135 0
M  V30 3735 H 343.333 3.08559 3.42912 0
M  V30 3736 H 341.576 2.95287 3.17786 0
M  V30 3737 H 342.247 2.73183 4.79661 0
M  V30 3738 H 344.723 0.955565 4.04979 0
M  V30 3739 H 343.599 0.824152 5.42678 0
M  V30 3740 H 343.86 -0.565589 4.38467 0
M  V30 3741 N 342.919 -1.39368 0.735821 0
M  V30 3742 C 344.196 -1.94465 0.210395 0
M  V30 3743 C 344.576 -1.67254 -1.28799 0
M  V30 3744 O 343.924 -1.00123 -2.05396 0
M  V30 3745 C 344.134 -3.4472 0.544897 0
M  V30 3746 C 345.482 -4.21708 0.494689 0
M  V30 3747 O 346.506 -3.52922 0.482136 0
M  V30 3748 O 345.365 -5.44299 0.489947 0
M  V30 3749 H 342.459 -0.826096 0.0386666 0
M  V30 3750 H 345.005 -1.48863 0.814735 0
M  V30 3751 H 343.777 -3.57963 1.58045 0
M  V30 3752 H 343.4 -3.97502 -0.08837 0
M  V30 3753 N 344.397 -0.483516 -1.5 0
M  V30 3754 C 345.645 0.067027 -2.01989 0
M  V30 3755 C 345.966 1.3909 -1.36671 0
M  V30 3756 O 345.236 1.88978 -0.516152 0
M  V30 3757 H 343.816 0.0277606 -0.746484 0
M  V30 3758 H 346.478 -0.636773 -1.84204 0
M  V30 3759 H 345.574 0.209484 -3.11396 0
M  V30 3760 N 345.875 1.56104 -0.216619 0
M  V30 3761 C 347.122 1.98172 0.416416 0
M  V30 3762 C 347.45 1.10413 1.60122 0
M  V30 3763 O 346.705 0.147967 1.9514 0
M  V30 3764 C 347.004 3.45923 0.898464 0
M  V30 3765 C 346.67 4.50559 -0.175288 0
M  V30 3766 C 345.332 4.78897 -0.470271 0
M  V30 3767 C 347.684 5.1334 -0.901728 0
M  V30 3768 C 345.012 5.67299 -1.4963 0
M  V30 3769 C 347.364 6.02853 -1.91705 0
M  V30 3770 C 346.028 6.29537 -2.21901 0
M  V30 3771 H 345.298 0.725164 0.152377 0
M  V30 3772 H 347.945 1.88839 -0.318103 0
M  V30 3773 H 346.25 3.52434 1.71165 0
M  V30 3774 H 347.947 3.75841 1.39803 0
M  V30 3775 H 344.537 4.28551 0.0647806 0
M  V30 3776 H 348.721 4.91521 -0.687072 0
M  V30 3777 H 343.977 5.86239 -1.73592 0
M  V30 3778 H 348.151 6.50552 -2.48505 0
M  V30 3779 H 345.778 6.97835 -3.01548 0
M  V30 3780 N 347.353 -0.0568162 1.57498 0
M  V30 3781 C 348.301 -1.08452 2.05769 0
M  V30 3782 C 349.295 -1.39164 0.965903 0
M  V30 3783 O 350.501 -1.38395 1.15095 0
M  V30 3784 H 346.876 -0.367148 0.656282 0
M  V30 3785 H 348.847 -0.651368 2.91204 0
M  V30 3786 C 347.596 -2.38543 2.52968 0
M  V30 3787 H 346.919 -2.15765 3.36579 0
M  V30 3788 H 348.359 -3.08863 2.90481 0
M  V30 3789 C 346.818 -3.05562 1.41893 0
M  V30 3790 O 347.348 -3.94262 0.769442 0
M  V30 3791 N 345.554 -2.6643 1.16032 0
M  V30 3792 H 345.101 -1.94387 1.6903 0
M  V30 3793 H 345.059 -3.11593 0.419219 0
M  V30 3794 N 348.832 -1.54138 -0.328536 0
M  V30 3795 C 350.078 -1.7236 -1.06865 0
M  V30 3796 C 350.411 -0.493231 -1.87832 0
M  V30 3797 O 349.686 0.5098 -1.877 0
M  V30 3798 C 349.969 -2.99621 -1.99747 0
M  V30 3799 C 349.822 -4.32899 -1.22143 0
M  V30 3800 C 351.141 -3.22615 -2.99345 0
M  V30 3801 H 348.26 -0.627151 -0.387105 0
M  V30 3802 H 350.902 -1.86827 -0.345767 0
M  V30 3803 H 349.052 -2.87418 -2.61387 0
M  V30 3804 H 350.724 -4.56978 -0.630017 0
M  V30 3805 H 348.967 -4.30628 -0.523628 0
M  V30 3806 H 349.638 -5.18154 -1.90318 0
M  V30 3807 H 352.114 -3.34248 -2.47826 0
M  V30 3808 H 350.99 -4.13027 -3.61524 0
M  V30 3809 H 351.251 -2.3961 -3.71536 0
M  V30 3810 N 350.31 0.590341 -1.46126 0
M  V30 3811 C 351.55 1.35995 -1.52593 0
M  V30 3812 C 351.914 1.91243 -0.170368 0
M  V30 3813 O 353.115 2.68576 -0.109775 0
M  V30 3814 C 351.386 2.46465 -2.58823 0
M  V30 3815 S 352.945 3.33953 -2.84641 0
M  V30 3816 H 349.763 0.463425 -0.53922 0
M  V30 3817 H 352.365 0.67944 -1.83314 0
M  V30 3818 H 351.069 2.04256 -3.5596 0
M  V30 3819 H 350.6 3.19297 -2.2981 0
M  V30 3820 H 352.615 4.45094 -2.19331 0
M  V30 3821 N 351.788 1.33704 0.83433 0
M  V30 3822 C 352.72 1.20172 1.9517 0
M  V30 3823 C 353.733 0.131572 1.62267 0
M  V30 3824 O 354.922 0.382406 1.74356 0
M  V30 3825 C 352.022 0.821716 3.28787 0
M  V30 3826 C 351.195 1.98446 3.89792 0
M  V30 3827 C 350.254 1.58469 5.01771 0
M  V30 3828 O 349.28 2.29968 5.20676 0
M  V30 3829 N 350.482 0.492291 5.78409 0
M  V30 3830 H 353.247 2.16429 2.07313 0
M  V30 3831 H 350.808 1.26509 1.0103 0
M  V30 3832 H 352.8 0.536291 4.01131 0
M  V30 3833 H 351.37 -0.0503058 3.1256 0
M  V30 3834 H 350.59 2.43526 3.09982 0
M  V30 3835 H 351.878 2.76236 4.27283 0
M  V30 3836 H 351.276 -0.102349 5.65607 0
M  V30 3837 H 349.833 0.266555 6.51255 0
M  V30 3838 N 353.266 -1.05314 1.17247 0
M  V30 3839 C 354.213 -2.13031 0.888058 0
M  V30 3840 C 355.183 -1.65253 -0.167537 0
M  V30 3841 O 356.368 -1.90775 -0.0305974 0
M  V30 3842 C 353.508 -3.42702 0.406147 0
M  V30 3843 C 352.621 -4.04161 1.52572 0
M  V30 3844 C 351.756 -5.21744 0.997808 0
M  V30 3845 C 350.795 -5.75207 2.09291 0
M  V30 3846 N 349.932 -6.84094 1.57986 0
M  V30 3847 H 354.772 -2.36698 1.81048 0
M  V30 3848 H 352.309 -1.16121 0.903013 0
M  V30 3849 H 354.267 -4.17059 0.108305 0
M  V30 3850 H 352.897 -3.19222 -0.479313 0
M  V30 3851 H 351.949 -3.27253 1.93931 0
M  V30 3852 H 353.261 -4.39881 2.35172 0
M  V30 3853 H 352.415 -6.03168 0.653739 0
M  V30 3854 H 351.154 -4.87495 0.141232 0
M  V30 3855 H 350.159 -4.92414 2.44557 0
M  V30 3856 H 351.384 -6.11505 2.95362 0
M  V30 3857 H 349.33 -6.51745 0.74598 0
M  V30 3858 H 349.247 -7.18811 2.34195 0
M  V30 3859 H 350.515 -7.69172 1.26468 0
M  V30 3860 N 354.744 -0.972509 -1.24016 0
M  V30 3861 C 355.674 -0.525548 -2.27509 0
M  V30 3862 C 356.655 0.437262 -1.64384 0
M  V30 3863 O 357.84 0.332343 -1.91335 0
M  V30 3864 C 354.97 0.180448 -3.46831 0
M  V30 3865 C 353.924 -0.698859 -4.22256 0
M  V30 3866 C 353.25 0.138903 -5.3452 0
M  V30 3867 C 354.55 -1.98582 -4.83076 0
M  V30 3868 H 356.244 -1.39058 -2.65148 0
M  V30 3869 H 353.79 -0.67009 -1.27459 0
M  V30 3870 H 355.743 0.504387 -4.18371 0
M  V30 3871 H 354.467 1.07987 -3.08231 0
M  V30 3872 H 353.126 -1.00614 -3.52523 0
M  V30 3873 H 352.774 1.03862 -4.9216 0
M  V30 3874 H 352.474 -0.446259 -5.85903 0
M  V30 3875 H 353.998 0.457404 -6.08884 0
M  V30 3876 H 355.412 -1.72715 -5.46665 0
M  V30 3877 H 353.809 -2.5181 -5.44713 0
M  V30 3878 H 354.879 -2.67769 -4.04262 0
M  V30 3879 N 356.222 1.38976 -0.743202 0
M  V30 3880 C 357.169 2.30544 -0.10861 0
M  V30 3881 C 358.139 1.49642 0.720869 0
M  V30 3882 O 359.324 1.78304 0.679142 0
M  V30 3883 C 356.464 3.36018 0.786496 0
M  V30 3884 C 355.577 4.31963 -0.0564849 0
M  V30 3885 C 354.712 5.24506 0.840657 0
M  V30 3886 C 353.751 6.121 -0.00658363 0
M  V30 3887 N 352.888 6.96973 0.846943 0
M  V30 3888 H 357.728 2.8424 -0.895088 0
M  V30 3889 H 355.265 1.3995 -0.453048 0
M  V30 3890 H 357.223 3.95768 1.31999 0
M  V30 3891 H 355.853 2.83758 1.53887 0
M  V30 3892 H 354.905 3.73763 -0.707492 0
M  V30 3893 H 356.217 4.93703 -0.711229 0
M  V30 3894 H 355.371 5.89322 1.4417 0
M  V30 3895 H 354.11 4.63107 1.52916 0
M  V30 3896 H 353.115 5.46289 -0.620366 0
M  V30 3897 H 354.34 6.75565 -0.691992 0
M  V30 3898 H 352.286 6.38133 1.52059 0
M  V30 3899 H 352.203 7.5559 0.248864 0
M  V30 3900 H 353.471 7.6621 1.43328 0
M  V30 3901 N 357.7 0.491464 1.49741 0
M  V30 3902 C 358.647 -0.292027 2.28945 0
M  V30 3903 C 359.617 -0.968973 1.34908 0
M  V30 3904 O 360.802 -0.97748 1.6386 0
M  V30 3905 C 357.942 -1.35617 3.17336 0
M  V30 3906 C 357.055 -0.691957 4.26422 0
M  V30 3907 C 356.19 -1.73572 5.02042 0
M  V30 3908 C 355.229 -1.05286 6.02977 0
M  V30 3909 N 354.366 -2.0404 6.71798 0
M  V30 3910 H 359.206 0.389654 2.95442 0
M  V30 3911 H 356.743 0.204003 1.45679 0
M  V30 3912 H 358.701 -1.98502 3.66951 0
M  V30 3913 H 357.331 -2.00674 2.52844 0
M  V30 3914 H 356.383 0.0499523 3.80367 0
M  V30 3915 H 357.695 -0.153946 4.98562 0
M  V30 3916 H 356.849 -2.43987 5.55478 0
M  V30 3917 H 355.588 -2.30757 4.29654 0
M  V30 3918 H 354.593 -0.334446 5.48782 0
M  V30 3919 H 355.818 -0.487636 6.77347 0
M  V30 3920 H 353.764 -2.60205 6.02187 0
M  V30 3921 H 353.681 -1.55279 7.39881 0
M  V30 3922 H 354.949 -2.73772 7.29842 0
M  V30 3923 N 359.178 -1.55987 0.224894 0
M  V30 3924 C 360.126 -2.21808 -0.700283 0
M  V30 3925 C 361.12 -1.19854 -1.19714 0
M  V30 3926 O 362.326 -1.37925 -1.15658 0
M  V30 3927 H 358.701 -0.711226 -0.244258 0
M  V30 3928 H 360.672 -2.98152 -0.121749 0
M  V30 3929 C 359.421 -2.91444 -1.8962 0
M  V30 3930 H 358.744 -3.69655 -1.52299 0
M  V30 3931 H 360.184 -3.40894 -2.52125 0
M  V30 3932 C 358.643 -1.94098 -2.75368 0
M  V30 3933 O 359.173 -1.46004 -3.74227 0
M  V30 3934 N 357.379 -1.61675 -2.41474 0
M  V30 3935 H 356.926 -2.00979 -1.61137 0
M  V30 3936 H 356.884 -0.968036 -2.99126 0
M  V30 3937 N 360.656 0.0484629 -1.57525 0
M  V30 3938 C 361.604 1.07359 -2.06341 0
M  V30 3939 C 362.598 1.3865 -0.973269 0
M  V30 3940 O 363.804 1.37783 -1.15827 0
M  V30 3941 H 360.179 0.363662 -0.65822 0
M  V30 3942 H 362.15 0.635916 -2.91545 0
M  V30 3943 C 360.899 2.37198 -2.54229 0
M  V30 3944 H 360.222 2.13977 -3.37719 0
M  V30 3945 H 361.662 3.07319 -2.92115 0
M  V30 3946 C 360.121 3.04805 -1.43511 0
M  V30 3947 O 360.651 3.93848 -0.79034 0
M  V30 3948 N 358.857 2.65811 -1.17444 0
M  V30 3949 H 358.404 1.93488 -1.70059 0
M  V30 3950 H 358.362 3.11366 -0.435737 0
M  V30 3951 N 362.134 1.5431 0.320358 0
M  V30 3952 C 363.545 1.63872 0.894594 0
M  V30 3953 C 363.896 0.534847 1.88769 0
M  V30 3954 O 363.021 -0.331732 2.13842 0
M  V30 3955 C 363.616 2.97049 1.62934 0
M  V30 3956 C 362.175 3.08796 2.15226 0
M  V30 3957 C 361.322 2.59456 0.978671 0
M  V30 3958 H 364.273 1.58398 0.0978544 0
M  V30 3959 H 364.294 2.87388 2.49376 0
M  V30 3960 H 363.806 3.7737 0.906302 0
M  V30 3961 H 361.907 2.33156 2.90636 0
M  V30 3962 H 362.02 4.14649 2.40006 0
M  V30 3963 H 360.384 2.1543 1.35875 0
M  V30 3964 H 361.167 3.42237 0.269895 0
M  V30 3965 N 363.613 -0.582584 1.46437 0
M  V30 3966 C 364.545 -1.70618 1.53043 0
M  V30 3967 C 365.558 -1.57322 0.418769 0
M  V30 3968 O 366.747 -1.64744 0.687136 0
M  V30 3969 C 363.847 -3.08869 1.39474 0
M  V30 3970 C 363.02 -3.48166 2.64762 0
M  V30 3971 C 362.079 -4.65478 2.4539 0
M  V30 3972 O 361.105 -4.71333 3.19114 0
M  V30 3973 N 362.307 -5.60365 1.51564 0
M  V30 3974 H 365.072 -1.65405 2.49923 0
M  V30 3975 H 362.633 -0.768567 1.42494 0
M  V30 3976 H 364.625 -3.85143 1.24287 0
M  V30 3977 H 363.195 -3.08449 0.507758 0
M  V30 3978 H 362.415 -2.61598 2.9489 0
M  V30 3979 H 363.703 -3.71188 3.4799 0
M  V30 3980 H 363.101 -5.5837 0.907705 0
M  V30 3981 H 361.658 -6.36068 1.4234 0
M  V30 3982 N 365.091 -1.34144 -0.827227 0
M  V30 3983 C 366.054 -1.25264 -1.91942 0
M  V30 3984 C 367.054 -0.168866 -1.59911 0
M  V30 3985 O 368.244 -0.421198 -1.69031 0
M  V30 3986 C 365.376 -0.932952 -3.27885 0
M  V30 3987 H 366.569 -2.22357 -2.0124 0
M  V30 3988 H 364.122 -1.1837 -1.0207 0
M  V30 3989 H 364.857 0.0349917 -3.24281 0
M  V30 3990 H 364.642 -1.71682 -3.52516 0
M  V30 3991 H 366.132 -0.895874 -4.07877 0
M  V30 3992 N 366.569 1.04691 -1.17803 0
M  V30 3993 C 367.816 1.77782 -0.969532 0
M  V30 3994 C 368.144 1.87926 0.501401 0
M  V30 3995 O 367.399 1.37918 1.38842 0
M  V30 3996 C 367.698 3.21467 -1.56186 0
M  V30 3997 C 367.364 3.3137 -3.05786 0
M  V30 3998 C 366.026 3.3378 -3.46619 0
M  V30 3999 C 368.378 3.31976 -4.01797 0
M  V30 4000 C 365.706 3.34431 -4.82051 0
M  V30 4001 C 368.058 3.34167 -5.37136 0
M  V30 4002 C 366.722 3.34866 -5.77426 0
M  V30 4003 H 365.992 0.650549 -0.354777 0
M  V30 4004 H 368.639 1.23006 -1.46772 0
M  V30 4005 H 366.944 3.79203 -0.985515 0
M  V30 4006 H 368.641 3.76652 -1.37602 0
M  V30 4007 H 365.231 3.3021 -2.73238 0
M  V30 4008 H 369.415 3.29311 -3.71306 0
M  V30 4009 H 364.671 3.33285 -5.12573 0
M  V30 4010 H 368.845 3.33585 -6.11305 0
M  V30 4011 H 366.472 3.35124 -6.82346 0
M  V30 4012 N 368.047 0.979072 1.23499 0
M  V30 4013 C 368.979 0.476271 2.24197 0
M  V30 4014 C 369.992 -0.421166 1.57258 0
M  V30 4015 O 371.181 -0.225515 1.7707 0
M  V30 4016 C 368.281 -0.330503 3.37285 0
M  V30 4017 C 367.454 0.559744 4.33804 0
M  V30 4018 C 366.513 -0.192954 5.25846 0
M  V30 4019 O 365.539 0.416978 5.67671 0
M  V30 4020 N 366.741 -1.47932 5.61334 0
M  V30 4021 H 369.506 1.34211 2.67969 0
M  V30 4022 H 367.067 0.852189 1.37657 0
M  V30 4023 H 369.059 -0.842361 3.95836 0
M  V30 4024 H 367.629 -1.09734 2.92707 0
M  V30 4025 H 366.849 1.25245 3.73775 0
M  V30 4026 H 368.137 1.1665 4.95248 0
M  V30 4027 H 367.535 -1.9964 5.29302 0
M  V30 4028 H 366.092 -1.93664 6.22364 0
M  V30 4029 N 369.525 -1.3858 0.750561 0
M  V30 4030 C 370.774 -1.99424 0.302172 0
M  V30 4031 C 371.087 -1.60254 -1.12152 0
M  V30 4032 O 372.293 -2.14046 -1.67023 0
M  V30 4033 C 370.749 -3.56558 0.489307 0
M  V30 4034 C 370.357 -4.04682 1.92189 0
M  V30 4035 C 372.101 -4.24374 0.103478 0
M  V30 4036 C 370.008 -5.54446 2.05775 0
M  V30 4037 H 368.938 -0.746046 0.10923 0
M  V30 4038 H 371.589 -1.58383 0.92667 0
M  V30 4039 H 369.971 -3.95472 -0.204329 0
M  V30 4040 H 371.145 -3.77065 2.64875 0
M  V30 4041 H 369.46 -3.4958 2.26236 0
M  V30 4042 H 372.057 -5.34384 0.183787 0
M  V30 4043 H 372.4 -4.05468 -0.943481 0
M  V30 4044 H 372.933 -3.90688 0.748854 0
M  V30 4045 H 369.672 -5.78252 3.08714 0
M  V30 4046 H 369.192 -5.83816 1.37546 0
M  V30 4047 H 370.871 -6.20099 1.84626 0
M  V30 4048 N 371.003 -0.499398 -1.49478 0
M  V30 4049 C 371.933 0.269244 -2.31943 0
M  V30 4050 C 372.914 0.964054 -1.40143 0
M  V30 4051 O 374.099 0.955767 -1.69052 0
M  V30 4052 C 371.229 1.33504 -3.20615 0
M  V30 4053 C 370.183 0.760202 -4.21195 0
M  V30 4054 C 369.509 1.9264 -4.98792 0
M  V30 4055 C 370.809 -0.247661 -5.21712 0
M  V30 4056 H 372.503 -0.419082 -2.96452 0
M  V30 4057 H 370.049 -0.202988 -1.42562 0
M  V30 4058 H 372.002 1.88048 -3.77115 0
M  V30 4059 H 370.726 2.05253 -2.54045 0
M  V30 4060 H 369.385 0.23653 -3.65836 0
M  V30 4061 H 369.033 2.63154 -4.28671 0
M  V30 4062 H 368.733 1.54785 -5.66847 0
M  V30 4063 H 370.257 2.4762 -5.58137 0
M  V30 4064 H 371.671 0.209579 -5.72917 0
M  V30 4065 H 370.068 -0.541962 -5.97648 0
M  V30 4066 H 371.138 -1.16409 -4.7072 0
M  V30 4067 N 372.481 1.55866 -0.233164 0
M  V30 4068 C 373.706 2.03449 0.402906 0
M  V30 4069 C 374.131 1.11166 1.51736 0
M  V30 4070 O 373.489 0.101996 1.81013 0
M  V30 4071 C 373.537 3.49165 0.9009 0
M  V30 4072 O 372.641 3.60019 2.01147 0
M  V30 4073 H 371.982 0.657913 0.0897025 0
M  V30 4074 H 374.512 2.01493 -0.355201 0
M  V30 4075 H 374.522 3.89716 1.2077 0
M  V30 4076 H 373.197 4.15813 0.0852889 0
M  V30 4077 H 371.774 3.3136 1.71042 0
M  V30 4078 N 373.959 -0.0401083 1.57549 0
M  V30 4079 C 375.184 -0.748931 1.93406 0
M  V30 4080 C 375.609 -1.68686 0.832274 0
M  V30 4081 O 374.967 -1.80047 -0.212818 0
M  V30 4082 C 375.015 -1.4916 3.28304 0
M  V30 4083 O 374.119 -2.6042 3.19774 0
M  V30 4084 H 373.46 -0.202212 0.63246 0
M  V30 4085 H 375.99 0.00112086 2.046 0
M  V30 4086 H 376 -1.86395 3.62934 0
M  V30 4087 H 374.675 -0.80364 4.08062 0
M  V30 4088 H 373.252 -2.25808 2.96758 0
M  V30 4089 N 375.437 -1.54477 -0.31217 0
M  V30 4090 C 376.665 -1.77205 -1.068 0
M  V30 4091 C 377.08 -0.526114 -1.81321 0
M  V30 4092 O 376.437 0.503647 -1.75413 0
M  V30 4093 C 376.488 -2.97253 -2.05725 0
M  V30 4094 O 376.209 -4.1703 -1.34228 0
M  V30 4095 C 377.71 -3.32281 -2.93435 0
M  V30 4096 H 374.93 -0.591287 -0.317208 0
M  V30 4097 H 377.474 -2.01398 -0.354834 0
M  V30 4098 H 375.629 -2.753 -2.72559 0
M  V30 4099 H 376.043 -4.84636 -2.00571 0
M  V30 4100 H 377.517 -4.19551 -3.58721 0
M  V30 4101 H 377.994 -2.49945 -3.61143 0
M  V30 4102 H 378.6 -3.56353 -2.32147 0
M  V30 4103 N 376.915 0.57481 -1.46744 0
M  V30 4104 C 378.162 1.33272 -1.52462 0
M  V30 4105 C 378.49 1.93669 -0.179572 0
M  V30 4106 O 377.745 1.7743 0.825664 0
M  V30 4107 C 378.044 2.476 -2.57738 0
M  V30 4108 C 377.71 2.05146 -4.01529 0
M  V30 4109 C 376.372 1.93284 -4.40676 0
M  V30 4110 C 378.724 1.72506 -4.91824 0
M  V30 4111 C 376.052 1.47049 -5.67973 0
M  V30 4112 C 378.404 1.27748 -6.19567 0
M  V30 4113 C 377.068 1.14468 -6.57612 0
M  V30 4114 H 376.338 0.487678 -0.557899 0
M  V30 4115 H 378.985 0.646456 -1.80259 0
M  V30 4116 H 377.29 3.21708 -2.23632 0
M  V30 4117 H 378.987 3.05807 -2.5939 0
M  V30 4118 H 375.577 2.15316 -3.7059 0
M  V30 4119 H 379.761 1.80552 -4.62293 0
M  V30 4120 H 375.017 1.35417 -5.96215 0
M  V30 4121 H 379.191 1.01547 -6.88957 0
M  V30 4122 H 376.818 0.78419 -7.56145 0
M  V30 4123 N 378.394 1.34581 0.820102 0
M  V30 4124 C 379.64 1.27285 1.57881 0
M  V30 4125 C 379.973 -0.156137 1.93571 0
M  V30 4126 O 379.248 -1.10222 1.60254 0
M  V30 4127 C 379.531 2.16639 2.87645 0
M  V30 4128 C 379.384 3.68088 2.58517 0
M  V30 4129 C 380.703 2.05378 3.8924 0
M  V30 4130 H 377.822 0.463714 0.572833 0
M  V30 4131 H 380.464 1.64859 0.944539 0
M  V30 4132 H 378.614 1.84725 3.41773 0
M  V30 4133 H 380.286 4.10382 2.10676 0
M  V30 4134 H 378.529 3.89038 1.91917 0
M  V30 4135 H 379.2 4.2598 3.51063 0
M  V30 4136 H 381.676 2.33404 3.44473 0
M  V30 4137 H 380.552 2.7012 4.77835 0
M  V30 4138 H 380.813 1.0316 4.29896 0
M  V30 4139 N 379.872 -1.04064 1.18357 0
M  V30 4140 C 381.149 -1.74252 0.888581 0
M  V30 4141 C 381.529 -2.02138 -0.60856 0
M  V30 4142 O 380.877 -1.66656 -1.56327 0
M  V30 4143 C 381.087 -3.0277 1.73584 0
M  V30 4144 C 382.435 -3.76506 1.96286 0
M  V30 4145 O 383.459 -3.12668 1.70637 0
M  V30 4146 O 382.318 -4.91243 2.39464 0
M  V30 4147 H 379.412 -0.758271 0.330082 0
M  V30 4148 H 381.958 -1.1013 1.2911 0
M  V30 4149 H 380.73 -2.78299 2.75073 0
M  V30 4150 H 380.353 -3.74631 1.33183 0
M  V30 4151 N 381.35 -0.985608 -1.22978 0
M  V30 4152 C 382.597 -0.657386 -1.91532 0
M  V30 4153 C 382.925 0.809707 -1.76845 0
M  V30 4154 O 382.18 1.60021 -1.12658 0
M  V30 4155 C 382.479 -1.00014 -3.43121 0
M  V30 4156 C 382.145 -2.4583 -3.77993 0
M  V30 4157 C 380.807 -2.85679 -3.87222 0
M  V30 4158 C 383.159 -3.40378 -3.94705 0
M  V30 4159 C 380.487 -4.19081 -4.10595 0
M  V30 4160 C 382.839 -4.73429 -4.1958 0
M  V30 4161 C 381.503 -5.1303 -4.27032 0
M  V30 4162 H 380.773 -0.240555 -0.700867 0
M  V30 4163 H 383.42 -1.24044 -1.45895 0
M  V30 4164 H 381.725 -0.335072 -3.90365 0
M  V30 4165 H 383.422 -0.724322 -3.94404 0
M  V30 4166 H 380.012 -2.13939 -3.71387 0
M  V30 4167 H 384.196 -3.10766 -3.8696 0
M  V30 4168 H 379.452 -4.49362 -4.14589 0
M  V30 4169 H 383.626 -5.46644 -4.31455 0
M  V30 4170 H 381.253 -6.16418 -4.44896 0
M  V30 4171 N 382.828 1.3818 -0.7579 0
M  V30 4172 C 384.056 2.04301 -0.326937 0
M  V30 4173 C 384.471 1.57163 1.0462 0
M  V30 4174 O 383.828 0.746626 1.66529 0
M  V30 4175 C 383.879 3.59846 -0.345363 0
M  V30 4176 O 383.6 4.05256 -1.66432 0
M  V30 4177 C 385.101 4.4319 0.098927 0
M  V30 4178 H 382.321 0.656443 -0.139012 0
M  V30 4179 H 384.865 1.76786 -1.02796 0
M  V30 4180 H 383.02 3.86182 0.306955 0
M  V30 4181 H 383.434 4.99709 -1.59345 0
M  V30 4182 H 384.908 5.51989 0.0348745 0
M  V30 4183 H 385.385 4.23947 1.14741 0
M  V30 4184 H 385.991 4.22051 -0.52468 0
M  V30 4185 N 384.306 0.507319 1.49211 0
M  V30 4186 C 385.583 -0.0982702 1.95353 0
M  V30 4187 C 385.963 -1.53516 1.449 0
M  V30 4188 O 385.311 -2.18594 0.66551 0
M  V30 4189 C 385.521 -0.00440283 3.49 0
M  V30 4190 C 386.869 -0.175147 4.24239 0
M  V30 4191 O 387.893 -0.0792891 3.56112 0
M  V30 4192 O 386.752 -0.37276 5.45227 0
M  V30 4193 H 383.846 -0.0918236 0.821887 0
M  V30 4194 H 386.392 0.570307 1.5983 0
M  V30 4195 H 385.164 0.997402 3.78375 0
M  V30 4196 H 384.787 -0.712845 3.91158 0
M  V30 4197 N 385.784 -1.5574 0.241426 0
M  V30 4198 C 387.033 -1.97986 -0.385295 0
M  V30 4199 C 387.346 -1.13267 -1.59468 0
M  V30 4200 O 388.552 -1.45501 -2.2922 0
M  V30 4201 C 387.008 -3.52275 -0.736884 0
M  V30 4202 C 386.616 -4.45726 0.450796 0
M  V30 4203 C 388.36 -4.03189 -1.3281 0
M  V30 4204 C 386.267 -5.91352 0.0756662 0
M  V30 4205 H 385.197 -0.739386 -0.147731 0
M  V30 4206 H 387.848 -1.80308 0.340779 0
M  V30 4207 H 386.23 -3.65628 -1.52094 0
M  V30 4208 H 387.404 -4.44131 1.22819 0
M  V30 4209 H 385.719 -4.05264 0.956573 0
M  V30 4210 H 388.316 -5.09505 -1.62201 0
M  V30 4211 H 388.659 -3.50212 -2.25071 0
M  V30 4212 H 389.192 -3.93141 -0.607069 0
M  V30 4213 H 385.931 -6.48354 0.965272 0
M  V30 4214 H 385.451 -5.96095 -0.665635 0
M  V30 4215 H 387.13 -6.46084 -0.344075 0
M  V30 4216 N 387.262 0.0317525 -1.57568 0
M  V30 4217 C 388.51 0.721676 -1.88776 0
M  V30 4218 C 388.831 1.76039 -0.838772 0
M  V30 4219 O 388.101 1.95482 0.127935 0
M  V30 4220 H 386.681 0.269534 -0.696678 0
M  V30 4221 H 389.343 -0.00165879 -1.949 0
M  V30 4222 H 388.439 1.21293 -2.87566 0
M  V30 4223 N 388.74 1.54641 0.303973 0
M  V30 4224 C 389.986 1.74038 1.04109 0
M  V30 4225 C 390.319 0.523051 1.87024 0
M  V30 4226 O 389.594 -0.479874 1.88487 0
M  V30 4227 C 389.877 3.02761 1.94955 0
M  V30 4228 C 389.73 4.34787 1.1524 0
M  V30 4229 C 391.049 3.27336 2.94175 0
M  V30 4230 H 388.168 0.63323 0.377079 0
M  V30 4231 H 390.81 1.87354 0.316001 0
M  V30 4232 H 388.96 2.9154 2.56782 0
M  V30 4233 H 390.632 4.57922 0.557236 0
M  V30 4234 H 388.875 4.31407 0.455053 0
M  V30 4235 H 389.546 5.21116 1.8205 0
M  V30 4236 H 392.022 3.38148 2.42477 0
M  V30 4237 H 390.898 4.18726 3.54908 0
M  V30 4238 H 391.159 2.45491 3.67677 0
M  V30 4239 N 390.218 -0.567019 1.47046 0
M  V30 4240 C 391.495 -1.3276 1.43646 0
M  V30 4241 C 391.875 -2.1071 0.128186 0
M  V30 4242 O 391.223 -2.10441 -0.890326 0
M  V30 4243 C 391.433 -2.2404 2.67595 0
M  V30 4244 C 392.781 -2.85372 3.14401 0
M  V30 4245 O 393.805 -2.34346 2.68254 0
M  V30 4246 O 392.664 -3.78091 3.946 0
M  V30 4247 H 389.758 -0.597293 0.571988 0
M  V30 4248 H 392.304 -0.586735 1.59234 0
M  V30 4249 H 391.076 -1.65975 3.54356 0
M  V30 4250 H 390.699 -3.05439 2.54544 0
M  V30 4251 N 391.696 -1.35014 -0.812953 0
M  V30 4252 C 392.926 -1.30841 -1.59888 0
M  V30 4253 C 393.334 0.117576 -1.88834 0
M  V30 4254 O 392.677 1.07807 -1.48739 0
M  V30 4255 C 392.739 -2.0412 -2.95931 0
M  V30 4256 C 392.403 -3.53336 -2.89832 0
M  V30 4257 C 393.4 -4.48052 -2.63714 0
M  V30 4258 C 391.085 -3.95894 -3.0915 0
M  V30 4259 C 393.079 -5.833 -2.56982 0
M  V30 4260 C 390.766 -5.31239 -3.0204 0
M  V30 4261 C 391.764 -6.24754 -2.75991 0
M  V30 4262 O 391.452 -7.57617 -2.68833 0
M  V30 4263 H 391.184 -0.451215 -0.50337 0
M  V30 4264 H 393.738 -1.78354 -1.01877 0
M  V30 4265 H 391.968 -1.51235 -3.559 0
M  V30 4266 H 393.657 -1.93107 -3.57022 0
M  V30 4267 H 394.423 -4.16492 -2.48515 0
M  V30 4268 H 390.302 -3.23495 -3.28438 0
M  V30 4269 H 393.846 -6.56263 -2.36569 0
M  V30 4270 H 389.743 -5.62415 -3.16796 0
M  V30 4271 H 390.511 -7.67469 -2.84487 0
M  V30 4272 N 393.175 1.03435 -1.18907 0
M  V30 4273 C 394.415 1.78302 -0.999391 0
M  V30 4274 C 394.779 1.86353 0.462219 0
M  V30 4275 O 395.98 2.57489 0.771543 0
M  V30 4276 C 394.251 3.17362 -1.64365 0
M  V30 4277 S 395.81 4.08488 -1.6026 0
M  V30 4278 H 392.628 0.613861 -0.358742 0
M  V30 4279 H 395.23 1.23979 -1.51161 0
M  V30 4280 H 393.934 3.09116 -2.69955 0
M  V30 4281 H 393.465 3.76762 -1.13199 0
M  V30 4282 H 395.48 4.92274 -0.622932 0
M  V30 4283 N 394.653 0.992116 1.22453 0
M  V30 4284 C 395.93 0.583508 1.86694 0
M  V30 4285 C 396.31 -0.9392 1.89056 0
M  V30 4286 O 395.658 -1.82081 1.38053 0
M  V30 4287 C 395.868 1.20304 3.2761 0
M  V30 4288 C 397.216 1.30308 4.0411 0
M  V30 4289 O 398.24 1.15737 3.36873 0
M  V30 4290 O 397.099 1.53615 5.24466 0
M  V30 4291 H 394.193 0.198129 0.802916 0
M  V30 4292 H 396.739 1.08794 1.30238 0
M  V30 4293 H 395.511 2.24461 3.2052 0
M  V30 4294 H 395.134 0.684144 3.9167 0
M  V30 4295 N 396.131 -1.37776 0.765217 0
M  V30 4296 C 397.378 -1.99849 0.326588 0
M  V30 4297 C 397.706 -1.60746 -1.09504 0
M  V30 4298 O 396.961 -0.84202 -1.76659 0
M  V30 4299 C 397.26 -3.5504 0.410053 0
M  V30 4300 C 396.926 -4.13891 1.78899 0
M  V30 4301 C 395.588 -4.29678 2.16635 0
M  V30 4302 C 397.94 -4.46236 2.69301 0
M  V30 4303 C 395.268 -4.7511 3.44221 0
M  V30 4304 C 397.62 -4.93089 3.9629 0
M  V30 4305 C 396.284 -5.07082 4.34078 0
M  V30 4306 H 395.554 -0.7313 0.119507 0
M  V30 4307 H 398.201 -1.64645 0.977968 0
M  V30 4308 H 396.506 -3.90451 -0.324878 0
M  V30 4309 H 398.203 -4.00966 0.0520699 0
M  V30 4310 H 394.793 -4.02026 1.48569 0
M  V30 4311 H 398.977 -4.3363 2.41409 0
M  V30 4312 H 394.233 -4.84129 3.73402 0
M  V30 4313 H 398.407 -5.17084 4.66472 0
M  V30 4314 H 396.034 -5.42046 5.33001 0
M  V30 4315 N 397.609 -0.515225 -1.4894 0
M  V30 4316 C 398.834 0.022727 -2.07388 0
M  V30 4317 C 399.259 1.2876 -1.37122 0
M  V30 4318 O 398.617 1.76067 -0.432431 0
M  V30 4319 C 398.665 0.244869 -3.59768 0
M  V30 4320 O 397.769 1.31667 -3.90817 0
M  V30 4321 H 397.11 -0.0325506 -0.663202 0
M  V30 4322 H 399.64 -0.718918 -1.91553 0
M  V30 4323 H 399.65 0.47205 -4.0526 0
M  V30 4324 H 398.325 -0.679194 -4.10317 0
M  V30 4325 H 396.902 1.07331 -3.5712 0
M  V30 4326 N 399.087 1.5561 -0.249682 0
M  V30 4327 C 400.333 1.99306 0.374841 0
M  V30 4328 C 400.666 1.13767 1.57387 0
M  V30 4329 O 399.941 0.201711 1.93451 0
M  V30 4330 C 400.224 3.51507 0.781986 0
M  V30 4331 C 400.077 4.4781 -0.422629 0
M  V30 4332 C 401.396 4.08884 1.62793 0
M  V30 4333 H 398.515 0.724572 0.134773 0
M  V30 4334 H 401.157 1.86719 -0.351549 0
M  V30 4335 H 399.307 3.62363 1.4009 0
M  V30 4336 H 400.979 4.48931 -1.06108 0
M  V30 4337 H 399.222 4.20518 -1.06524 0
M  V30 4338 H 399.893 5.51919 -0.0943766 0
M  V30 4339 H 402.369 4.01147 1.10547 0
M  V30 4340 H 401.245 5.1564 1.88166 0
M  V30 4341 H 401.506 3.57515 2.60068 0
M  V30 4342 N 400.565 -0.0233959 1.57583 0
M  V30 4343 C 401.497 -1.04994 2.03737 0
M  V30 4344 C 402.51 -1.32125 0.951152 0
M  V30 4345 O 403.699 -1.29512 1.22837 0
M  V30 4346 C 400.799 -2.39026 2.40249 0
M  V30 4347 C 399.972 -2.31171 3.7132 0
M  V30 4348 C 399.031 -3.47698 3.94959 0
M  V30 4349 O 398.057 -3.26937 4.65941 0
M  V30 4350 N 399.259 -4.6976 3.41037 0
M  V30 4351 H 402.024 -0.656507 2.92421 0
M  V30 4352 H 399.585 -0.211235 1.60516 0
M  V30 4353 H 401.577 -3.15712 2.53196 0
M  V30 4354 H 400.147 -2.70194 1.57207 0
M  V30 4355 H 399.367 -1.39547 3.68674 0
M  V30 4356 H 400.655 -2.23071 4.57293 0
M  V30 4357 H 400.053 -4.89528 2.83512 0
M  V30 4358 H 398.61 -5.43791 3.59353 0
M  V30 4359 N 402.043 -1.548 -0.295768 0
M  V30 4360 C 403.268 -1.78653 -1.05346 0
M  V30 4361 C 403.693 -0.546894 -1.79974 0
M  V30 4362 O 403.051 0.502763 -1.7419 0
M  V30 4363 C 403.099 -2.99679 -2.00561 0
M  V30 4364 O 402.203 -2.7317 -3.08953 0
M  V30 4365 H 401.544 -0.59116 -0.302367 0
M  V30 4366 H 404.074 -2.01895 -0.331598 0
M  V30 4367 H 404.084 -3.27793 -2.42932 0
M  V30 4368 H 402.759 -3.89562 -1.4565 0
M  V30 4369 H 401.336 -2.56089 -2.71059 0
M  V30 4370 N 403.521 0.559213 -1.47345 0
M  V30 4371 C 404.468 1.66645 -1.59682 0
M  V30 4372 C 405.438 1.60168 -0.43994 0
M  V30 4373 O 406.623 1.79031 -0.659736 0
M  V30 4374 C 403.763 3.04969 -1.61518 0
M  V30 4375 C 402.876 3.21897 -2.88108 0
M  V30 4376 C 402.011 4.50608 -2.81294 0
M  V30 4377 C 401.05 4.60961 -4.02717 0
M  V30 4378 N 400.187 5.81024 -3.94151 0
M  V30 4379 H 405.027 1.55439 -2.54249 0
M  V30 4380 H 402.564 0.757219 -1.26113 0
M  V30 4381 H 404.522 3.85064 -1.60566 0
M  V30 4382 H 403.152 3.15015 -0.704645 0
M  V30 4383 H 402.204 2.35248 -2.98936 0
M  V30 4384 H 403.516 3.25412 -3.78032 0
M  V30 4385 H 402.67 5.3896 -2.7858 0
M  V30 4386 H 401.409 4.49568 -1.89049 0
M  V30 4387 H 400.414 3.71021 -4.05738 0
M  V30 4388 H 401.639 4.63761 -4.96087 0
M  V30 4389 H 399.585 5.80938 -3.04708 0
M  V30 4390 H 399.502 5.85909 -4.77752 0
M  V30 4391 H 400.77 6.71744 -3.9545 0
M  V30 4392 N 404.999 1.35443 0.805782 0
M  V30 4393 C 405.949 1.24972 1.90699 0
M  V30 4394 C 406.933 0.144806 1.60247 0
M  V30 4395 O 408.125 0.376102 1.72958 0
M  V30 4396 C 405.254 1.02475 3.27649 0
M  V30 4397 C 404.34 2.17361 3.64164 0
M  V30 4398 N 404.731 3.42591 3.72109 0
M  V30 4399 C 403.029 2.08765 3.94123 0
M  V30 4400 C 403.73 4.18144 4.04389 0
M  V30 4401 N 402.706 3.4691 4.18515 0
M  V30 4402 H 406.508 2.19852 1.95044 0
M  V30 4403 H 404.022 1.27928 1.00041 0
M  V30 4404 H 406.019 0.930617 4.06381 0
M  V30 4405 H 404.679 0.0848009 3.24589 0
M  V30 4406 H 405.69 3.76932 3.55166 0
M  V30 4407 H 402.367 1.22629 3.99084 0
M  V30 4408 H 403.757 5.26367 4.17597 0
M  V30 4409 N 406.477 -1.02803 1.19454 0
M  V30 4410 C 407.424 -2.11099 0.933046 0
M  V30 4411 C 408.394 -1.65571 -0.132447 0
M  V30 4412 O 409.579 -1.90797 0.00987576 0
M  V30 4413 C 406.719 -3.41763 0.478747 0
M  V30 4414 C 405.832 -4.00833 1.6111 0
M  V30 4415 C 404.967 -5.19511 1.10825 0
M  V30 4416 C 404.006 -5.70639 2.21445 0
M  V30 4417 N 403.143 -6.80589 1.72461 0
M  V30 4418 H 407.983 -2.32804 1.86028 0
M  V30 4419 H 405.52 -1.14179 0.927441 0
M  V30 4420 H 407.478 -4.16736 0.196745 0
M  V30 4421 H 406.108 -3.20166 -0.411493 0
M  V30 4422 H 405.16 -3.23066 2.00829 0
M  V30 4423 H 406.472 -4.34794 2.4445 0
M  V30 4424 H 405.626 -6.01645 0.781533 0
M  V30 4425 H 404.365 -4.87086 0.244606 0
M  V30 4426 H 403.37 -4.87116 2.54947 0
M  V30 4427 H 404.595 -6.05102 3.08267 0
M  V30 4428 H 402.541 -6.50016 0.884056 0
M  V30 4429 H 402.458 -7.13681 2.49389 0
M  V30 4430 H 403.726 -7.66317 1.42755 0
M  V30 4431 N 407.956 -0.998596 -1.21925 0
M  V30 4432 C 409.205 -0.673085 -1.90138 0
M  V30 4433 C 409.518 0.79895 -1.78539 0
M  V30 4434 O 410.724 1.23628 -2.4172 0
M  V30 4435 C 409.18 -1.15339 -3.40918 0
M  V30 4436 C 408.788 -2.65106 -3.61141 0
M  V30 4437 C 410.532 -0.902476 -4.14796 0
M  V30 4438 C 408.439 -3.0671 -5.05651 0
M  V30 4439 H 407.369 -0.248057 -0.712028 0
M  V30 4440 H 410.02 -1.20891 -1.38049 0
M  V30 4441 H 408.402 -0.545658 -3.92223 0
M  V30 4442 H 409.576 -3.31274 -3.20304 0
M  V30 4443 H 407.891 -2.88142 -3.00605 0
M  V30 4444 H 410.488 -1.18895 -5.21314 0
M  V30 4445 H 410.831 0.161349 -4.15987 0
M  V30 4446 H 411.364 -1.47269 -3.69536 0
M  V30 4447 H 408.103 -4.12292 -5.09603 0
M  V30 4448 H 407.623 -2.45249 -5.47369 0
M  V30 4449 H 409.302 -2.9833 -5.74115 0
M  V30 4450 N 409.434 1.37368 -0.772513 0
M  V30 4451 C 410.683 1.98918 -0.333861 0
M  V30 4452 C 410.996 1.62017 1.09589 0
M  V30 4453 O 412.202 2.16676 1.63596 0
M  V30 4454 C 410.658 3.55735 -0.545971 0
M  V30 4455 C 410.266 4.01573 -1.98603 0
M  V30 4456 C 412.01 4.24156 -0.170979 0
M  V30 4457 C 409.917 5.51102 -2.1457 0
M  V30 4458 H 408.847 0.744214 -0.121085 0
M  V30 4459 H 411.498 1.56888 -0.95175 0
M  V30 4460 H 409.88 3.95748 0.141387 0
M  V30 4461 H 411.054 3.72803 -2.7084 0
M  V30 4462 H 409.369 3.45937 -2.31769 0
M  V30 4463 H 411.966 5.34024 -0.26878 0
M  V30 4464 H 412.309 4.06917 0.878855 0
M  V30 4465 H 412.842 3.89447 -0.810914 0
M  V30 4466 H 409.581 5.73268 -3.17875 0
M  V30 4467 H 409.101 5.81554 -1.46817 0
M  V30 4468 H 410.78 6.17083 -1.94468 0
M  V30 4469 N 410.912 0.523116 1.48665 0
M  V30 4470 C 411.822 -0.247406 2.33292 0
M  V30 4471 C 412.838 -0.945769 1.46052 0
M  V30 4472 O 414.014 -0.922253 1.79043 0
M  V30 4473 C 411.079 -1.28487 3.22012 0
M  V30 4474 C 410.14 -0.597592 4.2512 0
M  V30 4475 C 409.373 -1.58563 5.09601 0
M  V30 4476 O 409.596 -2.81763 4.95949 0
M  V30 4477 O 408.53 -1.12879 5.91221 0
M  V30 4478 H 412.356 0.445869 3.00409 0
M  V30 4479 H 409.941 0.284128 1.46673 0
M  V30 4480 H 411.823 -1.88459 3.7691 0
M  V30 4481 H 410.498 -1.96068 2.57564 0
M  V30 4482 H 409.405 0.0424407 3.74076 0
M  V30 4483 H 410.738 0.0361517 4.92187 0
M  V30 4484 N 412.39 -1.55475 0.257931 0
M  V30 4485 C 413.32 -2.24815 -0.630912 0
M  V30 4486 C 414.301 -1.23224 -1.17259 0
M  V30 4487 O 415.486 -1.51904 -1.20991 0
M  V30 4488 C 412.616 -2.95609 -1.82298 0
M  V30 4489 C 411.57 -4.03982 -1.41359 0
M  V30 4490 C 410.896 -4.6226 -2.68738 0
M  V30 4491 C 412.196 -5.19109 -0.57648 0
M  V30 4492 H 413.89 -2.99354 -0.0526878 0
M  V30 4493 H 411.436 -1.4398 -0.023901 0
M  V30 4494 H 413.389 -3.42822 -2.45054 0
M  V30 4495 H 412.113 -2.18577 -2.42676 0
M  V30 4496 H 410.772 -3.57555 -0.809324 0
M  V30 4497 H 410.42 -3.81915 -3.27338 0
M  V30 4498 H 410.12 -5.35424 -2.42065 0
M  V30 4499 H 411.644 -5.12212 -3.32372 0
M  V30 4500 H 413.058 -5.62479 -1.10861 0
M  V30 4501 H 411.455 -5.98729 -0.405351 0
M  V30 4502 H 412.525 -4.83174 0.408776 0
M  V30 4503 N 413.868 0.0150385 -1.57593 0
M  V30 4504 C 415.145 0.7392 -1.81094 0
M  V30 4505 C 415.525 1.92817 -0.859344 0
M  V30 4506 O 414.873 2.28301 0.095362 0
M  V30 4507 C 415.083 1.15907 -3.29191 0
M  V30 4508 C 416.431 1.56918 -3.9454 0
M  V30 4509 O 417.455 1.25328 -3.33424 0
M  V30 4510 O 416.314 2.15604 -5.02173 0
M  V30 4511 H 413.408 0.358631 -0.745193 0
M  V30 4512 H 415.954 -0.00926156 -1.69697 0
M  V30 4513 H 414.726 0.310921 -3.90063 0
M  V30 4514 H 414.349 1.96711 -3.45529 0
M  V30 4515 N 415.346 1.54954 0.287554 0
M  V30 4516 C 416.623 1.65569 1.04146 0
M  V30 4517 C 417.003 0.512672 2.0478 0
M  V30 4518 O 416.351 -0.489038 2.23205 0
M  V30 4519 C 416.561 3.04163 1.71131 0
M  V30 4520 C 417.909 3.61429 2.22832 0
M  V30 4521 O 418.933 3.06702 1.81141 0
M  V30 4522 O 417.792 4.57281 2.9926 0
M  V30 4523 H 414.886 0.671881 0.482188 0
M  V30 4524 H 417.432 1.67297 0.28457 0
M  V30 4525 H 416.204 3.78796 0.981303 0
M  V30 4526 H 415.827 3.06271 2.53543 0
M  V30 4527 N 416.824 -0.551391 1.4764 0
M  V30 4528 C 417.771 -1.65796 1.60563 0
M  V30 4529 C 418.741 -1.59932 0.448428 0
M  V30 4530 O 419.926 -1.78679 0.669222 0
M  V30 4531 C 417.066 -3.04108 1.63133 0
M  V30 4532 C 416.179 -3.20365 2.89811 0
M  V30 4533 C 415.314 -4.49109 2.8368 0
M  V30 4534 C 414.353 -4.58819 4.05156 0
M  V30 4535 N 413.49 -5.78926 3.97227 0
M  V30 4536 H 418.33 -1.54088 2.5507 0
M  V30 4537 H 415.867 -0.75052 1.26513 0
M  V30 4538 H 417.825 -3.84207 1.62606 0
M  V30 4539 H 416.455 -3.14637 0.721341 0
M  V30 4540 H 415.507 -2.33659 3.00179 0
M  V30 4541 H 416.819 -3.23402 3.79753 0
M  V30 4542 H 415.973 -5.37475 2.81434 0
M  V30 4543 H 414.712 -4.4856 1.91431 0
M  V30 4544 H 413.717 -3.68864 4.077 0
M  V30 4545 H 414.942 -4.61124 4.98539 0
M  V30 4546 H 412.888 -5.79314 3.07785 0
M  V30 4547 H 412.805 -5.83367 4.80853 0
M  V30 4548 H 414.073 -6.69637 3.99007 0
M  V30 4549 N 418.302 -1.35869 -0.798587 0
M  V30 4550 C 419.55 -1.29332 -1.55298 0
M  V30 4551 C 419.871 0.129729 -1.94568 0
M  V30 4552 O 419.141 1.06796 -1.6423 0
M  V30 4553 H 417.721 -0.475737 -0.57592 0
M  V30 4554 H 420.383 -1.70062 -0.952093 0
M  V30 4555 H 419.479 -1.91458 -2.46476 0
M  V30 4556 N 419.78 1.02168 -1.19998 0
M  V30 4557 C 420.712 2.10705 -0.901994 0
M  V30 4558 C 421.725 1.6244 0.108216 0
M  V30 4559 O 422.914 1.78082 -0.12214 0
M  V30 4560 C 420.014 3.37291 -0.329834 0
M  V30 4561 C 419.187 4.14714 -1.39035 0
M  V30 4562 C 418.246 5.19606 -0.830432 0
M  V30 4563 O 417.272 5.48809 -1.50989 0
M  V30 4564 N 418.474 5.79366 0.362696 0
M  V30 4565 H 421.239 2.36856 -1.83628 0
M  V30 4566 H 418.8 1.18518 -1.10296 0
M  V30 4567 H 420.792 4.04657 0.0587633 0
M  V30 4568 H 419.362 3.0843 0.508891 0
M  V30 4569 H 418.582 3.42392 -1.9535 0
M  V30 4570 H 419.87 4.63226 -2.10474 0
M  V30 4571 H 419.268 5.57968 0.932081 0
M  V30 4572 H 417.825 6.48106 0.69299 0
M  V30 4573 N 421.258 1.00505 1.21394 0
M  V30 4574 C 422.504 0.688793 1.90745 0
M  V30 4575 C 422.837 -0.778486 1.77914 0
M  V30 4576 O 422.112 -1.56433 1.15581 0
M  V30 4577 C 422.395 1.11063 3.42545 0
M  V30 4578 C 422.248 2.63737 3.64367 0
M  V30 4579 C 423.567 0.673059 4.34923 0
M  V30 4580 H 420.686 0.251702 0.692687 0
M  V30 4581 H 423.328 1.25074 1.43026 0
M  V30 4582 H 421.478 0.632508 3.83317 0
M  V30 4583 H 423.15 3.19313 3.32922 0
M  V30 4584 H 421.393 3.05248 3.08231 0
M  V30 4585 H 422.064 2.88305 4.70727 0
M  V30 4586 H 424.54 1.08392 4.01734 0
M  V30 4587 H 423.416 0.996383 5.39781 0
M  V30 4588 H 423.677 -0.425808 4.40045 0
M  V30 4589 N 422.737 -1.36956 0.779787 0
M  V30 4590 C 423.983 -1.99787 0.348281 0
M  V30 4591 C 424.316 -1.61756 -1.07465 0
M  V30 4592 O 423.591 -0.867639 -1.74075 0
M  V30 4593 C 423.874 -3.56597 0.50104 0
M  V30 4594 C 423.727 -4.04513 1.96697 0
M  V30 4595 C 425.046 -4.40008 -0.0898097 0
M  V30 4596 H 422.165 -0.725796 0.128022 0
M  V30 4597 H 424.807 -1.62514 0.984331 0
M  V30 4598 H 422.957 -3.88479 -0.0404347 0
M  V30 4599 H 424.629 -3.83161 2.56876 0
M  V30 4600 H 422.872 -3.56408 2.47297 0
M  V30 4601 H 423.543 -5.1352 2.02486 0
M  V30 4602 H 426.019 -4.14431 0.372293 0
M  V30 4603 H 424.895 -5.4888 0.0471605 0
M  V30 4604 H 425.156 -4.26035 -1.18096 0
M  V30 4605 N 424.215 -0.530993 -1.48385 0
M  V30 4606 C 425.631 -0.188919 -1.58478 0
M  V30 4607 C 425.831 1.30786 -1.53288 0
M  V30 4608 O 424.887 2.08619 -1.42248 0
M  V30 4609 C 426.2 -0.792343 -2.90073 0
M  V30 4610 C 427.748 -0.76117 -3.03604 0
M  V30 4611 C 428.223 -1.34319 -4.37861 0
M  V30 4612 N 429.714 -1.3052 -4.44431 0
M  V30 4613 C 430.449 -1.72543 -5.46824 0
M  V30 4614 N 429.945 -2.22299 -6.56167 0
M  V30 4615 N 431.738 -1.63773 -5.37712 0
M  V30 4616 H 423.889 -1.50377 -1.50002 0
M  V30 4617 H 426.152 -0.625559 -0.712306 0
M  V30 4618 H 425.858 -1.84323 -2.99529 0
M  V30 4619 H 425.732 -0.270026 -3.76232 0
M  V30 4620 H 428.119 0.280957 -2.93759 0
M  V30 4621 H 428.2 -1.32097 -2.19053 0
M  V30 4622 H 427.844 -2.38425 -4.4846 0
M  V30 4623 H 427.774 -0.759064 -5.21101 0
M  V30 4624 H 430.265 -0.940973 -3.65997 0
M  V30 4625 H 430.578 -2.52356 -7.30436 0
M  V30 4626 H 428.923 -2.26293 -6.57127 0
M  V30 4627 H 432.114 -1.24698 -4.51185 0
M  V30 4628 H 432.287 -1.96844 -6.17379 0
M  V30 4629 N 425.693 1.55336 -0.266172 0
M  V30 4630 C 426.942 1.98574 0.353749 0
M  V30 4631 C 427.255 1.15789 1.57646 0
M  V30 4632 O 428.461 1.49129 2.26876 0
M  V30 4633 C 426.917 3.53403 0.680747 0
M  V30 4634 C 426.525 4.44953 -0.52165 0
M  V30 4635 C 428.269 4.05251 1.26379 0
M  V30 4636 C 426.176 5.91156 -0.169736 0
M  V30 4637 H 425.106 0.741643 0.135949 0
M  V30 4638 H 427.757 1.79743 -0.369421 0
M  V30 4639 H 426.139 3.68001 1.46257 0
M  V30 4640 H 427.313 4.42121 -1.29869 0
M  V30 4641 H 425.628 4.03691 -1.02093 0
M  V30 4642 H 428.225 5.12021 1.54074 0
M  V30 4643 H 428.568 3.53749 2.19471 0
M  V30 4644 H 429.101 3.94057 0.544447 0
M  V30 4645 H 425.84 6.46736 -1.0683 0
M  V30 4646 H 425.36 5.97079 0.570717 0
M  V30 4647 H 427.039 6.4655 0.241245 0
M  V30 4648 N 427.171 -0.0066808 1.57599 0
M  V30 4649 C 428.119 -1.01851 2.09115 0
M  V30 4650 C 429.113 -1.36021 1.00969 0
M  V30 4651 O 430.319 -1.34663 1.19439 0
M  V30 4652 H 426.694 -0.346083 0.667631 0
M  V30 4653 H 428.665 -0.558394 2.93129 0
M  V30 4654 C 427.414 -2.30374 2.60429 0
M  V30 4655 H 426.737 -2.04947 3.43273 0
M  V30 4656 H 428.177 -2.99466 3.00161 0
M  V30 4657 C 426.636 -3.00893 1.51542 0
M  V30 4658 O 427.166 -3.91614 0.894484 0
M  V30 4659 N 425.372 -2.62603 1.2445 0
M  V30 4660 H 424.919 -1.88911 1.75129 0
M  V30 4661 H 424.877 -3.10101 0.518137 0
M  V30 4662 N 428.649 -1.55105 -0.279332 0
M  V30 4663 C 429.896 -1.75412 -1.01177 0
M  V30 4664 C 430.224 -0.551728 -1.86511 0
M  V30 4665 O 429.479 0.465919 -1.90073 0
M  V30 4666 C 429.778 -3.0086 -1.92919 0
M  V30 4667 C 429.444 -4.33689 -1.23387 0
M  V30 4668 C 428.106 -4.69792 -1.04159 0
M  V30 4669 C 430.458 -5.15941 -0.738562 0
M  V30 4670 C 427.786 -5.85707 -0.341166 0
M  V30 4671 C 430.138 -6.32579 -0.0517636 0
M  V30 4672 C 428.802 -6.67326 0.152292 0
M  V30 4673 H 428.072 -0.641879 -0.370233 0
M  V30 4674 H 430.719 -1.89373 -0.284627 0
M  V30 4675 H 429.024 -2.81773 -2.72234 0
M  V30 4676 H 430.721 -3.13768 -2.49701 0
M  V30 4677 H 427.311 -4.05309 -1.39364 0
M  V30 4678 H 431.495 -4.8853 -0.874764 0
M  V30 4679 H 426.751 -6.11157 -0.172287 0
M  V30 4680 H 430.925 -6.9557 0.339828 0
M  V30 4681 H 428.552 -7.56998 0.697014 0
M  V30 4682 N 430.127 0.543554 -1.4793 0
M  V30 4683 C 431.075 1.67039 -1.61866 0
M  V30 4684 C 432.069 1.62294 -0.48549 0
M  V30 4685 O 433.275 1.67315 -0.66376 0
M  V30 4686 H 429.65 0.552954 -0.509652 0
M  V30 4687 H 431.621 1.52426 -2.56533 0
M  V30 4688 C 430.37 3.05357 -1.6629 0
M  V30 4689 H 429.693 3.09696 -2.5284 0
M  V30 4690 H 431.133 3.83855 -1.80088 0
M  V30 4691 C 429.592 3.34531 -0.398861 0
M  V30 4692 O 430.122 3.98649 0.494162 0
M  V30 4693 N 428.328 2.89299 -0.2747 0
M  V30 4694 H 427.875 2.37298 -1.00236 0
M  V30 4695 H 427.833 3.09188 0.570075 0
M  V30 4696 N 431.605 1.3629 0.791371 0
M  V30 4697 C 432.553 1.30514 1.92533 0
M  V30 4698 C 433.547 0.197285 1.68247 0
M  V30 4699 O 434.753 0.364176 1.76278 0
M  V30 4700 H 431.128 0.406263 0.632815 0
M  V30 4701 H 433.099 2.26282 1.94523 0
M  V30 4702 C 431.848 1.10933 3.29529 0
M  V30 4703 H 431.171 1.95427 3.48781 0
M  V30 4704 H 432.611 1.10937 4.0923 0
M  V30 4705 C 431.07 -0.186123 3.36385 0
M  V30 4706 O 431.6 -1.17664 3.84081 0
M  V30 4707 N 429.806 -0.230128 2.89687 0
M  V30 4708 H 429.353 0.576545 2.51065 0
M  V30 4709 H 429.311 -1.09658 2.94657 0
M  V30 4710 N 433.083 -1.0153 1.20538 0
M  V30 4711 C 434.046 -2.0826 0.957098 0
M  V30 4712 C 435.046 -1.60657 -0.0678655 0
M  V30 4713 O 436.236 -1.73385 0.168332 0
M  V30 4714 C 433.368 -3.38033 0.441188 0
M  V30 4715 H 434.561 -2.31719 1.90384 0
M  V30 4716 H 432.114 -1.1835 1.02093 0
M  V30 4717 H 432.849 -3.20249 -0.510961 0
M  V30 4718 H 432.634 -3.73911 1.18038 0
M  V30 4719 H 434.124 -4.16613 0.287009 0
M  V30 4720 N 434.561 -1.01147 -1.20859 0
M  V30 4721 C 435.789 -0.716911 -1.94082 0
M  V30 4722 C 436.204 0.721568 -1.74467 0
M  V30 4723 O 435.561 1.48889 -1.05539 0
M  V30 4724 C 435.612 -1.03662 -3.46318 0
M  V30 4725 O 435.333 -2.4186 -3.65288 0
M  V30 4726 C 436.834 -0.762386 -4.36695 0
M  V30 4727 H 434.054 -0.26367 -0.617024 0
M  V30 4728 H 436.598 -1.35127 -1.53496 0
M  V30 4729 H 434.753 -0.447757 -3.84804 0
M  V30 4730 H 435.167 -2.53224 -4.59323 0
M  V30 4731 H 436.641 -1.03621 -5.42187 0
M  V30 4732 H 437.118 0.303514 -4.3815 0
M  V30 4733 H 437.724 -1.33316 -4.03865 0
M  V30 4734 N 436.039 1.36541 -0.78704 0
M  V30 4735 C 437.455 1.52571 -0.46844 0
M  V30 4736 C 437.655 1.7415 1.01361 0
M  V30 4737 O 436.711 1.77163 1.79915 0
M  V30 4738 C 438.024 2.71299 -1.29682 0
M  V30 4739 C 439.572 2.85169 -1.29027 0
M  V30 4740 C 440.047 4.06898 -2.10233 0
M  V30 4741 N 441.538 4.1404 -2.07666 0
M  V30 4742 C 442.273 5.07301 -2.67271 0
M  V30 4743 N 441.769 6.06021 -3.35724 0
M  V30 4744 N 443.562 4.99898 -2.57018 0
M  V30 4745 H 435.713 1.20788 -1.74711 0
M  V30 4746 H 437.976 0.589364 -0.742532 0
M  V30 4747 H 437.682 2.61868 -2.34773 0
M  V30 4748 H 437.556 3.6539 -0.936479 0
M  V30 4749 H 439.943 2.94062 -0.247284 0
M  V30 4750 H 440.024 1.91992 -1.69035 0
M  V30 4751 H 439.668 3.98766 -3.1456 0
M  V30 4752 H 439.598 4.99218 -1.67597 0
M  V30 4753 H 442.089 3.43357 -1.57843 0
M  V30 4754 H 442.402 6.73741 -3.78541 0
M  V30 4755 H 440.747 6.06253 -3.39826 0
M  V30 4756 H 443.938 4.21724 -2.03142 0
M  V30 4757 H 444.111 5.72392 -3.03761 0
M  V30 4758 N 437.518 0.538854 1.48102 0
M  V30 4759 C 438.795 -0.0568108 1.95517 0
M  V30 4760 C 439.175 -1.50408 1.48124 0
M  V30 4761 O 438.523 -2.17133 0.711727 0
M  V30 4762 C 438.733 0.0696262 3.48931 0
M  V30 4763 C 440.081 -0.0851202 4.24515 0
M  V30 4764 O 441.105 -0.0037347 3.562 0
M  V30 4765 O 439.964 -0.257025 5.45895 0
M  V30 4766 H 437.058 -0.0743695 0.823649 0
M  V30 4767 H 439.604 0.604081 1.58584 0
M  V30 4768 H 438.376 1.07744 3.76174 0
M  V30 4769 H 437.999 -0.629714 3.92582 0
M  V30 4770 N 438.996 -1.55193 0.274407 0
M  V30 4771 C 440.224 -2.03987 -0.345943 0
M  V30 4772 C 440.639 -1.15279 -1.4952 0
M  V30 4773 O 439.996 -0.172759 -1.8168 0
M  V30 4774 C 440.047 -3.51898 -0.827631 0
M  V30 4775 O 439.768 -4.37231 0.275855 0
M  V30 4776 C 441.269 -4.16577 -1.51587 0
M  V30 4777 H 438.489 -0.666335 -0.0789892 0
M  V30 4778 H 441.033 -2.00423 0.406294 0
M  V30 4779 H 439.188 -3.55909 -1.52996 0
M  V30 4780 H 439.602 -5.24415 -0.0943638 0
M  V30 4781 H 441.076 -5.21678 -1.80433 0
M  V30 4782 H 441.553 -3.64707 -2.44716 0
M  V30 4783 H 442.159 -4.16568 -0.857409 0
M  V30 4784 N 440.474 -0.00167713 -1.576 0
M  V30 4785 C 441.723 0.682021 -1.89819 0
M  V30 4786 C 442.036 1.74844 -0.876871 0
M  V30 4787 O 443.242 2.48688 -1.08934 0
M  V30 4788 C 441.698 1.26425 -3.36964 0
M  V30 4789 C 441.306 0.232568 -4.47396 0
M  V30 4790 C 443.05 1.92604 -3.78291 0
M  V30 4791 C 440.957 0.824882 -5.85619 0
M  V30 4792 H 439.887 0.258499 -0.708304 0
M  V30 4793 H 442.538 -0.0624957 -1.83394 0
M  V30 4794 H 440.92 2.05949 -3.38232 0
M  V30 4795 H 442.094 -0.5382 -4.57646 0
M  V30 4796 H 440.409 -0.32888 -4.15099 0
M  V30 4797 H 443.006 2.37827 -4.78897 0
M  V30 4798 H 443.349 2.75732 -3.11894 0
M  V30 4799 H 443.882 1.19812 -3.79328 0
M  V30 4800 H 440.621 0.0323542 -6.55492 0
M  V30 4801 H 440.141 1.56477 -5.79029 0
M  V30 4802 H 441.82 1.32301 -6.33329 0
M  V30 4803 N 441.952 1.55251 0.271103 0
M  V30 4804 C 443.199 1.75946 1.00245 0
M  V30 4805 C 443.527 0.561611 1.86215 0
M  V30 4806 O 442.782 -0.455832 1.90317 0
M  V30 4807 C 443.081 3.01879 1.91321 0
M  V30 4808 C 442.747 4.34337 1.21086 0
M  V30 4809 C 441.409 4.70338 1.01666 0
M  V30 4810 C 443.761 5.16325 0.71119 0
M  V30 4811 C 441.089 5.8588 0.310099 0
M  V30 4812 C 443.441 6.32597 0.0182157 0
M  V30 4813 C 442.105 6.67236 -0.18768 0
M  V30 4814 H 441.375 0.643833 0.366824 0
M  V30 4815 H 444.022 1.89521 0.27458 0
M  V30 4816 H 442.327 2.83212 2.70736 0
M  V30 4817 H 444.024 3.15088 2.48033 0
M  V30 4818 H 440.614 4.06043 1.37213 0
M  V30 4819 H 444.798 4.88987 0.848844 0
M  V30 4820 H 440.054 6.1124 0.139873 0
M  V30 4821 H 444.228 6.9538 -0.376711 0
M  V30 4822 H 441.855 7.56618 -0.73715 0
M  V30 4823 N 443.43 -0.535701 1.48216 0
M  V30 4824 C 444.707 -1.29683 1.46429 0
M  V30 4825 C 445.087 -2.10391 0.172852 0
M  V30 4826 O 444.435 -2.12282 -0.845488 0
M  V30 4827 C 444.645 -2.18313 2.72287 0
M  V30 4828 C 445.993 -2.78639 3.20383 0
M  V30 4829 O 447.017 -2.28604 2.73164 0
M  V30 4830 O 445.876 -3.69636 4.02531 0
M  V30 4831 H 442.97 -0.585026 0.584529 0
M  V30 4832 H 445.516 -0.552827 1.60443 0
M  V30 4833 H 444.288 -1.58421 3.57797 0
M  V30 4834 H 443.911 -2.99971 2.60966 0
M  V30 4835 N 444.908 -1.36708 -0.784132 0
M  V30 4836 C 446.154 -1.31426 -1.54451 0
M  V30 4837 C 446.487 0.10476 -1.93917 0
M  V30 4838 O 445.762 1.05934 -1.6312 0
M  V30 4839 C 446.045 -2.24189 -2.818 0
M  V30 4840 C 445.898 -3.74813 -2.48667 0
M  V30 4841 C 447.217 -2.15626 -3.83658 0
M  V30 4842 H 444.336 -0.478739 -0.560337 0
M  V30 4843 H 446.978 -1.67305 -0.900498 0
M  V30 4844 H 445.128 -1.93722 -3.36755 0
M  V30 4845 H 446.8 -4.15823 -1.99722 0
M  V30 4846 H 445.043 -3.93989 -1.81535 0
M  V30 4847 H 445.714 -4.35138 -3.39646 0
M  V30 4848 H 448.19 -2.42456 -3.38163 0
M  V30 4849 H 447.066 -2.82694 -4.70506 0
M  V30 4850 H 447.327 -1.14522 -4.27009 0
M  V30 4851 N 446.386 1.0089 -1.21074 0
M  V30 4852 C 447.797 1.56056 -1.02486 0
M  V30 4853 C 448.148 1.91728 0.416506 0
M  V30 4854 O 447.273 1.73066 1.29912 0
M  V30 4855 C 447.868 2.83563 -1.85411 0
M  V30 4856 C 446.427 3.3523 -1.71166 0
M  V30 4857 C 445.574 2.0846 -1.82865 0
M  V30 4858 H 448.525 0.831818 -1.35154 0
M  V30 4859 H 448.546 3.55286 -1.36205 0
M  V30 4860 H 448.058 2.57569 -2.9031 0
M  V30 4861 H 446.159 3.66167 -0.689361 0
M  V30 4862 H 446.272 4.06913 -2.52901 0
M  V30 4863 H 444.636 2.21275 -1.26132 0
M  V30 4864 H 445.419 1.84883 -2.89263 0
M  V30 4865 N 447.864 1.01787 1.20321 0
M  V30 4866 C 449.11 0.708985 1.90003 0
M  V30 4867 C 449.443 -0.759572 1.78729 0
M  V30 4868 O 448.718 -1.55198 1.17234 0
M  V30 4869 C 449.001 1.1469 3.41348 0
M  V30 4870 C 448.854 2.67586 3.61549 0
M  V30 4871 C 450.173 0.71915 4.34185 0
M  V30 4872 H 447.292 0.259034 0.689978 0
M  V30 4873 H 449.934 1.26584 1.41692 0
M  V30 4874 H 448.084 0.673128 3.82624 0
M  V30 4875 H 449.756 3.22826 3.29517 0
M  V30 4876 H 447.999 3.085 3.04976 0
M  V30 4877 H 448.67 2.93281 4.67643 0
M  V30 4878 H 451.146 1.12647 4.00562 0
M  V30 4879 H 450.022 1.05358 5.38694 0
M  V30 4880 H 450.283 -0.379111 4.40472 0
M  V30 4881 N 449.342 -1.36122 0.79427 0
M  V30 4882 C 450.252 -2.33769 0.197296 0
M  V30 4883 C 451.268 -1.61276 -0.653153 0
M  V30 4884 O 452.444 -1.9323 -0.5678 0
M  V30 4885 C 449.509 -3.40474 -0.654098 0
M  V30 4886 C 448.57 -4.28759 0.215411 0
M  V30 4887 C 447.803 -5.30368 -0.595443 0
M  V30 4888 O 448.026 -5.40211 -1.83107 0
M  V30 4889 O 446.96 -6.019 0.00721351 0
M  V30 4890 H 450.786 -2.86597 1.00478 0
M  V30 4891 H 448.371 -1.38676 0.555818 0
M  V30 4892 H 450.253 -4.05703 -1.13944 0
M  V30 4893 H 448.928 -2.89937 -1.43938 0
M  V30 4894 H 447.835 -3.66554 0.747615 0
M  V30 4895 H 449.168 -4.82661 0.964332 0
M  V30 4896 N 450.82 -0.546701 -1.47814 0
M  V30 4897 C 452.236 -0.205717 -1.58269 0
M  V30 4898 C 452.436 1.29153 -1.54667 0
M  V30 4899 O 451.492 2.07098 -1.44453 0
M  V30 4900 C 452.805 -0.823065 -2.89216 0
M  V30 4901 C 454.353 -0.793328 -3.02779 0
M  V30 4902 C 454.828 -1.38955 -4.36412 0
M  V30 4903 N 456.319 -1.35227 -4.43021 0
M  V30 4904 C 457.054 -1.78333 -5.44963 0
M  V30 4905 N 456.55 -2.29246 -6.53772 0
M  V30 4906 N 458.343 -1.69467 -5.35945 0
M  V30 4907 H 450.494 -1.5196 -1.48398 0
M  V30 4908 H 452.757 -0.633078 -0.705632 0
M  V30 4909 H 452.463 -1.8749 -2.97558 0
M  V30 4910 H 452.337 -0.309915 -3.75925 0
M  V30 4911 H 454.724 0.249784 -2.94041 0
M  V30 4912 H 454.805 -1.34412 -2.17639 0
M  V30 4913 H 454.449 -2.43168 -4.45906 0
M  V30 4914 H 454.379 -0.814291 -5.20266 0
M  V30 4915 H 456.87 -0.979739 -3.64979 0
M  V30 4916 H 457.183 -2.60089 -7.27718 0
M  V30 4917 H 455.528 -2.3325 -6.5469 0
M  V30 4918 H 458.719 -1.29477 -4.49837 0
M  V30 4919 H 458.892 -2.03381 -6.15256 0
M  V30 4920 N 452.299 1.55045 -0.282633 0
M  V30 4921 C 453.545 2.00056 0.332481 0
M  V30 4922 C 453.878 1.1708 1.54939 0
M  V30 4923 O 453.153 0.2427 1.9298 0
M  V30 4924 C 453.436 3.53086 0.70725 0
M  V30 4925 C 453.289 4.46813 -0.517521 0
M  V30 4926 C 454.608 4.12245 1.54084 0
M  V30 4927 H 451.727 0.727268 0.119373 0
M  V30 4928 H 454.369 1.85932 -0.391076 0
M  V30 4929 H 452.519 3.65253 1.32372 0
M  V30 4930 H 454.191 4.46579 -1.15607 0
M  V30 4931 H 452.434 4.18163 -1.1542 0
M  V30 4932 H 453.105 5.51595 -0.211426 0
M  V30 4933 H 455.581 4.03401 1.02013 0
M  V30 4934 H 454.457 5.19515 1.77186 0
M  V30 4935 H 454.718 3.62951 2.52427 0
M  V30 4936 N 453.777 0.010035 1.57597 0
M  V30 4937 C 454.709 -1.00649 2.05918 0
M  V30 4938 C 455.722 -1.30077 0.978964 0
M  V30 4939 O 456.911 -1.26878 1.25556 0
M  V30 4940 C 454.011 -2.33876 2.45265 0
M  V30 4941 C 453.184 -2.23242 3.7614 0
M  V30 4942 C 452.243 -3.39242 4.02245 0
M  V30 4943 O 451.269 -3.1698 4.72771 0
M  V30 4944 N 452.471 -4.6242 3.50924 0
M  V30 4945 H 455.236 -0.594333 2.93748 0
M  V30 4946 H 452.797 -0.17714 1.60928 0
M  V30 4947 H 454.789 -3.1027 2.59836 0
M  V30 4948 H 453.359 -2.66799 1.62902 0
M  V30 4949 H 452.579 -1.31696 3.71551 0
M  V30 4950 H 453.867 -2.13321 4.61922 0
M  V30 4951 H 453.265 -4.83404 2.93832 0
M  V30 4952 H 451.822 -5.36046 3.70807 0
M  V30 4953 N 455.255 -1.55392 -0.262866 0
M  V30 4954 C 456.666 -1.67079 -0.833158 0
M  V30 4955 C 457.017 -0.604539 -1.86654 0
M  V30 4956 O 456.142 0.252138 -2.14926 0
M  V30 4957 C 456.737 -3.02891 -1.51797 0
M  V30 4958 C 455.296 -3.16571 -2.03617 0
M  V30 4959 C 454.443 -2.62909 -0.881701 0
M  V30 4960 H 457.394 -1.58652 -0.0389986 0
M  V30 4961 H 457.415 -2.96445 -2.38538 0
M  V30 4962 H 456.927 -3.80473 -0.765619 0
M  V30 4963 H 455.028 -2.43782 -2.81782 0
M  V30 4964 H 455.141 -4.23271 -2.24452 0
M  V30 4965 H 453.505 -2.20324 -1.27786 0
M  V30 4966 H 454.288 -3.43003 -0.14269 0
M  V30 4967 N 456.733 0.527833 -1.48498 0
M  V30 4968 C 457.98 1.28354 -1.56625 0
M  V30 4969 C 458.308 1.93 -0.241096 0
M  V30 4970 O 457.563 1.79967 0.768798 0
M  V30 4971 C 457.862 2.39275 -2.65485 0
M  V30 4972 C 457.528 1.92268 -4.07853 0
M  V30 4973 C 456.19 1.79166 -4.46602 0
M  V30 4974 C 458.542 1.56771 -4.97064 0
M  V30 4975 C 455.87 1.28905 -5.72364 0
M  V30 4976 C 458.222 1.07972 -6.23318 0
M  V30 4977 C 456.886 0.934887 -6.60921 0
M  V30 4978 H 456.156 0.469682 -0.573131 0
M  V30 4979 H 458.803 0.588781 -1.82224 0
M  V30 4980 H 457.108 3.1443 -2.33754 0
M  V30 4981 H 458.805 2.974 -2.68988 0
M  V30 4982 H 455.395 2.03417 -3.77252 0
M  V30 4983 H 459.579 1.65753 -4.67803 0
M  V30 4984 H 454.835 1.16381 -6.00221 0
M  V30 4985 H 459.009 0.795775 -6.91838 0
M  V30 4986 H 456.636 0.543231 -7.58257 0
M  V30 4987 N 458.211 1.37122 0.776871 0
M  V30 4988 C 459.441 1.35034 1.56363 0
M  V30 4989 C 459.849 -0.0674681 1.8908 0
M  V30 4990 O 459.192 -1.03826 1.51545 0
M  V30 4991 C 459.254 2.11894 2.90415 0
M  V30 4992 C 458.918 3.60897 2.80362 0
M  V30 4993 C 459.915 4.54887 2.51742 0
M  V30 4994 C 457.6 4.03951 2.98545 0
M  V30 4995 C 459.594 5.89909 2.41426 0
M  V30 4996 C 457.281 5.3906 2.87849 0
M  V30 4997 C 458.279 6.31852 2.5933 0
M  V30 4998 O 457.967 7.64479 2.48651 0
M  V30 4999 H 457.699 0.464402 0.49123 0
M  V30 5000 H 460.253 1.80992 0.971127 0
M  V30 5001 H 458.483 1.60618 3.51765 0
M  V30 5002 H 460.172 2.02505 3.51776 0
M  V30 5003 H 460.938 4.22934 2.37385 0
M  V30 5004 H 456.817 3.3209 3.19746 0
M  V30 5005 H 460.361 6.62304 2.19086 0
M  V30 5006 H 456.258 5.70617 3.01773 0
M  V30 5007 H 457.026 7.74742 2.64039 0
M  V30 5008 N 459.689 -1.00246 1.21608 0
M  V30 5009 C 460.652 -2.07233 0.979133 0
M  V30 5010 C 461.652 -1.6072 -0.0508219 0
M  V30 5011 O 462.842 -1.73196 0.186712 0
M  V30 5012 C 459.974 -3.37546 0.477016 0
M  V30 5013 H 461.167 -2.29687 1.92831 0
M  V30 5014 H 458.72 -1.17261 1.03342 0
M  V30 5015 H 459.455 -3.20773 -0.476966 0
M  V30 5016 H 459.24 -3.72638 1.21997 0
M  V30 5017 H 460.73 -4.16285 0.331181 0
M  V30 5018 N 461.167 -1.02423 -1.1978 0
M  V30 5019 C 462.13 -0.605703 -2.21052 0
M  V30 5020 C 463.13 0.328209 -1.57415 0
M  V30 5021 O 464.32 0.115853 -1.73814 0
M  V30 5022 C 461.452 0.114366 -3.40708 0
M  V30 5023 H 462.645 -1.5017 -2.59594 0
M  V30 5024 H 460.198 -0.814888 -1.33376 0
M  V30 5025 H 460.933 1.02492 -3.07678 0
M  V30 5026 H 460.718 -0.556641 -3.88129 0
M  V30 5027 H 462.208 0.394272 -4.15735 0
M  V30 5028 N 462.645 1.35699 -0.801477 0
M  V30 5029 C 463.575 2.32436 -0.222658 0
M  V30 5030 C 464.556 1.5723 0.649057 0
M  V30 5031 O 465.741 1.85324 0.580387 0
M  V30 5032 C 462.871 3.41469 0.633719 0
M  V30 5033 C 461.825 4.27774 -0.139083 0
M  V30 5034 C 461.151 5.28082 0.838666 0
M  V30 5035 C 462.451 5.04946 -1.33517 0
M  V30 5036 H 464.145 2.81094 -1.03086 0
M  V30 5037 H 461.691 1.35146 -0.497155 0
M  V30 5038 H 463.644 4.08143 1.04868 0
M  V30 5039 H 462.368 2.91408 1.47475 0
M  V30 5040 H 461.027 3.62673 -0.535156 0
M  V30 5041 H 460.675 4.7429 1.67506 0
M  V30 5042 H 460.375 5.86695 0.32594 0
M  V30 5043 H 461.899 5.97628 1.25194 0
M  V30 5044 H 463.313 5.64593 -0.995349 0
M  V30 5045 H 461.71 5.7303 -1.78202 0
M  V30 5046 H 462.78 4.35886 -2.12442 0
M  V30 5047 N 464.123 0.554532 1.47522 0
M  V30 5048 C 465.07 -0.19466 2.29978 0
M  V30 5049 C 466.04 -0.910882 1.38896 0
M  V30 5050 O 467.225 -0.907102 1.67858 0
M  V30 5051 C 464.365 -1.22035 3.22802 0
M  V30 5052 C 463.478 -0.510474 4.28973 0
M  V30 5053 C 462.613 -1.52123 5.08952 0
M  V30 5054 C 461.652 -0.796173 6.069 0
M  V30 5055 N 460.789 -1.75363 6.79847 0
M  V30 5056 H 465.629 0.51461 2.93523 0
M  V30 5057 H 463.166 0.265607 1.44682 0
M  V30 5058 H 465.124 -1.8276 3.7504 0
M  V30 5059 H 463.754 -1.89769 2.61127 0
M  V30 5060 H 462.806 0.211234 3.79813 0
M  V30 5061 H 464.118 0.0576503 4.98767 0
M  V30 5062 H 463.272 -2.20207 5.65326 0
M  V30 5063 H 462.011 -2.12327 4.39054 0
M  V30 5064 H 461.016 -0.101388 5.49707 0
M  V30 5065 H 462.241 -0.199911 6.78806 0
M  V30 5066 H 460.187 -2.3443 6.12682 0
M  V30 5067 H 460.104 -1.23759 7.45801 0
M  V30 5068 H 461.372 -2.4257 7.40797 0
M  V30 5069 N 465.601 -1.54893 0.290851 0
M  V30 5070 C 466.511 -2.26812 -0.59945 0
M  V30 5071 C 467.527 -1.29963 -1.15696 0
M  V30 5072 O 468.703 -1.62928 -1.18391 0
M  V30 5073 C 465.768 -2.98716 -1.75982 0
M  V30 5074 C 464.829 -4.1108 -1.2374 0
M  V30 5075 C 464.062 -4.79546 -2.34246 0
M  V30 5076 O 464.285 -4.47309 -3.53936 0
M  V30 5077 O 463.219 -5.67165 -2.01512 0
M  V30 5078 H 467.045 -3.03696 -0.0163561 0
M  V30 5079 H 464.63 -1.49289 0.0576755 0
M  V30 5080 H 466.512 -3.43851 -2.43607 0
M  V30 5081 H 465.187 -2.24737 -2.3297 0
M  V30 5082 H 464.094 -3.70367 -0.527163 0
M  V30 5083 H 465.427 -4.87007 -0.71307 0
M  V30 5084 N 467.08 -0.0183926 -1.57589 0
M  V30 5085 C 468.327 0.662562 -1.91354 0
M  V30 5086 C 468.655 1.72747 -0.893788 0
M  V30 5087 O 467.91 1.9545 0.0988509 0
M  V30 5088 C 468.209 1.32676 -3.31861 0
M  V30 5089 C 467.875 0.393267 -4.49182 0
M  V30 5090 C 466.537 0.136302 -4.81007 0
M  V30 5091 C 468.889 -0.248366 -5.20608 0
M  V30 5092 C 466.217 -0.770282 -5.81621 0
M  V30 5093 C 468.569 -1.14294 -6.22189 0
M  V30 5094 C 467.233 -1.4089 -6.52462 0
M  V30 5095 H 466.503 0.242448 -0.700214 0
M  V30 5096 H 469.15 -0.0778629 -1.91342 0
M  V30 5097 H 467.455 2.14168 -3.28084 0
M  V30 5098 H 469.152 1.86001 -3.55253 0
M  V30 5099 H 465.742 0.603723 -4.24327 0
M  V30 5100 H 469.926 -0.062883 -4.9626 0
M  V30 5101 H 465.182 -0.984154 -6.03427 0
M  V30 5102 H 469.356 -1.64637 -6.76659 0
M  V30 5103 H 466.983 -2.11306 -7.30242 0
M  V30 5104 N 468.558 1.5553 0.254621 0
M  V30 5105 C 469.804 1.77262 0.985193 0
M  V30 5106 C 470.137 0.582286 1.85265 0
M  V30 5107 O 469.412 -0.419666 1.89919 0
M  V30 5108 C 469.695 3.0881 1.85225 0
M  V30 5109 C 469.548 4.38233 1.0135 0
M  V30 5110 C 470.867 3.3653 2.83612 0
M  V30 5111 H 467.986 0.644906 0.356742 0
M  V30 5112 H 470.628 1.88264 0.256236 0
M  V30 5113 H 468.778 2.99562 2.47376 0
M  V30 5114 H 470.45 4.59463 0.411269 0
M  V30 5115 H 468.693 4.32636 0.317574 0
M  V30 5116 H 469.364 5.26644 1.65379 0
M  V30 5117 H 471.84 3.45691 2.31596 0
M  V30 5118 H 470.716 4.29805 3.41407 0
M  V30 5119 H 470.977 2.57064 3.59681 0
M  V30 5120 N 470.036 -0.519951 1.48776 0
M  V30 5121 C 471.313 -1.28123 1.47797 0
M  V30 5122 C 471.693 -2.10196 0.195157 0
M  V30 5123 O 471.041 -2.13167 -0.822925 0
M  V30 5124 C 471.251 -2.15413 2.74587 0
M  V30 5125 C 472.599 -2.75225 3.23321 0
M  V30 5126 O 473.623 -2.25694 2.75574 0
M  V30 5127 O 472.482 -3.65346 4.06429 0
M  V30 5128 H 469.576 -0.578793 0.590701 0
M  V30 5129 H 472.122 -0.535779 1.6102 0
M  V30 5130 H 470.894 -1.54617 3.59457 0
M  V30 5131 H 470.517 -2.97186 2.64132 0
M  V30 5132 N 471.514 -1.37532 -0.769588 0
M  V30 5133 C 472.444 -1.36172 -1.89682 0
M  V30 5134 C 473.425 -0.23001 -1.68538 0
M  V30 5135 O 474.61 -0.43069 -1.89364 0
M  V30 5136 C 471.74 -1.1701 -3.26995 0
M  V30 5137 C 470.694 -2.27216 -3.62708 0
M  V30 5138 C 470.02 -1.93174 -4.98586 0
M  V30 5139 C 471.32 -3.6941 -3.69234 0
M  V30 5140 H 473.014 -2.30499 -1.91078 0
M  V30 5141 H 470.56 -1.10953 -0.917902 0
M  V30 5142 H 472.513 -1.14688 -4.05493 0
M  V30 5143 H 471.237 -0.191395 -3.26039 0
M  V30 5144 H 469.896 -2.28697 -2.86519 0
M  V30 5145 H 469.544 -0.938281 -4.94171 0
M  V30 5146 H 469.244 -2.66973 -5.23449 0
M  V30 5147 H 470.768 -1.92443 -5.79481 0
M  V30 5148 H 472.182 -3.70047 -4.37879 0
M  V30 5149 H 470.579 -4.4228 -4.05597 0
M  V30 5150 H 471.649 -4.0288 -2.69844 0
M  V30 5151 N 472.992 0.995999 -1.22138 0
M  V30 5152 C 473.925 2.08302 -0.931952 0
M  V30 5153 C 474.903 1.62127 0.123956 0
M  V30 5154 O 476.087 1.88499 -0.00696004 0
M  V30 5155 C 473.214 3.36317 -0.401068 0
M  V30 5156 C 472.26 4.01413 -1.44117 0
M  V30 5157 S 473.093 4.42664 -3.01345 0
M  V30 5158 C 474.249 5.73853 -2.49887 0
M  V30 5159 H 474.482 2.32532 -1.85246 0
M  V30 5160 H 472.015 1.13005 -1.0521 0
M  V30 5161 H 473.973 4.10375 -0.101352 0
M  V30 5162 H 472.634 3.10123 0.498272 0
M  V30 5163 H 471.827 4.9358 -1.01952 0
M  V30 5164 H 471.429 3.33668 -1.68943 0
M  V30 5165 H 473.721 6.50039 -1.90934 0
M  V30 5166 H 474.664 6.20841 -3.40532 0
M  V30 5167 H 475.072 5.31105 -1.9128 0
M  V30 5168 N 474.47 1.03057 1.19235 0
M  V30 5169 C 475.418 0.606391 2.24557 0
M  V30 5170 C 476.412 -0.361826 1.65491 0
M  V30 5171 O 477.618 -0.23022 1.78522 0
M  V30 5172 H 473.993 0.177838 0.730669 0
M  V30 5173 H 475.964 1.50529 2.5765 0
M  V30 5174 C 474.713 -0.0252127 3.47691 0
M  V30 5175 H 474.036 0.710838 3.9343 0
M  V30 5176 H 475.476 -0.284931 4.23042 0
M  V30 5177 C 473.935 -1.27229 3.11953 0
M  V30 5178 O 474.465 -2.36416 3.24762 0
M  V30 5179 N 472.671 -1.16169 2.6637 0
M  V30 5180 H 472.218 -0.273189 2.56147 0
M  V30 5181 H 472.176 -1.99703 2.42829 0
M  V30 5182 N 475.948 -1.35272 0.808662 0
M  V30 5183 C 477.173 -2.03477 0.401475 0
M  V30 5184 C 477.598 -1.60537 -0.980279 0
M  V30 5185 O 476.956 -0.78304 -1.63518 0
M  V30 5186 C 477.004 -3.57181 0.495354 0
M  V30 5187 O 476.108 -4.09474 -0.490397 0
M  V30 5188 H 475.449 -0.642561 0.167366 0
M  V30 5189 H 477.979 -1.72824 1.09512 0
M  V30 5190 H 477.989 -4.06356 0.365912 0
M  V30 5191 H 476.664 -3.87784 1.5032 0
M  V30 5192 H 475.241 -3.71516 -0.321023 0
M  V30 5193 N 477.426 -0.562348 -1.47226 0
M  V30 5194 C 478.373 0.182461 -2.30078 0
M  V30 5195 C 479.343 0.903503 -1.39377 0
M  V30 5196 O 480.528 0.898188 -1.68337 0
M  V30 5197 C 477.668 1.20322 -3.23445 0
M  V30 5198 C 476.781 0.487717 -4.29238 0
M  V30 5199 C 475.916 1.49422 -5.09752 0
M  V30 5200 C 474.955 0.763976 -6.07314 0
M  V30 5201 N 474.092 1.71755 -6.80768 0
M  V30 5202 H 478.932 -0.530169 -2.93246 0
M  V30 5203 H 476.469 -0.273276 -1.44539 0
M  V30 5204 H 478.427 1.80768 -3.76004 0
M  V30 5205 H 477.057 1.88382 -2.6213 0
M  V30 5206 H 476.109 -0.231374 -3.79696 0
M  V30 5207 H 477.421 -0.0841003 -4.98729 0
M  V30 5208 H 476.575 2.17206 -5.66486 0
M  V30 5209 H 475.314 2.09995 -4.40174 0
M  V30 5210 H 474.319 0.0722344 -5.49753 0
M  V30 5211 H 475.544 0.16391 -6.78902 0
M  V30 5212 H 473.49 2.31177 -6.13916 0
M  V30 5213 H 473.407 1.19802 -7.46447 0
M  V30 5214 H 474.675 2.38638 -7.42073 0
M  V30 5215 N 478.904 1.54736 -0.299062 0
M  V30 5216 C 479.814 2.27127 0.587413 0
M  V30 5217 C 480.83 1.30575 1.15005 0
M  V30 5218 O 482.006 1.63554 1.17525 0
M  V30 5219 C 479.071 2.99645 1.74395 0
M  V30 5220 C 478.132 4.11731 1.21559 0
M  V30 5221 C 477.365 4.80781 2.317 0
M  V30 5222 O 477.588 4.4918 3.51558 0
M  V30 5223 O 476.522 5.68226 1.98501 0
M  V30 5224 H 480.348 3.037 0.000250109 0
M  V30 5225 H 477.933 1.49256 -0.0655919 0
M  V30 5226 H 479.815 3.45138 2.4178 0
M  V30 5227 H 478.49 2.25969 2.31775 0
M  V30 5228 H 477.397 3.70641 0.507514 0
M  V30 5229 H 478.73 4.87379 0.687233 0
M  V30 5230 N 480.382 0.0267497 1.57577 0
M  V30 5231 C 481.607 -0.666227 1.96408 0
M  V30 5232 C 482.032 -1.65004 0.903071 0
M  V30 5233 O 481.39 -1.80787 -0.136263 0
M  V30 5234 C 481.438 -1.35101 3.34335 0
M  V30 5235 O 480.542 -2.46623 3.30531 0
M  V30 5236 H 479.883 -0.175206 0.640468 0
M  V30 5237 H 482.413 0.0878977 2.04411 0
M  V30 5238 H 482.423 -1.70834 3.70513 0
M  V30 5239 H 481.098 -0.629844 4.11103 0
M  V30 5240 H 479.675 -2.13019 3.06068 0
M  V30 5241 N 481.861 -1.55662 -0.24637 0
M  V30 5242 C 482.808 -1.90361 -1.30504 0
M  V30 5243 C 483.778 -0.757905 -1.47801 0
M  V30 5244 O 484.963 -1.01161 -1.61775 0
M  V30 5245 C 482.103 -2.2042 -2.65535 0
M  V30 5246 C 481.216 -3.47799 -2.56242 0
M  V30 5247 C 480.351 -3.67426 -3.8363 0
M  V30 5248 C 479.39 -4.88403 -3.68956 0
M  V30 5249 N 478.527 -5.04548 -4.88237 0
M  V30 5250 H 483.367 -2.80645 -1.00213 0
M  V30 5251 H 480.904 -1.38924 -0.483577 0
M  V30 5252 H 482.862 -2.35853 -3.44135 0
M  V30 5253 H 481.492 -1.3334 -2.93973 0
M  V30 5254 H 480.544 -3.40694 -1.69208 0
M  V30 5255 H 481.856 -4.36544 -2.4131 0
M  V30 5256 H 481.01 -3.82821 -4.70673 0
M  V30 5257 H 479.749 -2.76914 -4.01459 0
M  V30 5258 H 478.754 -4.72984 -2.80296 0
M  V30 5259 H 479.979 -5.80375 -3.52621 0
M  V30 5260 H 477.925 -4.16974 -5.06427 0
M  V30 5261 H 477.842 -5.87384 -4.75937 0
M  V30 5262 H 479.11 -5.24355 -5.76777 0
M  V30 5263 N 483.339 0.512053 -1.4905 0
M  V30 5264 C 484.586 1.26686 -1.57978 0
M  V30 5265 C 484.914 1.92733 -0.261553 0
M  V30 5266 O 484.169 1.80772 0.749667 0
M  V30 5267 C 484.468 2.36446 -2.68008 0
M  V30 5268 C 484.134 1.87932 -4.09869 0
M  V30 5269 C 482.796 1.74419 -4.48477 0
M  V30 5270 C 485.148 1.5149 -4.98698 0
M  V30 5271 C 482.476 1.22827 -5.73699 0
M  V30 5272 C 484.828 1.01355 -6.24428 0
M  V30 5273 C 483.492 0.864735 -6.61875 0
M  V30 5274 H 482.762 0.463577 -0.578081 0
M  V30 5275 H 485.409 0.569421 -1.82838 0
M  V30 5276 H 483.714 3.11933 -2.37076 0
M  V30 5277 H 485.411 2.9453 -2.72127 0
M  V30 5278 H 482.001 1.99405 -3.79389 0
M  V30 5279 H 486.185 1.60782 -4.69535 0
M  V30 5280 H 481.441 1.10008 -6.01422 0
M  V30 5281 H 485.615 0.722351 -6.92644 0
M  V30 5282 H 483.242 0.462777 -7.5879 0
M  V30 5283 N 484.817 1.37938 0.762283 0
M  V30 5284 C 486.045 1.36883 1.55147 0
M  V30 5285 C 486.46 -0.0435348 1.8875 0
M  V30 5286 O 485.817 -1.00786 1.52146 0
M  V30 5287 C 485.868 2.21624 2.85596 0
M  V30 5288 O 485.589 3.57358 2.5343 0
M  V30 5289 C 487.09 2.28653 3.7978 0
M  V30 5290 H 484.31 0.468521 0.480343 0
M  V30 5291 H 486.854 1.81404 0.944079 0
M  V30 5292 H 485.009 1.80588 3.42734 0
M  V30 5293 H 485.423 4.01883 3.37032 0
M  V30 5294 H 486.897 2.9225 4.68288 0
M  V30 5295 H 487.374 1.29767 4.19592 0
M  V30 5296 H 487.98 2.70043 3.28568 0
M  V30 5297 N 486.295 -0.989507 1.22664 0
M  V30 5298 C 487.542 -1.72953 1.05325 0
M  V30 5299 C 487.87 -1.90104 -0.411168 0
M  V30 5300 O 487.125 -1.44386 -1.32103 0
M  V30 5301 C 487.424 -3.13649 1.71345 0
M  V30 5302 C 487.09 -3.16403 3.21248 0
M  V30 5303 C 485.752 -3.16862 3.62149 0
M  V30 5304 C 488.104 -3.12428 4.17179 0
M  V30 5305 C 485.432 -3.11051 4.97458 0
M  V30 5306 C 487.784 -3.08159 5.52468 0
M  V30 5307 C 486.448 -3.06935 5.92746 0
M  V30 5308 H 485.718 -0.632881 0.385412 0
M  V30 5309 H 488.365 -1.15863 1.52473 0
M  V30 5310 H 486.67 -3.74069 1.16532 0
M  V30 5311 H 488.367 -3.69658 1.55416 0
M  V30 5312 H 484.957 -3.16798 2.88682 0
M  V30 5313 H 489.141 -3.11221 3.86595 0
M  V30 5314 H 484.397 -3.0845 5.27891 0
M  V30 5315 H 488.571 -3.04039 6.26525 0
M  V30 5316 H 486.198 -3.02186 6.97558 0
M  V30 5317 N 487.773 -1.03688 -1.18687 0
M  V30 5318 C 488.72 -0.624624 -2.22187 0
M  V30 5319 C 489.69 0.365636 -1.62026 0
M  V30 5320 O 490.875 0.260481 -1.89014 0
M  V30 5321 C 488.015 0.0101738 -3.45099 0
M  V30 5322 C 487.128 -1.02709 -4.19613 0
M  V30 5323 C 486.263 -0.361213 -5.2997 0
M  V30 5324 C 485.302 -1.38384 -5.96252 0
M  V30 5325 N 484.439 -0.743196 -6.98155 0
M  V30 5326 H 489.279 -1.51176 -2.56807 0
M  V30 5327 H 486.816 -0.75636 -1.26165 0
M  V30 5328 H 488.774 0.395528 -4.15321 0
M  V30 5329 H 487.404 0.860848 -3.1111 0
M  V30 5330 H 486.456 -1.53043 -3.48256 0
M  V30 5331 H 487.768 -1.80398 -4.65036 0
M  V30 5332 H 486.922 0.0785537 -6.06649 0
M  V30 5333 H 485.661 0.447799 -4.8564 0
M  V30 5334 H 484.666 -1.83378 -5.18317 0
M  V30 5335 H 485.891 -2.19448 -6.42666 0
M  V30 5336 H 483.837 0.0455789 -6.55984 0
M  V30 5337 H 483.754 -1.45784 -7.41811 0
M  V30 5338 H 485.022 -0.327698 -7.78811 0
M  V30 5339 N 489.251 1.34841 -0.815825 0
M  V30 5340 C 490.184 2.27504 -0.178062 0
M  V30 5341 C 491.162 1.48542 0.661373 0
M  V30 5342 O 492.346 1.77779 0.626653 0
M  V30 5343 C 489.473 3.30246 0.752002 0
M  V30 5344 C 488.519 4.26499 -0.00899172 0
M  V30 5345 S 489.352 5.18169 -1.35134 0
M  V30 5346 C 490.508 6.24449 -0.42596 0
M  V30 5347 H 490.741 2.81248 -0.963684 0
M  V30 5348 H 488.274 1.41781 -0.611355 0
M  V30 5349 H 490.232 3.89933 1.28308 0
M  V30 5350 H 488.893 2.75363 1.51109 0
M  V30 5351 H 488.086 4.99146 0.697766 0
M  V30 5352 H 487.688 3.7103 -0.470396 0
M  V30 5353 H 489.98 6.76404 0.385234 0
M  V30 5354 H 490.923 6.99156 -1.1219 0
M  V30 5355 H 491.331 5.64497 -0.0175461 0
M  V30 5356 N 490.729 0.570148 1.46925 0
M  V30 5357 C 491.677 -0.183181 2.31878 0
M  V30 5358 C 492.671 -0.896721 1.43719 0
M  V30 5359 O 493.877 -0.816536 1.60414 0
M  V30 5360 H 490.252 -0.077944 0.74795 0
M  V30 5361 H 492.223 0.552312 2.93244 0
M  V30 5362 C 490.972 -1.19172 3.2664 0
M  V30 5363 H 490.295 -0.652088 3.94446 0
M  V30 5364 H 491.735 -1.68946 3.88887 0
M  V30 5365 C 490.194 -2.24627 2.51086 0
M  V30 5366 O 490.724 -3.31773 2.26472 0
M  V30 5367 N 488.93 -1.98898 2.11867 0
M  V30 5368 H 488.477 -1.11777 2.32086 0
M  V30 5369 H 488.435 -2.6967 1.61634 0
M  V30 5370 N 492.207 -1.54576 0.307264 0
M  V30 5371 C 493.618 -1.8579 -0.184121 0
M  V30 5372 C 493.969 -1.22914 -1.52927 0
M  V30 5373 O 493.094 -0.529126 -2.09831 0
M  V30 5374 C 493.689 -3.37081 -0.340862 0
M  V30 5375 C 492.248 -3.68304 -0.776465 0
M  V30 5376 C 491.395 -2.77076 0.111503 0
M  V30 5377 H 494.346 -1.49656 0.528078 0
M  V30 5378 H 494.367 -3.61922 -1.17443 0
M  V30 5379 H 493.879 -3.82815 0.638309 0
M  V30 5380 H 491.98 -3.28092 -1.76596 0
M  V30 5381 H 492.093 -4.75434 -0.591512 0
M  V30 5382 H 490.457 -2.51374 -0.410256 0
M  V30 5383 H 491.24 -3.25632 1.08714 0
M  V30 5384 N 493.685 -0.035106 -1.57561 0
M  V30 5385 C 494.933 0.64096 -1.91667 0
M  V30 5386 C 495.254 1.72323 -0.912681 0
M  V30 5387 O 494.524 1.95849 0.0449089 0
M  V30 5388 H 493.104 0.239743 -0.707483 0
M  V30 5389 H 495.766 -0.084321 -1.94718 0
M  V30 5390 H 494.862 1.08987 -2.92452 0
M  V30 5391 N 495.163 1.55791 0.238111 0
M  V30 5392 C 496.44 1.68798 0.98826 0
M  V30 5393 C 496.82 0.577562 2.03045 0
M  V30 5394 O 496.168 -0.41778 2.24648 0
M  V30 5395 C 496.378 3.09454 1.61367 0
M  V30 5396 C 497.726 3.68335 2.11221 0
M  V30 5397 O 498.75 3.1231 1.71292 0
M  V30 5398 O 497.609 4.6657 2.84561 0
M  V30 5399 H 494.703 0.686881 0.460568 0
M  V30 5400 H 497.249 1.68118 0.231202 0
M  V30 5401 H 496.021 3.81726 0.860295 0
M  V30 5402 H 495.644 3.14182 2.4367 0
M  V30 5403 N 496.642 -0.504142 1.49319 0
M  V30 5404 C 497.888 -1.26033 1.58882 0
M  V30 5405 C 498.221 -1.92268 0.273274 0
M  V30 5406 O 497.496 -1.80567 -0.72291 0
M  V30 5407 C 497.779 -2.32976 2.7458 0
M  V30 5408 C 497.632 -1.71263 4.1592 0
M  V30 5409 C 498.951 -3.34561 2.85932 0
M  V30 5410 H 496.07 -0.456863 0.578312 0
M  V30 5411 H 498.712 -0.558965 1.81592 0
M  V30 5412 H 496.862 -2.92796 2.55348 0
M  V30 5413 H 498.534 -1.15294 4.4666 0
M  V30 5414 H 496.777 -1.01686 4.21714 0
M  V30 5415 H 497.448 -2.48816 4.92742 0
M  V30 5416 H 499.924 -2.84727 3.0343 0
M  V30 5417 H 498.8 -4.06754 3.68568 0
M  V30 5418 H 499.061 -3.96695 1.95154 0
M  V30 5419 N 498.12 -1.38341 -0.754957 0
M  V30 5420 C 499.369 -1.33791 -1.5094 0
M  V30 5421 C 499.682 0.0699267 -1.95475 0
M  V30 5422 O 500.888 0.237956 -2.70455 0
M  V30 5423 C 499.344 -2.34934 -2.72643 0
M  V30 5424 C 498.952 -3.81332 -2.35138 0
M  V30 5425 C 500.696 -2.39425 -3.50536 0
M  V30 5426 C 498.603 -4.74164 -3.53444 0
M  V30 5427 H 497.533 -0.497314 -0.566741 0
M  V30 5428 H 500.184 -1.63888 -0.825403 0
M  V30 5429 H 498.566 -1.97878 -3.43017 0
M  V30 5430 H 499.74 -4.27319 -1.7244 0
M  V30 5431 H 498.055 -3.79946 -1.70382 0
M  V30 5432 H 500.652 -3.0598 -4.38498 0
M  V30 5433 H 500.995 -1.41278 -3.91594 0
M  V30 5434 H 501.528 -2.75274 -2.87174 0
M  V30 5435 H 498.267 -5.73501 -3.17453 0
M  V30 5436 H 497.787 -4.3287 -4.15191 0
M  V30 5437 H 499.466 -4.92111 -4.20043 0
M  V30 5438 N 499.598 0.982988 -1.23187 0
M  V30 5439 C 500.826 1.75921 -1.08901 0
M  V30 5440 C 501.241 1.85341 0.359719 0
M  V30 5441 O 500.598 1.33072 1.24892 0
M  V30 5442 C 500.649 3.18742 -1.70545 0
M  V30 5443 O 500.37 3.09814 -3.09753 0
M  V30 5444 C 501.871 4.1277 -1.61667 0
M  V30 5445 H 499.091 0.552166 -0.381252 0
M  V30 5446 H 501.635 1.23516 -1.62985 0
M  V30 5447 H 499.79 3.68182 -1.20501 0
M  V30 5448 H 500.204 3.99703 -3.39614 0
M  V30 5449 H 501.678 5.10697 -2.09506 0
M  V30 5450 H 502.155 4.3542 -0.575009 0
M  V30 5451 H 502.761 3.69232 -2.11064 0
M  V30 5452 N 501.076 1.04316 1.18135 0
M  V30 5453 C 502.323 0.74802 1.88178 0
M  V30 5454 C 502.651 -0.72441 1.80506 0
M  V30 5455 O 501.906 -1.54463 1.20165 0
M  V30 5456 C 502.205 1.16271 3.37958 0
M  V30 5457 C 501.871 2.63585 3.65833 0
M  V30 5458 C 500.533 3.03829 3.73151 0
M  V30 5459 C 502.885 3.58822 3.78016 0
M  V30 5460 C 500.213 4.38194 3.90132 0
M  V30 5461 C 502.565 4.92909 3.96514 0
M  V30 5462 C 501.229 5.3282 4.02068 0
M  V30 5463 H 500.499 0.27372 0.688592 0
M  V30 5464 H 503.146 1.30863 1.39811 0
M  V30 5465 H 501.451 0.520938 3.88321 0
M  V30 5466 H 503.148 0.911672 3.90499 0
M  V30 5467 H 499.738 2.31414 3.60757 0
M  V30 5468 H 503.922 3.28875 3.71692 0
M  V30 5469 H 499.178 4.68631 3.92677 0
M  V30 5470 H 503.352 5.66606 4.04883 0
M  V30 5471 H 500.979 6.36943 4.14979 0
M  V30 5472 N 502.554 -1.34406 0.822964 0
M  V30 5473 C 503.831 -1.92733 0.333641 0
M  V30 5474 C 504.211 -1.75107 -1.17901 0
M  V30 5475 O 503.559 -1.12983 -1.98613 0
M  V30 5476 C 503.769 -3.40557 0.763023 0
M  V30 5477 C 505.117 -4.17709 0.761879 0
M  V30 5478 O 506.141 -3.49141 0.705606 0
M  V30 5479 O 505 -5.40082 0.835109 0
M  V30 5480 H 502.094 -0.821964 0.0911249 0
M  V30 5481 H 504.64 -1.4338 0.907757 0
M  V30 5482 H 503.412 -3.47187 1.8049 0
M  V30 5483 H 503.035 -3.97259 0.164605 0
M  V30 5484 N 504.032 -0.577932 -1.46621 0
M  V30 5485 C 504.98 0.170882 -2.31971 0
M  V30 5486 C 505.974 0.889086 -1.44193 0
M  V30 5487 O 507.18 0.808017 -1.60845 0
M  V30 5488 H 503.555 0.0739763 -0.748353 0
M  V30 5489 H 505.526 -0.567856 -2.92947 0
M  V30 5490 C 504.275 1.17438 -3.27267 0
M  V30 5491 H 503.598 0.63116 -3.94787 0
M  V30 5492 H 505.038 1.66882 -3.89778 0
M  V30 5493 C 503.497 2.23292 -2.52274 0
M  V30 5494 O 504.027 3.30567 -2.28229 0
M  V30 5495 N 502.233 1.97772 -2.12919 0
M  V30 5496 H 501.78 1.10545 -2.32675 0
M  V30 5497 H 501.738 2.68809 -1.63062 0
M  V30 5498 N 505.51 1.54411 -0.315457 0
M  V30 5499 C 506.756 2.01425 0.282775 0
M  V30 5500 C 507.111 1.19978 1.5041 0
M  V30 5501 O 506.404 0.271766 1.89663 0
M  V30 5502 C 506.598 3.50936 0.676652 0
M  V30 5503 C 506.427 4.46856 -0.504954 0
M  V30 5504 C 505.197 4.95275 -1.00152 0
M  V30 5505 C 507.395 4.96141 -1.35456 0
M  V30 5506 N 505.377 5.75081 -2.14838 0
M  V30 5507 C 506.748 5.73791 -2.3487 0
M  V30 5508 C 508.803 4.78299 -1.38327 0
M  V30 5509 C 507.506 6.35498 -3.36949 0
M  V30 5510 C 509.532 5.40836 -2.39271 0
M  V30 5511 C 508.894 6.1833 -3.37413 0
M  V30 5512 H 504.993 0.779078 0.0675398 0
M  V30 5513 H 507.577 1.8946 -0.448656 0
M  V30 5514 H 505.748 3.63162 1.37723 0
M  V30 5515 H 507.48 3.84728 1.25566 0
M  V30 5516 H 504.235 4.70107 -0.574123 0
M  V30 5517 H 504.659 6.19664 -2.72665 0
M  V30 5518 H 509.301 4.17956 -0.638196 0
M  V30 5519 H 507.019 6.94967 -4.12367 0
M  V30 5520 H 510.605 5.28952 -2.42284 0
M  V30 5521 H 509.485 6.65861 -4.14244 0
M  V30 5522 N 506.988 0.0434614 1.5754 0
M  V30 5523 C 508.404 -0.313039 1.565 0
M  V30 5524 C 508.604 -1.71954 1.05043 0
M  V30 5525 O 507.66 -2.425 0.703564 0
M  V30 5526 C 508.973 -0.148544 3.00333 0
M  V30 5527 C 510.521 -0.220231 3.12224 0
M  V30 5528 C 510.996 -0.0843565 4.57922 0
M  V30 5529 N 512.487 -0.140881 4.62986 0
M  V30 5530 C 513.222 -0.0597443 5.73369 0
M  V30 5531 N 512.718 0.0733004 6.92761 0
M  V30 5532 N 514.511 -0.11477 5.61983 0
M  V30 5533 H 506.662 0.96303 1.89313 0
M  V30 5534 H 508.925 0.373164 0.871466 0
M  V30 5535 H 508.631 0.820894 3.41986 0
M  V30 5536 H 508.505 -0.912798 3.65989 0
M  V30 5537 H 510.892 -1.18014 2.70475 0
M  V30 5538 H 510.973 0.574646 2.49262 0
M  V30 5539 H 510.617 0.872192 5.00355 0
M  V30 5540 H 510.547 -0.898281 5.18882 0
M  V30 5541 H 513.038 -0.243273 3.77116 0
M  V30 5542 H 513.351 0.128128 7.72694 0
M  V30 5543 H 511.696 0.10828 6.94916 0
M  V30 5544 H 514.887 -0.217212 4.67596 0
M  V30 5545 H 515.06 -0.0480779 6.47982 0
M  V30 5546 N 508.466 -1.55915 -0.229846 0
M  V30 5547 C 509.396 -1.94754 -1.28815 0
M  V30 5548 C 510.377 -0.814657 -1.49323 0
M  V30 5549 O 511.562 -1.07631 -1.61645 0
M  V30 5550 C 508.692 -2.25705 -2.63959 0
M  V30 5551 C 507.646 -3.41406 -2.5812 0
M  V30 5552 C 506.972 -3.57941 -3.97218 0
M  V30 5553 C 508.272 -4.76616 -2.13623 0
M  V30 5554 H 509.966 -2.83404 -0.965547 0
M  V30 5555 H 507.512 -1.36353 -0.463028 0
M  V30 5556 H 509.465 -2.51467 -3.38146 0
M  V30 5557 H 508.189 -1.339 -2.9789 0
M  V30 5558 H 506.848 -3.1568 -1.86391 0
M  V30 5559 H 506.496 -2.63526 -4.28443 0
M  V30 5560 H 506.196 -4.35757 -3.94195 0
M  V30 5561 H 507.72 -3.86042 -4.73079 0
M  V30 5562 H 509.134 -5.01637 -2.77549 0
M  V30 5563 H 507.531 -5.57655 -2.21677 0
M  V30 5564 H 508.601 -4.7253 -1.08829 0
M  V30 5565 N 509.944 0.496216 -1.49584 0
M  V30 5566 C 510.874 1.60576 -1.69521 0
M  V30 5567 C 511.855 1.61169 -0.543933 0
M  V30 5568 O 513.04 1.77834 -0.78031 0
M  V30 5569 C 510.17 2.99038 -1.76616 0
M  V30 5570 C 509.124 3.13312 -2.91581 0
M  V30 5571 C 508.45 4.53172 -2.83794 0
M  V30 5572 C 509.75 2.92886 -4.32452 0
M  V30 5573 H 511.444 1.44146 -2.62416 0
M  V30 5574 H 508.99 0.692024 -1.26282 0
M  V30 5575 H 510.943 3.76564 -1.8915 0
M  V30 5576 H 509.667 3.16568 -0.80324 0
M  V30 5577 H 508.326 2.38213 -2.78658 0
M  V30 5578 H 507.974 4.67585 -1.854 0
M  V30 5579 H 507.674 4.63662 -3.60958 0
M  V30 5580 H 509.198 5.32752 -2.98342 0
M  V30 5581 H 510.612 3.60178 -4.46032 0
M  V30 5582 H 509.009 3.14844 -5.10875 0
M  V30 5583 H 510.079 1.88966 -4.46565 0
M  V30 5584 N 511.423 1.38739 0.74761 0
M  V30 5585 C 512.373 1.32948 1.85226 0
M  V30 5586 C 513.357 0.212642 1.59489 0
M  V30 5587 O 514.549 0.449121 1.71207 0
M  V30 5588 C 511.678 1.16279 3.23008 0
M  V30 5589 C 510.764 2.32611 3.54617 0
M  V30 5590 N 511.155 3.58065 3.57244 0
M  V30 5591 C 509.453 2.25293 3.84914 0
M  V30 5592 C 510.154 4.34919 3.8629 0
M  V30 5593 N 509.13 3.64348 4.03425 0
M  V30 5594 H 512.932 2.27927 1.85544 0
M  V30 5595 H 510.446 1.32056 0.945253 0
M  V30 5596 H 512.443 1.10214 4.02068 0
M  V30 5597 H 511.103 0.222394 3.23937 0
M  V30 5598 H 512.114 3.91656 3.3886 0
M  V30 5599 H 508.791 1.39446 3.93524 0
M  V30 5600 H 510.181 5.43605 3.94896 0
M  V30 5601 N 512.901 -0.976442 1.23707 0
M  V30 5602 C 514.149 -1.71487 1.06942 0
M  V30 5603 C 514.47 -1.9098 -0.393897 0
M  V30 5604 O 513.74 -1.48128 -1.28198 0
M  V30 5605 H 512.32 -0.635425 0.392739 0
M  V30 5606 H 514.982 -1.17515 1.55487 0
M  V30 5607 H 514.078 -2.70286 1.56051 0
M  V30 5608 N 514.379 -1.04941 -1.1758 0
M  V30 5609 C 515.795 -0.770282 -1.39781 0
M  V30 5610 C 515.995 0.636417 -1.91186 0
M  V30 5611 O 515.051 1.39923 -2.10185 0
M  V30 5612 C 516.364 -1.82376 -2.3908 0
M  V30 5613 C 517.912 -1.84569 -2.52791 0
M  V30 5614 C 518.387 -2.88933 -3.55361 0
M  V30 5615 N 519.878 -2.8788 -3.62877 0
M  V30 5616 C 520.613 -3.65282 -4.41992 0
M  V30 5617 N 520.109 -4.52461 -5.24643 0
M  V30 5618 N 521.902 -3.53732 -4.36841 0
M  V30 5619 H 514.053 -1.95705 -0.825438 0
M  V30 5620 H 516.316 -0.847284 -0.425222 0
M  V30 5621 H 516.022 -2.83323 -2.08376 0
M  V30 5622 H 515.896 -1.66327 -3.38549 0
M  V30 5623 H 518.283 -0.842879 -2.82807 0
M  V30 5624 H 518.364 -2.04696 -1.53406 0
M  V30 5625 H 518.008 -3.89398 -3.26085 0
M  V30 5626 H 517.938 -2.66059 -4.54445 0
M  V30 5627 H 520.429 -2.24666 -3.03864 0
M  V30 5628 H 520.742 -5.08211 -5.82187 0
M  V30 5629 H 519.087 -4.56524 -5.24033 0
M  V30 5630 H 522.278 -2.85021 -3.71323 0
M  V30 5631 H 522.451 -4.14302 -4.98255 0
M  V30 5632 N 515.857 1.33968 -0.830081 0
M  V30 5633 C 517.273 1.51003 -0.516742 0
M  V30 5634 C 517.473 1.77286 0.957694 0
M  V30 5635 O 516.529 1.82797 1.74188 0
M  V30 5636 C 517.842 2.67036 -1.38247 0
M  V30 5637 C 519.39 2.80919 -1.38034 0
M  V30 5638 C 519.865 4.00004 -2.23071 0
M  V30 5639 N 521.356 4.07224 -2.20733 0
M  V30 5640 C 522.091 4.98541 -2.83275 0
M  V30 5641 N 521.587 5.95033 -3.54835 0
M  V30 5642 N 523.38 4.91469 -2.72791 0
M  V30 5643 H 515.531 1.15168 -1.78466 0
M  V30 5644 H 517.794 0.565443 -0.760906 0
M  V30 5645 H 517.5 2.54266 -2.42985 0
M  V30 5646 H 517.374 3.62226 -1.05225 0
M  V30 5647 H 519.761 2.93127 -0.340713 0
M  V30 5648 H 519.842 1.86517 -1.75057 0
M  V30 5649 H 519.486 3.88557 -3.27087 0
M  V30 5650 H 519.416 4.93634 -1.83394 0
M  V30 5651 H 521.907 3.38162 -1.68687 0
M  V30 5652 H 522.22 6.61357 -3.99784 0
M  V30 5653 H 520.565 5.95135 -3.58942 0
M  V30 5654 H 523.756 4.15048 -2.16456 0
M  V30 5655 H 523.929 5.62439 -3.21818 0
M  V30 5656 N 517.335 0.585699 1.46312 0
M  V30 5657 C 518.56 0.0762461 2.0726 0
M  V30 5658 C 518.985 -1.22071 1.43109 0
M  V30 5659 O 518.343 -1.73804 0.515942 0
M  V30 5660 C 518.391 -0.0729404 3.60526 0
M  V30 5661 O 517.495 -1.1287 3.96654 0
M  V30 5662 H 516.836 0.0641558 0.660893 0
M  V30 5663 H 519.366 0.809492 1.87905 0
M  V30 5664 H 519.376 -0.278158 4.07051 0
M  V30 5665 H 518.051 0.874188 4.06609 0
M  V30 5666 H 516.628 -0.901703 3.61834 0
M  V30 5667 N 518.813 -1.54241 0.323641 0
M  V30 5668 C 520.043 -2.04687 -0.280464 0
M  V30 5669 C 520.451 -1.19939 -1.46326 0
M  V30 5670 O 519.794 -0.222872 -1.82343 0
M  V30 5671 C 519.856 -3.50978 -0.778123 0
M  V30 5672 C 519.52 -4.56127 0.282371 0
M  V30 5673 C 520.517 -5.07726 1.11847 0
M  V30 5674 C 518.202 -5.00451 0.430582 0
M  V30 5675 C 520.196 -6.02212 2.08851 0
M  V30 5676 C 517.883 -5.94752 1.40404 0
M  V30 5677 C 518.881 -6.45519 2.23147 0
M  V30 5678 O 518.569 -7.37968 3.1884 0
M  V30 5679 H 518.301 -0.673192 -0.0615473 0
M  V30 5680 H 520.855 -1.99999 0.467921 0
M  V30 5681 H 519.085 -3.53064 -1.57742 0
M  V30 5682 H 520.774 -3.84499 -1.30058 0
M  V30 5683 H 521.54 -4.74261 1.01496 0
M  V30 5684 H 517.419 -4.6055 -0.203569 0
M  V30 5685 H 520.963 -6.41761 2.73474 0
M  V30 5686 H 516.86 -6.27633 1.5082 0
M  V30 5687 H 517.628 -7.55841 3.14079 0
M  V30 5688 N 520.291 -0.0518155 -1.57515 0
M  V30 5689 C 521.201 0.937539 -2.15052 0
M  V30 5690 C 522.217 1.34121 -1.10849 0
M  V30 5691 O 523.393 1.418 -1.4302 0
M  V30 5692 C 520.458 2.19379 -2.68466 0
M  V30 5693 C 519.519 1.84841 -3.87469 0
M  V30 5694 C 518.752 3.04477 -4.38326 0
M  V30 5695 O 518.975 4.17868 -3.88256 0
M  V30 5696 O 517.909 2.85453 -5.29906 0
M  V30 5697 H 521.735 0.478201 -2.99912 0
M  V30 5698 H 519.32 0.17012 -1.48428 0
M  V30 5699 H 521.202 2.93084 -3.02787 0
M  V30 5700 H 519.877 2.64449 -1.86677 0
M  V30 5701 H 518.784 1.08449 -3.58036 0
M  V30 5702 H 520.117 1.44569 -4.7049 0
M  V30 5703 N 521.769 1.56035 0.221574 0
M  V30 5704 C 522.732 1.91584 1.2581 0
M  V30 5705 C 523.732 0.794425 1.39805 0
M  V30 5706 O 524.922 1.06217 1.38071 0
M  V30 5707 C 522.054 2.16663 2.63192 0
M  V30 5708 H 523.247 2.8429 0.954935 0
M  V30 5709 H 520.8 1.49316 0.461988 0
M  V30 5710 H 521.535 1.26508 2.98607 0
M  V30 5711 H 521.32 2.98358 2.5441 0
M  V30 5712 H 522.81 2.45262 3.37988 0
M  V30 5713 N 523.247 -0.488276 1.49845 0
M  V30 5714 C 524.495 -1.23911 1.59657 0
M  V30 5715 C 524.816 -1.92816 0.291005 0
M  V30 5716 O 524.086 -1.83328 -0.690485 0
M  V30 5717 H 522.666 -0.460357 0.588286 0
M  V30 5718 H 525.328 -0.564794 1.86537 0
M  V30 5719 H 524.424 -1.99625 2.39909 0
M  V30 5720 N 524.725 -1.39134 -0.740242 0
M  V30 5721 C 525.953 -1.39334 -1.5295 0
M  V30 5722 C 526.368 0.0135008 -1.88795 0
M  V30 5723 O 525.725 0.983524 -1.5373 0
M  V30 5724 C 525.776 -2.2614 -2.82034 0
M  V30 5725 O 525.497 -3.61345 -2.47712 0
M  V30 5726 C 526.998 -2.34666 -3.76094 0
M  V30 5727 H 524.218 -0.476103 -0.472828 0
M  V30 5728 H 526.762 -1.82883 -0.9151 0
M  V30 5729 H 524.917 -1.86018 -3.39818 0
M  V30 5730 H 525.331 -4.07194 -3.30595 0
M  V30 5731 H 526.805 -2.99663 -4.63579 0
M  V30 5732 H 527.282 -1.36426 -4.17474 0
M  V30 5733 H 527.888 -2.75236 -3.2423 0
M  V30 5734 N 526.204 0.969867 -1.24223 0
M  V30 5735 C 527.114 2.09806 -1.0497 0
M  V30 5736 C 528.13 1.73998 0.00886455 0
M  V30 5737 O 529.306 2.00513 -0.188848 0
M  V30 5738 C 526.371 3.40467 -0.654452 0
M  V30 5739 C 525.432 3.90236 -1.78926 0
M  V30 5740 C 524.665 5.14662 -1.41277 0
M  V30 5741 O 524.888 5.69602 -0.301632 0
M  V30 5742 O 523.822 5.58761 -2.23763 0
M  V30 5743 H 527.648 2.28942 -1.99548 0
M  V30 5744 H 525.233 1.08197 -1.03023 0
M  V30 5745 H 527.115 4.19039 -0.445452 0
M  V30 5746 H 525.79 3.22636 0.262216 0
M  V30 5747 H 524.697 3.12735 -2.05299 0
M  V30 5748 H 526.03 4.1254 -2.68462 0
M  V30 5749 N 527.682 1.05563 1.17022 0
M  V30 5750 C 528.931 0.763036 1.8671 0
M  V30 5751 C 529.244 -0.712857 1.82147 0
M  V30 5752 O 530.45 -1.11955 2.47343 0
M  V30 5753 C 528.906 1.31474 3.35026 0
M  V30 5754 C 528.514 2.82034 3.48081 0
M  V30 5755 C 530.258 1.09935 4.10018 0
M  V30 5756 C 528.165 3.30486 4.90442 0
M  V30 5757 H 527.095 0.281747 0.699382 0
M  V30 5758 H 529.746 1.2734 1.32124 0
M  V30 5759 H 528.128 0.732171 3.89173 0
M  V30 5760 H 529.302 3.46178 3.04133 0
M  V30 5761 H 527.617 3.02156 2.86515 0
M  V30 5762 H 530.214 1.43632 5.15048 0
M  V30 5763 H 530.557 0.0373072 4.16283 0
M  V30 5764 H 531.09 1.64732 3.62089 0
M  V30 5765 H 527.829 4.36137 4.89352 0
M  V30 5766 H 527.349 2.71086 5.35044 0
M  V30 5767 H 529.028 3.25382 5.59227 0
M  V30 5768 N 529.16 -1.33526 0.837174 0
M  V30 5769 C 530.385 -2.0258 0.444545 0
M  V30 5770 C 530.81 -1.6258 -0.946006 0
M  V30 5771 O 530.168 -0.817548 -1.6182 0
M  V30 5772 C 530.216 -3.5605 0.571006 0
M  V30 5773 O 529.32 -4.10422 -0.403431 0
M  V30 5774 H 528.661 -0.638866 0.180958 0
M  V30 5775 H 531.191 -1.70462 1.13154 0
M  V30 5776 H 531.201 -4.05488 0.452024 0
M  V30 5777 H 529.876 -3.84509 1.58512 0
M  V30 5778 H 528.453 -3.72113 -0.242147 0
M  V30 5779 N 530.638 -0.59345 -1.46 0
M  V30 5780 C 532.054 -0.255965 -1.57534 0
M  V30 5781 C 532.254 1.24167 -1.58697 0
M  V30 5782 O 531.31 2.02398 -1.50968 0
M  V30 5783 C 532.623 -0.91466 -2.86451 0
M  V30 5784 C 534.171 -0.889253 -3.00102 0
M  V30 5785 C 534.646 -1.52769 -4.3177 0
M  V30 5786 N 536.137 -1.49253 -4.38495 0
M  V30 5787 C 536.872 -1.9558 -5.39014 0
M  V30 5788 N 536.368 -2.49929 -6.46148 0
M  V30 5789 N 538.161 -1.86432 -5.30282 0
M  V30 5790 H 530.312 -1.56604 -1.43489 0
M  V30 5791 H 532.575 -0.655207 -0.685133 0
M  V30 5792 H 532.281 -1.96861 -2.91442 0
M  V30 5793 H 532.155 -0.429356 -3.74748 0
M  V30 5794 H 534.542 0.156111 -2.94687 0
M  V30 5795 H 534.623 -1.41268 -2.13253 0
M  V30 5796 H 534.267 -2.57231 -4.37944 0
M  V30 5797 H 534.197 -0.979398 -5.17412 0
M  V30 5798 H 536.688 -1.09536 -3.61677 0
M  V30 5799 H 537.001 -2.83109 -7.19075 0
M  V30 5800 H 535.346 -2.53961 -6.46938 0
M  V30 5801 H 538.537 -1.43722 -4.4549 0
M  V30 5802 H 538.71 -2.22852 -6.08474 0
M  V30 5803 N 532.116 1.54067 -0.331816 0
M  V30 5804 C 533.066 2.21363 0.546101 0
M  V30 5805 C 534.05 1.19698 1.07523 0
M  V30 5806 O 535.242 1.45293 1.01088 0
M  V30 5807 C 532.371 2.98115 1.70242 0
M  V30 5808 C 531.457 4.07127 1.18779 0
M  V30 5809 N 531.848 5.04267 0.393465 0
M  V30 5810 C 530.146 4.21226 1.46576 0
M  V30 5811 C 530.847 5.81585 0.115572 0
M  V30 5812 N 529.823 5.39022 0.703987 0
M  V30 5813 H 533.625 2.93821 -0.0679751 0
M  V30 5814 H 531.139 1.61812 -0.138085 0
M  V30 5815 H 533.136 3.44818 2.34321 0
M  V30 5816 H 531.796 2.27181 2.31989 0
M  V30 5817 H 532.807 5.17888 0.0355757 0
M  V30 5818 H 529.484 3.61509 2.08848 0
M  V30 5819 H 530.874 6.6985 -0.524426 0
M  V30 5820 N 533.594 0.0601682 1.57485 0
M  V30 5821 C 534.524 -0.90889 2.15085 0
M  V30 5822 C 535.505 -1.31838 1.07484 0
M  V30 5823 O 536.69 -1.3915 1.35466 0
M  V30 5824 C 533.82 -2.18059 2.7031 0
M  V30 5825 C 532.774 -1.91088 3.82974 0
M  V30 5826 C 532.1 -3.24789 4.24754 0
M  V30 5827 C 533.4 -1.22535 5.07723 0
M  V30 5828 H 535.094 -0.429093 2.96309 0
M  V30 5829 H 532.64 -0.204952 1.42534 0
M  V30 5830 H 534.593 -2.86258 3.09248 0
M  V30 5831 H 533.317 -2.6826 1.8629 0
M  V30 5832 H 531.976 -1.25297 3.44523 0
M  V30 5833 H 531.624 -3.72809 3.37672 0
M  V30 5834 H 531.324 -3.07538 5.00694 0
M  V30 5835 H 532.848 -3.94205 4.66299 0
M  V30 5836 H 534.262 -1.80783 5.4405 0
M  V30 5837 H 532.659 -1.1558 5.88864 0
M  V30 5838 H 533.729 -0.202692 4.84476 0
M  V30 5839 N 535.072 -1.5615 -0.213296 0
M  V30 5840 C 535.982 -1.96265 -1.28519 0
M  V30 5841 C 536.998 -0.86765 -1.50824 0
M  V30 5842 O 538.174 -1.17191 -1.63793 0
M  V30 5843 C 535.239 -2.27836 -2.61327 0
M  V30 5844 C 534.3 -3.50949 -2.47252 0
M  V30 5845 C 533.533 -3.81004 -3.73727 0
M  V30 5846 O 533.756 -3.12612 -4.77106 0
M  V30 5847 O 532.69 -4.74477 -3.70344 0
M  V30 5848 H 536.516 -2.87631 -0.974795 0
M  V30 5849 H 534.101 -1.43467 -0.416832 0
M  V30 5850 H 535.983 -2.49299 -3.39747 0
M  V30 5851 H 534.658 -1.39643 -2.9203 0
M  V30 5852 H 533.565 -3.34754 -1.67004 0
M  V30 5853 H 534.898 -4.39551 -2.21486 0
M  V30 5854 N 536.55 0.480323 -1.50102 0
M  V30 5855 C 537.798 1.23063 -1.60312 0
M  V30 5856 C 538.119 1.92659 -0.301226 0
M  V30 5857 O 537.389 1.83691 0.680753 0
M  V30 5858 H 535.969 0.457231 -0.590719 0
M  V30 5859 H 538.631 0.554893 -1.86834 0
M  V30 5860 H 537.727 1.9835 -2.40964 0
M  V30 5861 N 538.028 1.39524 0.732853 0
M  V30 5862 C 538.991 1.38189 1.82857 0
M  V30 5863 C 539.991 0.278624 1.58368 0
M  V30 5864 O 541.181 0.536639 1.65728 0
M  V30 5865 C 538.313 1.15661 3.2068 0
M  V30 5866 H 539.506 2.35692 1.85444 0
M  V30 5867 H 537.059 1.2512 0.936728 0
M  V30 5868 H 537.794 0.188482 3.23752 0
M  V30 5869 H 537.579 1.95559 3.39852 0
M  V30 5870 H 539.069 1.17472 4.00737 0
M  V30 5871 N 539.506 -0.963266 1.24736 0
M  V30 5872 C 540.736 -1.73913 1.11524 0
M  V30 5873 C 541.144 -1.86218 -0.334612 0
M  V30 5874 O 540.487 -1.3531 -1.24245 0
M  V30 5875 C 540.549 -3.17501 1.68622 0
M  V30 5876 C 540.213 -3.28655 3.17546 0
M  V30 5877 C 541.21 -3.13637 4.14642 0
M  V30 5878 C 538.895 -3.52753 3.5759 0
M  V30 5879 C 540.889 -3.2255 5.49764 0
M  V30 5880 C 538.576 -3.61303 4.92852 0
M  V30 5881 C 539.574 -3.46214 5.88748 0
M  V30 5882 O 539.262 -3.5443 7.2155 0
M  V30 5883 H 538.994 -0.552057 0.390139 0
M  V30 5884 H 541.548 -1.2177 1.65412 0
M  V30 5885 H 539.778 -3.70969 1.09172 0
M  V30 5886 H 541.467 -3.76914 1.50635 0
M  V30 5887 H 542.233 -2.94899 3.85045 0
M  V30 5888 H 538.112 -3.63561 2.83451 0
M  V30 5889 H 541.656 -3.1069 6.24594 0
M  V30 5890 H 537.553 -3.79556 5.22118 0
M  V30 5891 H 538.321 -3.71116 7.29531 0
M  V30 5892 N 540.985 -1.06182 -1.16461 0
M  V30 5893 C 541.948 -0.675723 -2.19013 0
M  V30 5894 C 542.948 0.277963 -1.58379 0
M  V30 5895 O 544.138 0.0604962 -1.74095 0
M  V30 5896 C 541.27 0.00591459 -3.40899 0
M  V30 5897 H 542.463 -1.58353 -2.54685 0
M  V30 5898 H 540.016 -0.856908 -1.30716 0
M  V30 5899 H 540.751 0.92652 -3.10783 0
M  V30 5900 H 540.536 -0.67984 -3.86161 0
M  V30 5901 H 542.026 0.26181 -4.16778 0
M  V30 5902 N 542.463 1.3308 -0.844243 0
M  V30 5903 C 543.74 1.92178 -0.364261 0
M  V30 5904 C 544.12 1.76961 1.15101 0
M  V30 5905 O 543.468 1.16128 1.9679 0
M  V30 5906 C 543.678 3.393 -0.817106 0
M  V30 5907 C 545.026 4.16444 -0.828236 0
M  V30 5908 O 546.05 3.47975 -0.761062 0
M  V30 5909 O 544.909 5.38685 -0.920926 0
M  V30 5910 H 542.003 0.820411 -0.10419 0
M  V30 5911 H 544.549 1.41918 -0.930453 0
M  V30 5912 H 543.321 3.44272 -1.85991 0
M  V30 5913 H 542.944 3.96947 -0.227785 0
M  V30 5914 N 543.941 0.601185 1.45683 0
M  V30 5915 C 545.187 0.102425 2.03142 0
M  V30 5916 C 545.542 -1.25066 1.46207 0
M  V30 5917 O 544.835 -1.81126 0.624806 0
M  V30 5918 C 545.029 -0.00222425 3.574 0
M  V30 5919 C 544.858 1.33917 4.29298 0
M  V30 5920 C 543.628 1.91818 4.67476 0
M  V30 5921 C 545.826 2.26652 4.61664 0
M  V30 5922 N 543.808 3.19504 5.24204 0
M  V30 5923 C 545.179 3.38933 5.19157 0
M  V30 5924 C 547.234 2.26103 4.43601 0
M  V30 5925 C 545.937 4.50823 5.60492 0
M  V30 5926 C 547.963 3.37036 4.85964 0
M  V30 5927 C 547.325 4.48039 5.43545 0
M  V30 5928 H 543.424 0.0806974 0.777825 0
M  V30 5929 H 546.008 0.798134 1.77589 0
M  V30 5930 H 544.179 -0.66714 3.82627 0
M  V30 5931 H 545.911 -0.507058 4.01511 0
M  V30 5932 H 542.666 1.45097 4.50826 0
M  V30 5933 H 543.09 3.84705 5.57073 0
M  V30 5934 H 547.732 1.41547 3.98402 0
M  V30 5935 H 545.45 5.36108 6.0466 0
M  V30 5936 H 549.036 3.37752 4.73725 0
M  V30 5937 H 547.916 5.32459 5.75723 0
M  V30 5938 N 545.419 -1.53889 0.339982 0
M  V30 5939 C 546.696 -1.93084 -0.312719 0
M  V30 5940 C 547.076 -1.2712 -1.68534 0
M  V30 5941 O 546.424 -0.420835 -2.24591 0
M  V30 5942 C 546.634 -3.4683 -0.388558 0
M  V30 5943 C 547.982 -4.19732 -0.641088 0
M  V30 5944 O 549.006 -3.53075 -0.470818 0
M  V30 5945 O 547.865 -5.3781 -0.970685 0
M  V30 5946 H 544.959 -0.806784 -0.18174 0
M  V30 5947 H 547.505 -1.65137 0.390898 0
M  V30 5948 H 546.277 -3.87055 0.574821 0
M  V30 5949 H 545.9 -3.80933 -1.1391 0
M  V30 5950 N 546.897 -0.0685191 -1.57451 0
M  V30 5951 C 548.143 0.602239 -1.93652 0
M  V30 5952 C 548.476 1.6946 -0.948526 0
M  V30 5953 O 547.751 1.94487 0.022782 0
M  V30 5954 C 548.034 1.18223 -3.4014 0
M  V30 5955 C 547.887 0.0967431 -4.49696 0
M  V30 5956 C 549.206 2.08872 -3.87377 0
M  V30 5957 H 546.325 0.217453 -0.70419 0
M  V30 5958 H 548.967 -0.133821 -1.89528 0
M  V30 5959 H 547.117 1.80953 -3.43785 0
M  V30 5960 H 548.789 -0.536155 -4.58174 0
M  V30 5961 H 547.032 -0.573063 -4.29998 0
M  V30 5962 H 547.703 0.542894 -5.49324 0
M  V30 5963 H 550.179 1.56081 -3.85717 0
M  V30 5964 H 549.055 2.46389 -4.90493 0
M  V30 5965 H 549.316 2.99572 -3.25129 0
M  V30 5966 N 548.375 1.56261 0.205012 0
M  V30 5967 C 549.621 1.80306 0.9283 0
M  V30 5968 C 549.954 0.640932 1.83319 0
M  V30 5969 O 549.229 -0.359032 1.91158 0
M  V30 5970 C 549.512 3.14547 1.75306 0
M  V30 5971 C 549.365 4.41236 0.873562 0
M  V30 5972 C 550.684 3.45382 2.72762 0
M  V30 5973 H 547.803 0.655929 0.336044 0
M  V30 5974 H 550.445 1.88984 0.196211 0
M  V30 5975 H 548.595 3.0728 2.37721 0
M  V30 5976 H 550.267 4.60539 0.264887 0
M  V30 5977 H 548.51 4.33427 0.179773 0
M  V30 5978 H 549.181 5.31639 1.48541 0
M  V30 5979 H 551.657 3.52884 2.20481 0
M  V30 5980 H 550.533 4.40449 3.2756 0
M  V30 5981 H 550.794 2.68377 3.51321 0
M  V30 5982 N 549.853 -0.472356 1.50355 0
M  V30 5983 C 550.786 -1.58923 1.63764 0
M  V30 5984 C 551.764 -1.55173 0.485793 0
M  V30 5985 O 552.948 -1.74815 0.705132 0
M  V30 5986 C 550.075 -2.97497 1.61905 0
M  V30 5987 C 549.121 -3.19405 2.82635 0
M  V30 5988 S 549.954 -2.99441 4.43954 0
M  V30 5989 C 551.11 -4.40359 4.44786 0
M  V30 5990 H 551.343 -1.47309 2.58239 0
M  V30 5991 H 548.876 -0.659601 1.39602 0
M  V30 5992 H 550.834 -3.77389 1.61518 0
M  V30 5993 H 549.495 -3.06502 0.686683 0
M  V30 5994 H 548.688 -4.20636 2.77636 0
M  V30 5995 H 548.29 -2.47283 2.80583 0
M  V30 5996 H 550.582 -5.32969 4.1827 0
M  V30 5997 H 551.525 -4.50403 5.46391 0
M  V30 5998 H 551.933 -4.22378 3.74509 0
M  V30 5999 N 551.331 -1.39911 -0.725443 0
M  V30 6000 C 552.556 -1.41137 -1.5197 0
M  V30 6001 C 552.981 -0.010262 -1.88097 0
M  V30 6002 O 552.339 0.979184 -1.52583 0
M  V30 6003 C 552.387 -2.2994 -2.77777 0
M  V30 6004 O 551.491 -1.73586 -3.74088 0
M  V30 6005 H 550.832 -0.480219 -0.458569 0
M  V30 6006 H 553.362 -1.84023 -0.894249 0
M  V30 6007 H 553.372 -2.44785 -3.26411 0
M  V30 6008 H 552.047 -3.31759 -2.50816 0
M  V30 6009 H 550.624 -1.68035 -3.32894 0
M  V30 6010 N 552.809 0.956637 -1.25245 0
M  V30 6011 C 554.225 1.22733 -1.02023 0
M  V30 6012 C 554.425 1.99761 0.264186 0
M  V30 6013 O 553.481 2.32814 0.977436 0
M  V30 6014 C 554.794 2.00367 -2.24217 0
M  V30 6015 C 556.342 2.13418 -2.28958 0
M  V30 6016 C 556.817 2.9445 -3.50803 0
M  V30 6017 N 558.308 3.02029 -3.51187 0
M  V30 6018 C 559.043 3.65116 -4.42129 0
M  V30 6019 N 558.539 4.2983 -5.43339 0
M  V30 6020 N 560.332 3.62237 -4.29815 0
M  V30 6021 H 552.483 0.441282 -2.07765 0
M  V30 6022 H 554.746 0.257686 -0.912306 0
M  V30 6023 H 554.452 1.51165 -3.17556 0
M  V30 6024 H 554.326 3.01077 -2.27228 0
M  V30 6025 H 556.713 2.61819 -1.36143 0
M  V30 6026 H 556.794 1.1202 -2.29968 0
M  V30 6027 H 556.438 2.46741 -4.43939 0
M  V30 6028 H 556.368 3.9607 -3.47039 0
M  V30 6029 H 558.859 2.56007 -2.77973 0
M  V30 6030 H 559.172 4.75819 -6.08947 0
M  V30 6031 H 557.517 4.28465 -5.47214 0
M  V30 6032 H 560.708 3.10863 -3.49974 0
M  V30 6033 H 560.881 4.11117 -5.00886 0
M  V30 6034 N 554.287 1.06798 1.15896 0
M  V30 6035 C 555.217 0.704677 2.22613 0
M  V30 6036 C 556.198 -0.305252 1.67339 0
M  V30 6037 O 557.383 -0.179247 1.93371 0
M  V30 6038 C 554.513 0.0957325 3.47168 0
M  V30 6039 C 553.467 1.0322 4.15367 0
M  V30 6040 C 552.793 0.286293 5.33933 0
M  V30 6041 C 554.093 2.36341 4.65768 0
M  V30 6042 H 555.787 1.59688 2.53259 0
M  V30 6043 H 553.333 0.769257 1.21731 0
M  V30 6044 H 555.286 -0.170333 4.21056 0
M  V30 6045 H 554.01 -0.831516 3.15838 0
M  V30 6046 H 552.669 1.28309 3.43413 0
M  V30 6047 H 552.317 -0.644237 4.98857 0
M  V30 6048 H 552.017 0.910436 5.80504 0
M  V30 6049 H 553.541 0.0278938 6.10594 0
M  V30 6050 H 554.955 2.1561 5.31211 0
M  V30 6051 H 553.352 2.94299 5.2298 0
M  V30 6052 H 554.422 2.99047 3.81705 0
M  V30 6053 N 555.766 -1.3263 0.851289 0
M  V30 6054 C 557.182 -1.50162 0.5407 0
M  V30 6055 C 557.382 -1.78788 -0.929369 0
M  V30 6056 O 556.438 -1.85545 -1.71258 0
M  V30 6057 C 557.751 -2.64803 1.42478 0
M  V30 6058 C 559.299 -2.78688 1.42485 0
M  V30 6059 C 559.774 -3.96405 2.29407 0
M  V30 6060 N 561.265 -4.0366 2.27184 0
M  V30 6061 C 562 -4.93971 2.9117 0
M  V30 6062 N 561.496 -5.89313 3.64256 0
M  V30 6063 N 563.289 -4.87066 2.80576 0
M  V30 6064 H 555.44 -1.12315 1.80275 0
M  V30 6065 H 557.703 -0.553266 0.769806 0
M  V30 6066 H 557.409 -2.50368 2.46999 0
M  V30 6067 H 557.283 -3.60506 1.10974 0
M  V30 6068 H 559.67 -2.92547 0.387304 0
M  V30 6069 H 559.751 -1.83708 1.78002 0
M  V30 6070 H 559.395 -3.83304 3.33228 0
M  V30 6071 H 559.325 -4.90654 1.91224 0
M  V30 6072 H 561.816 -3.35435 1.74045 0
M  V30 6073 H 562.129 -6.54913 4.10255 0
M  V30 6074 H 560.474 -5.8935 3.68364 0
M  V30 6075 H 563.665 -4.11552 2.23031 0
M  V30 6076 H 563.838 -5.57248 3.30725 0
M  V30 6077 N 557.244 -0.608902 -1.45362 0
M  V30 6078 C 558.493 -0.10218 -2.01441 0
M  V30 6079 C 558.806 1.27546 -1.48295 0
M  V30 6080 O 560.012 1.87498 -1.96359 0
M  V30 6081 C 558.468 -0.131985 -3.59658 0
M  V30 6082 C 558.076 -1.50956 -4.21801 0
M  V30 6083 C 559.82 0.319427 -4.23296 0
M  V30 6084 C 557.727 -1.49568 -5.72174 0
M  V30 6085 H 556.657 -0.0344314 -0.753213 0
M  V30 6086 H 559.308 -0.764426 -1.6682 0
M  V30 6087 H 557.69 0.596939 -3.91475 0
M  V30 6088 H 558.864 -2.26029 -4.01556 0
M  V30 6089 H 557.179 -1.90318 -3.70362 0
M  V30 6090 H 559.776 0.349013 -5.3356 0
M  V30 6091 H 560.119 1.34237 -3.94064 0
M  V30 6092 H 560.652 -0.356273 -3.96201 0
M  V30 6093 H 557.391 -2.49626 -6.06108 0
M  V30 6094 H 556.911 -0.787542 -5.94607 0
M  V30 6095 H 558.59 -1.21989 -6.35396 0
M  V30 6096 N 558.722 1.53707 -0.348139 0
M  V30 6097 C 559.652 2.28111 0.498766 0
M  V30 6098 C 560.633 1.29851 1.09876 0
M  V30 6099 O 561.818 1.587 1.11928 0
M  V30 6100 C 558.948 3.05735 1.64753 0
M  V30 6101 C 557.902 4.11537 1.17565 0
M  V30 6102 C 557.228 4.77142 2.4133 0
M  V30 6103 C 558.528 5.21587 0.272844 0
M  V30 6104 H 560.222 2.99152 -0.121934 0
M  V30 6105 H 557.768 1.43875 -0.0600842 0
M  V30 6106 H 559.721 3.56526 2.24649 0
M  V30 6107 H 558.445 2.32354 2.2952 0
M  V30 6108 H 557.104 3.61665 0.599483 0
M  V30 6109 H 556.752 4.0035 3.04514 0
M  V30 6110 H 556.452 5.48626 2.10436 0
M  V30 6111 H 557.976 5.30719 3.01943 0
M  V30 6112 H 559.39 5.67986 0.778779 0
M  V30 6113 H 557.787 6.00074 0.0555849 0
M  V30 6114 H 558.857 4.79969 -0.689785 0
M  V30 6115 N 560.2 0.0768682 1.57412 0
M  V30 6116 C 561.616 -0.279772 1.57129 0
M  V30 6117 C 561.816 -1.69688 1.08666 0
M  V30 6118 O 560.872 -2.40953 0.754843 0
M  V30 6119 C 562.185 -0.0848055 3.0058 0
M  V30 6120 C 563.733 -0.153954 3.12621 0
M  V30 6121 C 564.208 0.0127946 4.57998 0
M  V30 6122 N 565.699 -0.0426435 4.6318 0
M  V30 6123 C 566.434 0.0618892 5.73367 0
M  V30 6124 N 565.93 0.220229 6.9245 0
M  V30 6125 N 567.723 0.00446072 5.621 0
M  V30 6126 H 559.874 1.00297 1.87228 0
M  V30 6127 H 562.137 0.391565 0.863354 0
M  V30 6128 H 561.843 0.89325 3.40168 0
M  V30 6129 H 561.717 -0.834961 3.67843 0
M  V30 6130 H 564.104 -1.1225 2.72917 0
M  V30 6131 H 564.185 0.627389 2.47987 0
M  V30 6132 H 563.829 0.978128 4.98392 0
M  V30 6133 H 563.759 -0.788016 5.20671 0
M  V30 6134 H 566.25 -0.163226 3.77547 0
M  V30 6135 H 566.563 0.291999 7.72248 0
M  V30 6136 H 564.908 0.255658 6.9453 0
M  V30 6137 H 568.099 -0.117979 4.67951 0
M  V30 6138 H 568.272 0.0893796 6.47938 0
M  V30 6139 N 561.678 -1.56367 -0.196722 0
M  V30 6140 C 562.61 -1.90941 -1.26784 0
M  V30 6141 C 563.623 -0.799928 -1.41792 0
M  V30 6142 O 564.812 -1.07833 -1.42247 0
M  V30 6143 C 561.912 -2.12477 -2.6402 0
M  V30 6144 C 561.085 -3.43616 -2.70641 0
M  V30 6145 C 560.144 -3.54284 -3.89062 0
M  V30 6146 O 559.17 -4.2712 -3.76241 0
M  V30 6147 N 560.372 -2.87252 -5.04447 0
M  V30 6148 H 563.137 -2.83417 -0.974417 0
M  V30 6149 H 560.698 -1.57215 -0.386649 0
M  V30 6150 H 562.69 -2.16904 -3.41665 0
M  V30 6151 H 561.26 -1.26508 -2.85857 0
M  V30 6152 H 560.48 -3.51072 -1.79283 0
M  V30 6153 H 561.768 -4.29958 -2.72054 0
M  V30 6154 H 561.166 -2.27901 -5.17762 0
M  V30 6155 H 559.723 -2.97308 -5.80044 0
M  V30 6156 N 563.156 0.464375 -1.50603 0
M  V30 6157 C 564.572 0.798684 -1.38178 0
M  V30 6158 C 564.772 1.96568 -0.44308 0
M  V30 6159 O 563.828 2.52252 0.111814 0
M  V30 6160 C 565.141 1.10444 -2.79683 0
M  V30 6161 C 566.689 1.2105 -2.88645 0
M  V30 6162 C 567.164 1.54934 -4.30998 0
M  V30 6163 N 568.655 1.61913 -4.3398 0
M  V30 6164 C 569.39 1.8965 -5.41129 0
M  V30 6165 N 568.886 2.15361 -6.58477 0
M  V30 6166 N 570.679 1.91207 -5.28579 0
M  V30 6167 H 562.83 -0.304603 -2.10204 0
M  V30 6168 H 565.093 -0.0737804 -0.945125 0
M  V30 6169 H 564.799 0.319934 -3.50242 0
M  V30 6170 H 564.673 2.03896 -3.17342 0
M  V30 6171 H 567.06 1.98567 -2.18301 0
M  V30 6172 H 567.141 0.255613 -2.5452 0
M  V30 6173 H 566.785 0.779549 -5.01882 0
M  V30 6174 H 566.715 2.51584 -4.62615 0
M  V30 6175 H 569.206 1.44055 -3.49366 0
M  V30 6176 H 569.519 2.35818 -7.35941 0
M  V30 6177 H 567.864 2.1274 -6.6164 0
M  V30 6178 H 571.055 1.70622 -4.35897 0
M  V30 6179 H 571.228 2.12488 -6.12171 0
M  V30 6180 N 564.634 1.40294 0.718013 0
M  V30 6181 C 565.88 1.38645 1.48005 0
M  V30 6182 C 566.213 -0.0121202 1.94196 0
M  V30 6183 O 565.488 -0.980309 1.67989 0
M  V30 6184 C 565.771 2.37379 2.70782 0
M  V30 6185 C 565.624 3.8625 2.30501 0
M  V30 6186 C 566.943 2.33685 3.72933 0
M  V30 6187 H 564.062 0.504928 0.536858 0
M  V30 6188 H 566.704 1.71411 0.819649 0
M  V30 6189 H 564.854 2.09568 3.27129 0
M  V30 6190 H 566.526 4.24879 1.79655 0
M  V30 6191 H 564.769 4.02202 1.6253 0
M  V30 6192 H 565.44 4.50847 3.18498 0
M  V30 6193 H 567.916 2.58314 3.2621 0
M  V30 6194 H 566.792 3.0482 4.56482 0
M  V30 6195 H 567.053 1.34765 4.21059 0
M  V30 6196 N 566.112 -0.949982 1.2575 0
M  V30 6197 C 567.022 -2.08109 1.08295 0
M  V30 6198 C 568.038 -1.7399 0.0188181 0
M  V30 6199 O 569.214 -2.00187 0.220724 0
M  V30 6200 C 566.279 -3.39383 0.708534 0
M  V30 6201 C 565.34 -3.8734 1.85111 0
M  V30 6202 C 564.573 -5.12349 1.49447 0
M  V30 6203 O 564.796 -5.6905 0.392212 0
M  V30 6204 O 563.73 -5.5513 2.32624 0
M  V30 6205 H 567.556 -2.25738 2.03165 0
M  V30 6206 H 565.141 -1.06545 1.04731 0
M  V30 6207 H 567.023 -4.18277 0.512061 0
M  V30 6208 H 565.698 -3.23013 -0.210854 0
M  V30 6209 H 564.605 -3.09429 2.10248 0
M  V30 6210 H 565.938 -4.08216 2.74991 0
M  V30 6211 N 567.59 -1.07411 -1.15328 0
M  V30 6212 C 568.538 -0.689316 -2.22151 0
M  V30 6213 C 569.532 0.300156 -1.6672 0
M  V30 6214 O 570.738 0.163804 -1.79253 0
M  V30 6215 H 567.113 -0.204834 -0.723566 0
M  V30 6216 H 569.084 -1.59988 -2.51886 0
M  V30 6217 C 567.833 -0.103848 -3.47545 0
M  V30 6218 H 567.156 -0.856367 -3.90521 0
M  V30 6219 H 568.596 0.127725 -4.23808 0
M  V30 6220 C 567.055 1.15563 -3.1646 0
M  V30 6221 O 567.585 2.242 -3.33312 0
M  V30 6222 N 565.791 1.06203 -2.70498 0
M  V30 6223 H 565.338 0.177933 -2.56985 0
M  V30 6224 H 565.296 1.90553 -2.50074 0
M  V30 6225 N 569.068 1.32177 -0.85831 0
M  V30 6226 C 570.316 1.96735 -0.462568 0
M  V30 6227 C 570.637 1.6824 0.985911 0
M  V30 6228 O 569.907 0.991564 1.68952 0
M  V30 6229 H 568.487 0.727849 -0.168064 0
M  V30 6230 H 571.149 1.61195 -1.09554 0
M  V30 6231 H 570.245 3.06068 -0.610647 0
M  V30 6232 N 570.547 0.616602 1.45037 0
M  V30 6233 C 571.495 -0.109318 2.32343 0
M  V30 6234 C 572.489 -0.850543 1.465 0
M  V30 6235 O 573.695 -0.765088 1.62931 0
M  V30 6236 H 570.07 -0.0541091 0.750051 0
M  V30 6237 H 572.041 0.645326 2.91338 0
M  V30 6238 C 570.79 -1.0872 3.30266 0
M  V30 6239 H 570.113 -0.526267 3.96321 0
M  V30 6240 H 571.553 -1.56489 3.94065 0
M  V30 6241 C 570.012 -2.16525 2.58105 0
M  V30 6242 O 570.542 -3.244 2.36913 0
M  V30 6243 N 568.748 -1.92057 2.18088 0
M  V30 6244 H 568.295 -1.04337 2.35524 0
M  V30 6245 H 568.253 -2.64391 1.70131 0
M  V30 6246 O 572.064 -1.53615 0.498481 0
M  V30 6247 H 572.755 -1.9369 -0.0197948 0
M  V30 END ATOM
M  V30 BEGIN BOND
M  V30 END BOND
M  V30 END CTAB
M  END
$$$$
