drugbank_target|P54764 Ephrin type-A receptor 4 (DB12010)
 OpenBabel12092121153D

  0  0  0     0  0            999 V3000
M  V30 BEGIN CTAB
M  V30 COUNTS 15312 15471 0 0 0
M  V30 BEGIN ATOM
M  V30 1 H -0.908 1.98254 -0.117106 0
M  V30 2 N 0 1.576 0 0
M  V30 3 C 0.933 2.03868 1.02534 0
M  V30 4 C 1.911 0.928543 1.3348 0
M  V30 5 O 3.095 1.19667 1.45644 0
M  V30 6 C 0.222 2.43627 2.35294 0
M  V30 7 C -0.732 3.65373 2.2001 0
M  V30 8 S 0.101 5.13292 1.52614 0
M  V30 9 C 1.257 5.56322 2.86805 0
M  V30 10 H 1.49 2.90518 0.631377 0
M  V30 11 H -0.977 1.52953 0.210867 0
M  V30 12 H 0.981 2.67203 3.11629 0
M  V30 13 H -0.358 1.57376 2.7183 0
M  V30 14 H -1.165 3.90944 3.18086 0
M  V30 15 H -1.563 3.418 1.51819 0
M  V30 16 H 0.729 5.58782 3.83104 0
M  V30 17 H 1.672 6.56266 2.65933 0
M  V30 18 H 2.08 4.83886 2.90714 0
M  V30 19 N 1.4781 -0.272755 1.55222 0
M  V30 20 C 2.4411 -1.32041 1.87344 0
M  V30 21 C 3.4411 -1.42342 0.74803 0
M  V30 22 O 4.6311 -1.41488 1.0162 0
M  V30 23 C 1.7631 -2.70173 2.07893 0
M  V30 24 H 2.9561 -1.04789 2.80997 0
M  V30 25 H 0.5091 -0.51083 1.47717 0
M  V30 26 H 1.2441 -3.02605 1.16622 0
M  V30 27 H 1.0291 -2.64082 2.89833 0
M  V30 28 H 2.5191 -3.45869 2.34017 0
M  V30 29 N 2.9562 -1.48159 -0.537278 0
M  V30 30 C 4.2042 -1.55497 -1.29094 0
M  V30 31 C 4.5252 -0.227454 -1.93669 0
M  V30 32 O 3.7952 0.750386 -1.80959 0
M  V30 33 H 2.3752 -0.572832 -0.47945 0
M  V30 34 H 5.0372 -1.84579 -0.625818 0
M  V30 35 H 4.1332 -2.33216 -2.07405 0
M  V30 36 N 4.4343 0.785586 -1.36625 0
M  V30 37 C 5.6833 1.53883 -1.30396 0
M  V30 38 C 5.9963 1.95271 0.113452 0
M  V30 39 O 7.2023 2.69858 0.298142 0
M  V30 40 C 5.6583 2.77808 -2.28802 0
M  V30 41 C 5.2663 2.43574 -3.75999 0
M  V30 42 C 7.0103 3.55783 -2.31558 0
M  V30 43 C 4.9173 3.63919 -4.66173 0
M  V30 44 H 3.8473 0.577678 -0.484566 0
M  V30 45 H 6.4983 0.861705 -1.62009 0
M  V30 46 H 4.8803 3.47339 -1.90188 0
M  V30 47 H 6.0543 1.81916 -4.23371 0
M  V30 48 H 4.3693 1.78803 -3.76056 0
M  V30 49 H 6.9663 4.45205 -2.96137 0
M  V30 50 H 7.3093 3.94644 -1.3252 0
M  V30 51 H 7.8423 2.93235 -2.68809 0
M  V30 52 H 4.5813 3.3015 -5.66287 0
M  V30 53 H 4.1013 4.2473 -4.23515 0
M  V30 54 H 5.7803 4.30901 -4.82632 0
M  V30 55 N 5.9124 1.20967 1.01018 0
M  V30 56 C 7.1594 1.02374 1.74716 0
M  V30 57 C 7.4874 -0.443375 1.89379 0
M  V30 58 O 6.7424 -1.34535 1.42123 0
M  V30 59 C 7.0414 1.65997 3.16512 0
M  V30 60 C 6.7074 3.15831 3.2181 0
M  V30 61 C 5.3694 3.56719 3.22963 0
M  V30 62 C 7.7214 4.11816 3.19464 0
M  V30 63 C 5.0494 4.92107 3.19449 0
M  V30 64 C 7.4014 5.47158 3.17491 0
M  V30 65 C 6.0654 5.87451 3.16951 0
M  V30 66 H 5.3354 0.374614 0.639332 0
M  V30 67 H 7.9824 1.50485 1.18434 0
M  V30 68 H 6.2874 1.10166 3.75993 0
M  V30 69 H 7.9844 1.49119 3.72242 0
M  V30 70 H 4.5744 2.83263 3.21652 0
M  V30 71 H 8.7584 3.81257 3.17737 0
M  V30 72 H 4.0144 5.22579 3.17366 0
M  V30 73 H 8.1884 6.21274 3.14629 0
M  V30 74 H 5.8154 6.92329 3.13983 0
M  V30 75 N 7.3905 -1.2043 1.01659 0
M  V30 76 C 8.6205 -1.93496 0.724081 0
M  V30 77 C 9.0285 -1.74998 -0.71918 0
M  V30 78 O 8.3715 -1.06118 -1.49949 0
M  V30 79 C 8.4335 -3.45886 0.97994 0
M  V30 80 C 8.0975 -3.88145 2.41232 0
M  V30 81 C 9.0945 -3.93907 3.39313 0
M  V30 82 C 6.7795 -4.20134 2.75305 0
M  V30 83 C 8.7735 -4.31069 4.6953 0
M  V30 84 C 6.4605 -4.56971 4.05735 0
M  V30 85 C 7.4585 -4.62411 5.02658 0
M  V30 86 O 7.1465 -4.98403 6.30754 0
M  V30 87 H 6.8785 -0.621824 0.265162 0
M  V30 88 H 9.4325 -1.53867 1.36066 0
M  V30 89 H 7.6625 -3.85639 0.286198 0
M  V30 90 H 9.3515 -4.0018 0.679021 0
M  V30 91 H 10.1175 -3.69357 3.14325 0
M  V30 92 H 5.9965 -4.1509 2.00551 0
M  V30 93 H 9.5405 -4.3523 5.45179 0
M  V30 94 H 5.4375 -4.80977 4.30502 0
M  V30 95 H 6.2055 -5.16395 6.35042 0
M  V30 96 N 8.8686 -0.792821 -1.36206 0
M  V30 97 C 10.1156 -0.366786 -1.99151 0
M  V30 98 C 10.4436 1.06243 -1.62919 0
M  V30 99 O 9.6986 1.74927 -0.877442 0
M  V30 100 C 9.9976 -0.481501 -3.54142 0
M  V30 101 C 9.6636 -1.87202 -4.10203 0
M  V30 102 C 8.3256 -2.25248 -4.25226 0
M  V30 103 C 10.6776 -2.78237 -4.40719 0
M  V30 104 C 8.0056 -3.53723 -4.68078 0
M  V30 105 C 10.3576 -4.06144 -4.85005 0
M  V30 106 C 9.0216 -4.44207 -4.98234 0
M  V30 107 H 8.2916 -0.134217 -0.728743 0
M  V30 108 H 10.9386 -1.01094 -1.62641 0
M  V30 109 H 9.2436 0.246146 -3.91026 0
M  V30 110 H 10.9406 -0.132844 -4.0078 0
M  V30 111 H 7.5306 -1.56639 -3.98951 0
M  V30 112 H 11.7146 -2.50097 -4.28679 0
M  V30 113 H 6.9706 -3.8308 -4.76508 0
M  V30 114 H 11.1446 -4.76796 -5.07581 0
M  V30 115 H 8.7716 -5.43814 -5.31197 0
M  V30 116 N 10.3467 1.47872 -0.545128 0
M  V30 117 C 11.3097 2.28337 0.198717 0
M  V30 118 C 12.3097 1.36255 0.853888 0
M  V30 119 O 13.4997 1.59003 0.711606 0
M  V30 120 C 10.6317 3.15585 1.28915 0
M  V30 121 H 11.8247 2.95567 -0.507941 0
M  V30 122 H 9.3777 1.53362 -0.301616 0
M  V30 123 H 10.1127 2.53019 2.02859 0
M  V30 124 H 9.8977 3.83337 0.824309 0
M  V30 125 H 11.3877 3.76243 1.81194 0
M  V30 126 N 11.8248 0.280983 1.55075 0
M  V30 127 C 12.7548 -0.597469 2.25727 0
M  V30 128 C 13.7358 -1.15417 1.24952 0
M  V30 129 O 14.9208 -1.18722 1.53684 0
M  V30 130 C 12.0508 -1.7789 2.98283 0
M  V30 131 C 11.0048 -1.35347 4.06036 0
M  V30 132 C 10.3308 -2.61846 4.66198 0
M  V30 133 C 11.6308 -0.499354 5.19907 0
M  V30 134 H 13.3248 -0.00824265 2.99399 0
M  V30 135 H 10.8708 -0.0025244 1.44 0
M  V30 136 H 12.8238 -2.39937 3.46422 0
M  V30 137 H 11.5478 -2.39405 2.22155 0
M  V30 138 H 10.2068 -0.756156 3.58717 0
M  V30 139 H 9.8548 -3.21632 3.86732 0
M  V30 140 H 9.5548 -2.3409 5.38958 0
M  V30 141 H 11.0788 -3.24732 5.1709 0
M  V30 142 H 12.4928 -1.02498 5.64063 0
M  V30 143 H 10.8898 -0.316424 5.99265 0
M  V30 144 H 11.9598 0.480459 4.82514 0
M  V30 145 N 13.3029 -1.57598 0.00835791 0
M  V30 146 C 14.5499 -1.90928 -0.674732 0
M  V30 147 C 14.8779 -0.88277 -1.73313 0
M  V30 148 O 14.1329 0.111294 -1.95383 0
M  V30 149 C 14.4319 -3.3101 -1.34787 0
M  V30 150 C 14.0979 -4.48922 -0.421861 0
M  V30 151 C 12.7599 -4.8091 -0.166927 0
M  V30 152 C 15.1119 -5.20755 0.215211 0
M  V30 153 C 12.4399 -5.821 0.733232 0
M  V30 154 C 14.7919 -6.22905 1.1033 0
M  V30 155 C 13.4559 -6.53346 1.36733 0
M  V30 156 H 12.7259 -0.698656 -0.246902 0
M  V30 157 H 15.3729 -1.91387 0.0656779 0
M  V30 158 H 13.6779 -3.26714 -2.16253 0
M  V30 159 H 15.3749 -3.54061 -1.8826 0
M  V30 160 H 11.9649 -4.23934 -0.630729 0
M  V30 161 H 16.1489 -4.9629 0.0312829 0
M  V30 162 H 11.4049 -6.04042 0.945712 0
M  V30 163 H 15.5789 -6.77694 1.60325 0
M  V30 164 H 13.2059 -7.31573 2.06652 0
M  V30 165 N 14.781 0.264519 -1.55364 0
M  V30 166 C 16.006 1.01726 -1.80739 0
M  V30 167 C 16.431 1.78836 -0.583044 0
M  V30 168 O 15.789 1.75167 0.467566 0
M  V30 169 C 15.837 1.94482 -3.03659 0
M  V30 170 O 14.941 3.03386 -2.7934 0
M  V30 171 H 14.282 0.290395 -0.597132 0
M  V30 172 H 16.812 0.290854 -2.02522 0
M  V30 173 H 16.822 2.36278 -3.32621 0
M  V30 174 H 15.497 1.37772 -3.92418 0
M  V30 175 H 14.074 2.65844 -2.61498 0
M  V30 176 N 16.2591 1.48442 0.529413 0
M  V30 177 C 17.4991 1.58086 1.29569 0
M  V30 178 C 17.8631 0.249302 1.90375 0
M  V30 179 O 19.0641 0.220738 2.67892 0
M  V30 180 C 17.3351 2.68793 2.35552 0
M  V30 181 S 18.8941 2.98207 3.21898 0
M  V30 182 H 15.7121 0.557922 0.440732 0
M  V30 183 H 18.3141 1.85966 0.603059 0
M  V30 184 H 17.0181 3.64102 1.89363 0
M  V30 185 H 16.5491 2.42817 3.09522 0
M  V30 186 H 18.5641 2.37548 4.35644 0
M  V30 187 N 17.7372 -0.778329 1.37039 0
M  V30 188 C 18.6672 -1.90546 1.34962 0
M  V30 189 C 19.6482 -1.68681 0.219274 0
M  V30 190 O 20.8332 -1.89634 0.418624 0
M  V30 191 C 17.9632 -3.27734 1.14925 0
M  V30 192 C 16.9172 -3.64147 2.24902 0
M  V30 193 C 16.2432 -4.99806 1.89996 0
M  V30 194 C 17.5432 -3.71579 3.67051 0
M  V30 195 H 19.2372 -1.92541 2.29277 0
M  V30 196 H 16.7832 -0.924948 1.10366 0
M  V30 197 H 18.7362 -4.06215 1.12104 0
M  V30 198 H 17.4602 -3.26154 0.170631 0
M  V30 199 H 16.1192 -2.8797 2.26868 0
M  V30 200 H 15.7672 -4.94759 0.906796 0
M  V30 201 H 15.4672 -5.25139 2.63634 0
M  V30 202 H 16.9912 -5.80694 1.88749 0
M  V30 203 H 18.4052 -4.40227 3.67251 0
M  V30 204 H 16.8022 -4.08405 4.39688 0
M  V30 205 H 17.8722 -2.72404 4.01154 0
M  V30 206 N 19.2153 -1.21501 -1.00376 0
M  V30 207 C 20.4623 -1.03299 -1.74171 0
M  V30 208 C 20.7903 0.433326 -1.89612 0
M  V30 209 O 20.0453 1.33779 -1.42834 0
M  V30 210 C 20.3443 -1.67673 -3.15627 0
M  V30 211 C 20.0103 -3.17533 -3.2013 0
M  V30 212 C 18.6723 -3.58427 -3.21067 0
M  V30 213 C 21.0243 -4.13504 -3.17275 0
M  V30 214 C 18.3523 -4.93794 -3.16835 0
M  V30 215 C 20.7043 -5.48834 -3.14585 0
M  V30 216 C 19.3683 -5.89123 -3.13831 0
M  V30 217 H 18.6383 -0.377999 -0.637336 0
M  V30 218 H 21.2853 -1.51111 -1.17634 0
M  V30 219 H 19.5903 -1.12158 -3.75404 0
M  V30 220 H 21.2873 -1.51091 -3.71446 0
M  V30 221 H 17.8773 -2.84965 -3.20145 0
M  V30 222 H 22.0613 -3.82936 -3.15711 0
M  V30 223 H 17.3173 -5.24255 -3.1459 0
M  V30 224 H 21.4913 -6.22934 -3.1133 0
M  V30 225 H 19.1183 -6.93984 -3.10307 0
M  V30 226 N 20.6934 1.19889 -1.02296 0
M  V30 227 C 21.9414 1.89046 -0.714558 0
M  V30 228 C 22.2624 1.79636 0.758681 0
M  V30 229 O 21.5324 1.20292 1.54618 0
M  V30 230 H 20.1124 0.699802 -0.261317 0
M  V30 231 H 22.7744 1.45574 -1.29592 0
M  V30 232 H 21.8704 2.95524 -1.0036 0
M  V30 233 N 22.1715 0.800033 1.35784 0
M  V30 234 C 23.4205 0.37387 1.98205 0
M  V30 235 C 23.7335 -1.06302 1.64193 0
M  V30 236 O 24.9395 -1.59198 2.19928 0
M  V30 237 C 23.3955 0.617532 3.54562 0
M  V30 238 C 23.0035 2.06654 3.9749 0
M  V30 239 C 24.7475 0.256401 4.23725 0
M  V30 240 C 22.6545 2.2563 5.46667 0
M  V30 241 H 21.5845 0.136055 0.741623 0
M  V30 242 H 24.2355 0.983166 1.54939 0
M  V30 243 H 22.6175 -0.0616248 3.95952 0
M  V30 244 H 23.7915 2.78296 3.67271 0
M  V30 245 H 22.1065 2.38691 3.41197 0
M  V30 246 H 24.7035 0.376318 5.33374 0
M  V30 247 H 25.0465 -0.796692 4.08606 0
M  V30 248 H 25.5795 0.889214 3.87734 0
M  V30 249 H 22.3185 3.2936 5.66747 0
M  V30 250 H 21.8385 1.58504 5.78478 0
M  V30 251 H 23.5175 2.06861 6.1304 0
M  V30 252 N 23.6496 -1.47581 0.552962 0
M  V30 253 C 24.8896 -2.04379 0.0296245 0
M  V30 254 C 25.2536 -1.4185 -1.29393 0
M  V30 255 O 26.4546 -1.89669 -1.90471 0
M  V30 256 C 24.7256 -3.57339 -0.0661371 0
M  V30 257 S 26.2846 -4.35511 -0.536213 0
M  V30 258 H 23.1026 -0.710625 0.0230991 0
M  V30 259 H 25.7046 -1.81005 0.738734 0
M  V30 260 H 24.4086 -4.00374 0.901596 0
M  V30 261 H 23.9396 -3.85202 -0.798931 0
M  V30 262 H 25.9546 -4.6253 -1.79668 0
M  V30 263 N 25.1277 -0.289203 -1.54924 0
M  V30 264 C 26.4047 0.376032 -1.91951 0
M  V30 265 C 26.7847 1.72622 -1.21511 0
M  V30 266 O 26.1327 2.25853 -0.346767 0
M  V30 267 C 26.3427 0.502378 -3.45365 0
M  V30 268 C 27.6907 0.778741 -4.17398 0
M  V30 269 O 28.7147 0.586647 -3.51336 0
M  V30 270 O 27.5737 1.14698 -5.34328 0
M  V30 271 H 24.6677 0.208167 -0.800372 0
M  V30 272 H 27.2137 -0.336394 -1.66332 0
M  V30 273 H 25.9857 -0.447255 -3.88736 0
M  V30 274 H 25.6087 1.26373 -3.76982 0
M  V30 275 N 26.6058 1.57591 -0.0167156 0
M  V30 276 C 27.5688 2.08393 0.954204 0
M  V30 277 C 28.5688 0.996531 1.26198 0
M  V30 278 O 29.7588 1.25858 1.20438 0
M  V30 279 C 26.8908 2.5394 2.27436 0
M  V30 280 H 28.0838 2.95455 0.514451 0
M  V30 281 H 25.6368 1.54582 0.231089 0
M  V30 282 H 26.3718 1.70171 2.76066 0
M  V30 283 H 26.1568 3.33371 2.06412 0
M  V30 284 H 27.6468 2.93512 2.97053 0
M  V30 285 N 28.0839 -0.256276 1.55502 0
M  V30 286 C 29.3299 -0.987079 1.77157 0
M  V30 287 C 29.6629 -1.85327 0.580315 0
M  V30 288 O 28.9379 -1.89874 -0.421686 0
M  V30 289 C 29.2209 -1.85553 3.08613 0
M  V30 290 C 29.0739 -1.01816 4.38125 0
M  V30 291 C 30.3929 -2.8397 3.36228 0
M  V30 292 H 27.5119 -0.357428 0.644526 0
M  V30 293 H 30.1539 -0.258239 1.88237 0
M  V30 294 H 28.3039 -2.47695 2.99298 0
M  V30 295 H 29.9759 -0.416159 4.59419 0
M  V30 296 H 28.2189 -0.322178 4.32602 0
M  V30 297 H 28.8899 -1.65939 5.26468 0
M  V30 298 H 31.3659 -2.31964 3.45445 0
M  V30 299 H 30.2419 -3.41864 4.29442 0
M  V30 300 H 30.5029 -3.59955 2.56681 0
M  V30 301 N 29.562 -1.4872 -0.521534 0
M  V30 302 C 30.79 -1.60843 -1.30142 0
M  V30 303 C 31.205 -0.271897 -1.86832 0
M  V30 304 O 30.562 0.739969 -1.66825 0
M  V30 305 C 30.613 -2.66155 -2.4463 0
M  V30 306 O 30.334 -3.94623 -1.90275 0
M  V30 307 C 31.835 -2.88795 -3.36322 0
M  V30 308 H 29.055 -0.542075 -0.395468 0
M  V30 309 H 31.599 -1.94609 -0.628285 0
M  V30 310 H 29.754 -2.35224 -3.07812 0
M  V30 311 H 30.168 -4.52468 -2.65279 0
M  V30 312 H 31.642 -3.66264 -4.12983 0
M  V30 313 H 32.119 -1.97934 -3.9207 0
M  V30 314 H 32.725 -3.21063 -2.78924 0
M  V30 315 N 31.0401 0.771051 -1.3745 0
M  V30 316 C 32.2881 1.52661 -1.32435 0
M  V30 317 C 32.6091 1.9479 0.0905024 0
M  V30 318 O 31.8791 1.66348 1.03466 0
M  V30 319 H 30.4591 0.566218 -0.487244 0
M  V30 320 H 33.1211 0.917636 -1.71946 0
M  V30 321 H 32.2171 2.42568 -1.96385 0
M  V30 322 N 32.5182 1.22032 0.997298 0
M  V30 323 C 33.7432 1.06921 1.77715 0
M  V30 324 C 34.1682 -0.376226 1.84299 0
M  V30 325 O 33.5262 -1.27165 1.29223 0
M  V30 326 C 33.5742 1.67996 3.19076 0
M  V30 327 O 32.6782 0.930653 4.01762 0
M  V30 328 H 32.0192 0.375814 0.547412 0
M  V30 329 H 34.5492 1.61737 1.25309 0
M  V30 330 H 34.5592 1.72538 3.69723 0
M  V30 331 H 33.2342 2.73182 3.13599 0
M  V30 332 H 31.8112 0.960917 3.60307 0
M  V30 333 N 33.9963 -1.19345 1.0293 0
M  V30 334 C 35.4123 -1.41069 0.746446 0
M  V30 335 C 35.6123 -1.90078 -0.668776 0
M  V30 336 O 34.6683 -2.0778 -1.4347 0
M  V30 337 C 35.9813 -2.42141 1.78292 0
M  V30 338 C 37.5293 -2.55887 1.80252 0
M  V30 339 C 38.0043 -3.60214 2.8286 0
M  V30 340 N 39.4953 -3.67711 2.81679 0
M  V30 341 C 40.2303 -4.48128 3.57727 0
M  V30 342 N 39.7263 -5.32248 4.43491 0
M  V30 343 N 41.5193 -4.42782 3.46267 0
M  V30 344 H 33.6703 -0.858536 1.94275 0
M  V30 345 H 35.9333 -0.439541 0.839945 0
M  V30 346 H 35.6393 -2.13155 2.79746 0
M  V30 347 H 35.5133 -3.41323 1.60557 0
M  V30 348 H 37.9003 -2.84196 0.794757 0
M  V30 349 H 37.9813 -1.56858 2.02062 0
M  V30 350 H 37.6253 -3.32647 3.83807 0
M  V30 351 H 37.5553 -4.58895 2.58307 0
M  V30 352 H 40.0463 -3.07634 2.19476 0
M  V30 353 H 40.3593 -5.90729 4.98256 0
M  V30 354 H 38.7043 -5.31707 4.47564 0
M  V30 355 H 41.8953 -3.76107 2.78677 0
M  V30 356 H 42.0683 -5.05215 4.05785 0
M  V30 357 N 35.4744 -0.807222 -1.35358 0
M  V30 358 C 36.7204 -0.388463 -1.99045 0
M  V30 359 C 37.0534 1.04184 -1.63888 0
M  V30 360 O 36.3284 1.72292 -0.902535 0
M  V30 361 C 36.6114 -0.572783 -3.55515 0
M  V30 362 C 36.4644 -2.04807 -4.00468 0
M  V30 363 C 37.7834 0.00114064 -4.401 0
M  V30 364 H 34.9024 -0.142619 -0.723069 0
M  V30 365 H 37.5444 -1.01687 -1.60498 0
M  V30 366 H 35.6944 -0.0378425 -3.88482 0
M  V30 367 H 37.3664 -2.64544 -3.77908 0
M  V30 368 H 35.6094 -2.54427 -3.51353 0
M  V30 369 H 36.2804 -2.12792 -5.09337 0
M  V30 370 H 38.7564 -0.455716 -4.13597 0
M  V30 371 H 37.6324 -0.157737 -5.48673 0
M  V30 372 H 37.8934 1.09488 -4.28328 0
M  V30 373 N 36.9525 1.47285 -0.560781 0
M  V30 374 C 38.1825 2.06555 -0.0429638 0
M  V30 375 C 38.5905 1.41339 1.25777 0
M  V30 376 O 37.9335 0.505182 1.76617 0
M  V30 377 C 37.9955 3.58827 0.219887 0
M  V30 378 C 37.6595 4.46105 -0.991944 0
M  V30 379 C 38.6565 4.84 -1.89843 0
M  V30 380 C 36.3415 4.87567 -1.20762 0
M  V30 381 C 38.3355 5.6216 -3.00425 0
M  V30 382 C 36.0225 5.65491 -2.31653 0
M  V30 383 C 37.0205 6.02699 -3.21315 0
M  V30 384 O 36.7085 6.79052 -4.30283 0
M  V30 385 H 36.4405 0.674537 -0.0444468 0
M  V30 386 H 38.9945 1.90225 -0.774818 0
M  V30 387 H 37.2245 3.73383 1.00609 0
M  V30 388 H 38.9135 4.00103 0.683522 0
M  V30 389 H 39.6795 4.52564 -1.74387 0
M  V30 390 H 35.5585 4.5807 -0.518893 0
M  V30 391 H 39.1025 5.9112 -3.70436 0
M  V30 392 H 34.9995 5.9634 -2.47081 0
M  V30 393 H 35.7675 6.9745 -4.28376 0
M  V30 394 N 38.4306 0.297415 1.54768 0
M  V30 395 C 39.8416 -0.195947 1.85669 0
M  V30 396 C 40.1926 -1.53707 1.21937 0
M  V30 397 O 39.3176 -2.10164 0.515754 0
M  V30 398 C 39.9126 -0.362318 3.36857 0
M  V30 399 C 38.4716 -0.799901 3.67802 0
M  V30 400 C 37.6186 0.0938578 2.77141 0
M  V30 401 H 40.5696 0.518538 1.4999 0
M  V30 402 H 40.5906 -1.19745 3.61167 0
M  V30 403 H 40.1026 0.613921 3.83214 0
M  V30 404 H 38.2036 -1.78682 3.26961 0
M  V30 405 H 38.3166 -0.621773 4.75048 0
M  V30 406 H 36.6806 -0.426254 2.51108 0
M  V30 407 H 37.4636 1.06639 3.26318 0
M  V30 408 N 39.9087 -1.5758 0.0250728 0
M  V30 409 C 40.8717 -2.08896 -0.943139 0
M  V30 410 C 41.8717 -1.00321 -1.25668 0
M  V30 411 O 43.0617 -1.26495 -1.19769 0
M  V30 412 C 40.1937 -2.55143 -2.26086 0
M  V30 413 H 41.3867 -2.95723 -0.498775 0
M  V30 414 H 38.9397 -1.54703 -0.222888 0
M  V30 415 H 39.6747 -1.71633 -2.75159 0
M  V30 416 H 39.4597 -3.34461 -2.04641 0
M  V30 417 H 40.9497 -2.95083 -2.95492 0
M  V30 418 N 41.3868 0.248026 -1.55636 0
M  V30 419 C 42.3348 1.32683 -1.91045 0
M  V30 420 C 43.3288 1.49883 -0.789401 0
M  V30 421 O 44.5348 1.51371 -0.974007 0
M  V30 422 H 40.9098 0.444272 -0.606734 0
M  V30 423 H 42.8808 1.00085 -2.81115 0
M  V30 424 C 41.6298 2.6755 -2.22064 0
M  V30 425 H 40.9528 2.55114 -3.07826 0
M  V30 426 H 42.3928 3.41912 -2.50743 0
M  V30 427 C 40.8518 3.20556 -1.0366 0
M  V30 428 O 41.3818 4.00695 -0.284016 0
M  V30 429 N 39.5878 2.78568 -0.82753 0
M  V30 430 H 39.1348 2.1351 -1.44123 0
M  V30 431 H 39.0928 3.14378 -0.0369803 0
M  V30 432 N 42.8649 1.48995 0.513639 0
M  V30 433 C 43.7749 1.67443 1.64317 0
M  V30 434 C 44.7909 0.556947 1.64846 0
M  V30 435 O 45.9669 0.830082 1.83498 0
M  V30 436 C 43.0319 1.72515 3.00732 0
M  V30 437 C 42.0929 2.96009 3.1093 0
M  V30 438 C 41.3259 3.00829 4.40837 0
M  V30 439 O 41.5489 2.13594 5.28898 0
M  V30 440 O 40.4829 3.93168 4.55744 0
M  V30 441 H 44.3089 2.63106 1.51687 0
M  V30 442 H 41.8939 1.32588 0.688543 0
M  V30 443 H 43.7759 1.78277 3.81831 0
M  V30 444 H 42.4509 0.800278 3.13651 0
M  V30 445 H 41.3579 2.9577 2.29065 0
M  V30 446 H 42.6909 3.87934 3.02933 0
M  V30 447 N 44.343 -0.763751 1.37857 0
M  V30 448 C 45.589 -1.52483 1.33704 0
M  V30 449 C 45.922 -1.94051 -0.0759612 0
M  V30 450 O 45.197 -1.64675 -1.03501 0
M  V30 451 C 45.48 -2.78441 2.28348 0
M  V30 452 C 45.333 -2.43075 3.78463 0
M  V30 453 C 46.652 -3.80415 2.21298 0
M  V30 454 H 43.771 -0.553169 0.487005 0
M  V30 455 H 46.413 -0.875562 1.68624 0
M  V30 456 H 44.563 -3.33842 1.987 0
M  V30 457 H 46.235 -1.93527 4.18742 0
M  V30 458 H 44.478 -1.75666 3.96641 0
M  V30 459 H 45.149 -3.33149 4.40132 0
M  V30 460 H 47.625 -3.34527 2.47449 0
M  V30 461 H 46.501 -4.66257 2.89647 0
M  V30 462 H 46.762 -4.25262 1.20849 0
M  V30 463 N 45.8211 -1.22559 -0.990812 0
M  V30 464 C 47.0491 -1.07779 -1.76611 0
M  V30 465 C 47.4641 0.371513 -1.85109 0
M  V30 466 O 46.8211 1.25737 -1.32274 0
M  V30 467 C 46.8721 -1.68512 -3.19822 0
M  V30 468 O 46.5931 -3.07774 -3.1178 0
M  V30 469 C 48.0941 -1.59035 -4.13791 0
M  V30 470 H 45.3141 -0.377729 -0.554583 0
M  V30 471 H 47.8581 -1.62195 -1.24551 0
M  V30 472 H 46.0131 -1.18154 -3.68942 0
M  V30 473 H 46.4271 -3.37062 -4.01858 0
M  V30 474 H 47.9011 -2.0625 -5.1202 0
M  V30 475 H 48.3781 -0.547273 -4.35777 0
M  V30 476 H 48.9841 -2.08709 -3.70568 0
M  V30 477 N 47.2992 1.18797 -1.03562 0
M  V30 478 C 48.2292 2.24472 -0.643019 0
M  V30 479 C 49.2102 1.66433 0.351283 0
M  V30 480 O 50.3952 1.92803 0.232505 0
M  V30 481 C 47.5252 3.473 4.24935e-05 0
M  V30 482 C 46.4792 4.18055 -0.917257 0
M  V30 483 C 45.8052 5.34519 -0.138941 0
M  V30 484 C 47.1052 4.72109 -2.23407 0
M  V30 485 H 48.7992 2.57566 -1.52643 0
M  V30 486 H 46.3452 1.23806 -0.735394 0
M  V30 487 H 48.2982 4.20426 0.286383 0
M  V30 488 H 47.0222 3.13424 0.918299 0
M  V30 489 H 45.6812 3.46821 -1.1879 0
M  V30 490 H 45.3292 4.96891 0.781562 0
M  V30 491 H 45.0292 5.82794 -0.750005 0
M  V30 492 H 46.5532 6.10438 0.1405 0
M  V30 493 H 47.9672 5.36955 -2.00879 0
M  V30 494 H 46.3642 5.30897 -2.79765 0
M  V30 495 H 47.4342 3.89807 -2.88407 0
M  V30 496 N 48.7773 0.814389 1.34928 0
M  V30 497 C 49.7073 0.244827 2.32213 0
M  V30 498 C 50.6883 -0.634024 1.57842 0
M  V30 499 O 51.8733 -0.562676 1.8587 0
M  V30 500 C 49.0033 -0.601106 3.42058 0
M  V30 501 C 47.9573 0.179896 4.27622 0
M  V30 502 C 47.2833 -0.788237 5.28858 0
M  V30 503 C 48.5833 1.38329 5.03649 0
M  V30 504 H 50.2773 1.05763 2.80097 0
M  V30 505 H 47.8233 0.510029 1.34665 0
M  V30 506 H 49.7763 -1.00968 4.09125 0
M  V30 507 H 48.5003 -1.44688 2.92802 0
M  V30 508 H 47.1593 0.569739 3.62146 0
M  V30 509 H 46.8073 -1.62973 4.75866 0
M  V30 510 H 46.5073 -0.269942 5.8698 0
M  V30 511 H 48.0313 -1.19485 5.98795 0
M  V30 512 H 49.4453 1.04918 5.63618 0
M  V30 513 H 47.8423 1.83662 5.71304 0
M  V30 514 H 48.9123 2.16592 4.33839 0
M  V30 515 N 50.2554 -1.46986 0.568584 0
M  V30 516 C 51.5324 -1.95592 -0.0174074 0
M  V30 517 C 51.9124 -1.51124 -1.47393 0
M  V30 518 O 51.2604 -0.755329 -2.15655 0
M  V30 519 C 51.4704 -3.48719 0.139913 0
M  V30 520 C 52.8184 -4.246 0.000426376 0
M  V30 521 O 53.8424 -3.56135 0.0680316 0
M  V30 522 O 52.7014 -5.46302 -0.146988 0
M  V30 523 H 49.7954 -0.82498 -0.0577599 0
M  V30 524 H 52.3414 -1.57335 0.635909 0
M  V30 525 H 51.1134 -3.73927 1.15301 0
M  V30 526 H 50.7364 -3.93771 -0.550491 0
M  V30 527 N 51.7335 -0.305618 -1.54608 0
M  V30 528 C 52.9585 0.307562 -2.05107 0
M  V30 529 C 53.3835 1.46385 -1.18123 0
M  V30 530 O 52.7415 1.8034 -0.186324 0
M  V30 531 C 52.7895 0.73704 -3.52987 0
M  V30 532 O 51.8935 1.84134 -3.6901 0
M  V30 533 H 51.2345 0.0589143 -0.661381 0
M  V30 534 H 53.7645 -0.448807 -1.99617 0
M  V30 535 H 53.7745 1.02459 -3.94925 0
M  V30 536 H 52.4495 -0.108773 -4.15758 0
M  V30 537 H 51.0265 1.55398 -3.38978 0
M  V30 538 N 53.2116 1.57565 -0.0334293 0
M  V30 539 C 54.6276 1.56297 0.322997 0
M  V30 540 C 54.8276 1.03945 1.7262 0
M  V30 541 O 53.8836 0.688109 2.42943 0
M  V30 542 C 55.1966 3.00232 0.167664 0
M  V30 543 C 56.7446 3.12078 0.240107 0
M  V30 544 C 57.2196 4.57859 0.113513 0
M  V30 545 N 58.7106 4.62887 0.170359 0
M  V30 546 C 59.4456 5.73319 0.0962517 0
M  V30 547 N 58.9416 6.92794 -0.0291881 0
M  V30 548 N 60.7346 5.61898 0.150551 0
M  V30 549 H 52.8856 1.89923 -0.950956 0
M  V30 550 H 55.1486 0.873824 -0.367608 0
M  V30 551 H 54.8546 3.42501 -0.799102 0
M  V30 552 H 54.7286 3.654 0.936083 0
M  V30 553 H 57.1156 2.69718 1.19733 0
M  V30 554 H 57.1966 2.49623 -0.558763 0
M  V30 555 H 56.8406 5.009 -0.840314 0
M  V30 556 H 56.7706 5.18299 0.931302 0
M  V30 557 H 59.2616 3.76954 0.26728 0
M  V30 558 H 59.5746 7.7276 -0.0789252 0
M  V30 559 H 57.9196 6.94971 -0.0640299 0
M  V30 560 H 61.1106 4.67448 0.246981 0
M  V30 561 H 61.2836 6.47938 0.0893365 0
M  V30 562 N 54.6897 -0.239769 1.55765 0
M  V30 563 C 55.9147 -0.988373 1.82335 0
M  V30 564 C 56.3397 -1.77886 0.611421 0
M  V30 565 O 55.6977 -1.75889 -0.439639 0
M  V30 566 C 55.7457 -1.89627 3.06715 0
M  V30 567 O 54.8497 -2.98904 2.84131 0
M  V30 568 H 54.1907 -0.280858 0.601677 0
M  V30 569 H 56.7207 -0.258597 2.02959 0
M  V30 570 H 56.7307 -2.30957 3.36338 0
M  V30 571 H 55.4057 -1.31511 3.9456 0
M  V30 572 H 53.9827 -2.61651 2.65694 0
M  V30 573 N 56.1678 -1.49265 -0.50573 0
M  V30 574 C 57.4138 -1.58748 -1.26202 0
M  V30 575 C 57.7468 -0.271227 -1.92297 0
M  V30 576 O 57.0218 0.724831 -1.80489 0
M  V30 577 C 57.3048 -2.74332 -2.33268 0
M  V30 578 C 57.1578 -4.15737 -1.71705 0
M  V30 579 C 58.4768 -2.85576 -3.34865 0
M  V30 580 H 55.5958 -0.577826 -0.457478 0
M  V30 581 H 58.2378 -1.81532 -0.560897 0
M  V30 582 H 56.3878 -2.55036 -2.93068 0
M  V30 583 H 58.0598 -4.46537 -1.15769 0
M  V30 584 H 56.3028 -4.21605 -1.02135 0
M  V30 585 H 56.9738 -4.92477 -2.49341 0
M  V30 586 H 59.4498 -3.03127 -2.8505 0
M  V30 587 H 58.3258 -3.68135 -4.07146 0
M  V30 588 H 58.5868 -1.94732 -3.96903 0
M  V30 589 N 57.6459 0.756429 -1.3826 0
M  V30 590 C 58.5779 1.87971 -1.31147 0
M  V30 591 C 59.5909 1.61248 -0.224239 0
M  V30 592 O 60.7799 1.71881 -0.481581 0
M  V30 593 C 57.8799 3.23545 -1.00857 0
M  V30 594 C 57.0529 3.77794 -2.20432 0
M  V30 595 C 56.1119 4.91877 -1.86931 0
M  V30 596 O 55.1379 5.06659 -2.59395 0
M  V30 597 N 56.3399 5.74643 -0.822568 0
M  V30 598 H 59.1049 1.94585 -2.2794 0
M  V30 599 H 56.6659 0.936234 -1.32084 0
M  V30 600 H 58.6579 3.97403 -0.765021 0
M  V30 601 H 57.2279 3.12335 -0.128687 0
M  V30 602 H 56.4479 2.95534 -2.6087 0
M  V30 603 H 57.7359 4.10771 -3.00241 0
M  V30 604 H 57.1339 5.65266 -0.221575 0
M  V30 605 H 55.6909 6.48661 -0.638899 0
M  V30 606 N 59.124 1.23083 0.984299 0
M  V30 607 C 60.372 1.05848 1.72165 0
M  V30 608 C 60.693 -0.406049 1.90726 0
M  V30 609 O 59.963 -1.29139 1.47309 0
M  V30 610 H 58.543 0.388685 0.637913 0
M  V30 611 H 61.205 1.54736 1.18503 0
M  V30 612 H 60.301 1.54327 2.71274 0
M  V30 613 N 60.6021 -1.18246 1.0419 0
M  V30 614 C 61.5121 -2.25574 0.644476 0
M  V30 615 C 62.5281 -1.70845 -0.329826 0
M  V30 616 O 63.7041 -2.00554 -0.184443 0
M  V30 617 C 60.7691 -3.46697 0.014877 0
M  V30 618 C 59.8301 -4.16554 1.03834 0
M  V30 619 C 59.0631 -5.31894 0.438692 0
M  V30 620 O 59.2861 -5.65385 -0.754752 0
M  V30 621 O 58.2201 -5.90459 1.168 0
M  V30 622 H 62.0461 -2.61836 1.53869 0
M  V30 623 H 59.6311 -1.25352 0.812854 0
M  V30 624 H 61.5131 -4.20062 -0.335538 0
M  V30 625 H 60.1881 -3.12255 -0.853138 0
M  V30 626 H 59.0951 -3.45251 1.44057 0
M  V30 627 H 60.4281 -4.54998 1.87716 0
M  V30 628 N 62.0802 -0.821533 -1.34494 0
M  V30 629 C 63.0102 -0.257138 -2.3208 0
M  V30 630 C 63.9912 0.625645 -1.58176 0
M  V30 631 O 65.1762 0.552811 -1.86166 0
M  V30 632 C 62.3062 0.582958 -3.42372 0
M  V30 633 C 61.2602 -0.202571 -4.2752 0
M  V30 634 C 60.5862 0.760179 -5.29269 0
M  V30 635 C 61.8862 -1.40998 -5.02908 0
M  V30 636 H 63.5802 -1.07247 -2.79532 0
M  V30 637 H 61.1262 -0.517163 -1.34393 0
M  V30 638 H 63.0792 0.987972 -4.09655 0
M  V30 639 H 61.8032 1.43133 -2.93565 0
M  V30 640 H 60.4622 -0.588936 -3.61838 0
M  V30 641 H 60.1102 1.60447 -4.76724 0
M  V30 642 H 59.8102 0.238809 -5.87115 0
M  V30 643 H 61.3342 1.16308 -5.9942 0
M  V30 644 H 62.7482 -1.07905 -5.63054 0
M  V30 645 H 61.1452 -1.86689 -5.70322 0
M  V30 646 H 62.2152 -2.1889 -4.32684 0
M  V30 647 N 63.5583 1.46682 -0.576371 0
M  V30 648 C 64.8063 2.02013 -0.0594163 0
M  V30 649 C 65.1273 1.45101 1.30271 0
M  V30 650 O 64.3973 0.633317 1.8538 0
M  V30 651 H 62.9773 0.746759 -0.0189745 0
M  V30 652 H 65.6393 1.79862 -0.750717 0
M  V30 653 H 64.7353 3.12097 0.014345 0
M  V30 654 N 65.0364 0.313813 1.54444 0
M  V30 655 C 66.2824 -0.284918 2.01395 0
M  V30 656 C 66.6374 -1.50537 1.19818 0
M  V30 657 O 65.9304 -1.89692 0.269748 0
M  V30 658 C 66.1244 -0.680386 3.50864 0
M  V30 659 C 65.9534 0.500198 4.4691 0
M  V30 660 C 64.7234 0.996248 4.95382 0
M  V30 661 C 66.9214 1.34928 4.96285 0
M  V30 662 N 64.9034 2.14226 5.75309 0
M  V30 663 C 66.2744 2.3426 5.7404 0
M  V30 664 C 68.3294 1.37818 4.78446 0
M  V30 665 C 67.0324 3.36272 6.35856 0
M  V30 666 C 69.0584 2.38695 5.4109 0
M  V30 667 C 68.4204 3.36755 6.18688 0
M  V30 668 H 64.5194 -0.0683689 0.779006 0
M  V30 669 H 67.1034 0.44664 1.89508 0
M  V30 670 H 65.2744 -1.38109 3.63016 0
M  V30 671 H 67.0064 -1.25975 3.84594 0
M  V30 672 H 63.7614 0.56912 4.70168 0
M  V30 673 H 64.1854 2.72005 6.19953 0
M  V30 674 H 68.8274 0.633747 4.18023 0
M  V30 675 H 66.5454 4.11627 6.95405 0
M  V30 676 H 70.1314 2.41721 5.29209 0
M  V30 677 H 69.0114 4.13535 6.66302 0
M  V30 678 N 66.5145 -1.57545 0.0417849 0
M  V30 679 C 67.7635 -1.91494 -0.633492 0
M  V30 680 C 68.0765 -0.921084 -1.72556 0
M  V30 681 O 69.2825 -1.15228 -2.45835 0
M  V30 682 C 67.7385 -3.40072 -1.17808 0
M  V30 683 C 67.3465 -4.47843 -0.118633 0
M  V30 684 C 69.0905 -3.8307 -1.82915 0
M  V30 685 C 66.9975 -5.87529 -0.675578 0
M  V30 686 H 65.9275 -0.714653 -0.24039 0
M  V30 687 H 68.5785 -1.83175 0.109148 0
M  V30 688 H 66.9605 -3.43364 -1.97274 0
M  V30 689 H 68.1345 -4.56128 0.654494 0
M  V30 690 H 66.4495 -4.14128 0.434414 0
M  V30 691 H 69.0465 -4.84794 -2.25563 0
M  V30 692 H 69.3895 -3.1881 -2.67705 0
M  V30 693 H 69.9225 -3.82255 -1.10119 0
M  V30 694 H 66.6615 -6.55362 0.134475 0
M  V30 695 H 66.1815 -5.82824 -1.4169 0
M  V30 696 H 67.8605 -6.36491 -1.1614 0
M  V30 697 N 67.9926 0.231505 -1.5589 0
M  V30 698 C 68.9556 1.27028 -1.90779 0
M  V30 699 C 69.9556 1.40308 -0.785507 0
M  V30 700 O 71.1456 1.38744 -1.05336 0
M  V30 701 C 68.2776 2.64566 -2.14983 0
M  V30 702 H 69.4706 0.973017 -2.83677 0
M  V30 703 H 67.0236 0.471486 -1.49019 0
M  V30 704 H 67.7586 2.99406 -1.24604 0
M  V30 705 H 67.5436 2.56305 -2.96732 0
M  V30 706 H 69.0336 3.39543 -2.43105 0
M  V30 707 N 69.4707 1.49531 0.497807 0
M  V30 708 C 70.6957 1.63159 1.28039 0
M  V30 709 C 71.1207 0.30418 1.85624 0
M  V30 710 O 70.4787 -0.728618 1.66015 0
M  V30 711 C 70.5267 2.70537 2.38416 0
M  V30 712 O 69.6307 2.29931 3.42353 0
M  V30 713 H 68.9717 0.546001 0.377861 0
M  V30 714 H 71.5017 1.9574 0.59558 0
M  V30 715 H 71.5117 2.92802 2.84132 0
M  V30 716 H 70.1867 3.6689 1.95869 0
M  V30 717 H 68.7637 2.18009 3.02533 0
M  V30 718 N 70.9488 -0.749086 1.3866 0
M  V30 719 C 72.3598 -1.32664 1.31366 0
M  V30 720 C 72.7108 -1.96179 -0.028484 0
M  V30 721 O 71.8358 -1.9537 -0.93057 0
M  V30 722 C 72.4308 -2.41219 2.37905 0
M  V30 723 C 70.9898 -2.94684 2.34176 0
M  V30 724 C 70.1368 -1.68108 2.20533 0
M  V30 725 H 73.0878 -0.547628 1.48952 0
M  V30 726 H 73.1088 -3.21268 2.0388 0
M  V30 727 H 72.6208 -1.94962 3.35576 0
M  V30 728 H 70.7218 -3.45258 1.401 0
M  V30 729 H 70.8348 -3.48757 3.2849 0
M  V30 730 H 69.1988 -1.91907 1.67463 0
M  V30 731 H 69.9818 -1.23923 3.20153 0
M  V30 732 N 72.4269 -1.23603 -0.977757 0
M  V30 733 C 73.3569 -1.04401 -2.0886 0
M  V30 734 C 74.3379 0.0399052 -1.70053 0
M  V30 735 O 75.5229 -0.125246 -1.93796 0
M  V30 736 C 72.6529 -0.637269 -3.41403 0
M  V30 737 C 71.6069 -1.66883 -3.94124 0
M  V30 738 C 70.9329 -1.11745 -5.22893 0
M  V30 739 C 72.2329 -3.06247 -4.23096 0
M  V30 740 H 73.9269 -1.97316 -2.25182 0
M  V30 741 H 71.4729 -0.950096 -1.08209 0
M  V30 742 H 73.4259 -0.48998 -4.18542 0
M  V30 743 H 72.1499 0.327557 -3.24953 0
M  V30 744 H 70.8089 -1.80416 -3.19133 0
M  V30 745 H 70.4569 -0.143527 -5.02795 0
M  V30 746 H 70.1569 -1.80672 -5.59134 0
M  V30 747 H 71.6809 -0.982067 -6.02651 0
M  V30 748 H 73.0949 -2.96001 -4.90975 0
M  V30 749 H 71.4919 -3.72436 -4.70544 0
M  V30 750 H 72.5619 -3.55041 -3.30263 0
M  V30 751 N 73.905 1.17692 -1.04816 0
M  V30 752 C 74.815 2.25229 -0.65643 0
M  V30 753 C 75.831 1.71018 0.320761 0
M  V30 754 O 77.007 2.00649 0.173805 0
M  V30 755 C 74.072 3.46684 -0.0332629 0
M  V30 756 C 73.133 4.15997 -1.06042 0
M  V30 757 C 72.366 5.31654 -0.466893 0
M  V30 758 O 72.589 5.65777 0.724758 0
M  V30 759 O 71.523 5.89831 -1.1993 0
M  V30 760 H 75.349 2.61016 -1.55255 0
M  V30 761 H 72.934 1.24919 -0.81949 0
M  V30 762 H 74.816 4.20234 0.313256 0
M  V30 763 H 73.491 3.12703 0.836566 0
M  V30 764 H 72.398 3.44482 -1.45886 0
M  V30 765 H 73.731 4.53996 -1.90127 0
M  V30 766 N 75.3831 0.828654 1.34056 0
M  V30 767 C 76.6311 0.41863 1.97717 0
M  V30 768 C 76.9521 -1.02314 1.66002 0
M  V30 769 O 76.2221 -1.71119 0.953683 0
M  V30 770 H 74.8021 0.151809 0.731412 0
M  V30 771 H 77.4641 1.05936 1.63596 0
M  V30 772 H 76.5601 0.542318 3.07352 0
M  V30 773 N 76.8612 -1.46375 0.584142 0
M  V30 774 C 78.1092 -2.01978 0.0701287 0
M  V30 775 C 78.4302 -1.4579 -1.295 0
M  V30 776 O 77.7002 -0.64314 -1.85042 0
M  V30 777 H 76.2802 -0.746648 0.0229345 0
M  V30 778 H 78.9422 -1.79461 0.760245 0
M  V30 779 H 78.0382 -3.121 0.0022064 0
M  V30 780 N 78.3393 -0.321999 -1.54275 0
M  V30 781 C 79.5853 0.274234 -2.01543 0
M  V30 782 C 79.9403 1.499 -1.20614 0
M  V30 783 O 79.2333 1.89546 -0.279804 0
M  V30 784 C 79.4273 0.661769 -3.5122 0
M  V30 785 C 79.2563 -0.523892 -4.46638 0
M  V30 786 C 78.0263 -1.02251 -4.94846 0
M  V30 787 C 80.2243 -1.37558 -4.95563 0
M  V30 788 N 78.2063 -2.17274 -5.74165 0
M  V30 789 C 79.5773 -2.37301 -5.7279 0
M  V30 790 C 81.6323 -1.40353 -4.77709 0
M  V30 791 C 80.3353 -3.3964 -6.34064 0
M  V30 792 C 82.3613 -2.41562 -5.39817 0
M  V30 793 C 81.7233 -3.40031 -6.16894 0
M  V30 794 H 77.8223 0.0642367 -0.779357 0
M  V30 795 H 80.4063 -0.456683 -1.89268 0
M  V30 796 H 78.5773 1.36182 -3.63743 0
M  V30 797 H 80.3093 1.23934 -3.85256 0
M  V30 798 H 77.0643 -0.594046 -4.6986 0
M  V30 799 H 77.4883 -2.75289 -6.18502 0
M  V30 800 H 82.1303 -0.655907 -4.17681 0
M  V30 801 H 79.8483 -4.15309 -6.93213 0
M  V30 802 H 83.4343 -2.44524 -5.2792 0
M  V30 803 H 82.3143 -4.17063 -6.64099 0
M  V30 804 N 79.8174 1.5752 -0.0501392 0
M  V30 805 C 80.7274 2.14952 0.939827 0
M  V30 806 C 81.7434 1.10706 1.34239 0
M  V30 807 O 82.9194 1.42869 1.41952 0
M  V30 808 C 79.9844 2.68232 2.19665 0
M  V30 809 C 79.0454 3.87272 1.85253 0
M  V30 810 C 78.2784 4.38002 3.04943 0
M  V30 811 O 78.5014 3.87811 4.18281 0
M  V30 812 O 77.4354 5.29602 2.86017 0
M  V30 813 H 81.2614 2.9986 0.481392 0
M  V30 814 H 78.8464 1.4841 0.171699 0
M  V30 815 H 80.7284 3.02475 2.93406 0
M  V30 816 H 79.4034 1.86395 2.64648 0
M  V30 817 H 78.3104 3.5792 1.0883 0
M  V30 818 H 79.6434 4.70336 1.4507 0
M  V30 819 N 81.2955 -0.223234 1.56011 0
M  V30 820 C 82.2055 -1.29766 1.95443 0
M  V30 821 C 83.2215 -1.51373 0.858028 0
M  V30 822 O 84.3975 -1.64536 1.16146 0
M  V30 823 C 81.4625 -2.62772 2.26167 0
M  V30 824 C 80.5235 -2.49482 3.49367 0
M  V30 825 C 79.7565 -3.76145 3.78616 0
M  V30 826 O 79.9795 -4.79087 3.09568 0
M  V30 827 O 78.9135 -3.73358 4.72109 0
M  V30 828 H 82.7395 -0.99309 2.87004 0
M  V30 829 H 80.3245 -0.425958 1.43199 0
M  V30 830 H 82.2065 -3.41327 2.47131 0
M  V30 831 H 80.8815 -2.92913 1.37781 0
M  V30 832 H 79.7885 -1.69133 3.33684 0
M  V30 833 H 81.1215 -2.2428 4.38131 0
M  V30 834 N 82.7736 -1.49793 -0.48987 0
M  V30 835 C 84.0196 -1.60078 -1.24511 0
M  V30 836 C 84.3526 -0.291608 -1.91998 0
M  V30 837 O 83.6276 0.705647 -1.81248 0
M  V30 838 C 83.9106 -2.76791 -2.30345 0
M  V30 839 C 83.7636 -4.17535 -1.67286 0
M  V30 840 C 85.0826 -2.89111 -3.31817 0
M  V30 841 H 82.2016 -0.582645 -0.451324 0
M  V30 842 H 84.8436 -1.82117 -0.541612 0
M  V30 843 H 82.9936 -2.5813 -2.90346 0
M  V30 844 H 84.6656 -4.4774 -1.11026 0
M  V30 845 H 82.9086 -4.22665 -0.976577 0
M  V30 846 H 83.5796 -4.95094 -2.44103 0
M  V30 847 H 86.0556 -3.06133 -2.81819 0
M  V30 848 H 84.9316 -3.72433 -4.03219 0
M  V30 849 H 85.1926 -1.9893 -3.94815 0
M  V30 850 N 84.2517 0.741722 -1.39055 0
M  V30 851 C 85.4767 1.53607 -1.39354 0
M  V30 852 C 85.9017 1.88096 0.0116905 0
M  V30 853 O 85.2597 1.5143 0.996924 0
M  V30 854 C 85.3077 2.80441 -2.26682 0
M  V30 855 O 84.4117 3.76088 -1.69208 0
M  V30 856 H 83.7527 0.464142 -0.474835 0
M  V30 857 H 86.2827 0.915665 -1.82967 0
M  V30 858 H 86.2927 3.29246 -2.40959 0
M  V30 859 H 84.9677 2.5467 -3.2881 0
M  V30 860 H 83.5447 3.34833 -1.64138 0
M  V30 861 N 85.7298 1.2412 0.971189 0
M  V30 862 C 86.9788 1.07284 1.70801 0
M  V30 863 C 87.2918 -0.388902 1.91695 0
M  V30 864 O 88.4978 -0.677379 2.62914 0
M  V30 865 C 86.9538 1.87145 3.07416 0
M  V30 866 C 86.5618 3.37707 2.94377 0
M  V30 867 C 88.3058 1.78828 3.84995 0
M  V30 868 C 86.2128 4.09925 4.26281 0
M  V30 869 H 85.1428 0.397854 0.64049 0
M  V30 870 H 87.7938 1.4817 1.0825 0
M  V30 871 H 86.1758 1.39071 3.70777 0
M  V30 872 H 87.3498 3.93335 2.4005 0
M  V30 873 H 85.6648 3.46938 2.30267 0
M  V30 874 H 88.2618 2.30089 4.82662 0
M  V30 875 H 88.6048 0.75284 4.09436 0
M  V30 876 H 89.1378 2.24563 3.28354 0
M  V30 877 H 85.8768 5.13813 4.07033 0
M  V30 878 H 85.3968 3.59083 4.80437 0
M  V30 879 H 87.0758 4.1673 4.94919 0
M  V30 880 N 87.2079 -1.17134 1.05439 0
M  V30 881 C 88.1409 -2.2012 0.601855 0
M  V30 882 C 89.1189 -1.58314 -0.370854 0
M  V30 883 O 90.3029 -1.8638 -0.281882 0
M  V30 884 C 87.4299 -3.38491 -0.118868 0
M  V30 885 C 86.4759 -4.18752 0.809242 0
M  V30 886 S 87.3089 -4.83602 2.29977 0
M  V30 887 C 88.4649 -6.0536 1.59029 0
M  V30 888 H 88.6979 -2.58165 1.47438 0
M  V30 889 H 86.2309 -1.27788 0.866573 0
M  V30 890 H 88.1889 -4.07084 -0.528495 0
M  V30 891 H 86.8499 -2.98829 -0.967465 0
M  V30 892 H 86.0429 -5.03373 0.251379 0
M  V30 893 H 85.6449 -3.5561 1.15835 0
M  V30 894 H 87.9369 -6.71615 0.891017 0
M  V30 895 H 88.8799 -6.65679 2.41407 0
M  V30 896 H 89.2879 -5.54138 1.07663 0
M  V30 897 N 88.686 -0.835752 -1.33615 0
M  V30 898 C 89.963 -0.352017 -1.92406 0
M  V30 899 C 90.343 1.16225 -1.76224 0
M  V30 900 O 89.691 1.97526 -1.14873 0
M  V30 901 C 89.901 -0.795485 -3.39813 0
M  V30 902 C 91.249 -0.801703 -4.16963 0
M  V30 903 O 92.273 -0.738889 -3.48452 0
M  V30 904 O 91.132 -0.886607 -5.3926 0
M  V30 905 H 88.226 -0.0989641 -0.821057 0
M  V30 906 H 90.772 -0.921397 -1.42507 0
M  V30 907 H 89.544 -1.83795 -3.45449 0
M  V30 908 H 89.167 -0.202505 -3.97084 0
M  V30 909 N 90.1641 1.46063 -0.591896 0
M  V30 910 C 91.0741 2.34192 0.13831 0
M  V30 911 C 92.0901 1.50305 0.876608 0
M  V30 912 O 93.2661 1.8315 0.837728 0
M  V30 913 C 90.3311 3.27656 1.13326 0
M  V30 914 C 89.3921 4.27445 0.39863 0
M  V30 915 C 88.6251 5.16443 1.34618 0
M  V30 916 O 88.8481 5.08553 2.58321 0
M  V30 917 O 87.7821 5.95843 0.851768 0
M  V30 918 H 91.6081 2.98002 -0.58552 0
M  V30 919 H 89.1931 1.45188 -0.352239 0
M  V30 920 H 91.0751 3.85291 1.70671 0
M  V30 921 H 89.7501 2.6643 1.83839 0
M  V30 922 H 88.6571 3.73471 -0.216895 0
M  V30 923 H 89.9901 4.91482 -0.265709 0
M  V30 924 N 91.6422 0.330177 1.54103 0
M  V30 925 C 92.5892 -0.532762 2.24567 0
M  V30 926 C 93.5592 -1.10635 1.23892 0
M  V30 927 O 94.7442 -1.14546 1.5259 0
M  V30 928 C 91.8842 -1.6845 3.01195 0
M  V30 929 C 90.9972 -1.13951 4.167 0
M  V30 930 C 90.1322 -2.25746 4.80845 0
M  V30 931 C 89.1712 -1.6853 5.88442 0
M  V30 932 N 88.3082 -2.74014 6.46421 0
M  V30 933 H 93.1482 0.0746905 2.97906 0
M  V30 934 H 90.6852 0.048632 1.4702 0
M  V30 935 H 92.6432 -2.36234 3.43874 0
M  V30 936 H 91.2732 -2.26314 2.30178 0
M  V30 937 H 90.3252 -0.35301 3.78758 0
M  V30 938 H 91.6372 -0.680892 4.94131 0
M  V30 939 H 90.7912 -3.01422 5.26526 0
M  V30 940 H 89.5302 -2.74947 4.0281 0
M  V30 941 H 88.5352 -0.913543 5.42157 0
M  V30 942 H 89.7602 -1.20198 6.68378 0
M  V30 943 H 87.7062 -3.22494 5.71256 0
M  V30 944 H 87.6232 -2.32735 7.19285 0
M  V30 945 H 88.8912 -3.49499 6.96757 0
M  V30 946 N 93.1203 -1.57491 0.0584922 0
M  V30 947 C 94.0683 -2.13148 -0.931168 0
M  V30 948 C 95.0623 -1.06507 -1.31729 0
M  V30 949 O 96.2683 -1.24906 -1.29609 0
M  V30 950 H 92.6433 -0.68137 -0.31818 0
M  V30 951 H 94.6143 -2.95187 -0.436707 0
M  V30 952 C 93.3633 -2.69732 -2.19408 0
M  V30 953 H 92.6863 -3.51454 -1.90578 0
M  V30 954 H 94.1263 -3.12287 -2.86798 0
M  V30 955 C 92.5853 -1.63855 -2.94369 0
M  V30 956 O 93.1153 -1.05565 -3.87581 0
M  V30 957 N 91.3213 -1.35202 -2.57233 0
M  V30 958 H 90.8683 -1.82791 -1.81508 0
M  V30 959 H 90.8263 -0.645922 -3.07693 0
M  V30 960 N 94.5984 0.214957 -1.56127 0
M  V30 961 C 95.8264 0.955092 -1.83536 0
M  V30 962 C 96.2414 1.77677 -0.638472 0
M  V30 963 O 95.5984 1.78219 0.392968 0
M  V30 964 C 95.6494 1.86734 -3.09536 0
M  V30 965 O 95.3704 1.07887 -4.24608 0
M  V30 966 C 96.8714 2.72082 -3.4998 0
M  V30 967 H 94.0914 0.279611 -0.609966 0
M  V30 968 H 96.6354 0.228197 -2.03223 0
M  V30 969 H 94.7904 2.5481 -2.91806 0
M  V30 970 H 95.2044 1.69872 -4.9623 0
M  V30 971 H 96.6784 3.31782 -4.41163 0
M  V30 972 H 97.1554 3.44806 -2.7204 0
M  V30 973 H 97.7614 2.09409 -3.70173 0
M  V30 974 N 96.0765 1.50051 0.48192 0
M  V30 975 C 97.4875 1.5348 1.06305 0
M  V30 976 C 97.8385 0.331997 1.93371 0
M  V30 977 O 96.9635 -0.556256 2.09129 0
M  V30 978 C 97.5585 2.7813 1.93466 0
M  V30 979 C 96.1175 2.84275 2.46707 0
M  V30 980 C 95.2645 2.47637 1.24785 0
M  V30 981 H 98.2155 1.56472 0.264995 0
M  V30 982 H 98.2365 2.59372 2.78399 0
M  V30 983 H 97.7485 3.65654 1.30072 0
M  V30 984 H 95.8495 2.01077 3.13686 0
M  V30 985 H 95.9625 3.8691 2.82555 0
M  V30 986 H 94.3265 1.99835 1.57918 0
M  V30 987 H 95.1095 3.37457 0.630694 0
M  V30 988 N 97.5546 -0.734337 1.39446 0
M  V30 989 C 98.8036 -1.48937 1.36017 0
M  V30 990 C 99.1166 -1.95557 -0.0409005 0
M  V30 991 O 100.323 -2.70779 -0.19778 0
M  V30 992 C 98.7786 -2.69125 2.38955 0
M  V30 993 C 98.3866 -2.29452 3.8478 0
M  V30 994 C 100.131 -3.46944 2.44603 0
M  V30 995 C 98.0376 -3.46366 4.79358 0
M  V30 996 H 96.9676 -0.559296 0.505672 0
M  V30 997 H 99.6186 -0.800983 1.65095 0
M  V30 998 H 98.0006 -3.40041 2.02948 0
M  V30 999 H 99.1746 -1.66077 4.29831 0
M  V30 1000 H 97.4896 -1.64723 3.82433 0
M  V30 1001 H 100.087 -4.33907 3.12456 0
M  V30 1002 H 100.43 -3.89454 1.47076 0
M  V30 1003 H 100.963 -2.83056 2.79507 0
M  V30 1004 H 97.7016 -3.08905 5.78151 0
M  V30 1005 H 97.2216 -4.08719 4.38986 0
M  V30 1006 H 98.9006 -4.12691 4.98292 0
M  V30 1007 N 99.0327 -1.24633 -0.964593 0
M  V30 1008 C 100.449 -1.01239 -1.2338 0
M  V30 1009 C 100.649 0.2769 -1.99588 0
M  V30 1010 O 99.7047 0.992241 -2.32187 0
M  V30 1011 C 101.018 -2.22937 -2.01791 0
M  V30 1012 C 102.566 -2.27594 -2.14872 0
M  V30 1013 C 103.041 -3.48921 -2.96678 0
M  V30 1014 N 104.532 -3.49257 -3.04259 0
M  V30 1015 C 105.267 -4.39795 -3.67924 0
M  V30 1016 N 104.763 -5.40591 -4.33281 0
M  V30 1017 N 106.556 -4.275 -3.64966 0
M  V30 1018 H 98.7067 -2.0748 -0.454502 0
M  V30 1019 H 100.97 -0.910647 -0.26349 0
M  V30 1020 H 100.676 -3.16587 -1.53184 0
M  V30 1021 H 100.55 -2.25306 -3.02518 0
M  V30 1022 H 102.937 -1.34473 -2.6268 0
M  V30 1023 H 103.018 -2.2925 -1.13482 0
M  V30 1024 H 102.662 -4.42359 -2.49562 0
M  V30 1025 H 102.592 -3.4451 -3.98272 0
M  V30 1026 H 105.083 -2.76337 -2.57771 0
M  V30 1027 H 105.396 -6.05904 -4.79687 0
M  V30 1028 H 103.741 -5.44475 -4.3194 0
M  V30 1029 H 106.932 -3.47987 -3.13086 0
M  V30 1030 H 107.105 -4.98258 -4.14298 0
M  V30 1031 N 100.511 1.16574 -1.06058 0
M  V30 1032 C 101.739 1.90952 -0.796552 0
M  V30 1033 C 102.154 1.77302 0.648808 0
M  V30 1034 O 101.511 1.11605 1.44397 0
M  V30 1035 C 101.562 3.41736 -1.17894 0
M  V30 1036 O 101.283 3.54975 -2.56758 0
M  V30 1037 C 102.784 4.33169 -0.942308 0
M  V30 1038 H 100.004 0.605594 -0.288959 0
M  V30 1039 H 102.548 1.47777 -1.41358 0
M  V30 1040 H 100.703 3.82623 -0.606491 0
M  V30 1041 H 101.117 4.4846 -2.72 0
M  V30 1042 H 102.591 5.37439 -1.25952 0
M  V30 1043 H 103.068 4.3903 0.122078 0
M  V30 1044 H 103.674 3.98007 -1.49902 0
M  V30 1045 N 101.989 0.842826 1.3317 0
M  V30 1046 C 103.219 0.453397 2.01564 0
M  V30 1047 C 103.627 -0.951147 1.63554 0
M  V30 1048 O 102.97 -1.63021 0.846746 0
M  V30 1049 C 103.032 0.499013 3.5602 0
M  V30 1050 C 102.696 1.86037 4.1742 0
M  V30 1051 C 103.693 2.82416 4.36506 0
M  V30 1052 C 101.378 2.15428 4.53757 0
M  V30 1053 C 103.372 4.06346 4.91082 0
M  V30 1054 C 101.059 3.39615 5.0804 0
M  V30 1055 C 102.057 4.3489 5.26649 0
M  V30 1056 O 101.745 5.5688 5.79776 0
M  V30 1057 H 101.477 0.177871 0.652179 0
M  V30 1058 H 104.031 1.13808 1.70988 0
M  V30 1059 H 102.261 -0.242467 3.85939 0
M  V30 1060 H 103.95 0.126852 4.05702 0
M  V30 1061 H 104.716 2.6101 4.08777 0
M  V30 1062 H 100.595 1.42061 4.38565 0
M  V30 1063 H 104.139 4.80722 5.05522 0
M  V30 1064 H 100.036 3.60876 5.352 0
M  V30 1065 H 100.804 5.58674 5.98185 0
M  V30 1066 N 103.467 -1.45747 0.599634 0
M  V30 1067 C 104.399 -2.28628 -0.161879 0
M  V30 1068 C 105.412 -1.39494 -0.839367 0
M  V30 1069 O 106.601 -1.63941 -0.706089 0
M  V30 1070 C 103.701 -3.15014 -1.24976 0
M  V30 1071 C 102.874 -4.32378 -0.660935 0
M  V30 1072 C 101.933 -5.00033 -1.63869 0
M  V30 1073 O 100.959 -5.57085 -1.1681 0
M  V30 1074 N 102.161 -4.98589 -2.97303 0
M  V30 1075 H 104.926 -2.94624 0.549265 0
M  V30 1076 H 102.487 -1.55847 0.438565 0
M  V30 1077 H 104.479 -3.5714 -1.9035 0
M  V30 1078 H 103.049 -2.5098 -1.86354 0
M  V30 1079 H 102.269 -3.9383 0.170688 0
M  V30 1080 H 103.557 -5.08197 -0.247619 0
M  V30 1081 H 102.955 -4.53514 -3.38145 0
M  V30 1082 H 101.512 -5.44603 -3.58121 0
M  V30 1083 N 104.945 -0.338344 -1.53925 0
M  V30 1084 C 106.191 0.260143 -2.01125 0
M  V30 1085 C 106.524 1.50617 -1.22589 0
M  V30 1086 O 105.799 1.91979 -0.312113 0
M  V30 1087 C 106.082 0.579499 -3.55407 0
M  V30 1088 C 105.935 -0.678264 -4.44657 0
M  V30 1089 C 107.254 1.39122 -4.17532 0
M  V30 1090 H 104.373 0.0930772 -0.731099 0
M  V30 1091 H 107.015 -0.457852 -1.84401 0
M  V30 1092 H 105.165 1.19118 -3.69788 0
M  V30 1093 H 106.837 -1.31631 -4.42121 0
M  V30 1094 H 105.08 -1.3042 -4.13731 0
M  V30 1095 H 105.751 -0.410143 -5.50474 0
M  V30 1096 H 108.227 0.874035 -4.06817 0
M  V30 1097 H 107.103 1.58342 -5.25565 0
M  V30 1098 H 107.364 2.39178 -3.71815 0
M  V30 1099 N 106.423 1.57458 -0.0668435 0
M  V30 1100 C 107.663 1.95175 0.607116 0
M  V30 1101 C 108.027 0.946039 1.67075 0
M  V30 1102 O 109.228 1.2107 2.39991 0
M  V30 1103 C 107.499 3.37582 1.17358 0
M  V30 1104 S 109.058 3.97271 1.86336 0
M  V30 1105 H 105.876 0.682604 0.19893 0
M  V30 1106 H 108.478 1.95002 -0.139519 0
M  V30 1107 H 107.182 4.08566 0.387553 0
M  V30 1108 H 106.713 3.41288 1.95669 0
M  V30 1109 H 108.728 3.83772 3.14537 0
M  V30 1110 N 107.901 -0.206675 1.56239 0
M  V30 1111 C 108.849 -1.27571 1.94495 0
M  V30 1112 C 109.843 -1.47737 0.828862 0
M  V30 1113 O 111.049 -1.48735 1.0138 0
M  V30 1114 H 107.424 -0.428029 0.6183 0
M  V30 1115 H 109.395 -0.925961 2.8367 0
M  V30 1116 C 108.144 -2.61568 2.29079 0
M  V30 1117 H 107.467 -2.46863 3.14482 0
M  V30 1118 H 108.907 -3.35144 2.5972 0
M  V30 1119 C 107.366 -3.17695 1.12123 0
M  V30 1120 O 107.896 -3.99801 0.390153 0
M  V30 1121 N 106.102 -2.76276 0.901097 0
M  V30 1122 H 105.649 -2.09613 1.49733 0
M  V30 1123 H 105.607 -3.1417 0.120319 0
M  V30 1124 N 109.379 -1.50304 -0.473955 0
M  V30 1125 C 110.625 -1.61389 -1.22806 0
M  V30 1126 C 110.958 -0.311955 -1.91678 0
M  V30 1127 O 110.233 0.686384 -1.81986 0
M  V30 1128 C 110.516 -2.79219 -2.27396 0
M  V30 1129 C 110.369 -4.19286 -1.62848 0
M  V30 1130 C 111.688 -2.92614 -3.28732 0
M  V30 1131 H 108.807 -0.587399 -0.445119 0
M  V30 1132 H 111.449 -1.82681 -0.522265 0
M  V30 1133 H 109.599 -2.61195 -2.87592 0
M  V30 1134 H 111.271 -4.48892 -1.06271 0
M  V30 1135 H 109.514 -4.23677 -0.931693 0
M  V30 1136 H 110.185 -4.97655 -2.38838 0
M  V30 1137 H 112.661 -3.09105 -2.78556 0
M  V30 1138 H 111.537 -3.76688 -3.99246 0
M  V30 1139 H 111.798 -2.03107 -3.92683 0
M  V30 1140 N 110.857 0.726932 -1.39834 0
M  V30 1141 C 111.79 1.8501 -1.33592 0
M  V30 1142 C 112.768 1.61262 -0.208191 0
M  V30 1143 O 113.952 1.84422 -0.389981 0
M  V30 1144 C 111.079 3.21143 -1.07633 0
M  V30 1145 C 110.125 3.63737 -2.22705 0
M  V30 1146 S 110.958 3.72167 -3.85035 0
M  V30 1147 C 112.114 5.11077 -3.61318 0
M  V30 1148 H 112.347 1.90022 -2.28646 0
M  V30 1149 H 109.88 0.892595 -1.25985 0
M  V30 1150 H 111.838 3.99747 -0.933415 0
M  V30 1151 H 110.499 3.13776 -0.142526 0
M  V30 1152 H 109.692 4.62551 -2.00155 0
M  V30 1153 H 109.294 2.9236 -2.33242 0
M  V30 1154 H 111.586 5.97656 -3.19083 0
M  V30 1155 H 112.529 5.38658 -4.59623 0
M  V30 1156 H 112.937 4.81135 -2.95245 0
M  V30 1157 N 112.336 1.25143 0.95797 0
M  V30 1158 C 113.246 1.06968 2.08794 0
M  V30 1159 C 114.262 0.00773911 1.73998 0
M  V30 1160 O 115.438 0.207972 2.00323 0
M  V30 1161 C 112.503 0.68691 3.39827 0
M  V30 1162 C 111.564 1.82641 3.88511 0
M  V30 1163 C 110.797 1.46181 5.1329 0
M  V30 1164 O 111.02 0.355971 5.69288 0
M  V30 1165 O 109.954 2.29085 5.566 0
M  V30 1166 H 113.78 2.01723 2.27027 0
M  V30 1167 H 111.365 1.04051 1.07209 0
M  V30 1168 H 113.247 0.485417 4.18595 0
M  V30 1169 H 111.922 -0.231417 3.22872 0
M  V30 1170 H 110.829 2.08274 3.10762 0
M  V30 1171 H 112.162 2.72386 4.09959 0
M  V30 1172 N 113.814 -1.1601 1.06675 0
M  V30 1173 C 115.225 -1.68235 0.809565 0
M  V30 1174 C 115.576 -1.8454 -0.666303 0
M  V30 1175 O 114.701 -1.54374 -1.5165 0
M  V30 1176 C 115.296 -3.05585 1.46299 0
M  V30 1177 C 113.855 -3.54915 1.25349 0
M  V30 1178 C 113.002 -2.30804 1.53703 0
M  V30 1179 H 115.953 -1.00318 1.22971 0
M  V30 1180 H 115.974 -3.70174 0.880431 0
M  V30 1181 H 115.486 -2.93686 2.53713 0
M  V30 1182 H 113.587 -3.72067 0.199261 0
M  V30 1183 H 113.7 -4.36774 1.9689 0
M  V30 1184 H 112.064 -2.36007 0.957739 0
M  V30 1185 H 112.847 -2.21499 2.62284 0
M  V30 1186 N 115.292 -0.849877 -1.32721 0
M  V30 1187 C 116.517 -0.463856 -2.02146 0
M  V30 1188 C 116.942 0.930449 -1.63476 0
M  V30 1189 O 116.3 1.61033 -0.832952 0
M  V30 1190 C 116.348 -0.604955 -3.55489 0
M  V30 1191 O 115.452 0.36425 -4.10788 0
M  V30 1192 H 114.793 -0.187046 -0.637111 0
M  V30 1193 H 117.323 -1.14775 -1.69375 0
M  V30 1194 H 117.333 -0.490696 -4.05038 0
M  V30 1195 H 116.008 -1.62174 -3.82978 0
M  V30 1196 H 114.585 0.206628 -3.72327 0
M  V30 1197 N 116.77 1.45427 -0.607355 0
M  V30 1198 C 117.702 2.2871 0.149752 0
M  V30 1199 C 118.715 1.39937 0.831958 0
M  V30 1200 O 119.904 1.64313 0.697385 0
M  V30 1201 C 117.004 3.15673 1.23304 0
M  V30 1202 C 116.177 4.32722 0.637996 0
M  V30 1203 C 115.236 5.00895 1.61215 0
M  V30 1204 O 114.262 5.57697 1.13854 0
M  V30 1205 N 115.464 5.00159 2.94655 0
M  V30 1206 H 118.229 2.94328 -0.564882 0
M  V30 1207 H 115.79 1.55612 -0.446823 0
M  V30 1208 H 117.782 3.58144 1.88454 0
M  V30 1209 H 116.352 2.51965 1.8502 0
M  V30 1210 H 115.572 3.93734 -0.191572 0
M  V30 1211 H 116.86 5.08321 0.220665 0
M  V30 1212 H 116.258 4.553 3.35735 0
M  V30 1213 H 114.815 5.46495 3.55228 0
M  V30 1214 N 118.248 0.346503 1.53744 0
M  V30 1215 C 119.196 -0.52422 2.26616 0
M  V30 1216 C 120.19 -1.09948 1.28871 0
M  V30 1217 O 121.396 -1.04488 1.46568 0
M  V30 1218 H 117.771 -0.187743 0.728187 0
M  V30 1219 H 119.742 0.11239 2.98188 0
M  V30 1220 C 118.491 -1.66186 3.05414 0
M  V30 1221 H 117.814 -1.22848 3.80458 0
M  V30 1222 H 119.254 -2.24622 3.59612 0
M  V30 1223 C 117.713 -2.59302 2.1509 0
M  V30 1224 O 118.243 -3.61628 1.74895 0
M  V30 1225 N 116.449 -2.28055 1.8011 0
M  V30 1226 H 115.996 -1.44883 2.12994 0
M  V30 1227 H 115.954 -2.90615 1.19958 0
M  V30 1228 N 119.726 -1.57421 0.075193 0
M  V30 1229 C 120.674 -2.14124 -0.908508 0
M  V30 1230 C 121.668 -1.07898 -1.30592 0
M  V30 1231 O 122.874 -1.26273 -1.28277 0
M  V30 1232 H 119.249 -0.684707 -0.310935 0
M  V30 1233 H 121.22 -2.95634 -0.405374 0
M  V30 1234 C 119.969 -2.72044 -2.16535 0
M  V30 1235 H 119.292 -3.53456 -1.86839 0
M  V30 1236 H 120.732 -3.15311 -2.83469 0
M  V30 1237 C 119.191 -1.66968 -2.92615 0
M  V30 1238 O 119.721 -1.0967 -3.86439 0
M  V30 1239 N 117.927 -1.37923 -2.55784 0
M  V30 1240 H 117.474 -1.84706 -1.79559 0
M  V30 1241 H 117.432 -0.67852 -3.06991 0
M  V30 1242 N 121.204 0.198386 -1.56346 0
M  V30 1243 C 122.45 0.916115 -1.81601 0
M  V30 1244 C 122.805 1.81025 -0.651744 0
M  V30 1245 O 122.098 1.88316 0.353229 0
M  V30 1246 C 122.292 1.77031 -3.10475 0
M  V30 1247 C 122.121 0.960365 -4.39326 0
M  V30 1248 C 120.891 0.646093 -5.01152 0
M  V30 1249 C 123.089 0.314628 -5.13337 0
M  V30 1250 N 121.071 -0.182828 -6.13628 0
M  V30 1251 C 122.442 -0.37664 -6.18855 0
M  V30 1252 C 124.497 0.230019 -4.97368 0
M  V30 1253 C 123.2 -1.14445 -7.10137 0
M  V30 1254 C 125.226 -0.524389 -5.89071 0
M  V30 1255 C 124.588 -1.20412 -6.94032 0
M  V30 1256 H 120.687 0.314732 -0.715868 0
M  V30 1257 H 123.271 0.185102 -1.93818 0
M  V30 1258 H 121.442 2.47295 -2.99499 0
M  V30 1259 H 123.174 2.42727 -3.2383 0
M  V30 1260 H 119.929 0.969724 -4.63566 0
M  V30 1261 H 120.353 -0.586802 -6.74452 0
M  V30 1262 H 124.995 0.741184 -4.16253 0
M  V30 1263 H 122.713 -1.66706 -7.90718 0
M  V30 1264 H 126.299 -0.591167 -5.78789 0
M  V30 1265 H 125.179 -1.77853 -7.63766 0
M  V30 1266 N 122.682 1.50554 0.465978 0
M  V30 1267 C 123.612 1.72722 1.57128 0
M  V30 1268 C 124.593 0.576294 1.6004 0
M  V30 1269 O 125.778 0.81598 1.76225 0
M  V30 1270 C 122.908 1.82605 2.95419 0
M  V30 1271 C 121.862 2.97835 3.07373 0
M  V30 1272 C 121.188 2.92867 4.47363 0
M  V30 1273 C 122.488 4.38265 2.84114 0
M  V30 1274 H 124.182 2.65267 1.38829 0
M  V30 1275 H 121.728 1.2765 0.666441 0
M  V30 1276 H 123.681 1.96698 3.72677 0
M  V30 1277 H 122.405 0.866858 3.14886 0
M  V30 1278 H 121.064 2.83401 2.3255 0
M  V30 1279 H 120.712 1.94783 4.63755 0
M  V30 1280 H 120.412 3.70227 4.56296 0
M  V30 1281 H 121.936 3.09015 5.26633 0
M  V30 1282 H 123.35 4.53198 3.51118 0
M  V30 1283 H 121.747 5.17115 3.04487 0
M  V30 1284 H 122.817 4.50281 1.7993 0
M  V30 1285 N 124.16 -0.719506 1.40217 0
M  V30 1286 C 125.576 -1.02707 1.22161 0
M  V30 1287 C 125.776 -2.0128 0.0940557 0
M  V30 1288 O 124.832 -2.46452 -0.549318 0
M  V30 1289 C 126.145 -1.57454 2.56181 0
M  V30 1290 C 127.693 -1.69458 2.63159 0
M  V30 1291 C 128.168 -2.27611 3.97438 0
M  V30 1292 N 129.659 -2.35002 3.99159 0
M  V30 1293 C 130.394 -2.80972 4.99842 0
M  V30 1294 N 129.89 -3.26723 6.10921 0
M  V30 1295 N 131.683 -2.80321 4.87213 0
M  V30 1296 H 123.834 -0.0660492 2.12297 0
M  V30 1297 H 126.097 -0.0919077 0.943534 0
M  V30 1298 H 125.803 -0.924873 3.39321 0
M  V30 1299 H 125.677 -2.56036 2.76993 0
M  V30 1300 H 128.064 -2.33543 1.80393 0
M  V30 1301 H 128.145 -0.694867 2.46181 0
M  V30 1302 H 127.789 -1.6415 4.80643 0
M  V30 1303 H 127.719 -3.2829 4.11744 0
M  V30 1304 H 130.21 -2.02685 3.18947 0
M  V30 1305 H 130.523 -3.60355 6.8364 0
M  V30 1306 H 128.868 -3.24692 6.14492 0
M  V30 1307 H 132.059 -2.43912 3.9953 0
M  V30 1308 H 132.232 -3.15831 5.65822 0
M  V30 1309 N 125.638 -1.25649 -0.95132 0
M  V30 1310 C 126.866 -1.13343 -1.73092 0
M  V30 1311 C 127.281 0.312434 -1.86197 0
M  V30 1312 O 126.638 1.21465 -1.36207 0
M  V30 1313 C 126.689 -1.78602 -3.14299 0
M  V30 1314 O 126.41 -3.17537 -3.01831 0
M  V30 1315 C 127.911 -1.72119 -4.08522 0
M  V30 1316 H 125.131 -0.395181 -0.542285 0
M  V30 1317 H 127.675 -1.66076 -1.19328 0
M  V30 1318 H 125.83 -1.29832 -3.64996 0
M  V30 1319 H 126.244 -3.49676 -3.90931 0
M  V30 1320 H 127.718 -2.22435 -5.052 0
M  V30 1321 H 128.195 -0.685635 -4.33815 0
M  V30 1322 H 128.801 -2.20393 -3.63741 0
M  V30 1323 N 127.117 1.15442 -1.07289 0
M  V30 1324 C 128.394 1.82306 -0.708792 0
M  V30 1325 C 128.774 1.94991 0.808807 0
M  V30 1326 O 128.122 1.50085 1.72298 0
M  V30 1327 C 128.332 3.18695 -1.42247 0
M  V30 1328 C 129.68 3.94341 -1.57417 0
M  V30 1329 O 130.704 3.28247 -1.38319 0
M  V30 1330 O 129.563 5.12839 -1.88834 0
M  V30 1331 H 126.657 0.787628 -0.252132 0
M  V30 1332 H 129.203 1.22559 -1.17377 0
M  V30 1333 H 127.975 3.04557 -2.45684 0
M  V30 1334 H 127.598 3.86128 -0.948223 0
M  V30 1335 N 128.595 0.856903 1.32268 0
M  V30 1336 C 129.841 0.471355 1.97863 0
M  V30 1337 C 130.196 -0.962896 1.66572 0
M  V30 1338 O 129.489 -1.66686 0.944797 0
M  V30 1339 C 129.683 0.649919 3.51441 0
M  V30 1340 C 129.512 2.09997 3.97657 0
M  V30 1341 C 128.282 2.73893 4.2463 0
M  V30 1342 C 130.48 3.07081 4.1256 0
M  V30 1343 N 128.462 4.09786 4.57109 0
M  V30 1344 C 129.833 4.27968 4.48602 0
M  V30 1345 C 131.888 3.03247 3.949 0
M  V30 1346 C 130.591 5.45521 4.68827 0
M  V30 1347 C 132.617 4.20046 4.16311 0
M  V30 1348 C 131.979 5.39692 4.52672 0
M  V30 1349 H 128.078 0.221263 0.750044 0
M  V30 1350 H 130.662 1.10876 1.60045 0
M  V30 1351 H 128.833 0.0421938 3.88377 0
M  V30 1352 H 130.565 0.234044 4.04023 0
M  V30 1353 H 127.32 2.24918 4.16784 0
M  V30 1354 H 127.744 4.7989 4.7753 0
M  V30 1355 H 132.386 2.11863 3.65888 0
M  V30 1356 H 130.104 6.37434 4.96693 0
M  V30 1357 H 133.69 4.18517 4.04147 0
M  V30 1358 H 132.57 6.28566 4.68907 0
M  V30 1359 N 130.073 -1.45103 0.615059 0
M  V30 1360 C 131.322 -2.01396 0.110718 0
M  V30 1361 C 131.635 -1.48834 -1.26916 0
M  V30 1362 O 132.841 -1.97152 -1.86664 0
M  V30 1363 C 131.297 -3.59599 0.14723 0
M  V30 1364 C 130.905 -4.21158 1.52743 0
M  V30 1365 C 132.649 -4.23428 -0.30148 0
M  V30 1366 C 130.556 -5.71535 1.51992 0
M  V30 1367 H 129.486 -0.753061 0.0376241 0
M  V30 1368 H 132.137 -1.66494 0.77149 0
M  V30 1369 H 130.519 -3.91724 -0.580339 0
M  V30 1370 H 131.693 -4.00594 2.2773 0
M  V30 1371 H 130.008 -3.69552 1.91886 0
M  V30 1372 H 132.605 -5.33703 -0.326392 0
M  V30 1373 H 132.948 -3.94629 -1.32565 0
M  V30 1374 H 133.481 -3.96047 0.373065 0
M  V30 1375 H 130.22 -6.05044 2.52193 0
M  V30 1376 H 129.74 -5.94268 0.81274 0
M  V30 1377 H 131.419 -6.34873 1.24681 0
M  V30 1378 N 131.551 -0.354651 -1.53558 0
M  V30 1379 C 132.779 0.239515 -2.05509 0
M  V30 1380 C 133.194 1.4333 -1.2289 0
M  V30 1381 O 132.551 1.80538 -0.266899 0
M  V30 1382 C 132.602 0.643719 -3.55723 0
M  V30 1383 O 132.323 -0.502602 -4.35207 0
M  V30 1384 C 133.824 1.29743 -4.23889 0
M  V30 1385 H 131.044 0.0442697 -0.669538 0
M  V30 1386 H 133.588 -0.509856 -1.98042 0
M  V30 1387 H 131.743 1.34302 -3.63376 0
M  V30 1388 H 132.157 -0.178172 -5.24197 0
M  V30 1389 H 133.631 1.53091 -5.30346 0
M  V30 1390 H 134.108 2.25441 -3.76926 0
M  V30 1391 H 134.714 0.639865 -4.20459 0
M  V30 1392 N 133.029 1.57378 -0.0835403 0
M  V30 1393 C 134.445 1.57246 0.273109 0
M  V30 1394 C 134.645 1.09385 1.69225 0
M  V30 1395 O 133.701 0.765051 2.40631 0
M  V30 1396 C 135.014 3.00614 0.0720628 0
M  V30 1397 C 136.562 3.12684 0.1407 0
M  V30 1398 C 137.037 4.57989 -0.0322094 0
M  V30 1399 N 138.528 4.63194 0.0230085 0
M  V30 1400 C 139.263 5.73335 -0.0861941 0
M  V30 1401 N 138.759 6.9235 -0.24958 0
M  V30 1402 N 140.552 5.62093 -0.0282886 0
M  V30 1403 H 132.703 1.86801 -1.0109 0
M  V30 1404 H 134.966 0.861687 -0.395222 0
M  V30 1405 H 134.672 3.39786 -0.907662 0
M  V30 1406 H 134.546 3.68193 0.81936 0
M  V30 1407 H 136.933 2.73391 1.11092 0
M  V30 1408 H 137.014 2.47719 -0.637896 0
M  V30 1409 H 136.658 4.97973 -0.999247 0
M  V30 1410 H 136.588 5.21 0.765937 0
M  V30 1411 H 139.079 3.77613 0.14722 0
M  V30 1412 H 139.392 7.72117 -0.324733 0
M  V30 1413 H 137.737 6.94415 -0.285097 0
M  V30 1414 H 140.928 4.67997 0.0981408 0
M  V30 1415 H 141.101 6.47895 -0.116845 0
M  V30 1416 N 134.507 -0.190092 1.56449 0
M  V30 1417 C 135.417 -1.25591 1.98152 0
M  V30 1418 C 136.433 -1.49519 0.889944 0
M  V30 1419 O 137.609 -1.62036 1.19609 0
M  V30 1420 C 134.674 -2.57916 2.3169 0
M  V30 1421 C 133.735 -2.42015 3.5458 0
M  V30 1422 C 132.968 -3.6803 3.8651 0
M  V30 1423 O 133.191 -4.72413 3.1966 0
M  V30 1424 O 132.125 -3.6326 4.79923 0
M  V30 1425 H 135.951 -0.931988 2.89046 0
M  V30 1426 H 133.536 -0.395488 1.4407 0
M  V30 1427 H 135.418 -3.36008 2.54316 0
M  V30 1428 H 134.093 -2.89925 1.43963 0
M  V30 1429 H 133 -1.62017 3.37196 0
M  V30 1430 H 134.333 -2.14937 4.4279 0
M  V30 1431 N 135.985 -1.50799 -0.457987 0
M  V30 1432 C 137.233 -1.62121 -1.2067 0
M  V30 1433 C 137.554 -0.329793 -1.92191 0
M  V30 1434 O 136.824 0.653409 -1.84682 0
M  V30 1435 H 135.404 -0.597441 -0.448411 0
M  V30 1436 H 138.066 -1.87637 -0.527096 0
M  V30 1437 H 137.162 -2.43882 -1.94751 0
M  V30 1438 N 137.463 0.71206 -1.40597 0
M  V30 1439 C 138.426 1.80785 -1.40888 0
M  V30 1440 C 139.426 1.57937 -0.302103 0
M  V30 1441 O 140.616 1.64913 -0.561182 0
M  V30 1442 C 137.748 3.18927 -1.20409 0
M  V30 1443 H 138.941 1.81924 -2.38419 0
M  V30 1444 H 136.494 0.91805 -1.26497 0
M  V30 1445 H 137.229 3.23436 -0.236522 0
M  V30 1446 H 137.014 3.36911 -2.00582 0
M  V30 1447 H 138.504 3.98949 -1.23408 0
M  V30 1448 N 138.941 1.26152 0.944643 0
M  V30 1449 C 139.873 1.03199 2.04652 0
M  V30 1450 C 140.886 -0.00642356 1.62799 0
M  V30 1451 O 142.075 0.233263 1.76969 0
M  V30 1452 C 139.175 0.540111 3.34568 0
M  V30 1453 C 138.348 1.64697 4.05208 0
M  V30 1454 C 137.407 1.15374 5.13396 0
M  V30 1455 O 136.433 1.85013 5.38293 0
M  V30 1456 N 137.635 0.00031529 5.805 0
M  V30 1457 H 140.4 1.9808 2.2491 0
M  V30 1458 H 137.961 1.17491 1.11389 0
M  V30 1459 H 139.953 0.194401 4.04233 0
M  V30 1460 H 138.523 -0.315021 3.11009 0
M  V30 1461 H 137.743 2.16379 3.29506 0
M  V30 1462 H 139.031 2.3903 4.49157 0
M  V30 1463 H 138.429 -0.581336 5.62705 0
M  V30 1464 H 136.986 -0.286346 6.51171 0
M  V30 1465 N 140.419 -1.14872 1.07899 0
M  V30 1466 C 141.835 -1.37776 0.805606 0
M  V30 1467 C 142.035 -1.92743 -0.587555 0
M  V30 1468 O 141.091 -2.13678 -1.34528 0
M  V30 1469 C 142.404 -2.34361 1.88402 0
M  V30 1470 C 143.952 -2.48012 1.90942 0
M  V30 1471 C 144.427 -3.47893 2.97883 0
M  V30 1472 N 145.918 -3.55433 2.97021 0
M  V30 1473 C 146.653 -4.32553 3.76412 0
M  V30 1474 N 146.149 -5.12959 4.65666 0
M  V30 1475 N 147.942 -4.27697 3.64735 0
M  V30 1476 H 140.093 -0.775365 1.97742 0
M  V30 1477 H 142.356 -0.403521 0.857831 0
M  V30 1478 H 142.062 -2.01098 2.88535 0
M  V30 1479 H 141.936 -3.34206 1.74889 0
M  V30 1480 H 144.323 -2.8057 0.914579 0
M  V30 1481 H 144.404 -1.48147 2.08534 0
M  V30 1482 H 144.048 -3.16069 3.97571 0
M  V30 1483 H 143.978 -4.47527 2.77538 0
M  V30 1484 H 146.469 -2.98048 2.32326 0
M  V30 1485 H 146.782 -5.69065 5.22862 0
M  V30 1486 H 145.127 -5.12245 4.69712 0
M  V30 1487 H 148.318 -3.63949 2.94378 0
M  V30 1488 H 148.491 -4.8755 4.26848 0
M  V30 1489 N 141.898 -0.863906 -1.31812 0
M  V30 1490 C 143.144 -0.472535 -1.97218 0
M  V30 1491 C 143.477 0.971394 -1.68159 0
M  V30 1492 O 142.752 1.68309 -0.974798 0
M  V30 1493 C 143.035 -0.723054 -3.52766 0
M  V30 1494 C 142.888 -2.21608 -3.91421 0
M  V30 1495 C 144.207 -0.185522 -4.39709 0
M  V30 1496 H 141.326 -0.173158 -0.71637 0
M  V30 1497 H 143.968 -1.08403 -1.56041 0
M  V30 1498 H 142.118 -0.202577 -3.87971 0
M  V30 1499 H 143.79 -2.80334 -3.66347 0
M  V30 1500 H 142.033 -2.691 -3.40246 0
M  V30 1501 H 142.704 -2.34203 -4.99853 0
M  V30 1502 H 145.18 -0.630726 -4.11292 0
M  V30 1503 H 144.056 -0.390306 -5.47511 0
M  V30 1504 H 144.317 0.912229 -4.32586 0
M  V30 1505 N 143.376 1.44774 -0.622745 0
M  V30 1506 C 144.606 2.06187 -0.130532 0
M  V30 1507 C 145.014 1.46547 1.19669 0
M  V30 1508 O 144.357 0.579636 1.74316 0
M  V30 1509 C 144.419 3.59437 0.0674983 0
M  V30 1510 C 144.083 4.41496 -1.18026 0
M  V30 1511 C 145.08 4.75512 -2.102 0
M  V30 1512 C 142.765 4.82007 -1.41333 0
M  V30 1513 C 144.759 5.48912 -3.23998 0
M  V30 1514 C 142.446 5.55157 -2.55429 0
M  V30 1515 C 143.444 5.88528 -3.46589 0
M  V30 1516 O 143.132 6.60191 -4.58697 0
M  V30 1517 H 142.864 0.672045 -0.0730162 0
M  V30 1518 H 145.418 1.86768 -0.854802 0
M  V30 1519 H 143.648 3.77314 0.846825 0
M  V30 1520 H 145.337 4.02642 0.513209 0
M  V30 1521 H 146.103 4.4476 -1.93425 0
M  V30 1522 H 141.982 4.55457 -0.712709 0
M  V30 1523 H 145.526 5.74877 -3.95174 0
M  V30 1524 H 141.423 5.85324 -2.72151 0
M  V30 1525 H 142.191 6.78654 -4.57571 0
M  V30 1526 N 144.854 0.36279 1.53368 0
M  V30 1527 C 146.103 -0.22888 2.00397 0
M  V30 1528 C 146.416 -1.50096 1.25421 0
M  V30 1529 O 147.622 -2.17106 1.63025 0
M  V30 1530 C 146.078 -0.458417 3.56969 0
M  V30 1531 C 145.686 0.798877 4.4082 0
M  V30 1532 C 147.43 -1.00789 4.12361 0
M  V30 1533 C 145.337 0.539078 5.88938 0
M  V30 1534 H 144.267 -0.089305 0.748693 0
M  V30 1535 H 146.918 0.481099 1.77081 0
M  V30 1536 H 145.3 -1.22959 3.76427 0
M  V30 1537 H 146.474 1.57262 4.33134 0
M  V30 1538 H 144.789 1.27137 3.96516 0
M  V30 1539 H 147.386 -1.21754 5.20653 0
M  V30 1540 H 147.729 -1.9692 3.66781 0
M  V30 1541 H 148.262 -0.296961 3.9669 0
M  V30 1542 H 145.001 1.47064 6.3879 0
M  V30 1543 H 144.521 -0.196222 5.99479 0
M  V30 1544 H 146.2 0.163542 6.46793 0
M  V30 1545 N 146.332 -1.57332 0.0918853 0
M  V30 1546 C 147.242 -2.17368 -0.882505 0
M  V30 1547 C 148.258 -1.14226 -1.31257 0
M  V30 1548 O 149.434 -1.46582 -1.38115 0
M  V30 1549 C 146.499 -2.73962 -2.12476 0
M  V30 1550 C 145.56 -3.92048 -1.7492 0
M  V30 1551 C 144.793 -4.45933 -2.93223 0
M  V30 1552 O 145.016 -3.98764 -4.07852 0
M  V30 1553 O 143.95 -5.36999 -2.71875 0
M  V30 1554 H 147.776 -3.01031 -0.40172 0
M  V30 1555 H 145.361 -1.48813 -0.132291 0
M  V30 1556 H 147.243 -3.10147 -2.85283 0
M  V30 1557 H 145.918 -1.93347 -2.59613 0
M  V30 1558 H 144.825 -3.6068 -0.993025 0
M  V30 1559 H 146.158 -4.74017 -1.32548 0
M  V30 1560 N 147.81 0.181792 -1.56548 0
M  V30 1561 C 149.059 0.898348 -1.8059 0
M  V30 1562 C 149.372 1.83862 -0.667379 0
M  V30 1563 O 150.578 2.59678 -0.792446 0
M  V30 1564 C 149.034 1.64791 -3.19956 0
M  V30 1565 C 148.642 0.751789 -4.41647 0
M  V30 1566 C 150.386 2.35331 -3.53298 0
M  V30 1567 C 148.293 1.50098 -5.72035 0
M  V30 1568 H 147.223 0.339194 -0.673397 0
M  V30 1569 H 149.874 0.151413 -1.82874 0
M  V30 1570 H 148.256 2.43921 -3.11959 0
M  V30 1571 H 149.43 -0.0018076 -4.608 0
M  V30 1572 H 147.745 0.156562 -4.16106 0
M  V30 1573 H 150.342 2.91958 -4.47956 0
M  V30 1574 H 150.685 3.10164 -2.77676 0
M  V30 1575 H 151.218 1.63154 -3.62803 0
M  V30 1576 H 147.957 0.795175 -6.50659 0
M  V30 1577 H 147.477 2.22817 -5.56878 0
M  V30 1578 H 149.156 2.05125 -6.13622 0
M  V30 1579 N 149.288 1.51039 0.449983 0
M  V30 1580 C 150.235 1.71439 1.54523 0
M  V30 1581 C 151.205 0.555871 1.56522 0
M  V30 1582 O 152.39 0.788871 1.73728 0
M  V30 1583 C 149.53 1.83384 2.92343 0
M  V30 1584 C 148.643 3.10873 2.9997 0
M  V30 1585 C 147.778 3.13488 4.28834 0
M  V30 1586 C 146.817 4.35343 4.30282 0
M  V30 1587 N 145.954 4.35579 5.5065 0
M  V30 1588 H 150.794 2.64934 1.36433 0
M  V30 1589 H 148.331 1.31312 0.662982 0
M  V30 1590 H 150.289 1.88291 3.72293 0
M  V30 1591 H 148.919 0.933086 3.0902 0
M  V30 1592 H 147.971 3.15336 2.12761 0
M  V30 1593 H 149.283 4.00814 2.96901 0
M  V30 1594 H 148.437 3.17241 5.17149 0
M  V30 1595 H 147.176 2.21414 4.34543 0
M  V30 1596 H 146.181 4.3178 3.40362 0
M  V30 1597 H 147.406 5.28668 4.26248 0
M  V30 1598 H 145.352 3.46369 5.57104 0
M  V30 1599 H 145.269 5.19313 5.49409 0
M  V30 1600 H 146.537 4.43507 6.41032 0
M  V30 1601 N 150.766 -0.704594 1.40972 0
M  V30 1602 C 152.013 -1.46458 1.39844 0
M  V30 1603 C 152.341 -1.94499 0.00447594 0
M  V30 1604 O 151.596 -1.69275 -0.982057 0
M  V30 1605 C 151.895 -2.698 2.34399 0
M  V30 1606 C 151.561 -2.40464 3.81429 0
M  V30 1607 C 150.223 -2.32174 4.21484 0
M  V30 1608 C 152.575 -2.16086 4.74296 0
M  V30 1609 C 149.903 -1.97589 5.52427 0
M  V30 1610 C 152.255 -1.83011 6.05549 0
M  V30 1611 C 150.919 -1.7321 6.44635 0
M  V30 1612 H 150.189 -0.535927 0.511725 0
M  V30 1613 H 152.836 -0.806124 1.73706 0
M  V30 1614 H 151.141 -3.40536 1.93759 0
M  V30 1615 H 152.838 -3.27919 2.30804 0
M  V30 1616 H 149.428 -2.47808 3.49699 0
M  V30 1617 H 153.612 -2.2144 4.4416 0
M  V30 1618 H 148.868 -1.88547 5.81601 0
M  V30 1619 H 153.042 -1.63164 6.77016 0
M  V30 1620 H 150.669 -1.46179 7.46013 0
M  V30 1621 N 152.244 -1.26651 -0.937939 0
M  V30 1622 C 153.472 -1.15173 -1.7188 0
M  V30 1623 C 153.887 0.292668 -1.86518 0
M  V30 1624 O 153.244 1.20014 -1.37488 0
M  V30 1625 C 153.295 -1.81925 -3.12387 0
M  V30 1626 O 153.016 -3.2072 -2.98446 0
M  V30 1627 C 154.517 -1.76442 -4.06673 0
M  V30 1628 H 151.737 -0.400911 -0.538063 0
M  V30 1629 H 154.281 -1.67332 -1.1756 0
M  V30 1630 H 152.436 -1.33696 -3.63599 0
M  V30 1631 H 152.85 -3.53802 -3.872 0
M  V30 1632 H 154.324 -2.27781 -5.02812 0
M  V30 1633 H 154.801 -0.731608 -4.33064 0
M  V30 1634 H 155.407 -2.24238 -3.61382 0
M  V30 1635 N 153.722 1.14298 -1.08507 0
M  V30 1636 C 154.652 2.21542 -0.737646 0
M  V30 1637 C 155.633 1.67773 0.280377 0
M  V30 1638 O 156.818 1.93616 0.150521 0
M  V30 1639 C 153.948 3.46988 -0.147259 0
M  V30 1640 C 152.902 4.13789 -1.09374 0
M  V30 1641 C 152.228 5.33449 -0.365524 0
M  V30 1642 C 153.528 4.62208 -2.4323 0
M  V30 1643 H 155.222 2.5086 -1.6343 0
M  V30 1644 H 152.768 1.20576 -0.787243 0
M  V30 1645 H 154.721 4.21262 0.107808 0
M  V30 1646 H 153.445 3.17037 0.784538 0
M  V30 1647 H 152.104 3.4147 -1.33393 0
M  V30 1648 H 151.752 4.99759 0.57011 0
M  V30 1649 H 151.452 5.79088 -0.996512 0
M  V30 1650 H 152.976 6.10485 -0.118534 0
M  V30 1651 H 154.39 5.27952 -2.23472 0
M  V30 1652 H 152.787 5.18553 -3.02031 0
M  V30 1653 H 153.857 3.77224 -3.04681 0
M  V30 1654 N 155.201 0.870884 1.31352 0
M  V30 1655 C 156.617 0.562932 1.49343 0
M  V30 1656 C 156.817 -0.902725 1.80148 0
M  V30 1657 O 155.873 -1.68484 1.88067 0
M  V30 1658 C 157.186 1.46393 2.62659 0
M  V30 1659 C 158.734 1.46607 2.76542 0
M  V30 1660 C 159.209 2.35266 3.92955 0
M  V30 1661 N 160.7 2.33151 4.00243 0
M  V30 1662 C 161.435 2.98471 4.89594 0
M  V30 1663 N 160.931 3.72964 5.8384 0
M  V30 1664 N 162.724 2.87775 4.82848 0
M  V30 1665 H 154.875 1.81923 1.09626 0
M  V30 1666 H 157.138 0.777934 0.541777 0
M  V30 1667 H 156.844 2.50689 2.46674 0
M  V30 1668 H 156.718 1.16314 3.58819 0
M  V30 1669 H 159.105 0.43069 2.9194 0
M  V30 1670 H 159.186 1.8071 1.81046 0
M  V30 1671 H 158.83 3.38881 3.78315 0
M  V30 1672 H 158.76 1.98487 4.87761 0
M  V30 1673 H 161.251 1.79006 3.32814 0
M  V30 1674 H 161.564 4.19932 6.4875 0
M  V30 1675 H 159.909 3.77073 5.83816 0
M  V30 1676 H 163.1 2.29116 4.08195 0
M  V30 1677 H 163.273 3.38961 5.52277 0
M  V30 1678 N 156.679 -1.44442 0.630414 0
M  V30 1679 C 157.956 -1.9549 0.0655657 0
M  V30 1680 C 158.336 -1.5724 -1.40851 0
M  V30 1681 O 157.684 -0.846116 -2.12257 0
M  V30 1682 C 157.894 -3.47812 0.287691 0
M  V30 1683 C 159.242 -4.24216 0.180513 0
M  V30 1684 O 160.266 -3.55526 0.219019 0
M  V30 1685 O 159.125 -5.46434 0.0848493 0
M  V30 1686 H 156.219 -0.826688 -0.0227177 0
M  V30 1687 H 158.765 -1.54496 0.702068 0
M  V30 1688 H 157.537 -3.687 1.31056 0
M  V30 1689 H 157.16 -3.95751 -0.382984 0
M  V30 1690 N 158.157 -0.370918 -1.53173 0
M  V30 1691 C 159.397 0.217106 -2.03244 0
M  V30 1692 C 159.761 1.45558 -1.25207 0
M  V30 1693 O 160.962 2.11957 -1.65311 0
M  V30 1694 C 159.233 0.496664 -3.53932 0
M  V30 1695 S 160.792 1.0576 -4.25864 0
M  V30 1696 H 157.61 0.0627827 -0.708223 0
M  V30 1697 H 160.212 -0.515019 -1.88594 0
M  V30 1698 H 158.916 -0.412096 -4.08326 0
M  V30 1699 H 158.447 1.25772 -3.72753 0
M  V30 1700 H 160.462 2.34145 -4.37482 0
M  V30 1701 N 159.635 1.57281 -0.100228 0
M  V30 1702 C 160.583 2.15542 0.874328 0
M  V30 1703 C 161.577 1.09962 1.28859 0
M  V30 1704 O 162.783 1.28298 1.26252 0
M  V30 1705 H 159.158 0.689567 0.300003 0
M  V30 1706 H 161.129 2.96241 0.35829 0
M  V30 1707 C 159.878 2.75454 2.1218 0
M  V30 1708 H 159.201 3.56384 1.81193 0
M  V30 1709 H 160.641 3.19781 2.78417 0
M  V30 1710 C 159.1 1.71602 2.89921 0
M  V30 1711 O 159.63 1.15804 3.84646 0
M  V30 1712 N 157.836 1.41975 2.53558 0
M  V30 1713 H 157.383 1.87539 1.76598 0
M  V30 1714 H 157.341 0.727274 3.05873 0
M  V30 1715 N 161.113 -0.173488 1.56642 0
M  V30 1716 C 162.338 -0.910149 1.86363 0
M  V30 1717 C 162.763 -1.75132 0.686318 0
M  V30 1718 O 162.121 -1.77595 -0.364643 0
M  V30 1719 C 162.169 -1.76447 3.14482 0
M  V30 1720 O 161.273 -2.86584 2.96553 0
M  V30 1721 H 160.614 -0.255086 0.613047 0
M  V30 1722 H 163.144 -0.172283 2.03873 0
M  V30 1723 H 163.154 -2.16483 3.45831 0
M  V30 1724 H 161.829 -1.14658 3.99783 0
M  V30 1725 H 160.406 -2.50146 2.76553 0
M  V30 1726 N 162.591 -1.51276 -0.441967 0
M  V30 1727 C 163.521 -1.752 -1.54361 0
M  V30 1728 C 164.502 -0.601682 -1.59103 0
M  V30 1729 O 165.687 -0.843913 -1.74905 0
M  V30 1730 C 162.817 -1.87282 -2.92477 0
M  V30 1731 C 161.771 -3.02687 -3.02596 0
M  V30 1732 C 161.097 -2.99947 -4.42647 0
M  V30 1733 C 162.397 -4.4273 -2.77106 0
M  V30 1734 H 164.091 -2.67442 -1.34592 0
M  V30 1735 H 161.637 -1.28694 -0.646048 0
M  V30 1736 H 163.59 -2.02602 -3.695 0
M  V30 1737 H 162.314 -0.916844 -3.13467 0
M  V30 1738 H 160.973 -2.87065 -2.28012 0
M  V30 1739 H 160.621 -2.02136 -4.60597 0
M  V30 1740 H 160.321 -3.77439 -4.50348 0
M  V30 1741 H 161.845 -3.17354 -5.2165 0
M  V30 1742 H 163.259 -4.58727 -3.43864 0
M  V30 1743 H 161.656 -5.21893 -2.96222 0
M  V30 1744 H 162.726 -4.53087 -1.72744 0
M  V30 1745 N 164.069 0.697108 -1.41344 0
M  V30 1746 C 165.48 1.27697 -1.36199 0
M  V30 1747 C 165.831 1.9615 -0.0443463 0
M  V30 1748 O 164.956 1.98689 0.857419 0
M  V30 1749 C 165.551 2.32223 -2.46694 0
M  V30 1750 C 164.11 2.8579 -2.44952 0
M  V30 1751 C 163.257 1.59807 -2.26621 0
M  V30 1752 H 166.208 0.491968 -1.50882 0
M  V30 1753 H 166.229 3.1348 -2.15664 0
M  V30 1754 H 165.741 1.82373 -3.42581 0
M  V30 1755 H 163.842 3.3982 -1.52817 0
M  V30 1756 H 163.955 3.36325 -3.41207 0
M  V30 1757 H 162.319 1.8556 -1.7447 0
M  V30 1758 H 163.102 1.11956 -3.24532 0
M  V30 1759 N 165.547 1.27147 0.931209 0
M  V30 1760 C 166.795 1.13055 1.6752 0
M  V30 1761 C 167.116 -0.324791 1.92276 0
M  V30 1762 O 166.386 -1.22775 1.52654 0
M  V30 1763 H 164.966 0.415391 0.620854 0
M  V30 1764 H 167.628 1.59623 1.11833 0
M  V30 1765 H 166.724 1.65694 2.64485 0
M  V30 1766 N 167.025 -1.13721 1.09112 0
M  V30 1767 C 168.271 -1.85198 0.826414 0
M  V30 1768 C 168.604 -1.83129 -0.646319 0
M  V30 1769 O 167.879 -1.2671 -1.47563 0
M  V30 1770 C 168.162 -3.33507 1.35812 0
M  V30 1771 C 168.015 -3.44108 2.89672 0
M  V30 1772 C 169.334 -4.28838 0.989256 0
M  V30 1773 H 166.453 -0.67243 0.301675 0
M  V30 1774 H 169.095 -1.33499 1.35197 0
M  V30 1775 H 167.245 -3.77666 0.911082 0
M  V30 1776 H 168.917 -3.08684 3.428 0
M  V30 1777 H 167.16 -2.85087 3.26967 0
M  V30 1778 H 167.831 -4.48388 3.21951 0
M  V30 1779 H 170.307 -3.92734 1.37475 0
M  V30 1780 H 169.183 -5.31051 1.38838 0
M  V30 1781 H 169.444 -4.4198 -0.102924 0
M  V30 1782 N 168.503 -0.877838 -1.30888 0
M  V30 1783 C 169.436 -0.283995 -2.26426 0
M  V30 1784 C 170.414 0.591361 -1.51465 0
M  V30 1785 O 171.598 0.54304 -1.80509 0
M  V30 1786 C 168.725 0.597129 -3.33395 0
M  V30 1787 C 167.771 -0.207937 -4.25993 0
M  V30 1788 S 168.604 -1.59158 -5.11301 0
M  V30 1789 C 169.76 -0.716791 -6.21782 0
M  V30 1790 H 169.993 -1.09383 -2.76446 0
M  V30 1791 H 167.526 -0.676828 -1.38775 0
M  V30 1792 H 169.484 1.09978 -3.95493 0
M  V30 1793 H 168.145 1.38099 -2.82113 0
M  V30 1794 H 167.338 0.464163 -5.01858 0
M  V30 1795 H 166.94 -0.642963 -3.68432 0
M  V30 1796 H 169.232 0.0692833 -6.77465 0
M  V30 1797 H 170.175 -1.44682 -6.93161 0
M  V30 1798 H 170.583 -0.280855 -5.63801 0
M  V30 1799 N 169.982 1.44106 -0.638065 0
M  V30 1800 C 171.23 2.01579 -0.145043 0
M  V30 1801 C 171.551 1.50496 1.24 0
M  V30 1802 O 170.821 0.711374 1.82527 0
M  V30 1803 H 169.401 0.745282 -0.05063 0
M  V30 1804 H 172.063 1.76516 -0.826327 0
M  V30 1805 H 171.159 3.11877 -0.118039 0
M  V30 1806 N 171.46 0.379036 1.52974 0
M  V30 1807 C 172.688 -0.20679 2.05864 0
M  V30 1808 C 173.103 -1.41356 1.25155 0
M  V30 1809 O 172.46 -1.8009 0.295588 0
M  V30 1810 C 172.511 -0.587045 3.56702 0
M  V30 1811 O 172.232 0.571776 4.34353 0
M  V30 1812 C 173.733 -1.22983 4.25899 0
M  V30 1813 H 170.953 -0.0336123 0.670158 0
M  V30 1814 H 173.497 0.541298 1.97206 0
M  V30 1815 H 171.652 -1.28504 3.65466 0
M  V30 1816 H 172.066 0.261544 5.23847 0
M  V30 1817 H 173.54 -1.44635 5.32715 0
M  V30 1818 H 174.017 -2.19416 3.80465 0
M  V30 1819 H 174.623 -0.572892 4.21424 0
M  V30 1820 N 172.938 -1.57226 0.108567 0
M  V30 1821 C 174.178 -1.96717 -0.555155 0
M  V30 1822 C 174.542 -0.990003 -1.64508 0
M  V30 1823 O 175.743 -1.2739 -2.36696 0
M  V30 1824 C 174.014 -3.40575 -1.08367 0
M  V30 1825 S 175.573 -4.02072 -1.75737 0
M  V30 1826 H 172.391 -0.687638 -0.180762 0
M  V30 1827 H 174.993 -1.94563 0.191172 0
M  V30 1828 H 173.697 -4.0945 -0.279092 0
M  V30 1829 H 173.228 -3.46356 -1.86551 0
M  V30 1830 H 175.243 -3.91977 -3.04251 0
M  V30 1831 N 174.416 0.165178 -1.56732 0
M  V30 1832 C 175.363 1.2044 -1.96883 0
M  V30 1833 C 176.333 1.43664 -0.833657 0
M  V30 1834 O 177.518 1.56302 -1.09427 0
M  V30 1835 C 174.658 2.53727 -2.33916 0
M  V30 1836 C 173.771 2.3783 -3.6064 0
M  V30 1837 C 172.906 3.64026 -3.86857 0
M  V30 1838 C 171.945 3.43088 -5.06909 0
M  V30 1839 N 171.082 4.61369 -5.29229 0
M  V30 1840 H 175.922 0.854996 -2.85471 0
M  V30 1841 H 173.459 0.41076 -1.41249 0
M  V30 1842 H 175.417 3.31419 -2.53411 0
M  V30 1843 H 174.047 2.8665 -1.48431 0
M  V30 1844 H 173.099 1.51282 -3.49024 0
M  V30 1845 H 174.411 2.18308 -4.4849 0
M  V30 1846 H 173.565 4.50152 -4.06753 0
M  V30 1847 H 172.304 3.86533 -2.97394 0
M  V30 1848 H 171.309 2.55349 -4.86906 0
M  V30 1849 H 172.534 3.21997 -5.97909 0
M  V30 1850 H 170.48 4.84084 -4.42718 0
M  V30 1851 H 170.397 4.44783 -6.11313 0
M  V30 1852 H 171.665 5.48761 -5.53608 0
M  V30 1853 N 175.894 1.51508 0.433938 0
M  V30 1854 C 176.804 1.75917 1.5521 0
M  V30 1855 C 177.82 0.643545 1.61662 0
M  V30 1856 O 178.996 0.926183 1.7884 0
M  V30 1857 C 176.061 1.88213 2.91164 0
M  V30 1858 C 175.122 3.12074 2.94802 0
M  V30 1859 C 174.355 3.23774 4.24271 0
M  V30 1860 O 174.578 2.4133 5.16833 0
M  V30 1861 O 173.512 4.16774 4.34262 0
M  V30 1862 H 177.338 2.70777 1.37527 0
M  V30 1863 H 174.923 1.36051 0.617293 0
M  V30 1864 H 176.805 1.98267 3.71845 0
M  V30 1865 H 175.48 0.965413 3.08968 0
M  V30 1866 H 174.387 3.07497 2.13065 0
M  V30 1867 H 175.72 4.03446 2.81943 0
M  V30 1868 N 177.372 -0.689602 1.41712 0
M  V30 1869 C 178.6 -1.47827 1.44758 0
M  V30 1870 C 179.015 -1.88721 0.0545703 0
M  V30 1871 O 178.372 -1.57176 -0.927463 0
M  V30 1872 C 178.423 -2.73698 2.3616 0
M  V30 1873 O 178.144 -2.34524 3.7004 0
M  V30 1874 C 179.645 -3.67389 2.48072 0
M  V30 1875 H 176.865 -0.455357 0.49284 0
M  V30 1876 H 179.409 -0.848574 1.86063 0
M  V30 1877 H 177.564 -3.32891 1.98148 0
M  V30 1878 H 177.978 -3.15701 4.18847 0
M  V30 1879 H 179.452 -4.52475 3.16181 0
M  V30 1880 H 179.929 -4.12284 1.51388 0
M  V30 1881 H 180.535 -3.14097 2.86746 0
M  V30 1882 N 178.85 -1.27639 -0.924453 0
M  V30 1883 C 180.097 -1.14167 -1.67249 0
M  V30 1884 C 180.425 0.311863 -1.91984 0
M  V30 1885 O 179.68 1.24425 -1.51053 0
M  V30 1886 C 179.979 -1.87407 -3.04325 0
M  V30 1887 C 179.645 -3.37249 -2.99289 0
M  V30 1888 C 178.307 -3.7812 -2.97622 0
M  V30 1889 C 180.659 -4.32845 -2.90336 0
M  V30 1890 C 177.987 -5.12944 -2.8479 0
M  V30 1891 C 180.339 -5.6773 -2.79045 0
M  V30 1892 C 179.003 -6.07889 -2.7573 0
M  V30 1893 H 178.273 -0.417766 -0.612007 0
M  V30 1894 H 180.92 -1.58286 -1.07786 0
M  V30 1895 H 179.225 -1.35805 -3.67511 0
M  V30 1896 H 180.922 -1.74408 -3.61086 0
M  V30 1897 H 177.512 -3.04748 -3.01374 0
M  V30 1898 H 181.696 -4.02239 -2.90719 0
M  V30 1899 H 176.952 -5.432 -2.80612 0
M  V30 1900 H 181.126 -6.41472 -2.71083 0
M  V30 1901 H 178.753 -7.12314 -2.65544 0
M  V30 1902 N 180.328 1.1314 -1.09713 0
M  V30 1903 C 181.276 2.20717 -0.733934 0
M  V30 1904 C 182.27 1.6729 0.266506 0
M  V30 1905 O 183.476 1.79547 0.127656 0
M  V30 1906 H 179.851 0.719292 -0.21937 0
M  V30 1907 H 181.822 2.48611 -1.6503 0
M  V30 1908 C 180.571 3.47265 -0.173849 0
M  V30 1909 H 179.894 3.88716 -0.934873 0
M  V30 1910 H 181.334 4.23979 0.0423126 0
M  V30 1911 C 179.793 3.18724 1.09164 0
M  V30 1912 O 180.323 3.37762 2.17439 0
M  V30 1913 N 178.529 2.72583 1.00732 0
M  V30 1914 H 178.076 2.57291 0.126121 0
M  V30 1915 H 178.034 2.53862 1.85476 0
M  V30 1916 N 181.806 0.884767 1.30421 0
M  V30 1917 C 182.736 0.367574 2.30589 0
M  V30 1918 C 183.717 -0.549464 1.60981 0
M  V30 1919 O 184.902 -0.46336 1.88591 0
M  V30 1920 C 182.032 -0.418944 3.44764 0
M  V30 1921 C 180.986 0.406316 4.26067 0
M  V30 1922 C 180.312 -0.506793 5.32293 0
M  V30 1923 C 181.612 1.64832 4.95608 0
M  V30 1924 H 183.306 1.20462 2.74097 0
M  V30 1925 H 180.852 0.580695 1.31772 0
M  V30 1926 H 182.805 -0.791395 4.13902 0
M  V30 1927 H 181.529 -1.28964 3.0006 0
M  V30 1928 H 180.188 0.760903 3.58617 0
M  V30 1929 H 179.836 -1.37519 4.83836 0
M  V30 1930 H 179.536 0.0415828 5.87585 0
M  V30 1931 H 181.06 -0.875764 6.04287 0
M  V30 1932 H 182.474 1.34646 5.57264 0
M  V30 1933 H 180.871 2.13688 5.60765 0
M  V30 1934 H 181.941 2.39284 4.21748 0
M  V30 1935 N 183.284 -1.43765 0.645699 0
M  V30 1936 C 184.514 -2.05953 0.163318 0
M  V30 1937 C 184.922 -1.48432 -1.17322 0
M  V30 1938 O 184.265 -0.607295 -1.73371 0
M  V30 1939 C 184.327 -3.59499 -0.0103065 0
M  V30 1940 C 183.991 -4.39563 1.25035 0
M  V30 1941 C 184.988 -4.72108 2.17739 0
M  V30 1942 C 182.673 -4.79697 1.48983 0
M  V30 1943 C 184.667 -5.43688 3.3269 0
M  V30 1944 C 182.354 -5.51023 2.64229 0
M  V30 1945 C 183.352 -5.8294 3.55908 0
M  V30 1946 O 183.04 -6.5281 4.69142 0
M  V30 1947 H 182.772 -0.670798 0.0836986 0
M  V30 1948 H 185.326 -1.85384 0.884407 0
M  V30 1949 H 183.556 -3.78613 -0.78669 0
M  V30 1950 H 185.245 -4.03408 -0.449087 0
M  V30 1951 H 186.011 -4.41627 2.00476 0
M  V30 1952 H 181.89 -4.54266 0.785078 0
M  V30 1953 H 185.434 -5.68517 4.04269 0
M  V30 1954 H 181.331 -5.8092 2.81429 0
M  V30 1955 H 182.099 -6.71288 4.6831 0
M  V30 1956 N 184.763 -0.387143 -1.52771 0
M  V30 1957 C 185.993 0.195585 -2.05672 0
M  V30 1958 C 186.401 1.41241 -1.25887 0
M  V30 1959 O 185.744 1.81265 -0.298081 0
M  V30 1960 C 185.806 0.632327 -3.53895 0
M  V30 1961 C 185.47 -0.470739 -4.54569 0
M  V30 1962 C 186.467 -1.32746 -5.02667 0
M  V30 1963 C 184.152 -0.637151 -4.98243 0
M  V30 1964 C 186.146 -2.33574 -5.93061 0
M  V30 1965 C 183.833 -1.64877 -5.88438 0
M  V30 1966 C 184.831 -2.49649 -6.35739 0
M  V30 1967 O 184.519 -3.49082 -7.24153 0
M  V30 1968 H 184.251 0.033658 -0.675162 0
M  V30 1969 H 186.805 -0.550221 -1.97893 0
M  V30 1970 H 185.035 1.43008 -3.59285 0
M  V30 1971 H 186.724 1.14048 -3.89548 0
M  V30 1972 H 187.49 -1.21019 -4.69659 0
M  V30 1973 H 183.369 0.0129567 -4.60998 0
M  V30 1974 H 186.913 -2.99777 -6.29904 0
M  V30 1975 H 182.81 -1.76643 -6.2086 0
M  V30 1976 H 183.578 -3.45065 -7.42208 0
M  V30 1977 N 186.241 1.57166 -0.116904 0
M  V30 1978 C 187.471 1.99184 0.548586 0
M  V30 1979 C 187.879 0.995436 1.60897 0
M  V30 1980 O 187.222 -0.0201293 1.83689 0
M  V30 1981 C 187.284 3.37611 1.23526 0
M  V30 1982 C 186.948 4.55857 0.323077 0
M  V30 1983 C 187.945 5.18056 -0.437476 0
M  V30 1984 C 185.63 5.01751 0.234761 0
M  V30 1985 C 187.624 6.24536 -1.2741 0
M  V30 1986 C 185.311 6.08093 -0.605496 0
M  V30 1987 C 186.309 6.69352 -1.35856 0
M  V30 1988 O 185.997 7.7364 -2.18487 0
M  V30 1989 H 185.729 0.659148 0.149999 0
M  V30 1990 H 188.283 2.0443 -0.199428 0
M  V30 1991 H 186.513 3.29113 2.0303 0
M  V30 1992 H 188.202 3.63932 1.79745 0
M  V30 1993 H 188.968 4.83516 -0.379105 0
M  V30 1994 H 184.847 4.53817 0.810601 0
M  V30 1995 H 188.391 6.72281 -1.86237 0
M  V30 1996 H 184.288 6.42063 -0.665268 0
M  V30 1997 H 185.056 7.90727 -2.11406 0
M  V30 1998 N 187.719 -0.156864 1.56817 0
M  V30 1999 C 188.629 -1.2136 2.00771 0
M  V30 2000 C 189.645 -1.47598 0.921459 0
M  V30 2001 O 190.821 -1.59462 1.2302 0
M  V30 2002 C 187.886 -2.52943 2.37109 0
M  V30 2003 C 186.947 -2.34439 3.59634 0
M  V30 2004 C 186.18 -3.59748 3.94229 0
M  V30 2005 O 186.403 -4.65526 3.29609 0
M  V30 2006 O 185.337 -3.52998 4.8752 0
M  V30 2007 H 189.163 -0.870468 2.90958 0
M  V30 2008 H 186.748 -0.36484 1.44877 0
M  V30 2009 H 188.63 -3.30538 2.61386 0
M  V30 2010 H 187.305 -2.86806 1.5008 0
M  V30 2011 H 186.212 -1.54828 3.40557 0
M  V30 2012 H 187.545 -2.05496 4.4725 0
M  V30 2013 N 189.197 -1.51736 -0.425897 0
M  V30 2014 C 190.422 -1.69082 -1.20108 0
M  V30 2015 C 190.847 -0.392398 -1.83962 0
M  V30 2016 O 190.205 0.64858 -1.69302 0
M  V30 2017 C 190.253 -2.81604 -2.25237 0
M  V30 2018 O 189.357 -2.46004 -3.30992 0
M  V30 2019 H 188.698 -0.563408 -0.35138 0
M  V30 2020 H 191.228 -1.98358 -0.501512 0
M  V30 2021 H 191.238 -3.06025 -2.69838 0
M  V30 2022 H 189.913 -3.75817 -1.78142 0
M  V30 2023 H 188.49 -2.32195 -2.91787 0
M  V30 2024 N 190.675 0.682077 -1.42076 0
M  V30 2025 C 191.952 1.43755 -1.32642 0
M  V30 2026 C 192.332 2.11063 0.0396611 0
M  V30 2027 O 191.68 2.02701 1.05474 0
M  V30 2028 C 191.89 2.44596 -2.48946 0
M  V30 2029 C 193.238 3.09454 -2.9073 0
M  V30 2030 O 194.262 2.54922 -2.48783 0
M  V30 2031 O 193.121 4.08253 -3.63307 0
M  V30 2032 H 190.215 0.640857 -0.522715 0
M  V30 2033 H 192.761 0.711415 -1.54068 0
M  V30 2034 H 191.533 1.93609 -3.40046 0
M  V30 2035 H 191.156 3.24701 -2.29467 0
M  V30 2036 N 192.153 1.28127 0.917671 0
M  V30 2037 C 193.101 1.11569 2.04096 0
M  V30 2038 C 194.095 0.0360242 1.69362 0
M  V30 2039 O 195.301 0.194501 1.78946 0
M  V30 2040 H 191.676 0.344097 0.668656 0
M  V30 2041 H 193.647 2.06711 2.15205 0
M  V30 2042 C 192.396 0.790197 3.38602 0
M  V30 2043 H 191.719 1.61293 3.6582 0
M  V30 2044 H 193.159 0.714271 4.1794 0
M  V30 2045 C 191.618 -0.505897 3.3308 0
M  V30 2046 O 192.148 -1.53736 3.71117 0
M  V30 2047 N 190.354 -0.505193 2.86175 0
M  V30 2048 H 189.901 0.334621 2.55417 0
M  V30 2049 H 189.859 -1.37243 2.82863 0
M  V30 2050 N 193.631 -1.12557 1.10312 0
M  V30 2051 C 194.908 -1.80363 0.756878 0
M  V30 2052 C 195.288 -1.97067 -0.756824 0
M  V30 2053 O 194.636 -1.54601 -1.68259 0
M  V30 2054 C 194.846 -3.14812 1.50647 0
M  V30 2055 C 196.194 -3.90029 1.67817 0
M  V30 2056 O 197.218 -3.24464 1.46974 0
M  V30 2057 O 196.077 -5.07652 2.02365 0
M  V30 2058 H 193.171 -0.780667 0.272926 0
M  V30 2059 H 195.717 -1.19404 1.20586 0
M  V30 2060 H 194.489 -2.97936 2.53672 0
M  V30 2061 H 194.112 -3.83478 1.05026 0
M  V30 2062 N 195.109 -0.891671 -1.2995 0
M  V30 2063 C 196.056 -0.361736 -2.27948 0
M  V30 2064 C 197.026 0.551761 -1.56668 0
M  V30 2065 O 198.211 0.478736 -1.84696 0
M  V30 2066 C 195.351 0.411825 -3.42634 0
M  V30 2067 C 194.464 -0.531651 -4.28716 0
M  V30 2068 C 193.599 0.258167 -5.30572 0
M  V30 2069 C 192.638 -0.680349 -6.08307 0
M  V30 2070 N 191.775 0.0745613 -7.0206 0
M  V30 2071 H 196.615 -1.20254 -2.72659 0
M  V30 2072 H 194.152 -0.604352 -1.34112 0
M  V30 2073 H 196.11 0.876304 -4.07893 0
M  V30 2074 H 194.74 1.21715 -2.98974 0
M  V30 2075 H 193.792 -1.11463 -3.63703 0
M  V30 2076 H 195.104 -1.25038 -4.82874 0
M  V30 2077 H 194.258 0.784204 -6.0161 0
M  V30 2078 H 192.997 1.01008 -4.77126 0
M  V30 2079 H 192.002 -1.21796 -5.3614 0
M  V30 2080 H 193.227 -1.43145 -6.63842 0
M  V30 2081 H 191.173 0.808883 -6.50994 0
M  V30 2082 H 191.09 -0.584409 -7.53738 0
M  V30 2083 H 192.358 0.581123 -7.77331 0
M  V30 2084 N 196.587 1.43421 -0.653314 0
M  V30 2085 C 197.497 2.34568 0.0388565 0
M  V30 2086 C 198.513 1.53888 0.81207 0
M  V30 2087 O 199.689 1.86539 0.759294 0
M  V30 2088 C 196.754 3.32167 0.993269 0
M  V30 2089 C 195.815 4.28751 0.216977 0
M  V30 2090 C 195.048 5.21688 1.12593 0
M  V30 2091 O 195.271 5.19052 2.36519 0
M  V30 2092 O 194.205 5.98919 0.598284 0
M  V30 2093 H 198.031 2.95251 -0.711386 0
M  V30 2094 H 195.616 1.43564 -0.413502 0
M  V30 2095 H 197.498 3.92183 1.54176 0
M  V30 2096 H 196.173 2.73987 1.72374 0
M  V30 2097 H 195.08 3.72215 -0.375101 0
M  V30 2098 H 196.413 4.89913 -0.473924 0
M  V30 2099 N 198.065 0.39524 1.52563 0
M  V30 2100 C 199.481 0.0454682 1.59535 0
M  V30 2101 C 199.681 -1.44056 1.4089 0
M  V30 2102 O 198.737 -2.20579 1.22888 0
M  V30 2103 C 200.05 0.527963 2.96029 0
M  V30 2104 C 201.598 0.484733 3.09224 0
M  V30 2105 C 202.073 0.943512 4.48176 0
M  V30 2106 N 203.564 0.899765 4.54377 0
M  V30 2107 C 204.299 1.22609 5.60138 0
M  V30 2108 N 203.795 1.62319 6.73516 0
M  V30 2109 N 205.588 1.14696 5.50274 0
M  V30 2110 H 197.739 1.36261 1.62931 0
M  V30 2111 H 200.002 0.558887 0.765735 0
M  V30 2112 H 199.708 1.56607 3.14908 0
M  V30 2113 H 199.582 -0.0698056 3.77135 0
M  V30 2114 H 201.969 -0.544298 2.90037 0
M  V30 2115 H 202.05 1.11838 2.30056 0
M  V30 2116 H 201.694 1.9708 4.68104 0
M  V30 2117 H 201.624 0.286817 5.25818 0
M  V30 2118 H 204.115 0.607632 3.72983 0
M  V30 2119 H 204.428 1.85567 7.5019 0
M  V30 2120 H 202.773 1.66211 6.74833 0
M  V30 2121 H 205.964 0.835701 4.6058 0
M  V30 2122 H 206.137 1.40459 6.32594 0
M  V30 2123 N 199.544 -1.57102 0.125237 0
M  V30 2124 C 200.791 -1.95407 -0.531248 0
M  V30 2125 C 201.119 -1.0089 -1.66287 0
M  V30 2126 O 200.374 -0.0339431 -1.95671 0
M  V30 2127 C 200.673 -3.40096 -1.09862 0
M  V30 2128 C 200.339 -4.50815 -0.0876989 0
M  V30 2129 C 199.001 -4.80824 0.19026 0
M  V30 2130 C 201.353 -5.17724 0.600902 0
M  V30 2131 C 198.681 -5.75058 1.163 0
M  V30 2132 C 201.033 -6.13005 1.56231 0
M  V30 2133 C 199.697 -6.41403 1.8482 0
M  V30 2134 H 198.967 -0.715046 -0.194397 0
M  V30 2135 H 201.614 -1.90373 0.207463 0
M  V30 2136 H 199.919 -3.41855 -1.91422 0
M  V30 2137 H 201.616 -3.6705 -1.61478 0
M  V30 2138 H 198.206 -4.27444 -0.314528 0
M  V30 2139 H 202.39 -4.94691 0.399333 0
M  V30 2140 H 197.646 -5.95362 1.39117 0
M  V30 2141 H 201.82 -6.63934 2.10153 0
M  V30 2142 H 199.447 -7.14229 2.60349 0
M  V30 2143 N 201.022 0.148545 -1.56898 0
M  V30 2144 C 202.271 0.85984 -1.82454 0
M  V30 2145 C 202.584 1.82406 -0.706229 0
M  V30 2146 O 203.79 2.57938 -0.847349 0
M  V30 2147 C 202.246 1.57967 -3.2338 0
M  V30 2148 C 201.854 0.65794 -4.43142 0
M  V30 2149 C 203.598 2.27784 -3.58211 0
M  V30 2150 C 201.505 1.3793 -5.75091 0
M  V30 2151 H 200.435 0.324834 -0.68044 0
M  V30 2152 H 203.086 0.112588 -1.83154 0
M  V30 2153 H 201.468 2.37249 -3.17063 0
M  V30 2154 H 202.642 -0.0995497 -4.60692 0
M  V30 2155 H 200.957 0.0682643 -4.16344 0
M  V30 2156 H 203.554 2.8239 -4.54048 0
M  V30 2157 H 203.897 3.04204 -2.84193 0
M  V30 2158 H 204.43 1.55421 -3.66182 0
M  V30 2159 H 201.169 0.656982 -6.52199 0
M  V30 2160 H 200.689 2.10954 -5.61479 0
M  V30 2161 H 202.368 1.92063 -6.17835 0
M  V30 2162 N 202.5 1.5196 0.417844 0
M  V30 2163 C 203.916 1.40569 0.755816 0
M  V30 2164 C 204.116 0.503316 1.95113 0
M  V30 2165 O 203.172 -0.0341925 2.52477 0
M  V30 2166 C 204.485 2.82947 1.01791 0
M  V30 2167 C 206.033 2.92231 1.12116 0
M  V30 2168 C 206.508 4.35559 1.41608 0
M  V30 2169 N 207.999 4.38753 1.48491 0
M  V30 2170 C 208.734 5.46705 1.7292 0
M  V30 2171 N 208.23 6.64788 1.95011 0
M  V30 2172 N 210.023 5.34209 1.74863 0
M  V30 2173 H 202.174 2.09168 -0.369098 0
M  V30 2174 H 204.437 0.942409 -0.102809 0
M  V30 2175 H 204.143 3.5106 0.212081 0
M  V30 2176 H 204.017 3.23462 1.94042 0
M  V30 2177 H 206.404 2.24304 1.9176 0
M  V30 2178 H 206.485 2.55185 0.177225 0
M  V30 2179 H 206.129 5.04042 0.624848 0
M  V30 2180 H 206.059 4.70133 2.37239 0
M  V30 2181 H 208.55 3.5363 1.33244 0
M  V30 2182 H 208.863 7.42845 2.13076 0
M  V30 2183 H 207.208 6.67869 1.92293 0
M  V30 2184 H 210.399 4.40937 1.57137 0
M  V30 2185 H 210.572 6.18415 1.93563 0
M  V30 2186 N 203.978 -0.674533 1.42435 0
M  V30 2187 C 204.888 -1.81751 1.48337 0
M  V30 2188 C 205.904 -1.69975 0.372099 0
M  V30 2189 O 207.08 -1.91521 0.62304 0
M  V30 2190 C 204.145 -3.17895 1.38361 0
M  V30 2191 C 203.206 -3.41625 2.59982 0
M  V30 2192 C 202.439 -4.71274 2.50473 0
M  V30 2193 O 202.662 -5.49197 1.54075 0
M  V30 2194 O 201.596 -4.96254 3.4061 0
M  V30 2195 H 205.422 -1.79728 2.44809 0
M  V30 2196 H 203.007 -0.830312 1.24202 0
M  V30 2197 H 204.889 -3.99136 1.35161 0
M  V30 2198 H 203.564 -3.20555 0.450144 0
M  V30 2199 H 202.471 -2.60231 2.68757 0
M  V30 2200 H 203.804 -3.43796 3.52229 0
M  V30 2201 N 205.456 -1.28612 -0.910864 0
M  V30 2202 C 206.404 -1.1265 -2.03501 0
M  V30 2203 C 207.398 -0.0450054 -1.6934 0
M  V30 2204 O 208.604 -0.203988 -1.7884 0
M  V30 2205 H 204.979 -0.347639 -0.666822 0
M  V30 2206 H 206.95 -2.07849 -2.14106 0
M  V30 2207 C 205.699 -0.808143 -3.38178 0
M  V30 2208 H 205.022 -1.63231 -3.6496 0
M  V30 2209 H 206.462 -0.736426 -4.17556 0
M  V30 2210 C 204.921 0.488226 -3.33344 0
M  V30 2211 O 205.451 1.51766 -3.71927 0
M  V30 2212 N 203.657 0.490009 -2.86439 0
M  V30 2213 H 203.204 -0.348161 -2.55236 0
M  V30 2214 H 203.162 1.35741 -2.83587 0
M  V30 2215 N 206.934 1.1197 -1.10907 0
M  V30 2216 C 207.866 2.17592 -0.720175 0
M  V30 2217 C 208.879 1.60938 0.245495 0
M  V30 2218 O 210.068 1.78476 0.0292245 0
M  V30 2219 C 207.168 3.38873 -0.0427917 0
M  V30 2220 C 206.341 4.25006 -1.03388 0
M  V30 2221 C 205.4 5.24774 -0.387075 0
M  V30 2222 O 204.426 5.59631 -1.03934 0
M  V30 2223 N 205.628 5.74208 0.852407 0
M  V30 2224 H 208.393 2.51567 -1.62893 0
M  V30 2225 H 205.954 1.27439 -0.998543 0
M  V30 2226 H 207.946 4.02703 0.401501 0
M  V30 2227 H 206.516 3.03007 0.768456 0
M  V30 2228 H 205.736 3.57716 -1.65629 0
M  V30 2229 H 207.024 4.79397 -1.70458 0
M  V30 2230 H 206.422 5.48062 1.40161 0
M  V30 2231 H 204.979 6.39901 1.23977 0
M  V30 2232 N 208.412 0.89855 1.29475 0
M  V30 2233 C 209.659 0.523882 1.95606 0
M  V30 2234 C 209.987 -0.929608 1.70847 0
M  V30 2235 O 209.242 -1.67401 1.01367 0
M  V30 2236 C 209.541 0.761398 3.49195 0
M  V30 2237 C 209.207 2.19207 3.94029 0
M  V30 2238 C 207.869 2.58326 4.05982 0
M  V30 2239 C 210.221 3.12379 4.17216 0
M  V30 2240 C 207.549 3.898 4.38489 0
M  V30 2241 C 209.901 4.43401 4.51197 0
M  V30 2242 C 208.565 4.82394 4.61359 0
M  V30 2243 H 207.835 0.191702 0.715773 0
M  V30 2244 H 210.482 1.13699 1.54094 0
M  V30 2245 H 208.787 0.0653622 3.91745 0
M  V30 2246 H 210.484 0.450904 3.98457 0
M  V30 2247 H 207.074 1.87846 3.85242 0
M  V30 2248 H 211.258 2.83371 4.07449 0
M  V30 2249 H 206.514 4.19734 4.44559 0
M  V30 2250 H 210.688 5.15623 4.68087 0
M  V30 2251 H 208.315 5.84306 4.86303 0
M  V30 2252 N 209.89 -1.43072 0.660911 0
M  V30 2253 C 211.136 -2.0202 0.177708 0
M  V30 2254 C 211.469 -1.52066 -1.20787 0
M  V30 2255 O 210.744 -0.716987 -1.80802 0
M  V30 2256 C 211.027 -3.59561 0.197019 0
M  V30 2257 C 210.88 -4.19727 1.61706 0
M  V30 2258 C 212.199 -4.37664 -0.462396 0
M  V30 2259 H 209.318 -0.734034 0.0660494 0
M  V30 2260 H 211.96 -1.70272 0.843058 0
M  V30 2261 H 210.11 -3.86739 -0.369527 0
M  V30 2262 H 211.782 -4.03553 2.23479 0
M  V30 2263 H 210.025 -3.76084 2.16201 0
M  V30 2264 H 210.696 -5.28834 1.58237 0
M  V30 2265 H 213.172 -4.16095 0.0197215 0
M  V30 2266 H 212.048 -5.47305 -0.418188 0
M  V30 2267 H 212.309 -4.14493 -1.53778 0
M  V30 2268 N 211.368 -0.403325 -1.52352 0
M  V30 2269 C 212.315 0.425011 -2.26853 0
M  V30 2270 C 213.285 1.04598 -1.29029 0
M  V30 2271 O 214.47 1.07135 -1.57882 0
M  V30 2272 C 211.61 1.53888 -3.08889 0
M  V30 2273 C 210.723 0.939396 -4.21663 0
M  V30 2274 C 209.858 2.02547 -4.91068 0
M  V30 2275 C 208.897 1.40263 -5.95813 0
M  V30 2276 N 208.034 2.4286 -6.58759 0
M  V30 2277 H 212.874 -0.21674 -2.97211 0
M  V30 2278 H 210.411 -0.118722 -1.4662 0
M  V30 2279 H 212.369 2.19558 -3.54753 0
M  V30 2280 H 210.999 2.15074 -2.40714 0
M  V30 2281 H 210.051 0.171898 -3.80011 0
M  V30 2282 H 211.363 0.44436 -4.96817 0
M  V30 2283 H 210.517 2.75958 -5.40308 0
M  V30 2284 H 209.256 2.55415 -4.15469 0
M  V30 2285 H 208.261 0.653833 -5.45898 0
M  V30 2286 H 209.486 0.881719 -6.73352 0
M  V30 2287 H 207.432 2.94871 -5.85992 0
M  V30 2288 H 207.349 1.98152 -7.2957 0
M  V30 2289 H 208.617 3.15858 -7.12639 0
M  V30 2290 N 212.846 1.57033 -0.133567 0
M  V30 2291 C 214.095 1.94861 0.520768 0
M  V30 2292 C 214.408 1.02012 1.66892 0
M  V30 2293 O 215.614 1.29365 2.38699 0
M  V30 2294 C 214.07 3.46362 0.977809 0
M  V30 2295 C 213.678 4.47773 -0.142674 0
M  V30 2296 C 215.422 3.93083 1.60269 0
M  V30 2297 C 213.329 5.90468 0.331883 0
M  V30 2298 H 212.259 0.727453 0.198315 0
M  V30 2299 H 214.91 1.82227 -0.215759 0
M  V30 2300 H 213.292 3.54282 1.7692 0
M  V30 2301 H 214.466 4.51536 -0.919317 0
M  V30 2302 H 212.781 4.10891 -0.675124 0
M  V30 2303 H 215.378 4.97121 1.96914 0
M  V30 2304 H 215.721 3.33876 2.48662 0
M  V30 2305 H 216.254 3.88025 0.876453 0
M  V30 2306 H 212.993 6.53463 -0.516341 0
M  V30 2307 H 212.513 5.90094 1.07469 0
M  V30 2308 H 214.192 6.42179 0.788332 0
M  V30 2309 N 214.325 -0.140222 1.56975 0
M  V30 2310 C 215.602 -0.880769 1.74648 0
M  V30 2311 C 215.982 -1.99036 0.703404 0
M  V30 2312 O 215.33 -2.26821 -0.27648 0
M  V30 2313 C 215.54 -1.417 3.18939 0
M  V30 2314 C 216.888 -1.87774 3.80823 0
M  V30 2315 O 217.912 -1.51427 3.2241 0
M  V30 2316 O 216.771 -2.54827 4.83452 0
M  V30 2317 H 213.865 -0.416713 0.714338 0
M  V30 2318 H 216.411 -0.125618 1.69234 0
M  V30 2319 H 215.183 -0.619902 3.86359 0
M  V30 2320 H 214.806 -2.23546 3.28805 0
M  V30 2321 N 215.803 -1.52179 -0.40978 0
M  V30 2322 C 217.031 -1.70054 -1.17853 0
M  V30 2323 C 217.446 -0.409735 -1.843 0
M  V30 2324 O 216.803 0.614183 -1.71855 0
M  V30 2325 C 216.854 -2.83568 -2.24213 0
M  V30 2326 O 216.575 -4.0765 -1.60478 0
M  V30 2327 C 218.076 -3.12947 -3.13973 0
M  V30 2328 H 215.296 -0.569917 -0.354169 0
M  V30 2329 H 217.84 -1.98734 -0.482198 0
M  V30 2330 H 215.995 -2.57409 -2.89516 0
M  V30 2331 H 216.409 -4.70899 -2.30986 0
M  V30 2332 H 217.883 -3.95889 -3.84677 0
M  V30 2333 H 218.36 -2.26472 -3.76307 0
M  V30 2334 H 218.966 -3.40868 -2.5434 0
M  V30 2335 N 217.281 0.66697 -1.42791 0
M  V30 2336 C 218.53 1.42278 -1.42968 0
M  V30 2337 C 218.843 1.9553 -0.0524489 0
M  V30 2338 O 220.049 2.71414 0.068363 0
M  V30 2339 C 218.505 2.57418 -2.51524 0
M  V30 2340 C 218.113 2.10832 -3.9529 0
M  V30 2341 C 219.857 3.34878 -2.60877 0
M  V30 2342 C 217.764 3.23101 -4.95338 0
M  V30 2343 H 216.694 0.534533 -0.531781 0
M  V30 2344 H 219.345 0.721302 -1.68729 0
M  V30 2345 H 217.727 3.29971 -2.18941 0
M  V30 2346 H 218.901 1.4538 -4.37266 0
M  V30 2347 H 217.216 1.46289 -3.89857 0
M  V30 2348 H 219.813 4.18505 -3.32802 0
M  V30 2349 H 220.156 3.81993 -1.6549 0
M  V30 2350 H 220.689 2.69398 -2.92693 0
M  V30 2351 H 217.428 2.80969 -5.9223 0
M  V30 2352 H 216.948 3.87309 -4.57987 0
M  V30 2353 H 218.627 3.88447 -5.17415 0
M  V30 2354 N 218.759 1.29093 0.90403 0
M  V30 2355 C 219.722 1.1386 1.98919 0
M  V30 2356 C 220.722 0.0753457 1.60623 0
M  V30 2357 O 221.912 0.321931 1.71199 0
M  V30 2358 C 219.044 0.740198 3.32767 0
M  V30 2359 H 220.237 2.10246 2.13861 0
M  V30 2360 H 217.79 1.12218 1.08797 0
M  V30 2361 H 218.525 -0.223997 3.23525 0
M  V30 2362 H 218.31 1.50838 3.61926 0
M  V30 2363 H 219.8 0.656546 4.12407 0
M  V30 2364 N 220.237 -1.11381 1.11499 0
M  V30 2365 C 221.2 -2.15622 0.777153 0
M  V30 2366 C 222.2 -1.59504 -0.203779 0
M  V30 2367 O 223.39 -1.74188 0.020782 0
M  V30 2368 C 220.522 -3.40556 0.153116 0
M  V30 2369 H 221.715 -2.47021 1.70061 0
M  V30 2370 H 219.268 -1.26577 0.916952 0
M  V30 2371 H 220.003 -3.14767 -0.780536 0
M  V30 2372 H 219.788 -3.8257 0.859238 0
M  V30 2373 H 221.278 -4.17546 -0.0671044 0
M  V30 2374 N 221.715 -0.905404 -1.28997 0
M  V30 2375 C 222.992 -0.453513 -1.9027 0
M  V30 2376 C 223.372 1.06721 -1.82137 0
M  V30 2377 O 222.72 1.91159 -1.25182 0
M  V30 2378 C 222.93 -0.974494 -3.35119 0
M  V30 2379 C 224.278 -1.0216 -4.12127 0
M  V30 2380 O 225.302 -0.922557 -3.44046 0
M  V30 2381 O 224.161 -1.17121 -5.33802 0
M  V30 2382 H 221.255 -0.142347 -0.814657 0
M  V30 2383 H 223.801 -0.995642 -1.37423 0
M  V30 2384 H 222.573 -2.01848 -3.35221 0
M  V30 2385 H 222.196 -0.412706 -3.95452 0
M  V30 2386 N 223.193 1.4272 -0.668489 0
M  V30 2387 C 224.103 2.34596 0.0139753 0
M  V30 2388 C 225.119 1.5474 0.795703 0
M  V30 2389 O 226.295 1.87334 0.739466 0
M  V30 2390 C 223.36 3.33202 0.957982 0
M  V30 2391 C 222.421 4.28957 0.17149 0
M  V30 2392 C 221.654 5.22853 1.07053 0
M  V30 2393 O 221.877 5.21531 2.31001 0
M  V30 2394 O 220.811 5.9952 0.534727 0
M  V30 2395 H 224.637 2.9448 -0.742661 0
M  V30 2396 H 222.222 1.43117 -0.428705 0
M  V30 2397 H 224.104 3.93796 1.50008 0
M  V30 2398 H 222.779 2.758 1.69458 0
M  V30 2399 H 221.686 3.71796 -0.414558 0
M  V30 2400 H 223.019 4.89383 -0.52586 0
M  V30 2401 N 224.671 0.411399 1.52136 0
M  V30 2402 C 225.896 -0.165538 2.06738 0
M  V30 2403 C 226.321 -1.379 1.27926 0
M  V30 2404 O 225.679 -1.78628 0.310114 0
M  V30 2405 C 225.727 -0.492124 3.57226 0
M  V30 2406 O 224.831 -1.58276 3.80818 0
M  V30 2407 H 224.172 -0.0132132 0.663869 0
M  V30 2408 H 226.702 0.585253 1.96051 0
M  V30 2409 H 226.712 -0.750104 4.01045 0
M  V30 2410 H 225.387 0.394922 4.14021 0
M  V30 2411 H 223.964 -1.31677 3.48877 0
M  V30 2412 N 226.149 -1.5696 0.141893 0
M  V30 2413 C 227.396 -1.9596 -0.510492 0
M  V30 2414 C 227.724 -1.02648 -1.65208 0
M  V30 2415 O 226.979 -0.0546947 -1.95624 0
M  V30 2416 C 227.278 -3.41242 -1.06249 0
M  V30 2417 C 226.944 -4.50882 -0.0398791 0
M  V30 2418 C 225.606 -4.80595 0.241247 0
M  V30 2419 C 227.958 -5.17058 0.65578 0
M  V30 2420 C 225.286 -5.73792 1.22393 0
M  V30 2421 C 227.638 -6.11313 1.62724 0
M  V30 2422 C 226.302 -6.39407 1.91612 0
M  V30 2423 H 225.572 -0.717068 -0.186802 0
M  V30 2424 H 228.219 -1.90142 0.227643 0
M  V30 2425 H 226.524 -3.43866 -1.87785 0
M  V30 2426 H 228.221 -3.68742 -1.57576 0
M  V30 2427 H 224.811 -4.27754 -0.269174 0
M  V30 2428 H 228.995 -4.94239 0.451779 0
M  V30 2429 H 224.251 -5.93853 1.45424 0
M  V30 2430 H 228.425 -6.61668 2.17183 0
M  V30 2431 H 226.052 -7.11427 2.6791 0
M  V30 2432 N 227.627 0.131896 -1.57047 0
M  V30 2433 C 228.855 0.856461 -1.88341 0
M  V30 2434 C 229.27 1.74042 -0.731757 0
M  V30 2435 O 228.627 1.80051 0.297945 0
M  V30 2436 C 228.678 1.70064 -3.18999 0
M  V30 2437 O 228.399 0.852278 -4.2973 0
M  V30 2438 C 229.9 2.53148 -3.63911 0
M  V30 2439 H 227.12 0.246885 -0.62393 0
M  V30 2440 H 229.664 0.120152 -2.04147 0
M  V30 2441 H 227.819 2.38984 -3.04902 0
M  V30 2442 H 228.233 1.43329 -5.04537 0
M  V30 2443 H 229.707 3.07931 -4.58129 0
M  V30 2444 H 230.184 3.29901 -2.89935 0
M  V30 2445 H 230.79 1.89492 -3.80753 0
M  V30 2446 N 229.106 1.52395 0.401703 0
M  V30 2447 C 230.038 1.72505 1.50912 0
M  V30 2448 C 231.051 0.605468 1.51122 0
M  V30 2449 O 232.24 0.880828 1.55254 0
M  V30 2450 C 229.34 1.75711 2.89791 0
M  V30 2451 C 228.513 3.04824 3.1369 0
M  V30 2452 C 227.572 2.99743 4.32482 0
M  V30 2453 O 226.598 3.73635 4.29402 0
M  V30 2454 N 227.8 2.18047 5.37992 0
M  V30 2455 H 230.565 2.68049 1.34052 0
M  V30 2456 H 228.126 1.50724 0.591084 0
M  V30 2457 H 230.118 1.69834 3.6734 0
M  V30 2458 H 228.688 0.876092 3.00072 0
M  V30 2459 H 227.908 3.2429 2.24119 0
M  V30 2460 H 229.196 3.90221 3.26504 0
M  V30 2461 H 228.594 1.57456 5.43345 0
M  V30 2462 H 227.151 2.18021 6.14256 0
M  V30 2463 N 230.584 -0.659388 1.43143 0
M  V30 2464 C 231.83 -1.42145 1.44647 0
M  V30 2465 C 232.163 -1.9408 0.0681907 0
M  V30 2466 O 231.438 -1.71899 -0.910007 0
M  V30 2467 C 231.721 -2.60735 2.48373 0
M  V30 2468 C 231.574 -2.14332 3.95451 0
M  V30 2469 C 232.893 -3.62951 2.48906 0
M  V30 2470 H 230.012 -0.51552 0.526696 0
M  V30 2471 H 232.654 -0.748069 1.74654 0
M  V30 2472 H 230.804 -3.18184 2.22916 0
M  V30 2473 H 232.476 -1.61932 4.31944 0
M  V30 2474 H 230.719 -1.4576 4.08578 0
M  V30 2475 H 231.39 -2.99583 4.63631 0
M  V30 2476 H 233.866 -3.1525 2.71582 0
M  V30 2477 H 232.742 -4.43487 3.23435 0
M  V30 2478 H 233.003 -4.15126 1.52061 0
M  V30 2479 N 232.062 -1.29571 -0.897171 0
M  V30 2480 C 233.339 -1.08365 -1.62839 0
M  V30 2481 C 233.719 0.371331 -2.07808 0
M  V30 2482 O 233.067 1.3606 -1.83576 0
M  V30 2483 C 233.277 -2.0735 -2.80726 0
M  V30 2484 C 234.625 -2.38406 -3.51351 0
M  V30 2485 O 235.649 -2.05564 -2.90898 0
M  V30 2486 O 234.508 -2.9453 -4.60341 0
M  V30 2487 H 231.602 -0.415345 -0.715134 0
M  V30 2488 H 234.148 -1.40952 -0.945018 0
M  V30 2489 H 232.92 -3.05339 -2.44711 0
M  V30 2490 H 232.543 -1.75507 -3.56767 0
M  V30 2491 N 233.54 1.10788 -1.12088 0
M  V30 2492 C 234.789 1.82036 -0.868659 0
M  V30 2493 C 235.102 1.85929 0.607426 0
M  V30 2494 O 236.308 2.53346 0.97613 0
M  V30 2495 C 234.764 3.26951 -1.50435 0
M  V30 2496 C 234.372 3.31367 -3.01496 0
M  V30 2497 C 236.116 4.03053 -1.33225 0
M  V30 2498 C 234.023 4.7072 -3.58017 0
M  V30 2499 H 232.953 0.682108 -0.321318 0
M  V30 2500 H 235.604 1.24618 -1.34694 0
M  V30 2501 H 233.986 3.84343 -0.953735 0
M  V30 2502 H 235.16 2.83819 -3.6302 0
M  V30 2503 H 233.475 2.6875 -3.18061 0
M  V30 2504 H 236.072 5.05981 -1.72878 0
M  V30 2505 H 236.415 4.15387 -0.275529 0
M  V30 2506 H 236.948 3.52066 -1.85188 0
M  V30 2507 H 233.687 4.63585 -4.63432 0
M  V30 2508 H 233.207 5.1865 -3.01268 0
M  V30 2509 H 234.886 5.39685 -3.56859 0
M  V30 2510 N 235.018 0.912232 1.28515 0
M  V30 2511 C 236.266 0.543523 1.94654 0
M  V30 2512 C 236.587 -0.9155 1.72173 0
M  V30 2513 O 235.857 -1.64708 1.06058 0
M  V30 2514 H 234.437 0.198017 0.720277 0
M  V30 2515 H 237.099 1.16126 1.56527 0
M  V30 2516 H 236.195 0.736684 3.03281 0
M  V30 2517 N 236.496 -1.42363 0.676048 0
M  V30 2518 C 237.773 -1.95183 0.127726 0
M  V30 2519 C 238.153 -1.61641 -1.35777 0
M  V30 2520 O 237.501 -0.913216 -2.09458 0
M  V30 2521 C 237.711 -3.46721 0.398199 0
M  V30 2522 C 239.059 -4.23427 0.315383 0
M  V30 2523 O 240.083 -3.54649 0.332016 0
M  V30 2524 O 238.942 -5.45888 0.25865 0
M  V30 2525 H 236.036 -0.826992 0.00359427 0
M  V30 2526 H 238.582 -1.52184 0.750864 0
M  V30 2527 H 237.354 -3.64344 1.4272 0
M  V30 2528 H 236.977 -3.96769 -0.256885 0
M  V30 2529 N 237.974 -0.419461 -1.51915 0
M  V30 2530 C 239.39 -0.0708431 -1.59443 0
M  V30 2531 C 239.59 1.41796 -1.43164 0
M  V30 2532 O 238.646 2.18596 -1.26381 0
M  V30 2533 C 239.959 -0.574991 -2.95151 0
M  V30 2534 C 241.507 -0.533867 -3.08413 0
M  V30 2535 C 241.982 -1.01469 -4.46618 0
M  V30 2536 N 243.473 -0.971939 -4.52888 0
M  V30 2537 C 244.208 -1.31505 -5.58116 0
M  V30 2538 N 243.704 -1.73014 -6.70849 0
M  V30 2539 N 245.497 -1.23436 -5.48379 0
M  V30 2540 H 237.648 -1.38836 -1.60743 0
M  V30 2541 H 239.911 -0.570998 -0.756747 0
M  V30 2542 H 239.617 -1.61597 -3.12377 0
M  V30 2543 H 239.491 0.00979777 -3.77199 0
M  V30 2544 H 241.878 0.498086 -2.90866 0
M  V30 2545 H 241.959 -1.15484 -2.28248 0
M  V30 2546 H 241.603 -2.04502 -4.6491 0
M  V30 2547 H 241.533 -0.370433 -5.25295 0
M  V30 2548 H 244.024 -0.666893 -3.71969 0
M  V30 2549 H 244.337 -1.97479 -7.47143 0
M  V30 2550 H 242.682 -1.76926 -6.72103 0
M  V30 2551 H 245.873 -0.908869 -4.59192 0
M  V30 2552 H 246.046 -1.50506 -6.30279 0
M  V30 2553 N 239.452 1.56882 -0.150215 0
M  V30 2554 C 240.701 1.95403 0.500071 0
M  V30 2555 C 241.014 1.03777 1.658 0
M  V30 2556 O 242.22 1.31889 2.37313 0
M  V30 2557 C 240.676 3.4738 0.941018 0
M  V30 2558 C 240.284 4.47596 -0.190158 0
M  V30 2559 C 242.028 3.9476 1.56091 0
M  V30 2560 C 239.935 5.90787 0.269237 0
M  V30 2561 H 238.865 0.729515 0.190588 0
M  V30 2562 H 241.516 1.81988 -0.235074 0
M  V30 2563 H 239.898 3.56138 1.73152 0
M  V30 2564 H 241.072 4.50536 -0.967157 0
M  V30 2565 H 239.387 4.10151 -0.718666 0
M  V30 2566 H 241.984 4.99181 1.9163 0
M  V30 2567 H 242.327 3.36494 2.45107 0
M  V30 2568 H 242.86 3.88932 0.835249 0
M  V30 2569 H 239.599 6.52879 -0.585621 0
M  V30 2570 H 239.119 5.912 1.01204 0
M  V30 2571 H 240.798 6.42979 0.720176 0
M  V30 2572 N 240.93 -0.123565 1.57115 0
M  V30 2573 C 241.863 -1.18202 1.95201 0
M  V30 2574 C 242.841 -1.40349 0.821031 0
M  V30 2575 O 244.025 -1.54578 1.07879 0
M  V30 2576 C 241.152 -2.53671 2.24429 0
M  V30 2577 C 240.198 -2.4798 3.46999 0
M  V30 2578 S 241.031 -1.92389 4.99747 0
M  V30 2579 C 242.187 -3.2954 5.32123 0
M  V30 2580 H 242.42 -0.857212 2.84674 0
M  V30 2581 H 239.953 -0.33014 1.50829 0
M  V30 2582 H 241.911 -3.3162 2.41947 0
M  V30 2583 H 240.572 -2.83332 1.35579 0
M  V30 2584 H 239.765 -3.47758 3.64801 0
M  V30 2585 H 239.367 -1.7815 3.28844 0
M  V30 2586 H 241.659 -4.25736 5.27025 0
M  V30 2587 H 242.602 -3.16569 6.33395 0
M  V30 2588 H 243.01 -3.27758 4.59603 0
M  V30 2589 N 242.408 -1.52605 -0.393616 0
M  V30 2590 C 243.355 -1.77055 -1.48054 0
M  V30 2591 C 244.325 -0.61358 -1.54352 0
M  V30 2592 O 245.51 -0.852806 -1.70681 0
M  V30 2593 C 242.65 -1.94108 -2.85335 0
M  V30 2594 C 241.763 -3.21792 -2.88226 0
M  V30 2595 C 240.898 -3.29188 -4.16904 0
M  V30 2596 C 239.937 -4.51013 -4.13828 0
M  V30 2597 N 239.074 -4.55716 -5.34105 0
M  V30 2598 H 243.914 -2.69815 -1.26506 0
M  V30 2599 H 241.451 -1.33683 -0.61379 0
M  V30 2600 H 243.409 -2.01979 -3.65049 0
M  V30 2601 H 242.039 -1.04713 -3.05344 0
M  V30 2602 H 241.091 -3.23015 -2.00911 0
M  V30 2603 H 242.403 -4.11557 -2.8182 0
M  V30 2604 H 241.557 -3.36216 -5.05018 0
M  V30 2605 H 240.296 -2.37389 -4.26026 0
M  V30 2606 H 239.301 -4.44115 -3.24102 0
M  V30 2607 H 240.526 -5.44123 -4.06333 0
M  V30 2608 H 238.472 -3.66807 -5.43865 0
M  V30 2609 H 238.389 -5.39346 -5.29756 0
M  V30 2610 H 239.657 -4.66993 -6.2413 0
M  V30 2611 N 243.887 0.651787 -1.4349 0
M  V30 2612 C 244.817 1.77621 -1.51569 0
M  V30 2613 C 245.798 1.66022 -0.370253 0
M  V30 2614 O 246.983 1.85095 -0.587658 0
M  V30 2615 C 244.113 3.16056 -1.43966 0
M  V30 2616 C 243.067 3.4242 -2.56774 0
M  V30 2617 C 242.393 4.8067 -2.34223 0
M  V30 2618 C 243.693 3.37023 -3.99015 0
M  V30 2619 H 245.387 1.71117 -2.45681 0
M  V30 2620 H 242.933 0.821825 -1.18246 0
M  V30 2621 H 244.886 3.94472 -1.48221 0
M  V30 2622 H 243.61 3.23293 -0.463586 0
M  V30 2623 H 242.269 2.66375 -2.51873 0
M  V30 2624 H 241.917 4.84585 -1.34856 0
M  V30 2625 H 241.617 4.9927 -3.09844 0
M  V30 2626 H 243.141 5.61342 -2.40265 0
M  V30 2627 H 244.555 4.05374 -4.05395 0
M  V30 2628 H 242.952 3.67159 -4.74673 0
M  V30 2629 H 244.022 2.3518 -4.2405 0
M  V30 2630 N 245.365 1.30045 0.890287 0
M  V30 2631 C 246.313 1.15873 2.01683 0
M  V30 2632 C 247.307 0.0719403 1.69247 0
M  V30 2633 O 248.513 0.232414 1.78493 0
M  V30 2634 H 244.888 0.358203 0.661207 0
M  V30 2635 H 246.859 2.11229 2.10772 0
M  V30 2636 C 245.608 0.861842 3.36849 0
M  V30 2637 H 244.931 1.69016 3.62317 0
M  V30 2638 H 246.371 0.802762 4.16331 0
M  V30 2639 C 244.83 -0.435132 3.34078 0
M  V30 2640 O 245.36 -1.4583 3.74295 0
M  V30 2641 N 243.566 -0.444377 2.87182 0
M  V30 2642 H 243.113 0.388723 2.5465 0
M  V30 2643 H 243.071 -1.31213 2.85711 0
M  V30 2644 N 246.843 -1.10192 1.12674 0
M  V30 2645 C 248.071 -1.85983 0.906527 0
M  V30 2646 C 248.486 -1.80783 -0.544333 0
M  V30 2647 O 247.843 -1.19834 -1.37645 0
M  V30 2648 C 247.894 -3.34281 1.37618 0
M  V30 2649 O 247.615 -3.39401 2.77017 0
M  V30 2650 C 249.116 -4.26938 1.19325 0
M  V30 2651 H 246.336 -0.587716 0.323775 0
M  V30 2652 H 248.88 -1.39284 1.49734 0
M  V30 2653 H 247.035 -3.78436 0.828539 0
M  V30 2654 H 247.449 -4.31838 2.97684 0
M  V30 2655 H 248.923 -5.29181 1.57071 0
M  V30 2656 H 249.4 -4.38995 0.134097 0
M  V30 2657 H 250.006 -3.8859 1.72852 0
M  V30 2658 N 248.321 -0.919034 -1.28029 0
M  V30 2659 C 249.231 -0.416756 -2.30869 0
M  V30 2660 C 250.247 0.498235 -1.66714 0
M  V30 2661 O 251.423 0.383144 -1.97722 0
M  V30 2662 C 248.488 0.330274 -3.45123 0
M  V30 2663 C 247.549 -0.618578 -4.2482 0
M  V30 2664 C 246.782 0.0928959 -5.33619 0
M  V30 2665 O 247.005 1.31375 -5.55065 0
M  V30 2666 O 245.939 -0.574499 -5.99152 0
M  V30 2667 H 249.765 -1.27043 -2.75851 0
M  V30 2668 H 247.35 -0.684052 -1.3282 0
M  V30 2669 H 249.232 0.751972 -4.14636 0
M  V30 2670 H 247.907 1.1597 -3.02213 0
M  V30 2671 H 246.814 -1.08978 -3.57875 0
M  V30 2672 H 248.147 -1.41497 -4.71423 0
M  V30 2673 N 249.799 1.42003 -0.683588 0
M  V30 2674 C 251.048 2.00638 -0.206681 0
M  V30 2675 C 251.361 1.5472 1.19671 0
M  V30 2676 O 252.567 2.05833 1.77045 0
M  V30 2677 C 251.023 3.58487 -0.318632 0
M  V30 2678 C 250.631 4.1339 -1.72663 0
M  V30 2679 C 252.375 4.24384 0.0991141 0
M  V30 2680 C 250.282 5.63633 -1.79087 0
M  V30 2681 H 249.212 0.750408 -0.0735107 0
M  V30 2682 H 251.863 1.62624 -0.850048 0
M  V30 2683 H 250.245 3.94047 0.392781 0
M  V30 2684 H 251.419 3.89273 -2.46583 0
M  V30 2685 H 249.734 3.59976 -2.09299 0
M  V30 2686 H 252.331 5.34652 0.0713833 0
M  V30 2687 H 252.674 4.00505 1.13586 0
M  V30 2688 H 253.207 3.93816 -0.561599 0
M  V30 2689 H 249.946 5.92323 -2.80774 0
M  V30 2690 H 249.466 5.89714 -1.09535 0
M  V30 2691 H 251.145 6.28201 -1.5483 0
M  V30 2692 N 251.277 0.427512 1.51691 0
M  V30 2693 C 252.693 0.0792977 1.59403 0
M  V30 2694 C 252.893 -1.41035 1.43914 0
M  V30 2695 O 251.949 -2.17922 1.27539 0
M  V30 2696 C 253.262 0.590636 2.94842 0
M  V30 2697 C 254.81 0.550215 3.08126 0
M  V30 2698 C 255.285 1.03836 4.46074 0
M  V30 2699 N 256.776 0.995943 4.52366 0
M  V30 2700 C 257.511 1.34463 5.57411 0
M  V30 2701 N 257.007 1.76569 6.69922 0
M  V30 2702 N 258.8 1.26343 5.47717 0
M  V30 2703 H 250.951 1.39687 1.60004 0
M  V30 2704 H 253.214 0.575003 0.753708 0
M  V30 2705 H 252.92 1.63251 3.11516 0
M  V30 2706 H 252.794 0.0102061 3.77199 0
M  V30 2707 H 255.181 -0.482654 2.91126 0
M  V30 2708 H 255.262 1.16693 2.27632 0
M  V30 2709 H 254.906 2.06965 4.63819 0
M  V30 2710 H 254.836 0.398286 5.25092 0
M  V30 2711 H 257.327 0.68661 3.7161 0
M  V30 2712 H 257.64 2.01438 7.46085 0
M  V30 2713 H 255.985 1.80488 6.71155 0
M  V30 2714 H 259.176 0.933209 4.58703 0
M  V30 2715 H 259.349 1.53846 6.29472 0
M  V30 2716 N 252.755 -1.56801 0.158532 0
M  V30 2717 C 254.032 -1.88131 -0.535357 0
M  V30 2718 C 254.412 -1.06638 -1.82186 0
M  V30 2719 O 253.76 -0.156533 -2.27963 0
M  V30 2720 C 253.97 -3.39949 -0.789653 0
M  V30 2721 C 255.318 -4.09416 -1.12533 0
M  V30 2722 O 256.342 -3.45194 -0.878622 0
M  V30 2723 O 255.201 -5.22855 -1.59014 0
M  V30 2724 H 252.295 -0.780143 -0.27442 0
M  V30 2725 H 254.841 -1.68564 0.19601 0
M  V30 2726 H 253.613 -3.91115 0.120353 0
M  V30 2727 H 253.236 -3.65084 -1.57479 0
M  V30 2728 N 254.233 0.115231 -1.57178 0
M  V30 2729 C 255.479 0.82357 -1.85325 0
M  V30 2730 C 255.812 1.79349 -0.744814 0
M  V30 2731 O 255.087 1.92899 0.249024 0
M  V30 2732 C 255.37 1.57014 -3.24066 0
M  V30 2733 C 255.223 0.619565 -4.45513 0
M  V30 2734 C 256.542 2.52545 -3.60429 0
M  V30 2735 H 253.661 0.297948 -0.674089 0
M  V30 2736 H 256.303 0.0877138 -1.89797 0
M  V30 2737 H 254.453 2.19742 -3.20383 0
M  V30 2738 H 256.125 0.000837639 -4.613 0
M  V30 2739 H 254.368 -0.0686174 -4.33746 0
M  V30 2740 H 255.039 1.17866 -5.3927 0
M  V30 2741 H 257.515 1.9992 -3.64926 0
M  V30 2742 H 256.391 3.01811 -4.58477 0
M  V30 2743 H 256.652 3.35383 -2.88047 0
M  V30 2744 N 255.711 1.52812 0.385517 0
M  V30 2745 C 256.959 1.67694 1.12797 0
M  V30 2746 C 257.28 0.421115 1.90399 0
M  V30 2747 O 256.55 -0.564551 1.87589 0
M  V30 2748 H 255.13 0.618155 0.419396 0
M  V30 2749 H 257.792 1.89938 0.436972 0
M  V30 2750 H 256.888 2.52896 1.82894 0
M  V30 2751 N 257.189 -0.644168 1.43834 0
M  V30 2752 C 258.6 -1.22554 1.40845 0
M  V30 2753 C 258.951 -1.9585 0.117115 0
M  V30 2754 O 258.076 -2.01734 -0.783086 0
M  V30 2755 C 258.671 -2.22907 2.55143 0
M  V30 2756 C 257.23 -2.76501 2.5539 0
M  V30 2757 C 256.377 -1.51287 2.32396 0
M  V30 2758 H 259.328 -0.43563 1.52604 0
M  V30 2759 H 259.349 -3.05259 2.2715 0
M  V30 2760 H 258.861 -1.69533 3.49114 0
M  V30 2761 H 256.962 -3.33914 1.65324 0
M  V30 2762 H 257.075 -3.23429 3.53455 0
M  V30 2763 H 255.439 -1.78957 1.81236 0
M  V30 2764 H 256.222 -0.998336 3.28463 0
M  V30 2765 N 258.668 -1.30515 -0.883378 0
M  V30 2766 C 259.598 -1.19607 -2.00541 0
M  V30 2767 C 260.579 -0.086346 -1.69881 0
M  V30 2768 O 261.764 -0.268654 -1.92333 0
M  V30 2769 C 258.894 -0.888758 -3.35736 0
M  V30 2770 C 257.848 -1.95659 -3.8066 0
M  V30 2771 C 257.174 -1.50224 -5.13164 0
M  V30 2772 C 258.474 -3.36788 -3.99213 0
M  V30 2773 H 260.168 -2.13476 -2.09925 0
M  V30 2774 H 257.714 -1.02775 -1.00863 0
M  V30 2775 H 259.667 -0.799094 -4.13754 0
M  V30 2776 H 258.391 0.0856125 -3.26488 0
M  V30 2777 H 257.05 -2.03591 -3.04871 0
M  V30 2778 H 256.698 -0.516092 -5.00345 0
M  V30 2779 H 256.398 -2.2165 -5.44192 0
M  V30 2780 H 257.922 -1.42639 -5.93706 0
M  V30 2781 H 259.336 -3.31605 -4.67665 0
M  V30 2782 H 257.733 -4.06314 -4.41621 0
M  V30 2783 H 258.803 -3.78561 -3.03017 0
M  V30 2784 N 260.146 1.09593 -1.13257 0
M  V30 2785 C 261.371 1.8604 -0.916732 0
M  V30 2786 C 261.796 1.80504 0.529146 0
M  V30 2787 O 261.154 1.18127 1.37534 0
M  V30 2788 C 261.202 3.32017 -1.40703 0
M  V30 2789 O 260.306 4.08141 -0.591153 0
M  V30 2790 H 259.647 0.576943 -0.328683 0
M  V30 2791 H 262.177 1.38405 -1.50682 0
M  V30 2792 H 262.187 3.82865 -1.4099 0
M  V30 2793 H 260.862 3.35361 -2.45979 0
M  V30 2794 H 259.439 3.67084 -0.656005 0
M  V30 2795 N 261.624 0.925811 1.2754 0
M  V30 2796 C 262.571 0.422045 2.26908 0
M  V30 2797 C 263.541 -0.510029 1.58076 0
M  V30 2798 O 264.726 -0.429599 1.85901 0
M  V30 2799 C 261.866 -0.320837 3.43605 0
M  V30 2800 C 260.979 0.64513 4.27156 0
M  V30 2801 C 260.114 -0.117405 5.3107 0
M  V30 2802 C 259.153 0.841391 6.0629 0
M  V30 2803 N 258.29 0.111604 7.02011 0
M  V30 2804 H 263.13 1.27441 2.69375 0
M  V30 2805 H 260.667 0.639697 1.32462 0
M  V30 2806 H 262.625 -0.76785 4.10073 0
M  V30 2807 H 261.255 -1.13745 3.02096 0
M  V30 2808 H 260.307 1.21067 3.6062 0
M  V30 2809 H 261.619 1.37797 4.79389 0
M  V30 2810 H 260.773 -0.624422 6.03478 0
M  V30 2811 H 259.512 -0.883219 4.79636 0
M  V30 2812 H 258.517 1.35967 5.32722 0
M  V30 2813 H 259.742 1.60696 6.59813 0
M  V30 2814 H 257.688 -0.635999 6.5291 0
M  V30 2815 H 257.605 0.784044 7.51923 0
M  V30 2816 H 258.873 -0.374823 7.78598 0
M  V30 2817 N 263.102 -1.41638 0.69111 0
M  V30 2818 C 264.049 -2.30789 0.0229705 0
M  V30 2819 C 265.019 -1.46863 -0.775911 0
M  V30 2820 O 266.204 -1.75661 -0.74485 0
M  V30 2821 C 263.344 -3.32868 -0.910666 0
M  V30 2822 C 262.457 -4.31875 -0.103874 0
M  V30 2823 C 261.592 -5.21024 -1.03475 0
M  V30 2824 C 260.631 -6.11702 -0.220598 0
M  V30 2825 N 259.768 -6.93349 -1.10504 0
M  V30 2826 H 264.608 -2.87366 0.788978 0
M  V30 2827 H 262.145 -1.41535 0.400794 0
M  V30 2828 H 264.103 -3.90596 -1.46597 0
M  V30 2829 H 262.733 -2.77851 -1.64312 0
M  V30 2830 H 261.785 -3.76131 0.568285 0
M  V30 2831 H 263.097 -4.96003 0.527504 0
M  V30 2832 H 262.251 -5.83565 -1.65943 0
M  V30 2833 H 260.99 -4.57112 -1.69999 0
M  V30 2834 H 259.995 -5.48215 0.417187 0
M  V30 2835 H 261.22 -6.77668 0.440784 0
M  V30 2836 H 259.166 -6.3205 -1.75638 0
M  V30 2837 H 259.083 -7.54146 -0.529125 0
M  V30 2838 H 260.351 -7.60362 -1.71667 0
M  V30 2839 N 264.58 -0.43555 -1.51462 0
M  V30 2840 C 265.828 0.131254 -2.01673 0
M  V30 2841 C 266.149 1.43368 -1.32177 0
M  V30 2842 O 265.419 1.90524 -0.455769 0
M  V30 2843 H 263.999 0.0514954 -0.745223 0
M  V30 2844 H 266.661 -0.577847 -1.86137 0
M  V30 2845 H 265.757 0.308446 -3.10572 0
M  V30 2846 N 266.058 1.56714 -0.166846 0
M  V30 2847 C 267.305 1.96747 0.479252 0
M  V30 2848 C 267.633 1.05263 1.63554 0
M  V30 2849 O 266.888 0.0858098 1.95512 0
M  V30 2850 C 267.187 3.42889 1.00806 0
M  V30 2851 C 266.853 4.50889 -0.0318574 0
M  V30 2852 C 265.515 4.8015 -0.317675 0
M  V30 2853 C 267.867 5.15949 -0.737956 0
M  V30 2854 C 265.195 5.71772 -1.31506 0
M  V30 2855 C 267.547 6.08647 -1.72429 0
M  V30 2856 C 266.211 6.36277 -2.0176 0
M  V30 2857 H 265.481 0.719949 0.175371 0
M  V30 2858 H 268.128 1.89756 -0.257864 0
M  V30 2859 H 266.433 3.4681 1.82291 0
M  V30 2860 H 268.13 3.71203 1.51689 0
M  V30 2861 H 264.72 4.28128 0.201088 0
M  V30 2862 H 268.904 4.93458 -0.530351 0
M  V30 2863 H 264.16 5.91465 -1.54853 0
M  V30 2864 H 268.334 6.58129 -2.27682 0
M  V30 2865 H 265.961 7.07075 -2.79194 0
M  V30 2866 N 267.536 -0.106894 1.57237 0
M  V30 2867 C 268.766 -0.825191 1.89405 0
M  V30 2868 C 269.174 -1.73374 0.757496 0
M  V30 2869 O 268.517 -1.81552 -0.280115 0
M  V30 2870 C 268.579 -1.70102 3.1671 0
M  V30 2871 C 268.243 -0.965523 4.46684 0
M  V30 2872 C 269.24 -0.300741 5.19029 0
M  V30 2873 C 266.925 -0.943105 4.93367 0
M  V30 2874 C 268.919 0.376622 6.36286 0
M  V30 2875 C 266.606 -0.261949 6.10538 0
M  V30 2876 C 267.604 0.396748 6.81847 0
M  V30 2877 O 267.292 1.06701 7.96787 0
M  V30 2878 H 267.024 -0.241852 0.631255 0
M  V30 2879 H 269.578 -0.0921491 2.05193 0
M  V30 2880 H 267.808 -2.47601 2.97036 0
M  V30 2881 H 269.497 -2.29483 3.34802 0
M  V30 2882 H 270.263 -0.309599 4.84011 0
M  V30 2883 H 266.142 -1.44524 4.3776 0
M  V30 2884 H 269.686 0.891334 6.91882 0
M  V30 2885 H 265.583 -0.250896 6.45012 0
M  V30 2886 H 266.351 0.972707 8.127 0
M  V30 2887 N 269.014 -1.53014 -0.377408 0
M  V30 2888 C 269.944 -1.81589 -1.46791 0
M  V30 2889 C 270.925 -0.668622 -1.56408 0
M  V30 2890 O 272.11 -0.917337 -1.71168 0
M  V30 2891 C 269.24 -1.99519 -2.8427 0
M  V30 2892 C 268.194 -3.15249 -2.89486 0
M  V30 2893 C 267.52 -3.18451 -4.29527 0
M  V30 2894 C 268.82 -4.54084 -2.58079 0
M  V30 2895 H 270.514 -2.7291 -1.23127 0
M  V30 2896 H 268.06 -1.31319 -0.590883 0
M  V30 2897 H 270.013 -2.18092 -3.60575 0
M  V30 2898 H 268.737 -1.04897 -3.09296 0
M  V30 2899 H 267.396 -2.96477 -2.15631 0
M  V30 2900 H 267.044 -2.2149 -4.5161 0
M  V30 2901 H 266.744 -3.962 -4.33934 0
M  V30 2902 H 268.268 -3.39193 -5.07721 0
M  V30 2903 H 269.682 -4.72899 -3.24098 0
M  V30 2904 H 268.079 -5.33987 -2.7382 0
M  V30 2905 H 269.149 -4.60006 -1.53372 0
M  V30 2906 N 270.492 0.636531 -1.44174 0
M  V30 2907 C 271.455 1.73063 -1.50273 0
M  V30 2908 C 272.455 1.56113 -0.385397 0
M  V30 2909 O 273.645 1.61707 -0.64781 0
M  V30 2910 C 270.777 3.12096 -1.37145 0
M  V30 2911 H 271.97 1.69031 -2.47727 0
M  V30 2912 H 269.523 0.849706 -1.31186 0
M  V30 2913 H 270.258 3.21728 -0.407636 0
M  V30 2914 H 270.043 3.25805 -2.18159 0
M  V30 2915 H 271.533 3.91846 -1.44382 0
M  V30 2916 N 271.97 1.30982 0.876444 0
M  V30 2917 C 273.217 1.20296 1.62896 0
M  V30 2918 C 273.545 -0.240395 1.93009 0
M  V30 2919 O 272.8 -1.18733 1.55567 0
M  V30 2920 C 273.099 1.98572 2.9716 0
M  V30 2921 C 272.765 3.48125 2.86566 0
M  V30 2922 C 271.427 3.88905 2.83383 0
M  V30 2923 C 273.779 4.43322 2.74071 0
M  V30 2924 C 271.107 5.2316 2.65556 0
M  V30 2925 C 273.459 5.77695 2.57781 0
M  V30 2926 C 272.123 6.17704 2.52979 0
M  V30 2927 H 271.393 0.440193 0.59608 0
M  V30 2928 H 274.04 1.62177 1.01837 0
M  V30 2929 H 272.345 1.49352 3.62217 0
M  V30 2930 H 274.042 1.8769 3.54364 0
M  V30 2931 H 270.632 3.15723 2.89856 0
M  V30 2932 H 274.816 4.12752 2.75589 0
M  V30 2933 H 270.072 5.53241 2.60259 0
M  V30 2934 H 274.246 6.51091 2.47089 0
M  V30 2935 H 271.873 7.21678 2.38924 0
M  V30 2936 N 273.449 -1.08991 1.13837 0
M  V30 2937 C 274.381 -2.15606 0.777612 0
M  V30 2938 C 275.394 -1.61533 -0.202739 0
M  V30 2939 O 276.583 -1.78491 0.0181055 0
M  V30 2940 C 273.683 -3.3864 0.132623 0
M  V30 2941 C 272.856 -4.22115 1.1462 0
M  V30 2942 C 271.915 -5.23564 0.526074 0
M  V30 2943 O 270.941 -5.56678 1.18735 0
M  V30 2944 N 272.143 -5.76266 -0.699866 0
M  V30 2945 H 274.908 -2.47159 1.69506 0
M  V30 2946 H 272.469 -1.24747 1.03198 0
M  V30 2947 H 274.461 -4.03626 -0.29459 0
M  V30 2948 H 273.031 -3.04938 -0.687849 0
M  V30 2949 H 272.251 -3.53199 1.75055 0
M  V30 2950 H 273.539 -4.74709 1.83109 0
M  V30 2951 H 272.937 -5.51585 -1.25581 0
M  V30 2952 H 271.494 -6.42963 -1.06968 0
M  V30 2953 N 274.927 -0.932562 -1.27047 0
M  V30 2954 C 276.204 -0.49377 -1.89265 0
M  V30 2955 C 276.584 1.02833 -1.8436 0
M  V30 2956 O 275.932 1.88461 -1.29209 0
M  V30 2957 C 276.142 -1.04536 -3.32976 0
M  V30 2958 C 277.49 -1.10879 -4.09867 0
M  V30 2959 O 278.514 -0.995327 -3.42011 0
M  V30 2960 O 277.373 -1.28417 -5.31198 0
M  V30 2961 H 274.467 -0.159596 -0.811454 0
M  V30 2962 H 277.013 -1.02457 -1.3528 0
M  V30 2963 H 275.785 -2.08913 -3.30864 0
M  V30 2964 H 275.408 -0.496494 -3.94488 0
M  V30 2965 N 276.405 1.4127 -0.698611 0
M  V30 2966 C 277.651 2.01478 -0.231207 0
M  V30 2967 C 277.984 1.55215 1.16713 0
M  V30 2968 O 277.259 0.764672 1.78838 0
M  V30 2969 C 277.542 3.58912 -0.292281 0
M  V30 2970 C 277.395 4.15293 -1.72778 0
M  V30 2971 C 278.714 4.38736 0.346194 0
M  V30 2972 H 275.833 0.732025 -0.0854878 0
M  V30 2973 H 278.475 1.67977 -0.887906 0
M  V30 2974 H 276.625 3.87582 0.26686 0
M  V30 2975 H 278.297 3.97486 -2.341 0
M  V30 2976 H 276.54 3.7022 -2.26096 0
M  V30 2977 H 277.211 5.24452 -1.72202 0
M  V30 2978 H 279.687 4.15897 -0.130035 0
M  V30 2979 H 278.563 5.48221 0.272932 0
M  V30 2980 H 278.824 4.18425 1.42734 0
M  V30 2981 N 277.883 0.443576 1.51229 0
M  V30 2982 C 279.131 -0.120557 2.0174 0
M  V30 2983 C 279.452 -1.42665 1.32935 0
M  V30 2984 O 278.722 -1.9028 0.465866 0
M  V30 2985 H 277.302 -0.0475426 0.745486 0
M  V30 2986 H 279.964 0.587711 1.85828 0
M  V30 2987 H 279.06 -0.291972 3.10731 0
M  V30 2988 N 279.361 -1.56624 0.175154 0
M  V30 2989 C 280.324 -2.16934 -0.739738 0
M  V30 2990 C 281.324 -1.11842 -1.15533 0
M  V30 2991 O 282.514 -1.37335 -1.07167 0
M  V30 2992 C 279.646 -2.75531 -2.00738 0
M  V30 2993 H 280.839 -2.99131 -0.214639 0
M  V30 2994 H 278.392 -1.56123 -0.0744197 0
M  V30 2995 H 279.127 -1.97078 -2.57548 0
M  V30 2996 H 278.912 -3.52444 -1.71831 0
M  V30 2997 H 280.402 -3.21904 -2.66021 0
M  V30 2998 N 280.839 0.0985539 -1.57292 0
M  V30 2999 C 282.079 0.808332 -1.87737 0
M  V30 3000 C 282.443 1.7607 -0.76572 0
M  V30 3001 O 283.644 2.51358 -0.952499 0
M  V30 3002 C 281.915 1.52093 -3.23423 0
M  V30 3003 S 283.474 2.26947 -3.75554 0
M  V30 3004 H 280.292 0.269377 -0.657995 0
M  V30 3005 H 282.894 0.0656269 -1.9539 0
M  V30 3006 H 281.598 0.81363 -4.02254 0
M  V30 3007 H 281.129 2.30361 -3.189 0
M  V30 3008 H 283.144 3.53027 -3.48692 0
M  V30 3009 N 282.317 1.53212 0.369288 0
M  V30 3010 C 283.566 1.68436 1.10961 0
M  V30 3011 C 283.879 0.440738 1.9057 0
M  V30 3012 O 285.085 0.473446 2.6734 0
M  V30 3013 C 283.541 2.97744 2.0218 0
M  V30 3014 C 283.149 4.29355 1.279 0
M  V30 3015 C 284.893 3.22334 2.76226 0
M  V30 3016 C 282.8 5.49755 2.17999 0
M  V30 3017 H 281.73 0.627568 0.41794 0
M  V30 3018 H 284.381 1.79713 0.370884 0
M  V30 3019 H 282.763 2.8026 2.79768 0
M  V30 3020 H 283.937 4.57458 0.554007 0
M  V30 3021 H 282.252 4.11179 0.657311 0
M  V30 3022 H 284.849 4.09471 3.43857 0
M  V30 3023 H 285.192 2.38238 3.41392 0
M  V30 3024 H 285.725 3.40475 2.05723 0
M  V30 3025 H 282.464 6.36318 1.57417 0
M  V30 3026 H 281.984 5.25937 2.88359 0
M  V30 3027 H 283.663 5.84401 2.77641 0
M  V30 3028 N 283.795 -0.628877 1.44509 0
M  V30 3029 C 284.758 -1.72263 1.51188 0
M  V30 3030 C 285.758 -1.55907 0.39367 0
M  V30 3031 O 286.948 -1.61361 0.656377 0
M  V30 3032 C 284.08 -3.11365 1.38798 0
M  V30 3033 H 285.273 -1.67714 2.4862 0
M  V30 3034 H 282.826 -0.842737 1.31634 0
M  V30 3035 H 283.561 -3.21507 0.424693 0
M  V30 3036 H 283.346 -3.24644 2.19884 0
M  V30 3037 H 284.836 -3.91075 1.46458 0
M  V30 3038 N 285.273 -1.31445 -0.869486 0
M  V30 3039 C 286.203 -1.21727 -1.99261 0
M  V30 3040 C 287.184 -0.104359 -1.6978 0
M  V30 3041 O 288.369 -0.289038 -1.92037 0
M  V30 3042 C 285.499 -0.924317 -3.34774 0
M  V30 3043 C 284.453 -1.99685 -3.78563 0
M  V30 3044 C 283.779 -1.55658 -5.11541 0
M  V30 3045 C 285.079 -3.41003 -3.95619 0
M  V30 3046 H 286.773 -2.1569 -2.07649 0
M  V30 3047 H 284.319 -1.03839 -0.997675 0
M  V30 3048 H 286.272 -0.842934 -4.12883 0
M  V30 3049 H 284.996 0.0509793 -3.2656 0
M  V30 3050 H 283.655 -2.06813 -3.02694 0
M  V30 3051 H 283.303 -0.569132 -4.9977 0
M  V30 3052 H 283.003 -2.27409 -5.41811 0
M  V30 3053 H 284.527 -1.48928 -5.92159 0
M  V30 3054 H 285.941 -3.36547 -4.64122 0
M  V30 3055 H 284.338 -4.10975 -4.37286 0
M  V30 3056 H 285.408 -3.81754 -2.98985 0
M  V30 3057 N 286.751 1.08385 -1.14413 0
M  V30 3058 C 287.997 1.81044 -0.913834 0
M  V30 3059 C 288.33 1.86004 0.558209 0
M  V30 3060 O 287.605 1.33606 1.4135 0
M  V30 3061 C 287.888 3.26648 -1.51569 0
M  V30 3062 C 287.741 3.29895 -3.0576 0
M  V30 3063 C 289.06 4.23629 -1.19273 0
M  V30 3064 H 286.179 0.65727 -0.333414 0
M  V30 3065 H 288.821 1.26896 -1.41412 0
M  V30 3066 H 286.971 3.72889 -1.09023 0
M  V30 3067 H 288.643 2.91977 -3.57137 0
M  V30 3068 H 286.886 2.69163 -3.40197 0
M  V30 3069 H 287.557 4.32516 -3.42977 0
M  V30 3070 H 290.033 3.85727 -1.56057 0
M  V30 3071 H 288.909 5.23822 -1.64017 0
M  V30 3072 H 289.17 4.41968 -0.108068 0
M  V30 3073 N 288.23 0.939286 1.26551 0
M  V30 3074 C 289.455 0.602008 1.98471 0
M  V30 3075 C 289.88 -0.815624 1.69497 0
M  V30 3076 O 289.238 -1.54912 0.941905 0
M  V30 3077 C 289.286 0.848407 3.50477 0
M  V30 3078 O 288.39 -0.0804009 4.12322 0
M  V30 3079 H 287.731 0.23049 0.622712 0
M  V30 3080 H 290.261 1.2617 1.61066 0
M  V30 3081 H 290.271 0.768553 4.00696 0
M  V30 3082 H 288.946 1.88171 3.70897 0
M  V30 3083 H 287.523 0.0503508 3.72866 0
M  V30 3084 N 289.708 -1.40897 0.706093 0
M  V30 3085 C 290.954 -2.01352 0.241889 0
M  V30 3086 C 291.287 -1.55832 -1.15888 0
M  V30 3087 O 290.562 -0.774145 -1.7843 0
M  V30 3088 C 290.845 -3.58752 0.311311 0
M  V30 3089 C 290.698 -4.1437 1.74978 0
M  V30 3090 C 292.017 -4.38914 -0.322922 0
M  V30 3091 H 289.136 -0.731562 0.0893687 0
M  V30 3092 H 291.778 -1.67504 0.896802 0
M  V30 3093 H 289.928 -3.87718 -0.246302 0
M  V30 3094 H 291.6 -3.96239 2.36205 0
M  V30 3095 H 289.843 -3.69016 2.28057 0
M  V30 3096 H 290.514 -5.23532 1.74981 0
M  V30 3097 H 292.99 -4.15822 0.152089 0
M  V30 3098 H 291.866 -5.48358 -0.243855 0
M  V30 3099 H 292.127 -4.19176 -1.40513 0
M  V30 3100 N 291.186 -0.45159 -1.50991 0
M  V30 3101 C 292.602 -0.104647 -1.59257 0
M  V30 3102 C 292.802 1.38728 -1.4614 0
M  V30 3103 O 291.858 2.15866 -1.30989 0
M  V30 3104 C 293.171 -0.637468 -2.93865 0
M  V30 3105 C 294.719 -0.599166 -3.07212 0
M  V30 3106 C 295.194 -1.1092 -4.44366 0
M  V30 3107 N 296.685 -1.06778 -4.50725 0
M  V30 3108 C 297.42 -1.43314 -5.55201 0
M  V30 3109 N 296.916 -1.87204 -6.67028 0
M  V30 3110 N 298.709 -1.3504 -5.45638 0
M  V30 3111 H 290.86 -1.42214 -1.57762 0
M  V30 3112 H 293.123 -0.586921 -0.744465 0
M  V30 3113 H 292.829 -1.68187 -3.08879 0
M  V30 3114 H 292.703 -0.0702139 -3.77135 0
M  V30 3115 H 295.09 0.436277 -2.91857 0
M  V30 3116 H 295.171 -1.20299 -2.25747 0
M  V30 3117 H 294.815 -2.14318 -4.60467 0
M  V30 3118 H 294.745 -0.481773 -5.24392 0
M  V30 3119 H 297.236 -0.745643 -3.70471 0
M  V30 3120 H 297.549 -2.13282 -7.42786 0
M  V30 3121 H 295.894 -1.91142 -6.68199 0
M  V30 3122 H 299.085 -1.00607 -4.57161 0
M  V30 3123 H 299.258 -1.63841 -6.26945 0
M  V30 3124 N 292.664 1.56529 -0.183458 0
M  V30 3125 C 293.91 1.97537 0.459036 0
M  V30 3126 C 294.243 1.06989 1.62071 0
M  V30 3127 O 293.518 0.11948 1.94133 0
M  V30 3128 C 293.801 3.47874 0.930368 0
M  V30 3129 C 293.654 4.492 -0.232317 0
M  V30 3130 C 294.973 4.01612 1.79989 0
M  V30 3131 H 292.092 0.718204 0.165383 0
M  V30 3132 H 294.734 1.88042 -0.272038 0
M  V30 3133 H 292.884 3.56095 1.55333 0
M  V30 3134 H 294.556 4.53027 -0.86972 0
M  V30 3135 H 292.799 4.24657 -0.885928 0
M  V30 3136 H 293.47 5.51823 0.139796 0
M  V30 3137 H 295.946 3.96097 1.27461 0
M  V30 3138 H 294.822 5.07195 2.09867 0
M  V30 3139 H 295.083 3.46163 2.74998 0
M  V30 3140 N 294.142 -0.090211 1.57342 0
M  V30 3141 C 295.389 -0.792807 1.86335 0
M  V30 3142 C 295.717 -1.78494 0.772662 0
M  V30 3143 O 294.972 -1.94305 -0.233258 0
M  V30 3144 C 295.271 -1.55222 3.21933 0
M  V30 3145 C 294.937 -0.701765 4.45406 0
M  V30 3146 C 293.599 -0.467334 4.78925 0
M  V30 3147 C 295.951 -0.11086 5.21082 0
M  V30 3148 C 293.279 0.367785 5.85546 0
M  V30 3149 C 295.631 0.711609 6.28585 0
M  V30 3150 C 294.295 0.956086 6.60617 0
M  V30 3151 H 293.565 -0.290109 0.681849 0
M  V30 3152 H 296.212 -0.0541332 1.91423 0
M  V30 3153 H 294.517 -2.3626 3.12551 0
M  V30 3154 H 296.214 -2.10032 3.41595 0
M  V30 3155 H 292.804 -0.894598 4.1916 0
M  V30 3156 H 296.988 -0.279129 4.95514 0
M  V30 3157 H 292.244 0.566128 6.08773 0
M  V30 3158 H 296.418 1.17632 6.86393 0
M  V30 3159 H 294.045 1.60499 7.43064 0
M  V30 3160 N 295.62 -1.53406 -0.361157 0
M  V30 3161 C 296.85 -1.73465 -1.1222 0
M  V30 3162 C 297.258 -0.465486 -1.83384 0
M  V30 3163 O 296.601 0.571611 -1.7458 0
M  V30 3164 C 296.663 -2.84834 -2.19339 0
M  V30 3165 C 296.327 -4.25038 -1.67903 0
M  V30 3166 C 297.324 -5.07231 -1.14074 0
M  V30 3167 C 295.009 -4.71464 -1.73282 0
M  V30 3168 C 297.003 -6.33942 -0.663068 0
M  V30 3169 C 294.69 -5.98153 -1.25127 0
M  V30 3170 C 295.688 -6.79223 -0.717296 0
M  V30 3171 O 295.376 -8.03533 -0.242865 0
M  V30 3172 H 295.108 -0.583526 -0.341283 0
M  V30 3173 H 297.662 -2.00964 -0.424591 0
M  V30 3174 H 295.892 -2.5282 -2.92607 0
M  V30 3175 H 297.581 -2.9303 -2.80871 0
M  V30 3176 H 298.347 -4.72534 -1.09254 0
M  V30 3177 H 294.226 -4.08432 -2.13786 0
M  V30 3178 H 297.77 -6.97167 -0.245612 0
M  V30 3179 H 293.667 -6.32347 -1.29642 0
M  V30 3180 H 294.435 -8.177 -0.361786 0
M  V30 3181 N 297.098 0.621204 -1.44841 0
M  V30 3182 C 298.045 1.73267 -1.5247 0
M  V30 3183 C 299.015 1.6189 -0.371611 0
M  V30 3184 O 300.2 1.81668 -0.58321 0
M  V30 3185 C 297.34 3.11545 -1.48438 0
M  V30 3186 C 296.453 3.33827 -2.74196 0
M  V30 3187 C 295.588 4.62133 -2.61929 0
M  V30 3188 C 294.627 4.77627 -3.82804 0
M  V30 3189 N 293.764 5.97219 -3.69153 0
M  V30 3190 H 298.604 1.66082 -2.47428 0
M  V30 3191 H 296.141 0.810026 -1.22788 0
M  V30 3192 H 298.099 3.91528 -1.4409 0
M  V30 3193 H 296.729 3.1772 -0.570402 0
M  V30 3194 H 295.781 2.47715 -2.88689 0
M  V30 3195 H 297.093 3.41153 -3.6389 0
M  V30 3196 H 296.247 5.50291 -2.5547 0
M  V30 3197 H 294.986 4.57182 -1.69811 0
M  V30 3198 H 293.991 3.87896 -3.89637 0
M  V30 3199 H 295.216 4.84385 -4.75971 0
M  V30 3200 H 293.162 5.93339 -2.79794 0
M  V30 3201 H 293.079 6.05644 -4.52472 0
M  V30 3202 H 294.347 6.87912 -3.66603 0
M  V30 3203 N 298.576 1.31904 0.862503 0
M  V30 3204 C 299.523 1.20182 1.9704 0
M  V30 3205 C 300.493 0.0858247 1.65878 0
M  V30 3206 O 301.678 0.26 1.8902 0
M  V30 3207 C 298.818 0.922797 3.32533 0
M  V30 3208 C 297.931 2.12284 3.76244 0
M  V30 3209 C 297.066 1.77996 5.00491 0
M  V30 3210 C 296.105 2.94366 5.36671 0
M  V30 3211 N 295.242 2.60223 6.52095 0
M  V30 3212 H 300.082 2.14951 2.06398 0
M  V30 3213 H 297.619 1.06917 1.01031 0
M  V30 3214 H 299.577 0.741548 4.10557 0
M  V30 3215 H 298.207 0.0119227 3.22798 0
M  V30 3216 H 297.259 2.41461 2.9394 0
M  V30 3217 H 298.571 2.99357 3.98982 0
M  V30 3218 H 297.725 1.56377 5.862 0
M  V30 3219 H 296.464 0.881252 4.79672 0
M  V30 3220 H 295.469 3.16625 4.49476 0
M  V30 3221 H 296.694 3.84957 5.59451 0
M  V30 3222 H 294.64 1.72884 6.32809 0
M  V30 3223 H 294.557 3.40827 6.74814 0
M  V30 3224 H 295.825 2.42016 7.40978 0
M  V30 3225 N 300.054 -1.07777 1.14986 0
M  V30 3226 C 301.294 -1.81888 0.932527 0
M  V30 3227 C 301.658 -1.84509 -0.531064 0
M  V30 3228 O 302.859 -2.54448 -0.866577 0
M  V30 3229 C 301.13 -3.23244 1.52473 0
M  V30 3230 S 302.689 -4.14154 1.44989 0
M  V30 3231 H 299.507 -0.626752 0.335712 0
M  V30 3232 H 302.109 -1.29503 1.46455 0
M  V30 3233 H 300.813 -3.18922 2.58296 0
M  V30 3234 H 300.344 -3.80704 0.991381 0
M  V30 3235 H 302.359 -4.94247 0.439799 0
M  V30 3236 N 301.532 -0.945985 -1.26051 0
M  V30 3237 C 302.943 -0.638096 -1.75457 0
M  V30 3238 C 303.294 0.846672 -1.76991 0
M  V30 3239 O 302.419 1.66262 -1.38513 0
M  V30 3240 C 303.014 -1.15157 -3.18629 0
M  V30 3241 C 301.573 -0.894004 -3.65629 0
M  V30 3242 C 300.72 -1.29967 -2.44957 0
M  V30 3243 H 303.671 -1.12376 -1.1206 0
M  V30 3244 H 303.692 -0.507615 -3.77099 0
M  V30 3245 H 303.204 -2.23222 -3.1748 0
M  V30 3246 H 301.305 0.172057 -3.72203 0
M  V30 3247 H 301.418 -1.52439 -4.54202 0
M  V30 3248 H 299.782 -0.718078 -2.44368 0
M  V30 3249 H 300.565 -2.38935 -2.46505 0
M  V30 3250 N 303.011 1.40521 -0.713556 0
M  V30 3251 C 303.941 2.33381 -0.0743864 0
M  V30 3252 C 304.922 1.52784 0.747735 0
M  V30 3253 O 306.107 1.81258 0.697071 0
M  V30 3254 C 303.237 3.36748 0.849598 0
M  V30 3255 C 302.191 4.27793 0.133247 0
M  V30 3256 C 301.517 5.21679 1.17281 0
M  V30 3257 C 302.817 5.12415 -1.01134 0
M  V30 3258 H 304.511 2.87081 -0.850007 0
M  V30 3259 H 302.057 1.38034 -0.410201 0
M  V30 3260 H 304.01 4.00648 1.30612 0
M  V30 3261 H 302.734 2.81439 1.65709 0
M  V30 3262 H 301.393 3.65342 -0.303426 0
M  V30 3263 H 301.041 4.62677 1.9733 0
M  V30 3264 H 300.741 5.83435 0.698397 0
M  V30 3265 H 302.265 5.88456 1.62947 0
M  V30 3266 H 303.679 5.69781 -0.634274 0
M  V30 3267 H 302.076 5.83203 -1.41399 0
M  V30 3268 H 303.146 4.48514 -1.84292 0
M  V30 3269 N 304.489 0.459591 1.5075 0
M  V30 3270 C 305.717 -0.0973749 2.06671 0
M  V30 3271 C 306.132 -1.34524 1.32472 0
M  V30 3272 O 305.489 -1.7827 0.390634 0
M  V30 3273 C 305.54 -0.39714 3.59312 0
M  V30 3274 O 305.261 0.801214 4.30711 0
M  V30 3275 C 306.762 -1.00234 4.31819 0
M  V30 3276 H 303.982 0.00195854 0.670997 0
M  V30 3277 H 306.526 0.645072 1.94059 0
M  V30 3278 H 304.681 -1.08951 3.71764 0
M  V30 3279 H 305.095 0.538857 5.21725 0
M  V30 3280 H 306.569 -1.16193 5.39632 0
M  V30 3281 H 307.046 -1.98939 3.91561 0
M  V30 3282 H 307.652 -0.348699 4.23868 0
M  V30 3283 N 305.967 -1.56429 0.191757 0
M  V30 3284 C 307.213 -1.97777 -0.448554 0
M  V30 3285 C 307.546 -1.07847 -1.61501 0
M  V30 3286 O 306.821 -0.129774 -1.94067 0
M  V30 3287 C 307.104 -3.48362 -0.911906 0
M  V30 3288 C 306.957 -4.4907 0.256136 0
M  V30 3289 C 308.276 -4.02561 -1.77857 0
M  V30 3290 H 305.395 -0.719071 -0.161572 0
M  V30 3291 H 308.037 -1.87896 0.282007 0
M  V30 3292 H 306.187 -3.56914 -1.53442 0
M  V30 3293 H 307.859 -4.5256 0.893733 0
M  V30 3294 H 306.102 -4.24181 0.908436 0
M  V30 3295 H 306.773 -5.51889 -0.11053 0
M  V30 3296 H 309.249 -3.96767 -1.25359 0
M  V30 3297 H 308.125 -5.08301 -2.07174 0
M  V30 3298 H 308.386 -3.47616 -2.73158 0
M  V30 3299 N 307.445 0.0818655 -1.57387 0
M  V30 3300 C 308.861 0.436412 -1.53517 0
M  V30 3301 C 309.061 1.79758 -0.910459 0
M  V30 3302 O 308.117 2.47324 -0.508636 0
M  V30 3303 C 309.43 0.386734 -2.98203 0
M  V30 3304 C 310.978 0.467644 -3.09487 0
M  V30 3305 C 311.453 0.447978 -4.55804 0
M  V30 3306 N 312.944 0.508348 -4.60402 0
M  V30 3307 C 313.679 0.515184 -5.71081 0
M  V30 3308 N 313.175 0.477435 -6.91153 0
M  V30 3309 N 314.968 0.560988 -5.59294 0
M  V30 3310 H 307.119 -0.809546 -1.96367 0
M  V30 3311 H 309.382 -0.302733 -0.898363 0
M  V30 3312 H 309.088 -0.546539 -3.47427 0
M  V30 3313 H 308.962 1.20075 -3.57578 0
M  V30 3314 H 311.349 1.39134 -2.60242 0
M  V30 3315 H 311.43 -0.374753 -2.5304 0
M  V30 3316 H 311.074 -0.471826 -5.05704 0
M  V30 3317 H 311.004 1.30777 -5.10103 0
M  V30 3318 H 313.495 0.54218 -3.7399 0
M  V30 3319 H 313.808 0.486299 -7.71268 0
M  V30 3320 H 312.153 0.444278 -6.93579 0
M  V30 3321 H 315.344 0.5881 -4.64391 0
M  V30 3322 H 315.517 0.562846 -6.45551 0
M  V30 3323 N 308.923 1.53595 0.353017 0
M  V30 3324 C 309.871 1.81605 1.45335 0
M  V30 3325 C 310.865 0.685923 1.54892 0
M  V30 3326 O 312.071 0.869095 1.57628 0
M  V30 3327 H 308.446 0.575204 0.484401 0
M  V30 3328 H 310.417 2.73679 1.18921 0
M  V30 3329 C 309.166 2.03406 2.81995 0
M  V30 3330 H 308.489 2.89814 2.75405 0
M  V30 3331 H 309.929 2.26975 3.58132 0
M  V30 3332 C 308.388 0.816794 3.26849 0
M  V30 3333 O 308.918 0.0115856 4.01698 0
M  V30 3334 N 307.124 0.636682 2.8354 0
M  V30 3335 H 306.671 1.2931 2.22793 0
M  V30 3336 H 306.629 -0.176336 3.13905 0
M  V30 3337 N 310.401 -0.613514 1.45168 0
M  V30 3338 C 311.331 -1.7354 1.56225 0
M  V30 3339 C 312.312 -1.64981 0.41414 0
M  V30 3340 O 313.497 -1.83472 0.636526 0
M  V30 3341 C 310.627 -3.12128 1.52295 0
M  V30 3342 C 309.581 -3.35491 2.65762 0
M  V30 3343 C 308.907 -4.74291 2.46885 0
M  V30 3344 C 310.207 -3.26325 4.0781 0
M  V30 3345 H 311.901 -1.64543 2.50132 0
M  V30 3346 H 309.447 -0.790185 1.20383 0
M  V30 3347 H 311.4 -3.90404 1.58628 0
M  V30 3348 H 310.124 -3.2195 0.549139 0
M  V30 3349 H 308.783 -2.59603 2.58847 0
M  V30 3350 H 308.431 -4.80839 1.47657 0
M  V30 3351 H 308.131 -4.9088 3.22972 0
M  V30 3352 H 309.655 -5.54775 2.55063 0
M  V30 3353 H 311.069 -3.94483 4.16 0
M  V30 3354 H 309.466 -3.54445 4.8424 0
M  V30 3355 H 310.536 -2.23855 4.30136 0
M  V30 3356 N 311.879 -1.3236 -0.855495 0
M  V30 3357 C 312.842 -1.21164 -1.94556 0
M  V30 3358 C 313.842 -0.134908 -1.60233 0
M  V30 3359 O 315.032 -0.385249 -1.69887 0
M  V30 3360 C 312.164 -0.863192 -3.29791 0
M  V30 3361 H 313.357 -2.18038 -2.05911 0
M  V30 3362 H 310.91 -1.16179 -1.04557 0
M  V30 3363 H 311.645 0.103769 -3.24134 0
M  V30 3364 H 311.43 -1.64166 -3.56078 0
M  V30 3365 H 312.92 -0.809156 -4.09686 0
M  V30 3366 N 313.357 1.07166 -1.15556 0
M  V30 3367 C 314.289 2.14341 -0.811815 0
M  V30 3368 C 315.302 1.61835 0.177015 0
M  V30 3369 O 316.491 1.78439 -0.0464996 0
M  V30 3370 C 313.591 3.38387 -0.186481 0
M  V30 3371 C 312.764 4.20238 -1.21321 0
M  V30 3372 C 311.823 5.2266 -0.609302 0
M  V30 3373 O 310.849 5.54719 -1.27576 0
M  V30 3374 N 312.051 5.77306 0.608099 0
M  V30 3375 H 314.816 2.44431 -1.73417 0
M  V30 3376 H 312.377 1.23089 -1.0517 0
M  V30 3377 H 314.369 4.04044 0.230339 0
M  V30 3378 H 312.939 3.05994 0.639249 0
M  V30 3379 H 312.159 3.50369 -1.80652 0
M  V30 3380 H 313.447 4.71736 -1.90638 0
M  V30 3381 H 312.845 5.53513 1.1679 0
M  V30 3382 H 311.402 6.44583 0.96725 0
M  V30 3383 N 314.835 0.952656 1.25548 0
M  V30 3384 C 316.082 0.606373 1.93208 0
M  V30 3385 C 316.41 -0.85631 1.74636 0
M  V30 3386 O 315.665 -1.62951 1.08376 0
M  V30 3387 C 315.964 0.908818 3.45652 0
M  V30 3388 C 315.63 2.35722 3.84378 0
M  V30 3389 C 314.292 2.75312 3.9466 0
M  V30 3390 C 316.644 3.29793 4.03591 0
M  V30 3391 C 313.972 4.08047 4.21562 0
M  V30 3392 C 316.324 4.62138 4.31985 0
M  V30 3393 C 314.988 5.01528 4.40484 0
M  V30 3394 H 314.258 0.221888 0.706998 0
M  V30 3395 H 316.905 1.20132 1.49133 0
M  V30 3396 H 315.21 0.231456 3.91116 0
M  V30 3397 H 316.907 0.619498 3.96186 0
M  V30 3398 H 313.497 2.04017 3.76928 0
M  V30 3399 H 317.681 3.00397 3.95064 0
M  V30 3400 H 312.937 4.38212 4.26357 0
M  V30 3401 H 317.111 5.35012 4.45797 0
M  V30 3402 H 314.738 6.04406 4.61083 0
M  V30 3403 N 316.313 -1.40141 0.720998 0
M  V30 3404 C 317.724 -1.83678 0.334553 0
M  V30 3405 C 318.075 -1.6027 -1.13173 0
M  V30 3406 O 317.2 -1.08643 -1.87152 0
M  V30 3407 C 317.795 -3.33437 0.600437 0
M  V30 3408 C 316.354 -3.75447 0.267642 0
M  V30 3409 C 315.501 -2.63296 0.870097 0
M  V30 3410 H 318.452 -1.29331 0.919732 0
M  V30 3411 H 318.473 -3.80269 -0.132517 0
M  V30 3412 H 317.985 -3.50442 1.66768 0
M  V30 3413 H 316.086 -3.64035 -0.794329 0
M  V30 3414 H 316.199 -4.73344 0.74042 0
M  V30 3415 H 314.563 -2.52954 0.297739 0
M  V30 3416 H 315.346 -2.83112 1.94172 0
M  V30 3417 N 317.792 -0.46758 -1.50504 0
M  V30 3418 C 319.069 0.15003 -1.95024 0
M  V30 3419 C 319.449 1.57304 -1.40779 0
M  V30 3420 O 318.797 2.20281 -0.607319 0
M  V30 3421 C 319.007 0.0969324 -3.48865 0
M  V30 3422 C 320.355 0.287565 -4.23625 0
M  V30 3423 O 321.379 0.173678 -3.55776 0
M  V30 3424 O 320.238 0.517186 -5.44047 0
M  V30 3425 H 317.332 0.113582 -0.819163 0
M  V30 3426 H 319.878 -0.52773 -1.61286 0
M  V30 3427 H 318.65 -0.896732 -3.80886 0
M  V30 3428 H 318.273 0.816303 -3.8913 0
M  V30 3429 N 319.27 1.56325 -0.20005 0
M  V30 3430 C 320.498 2.02105 0.442874 0
M  V30 3431 C 320.913 1.08014 1.5485 0
M  V30 3432 O 320.27 0.0858797 1.82298 0
M  V30 3433 C 320.321 3.47549 0.994583 0
M  V30 3434 O 320.042 4.38049 -0.0669322 0
M  V30 3435 C 321.543 4.0887 1.7129 0
M  V30 3436 H 318.763 0.661807 0.110691 0
M  V30 3437 H 321.307 2.02134 -0.310207 0
M  V30 3438 H 319.462 3.48204 1.69803 0
M  V30 3439 H 319.876 5.23368 0.344462 0
M  V30 3440 H 321.35 5.12475 2.05118 0
M  V30 3441 H 321.827 3.52615 2.61838 0
M  V30 3442 H 322.433 4.12002 1.05518 0
M  V30 3443 N 320.748 -0.0735177 1.57428 0
M  V30 3444 C 321.997 -0.771809 1.86349 0
M  V30 3445 C 322.31 -1.78828 0.792452 0
M  V30 3446 O 323.516 -2.53602 0.96945 0
M  V30 3447 C 321.972 -1.42358 3.30548 0
M  V30 3448 C 321.58 -0.445761 4.45777 0
M  V30 3449 C 323.324 -2.10434 3.6867 0
M  V30 3450 C 321.231 -1.10335 5.81016 0
M  V30 3451 H 320.161 -0.291999 0.695164 0
M  V30 3452 H 322.812 -0.0250749 1.83483 0
M  V30 3453 H 321.194 -2.21852 3.28021 0
M  V30 3454 H 322.368 0.319239 4.59693 0
M  V30 3455 H 320.683 0.130457 4.16196 0
M  V30 3456 H 323.28 -2.60405 4.67004 0
M  V30 3457 H 323.623 -2.90298 2.98383 0
M  V30 3458 H 324.156 -1.37773 3.7318 0
M  V30 3459 H 320.895 -0.345061 6.54591 0
M  V30 3460 H 320.415 -1.83925 5.70904 0
M  V30 3461 H 322.094 -1.62367 6.26295 0
M  V30 3462 N 322.226 -1.5378 -0.344866 0
M  V30 3463 C 323.454 -1.74899 -1.10534 0
M  V30 3464 C 323.869 -0.487534 -1.82397 0
M  V30 3465 O 323.226 0.540741 -1.74305 0
M  V30 3466 C 323.277 -2.92822 -2.11984 0
M  V30 3467 O 322.998 -4.14089 -1.43044 0
M  V30 3468 C 324.499 -3.25982 -3.00417 0
M  V30 3469 H 321.719 -0.584426 -0.329678 0
M  V30 3470 H 324.263 -2.006 -0.397474 0
M  V30 3471 H 322.418 -2.69457 -2.78338 0
M  V30 3472 H 322.832 -4.80272 -2.10805 0
M  V30 3473 H 324.306 -4.11848 -3.67539 0
M  V30 3474 H 324.783 -2.42228 -3.66363 0
M  V30 3475 H 325.389 -3.51349 -2.39654 0
M  V30 3476 N 323.704 0.605807 -1.45491 0
M  V30 3477 C 324.952 1.36207 -1.49305 0
M  V30 3478 C 325.273 1.94519 -0.136863 0
M  V30 3479 O 324.543 1.77261 0.833983 0
M  V30 3480 H 323.123 0.50565 -0.549843 0
M  V30 3481 H 325.785 0.711239 -1.81459 0
M  V30 3482 H 324.881 2.18058 -2.23287 0
M  V30 3483 N 325.182 1.32811 0.848464 0
M  V30 3484 C 326.145 1.22194 1.9391 0
M  V30 3485 C 327.145 0.143404 1.60159 0
M  V30 3486 O 328.335 0.394253 1.6968 0
M  V30 3487 C 325.467 0.88067 3.29328 0
M  V30 3488 H 326.66 2.19127 2.04752 0
M  V30 3489 H 324.213 1.16731 1.0394 0
M  V30 3490 H 324.948 -0.0865776 3.24184 0
M  V30 3491 H 324.733 1.66052 3.55203 0
M  V30 3492 H 326.223 0.830871 4.09251 0
M  V30 3493 N 326.66 -1.06551 1.16123 0
M  V30 3494 C 327.937 -1.76097 0.85142 0
M  V30 3495 C 328.317 -2.00802 -0.6513 0
M  V30 3496 O 327.665 -1.63302 -1.59827 0
M  V30 3497 C 327.875 -3.06384 1.67122 0
M  V30 3498 C 329.223 -3.80585 1.88255 0
M  V30 3499 O 330.247 -3.16218 1.63966 0
M  V30 3500 O 329.106 -4.96212 2.2899 0
M  V30 3501 H 326.2 -0.765102 0.313923 0
M  V30 3502 H 328.746 -1.12844 1.26745 0
M  V30 3503 H 327.518 -2.84071 2.69108 0
M  V30 3504 H 327.141 -3.77371 1.25206 0
M  V30 3505 N 328.138 -0.959301 -1.25041 0
M  V30 3506 C 329.366 -0.633949 -1.96948 0
M  V30 3507 C 329.781 0.794916 -1.7125 0
M  V30 3508 O 329.138 1.53231 -0.991287 0
M  V30 3509 C 329.189 -0.888805 -3.50403 0
M  V30 3510 O 328.91 -2.26149 -3.75218 0
M  V30 3511 C 330.411 -0.576482 -4.39536 0
M  V30 3512 H 327.631 -0.237263 -0.627652 0
M  V30 3513 H 330.175 -1.28495 -1.59089 0
M  V30 3514 H 328.33 -0.284145 -3.86357 0
M  V30 3515 H 328.744 -2.33514 -4.6965 0
M  V30 3516 H 330.218 -0.805314 -5.46094 0
M  V30 3517 H 330.695 0.489075 -4.36468 0
M  V30 3518 H 331.301 -1.16067 -4.09156 0
M  V30 3519 N 329.616 1.39756 -0.72842 0
M  V30 3520 C 330.841 2.05472 -0.282159 0
M  V30 3521 C 331.266 1.54549 1.07221 0
M  V30 3522 O 330.624 0.686372 1.67805 0
M  V30 3523 C 330.672 3.59462 -0.286264 0
M  V30 3524 O 329.776 4.05918 0.728298 0
M  V30 3525 H 329.117 0.651226 -0.129618 0
M  V30 3526 H 331.647 1.78915 -0.992499 0
M  V30 3527 H 331.657 4.07798 -0.128373 0
M  V30 3528 H 330.332 3.95889 -1.27456 0
M  V30 3529 H 328.909 3.69012 0.537081 0
M  V30 3530 N 331.094 0.475555 1.50254 0
M  V30 3531 C 332.319 -0.0777042 2.07254 0
M  V30 3532 C 332.744 -1.3235 1.3366 0
M  V30 3533 O 332.102 -1.77152 0.385597 0
M  V30 3534 C 332.15 -0.340169 3.58992 0
M  V30 3535 O 331.254 -1.41982 3.87188 0
M  V30 3536 H 330.595 0.0149556 0.663832 0
M  V30 3537 H 333.125 0.667878 1.93392 0
M  V30 3538 H 333.135 -0.579332 4.03866 0
M  V30 3539 H 331.81 0.570167 4.11973 0
M  V30 3540 H 330.387 -1.16762 3.54148 0
M  V30 3541 N 332.573 -1.56217 0.208337 0
M  V30 3542 C 333.503 -2.22694 -0.702116 0
M  V30 3543 C 334.484 -1.19432 -1.2112 0
M  V30 3544 O 335.669 -1.47978 -1.25762 0
M  V30 3545 C 332.799 -2.8966 -1.9161 0
M  V30 3546 C 331.753 -3.9928 -1.5414 0
M  V30 3547 C 331.079 -4.53476 -2.83308 0
M  V30 3548 C 332.379 -5.17012 -0.741339 0
M  V30 3549 H 334.073 -2.99034 -0.147898 0
M  V30 3550 H 331.619 -1.43831 -0.0696951 0
M  V30 3551 H 333.572 -3.34852 -2.55836 0
M  V30 3552 H 332.296 -2.10746 -2.49507 0
M  V30 3553 H 330.955 -3.54799 -0.922668 0
M  V30 3554 H 330.603 -3.71308 -3.39322 0
M  V30 3555 H 330.303 -5.27451 -2.58976 0
M  V30 3556 H 331.827 -5.01378 -3.485 0
M  V30 3557 H 333.241 -5.58667 -1.28699 0
M  V30 3558 H 331.638 -5.97137 -0.595627 0
M  V30 3559 H 332.708 -4.8423 0.254851 0
M  V30 3560 N 334.051 0.0651679 -1.57465 0
M  V30 3561 C 335.297 0.764193 -1.87851 0
M  V30 3562 C 335.63 1.76889 -0.801495 0
M  V30 3563 O 334.905 1.93594 0.187528 0
M  V30 3564 C 335.188 1.46625 -3.28897 0
M  V30 3565 C 335.041 0.477515 -4.47258 0
M  V30 3566 C 336.36 2.4095 -3.68281 0
M  V30 3567 H 333.479 0.276351 -0.683227 0
M  V30 3568 H 336.121 0.0272868 -1.8998 0
M  V30 3569 H 334.271 2.09438 -3.27212 0
M  V30 3570 H 335.943 -0.145922 -4.61069 0
M  V30 3571 H 334.186 -0.206576 -4.33308 0
M  V30 3572 H 334.857 1.0065 -5.42746 0
M  V30 3573 H 337.333 1.88209 -3.71102 0
M  V30 3574 H 336.209 2.87072 -4.67847 0
M  V30 3575 H 336.47 3.26049 -2.98571 0
M  V30 3576 N 335.529 1.53961 0.336706 0
M  V30 3577 C 336.439 1.85432 1.43708 0
M  V30 3578 C 337.455 0.745053 1.57242 0
M  V30 3579 O 338.631 1.03804 1.72588 0
M  V30 3580 C 335.696 2.06349 2.78605 0
M  V30 3581 C 334.757 3.30191 2.74358 0
M  V30 3582 C 333.99 3.50101 4.02822 0
M  V30 3583 O 334.213 2.7371 5.00439 0
M  V30 3584 O 333.147 4.43547 4.06878 0
M  V30 3585 H 336.973 2.78975 1.20028 0
M  V30 3586 H 334.558 1.39701 0.52952 0
M  V30 3587 H 336.44 2.21513 3.58483 0
M  V30 3588 H 335.115 1.15995 3.02203 0
M  V30 3589 H 334.022 3.20425 1.93078 0
M  V30 3590 H 335.355 4.2056 2.55715 0
M  V30 3591 N 337.007 -0.598083 1.45811 0
M  V30 3592 C 338.253 -1.35882 1.50545 0
M  V30 3593 C 338.586 -1.93616 0.150445 0
M  V30 3594 O 337.861 -1.75604 -0.83628 0
M  V30 3595 C 338.144 -2.49966 2.59208 0
M  V30 3596 C 337.997 -1.97367 4.04186 0
M  V30 3597 C 339.316 -3.52068 2.64076 0
M  V30 3598 H 336.435 -0.492717 0.548087 0
M  V30 3599 H 339.077 -0.673319 1.77669 0
M  V30 3600 H 337.227 -3.08443 2.3621 0
M  V30 3601 H 338.899 -1.43466 4.38423 0
M  V30 3602 H 337.142 -1.283 4.14393 0
M  V30 3603 H 337.813 -2.79649 4.75921 0
M  V30 3604 H 340.289 -3.03448 2.84708 0
M  V30 3605 H 339.165 -4.2937 3.41954 0
M  V30 3606 H 339.426 -4.08304 1.69531 0
M  V30 3607 N 338.485 -1.33259 -0.841409 0
M  V30 3608 C 339.901 -1.12538 -1.13169 0
M  V30 3609 C 340.101 0.0854037 -2.01319 0
M  V30 3610 O 339.157 0.766417 -2.40587 0
M  V30 3611 C 340.47 -2.41156 -1.79623 0
M  V30 3612 C 342.018 -2.47038 -1.922 0
M  V30 3613 C 342.493 -3.7561 -2.6207 0
M  V30 3614 N 343.984 -3.76667 -2.69585 0
M  V30 3615 C 344.719 -4.72861 -3.2433 0
M  V30 3616 N 344.215 -5.79428 -3.79783 0
M  V30 3617 N 346.008 -4.6034 -3.22558 0
M  V30 3618 H 338.159 -2.10868 -0.254676 0
M  V30 3619 H 340.422 -0.931615 -0.175493 0
M  V30 3620 H 340.128 -3.29747 -1.22311 0
M  V30 3621 H 340.002 -2.53114 -2.79666 0
M  V30 3622 H 342.389 -1.58898 -2.48667 0
M  V30 3623 H 342.47 -2.39022 -0.911148 0
M  V30 3624 H 342.114 -4.64131 -2.06263 0
M  V30 3625 H 342.044 -3.80902 -3.63622 0
M  V30 3626 H 344.535 -2.99648 -2.30259 0
M  V30 3627 H 344.848 -6.48867 -4.19752 0
M  V30 3628 H 343.193 -5.83166 -3.78078 0
M  V30 3629 H 346.384 -3.76244 -2.78492 0
M  V30 3630 H 346.557 -5.35478 -3.64921 0
M  V30 3631 N 339.963 1.05934 -1.16686 0
M  V30 3632 C 341.211 1.78447 -0.948744 0
M  V30 3633 C 341.532 1.87813 0.524523 0
M  V30 3634 O 340.802 1.38945 1.38098 0
M  V30 3635 H 339.382 0.660971 -0.348033 0
M  V30 3636 H 342.044 1.27947 -1.47022 0
M  V30 3637 H 341.14 2.80394 -1.37061 0
M  V30 3638 N 341.441 0.965919 1.2453 0
M  V30 3639 C 342.666 0.643971 1.97149 0
M  V30 3640 C 343.091 -0.779487 1.71189 0
M  V30 3641 O 342.449 -1.5288 0.974553 0
M  V30 3642 C 342.497 0.922557 3.48599 0
M  V30 3643 O 341.601 0.00707672 4.12399 0
M  V30 3644 H 340.942 0.243647 0.617683 0
M  V30 3645 H 343.472 1.29558 1.58353 0
M  V30 3646 H 343.482 0.853373 3.98976 0
M  V30 3647 H 342.157 1.95996 3.66822 0
M  V30 3648 H 340.734 0.12943 3.72675 0
M  V30 3649 N 342.919 -1.39368 0.735821 0
M  V30 3650 C 344.159 -2.02349 0.288813 0
M  V30 3651 C 344.523 -1.57127 -1.10341 0
M  V30 3652 O 345.724 -2.12312 -1.64854 0
M  V30 3653 C 343.995 -3.55288 0.387986 0
M  V30 3654 S 345.554 -4.38795 0.0209408 0
M  V30 3655 H 342.372 -0.701944 0.113115 0
M  V30 3656 H 344.974 -1.70164 0.962518 0
M  V30 3657 H 343.678 -3.85691 1.40252 0
M  V30 3658 H 343.209 -3.92227 -0.303512 0
M  V30 3659 H 345.224 -4.81595 -1.19503 0
M  V30 3660 N 344.397 -0.483516 -1.5 0
M  V30 3661 C 345.643 0.0672592 -2.02688 0
M  V30 3662 C 345.976 1.38247 -1.36387 0
M  V30 3663 O 345.251 1.88131 -0.493675 0
M  V30 3664 C 345.534 0.238109 -3.59312 0
M  V30 3665 C 345.387 -1.099 -4.36168 0
M  V30 3666 C 346.706 0.986916 -4.28892 0
M  V30 3667 H 343.825 0.0229696 -0.736642 0
M  V30 3668 H 346.467 -0.631527 -1.79197 0
M  V30 3669 H 344.617 0.8333 -3.79458 0
M  V30 3670 H 346.289 -1.73172 -4.27562 0
M  V30 3671 H 344.532 -1.69261 -3.99416 0
M  V30 3672 H 345.203 -0.932954 -5.44059 0
M  V30 3673 H 347.679 0.482302 -4.13295 0
M  V30 3674 H 346.555 1.07527 -5.38265 0
M  V30 3675 H 346.816 2.0265 -3.92919 0
M  V30 3676 N 345.875 1.56104 -0.216619 0
M  V30 3677 C 346.823 2.21434 0.712036 0
M  V30 3678 C 347.817 1.19218 1.20348 0
M  V30 3679 O 349.023 1.3731 1.16387 0
M  V30 3680 H 345.398 0.70992 0.248026 0
M  V30 3681 H 347.369 2.98083 0.137558 0
M  V30 3682 C 346.118 2.90434 1.91163 0
M  V30 3683 H 345.441 3.68842 1.54258 0
M  V30 3684 H 346.881 3.39552 2.5393 0
M  V30 3685 C 345.34 1.92635 2.76394 0
M  V30 3686 O 345.87 1.44017 3.74996 0
M  V30 3687 N 344.076 1.60392 2.42328 0
M  V30 3688 H 343.623 2.00122 1.622 0
M  V30 3689 H 343.581 0.952159 2.99635 0
M  V30 3690 N 347.353 -0.0568162 1.57498 0
M  V30 3691 C 348.301 -1.08452 2.05769 0
M  V30 3692 C 349.295 -1.39164 0.965903 0
M  V30 3693 O 350.501 -1.38395 1.15095 0
M  V30 3694 H 346.876 -0.367148 0.656282 0
M  V30 3695 H 348.847 -0.651368 2.91204 0
M  V30 3696 C 347.596 -2.38543 2.52968 0
M  V30 3697 H 346.919 -2.15765 3.36579 0
M  V30 3698 H 348.359 -3.08863 2.90481 0
M  V30 3699 C 346.818 -3.05562 1.41893 0
M  V30 3700 O 347.348 -3.94262 0.769442 0
M  V30 3701 N 345.554 -2.6643 1.16032 0
M  V30 3702 H 345.101 -1.94387 1.6903 0
M  V30 3703 H 345.059 -3.11593 0.419219 0
M  V30 3704 N 348.832 -1.54138 -0.328536 0
M  V30 3705 C 350.057 -1.76378 -1.09112 0
M  V30 3706 C 350.482 -0.508596 -1.81094 0
M  V30 3707 O 349.84 0.539598 -1.73084 0
M  V30 3708 C 349.888 -2.95358 -2.06872 0
M  V30 3709 O 348.992 -2.66556 -3.14677 0
M  V30 3710 H 348.333 -0.584614 -0.314838 0
M  V30 3711 H 350.863 -2.01146 -0.374348 0
M  V30 3712 H 350.873 -3.22566 -2.4983 0
M  V30 3713 H 349.548 -3.86385 -1.5388 0
M  V30 3714 H 348.125 -2.50282 -2.7643 0
M  V30 3715 N 350.31 0.590341 -1.46126 0
M  V30 3716 C 351.22 1.72793 -1.58681 0
M  V30 3717 C 352.236 1.67516 -0.470566 0
M  V30 3718 O 353.412 1.87562 -0.733642 0
M  V30 3719 C 350.477 3.09287 -1.5666 0
M  V30 3720 C 349.538 3.25886 -2.79458 0
M  V30 3721 C 348.771 4.55869 -2.77524 0
M  V30 3722 O 348.994 5.3928 -1.85832 0
M  V30 3723 O 347.928 4.75552 -3.68964 0
M  V30 3724 H 351.754 1.65149 -2.54872 0
M  V30 3725 H 349.339 0.756486 -1.28832 0
M  V30 3726 H 351.221 3.90577 -1.58202 0
M  V30 3727 H 349.896 3.17385 -0.636271 0
M  V30 3728 H 348.803 2.44119 -2.83472 0
M  V30 3729 H 350.136 3.22675 -3.71674 0
M  V30 3730 N 351.788 1.33704 0.83433 0
M  V30 3731 C 352.698 1.26382 1.97648 0
M  V30 3732 C 353.714 0.173548 1.73132 0
M  V30 3733 O 354.89 0.397962 1.97429 0
M  V30 3734 C 351.955 1.00769 3.31733 0
M  V30 3735 C 351.016 2.1884 3.69334 0
M  V30 3736 C 350.249 1.9444 4.9702 0
M  V30 3737 O 350.472 0.896961 5.63303 0
M  V30 3738 O 349.406 2.81093 5.32231 0
M  V30 3739 H 353.232 2.22444 2.06767 0
M  V30 3740 H 350.817 1.13795 0.968037 0
M  V30 3741 H 352.699 0.882186 4.12062 0
M  V30 3742 H 351.374 0.0773783 3.23608 0
M  V30 3743 H 350.281 2.36946 2.89495 0
M  V30 3744 H 351.614 3.10221 3.82131 0
M  V30 3745 N 353.266 -1.05314 1.17247 0
M  V30 3746 C 354.213 -2.13031 0.888058 0
M  V30 3747 C 355.183 -1.65253 -0.167537 0
M  V30 3748 O 356.368 -1.90775 -0.0305974 0
M  V30 3749 C 353.508 -3.42702 0.406147 0
M  V30 3750 C 352.621 -4.04161 1.52572 0
M  V30 3751 C 351.756 -5.21744 0.997808 0
M  V30 3752 C 350.795 -5.75207 2.09291 0
M  V30 3753 N 349.932 -6.84094 1.57986 0
M  V30 3754 H 354.772 -2.36698 1.81048 0
M  V30 3755 H 352.309 -1.16121 0.903013 0
M  V30 3756 H 354.267 -4.17059 0.108305 0
M  V30 3757 H 352.897 -3.19222 -0.479313 0
M  V30 3758 H 351.949 -3.27253 1.93931 0
M  V30 3759 H 353.261 -4.39881 2.35172 0
M  V30 3760 H 352.415 -6.03168 0.653739 0
M  V30 3761 H 351.154 -4.87495 0.141232 0
M  V30 3762 H 350.159 -4.92414 2.44557 0
M  V30 3763 H 351.384 -6.11505 2.95362 0
M  V30 3764 H 349.33 -6.51745 0.74598 0
M  V30 3765 H 349.247 -7.18811 2.34195 0
M  V30 3766 H 350.515 -7.69172 1.26468 0
M  V30 3767 N 354.744 -0.972509 -1.24016 0
M  V30 3768 C 356.021 -0.553733 -1.87598 0
M  V30 3769 C 356.401 0.969158 -1.87538 0
M  V30 3770 O 355.749 1.84255 -1.35139 0
M  V30 3771 C 355.959 -1.15076 -3.29482 0
M  V30 3772 C 357.307 -1.23862 -4.06132 0
M  V30 3773 O 358.331 -1.10363 -3.38672 0
M  V30 3774 O 357.19 -1.45252 -5.26844 0
M  V30 3775 H 354.284 -0.185331 -0.805966 0
M  V30 3776 H 356.83 -1.06709 -1.31952 0
M  V30 3777 H 355.602 -2.19333 -3.2405 0
M  V30 3778 H 355.225 -0.621746 -3.92709 0
M  V30 3779 N 356.222 1.38976 -0.743202 0
M  V30 3780 C 357.468 2.0064 -0.295189 0
M  V30 3781 C 357.801 1.5885 1.11716 0
M  V30 3782 O 357.076 0.821181 1.76315 0
M  V30 3783 C 357.359 3.578 -0.406318 0
M  V30 3784 C 357.212 4.09586 -1.85903 0
M  V30 3785 C 358.531 4.39616 0.206439 0
M  V30 3786 H 355.65 0.728935 -0.108733 0
M  V30 3787 H 358.292 1.65067 -0.940897 0
M  V30 3788 H 356.442 3.88235 0.143419 0
M  V30 3789 H 358.114 3.89837 -2.46627 0
M  V30 3790 H 356.357 3.6284 -2.3776 0
M  V30 3791 H 357.028 5.18708 -1.888 0
M  V30 3792 H 359.504 4.15273 -0.262283 0
M  V30 3793 H 358.38 5.48812 0.0983819 0
M  V30 3794 H 358.641 4.22754 1.2935 0
M  V30 3795 N 357.7 0.491464 1.49741 0
M  V30 3796 C 359.111 0.0413169 1.86654 0
M  V30 3797 C 359.462 -1.36985 1.40462 0
M  V30 3798 O 358.587 -2.01917 0.778354 0
M  V30 3799 C 359.182 0.0682023 3.38731 0
M  V30 3800 C 357.741 -0.32656 3.74981 0
M  V30 3801 C 356.888 0.444888 2.73708 0
M  V30 3802 H 359.839 0.704733 1.42194 0
M  V30 3803 H 359.86 -0.729322 3.73445 0
M  V30 3804 H 359.372 1.09539 3.72321 0
M  V30 3805 H 357.473 -1.35734 3.46997 0
M  V30 3806 H 357.586 -0.013741 4.79098 0
M  V30 3807 H 355.95 -0.104062 2.54487 0
M  V30 3808 H 356.733 1.47197 3.10142 0
M  V30 3809 N 359.178 -1.55987 0.224894 0
M  V30 3810 C 360.125 -2.20436 -0.68385 0
M  V30 3811 C 361.095 -1.16102 -1.18783 0
M  V30 3812 O 362.28 -1.4447 -1.24632 0
M  V30 3813 C 359.42 -2.89076 -1.88491 0
M  V30 3814 C 358.533 -4.08012 -1.41951 0
M  V30 3815 C 357.668 -4.64426 -2.5784 0
M  V30 3816 C 356.707 -5.75656 -2.08053 0
M  V30 3817 N 355.844 -6.26347 -3.17227 0
M  V30 3818 H 360.684 -2.97727 -0.12754 0
M  V30 3819 H 358.221 -1.47011 -0.0511978 0
M  V30 3820 H 360.179 -3.27059 -2.59014 0
M  V30 3821 H 358.809 -2.14298 -2.41405 0
M  V30 3822 H 357.861 -3.75492 -0.609095 0
M  V30 3823 H 359.173 -4.88375 -1.01447 0
M  V30 3824 H 358.327 -5.04869 -3.3644 0
M  V30 3825 H 357.066 -3.83233 -3.01635 0
M  V30 3826 H 356.071 -5.34712 -1.27916 0
M  V30 3827 H 357.296 -6.58686 -1.65255 0
M  V30 3828 H 355.242 -5.48067 -3.60497 0
M  V30 3829 H 355.159 -7.01843 -2.80986 0
M  V30 3830 H 356.427 -6.71447 -3.95953 0
M  V30 3831 N 360.656 0.0484629 -1.57525 0
M  V30 3832 C 361.589 1.08755 -2.00618 0
M  V30 3833 C 362.567 1.36272 -0.887058 0
M  V30 3834 O 363.751 1.49255 -1.15131 0
M  V30 3835 C 360.878 2.42675 -2.36277 0
M  V30 3836 C 359.924 2.31142 -3.58435 0
M  V30 3837 S 360.757 1.68326 -5.08357 0
M  V30 3838 C 361.913 3.03776 -5.47239 0
M  V30 3839 H 362.146 0.720415 -2.88439 0
M  V30 3840 H 359.679 0.257801 -1.52233 0
M  V30 3841 H 361.637 3.19699 -2.57494 0
M  V30 3842 H 360.298 2.76541 -1.48942 0
M  V30 3843 H 359.491 3.29957 -3.80978 0
M  V30 3844 H 359.093 1.62258 -3.36969 0
M  V30 3845 H 361.385 4.00106 -5.46737 0
M  V30 3846 H 362.328 2.85988 -6.47778 0
M  V30 3847 H 362.736 3.05456 -4.74718 0
M  V30 3848 N 362.134 1.5431 0.320358 0
M  V30 3849 C 363.364 1.7638 1.07582 0
M  V30 3850 C 363.772 0.513944 1.82086 0
M  V30 3851 O 363.115 -0.525123 1.76035 0
M  V30 3852 C 363.177 2.9055 2.1171 0
M  V30 3853 C 362.841 4.2934 1.56575 0
M  V30 3854 C 363.838 5.10077 1.00586 0
M  V30 3855 C 361.523 4.75893 1.60722 0
M  V30 3856 C 363.517 6.35477 0.494756 0
M  V30 3857 C 361.204 6.0126 1.09224 0
M  V30 3858 C 362.202 6.80886 0.53696 0
M  V30 3859 O 361.89 8.03894 0.0297371 0
M  V30 3860 H 361.622 0.592369 0.325692 0
M  V30 3861 H 364.176 2.02019 0.37116 0
M  V30 3862 H 362.406 2.60489 2.85801 0
M  V30 3863 H 364.095 3.00373 2.73003 0
M  V30 3864 H 364.861 4.75265 0.966869 0
M  V30 3865 H 360.74 4.13957 2.02882 0
M  V30 3866 H 364.284 6.97574 0.0606842 0
M  V30 3867 H 360.181 6.35562 1.12831 0
M  V30 3868 H 360.949 8.18372 0.14486 0
M  V30 3869 N 363.613 -0.582584 1.46437 0
M  V30 3870 C 364.853 -1.35184 1.53312 0
M  V30 3871 C 365.217 -1.9115 0.180508 0
M  V30 3872 O 366.418 -2.68514 0.124017 0
M  V30 3873 C 364.689 -2.45089 2.60127 0
M  V30 3874 S 366.248 -3.32439 2.86408 0
M  V30 3875 H 363.066 -0.460559 0.54167 0
M  V30 3876 H 365.668 -0.669709 1.83671 0
M  V30 3877 H 364.372 -2.02366 3.57038 0
M  V30 3878 H 363.903 -3.18074 2.315 0
M  V30 3879 H 365.918 -4.43924 2.21688 0
M  V30 3880 N 365.091 -1.34144 -0.827227 0
M  V30 3881 C 366.339 -1.26009 -1.58007 0
M  V30 3882 C 366.66 0.170971 -1.94249 0
M  V30 3883 O 365.93 1.10256 -1.61927 0
M  V30 3884 H 364.51 -0.463414 -0.585881 0
M  V30 3885 H 367.172 -1.68005 -0.987951 0
M  V30 3886 H 366.268 -1.86187 -2.50481 0
M  V30 3887 N 366.569 1.04691 -1.17803 0
M  V30 3888 C 367.532 2.10724 -0.901545 0
M  V30 3889 C 368.532 1.6042 0.110437 0
M  V30 3890 O 369.722 1.7377 -0.122303 0
M  V30 3891 C 366.854 3.39084 -0.351409 0
M  V30 3892 H 368.047 2.36686 -1.84174 0
M  V30 3893 H 365.6 1.21015 -0.98919 0
M  V30 3894 H 366.335 3.18782 0.59569 0
M  V30 3895 H 366.12 3.76909 -1.08083 0
M  V30 3896 H 367.61 4.17227 -0.176451 0
M  V30 3897 N 368.047 0.979072 1.23499 0
M  V30 3898 C 369.324 0.563674 1.87302 0
M  V30 3899 C 369.704 -0.959199 1.88049 0
M  V30 3900 O 369.052 -1.83535 1.36114 0
M  V30 3901 C 369.262 1.16822 3.28867 0
M  V30 3902 C 370.61 1.26014 4.0547 0
M  V30 3903 O 371.634 1.12158 3.38082 0
M  V30 3904 O 370.493 1.48044 5.26066 0
M  V30 3905 H 367.587 0.189602 0.804972 0
M  V30 3906 H 370.133 1.07407 1.31384 0
M  V30 3907 H 368.905 2.21049 3.22883 0
M  V30 3908 H 368.528 0.642564 3.92373 0
M  V30 3909 N 369.525 -1.3858 0.750561 0
M  V30 3910 C 370.773 -1.99789 0.30477 0
M  V30 3911 C 371.094 -1.59874 -1.11649 0
M  V30 3912 O 370.364 -0.85417 -1.76297 0
M  V30 3913 H 368.944 -0.738902 0.109694 0
M  V30 3914 H 371.606 -1.69391 0.963983 0
M  V30 3915 H 370.702 -3.09952 0.365499 0
M  V30 3916 N 371.003 -0.499398 -1.49478 0
M  V30 3917 C 371.913 0.284489 -2.32869 0
M  V30 3918 C 372.929 0.968885 -1.44529 0
M  V30 3919 O 374.105 0.95062 -1.77553 0
M  V30 3920 C 371.17 1.33594 -3.19928 0
M  V30 3921 C 370.231 0.665149 -4.24116 0
M  V30 3922 C 369.464 1.6665 -5.07014 0
M  V30 3923 O 369.687 2.89618 -4.91404 0
M  V30 3924 O 368.621 1.22271 -5.8935 0
M  V30 3925 H 372.447 -0.39802 -3.01081 0
M  V30 3926 H 370.032 -0.260758 -1.47107 0
M  V30 3927 H 371.914 1.94431 -3.73864 0
M  V30 3928 H 370.589 2.0014 -2.54412 0
M  V30 3929 H 369.496 0.0170769 -3.74096 0
M  V30 3930 H 370.829 0.0421555 -4.92182 0
M  V30 3931 N 372.481 1.55866 -0.233164 0
M  V30 3932 C 373.727 1.99643 0.389148 0
M  V30 3933 C 374.082 1.11836 1.56558 0
M  V30 3934 O 373.375 0.170848 1.90837 0
M  V30 3935 C 373.569 3.46856 0.861724 0
M  V30 3936 C 373.398 4.48904 -0.267376 0
M  V30 3937 C 372.168 4.99888 -0.737577 0
M  V30 3938 C 374.366 5.02624 -1.08966 0
M  V30 3939 N 372.348 5.8566 -1.84052 0
M  V30 3940 C 373.719 5.85434 -2.04125 0
M  V30 3941 C 375.774 4.84959 -1.12779 0
M  V30 3942 C 374.477 6.52466 -3.02789 0
M  V30 3943 C 376.503 5.52759 -2.10266 0
M  V30 3944 C 375.865 6.35346 -3.04162 0
M  V30 3945 H 371.964 0.774402 0.108742 0
M  V30 3946 H 374.548 1.91572 -0.347596 0
M  V30 3947 H 372.719 3.55352 1.5678 0
M  V30 3948 H 374.451 3.77531 1.45783 0
M  V30 3949 H 371.206 4.7249 -0.324122 0
M  V30 3950 H 371.63 6.33246 -2.39434 0
M  V30 3951 H 376.272 4.20751 -0.415749 0
M  V30 3952 H 373.99 7.15849 -3.74948 0
M  V30 3953 H 377.576 5.41051 -2.13905 0
M  V30 3954 H 376.456 6.86883 -3.78366 0
M  V30 3955 N 373.959 -0.0401083 1.57549 0
M  V30 3956 C 374.889 -1.04384 2.08869 0
M  V30 3957 C 375.87 -1.38407 0.988817 0
M  V30 3958 O 377.055 -1.47483 1.26342 0
M  V30 3959 C 374.185 -2.34808 2.55895 0
M  V30 3960 C 373.139 -2.15057 3.70047 0
M  V30 3961 C 372.465 -3.51145 4.03239 0
M  V30 3962 C 373.765 -1.54576 4.98902 0
M  V30 3963 H 375.459 -0.616666 2.92981 0
M  V30 3964 H 373.005 -0.295184 1.40942 0
M  V30 3965 H 374.958 -3.05346 2.90417 0
M  V30 3966 H 373.682 -2.79565 1.68853 0
M  V30 3967 H 372.341 -1.46954 3.35857 0
M  V30 3968 H 371.989 -3.93529 3.13279 0
M  V30 3969 H 371.689 -3.38758 4.80122 0
M  V30 3970 H 373.213 -4.23062 4.40285 0
M  V30 3971 H 374.627 -2.15017 5.31451 0
M  V30 3972 H 373.024 -1.52796 5.80322 0
M  V30 3973 H 374.094 -0.51039 4.82206 0
M  V30 3974 N 375.437 -1.54477 -0.31217 0
M  V30 3975 C 376.683 -1.73483 -1.0503 0
M  V30 3976 C 377.016 -0.513125 -1.87298 0
M  V30 3977 O 376.291 0.489864 -1.8823 0
M  V30 3978 C 376.574 -3.01723 -1.96558 0
M  V30 3979 C 376.427 -4.3417 -1.17545 0
M  V30 3980 C 377.746 -3.25772 -2.95907 0
M  V30 3981 H 374.865 -0.631222 -0.380432 0
M  V30 3982 H 377.507 -1.87184 -0.325932 0
M  V30 3983 H 375.657 -2.90174 -2.58324 0
M  V30 3984 H 377.329 -4.5762 -0.581513 0
M  V30 3985 H 375.572 -4.31159 -0.477925 0
M  V30 3986 H 376.243 -5.20143 -1.84811 0
M  V30 3987 H 378.719 -3.36857 -2.44267 0
M  V30 3988 H 377.595 -4.16838 -3.57123 0
M  V30 3989 H 377.856 -2.43537 -3.68974 0
M  V30 3990 N 376.915 0.57481 -1.46744 0
M  V30 3991 C 378.326 1.15695 -1.46532 0
M  V30 3992 C 378.677 1.95068 -0.210425 0
M  V30 3993 O 377.802 2.05241 0.685944 0
M  V30 3994 C 378.397 2.1048 -2.65487 0
M  V30 3995 C 376.956 2.64002 -2.68291 0
M  V30 3996 C 376.103 1.40026 -2.39349 0
M  V30 3997 H 379.054 0.362325 -1.54509 0
M  V30 3998 H 379.075 2.94074 -2.41455 0
M  V30 3999 H 378.587 1.52683 -3.56805 0
M  V30 4000 H 376.688 3.25646 -1.81067 0
M  V30 4001 H 376.801 3.06197 -3.68483 0
M  V30 4002 H 375.165 1.70106 -1.89568 0
M  V30 4003 H 375.948 0.840485 -3.32852 0
M  V30 4004 N 378.394 1.34581 0.820102 0
M  V30 4005 C 379.643 1.26437 1.57151 0
M  V30 4006 C 379.956 -0.163111 1.94919 0
M  V30 4007 O 381.162 -0.366722 2.69012 0
M  V30 4008 C 379.618 2.21658 2.83541 0
M  V30 4009 C 379.226 3.69679 2.53065 0
M  V30 4010 C 380.97 2.22428 3.61561 0
M  V30 4011 C 378.877 4.56761 3.75664 0
M  V30 4012 H 377.807 0.469707 0.589823 0
M  V30 4013 H 380.458 1.59763 0.902656 0
M  V30 4014 H 378.84 1.81287 3.52067 0
M  V30 4015 H 380.014 4.18605 1.92631 0
M  V30 4016 H 378.329 3.71384 1.88316 0
M  V30 4017 H 380.926 2.8471 4.52597 0
M  V30 4018 H 381.269 1.22434 3.97889 0
M  V30 4019 H 381.802 2.61259 2.99981 0
M  V30 4020 H 378.541 5.57702 3.44454 0
M  V30 4021 H 378.061 4.12568 4.35371 0
M  V30 4022 H 379.74 4.71509 4.43044 0
M  V30 4023 N 379.872 -1.04064 1.18357 0
M  V30 4024 C 381.12 -1.76915 0.977013 0
M  V30 4025 C 381.441 -1.88624 -0.494577 0
M  V30 4026 O 380.711 -1.41125 -1.3587 0
M  V30 4027 H 379.291 -0.65535 0.358504 0
M  V30 4028 H 381.953 -1.25592 1.49039 0
M  V30 4029 H 381.049 -2.78178 1.41504 0
M  V30 4030 N 381.35 -0.985608 -1.22978 0
M  V30 4031 C 382.298 -0.522631 -2.26652 0
M  V30 4032 C 383.292 0.422998 -1.64034 0
M  V30 4033 O 384.498 0.296319 -1.77544 0
M  V30 4034 H 380.873 -0.150597 -0.736766 0
M  V30 4035 H 382.844 -1.40863 -2.63059 0
M  V30 4036 C 381.593 0.154238 -3.47358 0
M  V30 4037 H 380.916 -0.564329 -3.95797 0
M  V30 4038 H 382.356 0.441744 -4.21693 0
M  V30 4039 C 380.815 1.38719 -3.07016 0
M  V30 4040 O 381.345 2.48307 -3.15764 0
M  V30 4041 N 379.551 1.25975 -2.61875 0
M  V30 4042 H 379.098 0.368068 -2.54957 0
M  V30 4043 H 379.056 2.08578 -2.3525 0
M  V30 4044 N 382.828 1.3818 -0.7579 0
M  V30 4045 C 384.068 2.01864 -0.320968 0
M  V30 4046 C 384.432 1.58863 1.07827 0
M  V30 4047 O 385.633 2.14908 1.61456 0
M  V30 4048 C 383.904 3.54626 -0.44446 0
M  V30 4049 S 385.463 4.38706 -0.0907467 0
M  V30 4050 H 382.281 0.700056 -0.124268 0
M  V30 4051 H 384.883 1.68611 -0.989468 0
M  V30 4052 H 383.587 3.83411 -1.4637 0
M  V30 4053 H 383.118 3.92661 0.241073 0
M  V30 4054 H 385.133 4.83435 1.11826 0
M  V30 4055 N 384.306 0.507319 1.49211 0
M  V30 4056 C 385.236 -0.256939 2.32082 0
M  V30 4057 C 386.217 -0.956609 1.40652 0
M  V30 4058 O 387.402 -0.946788 1.69557 0
M  V30 4059 C 384.532 -1.31802 3.21318 0
M  V30 4060 C 383.486 -0.737855 4.21592 0
M  V30 4061 C 382.812 -1.89992 4.99807 0
M  V30 4062 C 384.112 0.275325 5.21574 0
M  V30 4063 H 385.806 0.434798 2.96226 0
M  V30 4064 H 383.352 0.210546 1.42452 0
M  V30 4065 H 385.305 -1.86045 3.78107 0
M  V30 4066 H 384.029 -2.03903 2.5513 0
M  V30 4067 H 382.688 -0.217126 3.65956 0
M  V30 4068 H 382.336 -2.60877 4.30061 0
M  V30 4069 H 382.036 -1.51777 5.6766 0
M  V30 4070 H 383.56 -2.44657 5.59442 0
M  V30 4071 H 384.974 -0.179193 5.7302 0
M  V30 4072 H 383.371 0.573649 5.97352 0
M  V30 4073 H 384.441 1.18903 4.70096 0
M  V30 4074 N 385.784 -1.5574 0.241426 0
M  V30 4075 C 387.024 -2.00714 -0.38644 0
M  V30 4076 C 387.388 -1.12586 -1.55526 0
M  V30 4077 O 388.589 -1.46992 -2.25048 0
M  V30 4078 C 386.86 -3.48534 -0.791128 0
M  V30 4079 S 388.419 -4.15519 -1.41029 0
M  V30 4080 H 385.237 -0.700484 -0.121834 0
M  V30 4081 H 387.839 -1.92243 0.355377 0
M  V30 4082 H 386.543 -4.10342 0.0689225 0
M  V30 4083 H 386.074 -3.6092 -1.56526 0
M  V30 4084 H 388.089 -4.16352 -2.69936 0
M  V30 4085 N 387.262 0.0317525 -1.57568 0
M  V30 4086 C 388.21 1.05165 -2.07468 0
M  V30 4087 C 389.204 1.3761 -0.98792 0
M  V30 4088 O 390.41 1.36546 -1.17282 0
M  V30 4089 H 386.785 0.35666 -0.66204 0
M  V30 4090 H 388.756 0.604958 -2.92203 0
M  V30 4091 C 387.505 2.34488 -2.56731 0
M  V30 4092 H 386.828 2.10383 -3.39969 0
M  V30 4093 H 388.268 3.04203 -2.95358 0
M  V30 4094 C 386.727 3.03266 -1.46736 0
M  V30 4095 O 387.257 3.92988 -0.832069 0
M  V30 4096 N 385.463 2.6455 -1.20256 0
M  V30 4097 H 385.01 1.91674 -1.72102 0
M  V30 4098 H 384.968 3.10886 -0.468737 0
M  V30 4099 N 388.74 1.54641 0.303973 0
M  V30 4100 C 389.703 1.84646 1.35789 0
M  V30 4101 C 390.703 0.7192 1.4382 0
M  V30 4102 O 391.893 0.987491 1.43507 0
M  V30 4103 C 389.025 2.02407 2.74307 0
M  V30 4104 H 390.218 2.78829 1.10429 0
M  V30 4105 H 387.771 1.46658 0.540487 0
M  V30 4106 H 388.506 1.10502 3.04893 0
M  V30 4107 H 388.291 2.84453 2.69868 0
M  V30 4108 H 389.781 2.27002 3.50514 0
M  V30 4109 N 390.218 -0.567019 1.47046 0
M  V30 4110 C 391.466 -1.322 1.52864 0
M  V30 4111 C 391.787 -1.94088 0.188388 0
M  V30 4112 O 391.057 -1.7941 -0.786693 0
M  V30 4113 H 389.637 -0.490894 0.563056 0
M  V30 4114 H 392.299 -0.662879 1.83281 0
M  V30 4115 H 391.395 -2.12062 2.2899 0
M  V30 4116 N 391.696 -1.35014 -0.812953 0
M  V30 4117 C 392.646 -1.23959 -1.91359 0
M  V30 4118 C 393.63 -0.136306 -1.60322 0
M  V30 4119 O 394.822 -0.366925 -1.73155 0
M  V30 4120 C 391.951 -1.00736 -3.28188 0
M  V30 4121 C 391.037 -2.15426 -3.65311 0
M  V30 4122 N 391.428 -3.40612 -3.73921 0
M  V30 4123 C 389.726 -2.06672 -3.95225 0
M  V30 4124 C 390.427 -4.15994 -4.06601 0
M  V30 4125 N 389.403 -3.44685 -4.20349 0
M  V30 4126 H 393.205 -2.18815 -1.96208 0
M  V30 4127 H 390.719 -1.27395 -1.00718 0
M  V30 4128 H 392.716 -0.909052 -4.06868 0
M  V30 4129 H 391.376 -0.067586 -3.2463 0
M  V30 4130 H 392.387 -3.75043 -3.5716 0
M  V30 4131 H 389.064 -1.20511 -3.99729 0
M  V30 4132 H 390.454 -5.24145 -4.20382 0
M  V30 4133 N 393.175 1.03435 -1.18907 0
M  V30 4134 C 394.085 2.15075 -0.937015 0
M  V30 4135 C 395.101 1.73706 0.101085 0
M  V30 4136 O 396.277 2.01232 -0.0822948 0
M  V30 4137 C 393.342 3.43458 -0.473057 0
M  V30 4138 C 392.403 3.99172 -1.57989 0
M  V30 4139 C 391.636 5.21427 -1.13797 0
M  V30 4140 O 391.859 5.704 0.000725941 0
M  V30 4141 O 390.793 5.69837 -1.9383 0
M  V30 4142 H 394.619 2.39198 -1.87131 0
M  V30 4143 H 392.204 1.13506 -0.971427 0
M  V30 4144 H 394.086 4.20811 -0.222702 0
M  V30 4145 H 392.761 3.20793 0.432869 0
M  V30 4146 H 391.668 3.23178 -1.88433 0
M  V30 4147 H 393.001 4.2619 -2.46217 0
M  V30 4148 N 394.653 0.992116 1.22453 0
M  V30 4149 C 395.563 0.55065 2.28046 0
M  V30 4150 C 396.579 -0.400189 1.69335 0
M  V30 4151 O 397.755 -0.267215 1.99619 0
M  V30 4152 C 394.82 -0.128496 3.46462 0
M  V30 4153 C 393.881 0.865208 4.20491 0
M  V30 4154 C 393.114 0.218377 5.33253 0
M  V30 4155 O 393.337 -0.987894 5.6178 0
M  V30 4156 O 392.271 0.922845 5.94783 0
M  V30 4157 H 396.097 1.4291 2.67975 0
M  V30 4158 H 393.682 0.760326 1.28606 0
M  V30 4159 H 395.564 -0.508947 4.18315 0
M  V30 4160 H 394.239 -0.981526 3.0846 0
M  V30 4161 H 393.146 1.29658 3.50913 0
M  V30 4162 H 394.479 1.68741 4.62371 0
M  V30 4163 N 396.131 -1.37776 0.765217 0
M  V30 4164 C 397.547 -1.53297 0.444108 0
M  V30 4165 C 397.747 -1.72515 -1.04119 0
M  V30 4166 O 396.803 -1.74278 -1.82711 0
M  V30 4167 C 398.116 -2.73328 1.25349 0
M  V30 4168 C 399.664 -2.87185 1.24473 0
M  V30 4169 C 400.139 -4.10191 2.03733 0
M  V30 4170 N 401.63 -4.17291 2.01053 0
M  V30 4171 C 402.365 -5.11488 2.59166 0
M  V30 4172 N 401.861 -6.11285 3.26041 0
M  V30 4173 N 403.654 -5.03924 2.49032 0
M  V30 4174 H 395.805 -1.23552 1.72768 0
M  V30 4175 H 398.068 -0.601103 0.733062 0
M  V30 4176 H 397.774 -2.6557 2.30577 0
M  V30 4177 H 397.648 -3.66834 0.87823 0
M  V30 4178 H 400.035 -2.94418 0.20047 0
M  V30 4179 H 400.116 -1.94657 1.65959 0
M  V30 4180 H 399.76 -4.0372 3.08176 0
M  V30 4181 H 399.69 -5.01821 1.59633 0
M  V30 4182 H 402.181 -3.45825 1.5236 0
M  V30 4183 H 402.494 -6.79678 3.67774 0
M  V30 4184 H 400.839 -6.11583 3.30138 0
M  V30 4185 H 404.03 -4.24902 1.96407 0
M  V30 4186 H 404.203 -5.77152 2.94617 0
M  V30 4187 N 397.609 -0.515225 -1.4894 0
M  V30 4188 C 398.834 0.022727 -2.07388 0
M  V30 4189 C 399.259 1.2876 -1.37122 0
M  V30 4190 O 398.617 1.76067 -0.432431 0
M  V30 4191 C 398.665 0.244869 -3.59768 0
M  V30 4192 O 397.769 1.31667 -3.90817 0
M  V30 4193 H 397.11 -0.0325506 -0.663202 0
M  V30 4194 H 399.64 -0.718918 -1.91553 0
M  V30 4195 H 399.65 0.47205 -4.0526 0
M  V30 4196 H 398.325 -0.679194 -4.10317 0
M  V30 4197 H 396.902 1.07331 -3.5712 0
M  V30 4198 N 399.087 1.5561 -0.249682 0
M  V30 4199 C 400.335 1.98618 0.373548 0
M  V30 4200 C 400.656 1.13919 1.58264 0
M  V30 4201 O 399.926 0.222637 1.94631 0
M  V30 4202 H 398.506 0.733571 0.141006 0
M  V30 4203 H 401.168 1.91748 -0.349117 0
M  V30 4204 H 400.264 3.04584 0.680796 0
M  V30 4205 N 400.565 -0.0233959 1.57583 0
M  V30 4206 C 401.475 -1.03907 2.10334 0
M  V30 4207 C 402.491 -1.39257 1.04323 0
M  V30 4208 O 403.667 -1.48462 1.36091 0
M  V30 4209 C 400.732 -2.31938 2.57693 0
M  V30 4210 C 399.793 -2.03117 3.78209 0
M  V30 4211 C 399.026 -3.25043 4.233 0
M  V30 4212 O 399.249 -4.35916 3.67876 0
M  V30 4213 O 398.183 -3.10411 5.15683 0
M  V30 4214 H 402.009 -0.620748 2.97288 0
M  V30 4215 H 399.594 -0.240743 1.47448 0
M  V30 4216 H 401.476 -3.07196 2.88458 0
M  V30 4217 H 400.151 -2.73055 1.73847 0
M  V30 4218 H 399.058 -1.25408 3.52454 0
M  V30 4219 H 400.391 -1.66852 4.63056 0
M  V30 4220 N 402.043 -1.548 -0.295768 0
M  V30 4221 C 403.283 -1.76069 -1.03823 0
M  V30 4222 C 403.647 -0.537992 -1.84309 0
M  V30 4223 O 404.848 -0.628514 -2.61349 0
M  V30 4224 C 403.119 -3.01705 -1.91596 0
M  V30 4225 S 404.678 -3.43998 -2.72416 0
M  V30 4226 H 401.496 -0.618852 -0.350062 0
M  V30 4227 H 404.098 -1.93009 -0.31106 0
M  V30 4228 H 402.802 -3.88812 -1.31351 0
M  V30 4229 H 402.333 -2.87366 -2.68671 0
M  V30 4230 H 404.348 -3.0148 -3.94112 0
M  V30 4231 N 403.521 0.559213 -1.47345 0
M  V30 4232 C 404.453 1.68161 -1.55738 0
M  V30 4233 C 405.466 1.56636 -0.443744 0
M  V30 4234 O 406.655 1.6363 -0.713258 0
M  V30 4235 C 403.755 3.06611 -1.4437 0
M  V30 4236 C 402.928 3.4391 -2.70268 0
M  V30 4237 C 401.987 4.61515 -2.52765 0
M  V30 4238 O 401.013 4.66197 -3.26572 0
M  V30 4239 N 402.215 5.57883 -1.6046 0
M  V30 4240 H 404.98 1.61408 -2.52522 0
M  V30 4241 H 402.541 0.7458 -1.43699 0
M  V30 4242 H 404.533 3.83117 -1.30398 0
M  V30 4243 H 403.103 3.07602 -0.556766 0
M  V30 4244 H 402.323 2.56873 -2.99015 0
M  V30 4245 H 403.611 3.65605 -3.53851 0
M  V30 4246 H 403.009 5.56855 -0.996422 0
M  V30 4247 H 401.566 6.33723 -1.52441 0
M  V30 4248 N 404.999 1.35443 0.805782 0
M  V30 4249 C 405.962 1.28301 1.89925 0
M  V30 4250 C 406.962 0.194285 1.59622 0
M  V30 4251 O 408.152 0.448036 1.6834 0
M  V30 4252 C 405.284 0.984997 3.2636 0
M  V30 4253 H 406.477 2.2553 1.97677 0
M  V30 4254 H 404.03 1.19979 1.00173 0
M  V30 4255 H 404.765 0.016603 3.24296 0
M  V30 4256 H 404.55 1.77269 3.4974 0
M  V30 4257 H 406.04 0.960651 4.064 0
M  V30 4258 N 406.477 -1.02803 1.19454 0
M  V30 4259 C 407.717 -1.77769 1.00883 0
M  V30 4260 C 408.081 -1.86596 -0.45233 0
M  V30 4261 O 409.282 -2.57895 -0.757877 0
M  V30 4262 C 407.553 -3.16486 1.66046 0
M  V30 4263 S 409.112 -4.07632 1.62424 0
M  V30 4264 H 405.93 -0.611949 0.361993 0
M  V30 4265 H 408.532 -1.23175 1.51816 0
M  V30 4266 H 407.236 -3.0768 2.7159 0
M  V30 4267 H 406.767 -3.76156 1.15196 0
M  V30 4268 H 408.782 -4.91937 0.64903 0
M  V30 4269 N 407.956 -0.998596 -1.21925 0
M  V30 4270 C 408.903 -0.553621 -2.24062 0
M  V30 4271 C 409.873 0.416999 -1.6078 0
M  V30 4272 O 411.058 0.320482 -1.88089 0
M  V30 4273 C 408.198 0.119959 -3.44891 0
M  V30 4274 C 407.311 -0.893077 -4.22668 0
M  V30 4275 C 406.446 -0.192424 -5.30851 0
M  V30 4276 C 405.485 -1.19344 -6.00353 0
M  V30 4277 N 404.622 -0.520707 -7.00166 0
M  V30 4278 H 409.462 -1.4293 -2.61486 0
M  V30 4279 H 406.999 -0.715838 -1.28507 0
M  V30 4280 H 408.957 0.527459 -4.13852 0
M  V30 4281 H 407.587 0.959389 -3.08214 0
M  V30 4282 H 406.639 -1.41886 -3.52948 0
M  V30 4283 H 407.951 -1.65512 -4.70539 0
M  V30 4284 H 407.105 0.271515 -6.06092 0
M  V30 4285 H 405.844 0.602075 -4.83969 0
M  V30 4286 H 404.849 -1.66795 -5.23889 0
M  V30 4287 H 406.074 -1.98891 -6.49322 0
M  V30 4288 H 404.02 0.254252 -6.55507 0
M  V30 4289 H 403.937 -1.2211 -7.46073 0
M  V30 4290 H 405.205 -0.0797596 -7.79459 0
M  V30 4291 N 409.434 1.37368 -0.772513 0
M  V30 4292 C 410.683 1.98918 -0.333861 0
M  V30 4293 C 410.996 1.62017 1.09589 0
M  V30 4294 O 412.202 2.16676 1.63596 0
M  V30 4295 C 410.658 3.55735 -0.545971 0
M  V30 4296 C 410.266 4.01573 -1.98603 0
M  V30 4297 C 412.01 4.24156 -0.170979 0
M  V30 4298 C 409.917 5.51102 -2.1457 0
M  V30 4299 H 408.847 0.744214 -0.121085 0
M  V30 4300 H 411.498 1.56888 -0.95175 0
M  V30 4301 H 409.88 3.95748 0.141387 0
M  V30 4302 H 411.054 3.72803 -2.7084 0
M  V30 4303 H 409.369 3.45937 -2.31769 0
M  V30 4304 H 411.966 5.34024 -0.26878 0
M  V30 4305 H 412.309 4.06917 0.878855 0
M  V30 4306 H 412.842 3.89447 -0.810914 0
M  V30 4307 H 409.581 5.73268 -3.17875 0
M  V30 4308 H 409.101 5.81554 -1.46817 0
M  V30 4309 H 410.78 6.17083 -1.94468 0
M  V30 4310 N 410.912 0.523116 1.48665 0
M  V30 4311 C 412.16 -0.0134497 2.02096 0
M  V30 4312 C 412.481 -1.35418 1.40311 0
M  V30 4313 O 411.751 -1.87543 0.566074 0
M  V30 4314 H 410.331 -0.00795915 0.746958 0
M  V30 4315 H 412.993 0.685388 1.82451 0
M  V30 4316 H 412.089 -0.126849 3.11842 0
M  V30 4317 N 412.39 -1.55475 0.257931 0
M  V30 4318 C 413.62 -2.03314 -0.367026 0
M  V30 4319 C 414.028 -1.13625 -1.51281 0
M  V30 4320 O 413.371 -0.145334 -1.83124 0
M  V30 4321 C 413.433 -3.47362 -0.926284 0
M  V30 4322 C 413.097 -4.56914 0.0886584 0
M  V30 4323 C 414.094 -5.12013 0.902123 0
M  V30 4324 C 411.779 -5.01827 0.217936 0
M  V30 4325 C 413.773 -6.10529 1.83122 0
M  V30 4326 C 411.46 -6.00172 1.15052 0
M  V30 4327 C 412.458 -6.54402 1.95568 0
M  V30 4328 O 412.146 -7.50827 2.87253 0
M  V30 4329 H 411.878 -0.669976 -0.0900443 0
M  V30 4330 H 414.432 -2.01804 0.382673 0
M  V30 4331 H 412.662 -3.46056 -1.72575 0
M  V30 4332 H 414.351 -3.78637 -1.46249 0
M  V30 4333 H 415.117 -4.78139 0.812891 0
M  V30 4334 H 410.996 -4.59272 -0.398721 0
M  V30 4335 H 414.54 -6.52783 2.46008 0
M  V30 4336 H 410.437 -6.33465 1.24064 0
M  V30 4337 H 411.205 -7.68483 2.81739 0
M  V30 4338 N 413.868 0.0150385 -1.57593 0
M  V30 4339 C 415.098 0.713359 -1.93894 0
M  V30 4340 C 415.506 1.68663 -0.857289 0
M  V30 4341 O 414.849 1.82876 0.173788 0
M  V30 4342 C 414.911 1.51348 -3.26089 0
M  V30 4343 C 414.575 0.703451 -4.51554 0
M  V30 4344 C 415.572 -0.00237924 -5.199 0
M  V30 4345 C 413.257 0.653854 -4.98026 0
M  V30 4346 C 415.251 -0.746955 -6.33008 0
M  V30 4347 C 412.938 -0.0944578 -6.11027 0
M  V30 4348 C 413.936 -0.793609 -6.78374 0
M  V30 4349 O 413.624 -1.52974 -7.89211 0
M  V30 4350 H 413.356 0.204637 -0.644282 0
M  V30 4351 H 415.91 -0.0276411 -2.05381 0
M  V30 4352 H 414.14 2.29862 -3.10967 0
M  V30 4353 H 415.829 2.09572 -3.47612 0
M  V30 4354 H 416.595 0.0268803 -4.84993 0
M  V30 4355 H 412.474 1.18756 -4.45441 0
M  V30 4356 H 416.018 -1.2932 -6.85509 0
M  V30 4357 H 411.915 -0.125591 -6.45378 0
M  V30 4358 H 412.683 -1.44488 -8.05646 0
M  V30 4359 N 415.346 1.54954 0.287554 0
M  V30 4360 C 416.293 1.86834 1.35505 0
M  V30 4361 C 417.263 0.718452 1.49758 0
M  V30 4362 O 418.448 0.968358 1.644 0
M  V30 4363 C 415.588 2.13303 2.71286 0
M  V30 4364 C 414.701 3.40883 2.65373 0
M  V30 4365 C 413.836 3.57125 3.93236 0
M  V30 4366 C 412.875 4.78449 3.81776 0
M  V30 4367 N 412.012 4.91426 5.01443 0
M  V30 4368 H 416.852 2.77889 1.07619 0
M  V30 4369 H 414.389 1.37593 0.520241 0
M  V30 4370 H 416.347 2.26646 3.50267 0
M  V30 4371 H 414.977 1.25499 2.97405 0
M  V30 4372 H 414.029 3.36088 1.78182 0
M  V30 4373 H 415.341 4.29993 2.52799 0
M  V30 4374 H 414.495 3.70207 4.80658 0
M  V30 4375 H 413.234 2.66173 4.0866 0
M  V30 4376 H 412.239 4.65386 2.92738 0
M  V30 4377 H 413.464 5.70822 3.67884 0
M  V30 4378 H 411.41 4.03401 5.17304 0
M  V30 4379 H 411.327 5.74559 4.91343 0
M  V30 4380 H 412.595 5.08879 5.90477 0
M  V30 4381 N 416.824 -0.551391 1.4764 0
M  V30 4382 C 417.787 -1.64007 1.60107 0
M  V30 4383 C 418.787 -1.53601 0.47576 0
M  V30 4384 O 419.977 -1.57655 0.740988 0
M  V30 4385 C 417.109 -3.03569 1.55108 0
M  V30 4386 H 418.302 -1.543 2.57161 0
M  V30 4387 H 415.855 -0.771776 1.35917 0
M  V30 4388 H 416.59 -3.18804 0.594519 0
M  V30 4389 H 416.375 -3.12532 2.36783 0
M  V30 4390 H 417.865 -3.82762 1.66982 0
M  V30 4391 N 418.302 -1.35869 -0.798587 0
M  V30 4392 C 419.232 -1.32118 -1.92528 0
M  V30 4393 C 420.213 -0.194209 -1.68988 0
M  V30 4394 O 421.398 -0.390426 -1.90235 0
M  V30 4395 C 418.528 -1.10047 -3.29404 0
M  V30 4396 C 417.482 -2.19471 -3.67446 0
M  V30 4397 C 416.808 -1.82555 -5.02571 0
M  V30 4398 C 418.108 -3.61495 -3.76987 0
M  V30 4399 H 419.802 -2.26394 -1.95924 0
M  V30 4400 H 417.348 -1.08981 -0.94123 0
M  V30 4401 H 419.301 -1.06061 -4.07835 0
M  V30 4402 H 418.025 -0.122195 -3.26371 0
M  V30 4403 H 416.684 -2.22568 -2.91306 0
M  V30 4404 H 416.332 -0.833249 -4.9605 0
M  V30 4405 H 416.032 -2.5581 -5.28995 0
M  V30 4406 H 417.556 -1.80108 -5.83432 0
M  V30 4407 H 418.97 -3.60676 -4.4563 0
M  V30 4408 H 417.367 -4.33577 -4.14887 0
M  V30 4409 H 418.437 -3.97065 -2.78329 0
M  V30 4410 N 419.78 1.02168 -1.19998 0
M  V30 4411 C 421.005 1.79833 -1.03319 0
M  V30 4412 C 421.43 1.83504 0.413281 0
M  V30 4413 O 420.788 1.26635 1.29743 0
M  V30 4414 C 420.836 3.22396 -1.61533 0
M  V30 4415 O 419.94 4.03555 -0.849519 0
M  V30 4416 H 419.281 0.554872 -0.364709 0
M  V30 4417 H 421.811 1.28542 -1.59179 0
M  V30 4418 H 421.821 3.73124 -1.65054 0
M  V30 4419 H 420.496 3.19039 -2.66809 0
M  V30 4420 H 419.073 3.62169 -0.888129 0
M  V30 4421 N 421.258 1.00505 1.21394 0
M  V30 4422 C 422.486 0.706609 1.9446 0
M  V30 4423 C 422.901 -0.73081 1.74082 0
M  V30 4424 O 422.258 -1.49446 1.04747 0
M  V30 4425 C 422.309 1.01824 3.46863 0
M  V30 4426 O 422.03 2.39919 3.66566 0
M  V30 4427 C 423.531 0.739216 4.37093 0
M  V30 4428 H 420.751 0.260394 0.618414 0
M  V30 4429 H 423.295 1.34311 1.54211 0
M  V30 4430 H 421.45 0.427343 3.85036 0
M  V30 4431 H 421.864 2.50784 4.6066 0
M  V30 4432 H 423.338 1.00744 5.42729 0
M  V30 4433 H 423.815 -0.326746 4.37983 0
M  V30 4434 H 424.421 1.31173 4.04566 0
M  V30 4435 N 422.737 -1.36956 0.779787 0
M  V30 4436 C 424.014 -1.93697 0.272156 0
M  V30 4437 C 424.394 -1.71267 -1.23413 0
M  V30 4438 O 423.742 -1.06607 -2.02107 0
M  V30 4439 C 423.952 -3.42812 0.654291 0
M  V30 4440 C 425.3 -4.19921 0.628602 0
M  V30 4441 O 426.324 -3.51209 0.594172 0
M  V30 4442 O 425.183 -5.42465 0.662864 0
M  V30 4443 H 422.277 -0.824447 0.0649286 0
M  V30 4444 H 424.823 -1.46196 0.861682 0
M  V30 4445 H 423.595 -3.52754 1.69353 0
M  V30 4446 H 423.218 -3.97582 0.0381369 0
M  V30 4447 N 424.215 -0.530993 -1.48385 0
M  V30 4448 C 425.178 0.220497 -2.28137 0
M  V30 4449 C 426.178 0.866851 -1.35434 0
M  V30 4450 O 427.368 0.726746 -1.58316 0
M  V30 4451 C 424.5 1.31921 -3.1434 0
M  V30 4452 H 425.693 -0.479714 -2.96038 0
M  V30 4453 H 423.246 -0.286968 -1.53643 0
M  V30 4454 H 423.981 2.05264 -2.51072 0
M  V30 4455 H 423.766 0.86085 -3.82533 0
M  V30 4456 H 425.256 1.84776 -3.74497 0
M  V30 4457 N 425.693 1.55336 -0.266172 0
M  V30 4458 C 426.921 2.03801 0.356756 0
M  V30 4459 C 427.336 1.14485 1.50129 0
M  V30 4460 O 426.693 0.163121 1.8177 0
M  V30 4461 C 426.744 3.51455 0.846281 0
M  V30 4462 O 426.465 4.37371 -0.252663 0
M  V30 4463 C 427.966 4.15767 1.53794 0
M  V30 4464 H 425.186 0.665906 0.0825218 0
M  V30 4465 H 427.73 2.00636 -0.39566 0
M  V30 4466 H 425.885 3.55092 1.54881 0
M  V30 4467 H 426.299 5.24358 0.122173 0
M  V30 4468 H 427.773 5.20714 1.83198 0
M  V30 4469 H 428.25 3.63404 2.46646 0
M  V30 4470 H 428.856 4.16107 0.879488 0
M  V30 4471 N 427.171 -0.0066808 1.57599 0
M  V30 4472 C 428.411 -0.697501 1.92131 0
M  V30 4473 C 428.775 -1.71306 0.867071 0
M  V30 4474 O 429.976 -2.45377 1.09743 0
M  V30 4475 C 428.247 -1.32978 3.3174 0
M  V30 4476 S 429.806 -2.04665 3.88146 0
M  V30 4477 H 426.624 -0.230555 0.672581 0
M  V30 4478 H 429.226 0.0484026 1.9544 0
M  V30 4479 H 427.93 -0.57772 4.06313 0
M  V30 4480 H 427.461 -2.11376 3.31789 0
M  V30 4481 H 429.476 -3.32097 3.68682 0
M  V30 4482 N 428.649 -1.55105 -0.279332 0
M  V30 4483 C 429.612 -1.86783 -1.32834 0
M  V30 4484 C 430.612 -0.74199 -1.42657 0
M  V30 4485 O 431.802 -1.0102 -1.41918 0
M  V30 4486 C 428.934 -2.06746 -2.71052 0
M  V30 4487 H 430.127 -2.8055 -1.05979 0
M  V30 4488 H 427.68 -1.47499 -0.517087 0
M  V30 4489 H 428.415 -1.15339 -3.03097 0
M  V30 4490 H 428.2 -2.88711 -2.65309 0
M  V30 4491 H 429.69 -2.32549 -3.46858 0
M  V30 4492 N 430.127 0.543554 -1.4793 0
M  V30 4493 C 431.074 1.64942 -1.6144 0
M  V30 4494 C 432.044 1.59692 -0.456903 0
M  V30 4495 O 433.229 1.78321 -0.678688 0
M  V30 4496 C 430.369 3.03238 -1.64744 0
M  V30 4497 C 429.482 3.18823 -2.91506 0
M  V30 4498 C 428.617 4.47599 -2.86057 0
M  V30 4499 C 427.656 4.56664 -4.07584 0
M  V30 4500 N 426.793 5.76811 -4.00292 0
M  V30 4501 H 431.633 1.52733 -2.55884 0
M  V30 4502 H 429.17 0.7438 -1.2691 0
M  V30 4503 H 431.128 3.83339 -1.64641 0
M  V30 4504 H 429.758 3.1425 -0.738017 0
M  V30 4505 H 428.81 2.32064 -3.01414 0
M  V30 4506 H 430.122 3.21384 -3.81463 0
M  V30 4507 H 429.276 5.35975 -2.84281 0
M  V30 4508 H 428.015 4.47538 -1.93807 0
M  V30 4509 H 427.02 3.66697 -4.09651 0
M  V30 4510 H 428.245 4.58474 -5.00978 0
M  V30 4511 H 426.191 5.77673 -3.10853 0
M  V30 4512 H 426.108 5.80808 -4.8394 0
M  V30 4513 H 427.376 6.67512 -4.02553 0
M  V30 4514 N 431.605 1.3629 0.791371 0
M  V30 4515 C 432.845 1.31792 1.56238 0
M  V30 4516 C 433.209 -0.102237 1.91728 0
M  V30 4517 O 434.41 -0.271759 2.67423 0
M  V30 4518 C 432.681 2.21303 2.80642 0
M  V30 4519 S 434.24 2.34468 3.70904 0
M  V30 4520 H 431.058 0.468141 0.535131 0
M  V30 4521 H 433.66 1.71841 0.932246 0
M  V30 4522 H 432.364 3.23439 2.52617 0
M  V30 4523 H 431.895 1.82266 3.4863 0
M  V30 4524 H 433.91 1.54074 4.71673 0
M  V30 4525 N 433.083 -1.0153 1.20538 0
M  V30 4526 C 434.494 -1.56598 1.01657 0
M  V30 4527 C 434.845 -1.91505 -0.426668 0
M  V30 4528 O 433.97 -1.72375 -1.30827 0
M  V30 4529 C 434.565 -2.84542 1.83905 0
M  V30 4530 C 433.124 -3.36133 1.69386 0
M  V30 4531 C 432.271 -2.09427 1.81757 0
M  V30 4532 H 435.222 -0.838974 1.34711 0
M  V30 4533 H 435.243 -3.56004 1.34319 0
M  V30 4534 H 434.755 -2.59105 2.8894 0
M  V30 4535 H 432.856 -3.66528 0.669933 0
M  V30 4536 H 432.969 -4.08248 2.50739 0
M  V30 4537 H 431.333 -2.21941 1.24957 0
M  V30 4538 H 432.116 -1.86414 2.88279 0
M  V30 4539 N 434.561 -1.01147 -1.20859 0
M  V30 4540 C 435.972 -0.730205 -1.71828 0
M  V30 4541 C 436.323 0.751662 -1.8123 0
M  V30 4542 O 435.448 1.58686 -1.47132 0
M  V30 4543 C 436.043 -1.31885 -3.12077 0
M  V30 4544 C 434.602 -1.08656 -3.60376 0
M  V30 4545 C 433.749 -1.42769 -2.37723 0
M  V30 4546 H 436.7 -1.18158 -1.05945 0
M  V30 4547 H 436.721 -0.706793 -3.73878 0
M  V30 4548 H 436.233 -2.39737 -3.05201 0
M  V30 4549 H 434.334 -0.0254814 -3.72591 0
M  V30 4550 H 434.447 -1.76301 -4.45483 0
M  V30 4551 H 432.811 -0.846603 -2.40218 0
M  V30 4552 H 433.594 -2.51666 -2.33493 0
M  V30 4553 N 436.039 1.36541 -0.78704 0
M  V30 4554 C 436.989 2.27459 -0.156957 0
M  V30 4555 C 437.973 1.46843 0.657709 0
M  V30 4556 O 439.165 1.69245 0.518173 0
M  V30 4557 C 436.294 3.35893 0.709278 0
M  V30 4558 C 435.38 4.23947 -0.114049 0
M  V30 4559 N 435.771 4.92145 -1.16736 0
M  V30 4560 C 434.069 4.4587 0.107497 0
M  V30 4561 C 434.77 5.57261 -1.66837 0
M  V30 4562 N 433.746 5.3473 -0.977992 0
M  V30 4563 H 437.548 2.77669 -0.963185 0
M  V30 4564 H 435.062 1.49839 -0.62627 0
M  V30 4565 H 437.059 3.99953 1.17656 0
M  V30 4566 H 435.719 2.87238 1.51408 0
M  V30 4567 H 436.73 4.94169 -1.54976 0
M  V30 4568 H 433.407 4.08056 0.882994 0
M  V30 4569 H 434.797 6.21728 -2.54762 0
M  V30 4570 N 437.518 0.538854 1.48102 0
M  V30 4571 C 438.743 0.0102694 2.07397 0
M  V30 4572 C 439.168 -1.26562 1.39153 0
M  V30 4573 O 438.526 -1.75357 0.460387 0
M  V30 4574 C 438.574 -0.187602 3.60112 0
M  V30 4575 O 437.678 -1.25432 3.92862 0
M  V30 4576 H 437.019 0.0430975 0.6626 0
M  V30 4577 H 439.549 0.749301 1.90385 0
M  V30 4578 H 439.559 -0.407517 4.0596 0
M  V30 4579 H 438.234 0.744386 4.09184 0
M  V30 4580 H 436.811 -1.01636 3.58782 0
M  V30 4581 N 438.996 -1.55193 0.274407 0
M  V30 4582 C 440.226 -2.03692 -0.345442 0
M  V30 4583 C 440.634 -1.15224 -1.50067 0
M  V30 4584 O 439.977 -0.164749 -1.8296 0
M  V30 4585 C 440.039 -3.48325 -0.88939 0
M  V30 4586 C 439.703 -4.56794 0.137115 0
M  V30 4587 C 440.7 -5.11028 0.956378 0
M  V30 4588 C 438.385 -5.01568 0.27115 0
M  V30 4589 C 440.379 -6.08552 1.89587 0
M  V30 4590 C 438.066 -5.98918 1.21412 0
M  V30 4591 C 439.064 -6.52291 2.02498 0
M  V30 4592 O 438.752 -7.47738 2.952 0
M  V30 4593 H 438.484 -0.670893 -0.0829332 0
M  V30 4594 H 441.038 -2.01387 0.404056 0
M  V30 4595 H 439.268 -3.47867 -1.68895 0
M  V30 4596 H 440.957 -3.80167 -1.42225 0
M  V30 4597 H 441.723 -4.7725 0.863559 0
M  V30 4598 H 437.602 -4.5967 -0.349987 0
M  V30 4599 H 441.146 -6.50137 2.52918 0
M  V30 4600 H 437.043 -6.32114 1.30776 0
M  V30 4601 H 437.811 -7.65451 2.89874 0
M  V30 4602 N 440.474 -0.00167713 -1.576 0
M  V30 4603 C 441.699 0.69739 -1.95323 0
M  V30 4604 C 442.124 1.6642 -0.876706 0
M  V30 4605 O 441.482 1.80548 0.165007 0
M  V30 4606 C 441.53 1.40403 -3.32144 0
M  V30 4607 O 440.634 2.5185 -3.26566 0
M  V30 4608 H 439.975 0.185373 -0.637599 0
M  V30 4609 H 442.505 -0.0553665 -2.04525 0
M  V30 4610 H 442.515 1.76707 -3.67748 0
M  V30 4611 H 441.19 0.695167 -4.10049 0
M  V30 4612 H 439.767 2.17861 -3.0264 0
M  V30 4613 N 441.952 1.55251 0.271103 0
M  V30 4614 C 443.198 1.76207 1.00394 0
M  V30 4615 C 443.531 0.562604 1.85872 0
M  V30 4616 O 442.806 -0.439785 1.89463 0
M  V30 4617 C 443.089 3.06828 1.8849 0
M  V30 4618 C 442.942 4.37134 1.05992 0
M  V30 4619 C 444.261 3.33503 2.87165 0
M  V30 4620 H 441.38 0.641086 0.363562 0
M  V30 4621 H 444.022 1.87982 0.276189 0
M  V30 4622 H 442.172 2.96921 2.5054 0
M  V30 4623 H 443.844 4.59001 0.459978 0
M  V30 4624 H 442.087 4.32275 0.363443 0
M  V30 4625 H 442.758 5.2486 1.70955 0
M  V30 4626 H 445.234 3.43215 2.3525 0
M  V30 4627 H 444.11 4.2616 3.45946 0
M  V30 4628 H 444.371 2.53235 3.62387 0
M  V30 4629 N 443.43 -0.535701 1.48216 0
M  V30 4630 C 444.676 -1.2913 1.57153 0
M  V30 4631 C 445.031 -1.90899 0.239823 0
M  V30 4632 O 444.324 -1.76022 -0.756748 0
M  V30 4633 C 444.518 -2.4068 2.64212 0
M  V30 4634 C 444.347 -1.89844 4.07663 0
M  V30 4635 C 443.117 -1.72708 4.74869 0
M  V30 4636 C 445.315 -1.43031 4.94011 0
M  V30 4637 N 443.297 -1.16437 6.02757 0
M  V30 4638 C 444.668 -0.986691 6.12098 0
M  V30 4639 C 446.723 -1.3128 4.80281 0
M  V30 4640 C 445.426 -0.437231 7.1797 0
M  V30 4641 C 447.452 -0.777346 5.86269 0
M  V30 4642 C 446.814 -0.343774 7.03561 0
M  V30 4643 H 442.913 -0.463753 0.629648 0
M  V30 4644 H 445.497 -0.604736 1.8507 0
M  V30 4645 H 443.668 -3.06839 2.38126 0
M  V30 4646 H 445.4 -3.07706 2.62867 0
M  V30 4647 H 442.155 -1.96061 4.31111 0
M  V30 4648 H 442.579 -0.903281 6.70947 0
M  V30 4649 H 447.221 -1.63408 3.89946 0
M  V30 4650 H 444.939 -0.103621 8.08034 0
M  V30 4651 H 448.525 -0.689688 5.77698 0
M  V30 4652 H 447.405 0.0641219 7.84174 0
M  V30 4653 N 444.908 -1.36708 -0.784132 0
M  V30 4654 C 445.818 -1.3363 -1.92822 0
M  V30 4655 C 446.834 -0.237686 -1.72369 0
M  V30 4656 O 448.01 -0.470962 -1.95816 0
M  V30 4657 C 445.075 -1.13011 -3.27764 0
M  V30 4658 C 444.136 -2.32397 -3.60957 0
M  V30 4659 C 443.369 -2.12752 -4.89461 0
M  V30 4660 O 443.592 -1.10541 -5.59586 0
M  V30 4661 O 442.526 -3.00653 -5.21432 0
M  V30 4662 H 446.352 -2.29964 -1.98369 0
M  V30 4663 H 443.937 -1.1731 -0.925136 0
M  V30 4664 H 445.819 -1.03451 -4.08504 0
M  V30 4665 H 444.494 -0.19743 -3.23097 0
M  V30 4666 H 443.401 -2.47527 -2.80502 0
M  V30 4667 H 444.734 -3.2419 -3.70354 0
M  V30 4668 N 446.386 1.0089 -1.21074 0
M  V30 4669 C 447.634 1.74262 -1.02358 0
M  V30 4670 C 447.955 1.89869 0.444393 0
M  V30 4671 O 447.225 1.44677 1.32081 0
M  V30 4672 H 445.805 0.645615 -0.375754 0
M  V30 4673 H 448.467 1.21596 -1.52317 0
M  V30 4674 H 447.563 2.74328 -1.4883 0
M  V30 4675 N 447.864 1.01787 1.20321 0
M  V30 4676 C 448.827 0.593972 2.2137 0
M  V30 4677 C 449.827 -0.336553 1.57239 0
M  V30 4678 O 451.017 -0.125069 1.7375 0
M  V30 4679 C 448.149 -0.132433 3.40643 0
M  V30 4680 H 449.342 1.48791 2.60387 0
M  V30 4681 H 446.895 0.807803 1.33807 0
M  V30 4682 H 447.63 -1.04123 3.0713 0
M  V30 4683 H 447.415 0.53605 3.88418 0
M  V30 4684 H 448.905 -0.416314 4.1552 0
M  V30 4685 N 449.342 -1.36122 0.79427 0
M  V30 4686 C 450.57 -2.03362 0.380989 0
M  V30 4687 C 450.985 -1.59881 -1.00416 0
M  V30 4688 O 450.342 -0.790515 -1.6449 0
M  V30 4689 C 450.393 -3.58804 0.440649 0
M  V30 4690 O 450.114 -4.007 1.77118 0
M  V30 4691 C 451.615 -4.43296 0.0186117 0
M  V30 4692 H 448.835 -0.652526 0.156367 0
M  V30 4693 H 451.379 -1.73998 1.07447 0
M  V30 4694 H 449.534 -3.8686 -0.204458 0
M  V30 4695 H 449.948 -4.95309 1.72538 0
M  V30 4696 H 451.422 -5.51887 0.111488 0
M  V30 4697 H 451.899 -4.2684 -1.03461 0
M  V30 4698 H 452.505 -4.20512 0.636395 0
M  V30 4699 N 450.82 -0.546701 -1.47814 0
M  V30 4700 C 452.045 -0.021268 -2.07389 0
M  V30 4701 C 452.47 1.25822 -1.39822 0
M  V30 4702 O 451.828 1.75111 -0.46968 0
M  V30 4703 C 451.876 0.168502 -3.60206 0
M  V30 4704 O 450.98 1.23347 -3.93522 0
M  V30 4705 H 450.321 -0.0466108 -0.662362 0
M  V30 4706 H 452.851 -0.759387 -1.89985 0
M  V30 4707 H 452.861 0.385982 -4.0617 0
M  V30 4708 H 451.536 -0.766075 -4.08784 0
M  V30 4709 H 450.113 0.997319 -3.59316 0
M  V30 4710 N 452.299 1.55045 -0.282633 0
M  V30 4711 C 453.539 2.01668 0.333088 0
M  V30 4712 C 453.903 1.1667 1.52486 0
M  V30 4713 O 455.104 1.52907 2.21072 0
M  V30 4714 C 453.375 3.50509 0.698442 0
M  V30 4715 S 454.934 4.19112 1.29963 0
M  V30 4716 H 451.752 0.703468 0.103219 0
M  V30 4717 H 454.354 1.91233 -0.406222 0
M  V30 4718 H 453.058 4.10015 -0.177693 0
M  V30 4719 H 452.589 3.64943 1.46902 0
M  V30 4720 H 454.604 4.23362 2.58803 0
M  V30 4721 N 453.777 0.010035 1.57597 0
M  V30 4722 C 455.005 -0.683413 1.95287 0
M  V30 4723 C 455.42 -1.66747 0.885481 0
M  V30 4724 O 454.777 -1.82003 -0.134629 0
M  V30 4725 C 454.828 -1.40652 3.33015 0
M  V30 4726 O 454.549 -0.461916 4.35658 0
M  V30 4727 C 456.05 -2.19356 3.85225 0
M  V30 4728 H 453.27 -0.189708 0.643624 0
M  V30 4729 H 455.814 0.0641359 2.04399 0
M  V30 4730 H 453.969 -2.10562 3.2518 0
M  V30 4731 H 454.383 -0.973215 5.15392 0
M  V30 4732 H 455.857 -2.65433 4.83993 0
M  V30 4733 H 456.334 -3.02457 3.18459 0
M  V30 4734 H 456.94 -1.54442 3.96267 0
M  V30 4735 N 455.255 -1.55392 -0.262866 0
M  V30 4736 C 456.495 -1.78231 -1.00064 0
M  V30 4737 C 456.859 -0.576966 -1.83126 0
M  V30 4738 O 458.06 -0.683809 -2.59957 0
M  V30 4739 C 456.331 -3.05701 -1.85153 0
M  V30 4740 S 457.89 -3.49699 -2.65058 0
M  V30 4741 H 454.708 -0.626138 -0.336856 0
M  V30 4742 H 457.31 -1.93626 -0.27005 0
M  V30 4743 H 456.014 -3.91511 -1.23074 0
M  V30 4744 H 455.545 -2.93 -2.62515 0
M  V30 4745 H 457.56 -3.09772 -3.87629 0
M  V30 4746 N 456.733 0.527833 -1.48498 0
M  V30 4747 C 458.01 1.28905 -1.47115 0
M  V30 4748 C 458.39 2.10297 -0.184007 0
M  V30 4749 O 457.738 2.12728 0.834218 0
M  V30 4750 C 457.948 2.16866 -2.73441 0
M  V30 4751 C 459.296 2.76936 -3.21857 0
M  V30 4752 O 460.32 2.27152 -2.74373 0
M  V30 4753 O 459.179 3.67496 -4.04486 0
M  V30 4754 H 456.273 0.581918 -0.587623 0
M  V30 4755 H 458.819 0.544311 -1.60734 0
M  V30 4756 H 457.591 1.56521 -3.58632 0
M  V30 4757 H 457.214 2.98583 -2.62553 0
M  V30 4758 N 458.211 1.37122 0.776871 0
M  V30 4759 C 459.627 1.1781 1.07671 0
M  V30 4760 C 459.827 0.0107454 2.01497 0
M  V30 4761 O 458.883 -0.650756 2.4397 0
M  V30 4762 C 460.196 2.49451 1.67913 0
M  V30 4763 C 461.744 2.55927 1.80195 0
M  V30 4764 C 462.219 3.87686 2.43851 0
M  V30 4765 N 463.71 3.891 2.51307 0
M  V30 4766 C 464.445 4.87797 3.014 0
M  V30 4767 N 463.941 5.96888 3.51705 0
M  V30 4768 N 465.734 4.75205 3.00227 0
M  V30 4769 H 457.885 2.11843 0.153778 0
M  V30 4770 H 460.148 0.938927 0.130844 0
M  V30 4771 H 459.854 3.35207 1.06439 0
M  V30 4772 H 459.728 2.66169 2.67271 0
M  V30 4773 H 462.115 1.70582 2.40803 0
M  V30 4774 H 462.196 2.43097 0.796069 0
M  V30 4775 H 461.84 4.73444 1.83884 0
M  V30 4776 H 461.77 3.97817 3.45035 0
M  V30 4777 H 464.261 3.10293 2.157 0
M  V30 4778 H 464.574 6.68155 3.88316 0
M  V30 4779 H 462.919 6.0054 3.49824 0
M  V30 4780 H 466.11 3.89103 2.60224 0
M  V30 4781 H 466.283 5.52279 3.38957 0
M  V30 4782 N 459.689 -1.00246 1.21608 0
M  V30 4783 C 460.937 -1.73717 1.0328 0
M  V30 4784 C 461.258 -1.90102 -0.434318 0
M  V30 4785 O 460.528 -1.45376 -1.31311 0
M  V30 4786 H 459.108 -0.643613 0.379172 0
M  V30 4787 H 461.77 -1.20787 1.52959 0
M  V30 4788 H 460.866 -2.73535 1.50283 0
M  V30 4789 N 461.167 -1.02423 -1.1978 0
M  V30 4790 C 462.414 -0.717988 -1.89344 0
M  V30 4791 C 462.742 0.753036 -1.79331 0
M  V30 4792 O 461.997 1.56355 -1.17692 0
M  V30 4793 C 462.296 -1.1088 -3.39765 0
M  V30 4794 C 461.962 -2.57731 -3.6998 0
M  V30 4795 C 460.624 -2.97854 -3.77937 0
M  V30 4796 C 462.976 -3.52763 -3.83677 0
M  V30 4797 C 460.304 -4.31931 -3.97054 0
M  V30 4798 C 462.656 -4.86538 -4.04306 0
M  V30 4799 C 461.32 -5.26356 -4.10494 0
M  V30 4800 H 460.59 -0.26273 -0.692859 0
M  V30 4801 H 463.237 -1.28623 -1.41875 0
M  V30 4802 H 461.542 -0.459094 -3.89101 0
M  V30 4803 H 463.239 -0.849432 -3.919 0
M  V30 4804 H 459.829 -2.25646 -3.64393 0
M  V30 4805 H 464.013 -3.2292 -3.76877 0
M  V30 4806 H 459.269 -4.62324 -4.00083 0
M  V30 4807 H 463.443 -5.60093 -4.13846 0
M  V30 4808 H 461.07 -6.3026 -4.2506 0
M  V30 4809 N 462.645 1.35699 -0.801477 0
M  V30 4810 C 463.892 1.98913 -0.379459 0
M  V30 4811 C 464.22 1.63592 1.05204 0
M  V30 4812 O 463.475 0.888563 1.74365 0
M  V30 4813 C 463.774 3.53828 -0.504041 0
M  V30 4814 C 463.44 4.09002 -1.8981 0
M  V30 4815 C 462.102 4.23783 -2.27951 0
M  V30 4816 C 464.454 4.38939 -2.81038 0
M  V30 4817 C 461.782 4.65816 -3.56696 0
M  V30 4818 C 464.134 4.82409 -4.09224 0
M  V30 4819 C 462.798 4.95395 -4.4737 0
M  V30 4820 H 462.068 0.727874 -0.138854 0
M  V30 4821 H 464.715 1.61994 -1.02128 0
M  V30 4822 H 463.02 3.91175 0.221242 0
M  V30 4823 H 464.717 4.00687 -0.158361 0
M  V30 4824 H 461.307 3.97946 -1.59176 0
M  V30 4825 H 465.491 4.27077 -2.52821 0
M  V30 4826 H 460.747 4.74059 -3.86106 0
M  V30 4827 H 464.921 5.04535 -4.80018 0
M  V30 4828 H 462.548 5.27724 -5.47185 0
M  V30 4829 N 464.123 0.554532 1.47522 0
M  V30 4830 C 465.539 0.214107 1.58157 0
M  V30 4831 C 465.739 -1.28331 1.55349 0
M  V30 4832 O 464.795 -2.06329 1.45549 0
M  V30 4833 C 466.108 0.838391 2.88776 0
M  V30 4834 C 467.656 0.809374 3.02354 0
M  V30 4835 C 468.131 1.41268 4.35669 0
M  V30 4836 N 469.622 1.37574 4.42298 0
M  V30 4837 C 470.357 1.8122 5.4401 0
M  V30 4838 N 469.853 2.3271 6.52547 0
M  V30 4839 N 471.646 1.72307 5.35039 0
M  V30 4840 H 463.797 1.52744 1.4759 0
M  V30 4841 H 466.06 0.636812 0.702264 0
M  V30 4842 H 465.766 1.89065 2.96559 0
M  V30 4843 H 465.64 0.329847 3.75755 0
M  V30 4844 H 468.027 -0.234187 2.94169 0
M  V30 4845 H 468.108 1.35565 2.16924 0
M  V30 4846 H 467.752 2.45529 4.4461 0
M  V30 4847 H 467.682 0.841871 5.19827 0
M  V30 4848 H 470.173 0.999081 3.64454 0
M  V30 4849 H 470.486 2.63944 7.26329 0
M  V30 4850 H 468.831 2.36719 6.53444 0
M  V30 4851 H 472.022 1.3186 4.49144 0
M  V30 4852 H 472.195 2.06641 6.14169 0
M  V30 4853 N 465.601 -1.54893 0.290851 0
M  V30 4854 C 466.564 -2.21824 -0.576784 0
M  V30 4855 C 467.564 -1.20104 -1.06919 0
M  V30 4856 O 468.754 -1.44906 -0.966843 0
M  V30 4857 C 465.886 -2.89662 -1.79747 0
M  V30 4858 H 467.079 -2.99899 0.00784051 0
M  V30 4859 H 464.632 -1.56245 0.0415934 0
M  V30 4860 H 465.367 -2.15639 -2.42219 0
M  V30 4861 H 465.152 -3.64219 -1.45214 0
M  V30 4862 H 466.642 -3.4075 -2.4141 0
M  V30 4863 N 467.08 -0.0183926 -1.57589 0
M  V30 4864 C 468.357 0.700621 -1.82622 0
M  V30 4865 C 468.737 1.90951 -0.90005 0
M  V30 4866 O 468.085 2.28452 0.0469145 0
M  V30 4867 C 468.295 1.08899 -3.31575 0
M  V30 4868 C 469.643 1.48514 -3.9778 0
M  V30 4869 O 470.667 1.18227 -3.36007 0
M  V30 4870 O 469.526 2.04903 -5.06633 0
M  V30 4871 H 466.62 0.342743 -0.752633 0
M  V30 4872 H 469.166 -0.0452548 -1.6964 0
M  V30 4873 H 467.938 0.228113 -3.90635 0
M  V30 4874 H 467.561 1.89338 -3.49624 0
M  V30 4875 N 468.558 1.5553 0.254621 0
M  V30 4876 C 469.506 1.9048 1.33492 0
M  V30 4877 C 470.5 0.78304 1.50216 0
M  V30 4878 O 471.706 0.967582 1.51782 0
M  V30 4879 H 468.081 0.604846 0.44684 0
M  V30 4880 H 470.052 2.80688 1.01275 0
M  V30 4881 C 468.801 2.20928 2.68489 0
M  V30 4882 H 468.124 3.06742 2.56417 0
M  V30 4883 H 469.564 2.49291 3.42972 0
M  V30 4884 C 468.023 1.023 3.20993 0
M  V30 4885 O 468.553 0.267027 4.00811 0
M  V30 4886 N 466.759 0.815714 2.78917 0
M  V30 4887 H 466.306 1.43217 2.14119 0
M  V30 4888 H 466.264 0.0236532 3.14391 0
M  V30 4889 N 470.036 -0.519951 1.48776 0
M  V30 4890 C 471.313 -1.28123 1.47797 0
M  V30 4891 C 471.693 -2.10196 0.195157 0
M  V30 4892 O 471.041 -2.13167 -0.822925 0
M  V30 4893 C 471.251 -2.15413 2.74587 0
M  V30 4894 C 472.599 -2.75225 3.23321 0
M  V30 4895 O 473.623 -2.25694 2.75574 0
M  V30 4896 O 472.482 -3.65346 4.06429 0
M  V30 4897 H 469.576 -0.578793 0.590701 0
M  V30 4898 H 472.122 -0.535779 1.6102 0
M  V30 4899 H 470.894 -1.54617 3.59457 0
M  V30 4900 H 470.517 -2.97186 2.64132 0
M  V30 4901 N 471.514 -1.37532 -0.769588 0
M  V30 4902 C 472.477 -1.33292 -1.86456 0
M  V30 4903 C 473.477 -0.236537 -1.59051 0
M  V30 4904 O 474.667 -0.492511 -1.67093 0
M  V30 4905 C 471.799 -1.07118 -3.23633 0
M  V30 4906 H 472.992 -2.30692 -1.91628 0
M  V30 4907 H 470.545 -1.22593 -0.969572 0
M  V30 4908 H 471.28 -0.102578 -3.24138 0
M  V30 4909 H 471.065 -1.86479 -3.44917 0
M  V30 4910 H 472.555 -1.06806 -4.03711 0
M  V30 4911 N 472.992 0.995999 -1.22138 0
M  V30 4912 C 473.955 2.06711 -0.990109 0
M  V30 4913 C 474.955 1.60744 0.0422978 0
M  V30 4914 O 476.145 1.73095 -0.195895 0
M  V30 4915 C 473.277 3.37288 -0.49491 0
M  V30 4916 H 474.47 2.28661 -1.94047 0
M  V30 4917 H 472.023 1.16711 -1.03963 0
M  V30 4918 H 472.758 3.21022 0.459948 0
M  V30 4919 H 472.543 3.71986 -1.23971 0
M  V30 4920 H 474.033 4.16103 -0.353253 0
M  V30 4921 N 474.47 1.03057 1.19235 0
M  V30 4922 C 475.695 0.74757 1.93458 0
M  V30 4923 C 476.12 -0.687648 1.7508 0
M  V30 4924 O 475.478 -1.47499 1.05422 0
M  V30 4925 C 475.526 1.10604 3.43219 0
M  V30 4926 O 474.63 0.225671 4.11782 0
M  V30 4927 H 473.971 0.276047 0.603899 0
M  V30 4928 H 476.501 1.3777 1.51263 0
M  V30 4929 H 476.511 1.06366 3.93891 0
M  V30 4930 H 475.186 2.15165 3.55917 0
M  V30 4931 H 473.763 0.326795 3.71465 0
M  V30 4932 N 475.948 -1.35272 0.808662 0
M  V30 4933 C 476.881 -2.27595 0.165994 0
M  V30 4934 C 477.859 -1.48189 -0.669241 0
M  V30 4935 O 479.043 -1.77444 -0.636073 0
M  V30 4936 C 476.17 -3.29843 -0.769505 0
M  V30 4937 C 475.216 -4.26498 -0.0136267 0
M  V30 4938 S 476.049 -5.18878 1.32384 0
M  V30 4939 C 477.205 -6.24666 0.392838 0
M  V30 4940 H 477.438 -2.81755 0.948756 0
M  V30 4941 H 474.971 -1.42103 0.603828 0
M  V30 4942 H 476.929 -3.89247 -1.30374 0
M  V30 4943 H 475.59 -2.74558 -1.52567 0
M  V30 4944 H 474.783 -4.98769 -0.724227 0
M  V30 4945 H 474.385 -3.71274 0.450713 0
M  V30 4946 H 476.677 -6.7619 -0.4211 0
M  V30 4947 H 477.62 -6.99741 1.0848 0
M  V30 4948 H 478.028 -5.64499 -0.0123908 0
M  V30 4949 N 477.426 -0.562348 -1.47226 0
M  V30 4950 C 478.837 -0.130325 -1.86245 0
M  V30 4951 C 479.188 1.30128 -1.46838 0
M  V30 4952 O 478.313 1.97974 -0.873805 0
M  V30 4953 C 478.908 -0.229738 -3.3802 0
M  V30 4954 C 477.467 0.14728 -3.76112 0
M  V30 4955 C 476.614 -0.574971 -2.71274 0
M  V30 4956 H 479.565 -0.771773 -1.3867 0
M  V30 4957 H 479.586 0.550316 -3.76499 0
M  V30 4958 H 479.098 -1.27178 -3.66671 0
M  V30 4959 H 477.199 1.19023 -3.53078 0
M  V30 4960 H 477.312 -0.214858 -4.78618 0
M  V30 4961 H 475.676 -0.0174756 -2.54694 0
M  V30 4962 H 476.459 -1.61827 -3.02766 0
M  V30 4963 N 478.904 1.54736 -0.299062 0
M  V30 4964 C 480.144 2.0201 0.31168 0
M  V30 4965 C 480.508 1.18281 1.5124 0
M  V30 4966 O 481.709 1.55243 2.19438 0
M  V30 4967 C 479.98 3.5123 0.661227 0
M  V30 4968 S 481.539 4.20467 1.2551 0
M  V30 4969 H 478.357 0.704523 0.0957517 0
M  V30 4970 H 480.959 1.90791 -0.426482 0
M  V30 4971 H 479.663 4.09804 -0.221171 0
M  V30 4972 H 479.194 3.66481 1.43023 0
M  V30 4973 H 481.209 4.26083 2.54298 0
M  V30 4974 N 480.382 0.0267497 1.57577 0
M  V30 4975 C 481.61 -0.662661 1.96001 0
M  V30 4976 C 482.025 -1.65799 0.903117 0
M  V30 4977 O 481.382 -1.82135 -0.115317 0
M  V30 4978 C 481.433 -1.37112 3.34488 0
M  V30 4979 O 481.154 -0.415683 4.36123 0
M  V30 4980 C 482.655 -2.15257 3.8753 0
M  V30 4981 H 479.875 -0.18287 0.6456 0
M  V30 4982 H 482.419 0.0858116 2.0432 0
M  V30 4983 H 480.574 -2.07101 3.27395 0
M  V30 4984 H 480.988 -0.918496 5.16395 0
M  V30 4985 H 482.462 -2.60285 4.86781 0
M  V30 4986 H 482.939 -2.99063 3.21649 0
M  V30 4987 H 483.545 -1.50231 3.97883 0
M  V30 4988 N 481.861 -1.55662 -0.24637 0
M  V30 4989 C 483.277 -1.48098 -0.594907 0
M  V30 4990 C 483.477 -0.717044 -1.8831 0
M  V30 4991 O 482.533 -0.246618 -2.51293 0
M  V30 4992 C 483.846 -2.92507 -0.697146 0
M  V30 4993 C 485.394 -3.02881 -0.789436 0
M  V30 4994 C 485.869 -4.48598 -0.923232 0
M  V30 4995 N 487.36 -4.52538 -0.988088 0
M  V30 4996 C 488.095 -5.62536 -1.11089 0
M  V30 4997 N 487.591 -6.82342 -1.19919 0
M  V30 4998 N 489.384 -5.50334 -1.14408 0
M  V30 4999 H 481.535 -2.0377 0.599278 0
M  V30 5000 H 483.798 -0.925145 0.20691 0
M  V30 5001 H 483.504 -3.51242 0.179396 0
M  V30 5002 H 483.378 -3.43024 -1.5689 0
M  V30 5003 H 485.765 -2.44226 -1.65643 0
M  V30 5004 H 485.846 -2.55574 0.107482 0
M  V30 5005 H 485.49 -5.07864 -0.0607927 0
M  V30 5006 H 485.42 -4.93587 -1.8352 0
M  V30 5007 H 487.911 -3.66248 -0.931167 0
M  V30 5008 H 488.224 -7.61924 -1.29197 0
M  V30 5009 H 486.569 -6.85102 -1.16876 0
M  V30 5010 H 489.76 -4.5567 -1.07158 0
M  V30 5011 H 489.933 -6.36096 -1.23634 0
M  V30 5012 N 483.339 0.512053 -1.4905 0
M  V30 5013 C 484.75 1.09376 -1.51307 0
M  V30 5014 C 485.101 1.94 -0.292971 0
M  V30 5015 O 484.226 2.07965 0.598277 0
M  V30 5016 C 484.821 1.99031 -2.74176 0
M  V30 5017 C 483.38 2.52385 -2.79247 0
M  V30 5018 C 482.527 1.29749 -2.45073 0
M  V30 5019 H 485.478 0.296467 -1.55906 0
M  V30 5020 H 485.499 2.83569 -2.53711 0
M  V30 5021 H 485.011 1.37412 -3.62959 0
M  V30 5022 H 483.112 3.17673 -1.94716 0
M  V30 5023 H 483.225 2.90293 -3.81139 0
M  V30 5024 H 481.589 1.61912 -1.96612 0
M  V30 5025 H 482.372 0.698555 -3.36118 0
M  V30 5026 N 484.817 1.37938 0.762283 0
M  V30 5027 C 486.228 1.30094 1.33912 0
M  V30 5028 C 486.579 -0.0472026 1.96143 0
M  V30 5029 O 485.704 -0.94917 1.94473 0
M  V30 5030 C 486.299 2.35592 2.43478 0
M  V30 5031 C 484.858 2.31353 2.96905 0
M  V30 5032 C 484.005 2.18919 1.70205 0
M  V30 5033 H 486.956 1.48423 0.561816 0
M  V30 5034 H 486.977 2.00806 3.23199 0
M  V30 5035 H 486.489 3.33701 1.98155 0
M  V30 5036 H 484.59 1.36799 3.46579 0
M  V30 5037 H 484.703 3.25147 3.51875 0
M  V30 5038 H 483.067 1.65624 1.93496 0
M  V30 5039 H 483.85 3.18956 1.26973 0
M  V30 5040 N 486.295 -0.989507 1.22664 0
M  V30 5041 C 487.52 -1.77031 1.08051 0
M  V30 5042 C 487.945 -1.84535 -0.364483 0
M  V30 5043 O 487.303 -1.3003 -1.2634 0
M  V30 5044 C 487.351 -3.18 1.70024 0
M  V30 5045 O 486.455 -4.01161 0.956216 0
M  V30 5046 H 485.796 -0.545008 0.379292 0
M  V30 5047 H 488.326 -1.24277 1.62531 0
M  V30 5048 H 488.336 -3.68616 1.74888 0
M  V30 5049 H 487.011 -3.11853 2.75174 0
M  V30 5050 H 485.588 -3.59687 0.98384 0
M  V30 5051 N 487.773 -1.03688 -1.18687 0
M  V30 5052 C 488.736 -0.629115 -2.20397 0
M  V30 5053 C 489.736 0.311495 -1.57754 0
M  V30 5054 O 490.926 0.0974107 -1.73927 0
M  V30 5055 C 488.058 0.0782231 -3.4081 0
M  V30 5056 H 489.251 -1.52915 -2.57987 0
M  V30 5057 H 486.804 -0.828988 -1.32505 0
M  V30 5058 H 487.539 0.992233 -3.08748 0
M  V30 5059 H 487.324 -0.597776 -3.87517 0
M  V30 5060 H 488.814 0.350156 -4.16129 0
M  V30 5061 N 489.251 1.34841 -0.815825 0
M  V30 5062 C 490.662 1.80937 -0.46029 0
M  V30 5063 C 491.013 1.67685 1.01863 0
M  V30 5064 O 490.138 1.21277 1.79223 0
M  V30 5065 C 490.733 3.28509 -0.828708 0
M  V30 5066 C 489.292 3.72712 -0.525644 0
M  V30 5067 C 488.439 2.56676 -1.04941 0
M  V30 5068 H 491.39 1.22688 -1.00664 0
M  V30 5069 H 491.411 3.80279 -0.129757 0
M  V30 5070 H 490.923 3.38122 -1.90513 0
M  V30 5071 H 489.024 3.68642 0.541666 0
M  V30 5072 H 489.137 4.67119 -1.06474 0
M  V30 5073 H 487.501 2.50302 -0.471286 0
M  V30 5074 H 488.284 2.69063 -2.13214 0
M  V30 5075 N 490.729 0.570148 1.46925 0
M  V30 5076 C 491.659 -0.158274 2.32963 0
M  V30 5077 C 492.64 -0.896093 1.44583 0
M  V30 5078 O 493.825 -0.874022 1.7342 0
M  V30 5079 C 490.955 -1.18055 3.26619 0
M  V30 5080 C 489.909 -0.558379 4.24342 0
M  V30 5081 C 489.235 -1.68623 5.07415 0
M  V30 5082 C 490.535 0.496295 5.19937 0
M  V30 5083 H 492.229 0.560046 2.94115 0
M  V30 5084 H 489.775 0.270775 1.41431 0
M  V30 5085 H 491.728 -1.69841 3.85658 0
M  V30 5086 H 490.452 -1.92899 2.63548 0
M  V30 5087 H 489.111 -0.0617157 3.66548 0
M  V30 5088 H 488.759 -2.42402 4.40738 0
M  V30 5089 H 488.459 -1.27564 5.73586 0
M  V30 5090 H 489.983 -2.20709 5.69315 0
M  V30 5091 H 491.397 0.0640052 5.73264 0
M  V30 5092 H 489.794 0.82649 5.94381 0
M  V30 5093 H 490.864 1.38735 4.6463 0
M  V30 5094 N 492.207 -1.54576 0.307264 0
M  V30 5095 C 493.155 -2.25208 -0.581723 0
M  V30 5096 C 494.149 -1.26031 -1.13192 0
M  V30 5097 O 495.355 -1.43862 -1.08184 0
M  V30 5098 H 491.73 -0.723173 -0.206214 0
M  V30 5099 H 493.701 -2.98378 0.0364663 0
M  V30 5100 C 492.45 -3.01086 -1.73904 0
M  V30 5101 H 491.773 -3.77208 -1.32491 0
M  V30 5102 H 493.213 -3.5378 -2.33701 0
M  V30 5103 C 491.672 -2.08422 -2.64692 0
M  V30 5104 O 492.202 -1.65636 -3.65961 0
M  V30 5105 N 490.408 -1.74247 -2.32564 0
M  V30 5106 H 489.955 -2.09238 -1.50257 0
M  V30 5107 H 489.913 -1.12524 -2.93574 0
M  V30 5108 N 493.685 -0.035106 -1.57561 0
M  V30 5109 C 494.615 0.942993 -2.13612 0
M  V30 5110 C 495.596 1.33531 -1.05373 0
M  V30 5111 O 496.781 1.41287 -1.33235 0
M  V30 5112 C 493.911 2.22332 -2.66807 0
M  V30 5113 C 492.865 1.97156 -3.79886 0
M  V30 5114 C 492.191 3.31506 -4.19533 0
M  V30 5115 C 493.491 1.30596 -5.05709 0
M  V30 5116 H 495.185 0.476179 -2.95589 0
M  V30 5117 H 492.731 0.227602 -1.4219 0
M  V30 5118 H 494.684 2.91142 -3.04654 0
M  V30 5119 H 493.408 2.7119 -1.81999 0
M  V30 5120 H 492.067 1.30763 -3.42486 0
M  V30 5121 H 491.715 3.78134 -3.31698 0
M  V30 5122 H 491.415 3.15465 -4.95738 0
M  V30 5123 H 492.939 4.01574 -4.59968 0
M  V30 5124 H 494.353 1.89416 -5.41105 0
M  V30 5125 H 492.75 1.24934 -5.86951 0
M  V30 5126 H 493.82 0.279742 -4.84092 0
M  V30 5127 N 495.163 1.55791 0.238111 0
M  V30 5128 C 496.412 1.77234 0.962868 0
M  V30 5129 C 496.725 0.600661 1.86149 0
M  V30 5130 O 497.931 0.698315 2.62366 0
M  V30 5131 C 496.387 3.13808 1.76218 0
M  V30 5132 C 495.995 4.3865 0.910518 0
M  V30 5133 C 497.739 3.44585 2.47914 0
M  V30 5134 C 495.646 5.66252 1.70623 0
M  V30 5135 H 494.576 0.660731 0.36325 0
M  V30 5136 H 497.227 1.8221 0.217242 0
M  V30 5137 H 495.609 3.02963 2.55009 0
M  V30 5138 H 496.783 4.60507 0.164316 0
M  V30 5139 H 495.098 4.15271 0.30647 0
M  V30 5140 H 497.695 4.3714 3.07917 0
M  V30 5141 H 498.038 2.66314 3.19973 0
M  V30 5142 H 498.571 3.56685 1.76127 0
M  V30 5143 H 495.31 6.47369 1.02923 0
M  V30 5144 H 494.83 5.48483 2.42748 0
M  V30 5145 H 496.509 6.05829 2.27114 0
M  V30 5146 N 496.642 -0.504142 1.49319 0
M  V30 5147 C 497.867 -1.28729 1.62615 0
M  V30 5148 C 498.292 -1.85752 0.296309 0
M  V30 5149 O 497.65 -1.65704 -0.735649 0
M  V30 5150 C 497.698 -2.39561 2.69524 0
M  V30 5151 O 496.802 -3.43324 2.28478 0
M  V30 5152 H 496.143 -0.380172 0.544395 0
M  V30 5153 H 498.673 -0.603872 1.95485 0
M  V30 5154 H 498.683 -2.8537 2.91595 0
M  V30 5155 H 497.358 -1.97423 3.66056 0
M  V30 5156 H 495.935 -3.03455 2.16725 0
M  V30 5157 N 498.12 -1.38341 -0.754957 0
M  V30 5158 C 499.068 -1.35573 -1.89005 0
M  V30 5159 C 500.062 -0.241824 -1.67665 0
M  V30 5160 O 501.268 -0.410785 -1.7525 0
M  V30 5161 H 497.643 -0.422898 -0.621821 0
M  V30 5162 H 499.614 -2.31359 -1.88455 0
M  V30 5163 C 498.363 -1.19631 -3.26471 0
M  V30 5164 H 497.686 -2.04605 -3.43477 0
M  V30 5165 H 499.126 -1.21748 -4.06144 0
M  V30 5166 C 497.585 0.0968705 -3.36761 0
M  V30 5167 O 498.115 1.07439 -3.87066 0
M  V30 5168 N 496.321 0.153242 -2.90196 0
M  V30 5169 H 495.868 -0.642908 -2.49448 0
M  V30 5170 H 495.826 1.01807 -2.9746 0
M  V30 5171 N 499.598 0.982988 -1.23187 0
M  V30 5172 C 500.844 1.72648 -1.06398 0
M  V30 5173 C 501.177 1.90066 0.398561 0
M  V30 5174 O 500.452 1.45105 1.29518 0
M  V30 5175 C 500.735 3.12627 -1.78707 0
M  V30 5176 C 500.588 3.02795 -3.32618 0
M  V30 5177 C 501.907 4.11997 -1.54747 0
M  V30 5178 H 499.026 0.626649 -0.387918 0
M  V30 5179 H 501.668 1.14455 -1.51658 0
M  V30 5180 H 499.818 3.62308 -1.40234 0
M  V30 5181 H 501.49 2.60659 -3.80598 0
M  V30 5182 H 499.733 2.39362 -3.61785 0
M  V30 5183 H 500.404 4.01893 -3.78399 0
M  V30 5184 H 502.88 3.71114 -1.88186 0
M  V30 5185 H 501.756 5.08037 -2.07821 0
M  V30 5186 H 502.017 4.39462 -0.482249 0
M  V30 5187 N 501.076 1.04316 1.18135 0
M  V30 5188 C 502.024 0.630175 2.23901 0
M  V30 5189 C 503.018 -0.344254 1.65865 0
M  V30 5190 O 504.224 -0.211273 1.78756 0
M  V30 5191 H 500.599 0.185578 0.728742 0
M  V30 5192 H 502.57 1.53253 2.56039 0
M  V30 5193 C 501.319 0.011666 3.47698 0
M  V30 5194 H 500.642 0.752526 3.92654 0
M  V30 5195 H 502.082 -0.240046 4.2332 0
M  V30 5196 C 500.541 -1.23913 3.13285 0
M  V30 5197 O 501.071 -2.32959 3.27251 0
M  V30 5198 N 499.277 -1.13338 2.67587 0
M  V30 5199 H 498.824 -0.246006 2.56423 0
M  V30 5200 H 498.782 -1.97116 2.44934 0
M  V30 5201 N 502.554 -1.34406 0.822964 0
M  V30 5202 C 503.464 -2.33298 0.246838 0
M  V30 5203 C 504.48 -1.62625 -0.618797 0
M  V30 5204 O 505.656 -1.94391 -0.526685 0
M  V30 5205 C 502.721 -3.41785 -0.581731 0
M  V30 5206 C 501.782 -4.28206 0.306309 0
M  V30 5207 C 501.015 -5.31512 -0.48281 0
M  V30 5208 O 501.238 -5.43973 -1.71607 0
M  V30 5209 O 500.172 -6.01749 0.134884 0
M  V30 5210 H 503.998 -2.84401 1.06534 0
M  V30 5211 H 501.583 -1.37466 0.585108 0
M  V30 5212 H 503.465 -4.08028 -1.05313 0
M  V30 5213 H 502.14 -2.92925 -1.37756 0
M  V30 5214 H 501.047 -3.64885 0.825199 0
M  V30 5215 H 502.38 -4.80507 1.06649 0
M  V30 5216 N 504.032 -0.577932 -1.46621 0
M  V30 5217 C 505.26 -0.0671642 -2.06791 0
M  V30 5218 C 505.675 1.23571 -1.42743 0
M  V30 5219 O 505.032 1.74602 -0.531062 0
M  V30 5220 C 505.083 0.110357 -3.61332 0
M  V30 5221 O 504.804 -1.14095 -4.22982 0
M  V30 5222 C 506.305 0.656025 -4.38419 0
M  V30 5223 H 503.525 -0.0552732 -0.66872 0
M  V30 5224 H 506.069 -0.797242 -1.8832 0
M  V30 5225 H 504.224 0.790637 -3.79246 0
M  V30 5226 H 504.638 -0.951742 -5.15793 0
M  V30 5227 H 506.112 0.729438 -5.47159 0
M  V30 5228 H 506.589 1.67195 -4.06131 0
M  V30 5229 H 507.195 0.0107692 -4.25299 0
M  V30 5230 N 505.51 1.54411 -0.315457 0
M  V30 5231 C 506.735 2.05299 0.294496 0
M  V30 5232 C 507.16 1.19052 1.4563 0
M  V30 5233 O 506.518 0.197804 1.80218 0
M  V30 5234 C 506.566 3.5345 0.714549 0
M  V30 5235 O 505.67 3.70175 1.81781 0
M  V30 5236 H 505.011 0.661743 0.0547019 0
M  V30 5237 H 507.541 1.99327 -0.461508 0
M  V30 5238 H 507.551 3.9557 0.999426 0
M  V30 5239 H 506.226 4.1568 -0.135244 0
M  V30 5240 H 504.803 3.3996 1.53236 0
M  V30 5241 N 506.988 0.0434614 1.5754 0
M  V30 5242 C 508.234 -0.632971 1.92669 0
M  V30 5243 C 508.567 -1.70947 0.921446 0
M  V30 5244 O 507.842 -1.94426 -0.0537202 0
M  V30 5245 C 508.125 -1.23619 3.38216 0
M  V30 5246 C 507.978 -0.168274 4.49485 0
M  V30 5247 C 509.297 -2.15008 3.84005 0
M  V30 5248 H 506.416 -0.228629 0.700641 0
M  V30 5249 H 509.058 0.103651 1.89717 0
M  V30 5250 H 507.208 -1.864 3.40863 0
M  V30 5251 H 508.88 0.463196 4.58969 0
M  V30 5252 H 507.123 0.504581 4.30855 0
M  V30 5253 H 507.794 -0.630218 5.48391 0
M  V30 5254 H 510.27 -1.62198 3.83185 0
M  V30 5255 H 509.146 -2.54161 4.86511 0
M  V30 5256 H 509.407 -3.04707 3.20322 0
M  V30 5257 N 508.466 -1.55915 -0.229846 0
M  V30 5258 C 509.414 -1.9258 -1.30444 0
M  V30 5259 C 510.408 -0.806839 -1.48951 0
M  V30 5260 O 511.614 -0.991606 -1.50224 0
M  V30 5261 H 507.989 -0.611878 -0.437161 0
M  V30 5262 H 509.96 -2.82264 -0.96797 0
M  V30 5263 C 508.709 -2.25171 -2.6494 0
M  V30 5264 H 508.032 -3.10782 -2.51504 0
M  V30 5265 H 509.472 -2.54716 -3.38963 0
M  V30 5266 C 507.931 -1.07394 -3.19324 0
M  V30 5267 O 508.461 -0.330759 -4.00336 0
M  V30 5268 N 506.667 -0.859984 -2.77584 0
M  V30 5269 H 506.214 -1.46605 -2.11813 0
M  V30 5270 H 506.172 -0.0736671 -3.14314 0
M  V30 5271 N 509.944 0.496216 -1.49584 0
M  V30 5272 C 510.874 1.60576 -1.69521 0
M  V30 5273 C 511.855 1.61169 -0.543933 0
M  V30 5274 O 513.04 1.77834 -0.78031 0
M  V30 5275 C 510.17 2.99038 -1.76616 0
M  V30 5276 C 509.124 3.13312 -2.91581 0
M  V30 5277 C 508.45 4.53172 -2.83794 0
M  V30 5278 C 509.75 2.92886 -4.32452 0
M  V30 5279 H 511.444 1.44146 -2.62416 0
M  V30 5280 H 508.99 0.692024 -1.26282 0
M  V30 5281 H 510.943 3.76564 -1.8915 0
M  V30 5282 H 509.667 3.16568 -0.80324 0
M  V30 5283 H 508.326 2.38213 -2.78658 0
M  V30 5284 H 507.974 4.67585 -1.854 0
M  V30 5285 H 507.674 4.63662 -3.60958 0
M  V30 5286 H 509.198 5.32752 -2.98342 0
M  V30 5287 H 510.612 3.60178 -4.46032 0
M  V30 5288 H 509.009 3.14844 -5.10875 0
M  V30 5289 H 510.079 1.88966 -4.46565 0
M  V30 5290 N 511.423 1.38739 0.74761 0
M  V30 5291 C 512.333 1.38696 1.89211 0
M  V30 5292 C 513.349 0.283303 1.71678 0
M  V30 5293 O 514.525 0.522713 1.94498 0
M  V30 5294 C 511.59 1.21662 3.24653 0
M  V30 5295 C 510.651 2.41886 3.54669 0
M  V30 5296 C 509.884 2.25655 4.83648 0
M  V30 5297 O 510.107 1.25339 5.56459 0
M  V30 5298 O 509.041 3.14372 5.13277 0
M  V30 5299 H 512.867 2.35143 1.92202 0
M  V30 5300 H 510.452 1.19721 0.893708 0
M  V30 5301 H 512.334 1.14246 4.05618 0
M  V30 5302 H 511.009 0.283024 3.2246 0
M  V30 5303 H 509.916 2.54877 2.73841 0
M  V30 5304 H 511.249 3.33895 3.61628 0
M  V30 5305 N 512.901 -0.976442 1.23707 0
M  V30 5306 C 514.147 -1.72158 1.08319 0
M  V30 5307 C 514.502 -1.88701 -0.375445 0
M  V30 5308 O 513.795 -1.43107 -1.274 0
M  V30 5309 C 513.989 -3.11814 1.74662 0
M  V30 5310 C 513.818 -3.08892 3.26827 0
M  V30 5311 C 512.588 -3.13861 3.96004 0
M  V30 5312 C 514.786 -2.9175 4.2354 0
M  V30 5313 N 512.768 -3.00867 5.35119 0
M  V30 5314 C 514.139 -2.8696 5.49595 0
M  V30 5315 C 516.194 -2.76265 4.14225 0
M  V30 5316 C 514.897 -2.68268 6.67401 0
M  V30 5317 C 516.923 -2.58938 5.317 0
M  V30 5318 C 516.285 -2.54849 6.56682 0
M  V30 5319 H 512.384 -0.638896 0.450927 0
M  V30 5320 H 514.968 -1.15835 1.56494 0
M  V30 5321 H 513.139 -3.66347 1.29014 0
M  V30 5322 H 514.871 -3.74984 1.52215 0
M  V30 5323 H 511.626 -3.22198 3.4711 0
M  V30 5324 H 512.05 -2.97634 6.08065 0
M  V30 5325 H 516.692 -2.78213 3.18366 0
M  V30 5326 H 514.41 -2.65063 7.63392 0
M  V30 5327 H 517.996 -2.47914 5.26336 0
M  V30 5328 H 516.876 -2.41611 7.46052 0
M  V30 5329 N 514.379 -1.04941 -1.1758 0
M  V30 5330 C 515.604 -0.778253 -1.92245 0
M  V30 5331 C 516.029 0.659707 -1.76152 0
M  V30 5332 O 515.387 1.45803 -1.07755 0
M  V30 5333 C 515.435 -1.16051 -3.41416 0
M  V30 5334 O 514.539 -0.291153 -4.11371 0
M  V30 5335 H 513.88 -0.285619 -0.599431 0
M  V30 5336 H 516.41 -1.40159 -1.49052 0
M  V30 5337 H 516.42 -1.12619 -3.92149 0
M  V30 5338 H 515.095 -2.208 -3.52449 0
M  V30 5339 H 513.672 -0.385851 -3.70898 0
M  V30 5340 N 515.857 1.33968 -0.830081 0
M  V30 5341 C 517.082 2.02813 -0.433796 0
M  V30 5342 C 517.507 1.62076 0.954614 0
M  V30 5343 O 516.865 0.808955 1.62252 0
M  V30 5344 C 516.913 3.56348 -0.552115 0
M  V30 5345 O 516.017 4.10202 0.425191 0
M  V30 5346 H 515.358 0.639817 -0.177567 0
M  V30 5347 H 517.888 1.7106 -1.12248 0
M  V30 5348 H 517.898 4.05722 -0.430513 0
M  V30 5349 H 516.573 3.85344 -1.56471 0
M  V30 5350 H 515.15 3.71979 0.261878 0
M  V30 5351 N 517.335 0.585699 1.46312 0
M  V30 5352 C 518.746 0.159938 1.86014 0
M  V30 5353 C 519.097 -1.27775 1.48889 0
M  V30 5354 O 518.222 -1.96559 0.90519 0
M  V30 5355 C 518.817 0.283485 3.37612 0
M  V30 5356 C 517.376 -0.0874256 3.76298 0
M  V30 5357 C 516.523 0.618055 2.70325 0
M  V30 5358 H 519.474 0.793737 1.37425 0
M  V30 5359 H 519.495 -0.490348 3.77327 0
M  V30 5360 H 519.007 1.32995 3.64601 0
M  V30 5361 H 517.108 -1.13391 3.54927 0
M  V30 5362 H 517.221 0.290975 4.78216 0
M  V30 5363 H 515.585 0.057993 2.54634 0
M  V30 5364 H 516.368 1.66623 3.00153 0
M  V30 5365 N 518.813 -1.54241 0.323641 0
M  V30 5366 C 519.745 -2.21836 -0.576311 0
M  V30 5367 C 520.758 -1.21837 -1.07979 0
M  V30 5368 O 521.947 -1.48306 -0.99336 0
M  V30 5369 C 519.047 -2.86923 -1.80356 0
M  V30 5370 C 518.22 -4.1306 -1.43875 0
M  V30 5371 C 517.279 -4.6174 -2.52353 0
M  V30 5372 O 516.305 -5.26421 -2.16494 0
M  V30 5373 N 517.507 -4.35974 -3.83284 0
M  V30 5374 H 520.272 -2.997 0.00247987 0
M  V30 5375 H 517.833 -1.61233 0.146848 0
M  V30 5376 H 519.825 -3.16414 -2.52318 0
M  V30 5377 H 518.395 -2.12765 -2.29019 0
M  V30 5378 H 517.615 -3.90334 -0.550752 0
M  V30 5379 H 518.903 -4.95148 -1.17071 0
M  V30 5380 H 518.301 -3.84203 -4.15216 0
M  V30 5381 H 516.858 -4.70119 -4.51477 0
M  V30 5382 N 520.291 -0.0518155 -1.57515 0
M  V30 5383 C 521.239 0.940195 -2.12751 0
M  V30 5384 C 522.233 1.3218 -1.05948 0
M  V30 5385 O 523.439 1.30138 -1.24355 0
M  V30 5386 H 519.814 0.321066 -0.680015 0
M  V30 5387 H 521.785 0.449217 -2.94999 0
M  V30 5388 C 520.534 2.2055 -2.68799 0
M  V30 5389 H 519.857 1.92066 -3.50643 0
M  V30 5390 H 521.297 2.88119 -3.11068 0
M  V30 5391 C 519.756 2.95061 -1.62605 0
M  V30 5392 O 520.286 3.88025 -1.03921 0
M  V30 5393 N 518.492 2.57804 -1.34111 0
M  V30 5394 H 518.039 1.82281 -1.8202 0
M  V30 5395 H 517.997 3.07964 -0.632872 0
M  V30 5396 N 521.769 1.56035 0.221574 0
M  V30 5397 C 522.997 1.8313 0.962864 0
M  V30 5398 C 523.412 0.630934 1.77946 0
M  V30 5399 O 522.769 -0.400519 1.78051 0
M  V30 5400 C 522.82 3.08742 1.88045 0
M  V30 5401 O 522.541 4.24147 1.09686 0
M  V30 5402 C 524.042 3.48824 2.73563 0
M  V30 5403 H 521.262 0.608775 0.282194 0
M  V30 5404 H 523.806 2.03124 0.23681 0
M  V30 5405 H 521.961 2.90723 2.56045 0
M  V30 5406 H 522.375 4.95505 1.71974 0
M  V30 5407 H 523.849 4.39752 3.3365 0
M  V30 5408 H 524.326 2.70575 3.45956 0
M  V30 5409 H 524.932 3.69282 2.10976 0
M  V30 5410 N 523.247 -0.488276 1.49845 0
M  V30 5411 C 524.495 -1.23911 1.59657 0
M  V30 5412 C 524.816 -1.92816 0.291005 0
M  V30 5413 O 524.086 -1.83328 -0.690485 0
M  V30 5414 H 522.666 -0.460357 0.588286 0
M  V30 5415 H 525.328 -0.564794 1.86537 0
M  V30 5416 H 524.424 -1.99625 2.39909 0
M  V30 5417 N 524.725 -1.39134 -0.740242 0
M  V30 5418 C 525.973 -1.35803 -1.49673 0
M  V30 5419 C 526.294 0.0470897 -1.94943 0
M  V30 5420 O 525.564 0.997347 -1.68611 0
M  V30 5421 H 524.144 -0.499736 -0.555224 0
M  V30 5422 H 526.806 -1.73947 -0.879107 0
M  V30 5423 H 525.902 -2.0174 -2.38133 0
M  V30 5424 N 526.204 0.969867 -1.24223 0
M  V30 5425 C 527.62 1.23809 -1.00716 0
M  V30 5426 C 527.82 1.99469 0.285358 0
M  V30 5427 O 526.876 2.31764 1.00207 0
M  V30 5428 C 528.189 2.02734 -2.2208 0
M  V30 5429 C 529.737 2.15834 -2.26681 0
M  V30 5430 C 530.212 2.98154 -3.47661 0
M  V30 5431 N 531.703 3.05737 -3.47964 0
M  V30 5432 C 532.438 3.69785 -4.38231 0
M  V30 5433 N 531.934 4.35569 -5.3875 0
M  V30 5434 N 533.727 3.66775 -4.25949 0
M  V30 5435 H 525.878 0.463294 -2.07286 0
M  V30 5436 H 528.141 0.267348 -0.909521 0
M  V30 5437 H 527.847 1.54524 -3.15935 0
M  V30 5438 H 527.721 3.0347 -2.24021 0
M  V30 5439 H 530.108 2.63248 -1.33359 0
M  V30 5440 H 530.189 1.14453 -2.28767 0
M  V30 5441 H 529.833 2.51435 -4.41297 0
M  V30 5442 H 529.763 3.99729 -3.42818 0
M  V30 5443 H 532.254 2.58941 -2.75242 0
M  V30 5444 H 532.567 4.82251 -6.03866 0
M  V30 5445 H 530.912 4.34244 -5.42639 0
M  V30 5446 H 534.103 3.14558 -3.46657 0
M  V30 5447 H 534.276 4.16407 -4.96497 0
M  V30 5448 N 527.682 1.05563 1.17022 0
M  V30 5449 C 528.614 0.617888 2.20714 0
M  V30 5450 C 529.627 -0.320303 1.59618 0
M  V30 5451 O 530.816 -0.112449 1.78145 0
M  V30 5452 C 527.916 -0.115333 3.38704 0
M  V30 5453 C 527.089 0.834493 4.29366 0
M  V30 5454 C 526.148 0.141855 5.26009 0
M  V30 5455 O 525.174 0.777151 5.6387 0
M  V30 5456 N 526.376 -1.11934 5.69606 0
M  V30 5457 H 529.141 1.50981 2.58892 0
M  V30 5458 H 526.702 0.938008 1.31958 0
M  V30 5459 H 528.694 -0.588918 4.00392 0
M  V30 5460 H 527.264 -0.908967 2.99093 0
M  V30 5461 H 526.484 1.48762 3.65053 0
M  V30 5462 H 527.772 1.4791 4.86827 0
M  V30 5463 H 527.17 -1.65574 5.40927 0
M  V30 5464 H 525.727 -1.53692 6.33421 0
M  V30 5465 N 529.16 -1.33526 0.837174 0
M  V30 5466 C 530.437 -1.92369 0.354065 0
M  V30 5467 C 530.817 -1.76348 -1.16038 0
M  V30 5468 O 530.165 -1.15083 -1.97403 0
M  V30 5469 C 530.375 -3.39728 0.799101 0
M  V30 5470 C 531.723 -4.16877 0.806139 0
M  V30 5471 O 532.747 -3.48373 0.742597 0
M  V30 5472 O 531.606 -5.39166 0.892345 0
M  V30 5473 H 528.7 -0.820952 0.0998378 0
M  V30 5474 H 531.246 -1.42409 0.922913 0
M  V30 5475 H 530.018 -3.45254 1.84162 0
M  V30 5476 H 529.641 -3.97062 0.206731 0
M  V30 5477 N 530.638 -0.59345 -1.46 0
M  V30 5478 C 531.887 -0.0808084 -2.01538 0
M  V30 5479 C 532.2 1.29112 -1.46934 0
M  V30 5480 O 533.406 1.8957 -1.94359 0
M  V30 5481 C 531.862 -0.0938311 -3.59778 0
M  V30 5482 C 531.47 -1.46474 -4.23379 0
M  V30 5483 C 533.214 0.364306 -4.22934 0
M  V30 5484 C 531.121 -1.4349 -5.73729 0
M  V30 5485 H 530.051 -0.0264407 -0.753536 0
M  V30 5486 H 532.702 -0.746689 -1.67621 0
M  V30 5487 H 531.084 0.638427 -3.9082 0
M  V30 5488 H 532.258 -2.21758 -4.03931 0
M  V30 5489 H 530.573 -1.86379 -3.7236 0
M  V30 5490 H 533.17 0.405584 -5.3316 0
M  V30 5491 H 533.513 1.38409 -3.92618 0
M  V30 5492 H 534.046 -0.31423 -3.96557 0
M  V30 5493 H 530.785 -2.43184 -6.08722 0
M  V30 5494 H 530.305 -0.724431 -5.95409 0
M  V30 5495 H 531.984 -1.15243 -6.36654 0
M  V30 5496 N 532.116 1.54067 -0.331816 0
M  V30 5497 C 533.341 2.05599 0.272705 0
M  V30 5498 C 533.766 1.2059 1.44359 0
M  V30 5499 O 533.124 0.216907 1.79998 0
M  V30 5500 C 533.172 3.54188 0.677021 0
M  V30 5501 O 532.276 3.72082 1.77844 0
M  V30 5502 H 531.617 0.662286 0.0476801 0
M  V30 5503 H 534.147 1.98826 -0.482624 0
M  V30 5504 H 534.157 3.96608 0.957415 0
M  V30 5505 H 532.832 4.15513 -0.179325 0
M  V30 5506 H 531.409 3.41566 1.49622 0
M  V30 5507 N 533.594 0.0601682 1.57485 0
M  V30 5508 C 534.824 -0.620037 1.97076 0
M  V30 5509 C 535.232 -1.64381 0.936784 0
M  V30 5510 O 534.575 -1.83497 -0.0863377 0
M  V30 5511 C 534.637 -1.35617 3.32939 0
M  V30 5512 C 534.301 -0.487208 4.54396 0
M  V30 5513 C 535.298 0.250428 5.19297 0
M  V30 5514 C 532.983 -0.415494 5.00579 0
M  V30 5515 C 534.977 1.04812 6.28723 0
M  V30 5516 C 532.664 0.385879 6.0988 0
M  V30 5517 C 533.662 1.11637 6.73815 0
M  V30 5518 O 533.35 1.90454 7.81014 0
M  V30 5519 H 533.082 -0.173664 0.653312 0
M  V30 5520 H 535.636 0.1256 2.05016 0
M  V30 5521 H 533.866 -2.14763 3.2158 0
M  V30 5522 H 535.555 -1.92749 3.57215 0
M  V30 5523 H 536.321 0.204546 4.84568 0
M  V30 5524 H 532.2 -0.973679 4.506 0
M  V30 5525 H 535.744 1.6188 6.78558 0
M  V30 5526 H 531.641 0.433366 6.44044 0
M  V30 5527 H 532.409 1.82762 7.97835 0
M  V30 5528 N 535.072 -1.5615 -0.213296 0
M  V30 5529 C 536.02 -1.93953 -1.28394 0
M  V30 5530 C 537.014 -0.822592 -1.48087 0
M  V30 5531 O 538.22 -1.00748 -1.49164 0
M  V30 5532 H 534.595 -0.61648 -0.430646 0
M  V30 5533 H 536.566 -2.83275 -0.937977 0
M  V30 5534 C 535.315 -2.27969 -2.62537 0
M  V30 5535 H 534.638 -3.13432 -2.48194 0
M  V30 5536 H 536.078 -2.58297 -3.36242 0
M  V30 5537 C 534.537 -1.10775 -3.18167 0
M  V30 5538 O 535.067 -0.373201 -3.99963 0
M  V30 5539 N 533.273 -0.889377 -2.76656 0
M  V30 5540 H 532.82 -1.48843 -2.10246 0
M  V30 5541 H 532.778 -0.107 -3.14218 0
M  V30 5542 N 536.55 0.480323 -1.50102 0
M  V30 5543 C 537.796 1.23489 -1.60867 0
M  V30 5544 C 538.129 1.91809 -0.303827 0
M  V30 5545 O 537.404 1.81694 0.694092 0
M  V30 5546 C 537.687 2.28578 -2.78252 0
M  V30 5547 C 537.54 1.64624 -4.18592 0
M  V30 5548 C 538.859 3.2997 -2.91218 0
M  V30 5549 H 535.978 0.447605 -0.585507 0
M  V30 5550 H 538.62 0.530005 -1.82458 0
M  V30 5551 H 536.77 2.88697 -2.59974 0
M  V30 5552 H 538.442 1.08173 -4.48438 0
M  V30 5553 H 536.685 0.949645 -4.23278 0
M  V30 5554 H 537.356 2.40946 -4.96638 0
M  V30 5555 H 539.832 2.79864 -3.07921 0
M  V30 5556 H 538.708 4.00839 -3.74993 0
M  V30 5557 H 538.969 3.93541 -2.0144 0
M  V30 5558 N 538.028 1.39524 0.732853 0
M  V30 5559 C 539.274 1.37068 1.49467 0
M  V30 5560 C 539.607 -0.0327166 1.94172 0
M  V30 5561 O 538.882 -0.998071 1.66939 0
M  V30 5562 C 539.165 2.34494 2.73285 0
M  V30 5563 C 539.018 3.83784 2.34585 0
M  V30 5564 C 540.337 2.29717 3.75391 0
M  V30 5565 H 537.456 0.499206 0.542183 0
M  V30 5566 H 540.098 1.70532 0.837783 0
M  V30 5567 H 538.248 2.06087 3.29333 0
M  V30 5568 H 539.92 4.22949 1.84151 0
M  V30 5569 H 538.163 4.00455 1.66787 0
M  V30 5570 H 538.834 4.47444 3.23262 0
M  V30 5571 H 541.31 2.54839 3.28932 0
M  V30 5572 H 540.186 2.99962 4.59689 0
M  V30 5573 H 540.447 1.30291 4.22465 0
M  V30 5574 N 539.506 -0.963266 1.24736 0
M  V30 5575 C 540.746 -1.72172 1.10165 0
M  V30 5576 C 541.11 -1.88731 -0.352784 0
M  V30 5577 O 542.311 -2.61549 -0.620107 0
M  V30 5578 C 540.582 -3.0724 1.82589 0
M  V30 5579 S 542.141 -3.98449 1.83803 0
M  V30 5580 H 538.959 -0.591901 0.393922 0
M  V30 5581 H 541.561 -1.14955 1.58132 0
M  V30 5582 H 540.265 -2.92851 2.87518 0
M  V30 5583 H 539.796 -3.69521 1.34973 0
M  V30 5584 H 541.811 -4.87805 0.908883 0
M  V30 5585 N 540.985 -1.06182 -1.16461 0
M  V30 5586 C 541.932 -0.671613 -2.20812 0
M  V30 5587 C 542.902 0.331186 -1.62765 0
M  V30 5588 O 544.087 0.22033 -1.89524 0
M  V30 5589 C 541.227 -0.063029 -3.45042 0
M  V30 5590 C 540.34 -1.11587 -4.1734 0
M  V30 5591 C 539.475 -0.473546 -5.29085 0
M  V30 5592 C 538.514 -1.51 -5.93182 0
M  V30 5593 N 537.651 -0.891118 -6.96422 0
M  V30 5594 H 542.491 -1.56589 -2.53542 0
M  V30 5595 H 540.028 -0.782951 -1.24532 0
M  V30 5596 H 541.986 0.307344 -4.16066 0
M  V30 5597 H 540.616 0.794663 -3.12866 0
M  V30 5598 H 539.668 -1.60396 -3.44931 0
M  V30 5599 H 540.98 -1.90221 -4.61104 0
M  V30 5600 H 540.134 -0.0501432 -6.06679 0
M  V30 5601 H 538.873 0.344687 -4.8648 0
M  V30 5602 H 537.878 -1.94331 -5.14311 0
M  V30 5603 H 539.103 -2.33031 -6.37866 0
M  V30 5604 H 537.049 -0.0935753 -6.55933 0
M  V30 5605 H 536.966 -1.61486 -7.38551 0
M  V30 5606 H 538.234 -0.492822 -7.77941 0
M  V30 5607 N 542.463 1.3308 -0.844243 0
M  V30 5608 C 543.41 2.29104 -0.279323 0
M  V30 5609 C 544.38 1.54577 0.607882 0
M  V30 5610 O 545.565 1.8285 0.545009 0
M  V30 5611 C 542.705 3.40927 0.53508 0
M  V30 5612 C 541.818 4.30354 -0.376749 0
M  V30 5613 C 540.953 5.29297 0.449276 0
M  V30 5614 C 539.992 6.10365 -0.460606 0
M  V30 5615 N 539.129 7.01335 0.327612 0
M  V30 5616 H 543.969 2.76817 -1.10346 0
M  V30 5617 H 541.506 1.36203 -0.555611 0
M  V30 5618 H 543.464 4.04469 1.02278 0
M  V30 5619 H 542.094 2.94391 1.32414 0
M  V30 5620 H 541.146 3.67485 -0.982791 0
M  V30 5621 H 542.458 4.87067 -1.07549 0
M  V30 5622 H 541.612 5.98392 1.00058 0
M  V30 5623 H 540.351 4.73174 1.18143 0
M  V30 5624 H 539.356 5.40182 -1.02388 0
M  V30 5625 H 540.581 6.68571 -1.1912 0
M  V30 5626 H 538.527 6.47655 1.04305 0
M  V30 5627 H 538.444 7.55355 -0.3123 0
M  V30 5628 H 539.712 7.74731 0.86098 0
M  V30 5629 N 543.941 0.601185 1.45683 0
M  V30 5630 C 545.181 0.0968037 2.04171 0
M  V30 5631 C 545.545 -1.2466 1.46027 0
M  V30 5632 O 546.746 -1.84132 1.95829 0
M  V30 5633 C 545.017 0.051384 3.57363 0
M  V30 5634 S 546.576 -0.392737 4.37039 0
M  V30 5635 H 543.394 0.0464504 0.709481 0
M  V30 5636 H 545.996 0.797846 1.78479 0
M  V30 5637 H 544.7 1.03274 3.97193 0
M  V30 5638 H 544.231 -0.671853 3.87621 0
M  V30 5639 H 546.246 -1.64364 4.68187 0
M  V30 5640 N 545.419 -1.53889 0.339982 0
M  V30 5641 C 546.667 -2.00458 -0.257112 0
M  V30 5642 C 546.988 -1.22953 -1.51353 0
M  V30 5643 O 546.258 -0.335734 -1.93002 0
M  V30 5644 H 544.838 -0.740544 -0.0979965 0
M  V30 5645 H 547.5 -1.89386 0.460317 0
M  V30 5646 H 546.596 -3.08035 -0.502057 0
M  V30 5647 N 546.897 -0.0685191 -1.57451 0
M  V30 5648 C 547.86 0.885173 -2.11417 0
M  V30 5649 C 548.86 1.22853 -1.03748 0
M  V30 5650 O 550.05 1.16235 -1.2975 0
M  V30 5651 C 547.182 2.18964 -2.61281 0
M  V30 5652 H 548.375 0.417034 -2.96986 0
M  V30 5653 H 545.928 0.18014 -1.55258 0
M  V30 5654 H 546.663 2.70321 -1.79156 0
M  V30 5655 H 546.448 1.9534 -3.39977 0
M  V30 5656 H 547.938 2.87242 -3.0312 0
M  V30 5657 N 548.375 1.56261 0.205012 0
M  V30 5658 C 549.623 1.79684 0.925096 0
M  V30 5659 C 549.944 0.63989 1.84202 0
M  V30 5660 O 549.214 -0.342345 1.92885 0
M  V30 5661 H 547.794 0.662774 0.344587 0
M  V30 5662 H 550.456 1.93734 0.212899 0
M  V30 5663 H 549.552 2.72467 1.52211 0
M  V30 5664 N 549.853 -0.472356 1.50355 0
M  V30 5665 C 551.13 -1.23356 1.51798 0
M  V30 5666 C 551.51 -2.09469 0.26193 0
M  V30 5667 O 550.858 -2.15677 -0.754691 0
M  V30 5668 C 551.068 -2.06568 2.81302 0
M  V30 5669 C 552.416 -2.648 3.31913 0
M  V30 5670 O 553.44 -2.16812 2.82614 0
M  V30 5671 O 552.299 -3.52231 4.17846 0
M  V30 5672 H 549.393 -0.559707 0.608816 0
M  V30 5673 H 551.939 -0.48428 1.62643 0
M  V30 5674 H 550.711 -1.43103 3.64194 0
M  V30 5675 H 550.334 -2.88633 2.73454 0
M  V30 5676 N 551.331 -1.39911 -0.725443 0
M  V30 5677 C 552.742 -1.33599 -1.30415 0
M  V30 5678 C 553.093 -0.00481792 -1.96199 0
M  V30 5679 O 552.218 0.897275 -1.96921 0
M  V30 5680 C 552.813 -2.41965 -2.37146 0
M  V30 5681 C 551.372 -2.39144 -2.90667 0
M  V30 5682 C 550.519 -2.23355 -1.64341 0
M  V30 5683 H 553.47 -1.4986 -0.522267 0
M  V30 5684 H 553.491 -2.09304 -3.17761 0
M  V30 5685 H 553.003 -3.38837 -1.89238 0
M  V30 5686 H 551.104 -1.4594 -3.4283 0
M  V30 5687 H 551.217 -3.34362 -3.43131 0
M  V30 5688 H 549.581 -1.70696 -1.89037 0
M  V30 5689 H 550.364 -3.2221 -1.18471 0
M  V30 5690 N 552.809 0.956637 -1.25245 0
M  V30 5691 C 554.034 1.74104 -1.12706 0
M  V30 5692 C 554.459 1.85436 0.315429 0
M  V30 5693 O 553.817 1.33334 1.22848 0
M  V30 5694 C 553.865 3.1338 -1.78396 0
M  V30 5695 O 552.969 3.98485 -1.06224 0
M  V30 5696 H 552.31 0.53476 -0.393609 0
M  V30 5697 H 554.84 1.19924 -1.65769 0
M  V30 5698 H 554.85 3.6385 -1.846 0
M  V30 5699 H 553.525 3.04448 -2.83345 0
M  V30 5700 H 552.102 3.56952 -1.07886 0
M  V30 5701 N 554.287 1.06798 1.15896 0
M  V30 5702 C 555.234 0.683314 2.20453 0
M  V30 5703 C 556.204 -0.32255 1.62938 0
M  V30 5704 O 557.389 -0.210276 1.89638 0
M  V30 5705 C 554.529 0.0813266 3.45004 0
M  V30 5706 C 553.642 1.13799 4.16742 0
M  V30 5707 C 552.777 0.501598 5.28826 0
M  V30 5708 C 551.816 1.54144 5.92373 0
M  V30 5709 N 550.953 0.928038 6.9594 0
M  V30 5710 H 555.793 1.57932 2.52708 0
M  V30 5711 H 553.33 0.789544 1.24115 0
M  V30 5712 H 555.288 -0.285274 4.16224 0
M  V30 5713 H 553.918 -0.77806 3.13283 0
M  V30 5714 H 552.97 1.62223 3.44075 0
M  V30 5715 H 554.282 1.92664 4.60089 0
M  V30 5716 H 553.436 0.0823162 6.06644 0
M  V30 5717 H 552.175 -0.318883 4.86656 0
M  V30 5718 H 551.18 1.97056 5.13273 0
M  V30 5719 H 552.405 2.3641 6.36621 0
M  V30 5720 H 550.351 0.12836 6.55874 0
M  V30 5721 H 550.268 1.65401 7.37685 0
M  V30 5722 H 551.536 0.534071 7.77668 0
M  V30 5723 N 555.766 -1.3263 0.851289 0
M  V30 5724 C 557.006 -1.99174 0.459266 0
M  V30 5725 C 557.37 -1.65913 -0.966273 0
M  V30 5726 O 558.571 -2.2552 -1.46267 0
M  V30 5727 C 556.842 -3.50721 0.687698 0
M  V30 5728 S 558.401 -4.37039 0.392746 0
M  V30 5729 H 555.219 -0.689832 0.172199 0
M  V30 5730 H 557.821 -1.61395 1.10327 0
M  V30 5731 H 556.525 -3.72417 1.72435 0
M  V30 5732 H 556.056 -3.93389 0.0299949 0
M  V30 5733 H 558.071 -4.8999 -0.782578 0
M  V30 5734 N 557.244 -0.608902 -1.45362 0
M  V30 5735 C 558.66 -0.272659 -1.57254 0
M  V30 5736 C 558.86 1.22477 -1.60005 0
M  V30 5737 O 557.916 2.00785 -1.53106 0
M  V30 5738 C 559.229 -0.944991 -2.85465 0
M  V30 5739 C 560.777 -0.921033 -2.99142 0
M  V30 5740 C 561.252 -1.5734 -4.30126 0
M  V30 5741 N 562.743 -1.53895 -4.36887 0
M  V30 5742 C 563.478 -2.01286 -5.36909 0
M  V30 5743 N 562.974 -2.56768 -6.43461 0
M  V30 5744 N 564.767 -1.92046 -5.28275 0
M  V30 5745 H 556.918 -1.58117 -1.4182 0
M  V30 5746 H 559.181 -0.662437 -0.678146 0
M  V30 5747 H 558.887 -1.99941 -2.89338 0
M  V30 5748 H 558.761 -0.469079 -3.74272 0
M  V30 5749 H 561.148 0.124846 -2.94836 0
M  V30 5750 H 561.229 -1.43522 -2.11743 0
M  V30 5751 H 560.873 -2.61862 -4.35191 0
M  V30 5752 H 560.803 -1.03422 -5.16344 0
M  V30 5753 H 563.294 -1.13366 -3.60495 0
M  V30 5754 H 563.607 -2.9072 -7.16032 0
M  V30 5755 H 561.952 -2.60808 -6.44208 0
M  V30 5756 H 565.143 -1.48439 -4.43941 0
M  V30 5757 H 565.316 -2.29293 -6.06077 0
M  V30 5758 N 558.722 1.53707 -0.348139 0
M  V30 5759 C 560.133 1.86213 0.134797 0
M  V30 5760 C 560.484 1.26925 1.49614 0
M  V30 5761 O 559.609 0.584573 2.08355 0
M  V30 5762 C 560.204 3.37866 0.251371 0
M  V30 5763 C 558.763 3.70233 0.678543 0
M  V30 5764 C 557.91 2.76683 -0.184925 0
M  V30 5765 H 560.861 1.48204 -0.567571 0
M  V30 5766 H 560.882 3.64908 1.07806 0
M  V30 5767 H 560.394 3.80988 -0.739581 0
M  V30 5768 H 558.495 3.32659 1.67835 0
M  V30 5769 H 558.608 4.76836 0.465251 0
M  V30 5770 H 556.972 2.52374 0.343465 0
M  V30 5771 H 557.755 3.22635 -1.1731 0
M  V30 5772 N 560.2 0.0768682 1.57412 0
M  V30 5773 C 561.44 -0.594676 1.95558 0
M  V30 5774 C 561.804 -1.66469 0.956658 0
M  V30 5775 O 563.005 -2.39215 1.22595 0
M  V30 5776 C 561.276 -1.15206 3.38323 0
M  V30 5777 S 562.835 -1.83803 3.9845 0
M  V30 5778 H 559.653 -0.194579 0.683857 0
M  V30 5779 H 562.255 0.151933 1.94909 0
M  V30 5780 H 560.959 -0.36153 4.08805 0
M  V30 5781 H 560.49 -1.93491 3.42527 0
M  V30 5782 H 562.505 -3.12087 3.85767 0
M  V30 5783 N 561.678 -1.56367 -0.196722 0
M  V30 5784 C 562.926 -1.80172 -0.915554 0
M  V30 5785 C 563.247 -0.649649 -1.8386 0
M  V30 5786 O 562.517 0.332111 -1.93064 0
M  V30 5787 H 561.097 -0.664592 -0.341067 0
M  V30 5788 H 563.759 -1.93844 -0.202622 0
M  V30 5789 H 562.855 -2.7327 -1.50764 0
M  V30 5790 N 563.156 0.464375 -1.50603 0
M  V30 5791 C 564.381 1.24372 -1.65971 0
M  V30 5792 C 564.806 1.84901 -0.345453 0
M  V30 5793 O 564.164 1.67596 0.691457 0
M  V30 5794 C 564.212 2.32331 -2.7578 0
M  V30 5795 O 563.316 3.37146 -2.375 0
M  V30 5796 H 562.657 0.365604 -0.554283 0
M  V30 5797 H 565.187 0.55183 -1.97018 0
M  V30 5798 H 565.197 2.77539 -2.99059 0
M  V30 5799 H 563.872 1.87648 -3.71162 0
M  V30 5800 H 562.449 2.97602 -2.24694 0
M  V30 5801 N 564.634 1.40294 0.718013 0
M  V30 5802 C 565.882 1.38167 1.47494 0
M  V30 5803 C 566.203 -0.01607 1.94993 0
M  V30 5804 O 565.473 -0.970396 1.70177 0
M  V30 5805 H 564.053 0.508505 0.547203 0
M  V30 5806 H 566.715 1.75324 0.851322 0
M  V30 5807 H 565.811 2.05503 2.34894 0
M  V30 5808 N 566.112 -0.949982 1.2575 0
M  V30 5809 C 567.358 -1.69766 1.10938 0
M  V30 5810 C 567.691 -1.91056 -0.348028 0
M  V30 5811 O 566.966 -1.48488 -1.25625 0
M  V30 5812 C 567.249 -3.07779 1.86933 0
M  V30 5813 C 567.102 -2.9387 3.4053 0
M  V30 5814 C 568.421 -4.07749 1.65616 0
M  V30 5815 H 565.54 -0.616144 0.404396 0
M  V30 5816 H 568.182 -1.10394 1.54639 0
M  V30 5817 H 566.332 -3.58462 1.4979 0
M  V30 5818 H 568.004 -2.50476 3.87375 0
M  V30 5819 H 566.247 -2.29686 3.68004 0
M  V30 5820 H 566.918 -3.91719 3.88922 0
M  V30 5821 H 569.394 -3.65994 1.97959 0
M  V30 5822 H 568.27 -5.02348 2.21218 0
M  V30 5823 H 568.531 -4.38029 0.598595 0
M  V30 5824 N 567.59 -1.07411 -1.15328 0
M  V30 5825 C 568.54 -0.664788 -2.18093 0
M  V30 5826 C 569.524 0.310395 -1.57878 0
M  V30 5827 O 570.716 0.124026 -1.76565 0
M  V30 5828 C 567.845 -0.0647822 -3.43239 0
M  V30 5829 C 566.931 -1.06514 -4.10506 0
M  V30 5830 N 567.322 -2.24491 -4.53252 0
M  V30 5831 C 565.62 -0.898613 -4.36853 0
M  V30 5832 C 566.321 -2.8796 -5.05424 0
M  V30 5833 N 565.297 -2.15622 -4.99007 0
M  V30 5834 H 569.099 -1.56333 -2.48872 0
M  V30 5835 H 566.613 -0.947393 -1.31902 0
M  V30 5836 H 568.61 0.246363 -4.16171 0
M  V30 5837 H 567.27 0.828866 -3.13943 0
M  V30 5838 H 568.281 -2.62205 -4.46619 0
M  V30 5839 H 564.958 -0.0579118 -4.1746 0
M  V30 5840 H 566.348 -3.88137 -5.48452 0
M  V30 5841 N 569.068 1.32177 -0.85831 0
M  V30 5842 C 570.298 2.01021 -0.476889 0
M  V30 5843 C 570.706 1.64653 0.931995 0
M  V30 5844 O 570.049 0.865713 1.62022 0
M  V30 5845 C 570.111 3.55413 -0.540528 0
M  V30 5846 C 569.775 4.1522 -1.90895 0
M  V30 5847 C 570.772 4.3318 -2.87491 0
M  V30 5848 C 568.457 4.51212 -2.20709 0
M  V30 5849 C 570.451 4.86306 -4.1205 0
M  V30 5850 C 568.138 5.04042 -3.45521 0
M  V30 5851 C 569.136 5.21538 -4.41007 0
M  V30 5852 O 568.824 5.73238 -5.63608 0
M  V30 5853 H 568.556 0.650059 -0.18547 0
M  V30 5854 H 571.11 1.69648 -1.15796 0
M  V30 5855 H 569.34 3.86196 0.19741 0
M  V30 5856 H 571.029 4.05526 -0.174191 0
M  V30 5857 H 571.795 4.05704 -2.65762 0
M  V30 5858 H 567.674 4.36878 -1.4717 0
M  V30 5859 H 571.218 4.99877 -4.86589 0
M  V30 5860 H 567.115 5.30952 -3.67098 0
M  V30 5861 H 567.883 5.91625 -5.65617 0
M  V30 5862 N 570.547 0.616602 1.45037 0
M  V30 5863 C 571.775 0.121968 2.0654 0
M  V30 5864 C 572.19 -1.19743 1.45969 0
M  V30 5865 O 571.547 -1.73133 0.577168 0
M  V30 5866 C 571.598 -0.0145171 3.61497 0
M  V30 5867 O 571.319 1.25269 4.19809 0
M  V30 5868 C 572.82 -0.539555 4.40004 0
M  V30 5869 H 570.04 0.0729837 0.667019 0
M  V30 5870 H 572.584 0.846891 1.8614 0
M  V30 5871 H 570.739 -0.689809 3.81209 0
M  V30 5872 H 571.153 1.08816 5.13088 0
M  V30 5873 H 572.627 -0.584112 5.48901 0
M  V30 5874 H 573.104 -1.56368 4.10421 0
M  V30 5875 H 573.71 0.101995 4.25178 0
M  V30 5876 N 572.025 -1.5352 0.356285 0
M  V30 5877 C 573.436 -1.86282 -0.12492 0
M  V30 5878 C 573.787 -1.27717 -1.48939 0
M  V30 5879 O 572.912 -0.595614 -2.08042 0
M  V30 5880 C 573.507 -3.37995 -0.23345 0
M  V30 5881 C 572.066 -3.70588 -0.658899 0
M  V30 5882 C 571.213 -2.76581 0.199596 0
M  V30 5883 H 574.164 -1.47901 0.575423 0
M  V30 5884 H 574.185 -3.65475 -1.0587 0
M  V30 5885 H 573.697 -3.8059 0.759776 0
M  V30 5886 H 571.798 -3.33544 -1.66069 0
M  V30 5887 H 571.911 -4.77076 -0.439957 0
M  V30 5888 H 570.275 -2.52552 -0.330076 0
M  V30 5889 H 571.058 -3.22008 1.19019 0
M  V30 5890 N 573.503 -0.0852151 -1.57369 0
M  V30 5891 C 574.435 0.907099 -2.10486 0
M  V30 5892 C 575.448 1.25259 -1.03991 0
M  V30 5893 O 576.637 1.20743 -1.31467 0
M  V30 5894 C 573.737 2.21908 -2.56145 0
M  V30 5895 C 572.91 2.05042 -3.86363 0
M  V30 5896 C 571.969 3.19664 -4.17973 0
M  V30 5897 O 570.995 2.94062 -4.87356 0
M  V30 5898 N 572.197 4.45151 -3.72587 0
M  V30 5899 H 574.962 0.453505 -2.96249 0
M  V30 5900 H 572.523 0.100157 -1.6159 0
M  V30 5901 H 574.515 2.97519 -2.74343 0
M  V30 5902 H 573.085 2.58723 -1.75446 0
M  V30 5903 H 572.305 1.13819 -3.77411 0
M  V30 5904 H 573.593 1.91039 -4.71574 0
M  V30 5905 H 572.991 4.68834 -3.16561 0
M  V30 5906 H 571.548 5.17744 -3.9596 0
M  V30 5907 N 574.981 1.5647 0.188427 0
M  V30 5908 C 575.913 1.91611 1.25769 0
M  V30 5909 C 576.926 0.807436 1.41366 0
M  V30 5910 O 578.115 1.08586 1.41673 0
M  V30 5911 C 575.215 2.13874 2.6289 0
M  V30 5912 C 574.388 3.45047 2.68815 0
M  V30 5913 C 573.447 3.56342 3.87178 0
M  V30 5914 O 572.473 4.29109 3.73971 0
M  V30 5915 N 573.675 2.89924 5.02916 0
M  V30 5916 H 576.44 2.8393 0.959373 0
M  V30 5917 H 574.001 1.57418 0.378306 0
M  V30 5918 H 575.993 2.18713 3.4051 0
M  V30 5919 H 574.563 1.28022 2.85183 0
M  V30 5920 H 573.783 3.52017 1.77419 0
M  V30 5921 H 575.071 4.31395 2.6977 0
M  V30 5922 H 574.469 2.30644 5.16546 0
M  V30 5923 H 573.026 3.0038 5.78459 0
M  V30 5924 N 576.459 -0.456382 1.50847 0
M  V30 5925 C 577.407 -1.57318 1.71329 0
M  V30 5926 C 578.401 -1.59187 0.579287 0
M  V30 5927 O 579.607 -1.6316 0.76018 0
M  V30 5928 H 575.982 -0.5223 0.541024 0
M  V30 5929 H 577.953 -1.3721 2.64983 0
M  V30 5930 C 576.702 -2.95142 1.83811 0
M  V30 5931 H 576.025 -2.94428 2.70467 0
M  V30 5932 H 577.465 -3.72702 2.02161 0
M  V30 5933 C 575.924 -3.31636 0.593224 0
M  V30 5934 O 576.454 -4.00852 -0.260898 0
M  V30 5935 N 574.66 -2.87205 0.442902 0
M  V30 5936 H 574.207 -2.31051 1.13901 0
M  V30 5937 H 574.165 -3.11986 -0.38884 0
M  V30 5938 N 577.937 -1.40673 -0.710563 0
M  V30 5939 C 579.185 -1.38947 -1.46759 0
M  V30 5940 C 579.506 0.00572879 -1.94999 0
M  V30 5941 O 578.776 0.961358 -1.70689 0
M  V30 5942 H 577.356 -0.5114 -0.544499 0
M  V30 5943 H 580.018 -1.75773 -0.842012 0
M  V30 5944 H 579.114 -2.06745 -2.33801 0
M  V30 5945 N 579.415 0.9433 -1.26252 0
M  V30 5946 C 580.345 2.05902 -1.10122 0
M  V30 5947 C 581.326 1.70099 -0.00700552 0
M  V30 5948 O 582.511 1.93377 -0.178641 0
M  V30 5949 C 579.641 3.39516 -0.731175 0
M  V30 5950 C 578.595 3.89372 -1.77688 0
M  V30 5951 C 577.921 5.19613 -1.26122 0
M  V30 5952 C 579.221 4.14489 -3.17799 0
M  V30 5953 H 580.915 2.19655 -2.03451 0
M  V30 5954 H 578.461 1.05548 -0.979576 0
M  V30 5955 H 580.414 4.17031 -0.605215 0
M  V30 5956 H 579.138 3.25733 0.23782 0
M  V30 5957 H 577.797 3.14036 -1.89148 0
M  V30 5958 H 577.445 5.02208 -0.282128 0
M  V30 5959 H 577.145 5.53939 -1.96023 0
M  V30 5960 H 578.669 5.99713 -1.14789 0
M  V30 5961 H 580.083 4.82625 -3.09428 0
M  V30 5962 H 578.48 4.60094 -3.85271 0
M  V30 5963 H 579.55 3.20347 -3.64014 0
M  V30 5964 N 580.893 1.08022 1.14757 0
M  V30 5965 C 581.84 0.706657 2.19716 0
M  V30 5966 C 582.81 -0.30525 1.63271 0
M  V30 5967 O 583.995 -0.19015 1.8985 0
M  V30 5968 C 581.135 0.117914 3.44898 0
M  V30 5969 C 580.248 1.18212 4.15512 0
M  V30 5970 C 579.383 0.557659 5.28265 0
M  V30 5971 C 578.422 1.60418 5.90705 0
M  V30 5972 N 577.559 1.0018 6.94916 0
M  V30 5973 H 582.399 1.60603 2.51019 0
M  V30 5974 H 579.936 0.802664 1.23271 0
M  V30 5975 H 581.894 -0.241112 4.16503 0
M  V30 5976 H 580.524 -0.744788 3.1409 0
M  V30 5977 H 579.576 1.65863 3.42335 0
M  V30 5978 H 580.888 1.97533 4.5802 0
M  V30 5979 H 580.042 0.146654 6.06523 0
M  V30 5980 H 578.781 -0.267249 4.86967 0
M  V30 5981 H 577.786 2.02489 5.11154 0
M  V30 5982 H 579.011 2.43149 6.34078 0
M  V30 5983 H 576.957 0.197917 6.55701 0
M  V30 5984 H 576.874 1.73216 7.35889 0
M  V30 5985 H 578.142 0.616523 7.77058 0
M  V30 5986 N 582.371 -1.3172 0.865308 0
M  V30 5987 C 583.599 -2.01057 0.488251 0
M  V30 5988 C 584.014 -1.64979 -0.918 0
M  V30 5989 O 583.371 -0.876597 -1.60069 0
M  V30 5990 C 583.422 -3.55964 0.630224 0
M  V30 5991 O 583.143 -3.90749 1.98109 0
M  V30 5992 C 584.644 -4.42574 0.253567 0
M  V30 5993 H 581.864 -0.64332 0.190736 0
M  V30 5994 H 584.408 -1.68058 1.16519 0
M  V30 5995 H 582.563 -3.874 0.000895422 0
M  V30 5996 H 582.977 -4.85467 1.9855 0
M  V30 5997 H 584.451 -5.50521 0.403875 0
M  V30 5998 H 584.928 -4.31724 -0.806895 0
M  V30 5999 H 585.534 -4.16547 0.858404 0
M  V30 6000 N 583.85 -0.624285 -1.44708 0
M  V30 6001 C 585.077 -0.132919 -2.06473 0
M  V30 6002 C 585.493 1.18967 -1.46602 0
M  V30 6003 O 584.85 1.72824 -0.586341 0
M  V30 6004 C 584.901 -0.00465418 -3.615 0
M  V30 6005 O 584.622 -1.27494 -4.19138 0
M  V30 6006 C 586.123 0.516213 -4.40284 0
M  V30 6007 H 583.343 -0.0765201 -0.666623 0
M  V30 6008 H 585.887 -0.856751 -1.85688 0
M  V30 6009 H 584.042 0.669583 -3.8157 0
M  V30 6010 H 584.456 -1.11536 -5.12504 0
M  V30 6011 H 585.93 0.554994 -5.49203 0
M  V30 6012 H 586.407 1.5419 -4.11245 0
M  V30 6013 H 587.013 -0.124542 -4.25118 0
M  V30 6014 N 585.328 1.53329 -0.364422 0
M  V30 6015 C 586.275 2.25698 0.482607 0
M  V30 6016 C 587.245 1.26325 1.07848 0
M  V30 6017 O 588.43 1.55104 1.11119 0
M  V30 6018 C 585.57 3.04873 1.61699 0
M  V30 6019 C 584.683 4.19135 1.0464 0
M  V30 6020 C 583.818 4.85754 2.14979 0
M  V30 6021 C 582.857 5.9205 1.5538 0
M  V30 6022 N 581.994 6.52365 2.59547 0
M  V30 6023 H 586.834 2.97666 -0.141032 0
M  V30 6024 H 584.371 1.46875 -0.0813692 0
M  V30 6025 H 586.329 3.49051 2.28516 0
M  V30 6026 H 584.959 2.35162 2.2113 0
M  V30 6027 H 584.011 3.79451 0.268553 0
M  V30 6028 H 585.323 4.95525 0.570653 0
M  V30 6029 H 584.477 5.3311 2.89619 0
M  V30 6030 H 583.216 4.08834 2.65906 0
M  V30 6031 H 582.221 5.44058 0.792549 0
M  V30 6032 H 583.446 6.7089 1.0528 0
M  V30 6033 H 581.392 5.78298 3.09689 0
M  V30 6034 H 581.309 7.2429 2.16655 0
M  V30 6035 H 582.577 7.0437 3.33892 0
M  V30 6036 N 586.806 0.0935595 1.57322 0
M  V30 6037 C 588.052 -0.571355 1.94585 0
M  V30 6038 C 588.385 -1.67929 0.975366 0
M  V30 6039 O 587.66 -1.94498 0.00816206 0
M  V30 6040 C 587.943 -1.12797 3.41978 0
M  V30 6041 C 587.796 -0.0251881 4.49793 0
M  V30 6042 C 589.115 -2.02682 3.90651 0
M  V30 6043 H 586.234 -0.206223 0.70756 0
M  V30 6044 H 588.876 0.163956 1.89291 0
M  V30 6045 H 587.026 -1.75461 3.4662 0
M  V30 6046 H 588.698 0.608979 4.57263 0
M  V30 6047 H 586.941 0.641399 4.29032 0
M  V30 6048 H 587.612 -0.455433 5.50118 0
M  V30 6049 H 590.088 -1.49925 3.88152 0
M  V30 6050 H 588.964 -2.38555 4.94351 0
M  V30 6051 H 589.225 -2.94362 3.29854 0
M  V30 6052 N 588.284 -1.56567 -0.180126 0
M  V30 6053 C 589.509 -1.85975 -0.918041 0
M  V30 6054 C 589.934 -0.678888 -1.75422 0
M  V30 6055 O 589.292 0.372168 -1.77439 0
M  V30 6056 C 589.34 -3.13731 -1.77779 0
M  V30 6057 O 588.444 -2.95335 -2.87838 0
M  V30 6058 H 587.785 -0.61196 -0.257683 0
M  V30 6059 H 590.315 -2.03798 -0.180923 0
M  V30 6060 H 590.325 -3.4491 -2.17948 0
M  V30 6061 H 589 -3.99293 -1.16352 0
M  V30 6062 H 587.577 -2.7549 -2.51316 0
M  V30 6063 N 589.762 0.448376 -1.51087 0
M  V30 6064 C 591.011 1.19561 -1.62444 0
M  V30 6065 C 591.324 1.92602 -0.341151 0
M  V30 6066 O 592.53 2.69439 -0.333936 0
M  V30 6067 C 590.986 2.17373 -2.8684 0
M  V30 6068 C 590.594 1.5003 -4.22131 0
M  V30 6069 C 592.338 2.92597 -3.0755 0
M  V30 6070 C 590.245 2.46262 -5.37689 0
M  V30 6071 H 589.175 0.449975 -0.605011 0
M  V30 6072 H 591.826 0.463735 -1.77544 0
M  V30 6073 H 590.208 2.93948 -2.65349 0
M  V30 6074 H 591.382 0.790886 -4.53962 0
M  V30 6075 H 589.697 0.870011 -4.0721 0
M  V30 6076 H 592.294 3.64663 -3.91056 0
M  V30 6077 H 592.637 3.53306 -2.20183 0
M  V30 6078 H 593.17 2.23131 -3.29329 0
M  V30 6079 H 589.909 1.90258 -6.27281 0
M  V30 6080 H 589.429 3.15289 -5.10248 0
M  V30 6081 H 591.108 3.07623 -5.6919 0
M  V30 6082 N 591.24 1.41047 0.703093 0
M  V30 6083 C 592.468 1.4334 1.49202 0
M  V30 6084 C 592.883 0.0365596 1.88765 0
M  V30 6085 O 592.24 -0.942419 1.56284 0
M  V30 6086 C 592.291 2.33538 2.75939 0
M  V30 6087 O 592.012 3.67786 2.38045 0
M  V30 6088 C 593.513 2.44555 3.6974 0
M  V30 6089 H 590.733 0.488472 0.460039 0
M  V30 6090 H 593.277 1.85245 0.86629 0
M  V30 6091 H 591.432 1.94962 3.34766 0
M  V30 6092 H 591.846 4.15816 3.19683 0
M  V30 6093 H 593.32 3.11849 4.55471 0
M  V30 6094 H 593.797 1.47447 4.1371 0
M  V30 6095 H 594.403 2.83735 3.16819 0
M  V30 6096 N 592.718 -0.936591 1.26751 0
M  V30 6097 C 593.995 -1.66094 1.03306 0
M  V30 6098 C 594.375 -2.06568 -0.435058 0
M  V30 6099 O 593.723 -1.79305 -1.41641 0
M  V30 6100 C 593.933 -2.86969 1.98619 0
M  V30 6101 C 595.281 -3.58516 2.27489 0
M  V30 6102 O 596.305 -2.97082 1.96522 0
M  V30 6103 O 595.164 -4.69181 2.80235 0
M  V30 6104 H 592.258 -0.727568 0.393158 0
M  V30 6105 H 594.804 -0.987914 1.3798 0
M  V30 6106 H 593.576 -2.53985 2.9767 0
M  V30 6107 H 593.199 -3.61996 1.64454 0
M  V30 6108 N 594.196 -1.08629 -1.14182 0
M  V30 6109 C 595.126 -0.740003 -2.21464 0
M  V30 6110 C 596.107 0.278591 -1.67803 0
M  V30 6111 O 597.292 0.148461 -1.93632 0
M  V30 6112 C 594.422 -0.150952 -3.46972 0
M  V30 6113 C 593.376 -1.09815 -4.13672 0
M  V30 6114 C 592.702 -0.3712 -5.3341 0
M  V30 6115 C 594.002 -2.43722 -4.61949 0
M  V30 6116 H 595.696 -1.63697 -2.50686 0
M  V30 6117 H 593.242 -0.788526 -1.20492 0
M  V30 6118 H 595.195 0.103325 -4.21273 0
M  V30 6119 H 593.919 0.781164 -3.1712 0
M  V30 6120 H 592.578 -1.33756 -3.41328 0
M  V30 6121 H 592.226 0.564792 -4.99819 0
M  V30 6122 H 591.926 -1.00267 -5.78982 0
M  V30 6123 H 593.45 -0.12503 -6.10472 0
M  V30 6124 H 594.864 -2.24034 -5.27714 0
M  V30 6125 H 593.261 -3.02582 -5.18232 0
M  V30 6126 H 594.331 -3.05082 -3.76899 0
M  V30 6127 N 595.674 1.31259 -0.872281 0
M  V30 6128 C 596.604 2.30929 -0.345554 0
M  V30 6129 C 597.585 1.60449 0.5648 0
M  V30 6130 O 598.77 1.8814 0.481335 0
M  V30 6131 C 595.9 3.44348 0.451823 0
M  V30 6132 C 594.854 4.26435 -0.365641 0
M  V30 6133 C 594.18 5.31785 0.557562 0
M  V30 6134 C 595.48 4.97159 -1.60095 0
M  V30 6135 H 597.174 2.75234 -1.17841 0
M  V30 6136 H 594.72 1.3232 -0.568094 0
M  V30 6137 H 596.673 4.13128 0.830854 0
M  V30 6138 H 595.397 2.98816 1.31821 0
M  V30 6139 H 594.056 3.59326 -0.726649 0
M  V30 6140 H 593.704 4.82502 1.4213 0
M  V30 6141 H 593.404 5.87598 0.0144878 0
M  V30 6142 H 594.928 6.03424 0.933387 0
M  V30 6143 H 596.342 5.58523 -1.29323 0
M  V30 6144 H 594.739 5.62779 -2.08327 0
M  V30 6145 H 595.809 4.24012 -2.35249 0
M  V30 6146 N 597.152 0.631951 1.44375 0
M  V30 6147 C 598.115 -0.0628142 2.29114 0
M  V30 6148 C 599.115 -0.771494 1.41084 0
M  V30 6149 O 600.305 -0.615959 1.62947 0
M  V30 6150 C 597.437 -1.09953 3.22681 0
M  V30 6151 H 598.63 0.682509 2.92031 0
M  V30 6152 H 596.183 0.392128 1.51301 0
M  V30 6153 H 596.918 -1.87481 2.64616 0
M  V30 6154 H 596.703 -0.595286 3.87555 0
M  V30 6155 H 598.193 -1.58538 3.86336 0
M  V30 6156 N 598.631 -1.53133 0.372548 0
M  V30 6157 C 599.581 -2.22733 -0.487218 0
M  V30 6158 C 600.565 -1.22506 -1.04312 0
M  V30 6159 O 601.757 -1.47923 -0.972005 0
M  V30 6160 C 598.886 -3.02524 -1.62278 0
M  V30 6161 C 597.972 -4.10133 -1.07943 0
M  V30 6162 N 598.363 -5.05133 -0.259629 0
M  V30 6163 C 596.661 -4.24964 -1.35356 0
M  V30 6164 C 597.362 -5.81687 0.0386656 0
M  V30 6165 N 596.338 -5.40699 -0.560827 0
M  V30 6166 H 600.14 -2.93538 0.145853 0
M  V30 6167 H 597.654 -1.61389 0.180938 0
M  V30 6168 H 599.651 -3.50909 -2.25096 0
M  V30 6169 H 598.311 -2.33252 -2.25884 0
M  V30 6170 H 599.322 -5.178 0.101746 0
M  V30 6171 H 595.999 -3.66919 -1.9919 0
M  V30 6172 H 597.389 -6.68224 0.701841 0
M  V30 6173 N 600.109 -0.101901 -1.5727 0
M  V30 6174 C 601.337 0.568392 -1.98939 0
M  V30 6175 C 601.752 1.61301 -0.981194 0
M  V30 6176 O 601.109 1.82478 0.0282869 0
M  V30 6177 C 601.16 1.20997 -3.40649 0
M  V30 6178 O 600.881 0.207129 -4.3761 0
M  V30 6179 C 602.382 1.96523 -3.97358 0
M  V30 6180 H 599.602 0.15186 -0.65359 0
M  V30 6181 H 602.146 -0.183198 -2.03678 0
M  V30 6182 H 600.301 1.91245 -3.36904 0
M  V30 6183 H 600.715 0.671071 -5.20189 0
M  V30 6184 H 602.189 2.36764 -4.98645 0
M  V30 6185 H 602.666 2.83376 -3.35552 0
M  V30 6186 H 603.272 1.31076 -4.04598 0
M  V30 6187 N 601.587 1.56661 0.17182 0
M  V30 6188 C 602.535 1.97289 1.23207 0
M  V30 6189 C 603.529 0.861566 1.45854 0
M  V30 6190 O 604.735 1.04668 1.4644 0
M  V30 6191 H 601.11 0.627681 0.41415 0
M  V30 6192 H 603.081 2.85662 0.862542 0
M  V30 6193 C 601.83 2.34849 2.564 0
M  V30 6194 H 601.153 3.19903 2.39797 0
M  V30 6195 H 602.593 2.67121 3.29276 0
M  V30 6196 C 601.052 1.19172 3.15119 0
M  V30 6197 O 601.582 0.479113 3.98833 0
M  V30 6198 N 599.788 0.962415 2.74201 0
M  V30 6199 H 599.335 1.54365 2.06226 0
M  V30 6200 H 599.293 0.190272 3.13824 0
M  V30 6201 N 603.065 -0.440357 1.51323 0
M  V30 6202 C 604.295 -1.21079 1.67402 0
M  V30 6203 C 604.703 -1.85555 0.369599 0
M  V30 6204 O 604.046 -1.71375 -0.661525 0
M  V30 6205 C 604.108 -2.33839 2.73056 0
M  V30 6206 C 603.772 -1.89755 4.15743 0
M  V30 6207 C 604.769 -1.40268 5.0062 0
M  V30 6208 C 602.454 -1.97539 4.61826 0
M  V30 6209 C 604.448 -0.991474 6.29642 0
M  V30 6210 C 602.135 -1.56029 5.90845 0
M  V30 6211 C 603.133 -1.06915 6.7458 0
M  V30 6212 O 602.821 -0.659933 8.01187 0
M  V30 6213 H 602.553 -0.371133 0.56501 0
M  V30 6214 H 605.107 -0.528409 1.98487 0
M  V30 6215 H 603.337 -3.05345 2.37279 0
M  V30 6216 H 605.026 -2.95713 2.78044 0
M  V30 6217 H 605.792 -1.33652 4.66221 0
M  V30 6218 H 601.671 -2.34713 3.96776 0
M  V30 6219 H 605.215 -0.607425 6.9495 0
M  V30 6220 H 601.112 -1.62315 6.24759 0
M  V30 6221 H 601.88 -0.786052 8.14717 0
M  V30 6222 N 604.543 -1.41418 -0.695603 0
M  V30 6223 C 605.771 -1.4413 -1.48439 0
M  V30 6224 C 606.186 -0.0465698 -1.88743 0
M  V30 6225 O 605.543 0.934117 -1.56782 0
M  V30 6226 C 605.594 -2.34998 -2.74696 0
M  V30 6227 O 605.315 -3.69043 -2.36091 0
M  V30 6228 C 606.816 -2.46513 -3.68438 0
M  V30 6229 H 604.036 -0.490905 -0.457442 0
M  V30 6230 H 606.58 -1.85702 -0.856454 0
M  V30 6231 H 604.735 -1.96735 -3.33728 0
M  V30 6232 H 605.149 -4.17505 -3.17474 0
M  V30 6233 H 606.623 -3.1426 -4.53811 0
M  V30 6234 H 607.1 -1.49638 -4.12922 0
M  V30 6235 H 607.706 -2.85412 -3.1531 0
M  V30 6236 N 606.021 0.929856 -1.27246 0
M  V30 6237 C 607.268 1.67731 -1.13457 0
M  V30 6238 C 607.596 1.9185 0.319998 0
M  V30 6239 O 606.851 1.50524 1.25064 0
M  V30 6240 C 607.15 3.05116 -1.86115 0
M  V30 6241 C 606.816 3.00715 -3.35978 0
M  V30 6242 C 605.478 2.99222 -3.76855 0
M  V30 6243 C 607.83 2.92168 -4.3161 0
M  V30 6244 C 605.158 2.86962 -5.11732 0
M  V30 6245 C 607.51 2.81449 -5.66542 0
M  V30 6246 C 606.174 2.78305 -6.06715 0
M  V30 6247 H 605.444 0.613772 -0.415168 0
M  V30 6248 H 608.091 1.08456 -1.57827 0
M  V30 6249 H 606.396 3.68083 -1.34246 0
M  V30 6250 H 608.093 3.61822 -1.72876 0
M  V30 6251 H 604.683 3.02664 -3.03468 0
M  V30 6252 H 608.867 2.92421 -4.01003 0
M  V30 6253 H 604.123 2.82913 -5.42006 0
M  V30 6254 H 608.297 2.738 -6.40317 0
M  V30 6255 H 605.924 2.68561 -7.11181 0
M  V30 6256 N 607.499 1.09233 1.13605 0
M  V30 6257 C 608.409 0.741939 2.22559 0
M  V30 6258 C 609.425 -0.255236 1.72118 0
M  V30 6259 O 610.601 -0.0970747 2.01166 0
M  V30 6260 C 607.666 0.165595 3.46304 0
M  V30 6261 C 606.727 1.21846 4.11645 0
M  V30 6262 C 605.96 0.669526 5.29484 0
M  V30 6263 O 606.183 -0.508228 5.68131 0
M  V30 6264 O 605.117 1.42361 5.84822 0
M  V30 6265 H 608.943 1.65107 2.54899 0
M  V30 6266 H 606.528 0.866584 1.21699 0
M  V30 6267 H 608.41 -0.152592 4.21124 0
M  V30 6268 H 607.085 -0.716573 3.15669 0
M  V30 6269 H 605.992 1.58931 3.38662 0
M  V30 6270 H 607.325 2.07321 4.46407 0
M  V30 6271 N 608.977 -1.30795 0.87923 0
M  V30 6272 C 610.226 -1.95636 0.490875 0
M  V30 6273 C 610.539 -1.70214 -0.963674 0
M  V30 6274 O 611.745 -2.28991 -1.45861 0
M  V30 6275 C 610.201 -3.50271 0.826929 0
M  V30 6276 C 609.809 -3.84521 2.29886 0
M  V30 6277 C 611.553 -4.21456 0.507494 0
M  V30 6278 C 609.46 -5.32309 2.57685 0
M  V30 6279 H 608.39 -0.732238 0.179841 0
M  V30 6280 H 611.041 -1.48829 1.07341 0
M  V30 6281 H 609.423 -3.9562 0.173542 0
M  V30 6282 H 610.597 -3.50102 2.99609 0
M  V30 6283 H 608.912 -3.26425 2.58526 0
M  V30 6284 H 611.509 -5.30199 0.692293 0
M  V30 6285 H 611.852 -4.12614 -0.552718 0
M  V30 6286 H 612.385 -3.81772 1.11782 0
M  V30 6287 H 609.124 -5.46195 3.62424 0
M  V30 6288 H 608.644 -5.68048 1.92566 0
M  V30 6289 H 610.323 -5.99678 2.42889 0
M  V30 6290 N 610.455 -0.639598 -1.44038 0
M  V30 6291 C 611.701 -0.156248 -2.02799 0
M  V30 6292 C 612.056 1.21145 -1.49471 0
M  V30 6293 O 611.349 1.79406 -0.672608 0
M  V30 6294 C 611.543 -0.0925348 -3.5728 0
M  V30 6295 C 611.372 -1.45252 -4.25596 0
M  V30 6296 C 610.142 -2.04145 -4.62226 0
M  V30 6297 C 612.34 -2.38812 -4.55492 0
M  V30 6298 N 610.322 -3.3329 -5.15549 0
M  V30 6299 C 611.693 -3.52578 -5.09989 0
M  V30 6300 C 613.748 -2.37785 -4.3745 0
M  V30 6301 C 612.451 -4.65525 -5.48342 0
M  V30 6302 C 614.477 -3.49802 -4.76857 0
M  V30 6303 C 613.839 -4.62292 -5.31475 0
M  V30 6304 H 609.938 -0.101292 -0.775412 0
M  V30 6305 H 612.522 -0.844938 -1.75411 0
M  V30 6306 H 610.693 0.565459 -3.84262 0
M  V30 6307 H 612.425 0.400426 -4.02714 0
M  V30 6308 H 609.18 -1.56999 -4.4682 0
M  V30 6309 H 609.604 -3.9934 -5.46678 0
M  V30 6310 H 614.246 -1.52061 -3.94509 0
M  V30 6311 H 611.964 -5.51951 -5.90233 0
M  V30 6312 H 615.55 -3.50193 -4.64603 0
M  V30 6313 H 614.43 -5.47536 -5.61403 0
M  V30 6314 N 611.933 1.52934 -0.380664 0
M  V30 6315 C 612.896 2.24809 0.446473 0
M  V30 6316 C 613.896 1.26133 0.997347 0
M  V30 6317 O 615.086 1.50297 0.880714 0
M  V30 6318 C 612.218 2.99649 1.62553 0
M  V30 6319 H 613.411 2.99343 -0.182677 0
M  V30 6320 H 610.964 1.55736 -0.132618 0
M  V30 6321 H 611.699 2.29395 2.29235 0
M  V30 6322 H 611.484 3.72066 1.23732 0
M  V30 6323 H 612.974 3.54246 2.21133 0
M  V30 6324 N 613.412 0.11024 1.57214 0
M  V30 6325 C 614.658 -0.550684 1.9518 0
M  V30 6326 C 614.991 -1.66885 0.993122 0
M  V30 6327 O 614.266 -1.94479 0.0287907 0
M  V30 6328 C 614.549 -1.09163 3.43155 0
M  V30 6329 C 614.402 0.0225198 4.49794 0
M  V30 6330 C 615.721 -1.98527 3.92778 0
M  V30 6331 H 612.84 -0.198706 0.709708 0
M  V30 6332 H 615.482 0.184024 1.89107 0
M  V30 6333 H 613.632 -1.71775 3.48462 0
M  V30 6334 H 615.304 0.657443 4.56591 0
M  V30 6335 H 613.547 0.686868 4.28328 0
M  V30 6336 H 614.218 -0.39706 5.5057 0
M  V30 6337 H 616.694 -1.458 3.8972 0
M  V30 6338 H 615.57 -2.33298 4.96853 0
M  V30 6339 H 615.831 -2.90846 3.32958 0
M  V30 6340 N 614.89 -1.56749 -0.16351 0
M  V30 6341 C 615.838 -1.97939 -1.22159 0
M  V30 6342 C 616.832 -0.869288 -1.45395 0
M  V30 6343 O 618.038 -1.05443 -1.45883 0
M  V30 6344 H 614.413 -0.629869 -0.410815 0
M  V30 6345 H 616.384 -2.86115 -0.847381 0
M  V30 6346 C 615.133 -2.36206 -2.55151 0
M  V30 6347 H 614.456 -3.2117 -2.38097 0
M  V30 6348 H 615.896 -2.68863 -3.27854 0
M  V30 6349 C 614.355 -1.20841 -3.14482 0
M  V30 6350 O 614.885 -0.500258 -3.98573 0
M  V30 6351 N 613.091 -0.976943 -2.73686 0
M  V30 6352 H 612.638 -1.55457 -2.05404 0
M  V30 6353 H 612.596 -0.206912 -3.13718 0
M  V30 6354 N 616.368 0.432326 -1.51554 0
M  V30 6355 C 617.616 1.17901 -1.64146 0
M  V30 6356 C 617.937 1.91604 -0.362367 0
M  V30 6357 O 617.207 1.85764 0.621968 0
M  V30 6358 H 615.787 0.438206 -0.604966 0
M  V30 6359 H 618.449 0.495172 -1.88505 0
M  V30 6360 H 617.545 1.90584 -2.47152 0
M  V30 6361 N 617.846 1.41785 0.688094 0
M  V30 6362 C 619.092 1.41753 1.4503 0
M  V30 6363 C 619.425 0.0290745 1.94178 0
M  V30 6364 O 618.7 -0.944456 1.7003 0
M  V30 6365 C 618.983 2.43069 2.65686 0
M  V30 6366 C 618.836 3.91053 2.22256 0
M  V30 6367 C 620.155 2.41543 3.67893 0
M  V30 6368 H 617.274 0.516202 0.526027 0
M  V30 6369 H 619.916 1.73111 0.783105 0
M  V30 6370 H 618.066 2.1646 3.2261 0
M  V30 6371 H 619.738 4.28594 1.70602 0
M  V30 6372 H 617.981 4.05559 1.53963 0
M  V30 6373 H 618.652 4.57501 3.08863 0
M  V30 6374 H 621.128 2.65175 3.20658 0
M  V30 6375 H 620.004 3.14434 4.49914 0
M  V30 6376 H 620.265 1.43666 4.18106 0
M  V30 6377 N 619.324 -0.923095 1.27737 0
M  V30 6378 C 620.549 -1.71054 1.17283 0
M  V30 6379 C 620.974 -1.86208 -0.266153 0
M  V30 6380 O 620.332 -1.36545 -1.1927 0
M  V30 6381 C 620.38 -3.0854 1.86642 0
M  V30 6382 O 619.484 -3.95528 1.16752 0
M  V30 6383 H 618.825 -0.524136 0.407649 0
M  V30 6384 H 621.355 -1.15487 1.6889 0
M  V30 6385 H 621.365 -3.58828 1.94182 0
M  V30 6386 H 620.04 -2.96828 2.91317 0
M  V30 6387 H 618.617 -3.53967 1.17312 0
M  V30 6388 N 620.802 -1.09834 -1.13024 0
M  V30 6389 C 621.749 -0.741522 -2.18564 0
M  V30 6390 C 622.719 0.279236 -1.63736 0
M  V30 6391 O 623.904 0.159923 -1.90129 0
M  V30 6392 C 621.044 -0.17277 -3.44667 0
M  V30 6393 C 620.157 -1.24808 -4.13578 0
M  V30 6394 C 619.292 -0.641631 -5.27311 0
M  V30 6395 C 618.331 -1.69795 -5.88078 0
M  V30 6396 N 617.468 -1.11223 -6.93234 0
M  V30 6397 H 622.308 -1.64576 -2.48432 0
M  V30 6398 H 619.845 -0.822174 -1.21978 0
M  V30 6399 H 621.803 0.17482 -4.16834 0
M  V30 6400 H 620.433 0.694725 -3.15235 0
M  V30 6401 H 619.485 -1.71288 -3.39653 0
M  V30 6402 H 620.797 -2.04795 -4.54819 0
M  V30 6403 H 619.951 -0.243128 -6.06213 0
M  V30 6404 H 618.69 0.189742 -4.87331 0
M  V30 6405 H 617.695 -2.10595 -5.07868 0
M  V30 6406 H 618.92 -2.53206 -6.3013 0
M  V30 6407 H 616.866 -0.302208 -6.55304 0
M  V30 6408 H 616.783 -1.84901 -7.3304 0
M  V30 6409 H 618.051 -0.740068 -7.75979 0
M  V30 6410 N 622.28 1.30327 -0.886154 0
M  V30 6411 C 623.51 1.99964 -0.519421 0
M  V30 6412 C 623.918 1.66593 0.89686 0
M  V30 6413 O 623.261 0.899886 1.60149 0
M  V30 6414 C 623.323 3.54187 -0.615795 0
M  V30 6415 C 622.987 4.11078 -1.9966 0
M  V30 6416 C 623.984 4.26985 -2.96614 0
M  V30 6417 C 621.669 4.46429 -2.30231 0
M  V30 6418 C 623.663 4.77456 -4.22273 0
M  V30 6419 C 621.35 4.966 -3.56135 0
M  V30 6420 C 622.348 5.12066 -4.5197 0
M  V30 6421 O 622.036 5.61154 -5.7564 0
M  V30 6422 H 621.768 0.645979 -0.199217 0
M  V30 6423 H 624.322 1.67154 -1.19368 0
M  V30 6424 H 622.552 3.86528 0.115448 0
M  V30 6425 H 624.241 4.05065 -0.26017 0
M  V30 6426 H 625.007 3.99975 -2.74308 0
M  V30 6427 H 620.886 4.33658 -1.56404 0
M  V30 6428 H 624.43 4.89444 -4.97082 0
M  V30 6429 H 620.327 5.23045 -3.78277 0
M  V30 6430 H 621.095 5.79494 -5.78039 0
M  V30 6431 N 623.758 0.647228 1.43697 0
M  V30 6432 C 624.706 -0.0600105 2.32523 0
M  V30 6433 C 625.7 -0.819277 1.48271 0
M  V30 6434 O 626.906 -0.730356 1.64517 0
M  V30 6435 H 623.281 -0.0381872 0.75103 0
M  V30 6436 H 625.252 0.706978 2.89904 0
M  V30 6437 C 624.001 -1.0169 3.32497 0
M  V30 6438 H 623.324 -0.442083 3.97348 0
M  V30 6439 H 624.764 -1.48095 3.97296 0
M  V30 6440 C 623.223 -2.11002 2.6264 0
M  V30 6441 O 623.753 -3.19302 2.4374 0
M  V30 6442 N 621.959 -1.87388 2.22113 0
M  V30 6443 H 621.506 -0.993174 2.37684 0
M  V30 6444 H 621.464 -2.60723 1.75701 0
M  V30 6445 N 625.236 -1.5273 0.388769 0
M  V30 6446 C 626.647 -1.86505 -0.0853788 0
M  V30 6447 C 626.998 -1.30847 -1.46197 0
M  V30 6448 O 626.123 -0.639609 -2.06732 0
M  V30 6449 C 626.718 -3.38414 -0.161703 0
M  V30 6450 C 625.277 -3.71902 -0.580144 0
M  V30 6451 C 624.424 -2.76095 0.258218 0
M  V30 6452 H 627.375 -1.46647 0.606665 0
M  V30 6453 H 627.396 -3.67638 -0.980936 0
M  V30 6454 H 626.908 -3.78893 0.840333 0
M  V30 6455 H 625.009 -3.36992 -1.58957 0
M  V30 6456 H 625.122 -4.77902 -0.338663 0
M  V30 6457 H 623.486 -2.53195 -0.276432 0
M  V30 6458 H 624.269 -3.19411 1.25822 0
M  V30 6459 N 626.714 -0.118576 -1.57153 0
M  V30 6460 C 627.662 0.849114 -2.16547 0
M  V30 6461 C 628.656 1.27567 -1.11458 0
M  V30 6462 O 629.862 1.24746 -1.29763 0
M  V30 6463 H 626.237 0.291935 -0.693021 0
M  V30 6464 H 628.208 0.323693 -2.96639 0
M  V30 6465 C 626.957 2.08951 -2.77912 0
M  V30 6466 H 626.28 1.77021 -3.58474 0
M  V30 6467 H 627.72 2.74666 -3.23008 0
M  V30 6468 C 626.179 2.87899 -1.74974 0
M  V30 6469 O 626.709 3.83268 -1.20285 0
M  V30 6470 N 624.915 2.51884 -1.44924 0
M  V30 6471 H 624.462 1.74397 -1.89587 0
M  V30 6472 H 624.42 3.05003 -0.762921 0
M  V30 6473 N 628.193 1.56834 0.155195 0
M  V30 6474 C 629.604 1.72421 0.716082 0
M  V30 6475 C 629.955 0.731685 1.82046 0
M  V30 6476 O 629.08 -0.103481 2.16152 0
M  V30 6477 C 629.675 3.12629 1.30571 0
M  V30 6478 C 628.234 3.29846 1.81325 0
M  V30 6479 C 627.381 2.68359 0.698494 0
M  V30 6480 H 630.332 1.58544 -0.0703861 0
M  V30 6481 H 630.353 3.12174 2.1755 0
M  V30 6482 H 629.865 3.84844 0.501701 0
M  V30 6483 H 627.966 2.62614 2.64319 0
M  V30 6484 H 628.079 4.37727 1.9476 0
M  V30 6485 H 626.443 2.28604 1.12305 0
M  V30 6486 H 627.226 3.43171 -0.0939366 0
M  V30 6487 N 629.671 -0.424282 1.51781 0
M  V30 6488 C 630.948 -1.18464 1.55646 0
M  V30 6489 C 631.328 -2.08529 0.328438 0
M  V30 6490 O 630.676 -2.17969 -0.685693 0
M  V30 6491 C 630.886 -1.97514 2.87731 0
M  V30 6492 C 632.234 -2.54106 3.40169 0
M  V30 6493 O 633.258 -2.07711 2.89369 0
M  V30 6494 O 632.117 -3.38759 4.28841 0
M  V30 6495 H 629.211 -0.540055 0.626314 0
M  V30 6496 H 631.757 -0.432291 1.64102 0
M  V30 6497 H 630.529 -1.31444 3.68562 0
M  V30 6498 H 630.152 -2.79787 2.82498 0
M  V30 6499 N 631.149 -1.42148 -0.680565 0
M  V30 6500 C 632.081 -1.41119 -1.80605 0
M  V30 6501 C 633.094 -0.311099 -1.598 0
M  V30 6502 O 634.283 -0.573813 -1.69026 0
M  V30 6503 C 631.383 -1.18204 -3.17618 0
M  V30 6504 C 630.556 -2.40537 -3.65322 0
M  V30 6505 C 629.615 -2.13254 -4.8105 0
M  V30 6506 O 628.641 -2.8641 -4.91892 0
M  V30 6507 N 629.843 -1.13208 -5.69354 0
M  V30 6508 H 632.608 -2.38128 -1.81975 0
M  V30 6509 H 630.169 -1.36953 -0.863446 0
M  V30 6510 H 632.161 -0.97878 -3.92686 0
M  V30 6511 H 630.731 -0.29738 -3.11182 0
M  V30 6512 H 629.951 -2.76468 -2.80996 0
M  V30 6513 H 631.239 -3.22012 -3.93936 0
M  V30 6514 H 630.637 -0.526893 -5.63241 0
M  V30 6515 H 629.194 -0.988699 -6.44258 0
M  V30 6516 N 632.627 0.916307 -1.28225 0
M  V30 6517 C 633.852 1.7043 -1.18188 0
M  V30 6518 C 634.277 1.86346 0.256274 0
M  V30 6519 O 633.635 1.37175 1.18544 0
M  V30 6520 C 633.683 3.07546 -1.88275 0
M  V30 6521 O 632.787 3.94904 -1.18848 0
M  V30 6522 H 632.128 0.521967 -0.410423 0
M  V30 6523 H 634.658 1.14589 -1.69501 0
M  V30 6524 H 634.668 3.57793 -1.96082 0
M  V30 6525 H 633.343 2.95279 -2.92887 0
M  V30 6526 H 631.92 3.53339 -1.19187 0
M  V30 6527 N 634.105 1.10431 1.1244 0
M  V30 6528 C 635.351 0.847972 1.84221 0
M  V30 6529 C 635.684 -0.624903 1.83871 0
M  V30 6530 O 634.959 -1.46074 1.28423 0
M  V30 6531 C 635.242 1.39695 3.319 0
M  V30 6532 C 635.095 2.93668 3.40704 0
M  V30 6533 C 636.414 1.03924 4.27654 0
M  V30 6534 H 633.533 0.309502 0.668863 0
M  V30 6535 H 636.175 1.36745 1.31912 0
M  V30 6536 H 634.325 0.955095 3.76577 0
M  V30 6537 H 635.997 3.46379 3.04662 0
M  V30 6538 H 634.24 3.30272 2.81252 0
M  V30 6539 H 634.911 3.27162 4.446 0
M  V30 6540 H 637.387 1.42049 3.91102 0
M  V30 6541 H 636.263 1.45027 5.29394 0
M  V30 6542 H 636.524 -0.051336 4.4207 0
M  V30 6543 N 635.583 -1.29855 0.893053 0
M  V30 6544 C 636.808 -2.00512 0.530066 0
M  V30 6545 C 637.233 -1.66446 -0.876199 0
M  V30 6546 O 636.591 -0.885446 -1.58207 0
M  V30 6547 C 636.639 -3.53308 0.721505 0
M  V30 6548 O 635.743 -4.11764 -0.228994 0
M  V30 6549 H 635.084 -0.630617 0.207891 0
M  V30 6550 H 637.614 -1.6551 1.20282 0
M  V30 6551 H 637.624 -4.03206 0.623599 0
M  V30 6552 H 636.299 -3.77439 1.74678 0
M  V30 6553 H 634.876 -3.72805 -0.0841034 0
M  V30 6554 N 637.061 -0.65484 -1.43351 0
M  V30 6555 C 638.307 -0.169142 -2.02093 0
M  V30 6556 C 638.64 1.21431 -1.51553 0
M  V30 6557 O 637.915 1.81105 -0.709317 0
M  V30 6558 C 638.198 -0.181775 -3.59641 0
M  V30 6559 C 638.051 -1.59926 -4.20409 0
M  V30 6560 C 639.37 0.480945 -4.37464 0
M  V30 6561 H 636.489 -0.0629371 -0.734308 0
M  V30 6562 H 639.131 -0.835833 -1.70628 0
M  V30 6563 H 637.281 0.385918 -3.86578 0
M  V30 6564 H 638.953 -2.21766 -4.04497 0
M  V30 6565 H 637.196 -2.14605 -3.76998 0
M  V30 6566 H 637.867 -1.55994 -5.295 0
M  V30 6567 H 640.343 -0.00208273 -4.161 0
M  V30 6568 H 639.219 0.441384 -5.47122 0
M  V30 6569 H 639.48 1.55533 -4.13838 0
M  V30 6570 N 638.539 1.52521 -0.396863 0
M  V30 6571 C 639.767 2.06091 0.18275 0
M  V30 6572 C 640.182 1.26796 1.39886 0
M  V30 6573 O 639.539 0.316585 1.79733 0
M  V30 6574 C 639.59 3.57362 0.545377 0
M  V30 6575 O 639.311 4.33656 -0.622428 0
M  V30 6576 C 640.812 4.27305 1.18004 0
M  V30 6577 H 638.032 0.670504 0.025789 0
M  V30 6578 H 640.576 1.96561 -0.564276 0
M  V30 6579 H 638.731 3.66941 1.2423 0
M  V30 6580 H 639.145 5.23507 -0.322662 0
M  V30 6581 H 640.619 5.34366 1.38408 0
M  V30 6582 H 641.096 3.83 2.1496 0
M  V30 6583 H 641.702 4.22064 0.523671 0
M  V30 6584 N 640.017 0.126909 1.57088 0
M  V30 6585 C 641.263 -0.529952 1.95753 0
M  V30 6586 C 641.596 -1.65823 1.01077 0
M  V30 6587 O 640.871 -1.94437 0.0494162 0
M  V30 6588 C 641.154 -1.05517 3.44294 0
M  V30 6589 C 641.007 0.0702253 4.49745 0
M  V30 6590 C 642.326 -1.9435 3.94862 0
M  V30 6591 H 639.445 -0.191168 0.711775 0
M  V30 6592 H 642.087 0.204071 1.88901 0
M  V30 6593 H 640.237 -1.68069 3.50264 0
M  V30 6594 H 641.909 0.705834 4.55868 0
M  V30 6595 H 640.152 0.732259 4.27575 0
M  V30 6596 H 640.823 -0.338642 5.5096 0
M  V30 6597 H 643.299 -1.41658 3.91244 0
M  V30 6598 H 642.175 -2.28015 4.993 0
M  V30 6599 H 642.436 -2.87299 3.36024 0
M  V30 6600 N 641.495 -1.56914 -0.146875 0
M  V30 6601 C 642.723 -1.87515 -0.874394 0
M  V30 6602 C 643.138 -0.715116 -1.74733 0
M  V30 6603 O 642.495 0.315113 -1.79759 0
M  V30 6604 C 642.546 -3.17362 -1.731 0
M  V30 6605 O 642.267 -4.28897 -0.893245 0
M  V30 6606 C 643.768 -3.61479 -2.56609 0
M  V30 6607 H 640.988 -0.621546 -0.252827 0
M  V30 6608 H 643.532 -2.04023 -0.139627 0
M  V30 6609 H 641.687 -3.02608 -2.41883 0
M  V30 6610 H 642.101 -5.03146 -1.48137 0
M  V30 6611 H 643.575 -4.5517 -3.12289 0
M  V30 6612 H 644.052 -2.86773 -3.32653 0
M  V30 6613 H 644.658 -3.78927 -1.93117 0
M  V30 6614 N 642.974 0.416227 -1.52004 0
M  V30 6615 C 644.202 1.18573 -1.69553 0
M  V30 6616 C 644.617 1.84472 -0.401919 0
M  V30 6617 O 643.974 1.71593 0.621463 0
M  V30 6618 C 644.025 2.25413 -2.82615 0
M  V30 6619 O 643.746 1.62205 -4.06966 0
M  V30 6620 C 645.247 3.15297 -3.11613 0
M  V30 6621 H 642.467 0.356582 -0.56841 0
M  V30 6622 H 645.011 0.490618 -1.98528 0
M  V30 6623 H 643.166 2.90604 -2.56179 0
M  V30 6624 H 643.58 2.3298 -4.69916 0
M  V30 6625 H 645.054 3.86351 -3.94255 0
M  V30 6626 H 645.531 3.77264 -2.24874 0
M  V30 6627 H 646.137 2.55783 -3.39787 0
M  V30 6628 N 644.452 1.42507 0.673017 0
M  V30 6629 C 645.4 1.46362 1.80779 0
M  V30 6630 C 646.394 0.339166 1.6597 0
M  V30 6631 O 647.6 0.512262 1.72557 0
M  V30 6632 H 643.975 0.458433 0.596107 0
M  V30 6633 H 645.946 2.41953 1.74646 0
M  V30 6634 C 644.695 1.38462 3.18941 0
M  V30 6635 H 644.018 2.24283 3.30964 0
M  V30 6636 H 645.458 1.45221 3.98355 0
M  V30 6637 C 643.917 0.0996354 3.36753 0
M  V30 6638 O 644.447 -0.846894 3.92671 0
M  V30 6639 N 642.653 0.016211 2.90595 0
M  V30 6640 H 642.2 0.78725 2.45276 0
M  V30 6641 H 642.158 -0.84291 3.0289 0
M  V30 6642 N 645.93 -0.909495 1.28709 0
M  V30 6643 C 646.862 -2.01729 1.08804 0
M  V30 6644 C 647.875 -1.62755 0.0384739 0
M  V30 6645 O 649.064 -1.76259 0.281977 0
M  V30 6646 C 646.164 -3.32952 0.63217 0
M  V30 6647 C 645.337 -4.00512 1.75809 0
M  V30 6648 C 644.396 -5.10019 1.29488 0
M  V30 6649 O 643.422 -5.32986 1.99787 0
M  V30 6650 N 644.624 -5.80278 0.1604 0
M  V30 6651 H 647.389 -2.19362 2.04207 0
M  V30 6652 H 644.95 -1.08106 1.20518 0
M  V30 6653 H 646.942 -4.03543 0.305802 0
M  V30 6654 H 645.512 -3.11759 -0.229134 0
M  V30 6655 H 644.732 -3.23413 2.25383 0
M  V30 6656 H 646.02 -4.42395 2.51325 0
M  V30 6657 H 645.418 -5.64094 -0.425937 0
M  V30 6658 H 643.975 -6.51713 -0.106663 0
M  V30 6659 N 647.408 -1.11026 -1.11852 0
M  V30 6660 C 648.371 -0.768006 -2.1595 0
M  V30 6661 C 649.371 0.210538 -1.59416 0
M  V30 6662 O 650.561 -0.0133978 -1.74195 0
M  V30 6663 C 647.693 -0.138678 -3.40618 0
M  V30 6664 H 648.886 -1.69012 -2.4774 0
M  V30 6665 H 646.439 -0.911578 -1.26964 0
M  V30 6666 H 647.174 0.793872 -3.14433 0
M  V30 6667 H 646.959 -0.843012 -3.8293 0
M  V30 6668 H 648.449 0.0848039 -4.17514 0
M  V30 6669 N 648.886 1.2938 -0.899927 0
M  V30 6670 C 649.849 2.25983 -0.382677 0
M  V30 6671 C 650.849 1.53366 0.483259 0
M  V30 6672 O 652.039 1.71798 0.28828 0
M  V30 6673 C 649.171 3.37878 0.452915 0
M  V30 6674 H 650.364 2.73252 -1.23586 0
M  V30 6675 H 647.917 1.40825 -0.678088 0
M  V30 6676 H 648.652 2.95949 1.32608 0
M  V30 6677 H 648.437 3.91742 -0.167562 0
M  V30 6678 H 649.927 4.09746 0.806107 0
M  V30 6679 N 650.364 0.662433 1.43002 0
M  V30 6680 C 651.775 0.258315 1.84904 0
M  V30 6681 C 652.126 -1.19703 1.55453 0
M  V30 6682 O 651.251 -1.91484 1.00811 0
M  V30 6683 C 651.846 0.462047 3.35635 0
M  V30 6684 C 650.405 0.112165 3.76233 0
M  V30 6685 C 649.552 0.760479 2.66668 0
M  V30 6686 H 652.503 0.865467 1.33024 0
M  V30 6687 H 652.524 -0.289646 3.79396 0
M  V30 6688 H 652.036 1.52135 3.57039 0
M  V30 6689 H 650.137 -0.944179 3.60439 0
M  V30 6690 H 650.25 0.544058 4.76001 0
M  V30 6691 H 648.614 0.192887 2.53969 0
M  V30 6692 H 649.397 1.82299 2.90898 0
M  V30 6693 N 651.842 -1.52309 0.404946 0
M  V30 6694 C 653.067 -2.06666 -0.1743 0
M  V30 6695 C 653.492 -1.27341 -1.38441 0
M  V30 6696 O 652.85 -0.302539 -1.78758 0
M  V30 6697 C 652.898 -3.57014 -0.507262 0
M  V30 6698 O 652.002 -3.80144 -1.59889 0
M  V30 6699 H 651.343 -0.663807 -0.0160273 0
M  V30 6700 H 653.873 -1.96297 0.576937 0
M  V30 6701 H 653.883 -4.00724 -0.767098 0
M  V30 6702 H 652.558 -4.14184 0.377368 0
M  V30 6703 H 651.135 -3.48316 -1.33155 0
M  V30 6704 N 653.32 -0.135238 -1.57019 0
M  V30 6705 C 654.545 0.529343 -2.00531 0
M  V30 6706 C 654.97 1.58391 -1.01459 0
M  V30 6707 O 654.328 1.81296 0.0113986 0
M  V30 6708 C 654.376 1.11748 -3.42848 0
M  V30 6709 O 653.48 2.23267 -3.46736 0
M  V30 6710 H 652.821 0.130669 -0.651016 0
M  V30 6711 H 655.351 -0.228503 -2.0332 0
M  V30 6712 H 655.361 1.44905 -3.81401 0
M  V30 6713 H 654.036 0.345147 -4.14465 0
M  V30 6714 H 652.613 1.91428 -3.20015 0
M  V30 6715 N 654.798 1.5699 0.138552 0
M  V30 6716 C 656.047 1.82998 0.848205 0
M  V30 6717 C 656.36 0.717829 1.81952 0
M  V30 6718 O 657.566 0.863756 2.57394 0
M  V30 6719 C 656.022 3.24379 1.55904 0
M  V30 6720 C 655.63 4.43552 0.62971 0
M  V30 6721 C 657.374 3.59654 2.25498 0
M  V30 6722 C 655.281 5.75957 1.34266 0
M  V30 6723 H 654.211 0.682495 0.320495 0
M  V30 6724 H 656.862 1.83222 0.100924 0
M  V30 6725 H 655.244 3.18567 2.35226 0
M  V30 6726 H 656.418 4.6062 -0.128882 0
M  V30 6727 H 654.733 4.16379 0.0417526 0
M  V30 6728 H 657.33 4.55837 2.79493 0
M  V30 6729 H 657.673 2.86124 3.02388 0
M  V30 6730 H 658.206 3.67164 1.53087 0
M  V30 6731 H 654.945 6.52604 0.615441 0
M  V30 6732 H 654.465 5.62811 2.07375 0
M  V30 6733 H 656.144 6.19046 1.88126 0
M  V30 6734 N 656.276 -0.40816 1.52223 0
M  V30 6735 C 657.239 -1.48 1.7501 0
M  V30 6736 C 658.239 -1.48367 0.619996 0
M  V30 6737 O 659.429 -1.49874 0.887881 0
M  V30 6738 C 656.561 -2.87403 1.83336 0
M  V30 6739 H 657.754 -1.29086 2.70697 0
M  V30 6740 H 655.307 -0.638715 1.42654 0
M  V30 6741 H 656.042 -3.11686 0.895677 0
M  V30 6742 H 655.827 -2.8854 2.65494 0
M  V30 6743 H 657.317 -3.65103 2.02705 0
M  V30 6744 N 657.755 -1.42862 -0.66545 0
M  V30 6745 C 658.685 -1.49867 -1.79059 0
M  V30 6746 C 659.666 -0.354394 -1.66367 0
M  V30 6747 O 660.851 -0.569969 -1.85647 0
M  V30 6748 C 657.981 -1.40943 -3.17415 0
M  V30 6749 C 656.935 -2.53495 -3.44854 0
M  V30 6750 C 656.261 -2.29626 -4.82883 0
M  V30 6751 C 657.561 -3.95781 -3.40815 0
M  V30 6752 H 659.255 -2.44037 -1.73453 0
M  V30 6753 H 656.801 -1.17456 -0.833071 0
M  V30 6754 H 658.754 -1.4445 -3.95869 0
M  V30 6755 H 657.478 -0.432716 -3.23721 0
M  V30 6756 H 656.137 -2.4932 -2.68766 0
M  V30 6757 H 655.785 -1.30226 -4.8585 0
M  V30 6758 H 655.485 -3.05065 -5.02204 0
M  V30 6759 H 657.009 -2.34897 -5.63609 0
M  V30 6760 H 658.423 -4.01508 -4.09224 0
M  V30 6761 H 656.82 -4.71148 -3.71672 0
M  V30 6762 H 657.89 -4.21786 -2.39216 0
M  V30 6763 N 659.233 0.902656 -1.29189 0
M  V30 6764 C 660.479 1.65532 -1.17163 0
M  V30 6765 C 660.812 1.92216 0.276879 0
M  V30 6766 O 660.087 1.53048 1.20027 0
M  V30 6767 C 660.37 3.00629 -1.98228 0
M  V30 6768 C 660.223 2.81029 -3.51202 0
M  V30 6769 C 661.542 4.01321 -1.80635 0
M  V30 6770 H 658.661 0.60071 -0.426985 0
M  V30 6771 H 661.303 1.04578 -1.5863 0
M  V30 6772 H 659.453 3.52656 -1.62991 0
M  V30 6773 H 661.125 2.35927 -3.96404 0
M  V30 6774 H 659.368 2.1587 -3.76275 0
M  V30 6775 H 660.039 3.77014 -4.03192 0
M  V30 6776 H 662.515 3.58394 -2.11406 0
M  V30 6777 H 661.391 4.93792 -2.3971 0
M  V30 6778 H 661.652 4.35505 -0.760754 0
M  V30 6779 N 660.711 1.11618 1.11262 0
M  V30 6780 C 661.643 0.734015 2.17129 0
M  V30 6781 C 662.656 -0.235243 1.61091 0
M  V30 6782 O 663.845 -0.0178597 1.78491 0
M  V30 6783 C 660.945 0.0643682 3.38839 0
M  V30 6784 C 660.118 1.06092 4.24339 0
M  V30 6785 C 659.177 0.420482 5.24517 0
M  V30 6786 O 658.203 1.07495 5.58957 0
M  V30 6787 N 659.405 -0.815828 5.74739 0
M  V30 6788 H 662.17 1.64492 2.50524 0
M  V30 6789 H 659.731 1.00664 1.26801 0
M  V30 6790 H 661.723 -0.375851 4.02951 0
M  V30 6791 H 660.293 -0.749147 3.03491 0
M  V30 6792 H 659.513 1.67903 3.56654 0
M  V30 6793 H 660.801 1.73507 4.78302 0
M  V30 6794 H 660.199 -1.36668 5.48943 0
M  V30 6795 H 658.756 -1.199 6.40677 0
M  V30 6796 N 662.189 -1.289 0.906776 0
M  V30 6797 C 663.152 -2.25777 0.394656 0
M  V30 6798 C 664.152 -1.53621 -0.475119 0
M  V30 6799 O 665.342 -1.71949 -0.279165 0
M  V30 6800 C 662.474 -3.38113 -0.43499 0
M  V30 6801 H 663.667 -2.72592 1.25033 0
M  V30 6802 H 661.22 -1.40463 0.685547 0
M  V30 6803 H 661.955 -2.96648 -1.31036 0
M  V30 6804 H 661.74 -3.91647 0.188334 0
M  V30 6805 H 663.23 -4.10168 -0.784365 0
M  V30 6806 N 663.667 -0.670007 -1.42649 0
M  V30 6807 C 664.614 0.0112928 -2.30797 0
M  V30 6808 C 665.584 0.797627 -1.45695 0
M  V30 6809 O 666.769 0.770845 -1.74535 0
M  V30 6810 C 663.909 0.95998 -3.31479 0
M  V30 6811 C 663.022 0.167975 -4.31673 0
M  V30 6812 C 662.157 1.11198 -5.19431 0
M  V30 6813 C 661.196 0.311381 -6.11307 0
M  V30 6814 N 660.333 1.20784 -6.91633 0
M  V30 6815 H 665.173 -0.746231 -2.88505 0
M  V30 6816 H 662.71 -0.379739 -1.42114 0
M  V30 6817 H 664.668 1.52379 -3.88377 0
M  V30 6818 H 663.298 1.68419 -2.75382 0
M  V30 6819 H 662.35 -0.512385 -3.76933 0
M  V30 6820 H 663.662 -0.453814 -4.96731 0
M  V30 6821 H 662.816 1.74587 -5.81037 0
M  V30 6822 H 661.555 1.76766 -4.54538 0
M  V30 6823 H 660.56 -0.335758 -5.48774 0
M  V30 6824 H 661.785 -0.340135 -6.78248 0
M  V30 6825 H 659.731 1.85001 -6.29373 0
M  V30 6826 H 659.648 0.64102 -7.53277 0
M  V30 6827 H 660.916 1.82936 -7.5773 0
M  V30 6828 N 665.145 1.52092 -0.413018 0
M  V30 6829 C 666.055 2.30858 0.417318 0
M  V30 6830 C 667.071 1.38746 1.05003 0
M  V30 6831 O 668.247 1.71821 1.05069 0
M  V30 6832 C 665.312 3.11756 1.51687 0
M  V30 6833 C 664.373 4.19613 0.906825 0
M  V30 6834 C 663.606 4.96644 1.95399 0
M  V30 6835 O 663.829 4.7402 3.17271 0
M  V30 6836 O 662.763 5.81385 1.55805 0
M  V30 6837 H 666.589 3.02865 -0.225028 0
M  V30 6838 H 664.174 1.48358 -0.176126 0
M  V30 6839 H 666.056 3.62122 2.15512 0
M  V30 6840 H 664.731 2.42539 2.14375 0
M  V30 6841 H 663.638 3.73385 0.231183 0
M  V30 6842 H 664.971 4.91134 0.323814 0
M  V30 6843 N 666.623 0.143563 1.56945 0
M  V30 6844 C 667.869 -0.50916 1.96304 0
M  V30 6845 C 668.202 -1.64741 1.0283 0
M  V30 6846 O 667.477 -1.94374 0.0700361 0
M  V30 6847 C 667.76 -1.0186 3.45393 0
M  V30 6848 C 667.613 0.117923 4.49645 0
M  V30 6849 C 668.932 -1.90151 3.96901 0
M  V30 6850 H 666.051 -0.183608 0.713763 0
M  V30 6851 H 668.693 0.224095 1.88674 0
M  V30 6852 H 666.843 -1.64345 3.52027 0
M  V30 6853 H 668.515 0.754145 4.55094 0
M  V30 6854 H 666.758 0.777568 4.26774 0
M  V30 6855 H 667.429 -0.280187 5.51288 0
M  V30 6856 H 669.905 -1.375 3.92725 0
M  V30 6857 H 668.781 -2.22707 5.0169 0
M  V30 6858 H 669.042 -2.83718 3.39052 0
M  V30 6859 N 668.101 -1.57061 -0.130224 0
M  V30 6860 C 669.329 -1.88432 -0.854456 0
M  V30 6861 C 669.744 -0.733608 -1.73964 0
M  V30 6862 O 669.101 0.296029 -1.80083 0
M  V30 6863 C 669.152 -3.1918 -1.69724 0
M  V30 6864 O 668.873 -4.2982 -0.847705 0
M  V30 6865 C 670.374 -3.6418 -2.5276 0
M  V30 6866 H 667.594 -0.624193 -0.246221 0
M  V30 6867 H 670.138 -2.04159 -0.11798 0
M  V30 6868 H 668.293 -3.05156 -2.3866 0
M  V30 6869 H 668.707 -5.04689 -1.42792 0
M  V30 6870 H 670.181 -4.58457 -3.07443 0
M  V30 6871 H 670.658 -2.90285 -3.29592 0
M  V30 6872 H 671.264 -3.80954 -1.89087 0
M  V30 6873 N 669.579 0.400081 -1.52437 0
M  V30 6874 C 670.995 0.739359 -1.41441 0
M  V30 6875 C 671.195 1.94512 -0.526053 0
M  V30 6876 O 670.251 2.525 0.00472502 0
M  V30 6877 C 671.564 0.984824 -2.84116 0
M  V30 6878 C 673.112 1.08698 -2.93519 0
M  V30 6879 C 673.587 1.36515 -4.37181 0
M  V30 6880 N 675.078 1.43361 -4.40457 0
M  V30 6881 C 675.813 1.66528 -5.48686 0
M  V30 6882 N 675.309 1.87239 -6.67018 0
M  V30 6883 N 677.102 1.68617 -5.36213 0
M  V30 6884 H 669.253 -0.393484 -2.08723 0
M  V30 6885 H 671.516 -0.1138 -0.941145 0
M  V30 6886 H 671.222 0.171096 -3.51284 0
M  V30 6887 H 671.096 1.90253 -3.25705 0
M  V30 6888 H 673.483 1.89129 -2.26526 0
M  V30 6889 H 673.564 0.147432 -2.55375 0
M  V30 6890 H 673.208 0.565982 -5.04737 0
M  V30 6891 H 673.138 2.31737 -4.7287 0
M  V30 6892 H 675.629 1.29108 -3.55161 0
M  V30 6893 H 675.942 2.04392 -7.45281 0
M  V30 6894 H 674.287 1.84486 -6.70067 0
M  V30 6895 H 677.478 1.5198 -4.42741 0
M  V30 6896 H 677.651 1.86332 -6.20632 0
M  V30 6897 N 671.057 1.43213 0.657864 0
M  V30 6898 C 672.287 1.478 1.44356 0
M  V30 6899 C 672.695 0.0930206 1.88971 0
M  V30 6900 O 672.038 -0.906089 1.59799 0
M  V30 6901 C 672.1 2.35745 2.71412 0
M  V30 6902 C 671.764 3.83359 2.48767 0
M  V30 6903 C 672.761 4.74585 2.12285 0
M  V30 6904 C 670.446 4.27799 2.63235 0
M  V30 6905 C 672.44 6.08247 1.90562 0
M  V30 6906 C 670.127 5.61516 2.41128 0
M  V30 6907 C 671.125 6.51557 2.04847 0
M  V30 6908 O 670.813 7.82802 1.82967 0
M  V30 6909 H 670.545 0.504363 0.450104 0
M  V30 6910 H 673.099 1.88572 0.814241 0
M  V30 6911 H 671.329 1.89852 3.36887 0
M  V30 6912 H 673.018 2.31589 3.33348 0
M  V30 6913 H 673.784 4.41531 2.00687 0
M  V30 6914 H 669.663 3.57993 2.90451 0
M  V30 6915 H 673.207 6.78489 1.62168 0
M  V30 6916 H 669.104 5.94139 2.52327 0
M  V30 6917 H 669.872 7.94332 1.97429 0
M  V30 6918 N 672.536 -0.895792 1.29666 0
M  V30 6919 C 673.761 -1.68528 1.20885 0
M  V30 6920 C 674.186 -1.8673 -0.226595 0
M  V30 6921 O 673.544 -1.39044 -1.16347 0
M  V30 6922 C 673.592 -3.04512 1.93144 0
M  V30 6923 O 672.696 -3.92963 1.25115 0
M  V30 6924 H 672.037 -0.515371 0.418675 0
M  V30 6925 H 674.567 -1.11878 1.71302 0
M  V30 6926 H 674.577 -3.54628 2.0175 0
M  V30 6927 H 673.252 -2.90582 2.97548 0
M  V30 6928 H 671.829 -3.51399 1.24794 0
M  V30 6929 N 674.014 -1.12206 -1.10668 0
M  V30 6930 C 675.26 -0.877172 -1.82848 0
M  V30 6931 C 675.593 0.595571 -1.84842 0
M  V30 6932 O 674.868 1.44013 -1.30731 0
M  V30 6933 C 675.151 -1.44957 -3.29635 0
M  V30 6934 C 675.004 -2.99051 -3.35989 0
M  V30 6935 C 676.323 -1.10714 -4.25946 0
M  V30 6936 H 673.442 -0.320103 -0.663854 0
M  V30 6937 H 676.084 -1.38827 -1.2972 0
M  V30 6938 H 674.234 -1.01488 -3.7501 0
M  V30 6939 H 675.906 -3.51182 -2.99113 0
M  V30 6940 H 674.149 -3.34705 -2.75962 0
M  V30 6941 H 674.82 -3.34194 -4.39339 0
M  V30 6942 H 677.296 -1.48254 -3.88793 0
M  V30 6943 H 676.172 -1.5343 -5.2702 0
M  V30 6944 H 676.433 -0.019 -4.42096 0
M  V30 6945 N 675.492 1.28418 -0.913599 0
M  V30 6946 C 676.455 2.25564 -0.406624 0
M  V30 6947 C 677.455 1.5387 0.466965 0
M  V30 6948 O 678.645 1.72094 0.270042 0
M  V30 6949 C 675.777 3.38339 0.417053 0
M  V30 6950 H 676.97 2.71926 -1.26477 0
M  V30 6951 H 674.523 1.40098 -0.692986 0
M  V30 6952 H 675.258 2.97339 1.29461 0
M  V30 6953 H 675.043 3.91542 -0.209102 0
M  V30 6954 H 676.533 4.10578 0.762602 0
M  V30 6955 N 676.97 0.677563 1.42291 0
M  V30 6956 C 677.9 0.014968 2.33495 0
M  V30 6957 C 678.881 -0.786376 1.50831 0
M  V30 6958 O 680.066 -0.742975 1.79426 0
M  V30 6959 C 677.196 -0.935023 3.34477 0
M  V30 6960 C 676.15 -0.242074 4.27315 0
M  V30 6961 C 675.476 -1.30519 5.18526 0
M  V30 6962 C 676.776 0.880604 5.14823 0
M  V30 6963 H 678.47 0.776671 2.89151 0
M  V30 6964 H 676.016 0.37494 1.39033 0
M  V30 6965 H 677.969 -1.40766 3.97194 0
M  V30 6966 H 676.693 -1.72818 2.77131 0
M  V30 6967 H 675.352 0.210351 3.65996 0
M  V30 6968 H 675 -2.09041 4.57505 0
M  V30 6969 H 674.7 -0.846652 5.81468 0
M  V30 6970 H 676.224 -1.7787 5.84119 0
M  V30 6971 H 677.638 0.489062 5.7121 0
M  V30 6972 H 676.035 1.26511 5.86613 0
M  V30 6973 H 677.105 1.72818 4.53059 0
M  V30 6974 N 678.448 -1.51871 0.421078 0
M  V30 6975 C 679.411 -2.25914 -0.386712 0
M  V30 6976 C 680.411 -1.28733 -0.963555 0
M  V30 6977 O 681.601 -1.52579 -0.840556 0
M  V30 6978 C 678.733 -3.03853 -1.54551 0
M  V30 6979 H 679.926 -2.98754 0.261978 0
M  V30 6980 H 677.479 -1.5533 0.173862 0
M  V30 6981 H 678.214 -2.35392 -2.23072 0
M  V30 6982 H 677.999 -3.75215 -1.13824 0
M  V30 6983 H 679.489 -3.59984 -2.11663 0
M  V30 6984 N 679.926 -0.151884 -1.56866 0
M  V30 6985 C 681.172 0.492327 -1.97352 0
M  V30 6986 C 681.527 1.62156 -1.03553 0
M  V30 6987 O 680.82 1.91467 -0.0714872 0
M  V30 6988 C 681.014 1.04074 -3.41911 0
M  V30 6989 C 680.843 -0.0338306 -4.49687 0
M  V30 6990 C 679.613 -0.476914 -5.03044 0
M  V30 6991 C 681.811 -0.827105 -5.07606 0
M  V30 6992 N 679.793 -1.53382 -5.9443 0
M  V30 6993 C 681.164 -1.73439 -5.95247 0
M  V30 6994 C 683.219 -0.874351 -4.90163 0
M  V30 6995 C 681.922 -2.68488 -6.67313 0
M  V30 6996 C 683.948 -1.81269 -5.62935 0
M  V30 6997 C 683.31 -2.70749 -6.50288 0
M  V30 6998 H 679.409 0.148822 -0.767708 0
M  V30 6999 H 681.993 -0.247615 -1.93119 0
M  V30 7000 H 680.164 1.75027 -3.46728 0
M  V30 7001 H 681.896 1.65197 -3.69448 0
M  V30 7002 H 678.651 -0.0782493 -4.73535 0
M  V30 7003 H 679.075 -2.06217 -6.44828 0
M  V30 7004 H 683.717 -0.196628 -4.22343 0
M  V30 7005 H 681.435 -3.37257 -7.34359 0
M  V30 7006 H 685.021 -1.85511 -5.51432 0
M  V30 7007 H 683.901 -3.42175 -7.0561 0
M  V30 7008 N 681.404 1.57128 0.121893 0
M  V30 7009 C 682.334 2.03165 1.15092 0
M  V30 7010 C 683.315 0.915587 1.43356 0
M  V30 7011 O 684.5 1.1851 1.53847 0
M  V30 7012 C 681.63 2.43352 2.47784 0
M  V30 7013 C 680.584 3.58376 2.33989 0
M  V30 7014 C 679.91 3.84454 3.71617 0
M  V30 7015 C 681.21 4.90199 1.80283 0
M  V30 7016 H 682.904 2.89382 0.768023 0
M  V30 7017 H 680.45 1.39218 0.367998 0
M  V30 7018 H 682.403 2.74163 3.20019 0
M  V30 7019 H 681.127 1.54103 2.87958 0
M  V30 7020 H 679.786 3.2777 1.64202 0
M  V30 7021 H 679.434 2.92414 4.09271 0
M  V30 7022 H 679.134 4.61877 3.6324 0
M  V30 7023 H 680.658 4.17714 4.45362 0
M  V30 7024 H 682.072 5.19565 2.42333 0
M  V30 7025 H 680.469 5.71601 1.82735 0
M  V30 7026 H 681.539 4.78904 0.760184 0
M  V30 7027 N 682.882 -0.391992 1.52647 0
M  V30 7028 C 683.792 -1.503 1.80131 0
M  V30 7029 C 684.808 -1.59825 0.687882 0
M  V30 7030 O 685.984 -1.76218 0.975149 0
M  V30 7031 C 683.049 -2.85863 1.96171 0
M  V30 7032 C 682.11 -2.86084 3.20085 0
M  V30 7033 C 681.343 -4.15181 3.35351 0
M  V30 7034 O 681.566 -5.09981 2.55491 0
M  V30 7035 O 680.5 -4.22603 4.28591 0
M  V30 7036 H 684.326 -1.30007 2.74466 0
M  V30 7037 H 681.911 -0.579539 1.37701 0
M  V30 7038 H 683.793 -3.66236 2.08445 0
M  V30 7039 H 682.468 -3.06189 1.05025 0
M  V30 7040 H 681.375 -2.04504 3.13256 0
M  V30 7041 H 682.708 -2.7071 4.11068 0
M  V30 7042 N 684.36 -1.4356 -0.65026 0
M  V30 7043 C 685.771 -1.40324 -1.2315 0
M  V30 7044 C 686.122 -0.108812 -1.95898 0
M  V30 7045 O 685.247 0.79163 -2.01401 0
M  V30 7046 C 685.842 -2.54195 -2.23987 0
M  V30 7047 C 684.401 -2.54215 -2.77582 0
M  V30 7048 C 683.548 -2.31752 -1.5227 0
M  V30 7049 H 686.499 -1.52418 -0.442095 0
M  V30 7050 H 686.52 -2.25854 -3.0622 0
M  V30 7051 H 686.032 -3.48392 -1.71011 0
M  V30 7052 H 684.133 -1.63907 -3.34612 0
M  V30 7053 H 684.246 -3.52081 -3.24925 0
M  V30 7054 H 682.61 -1.80476 -1.79723 0
M  V30 7055 H 683.393 -3.28037 -1.01225 0
M  V30 7056 N 685.838 0.888903 -1.30139 0
M  V30 7057 C 687.115 1.62145 -1.094 0
M  V30 7058 C 687.495 2.08041 0.358091 0
M  V30 7059 O 686.843 1.84438 1.34888 0
M  V30 7060 C 687.053 2.794 -2.09133 0
M  V30 7061 C 688.401 3.49826 -2.40638 0
M  V30 7062 O 689.425 2.89583 -2.07412 0
M  V30 7063 O 688.284 4.58457 -2.97455 0
M  V30 7064 H 685.378 0.712475 -0.41989 0
M  V30 7065 H 687.924 0.936023 -1.41551 0
M  V30 7066 H 686.696 2.42762 -3.06891 0
M  V30 7067 H 686.319 3.55643 -1.77776 0
M  V30 7068 N 687.317 1.12792 1.10072 0
M  V30 7069 C 688.733 0.864745 1.34143 0
M  V30 7070 C 688.933 -0.503201 1.95116 0
M  V30 7071 O 687.989 -1.25111 2.19325 0
M  V30 7072 C 689.302 1.98413 2.25949 0
M  V30 7073 C 690.85 2.01545 2.39476 0
M  V30 7074 C 691.325 3.12727 3.34613 0
M  V30 7075 N 692.816 3.12194 3.42183 0
M  V30 7076 C 693.551 3.94862 4.15779 0
M  V30 7077 N 693.047 4.87528 4.92228 0
M  V30 7078 N 694.84 3.82985 4.11435 0
M  V30 7079 H 686.991 2.00926 0.68866 0
M  V30 7080 H 689.254 0.874564 0.365844 0
M  V30 7081 H 688.96 2.97005 1.88364 0
M  V30 7082 H 688.834 1.89254 3.26287 0
M  V30 7083 H 691.221 1.0357 2.76328 0
M  V30 7084 H 691.302 2.14777 1.3894 0
M  V30 7085 H 690.946 4.10936 2.98486 0
M  V30 7086 H 690.876 2.96732 4.35037 0
M  V30 7087 H 693.367 2.45065 2.87666 0
M  V30 7088 H 693.68 5.47109 5.45794 0
M  V30 7089 H 692.025 4.91539 4.9134 0
M  V30 7090 H 695.216 3.09923 3.50807 0
M  V30 7091 H 695.389 4.47641 4.68531 0
M  V30 7092 N 688.795 -1.27931 0.920396 0
M  V30 7093 C 690.206 -1.76707 0.602616 0
M  V30 7094 C 690.557 -1.75249 -0.882159 0
M  V30 7095 O 689.682 -1.35135 -1.69019 0
M  V30 7096 C 690.277 -3.20884 1.08714 0
M  V30 7097 C 688.836 -3.67356 0.820157 0
M  V30 7098 C 687.983 -2.47525 1.25006 0
M  V30 7099 H 690.934 -1.14301 1.10095 0
M  V30 7100 H 690.955 -3.78045 0.431535 0
M  V30 7101 H 690.467 -3.21913 2.1678 0
M  V30 7102 H 688.568 -3.7178 -0.247012 0
M  V30 7103 H 688.681 -4.57181 1.43257 0
M  V30 7104 H 687.045 -2.45765 0.668698 0
M  V30 7105 H 687.828 -2.51269 2.3392 0
M  V30 7106 N 690.273 -0.685099 -1.4193 0
M  V30 7107 C 691.221 -0.00165985 -2.326 0
M  V30 7108 C 692.215 0.779678 -1.50391 0
M  V30 7109 O 693.421 0.68648 -1.66395 0
M  V30 7110 H 689.796 0.0182616 -0.751778 0
M  V30 7111 H 691.767 -0.783592 -2.87928 0
M  V30 7112 C 690.516 0.928385 -3.35077 0
M  V30 7113 H 689.839 0.336578 -3.98381 0
M  V30 7114 H 691.279 1.37509 -4.01083 0
M  V30 7115 C 689.738 2.03964 -2.68142 0
M  V30 7116 O 690.268 3.12727 -2.5212 0
M  V30 7117 N 688.474 1.81433 -2.27003 0
M  V30 7118 H 688.021 0.929807 -2.40234 0
M  V30 7119 H 687.979 2.55973 -1.82552 0
M  V30 7120 N 691.751 1.51645 -0.429126 0
M  V30 7121 C 692.999 2.01616 0.139802 0
M  V30 7122 C 693.32 1.31568 1.43927 0
M  V30 7123 O 692.59 0.447688 1.90716 0
M  V30 7124 H 691.17 0.744998 0.054654 0
M  V30 7125 H 693.832 1.8638 -0.569952 0
M  V30 7126 H 692.928 3.10439 0.321609 0
M  V30 7127 N 693.229 0.160201 1.56784 0
M  V30 7128 C 694.475 -0.48831 1.96833 0
M  V30 7129 C 694.808 -1.63641 1.04571 0
M  V30 7130 O 694.083 -1.94289 0.0906481 0
M  V30 7131 C 694.366 -0.981908 3.46454 0
M  V30 7132 C 694.219 0.165607 4.49495 0
M  V30 7133 C 695.538 -1.85931 3.98896 0
M  V30 7134 H 692.657 -0.176027 0.71567 0
M  V30 7135 H 695.299 0.244093 1.88426 0
M  V30 7136 H 693.449 -1.60602 3.5375 0
M  V30 7137 H 695.121 0.802372 4.54268 0
M  V30 7138 H 693.364 0.822789 4.25926 0
M  V30 7139 H 694.035 -0.221699 5.51555 0
M  V30 7140 H 696.511 -1.33327 3.94161 0
M  V30 7141 H 695.387 -2.17373 5.04024 0
M  V30 7142 H 695.648 -2.80106 3.42042 0
M  V30 7143 N 694.707 -1.5719 -0.113559 0
M  V30 7144 C 695.956 -1.84325 -0.818984 0
M  V30 7145 C 696.269 -0.746685 -1.80787 0
M  V30 7146 O 697.475 -0.904596 -2.55987 0
M  V30 7147 C 695.931 -3.26818 -1.50724 0
M  V30 7148 C 695.539 -4.44498 -0.559065 0
M  V30 7149 C 697.283 -3.63196 -2.19748 0
M  V30 7150 C 695.19 -5.7802 -1.25086 0
M  V30 7151 H 694.12 -0.687507 -0.309596 0
M  V30 7152 H 696.771 -1.8336 -0.0717621 0
M  V30 7153 H 695.153 -3.22269 -2.30128 0
M  V30 7154 H 696.327 -4.60356 0.202146 0
M  V30 7155 H 694.642 -4.16393 0.024495 0
M  V30 7156 H 697.239 -4.60226 -2.72206 0
M  V30 7157 H 697.582 -2.90899 -2.97798 0
M  V30 7158 H 698.115 -3.69553 -1.47226 0
M  V30 7159 H 694.854 -6.53501 -0.511539 0
M  V30 7160 H 694.374 -5.66038 -1.98395 0
M  V30 7161 H 696.053 -6.2196 -1.78253 0
M  V30 7162 N 696.185 0.383891 -1.52853 0
M  V30 7163 C 697.115 1.47559 -1.80965 0
M  V30 7164 C 698.096 1.5669 -0.661986 0
M  V30 7165 O 699.281 1.71556 -0.910072 0
M  V30 7166 C 696.411 2.85114 -1.98312 0
M  V30 7167 C 695.365 2.9082 -3.14019 0
M  V30 7168 C 694.691 4.30873 -3.16627 0
M  V30 7169 C 695.991 2.60001 -4.52986 0
M  V30 7170 H 697.685 1.24283 -2.72386 0
M  V30 7171 H 695.231 0.596445 -1.31067 0
M  V30 7172 H 697.184 3.61496 -2.16561 0
M  V30 7173 H 695.908 3.09738 -1.03585 0
M  V30 7174 H 694.567 2.16886 -2.9556 0
M  V30 7175 H 694.215 4.52545 -2.19573 0
M  V30 7176 H 693.915 4.3561 -3.94357 0
M  V30 7177 H 695.439 5.09154 -3.37038 0
M  V30 7178 H 696.853 3.261 -4.71521 0
M  V30 7179 H 695.25 2.76081 -5.32822 0
M  V30 7180 H 696.32 1.5532 -4.59351 0
M  V30 7181 N 697.663 1.43903 0.642637 0
M  V30 7182 C 698.573 1.52349 1.78401 0
M  V30 7183 C 699.589 0.409869 1.69104 0
M  V30 7184 O 700.765 0.665548 1.90085 0
M  V30 7185 C 697.83 1.45408 3.14734 0
M  V30 7186 C 696.891 2.67528 3.35749 0
M  V30 7187 C 696.124 2.60909 4.65577 0
M  V30 7188 O 696.347 1.6627 5.45628 0
M  V30 7189 O 695.281 3.5158 4.88544 0
M  V30 7190 H 699.107 2.48752 1.7423 0
M  V30 7191 H 696.692 1.26021 0.802439 0
M  V30 7192 H 698.574 1.44019 3.96026 0
M  V30 7193 H 697.249 0.521437 3.19473 0
M  V30 7194 H 696.156 2.74487 2.5418 0
M  V30 7195 H 697.489 3.598 3.35864 0
M  V30 7196 N 699.141 -0.881989 1.30609 0
M  V30 7197 C 700.371 -1.66469 1.22359 0
M  V30 7198 C 700.779 -1.87969 -0.215507 0
M  V30 7199 O 700.122 -1.42938 -1.15388 0
M  V30 7200 C 700.184 -3.06135 1.88472 0
M  V30 7201 C 699.848 -3.07795 3.37804 0
M  V30 7202 C 700.845 -2.86633 4.33749 0
M  V30 7203 C 698.53 -3.29297 3.793 0
M  V30 7204 C 700.524 -2.86934 5.69164 0
M  V30 7205 C 698.211 -3.29228 5.14832 0
M  V30 7206 C 699.209 -3.08071 6.09574 0
M  V30 7207 O 698.897 -3.07824 7.4263 0
M  V30 7208 H 698.629 -0.526129 0.424458 0
M  V30 7209 H 701.183 -1.11004 1.72821 0
M  V30 7210 H 699.413 -3.63276 1.32543 0
M  V30 7211 H 701.102 -3.66571 1.74301 0
M  V30 7212 H 701.868 -2.69814 4.0302 0
M  V30 7213 H 697.747 -3.44799 3.05998 0
M  V30 7214 H 701.291 -2.70339 6.43088 0
M  V30 7215 H 697.188 -3.45583 5.452 0
M  V30 7216 H 697.956 -3.2397 7.51656 0
M  V30 7217 N 700.619 -1.13374 -1.09472 0
M  V30 7218 C 701.529 -0.824029 -2.19652 0
M  V30 7219 C 702.545 0.19118 -1.72947 0
M  V30 7220 O 703.721 0.0223464 -2.01388 0
M  V30 7221 C 700.786 -0.294009 -3.45451 0
M  V30 7222 C 699.847 -1.3704 -4.0684 0
M  V30 7223 C 699.08 -0.86558 -5.26634 0
M  V30 7224 O 699.303 0.29702 -5.69626 0
M  V30 7225 O 698.237 -1.63968 -5.79136 0
M  V30 7226 H 702.063 -1.74454 -2.48595 0
M  V30 7227 H 699.648 -0.911155 -1.18399 0
M  V30 7228 H 701.53 -0.00381039 -4.214 0
M  V30 7229 H 700.205 0.598921 -3.18111 0
M  V30 7230 H 699.112 -1.71391 -3.3253 0
M  V30 7231 H 700.445 -2.23746 -4.38405 0
M  V30 7232 N 702.098 1.27442 -0.927168 0
M  V30 7233 C 703.344 1.94679 -0.568164 0
M  V30 7234 C 703.677 1.72697 0.888219 0
M  V30 7235 O 702.952 1.05573 1.63354 0
M  V30 7236 C 703.235 3.4882 -0.894253 0
M  V30 7237 C 703.088 3.80146 -2.40435 0
M  V30 7238 C 704.407 4.38281 -0.399766 0
M  V30 7239 H 701.526 0.707071 -0.207892 0
M  V30 7240 H 704.168 1.50568 -1.15885 0
M  V30 7241 H 702.318 3.86522 -0.391566 0
M  V30 7242 H 703.99 3.52238 -2.97869 0
M  V30 7243 H 702.233 3.26716 -2.85375 0
M  V30 7244 H 702.904 4.87835 -2.58304 0
M  V30 7245 H 705.38 4.07726 -0.83058 0
M  V30 7246 H 704.256 5.44955 -0.656885 0
M  V30 7247 H 704.517 4.36521 0.700153 0
M  V30 7248 N 703.576 0.692616 1.41565 0
M  V30 7249 C 704.523 0.0254264 2.30786 0
M  V30 7250 C 705.493 -0.774347 1.46946 0
M  V30 7251 O 706.678 -0.742981 1.7574 0
M  V30 7252 C 703.818 -0.907123 3.32964 0
M  V30 7253 C 702.931 -0.0992784 4.31886 0
M  V30 7254 C 702.066 -1.0292 5.21134 0
M  V30 7255 C 701.105 -0.214088 6.11725 0
M  V30 7256 N 700.242 -1.09766 6.93467 0
M  V30 7257 H 705.082 0.792036 2.87282 0
M  V30 7258 H 702.619 0.4023 1.41492 0
M  V30 7259 H 704.577 -1.46181 3.90752 0
M  V30 7260 H 703.207 -1.64016 2.78026 0
M  V30 7261 H 702.259 0.572287 3.76071 0
M  V30 7262 H 703.571 0.532782 4.95946 0
M  V30 7263 H 702.725 -1.65321 5.83741 0
M  V30 7264 H 701.464 -1.69512 4.57293 0
M  V30 7265 H 700.469 0.42302 5.4817 0
M  V30 7266 H 701.694 0.447995 6.77621 0
M  V30 7267 H 699.64 -1.74965 6.32237 0
M  V30 7268 H 699.557 -0.521099 7.54202 0
M  V30 7269 H 700.825 -1.70858 7.60544 0
M  V30 7270 N 705.054 -1.51416 0.437162 0
M  V30 7271 C 706.284 -2.06204 -0.127859 0
M  V30 7272 C 706.692 -1.30463 -1.37026 0
M  V30 7273 O 706.035 -0.357516 -1.80187 0
M  V30 7274 C 706.097 -3.55783 -0.515632 0
M  V30 7275 C 705.761 -4.52776 0.619937 0
M  V30 7276 C 706.758 -4.98031 1.49201 0
M  V30 7277 C 704.443 -4.95878 0.800618 0
M  V30 7278 C 706.437 -5.85061 2.52947 0
M  V30 7279 C 704.124 -5.82699 1.84135 0
M  V30 7280 C 705.122 -6.27188 2.70416 0
M  V30 7281 O 704.81 -7.12284 3.72702 0
M  V30 7282 H 704.542 -0.675903 -0.011442 0
M  V30 7283 H 707.096 -1.95977 0.614986 0
M  V30 7284 H 705.326 -3.63793 -1.31118 0
M  V30 7285 H 707.015 -3.93087 -1.01179 0
M  V30 7286 H 707.781 -4.65426 1.36395 0
M  V30 7287 H 703.66 -4.60792 0.138617 0
M  V30 7288 H 707.204 -6.19708 3.20325 0
M  V30 7289 H 703.101 -6.14717 1.9696 0
M  V30 7290 H 703.869 -7.30462 3.69281 0
M  V30 7291 N 706.532 -0.168513 -1.56696 0
M  V30 7292 C 707.762 0.482802 -2.0088 0
M  V30 7293 C 708.17 1.57537 -1.0478 0
M  V30 7294 O 707.513 1.83656 -0.0402746 0
M  V30 7295 C 707.575 1.1236 -3.4149 0
M  V30 7296 C 707.239 0.173027 -4.56672 0
M  V30 7297 C 708.236 -0.607565 -5.16338 0
M  V30 7298 C 705.921 0.0696691 -5.02252 0
M  V30 7299 C 707.915 -1.47874 -6.2001 0
M  V30 7300 C 705.602 -0.805096 -6.05773 0
M  V30 7301 C 706.6 -1.57789 -6.64524 0
M  V30 7302 O 706.288 -2.43804 -7.66038 0
M  V30 7303 H 706.02 0.128246 -0.663723 0
M  V30 7304 H 708.574 -0.266532 -2.03663 0
M  V30 7305 H 706.804 1.921 -3.35611 0
M  V30 7306 H 708.493 1.67683 -3.69645 0
M  V30 7307 H 709.259 -0.53787 -4.82008 0
M  V30 7308 H 705.138 0.660957 -4.56237 0
M  V30 7309 H 708.682 -2.0824 -6.65794 0
M  V30 7310 H 704.579 -0.876005 -6.39528 0
M  V30 7311 H 705.347 -2.37289 -7.83349 0
M  V30 7312 N 708.01 1.57248 0.105221 0
M  V30 7313 C 708.92 2.04653 1.14693 0
M  V30 7314 C 709.936 0.969488 1.44489 0
M  V30 7315 O 711.112 1.28196 1.55331 0
M  V30 7316 C 708.177 2.45297 2.45011 0
M  V30 7317 C 707.238 3.67148 2.22489 0
M  V30 7318 C 706.471 4.05844 3.46592 0
M  V30 7319 O 706.694 3.44736 4.54437 0
M  V30 7320 O 705.628 4.98862 3.36779 0
M  V30 7321 H 709.454 2.93663 0.774336 0
M  V30 7322 H 707.039 1.45998 0.31701 0
M  V30 7323 H 708.921 2.72112 3.21766 0
M  V30 7324 H 707.596 1.59429 2.81717 0
M  V30 7325 H 706.503 3.45463 1.43547 0
M  V30 7326 H 707.836 4.53764 1.9068 0
M  V30 7327 N 709.488 -0.375779 1.53054 0
M  V30 7328 C 710.435 -1.45978 1.78771 0
M  V30 7329 C 711.405 -1.53625 0.631552 0
M  V30 7330 O 712.59 -1.69674 0.872667 0
M  V30 7331 C 709.73 -2.8305 1.97425 0
M  V30 7332 C 708.843 -2.84451 3.25134 0
M  V30 7333 C 707.978 -4.13034 3.34031 0
M  V30 7334 C 707.017 -4.08536 4.55812 0
M  V30 7335 N 706.154 -5.2875 4.61918 0
M  V30 7336 H 710.994 -1.23349 2.71273 0
M  V30 7337 H 708.531 -0.598147 1.3439 0
M  V30 7338 H 710.489 -3.62666 2.06225 0
M  V30 7339 H 709.119 -3.04101 1.0827 0
M  V30 7340 H 708.171 -1.97127 3.25338 0
M  V30 7341 H 709.483 -2.76998 4.14818 0
M  V30 7342 H 708.637 -5.0106 3.42087 0
M  V30 7343 H 707.376 -4.23226 2.42345 0
M  V30 7344 H 706.381 -3.18897 4.47867 0
M  V30 7345 H 707.606 -3.99955 5.48828 0
M  V30 7346 H 705.552 -5.39547 3.73129 0
M  V30 7347 H 705.469 -5.23426 5.45492 0
M  V30 7348 H 706.737 -6.18637 4.74245 0
M  V30 7349 N 710.966 -1.44241 -0.634997 0
M  V30 7350 C 712.243 -1.37296 -1.39317 0
M  V30 7351 C 712.623 -0.0297532 -2.11079 0
M  V30 7352 O 711.971 0.987524 -2.06059 0
M  V30 7353 C 712.181 -2.56853 -2.36279 0
M  V30 7354 C 713.529 -3.00747 -2.99728 0
M  V30 7355 O 714.553 -2.5703 -2.46605 0
M  V30 7356 O 713.412 -3.76533 -3.96087 0
M  V30 7357 H 710.506 -0.543503 -0.623325 0
M  V30 7358 H 713.052 -1.56324 -0.660376 0
M  V30 7359 H 711.824 -3.46228 -1.82324 0
M  V30 7360 H 711.447 -2.40019 -3.16981 0
M  V30 7361 N 712.444 0.87505 -1.31075 0
M  V30 7362 C 713.376 1.98773 -1.14114 0
M  V30 7363 C 714.389 1.62595 -0.0816119 0
M  V30 7364 O 715.578 1.75449 -0.32861 0
M  V30 7365 C 712.678 3.31159 -0.720224 0
M  V30 7366 C 711.851 3.9571 -1.86366 0
M  V30 7367 C 710.91 5.06407 -1.42965 0
M  V30 7368 O 709.936 5.27501 -2.13848 0
M  V30 7369 N 711.138 5.79649 -0.314194 0
M  V30 7370 H 713.903 2.1387 -2.09951 0
M  V30 7371 H 711.464 1.04873 -1.23342 0
M  V30 7372 H 713.456 4.0259 -0.412687 0
M  V30 7373 H 712.026 3.12257 0.146396 0
M  V30 7374 H 711.246 3.17324 -2.33879 0
M  V30 7375 H 712.534 4.35576 -2.62966 0
M  V30 7376 H 711.932 5.65025 0.276228 0
M  V30 7377 H 710.489 6.51766 -0.0661641 0
M  V30 7378 N 713.922 1.13953 1.08869 0
M  V30 7379 C 714.87 0.817664 2.17754 0
M  V30 7380 C 715.864 -0.202444 1.68186 0
M  V30 7381 O 717.07 -0.0590159 1.79903 0
M  V30 7382 H 713.445 0.246671 0.710392 0
M  V30 7383 H 715.416 1.74401 2.4213 0
M  V30 7384 C 714.165 0.3063 3.46348 0
M  V30 7385 H 713.488 1.08259 3.84864 0
M  V30 7386 H 714.928 0.119584 4.23831 0
M  V30 7387 C 713.387 -0.969158 3.22659 0
M  V30 7388 O 713.917 -2.04386 3.45817 0
M  V30 7389 N 712.123 -0.902516 2.7623 0
M  V30 7390 H 711.67 -0.027801 2.57585 0
M  V30 7391 H 711.628 -1.75649 2.60758 0
M  V30 7392 N 715.4 -1.26948 0.933913 0
M  V30 7393 C 716.31 -2.30366 0.443671 0
M  V30 7394 C 717.326 -1.67284 -0.478745 0
M  V30 7395 O 718.502 -1.98156 -0.360043 0
M  V30 7396 C 715.567 -3.45485 -0.289974 0
M  V30 7397 C 714.628 -4.24069 0.668114 0
M  V30 7398 C 713.861 -5.33691 -0.0306138 0
M  V30 7399 O 714.084 -5.5656 -1.24888 0
M  V30 7400 O 713.018 -5.98441 0.644384 0
M  V30 7401 H 716.844 -2.74349 1.30254 0
M  V30 7402 H 714.429 -1.32012 0.699506 0
M  V30 7403 H 716.311 -4.15486 -0.70353 0
M  V30 7404 H 714.986 -3.03546 -1.12435 0
M  V30 7405 H 713.893 -3.56579 1.13147 0
M  V30 7406 H 715.226 -4.69739 1.46989 0
M  V30 7407 N 716.879 -0.700114 -1.41195 0
M  V30 7408 C 718.295 -0.372114 -1.55201 0
M  V30 7409 C 718.495 1.12053 -1.6747 0
M  V30 7410 O 717.551 1.90642 -1.65566 0
M  V30 7411 C 718.864 -1.12462 -2.78878 0
M  V30 7412 C 720.412 -1.10941 -2.92679 0
M  V30 7413 C 720.887 -1.84376 -4.19249 0
M  V30 7414 N 722.378 -1.81368 -4.26216 0
M  V30 7415 C 723.113 -2.35024 -5.23021 0
M  V30 7416 N 722.609 -2.9717 -6.25829 0
M  V30 7417 N 724.402 -2.25254 -5.14992 0
M  V30 7418 H 716.553 -1.66816 -1.31477 0
M  V30 7419 H 718.816 -0.704223 -0.634644 0
M  V30 7420 H 718.522 -2.17937 -2.76037 0
M  V30 7421 H 718.396 -0.706152 -3.70531 0
M  V30 7422 H 720.783 -0.062911 -2.95033 0
M  V30 7423 H 720.864 -1.56698 -2.02187 0
M  V30 7424 H 720.508 -2.89008 -4.17656 0
M  V30 7425 H 720.438 -1.3605 -5.08722 0
M  V30 7426 H 722.929 -1.36062 -3.52556 0
M  V30 7427 H 723.242 -3.35668 -6.96094 0
M  V30 7428 H 721.587 -3.01249 -6.26318 0
M  V30 7429 H 724.778 -1.76372 -4.33602 0
M  V30 7430 H 724.951 -2.67373 -5.90268 0
M  V30 7431 N 718.357 1.51182 -0.445186 0
M  V30 7432 C 719.582 2.07056 0.119445 0
M  V30 7433 C 720.007 1.30966 1.35016 0
M  V30 7434 O 719.365 0.349827 1.77893 0
M  V30 7435 C 719.413 3.58234 0.412428 0
M  V30 7436 O 718.517 3.84249 1.49754 0
M  V30 7437 H 717.858 0.663998 -0.00157797 0
M  V30 7438 H 720.388 1.94699 -0.628779 0
M  V30 7439 H 720.398 4.02617 0.660583 0
M  V30 7440 H 719.073 4.13038 -0.487049 0
M  V30 7441 H 717.65 3.51724 1.23873 0
M  V30 7442 N 719.835 0.176821 1.56605 0
M  V30 7443 C 721.065 -0.472142 2.01133 0
M  V30 7444 C 721.473 -1.56979 1.05614 0
M  V30 7445 O 720.816 -1.83632 0.0500137 0
M  V30 7446 C 720.878 -1.10547 3.42081 0
M  V30 7447 C 720.542 -0.148806 4.56758 0
M  V30 7448 C 721.539 0.634939 5.16008 0
M  V30 7449 C 719.224 -0.0430325 5.02282 0
M  V30 7450 C 721.218 1.5116 6.19217 0
M  V30 7451 C 718.905 0.83721 6.05338 0
M  V30 7452 C 719.903 1.61311 6.63677 0
M  V30 7453 O 719.591 2.47863 7.64735 0
M  V30 7454 H 719.323 -0.124725 0.664394 0
M  V30 7455 H 721.877 0.277329 2.03519 0
M  V30 7456 H 720.107 -1.90318 3.36625 0
M  V30 7457 H 721.796 -1.6572 3.70529 0
M  V30 7458 H 722.562 0.563424 4.81716 0
M  V30 7459 H 718.441 -0.636753 4.56581 0
M  V30 7460 H 721.985 2.11767 6.64681 0
M  V30 7461 H 717.882 0.909908 6.39055 0
M  V30 7462 H 718.65 2.4144 7.8208 0
M  V30 7463 N 721.313 -1.57302 -0.09688 0
M  V30 7464 C 722.729 -1.53094 -0.451041 0
M  V30 7465 C 722.929 -0.893265 -1.80618 0
M  V30 7466 O 721.985 -0.485013 -2.47798 0
M  V30 7467 C 723.298 -2.9782 -0.415172 0
M  V30 7468 C 724.846 -3.09026 -0.497155 0
M  V30 7469 C 725.321 -4.55356 -0.491452 0
M  V30 7470 N 726.812 -4.59896 -0.552258 0
M  V30 7471 C 727.547 -5.70563 -0.569654 0
M  V30 7472 N 727.043 -6.90666 -0.543365 0
M  V30 7473 N 728.836 -5.58733 -0.614331 0
M  V30 7474 H 720.987 -1.97131 0.790771 0
M  V30 7475 H 723.25 -0.901211 0.294147 0
M  V30 7476 H 722.956 -3.47933 0.513362 0
M  V30 7477 H 722.83 -3.56416 -1.23481 0
M  V30 7478 H 725.217 -2.58902 -1.41611 0
M  V30 7479 H 725.298 -2.53386 0.35059 0
M  V30 7480 H 724.942 -5.06131 0.423549 0
M  V30 7481 H 724.872 -5.08832 -1.35639 0
M  V30 7482 H 727.363 -3.73456 -0.577842 0
M  V30 7483 H 727.676 -7.70769 -0.559873 0
M  V30 7484 H 726.021 -6.93123 -0.510441 0
M  V30 7485 H 729.212 -4.63809 -0.632387 0
M  V30 7486 H 729.385 -6.44984 -0.62442 0
M  V30 7487 N 722.791 0.367657 -1.53252 0
M  V30 7488 C 724.04 1.10782 -1.68554 0
M  V30 7489 C 724.353 1.90523 -0.442765 0
M  V30 7490 O 725.559 2.6729 -0.47629 0
M  V30 7491 C 724.015 2.01863 -2.97959 0
M  V30 7492 C 723.623 1.27443 -4.29491 0
M  V30 7493 C 725.367 2.75883 -3.22628 0
M  V30 7494 C 723.274 2.17414 -5.49987 0
M  V30 7495 H 722.204 0.417272 -0.628013 0
M  V30 7496 H 724.855 0.368971 -1.79752 0
M  V30 7497 H 723.237 2.7947 -2.80558 0
M  V30 7498 H 724.411 0.549138 -4.57516 0
M  V30 7499 H 722.726 0.652935 -4.11249 0
M  V30 7500 H 725.323 3.43421 -4.09837 0
M  V30 7501 H 725.666 3.41138 -2.38601 0
M  V30 7502 H 726.199 2.0536 -3.40693 0
M  V30 7503 H 722.938 1.5674 -6.36485 0
M  V30 7504 H 722.458 2.87799 -5.26243 0
M  V30 7505 H 724.137 2.77019 -5.84696 0
M  V30 7506 N 724.269 1.44576 0.627338 0
M  V30 7507 C 725.515 1.47777 1.38888 0
M  V30 7508 C 725.848 0.111406 1.9388 0
M  V30 7509 O 725.123 -0.87149 1.73883 0
M  V30 7510 C 725.406 2.54119 2.55138 0
M  V30 7511 C 725.259 4.00128 2.0547 0
M  V30 7512 C 726.578 2.56929 3.57317 0
M  V30 7513 H 723.697 0.538048 0.50366 0
M  V30 7514 H 726.339 1.76277 0.708978 0
M  V30 7515 H 724.489 2.29948 3.13139 0
M  V30 7516 H 726.161 4.35444 1.5227 0
M  V30 7517 H 724.404 4.11724 1.36623 0
M  V30 7518 H 725.075 4.7019 2.89181 0
M  V30 7519 H 727.551 2.78536 3.09122 0
M  V30 7520 H 726.427 3.33234 4.36173 0
M  V30 7521 H 726.688 1.6127 4.11636 0
M  V30 7522 N 725.747 -0.868086 1.31537 0
M  V30 7523 C 727.163 -1.15414 1.10235 0
M  V30 7524 C 727.363 -2.01106 -0.125947 0
M  V30 7525 O 726.419 -2.38994 -0.814734 0
M  V30 7526 C 727.732 -1.84445 2.37488 0
M  V30 7527 C 729.28 -1.97139 2.43116 0
M  V30 7528 C 729.755 -2.69585 3.70254 0
M  V30 7529 N 731.246 -2.77119 3.71159 0
M  V30 7530 C 731.981 -3.33791 4.6623 0
M  V30 7531 N 731.477 -3.9138 5.71659 0
M  V30 7532 N 733.27 -3.31767 4.53747 0
M  V30 7533 H 725.421 -0.297109 2.10312 0
M  V30 7534 H 727.684 -0.194227 0.92789 0
M  V30 7535 H 727.39 -1.2893 3.27215 0
M  V30 7536 H 727.264 -2.84709 2.47428 0
M  V30 7537 H 729.651 -2.51818 1.53856 0
M  V30 7538 H 729.732 -0.95912 2.37138 0
M  V30 7539 H 729.376 -2.15572 4.59881 0
M  V30 7540 H 729.306 -3.71223 3.73499 0
M  V30 7541 H 731.797 -2.3625 2.94948 0
M  V30 7542 H 732.11 -4.3274 6.40278 0
M  V30 7543 H 730.455 -3.8975 5.7543 0
M  V30 7544 H 733.646 -2.86016 3.70557 0
M  V30 7545 H 733.819 -3.75636 5.28017 0
M  V30 7546 N 727.225 -1.14528 -1.08264 0
M  V30 7547 C 728.453 -0.937964 -1.84418 0
M  V30 7548 C 728.868 0.51357 -1.81681 0
M  V30 7549 O 728.225 1.35591 -1.22153 0
M  V30 7550 C 728.276 -1.43272 -3.31897 0
M  V30 7551 O 727.997 -2.82738 -3.34651 0
M  V30 7552 C 729.498 -1.26555 -4.24851 0
M  V30 7553 H 726.718 -0.333704 -0.582136 0
M  V30 7554 H 729.262 -1.52076 -1.36723 0
M  V30 7555 H 727.417 -0.892653 -3.76975 0
M  V30 7556 H 727.831 -3.04971 -4.26724 0
M  V30 7557 H 729.305 -1.66031 -5.26439 0
M  V30 7558 H 729.782 -0.208589 -4.38704 0
M  V30 7559 H 730.388 -1.79423 -3.856 0
M  V30 7560 N 728.703 1.26451 -0.940633 0
M  V30 7561 C 729.666 2.24651 -0.454378 0
M  V30 7562 C 730.666 1.54826 0.434222 0
M  V30 7563 O 731.856 1.72628 0.233477 0
M  V30 7564 C 728.988 3.39148 0.345192 0
M  V30 7565 H 730.181 2.69182 -1.32217 0
M  V30 7566 H 727.734 1.38596 -0.722547 0
M  V30 7567 H 728.469 3.00018 1.23125 0
M  V30 7568 H 728.254 3.9101 -0.292107 0
M  V30 7569 H 729.744 4.12103 0.675341 0
M  V30 7570 N 730.181 0.707592 1.40822 0
M  V30 7571 C 731.144 0.0587224 2.29125 0
M  V30 7572 C 732.144 -0.695624 1.44975 0
M  V30 7573 O 733.334 -0.528718 1.65983 0
M  V30 7574 C 730.466 -0.926939 3.28056 0
M  V30 7575 H 731.659 0.836349 2.88002 0
M  V30 7576 H 729.212 0.471778 1.4901 0
M  V30 7577 H 729.947 -1.7319 2.74182 0
M  V30 7578 H 729.732 -0.389015 3.90165 0
M  V30 7579 H 731.222 -1.37837 3.94196 0
M  V30 7580 N 731.66 -1.50943 0.453197 0
M  V30 7581 C 733.076 -1.59245 0.106342 0
M  V30 7582 C 733.276 -1.46287 -1.38572 0
M  V30 7583 O 732.332 -1.31219 -2.15726 0
M  V30 7584 C 733.645 -2.93797 0.640595 0
M  V30 7585 C 735.193 -3.07148 0.602435 0
M  V30 7586 C 735.668 -4.44247 1.11393 0
M  V30 7587 N 737.159 -4.50611 1.07258 0
M  V30 7588 C 737.894 -5.55049 1.43905 0
M  V30 7589 N 737.39 -6.66828 1.87914 0
M  V30 7590 N 739.183 -5.45494 1.35621 0
M  V30 7591 H 731.334 -1.5761 1.42382 0
M  V30 7592 H 733.597 -0.74384 0.587713 0
M  V30 7593 H 733.303 -3.087 1.68515 0
M  V30 7594 H 733.177 -3.77127 0.0742272 0
M  V30 7595 H 735.564 -2.91903 -0.433171 0
M  V30 7596 H 735.645 -2.25619 1.20539 0
M  V30 7597 H 735.289 -4.60239 2.14808 0
M  V30 7598 H 735.219 -5.2434 0.487353 0
M  V30 7599 H 737.71 -3.70391 0.749585 0
M  V30 7600 H 738.023 -7.42558 2.14072 0
M  V30 7601 H 736.368 -6.67995 1.91853 0
M  V30 7602 H 739.559 -4.57053 1.01093 0
M  V30 7603 H 739.732 -6.2677 1.64508 0
M  V30 7604 N 733.138 -0.185124 -1.56509 0
M  V30 7605 C 734.086 0.756505 -2.19954 0
M  V30 7606 C 735.08 1.22725 -1.16769 0
M  V30 7607 O 736.286 1.1913 -1.34937 0
M  V30 7608 H 732.661 0.262279 -0.704779 0
M  V30 7609 H 734.632 0.197587 -2.97745 0
M  V30 7610 C 733.381 1.96975 -2.86524 0
M  V30 7611 H 732.704 1.61658 -3.65659 0
M  V30 7612 H 734.144 2.60719 -3.34367 0
M  V30 7613 C 732.603 2.80219 -1.87027 0
M  V30 7614 O 733.133 3.77821 -1.36433 0
M  V30 7615 N 731.339 2.4551 -1.55477 0
M  V30 7616 H 730.886 1.66199 -1.96813 0
M  V30 7617 H 730.844 3.01493 -0.891597 0
M  V30 7618 N 734.616 1.57351 0.0885366 0
M  V30 7619 C 735.844 1.90631 0.804196 0
M  V30 7620 C 736.259 0.779474 1.71958 0
M  V30 7621 O 735.616 -0.248179 1.80805 0
M  V30 7622 C 735.667 3.23568 1.61202 0
M  V30 7623 O 735.388 4.31917 0.733447 0
M  V30 7624 C 736.889 3.70753 2.43016 0
M  V30 7625 H 734.109 0.630501 0.229585 0
M  V30 7626 H 736.653 2.044 0.0638092 0
M  V30 7627 H 734.808 3.11377 2.30485 0
M  V30 7628 H 735.222 5.08297 1.29361 0
M  V30 7629 H 736.696 4.66447 2.9518 0
M  V30 7630 H 737.173 2.98922 3.2178 0
M  V30 7631 H 737.779 3.85834 1.7892 0
M  V30 7632 N 736.094 -0.359525 1.53444 0
M  V30 7633 C 737.371 -1.11756 1.6053 0
M  V30 7634 C 737.751 -2.06949 0.416587 0
M  V30 7635 O 737.099 -2.20681 -0.592628 0
M  V30 7636 C 737.309 -1.85133 2.95849 0
M  V30 7637 C 738.657 -2.3945 3.50641 0
M  V30 7638 O 739.681 -1.95251 2.97918 0
M  V30 7639 O 738.54 -3.20266 4.42823 0
M  V30 7640 H 735.634 -0.513005 0.648656 0
M  V30 7641 H 738.18 -0.362301 1.65787 0
M  V30 7642 H 736.952 -1.15694 3.73806 0
M  V30 7643 H 736.575 -2.67554 2.9411 0
M  V30 7644 N 737.572 -1.44907 -0.619662 0
M  V30 7645 C 738.821 -1.47569 -1.37501 0
M  V30 7646 C 739.134 -0.116707 -1.95252 0
M  V30 7647 O 740.34 -0.020909 -2.71492 0
M  V30 7648 C 738.796 -2.59851 -2.49009 0
M  V30 7649 C 738.404 -4.02008 -1.97722 0
M  V30 7650 C 740.148 -2.71746 -3.2612 0
M  V30 7651 C 738.055 -5.05693 -3.0664 0
M  V30 7652 H 736.985 -0.549068 -0.51676 0
M  V30 7653 H 739.636 -1.71009 -0.665437 0
M  V30 7654 H 738.018 -2.29671 -3.22594 0
M  V30 7655 H 739.192 -4.41809 -1.30925 0
M  V30 7656 H 737.507 -3.94456 -1.33392 0
M  V30 7657 H 740.104 -3.46382 -4.07337 0
M  V30 7658 H 740.447 -1.77959 -3.76346 0
M  V30 7659 H 740.98 -3.01392 -2.5963 0
M  V30 7660 H 737.719 -6.01148 -2.61345 0
M  V30 7661 H 737.239 -4.70473 -3.72042 0
M  V30 7662 H 738.918 -5.29906 -3.71226 0
M  V30 7663 N 739.05 0.861098 -1.31996 0
M  V30 7664 C 739.997 1.96912 -1.20392 0
M  V30 7665 C 740.967 1.65869 -0.0875899 0
M  V30 7666 O 742.152 1.88992 -0.262011 0
M  V30 7667 C 739.292 3.32435 -0.926335 0
M  V30 7668 C 738.405 3.76018 -2.12684 0
M  V30 7669 C 737.54 5.00301 -1.78529 0
M  V30 7670 C 736.579 5.36357 -2.94937 0
M  V30 7671 N 735.716 6.51818 -2.60917 0
M  V30 7672 H 740.556 2.06169 -2.1517 0
M  V30 7673 H 738.093 1.00917 -1.07024 0
M  V30 7674 H 740.051 4.10478 -0.745917 0
M  V30 7675 H 738.681 3.22796 -0.0153578 0
M  V30 7676 H 737.733 2.93683 -2.41774 0
M  V30 7677 H 739.045 3.98664 -2.99781 0
M  V30 7678 H 738.199 5.86034 -1.57001 0
M  V30 7679 H 736.938 4.79578 -0.886356 0
M  V30 7680 H 735.943 4.49139 -3.17103 0
M  V30 7681 H 737.168 5.59041 -3.85552 0
M  V30 7682 H 735.114 6.32624 -1.73558 0
M  V30 7683 H 735.031 6.7445 -3.41544 0
M  V30 7684 H 736.299 7.4072 -2.42804 0
M  V30 7685 N 740.528 1.15101 1.07655 0
M  V30 7686 C 741.776 0.922149 1.79836 0
M  V30 7687 C 742.097 -0.552346 1.87014 0
M  V30 7688 O 741.367 -1.40145 1.3688 0
M  V30 7689 H 739.947 0.338182 0.666064 0
M  V30 7690 H 742.609 1.45107 1.30115 0
M  V30 7691 H 741.705 1.32883 2.82398 0
M  V30 7692 N 742.006 -1.2595 0.947325 0
M  V30 7693 C 742.936 -2.28521 0.479604 0
M  V30 7694 C 743.917 -1.63469 -0.470293 0
M  V30 7695 O 745.102 -1.90627 -0.370824 0
M  V30 7696 C 742.232 -3.46397 -0.250289 0
M  V30 7697 C 741.186 -4.23578 0.613643 0
M  V30 7698 C 740.512 -5.34131 -0.246568 0
M  V30 7699 C 741.812 -4.86979 1.88809 0
M  V30 7700 H 743.506 -2.67895 1.33688 0
M  V30 7701 H 741.052 -1.28783 0.644274 0
M  V30 7702 H 743.005 -4.17269 -0.588576 0
M  V30 7703 H 741.729 -3.05993 -1.14175 0
M  V30 7704 H 740.388 -3.54478 0.93491 0
M  V30 7705 H 740.036 -4.89968 -1.13756 0
M  V30 7706 H 739.736 -5.86683 0.328123 0
M  V30 7707 H 741.26 -6.07839 -0.579986 0
M  V30 7708 H 742.674 -5.50034 1.61666 0
M  V30 7709 H 741.071 -5.49675 2.40784 0
M  V30 7710 H 742.141 -4.09575 2.5957 0
M  V30 7711 N 743.484 -0.715051 -1.40445 0
M  V30 7712 C 744.432 -0.0509974 -2.32544 0
M  V30 7713 C 745.426 0.747602 -1.52011 0
M  V30 7714 O 746.632 0.651031 -1.67814 0
M  V30 7715 H 743.007 0.00231113 -0.751996 0
M  V30 7716 H 744.978 -0.84449 -2.86201 0
M  V30 7717 C 743.727 0.857101 -3.3697 0
M  V30 7718 H 743.05 0.252 -3.99005 0
M  V30 7719 H 744.49 1.28971 -4.03909 0
M  V30 7720 C 742.949 1.98231 -2.72408 0
M  V30 7721 O 743.479 3.07309 -2.58697 0
M  V30 7722 N 741.685 1.76577 -2.308 0
M  V30 7723 H 741.232 0.878641 -2.42152 0
M  V30 7724 H 741.19 2.52043 -1.87941 0
M  V30 7725 N 744.962 1.50701 -0.461195 0
M  V30 7726 C 746.373 1.867 -0.00370227 0
M  V30 7727 C 746.724 1.37673 1.39787 0
M  V30 7728 O 745.849 0.737515 2.03445 0
M  V30 7729 C 746.444 3.388 5.75786e-05 0
M  V30 7730 C 745.003 3.74247 0.402044 0
M  V30 7731 C 744.15 2.74549 -0.389652 0
M  V30 7732 H 747.101 1.43585 -0.675942 0
M  V30 7733 H 747.122 3.719 0.804414 0
M  V30 7734 H 746.634 3.74452 -1.02015 0
M  V30 7735 H 744.735 3.44192 1.42697 0
M  V30 7736 H 744.848 4.78973 0.110265 0
M  V30 7737 H 743.212 2.54226 0.155314 0
M  V30 7738 H 743.995 3.13044 -1.40919 0
M  V30 7739 N 746.441 0.193421 1.56409 0
M  V30 7740 C 747.371 -0.723334 2.22014 0
M  V30 7741 C 748.352 -1.22254 1.1827 0
M  V30 7742 O 749.537 -1.27168 1.46771 0
M  V30 7743 C 746.667 -1.94366 2.87818 0
M  V30 7744 C 745.621 -1.57943 3.97791 0
M  V30 7745 C 744.947 -2.87623 4.50752 0
M  V30 7746 C 746.247 -0.790639 5.16281 0
M  V30 7747 H 747.941 -0.176426 2.9888 0
M  V30 7748 H 745.487 -0.0834166 1.43758 0
M  V30 7749 H 747.44 -2.5902 3.32396 0
M  V30 7750 H 746.164 -2.51507 2.08355 0
M  V30 7751 H 744.823 -0.956482 3.53903 0
M  V30 7752 H 744.471 -3.4285 3.68053 0
M  V30 7753 H 744.171 -2.63998 5.24956 0
M  V30 7754 H 745.695 -3.53268 4.9803 0
M  V30 7755 H 747.109 -1.34024 5.57414 0
M  V30 7756 H 745.506 -0.65258 5.96541 0
M  V30 7757 H 746.576 0.208633 4.84451 0
M  V30 7758 N 747.919 -1.57396 -0.0801906 0
M  V30 7759 C 749.147 -1.91055 -0.794075 0
M  V30 7760 C 749.562 -0.788583 -1.71542 0
M  V30 7761 O 748.919 0.238587 -1.80934 0
M  V30 7762 C 748.97 -3.24418 -1.59484 0
M  V30 7763 O 748.691 -4.323 -0.710532 0
M  V30 7764 C 750.192 -3.72037 -2.41046 0
M  V30 7765 H 747.412 -0.63171 -0.226238 0
M  V30 7766 H 749.956 -2.04431 -0.0529685 0
M  V30 7767 H 748.111 -3.12595 -2.2883 0
M  V30 7768 H 748.525 -5.08976 -1.26663 0
M  V30 7769 H 749.999 -4.68006 -2.92702 0
M  V30 7770 H 750.476 -3.00624 -3.2019 0
M  V30 7771 H 751.082 -3.86777 -1.76871 0
M  V30 7772 N 749.397 0.351382 -1.53633 0
M  V30 7773 C 750.622 1.11718 -1.74739 0
M  V30 7774 C 751.047 1.81829 -0.481657 0
M  V30 7775 O 750.405 1.72264 0.565233 0
M  V30 7776 C 750.453 2.11234 -2.92254 0
M  V30 7777 O 749.557 3.186 -2.61855 0
M  V30 7778 H 748.898 0.323482 -0.579875 0
M  V30 7779 H 751.428 0.404167 -2.00568 0
M  V30 7780 H 751.438 2.54591 -3.18822 0
M  V30 7781 H 750.113 1.59599 -3.84058 0
M  V30 7782 H 748.69 2.80115 -2.4615 0
M  V30 7783 N 750.875 1.45233 0.611969 0
M  V30 7784 C 752.105 1.52318 1.39581 0
M  V30 7785 C 752.513 0.153093 1.8858 0
M  V30 7786 O 751.856 -0.854792 1.62601 0
M  V30 7787 C 751.918 2.4426 2.63775 0
M  V30 7788 C 751.582 3.91079 2.36445 0
M  V30 7789 C 752.579 4.81099 1.97079 0
M  V30 7790 C 750.264 4.35958 2.49492 0
M  V30 7791 C 752.258 6.14002 1.71115 0
M  V30 7792 C 749.945 5.68903 2.23142 0
M  V30 7793 C 750.943 6.57744 1.84015 0
M  V30 7794 O 750.631 7.88226 1.5797 0
M  V30 7795 H 750.363 0.518428 0.43383 0
M  V30 7796 H 752.917 1.91067 0.753837 0
M  V30 7797 H 751.147 2.00474 3.30677 0
M  V30 7798 H 752.836 2.42077 3.25812 0
M  V30 7799 H 753.602 4.47692 1.86539 0
M  V30 7800 H 749.481 3.67053 2.78914 0
M  V30 7801 H 753.025 6.83305 1.405 0
M  V30 7802 H 748.922 6.01866 2.33297 0
M  V30 7803 H 749.69 8.00211 1.72058 0
M  V30 7804 N 752.353 -0.854086 1.3245 0
M  V30 7805 C 753.599 -1.61069 1.23225 0
M  V30 7806 C 753.932 -1.93111 -0.205349 0
M  V30 7807 O 753.207 -1.57397 -1.14265 0
M  V30 7808 C 753.49 -2.93065 2.09249 0
M  V30 7809 C 753.343 -2.67801 3.6139 0
M  V30 7810 C 754.662 -3.94341 1.95406 0
M  V30 7811 H 751.781 -0.584449 0.448986 0
M  V30 7812 H 754.423 -0.986189 1.62402 0
M  V30 7813 H 752.573 -3.46364 1.75967 0
M  V30 7814 H 754.245 -2.21052 4.04887 0
M  V30 7815 H 752.488 -2.01756 3.84027 0
M  V30 7816 H 753.159 -3.6179 4.16907 0
M  V30 7817 H 755.635 -3.50301 2.24562 0
M  V30 7818 H 754.511 -4.84555 2.57872 0
M  V30 7819 H 754.772 -4.32382 0.921865 0
M  V30 7820 N 753.831 -1.1567 -1.07043 0
M  V30 7821 C 755.078 -0.933517 -1.79699 0
M  V30 7822 C 755.406 0.539162 -1.86878 0
M  V30 7823 O 754.661 1.41592 -1.35093 0
M  V30 7824 C 754.96 -1.49677 -3.24548 0
M  V30 7825 C 754.626 -2.99047 -3.37463 0
M  V30 7826 C 753.288 -3.39824 -3.40695 0
M  V30 7827 C 755.64 -3.95027 -3.40004 0
M  V30 7828 C 752.968 -4.75215 -3.44075 0
M  V30 7829 C 755.32 -5.30295 -3.44921 0
M  V30 7830 C 753.984 -5.70562 -3.46432 0
M  V30 7831 H 753.254 -0.341598 -0.657565 0
M  V30 7832 H 755.901 -1.44263 -1.25938 0
M  V30 7833 H 754.206 -0.908915 -3.81111 0
M  V30 7834 H 755.903 -1.29986 -3.79348 0
M  V30 7835 H 752.493 -2.6653 -3.35648 0
M  V30 7836 H 756.677 -3.64596 -3.36725 0
M  V30 7837 H 751.933 -5.05754 -3.43545 0
M  V30 7838 H 756.107 -6.0446 -3.45833 0
M  V30 7839 H 753.734 -6.75456 -3.48803 0
M  V30 7840 N 755.309 1.25446 -0.953992 0
M  V30 7841 C 756.259 2.23627 -0.444413 0
M  V30 7842 C 757.243 1.54004 0.465993 0
M  V30 7843 O 758.435 1.74454 0.29915 0
M  V30 7844 C 755.564 3.42179 0.277175 0
M  V30 7845 C 754.65 4.1907 -0.651263 0
M  V30 7846 N 755.041 4.73346 -1.78262 0
M  V30 7847 C 753.339 4.43628 -0.459338 0
M  V30 7848 C 754.04 5.31576 -2.36224 0
M  V30 7849 N 753.016 5.17991 -1.64884 0
M  V30 7850 H 756.818 2.63197 -1.30785 0
M  V30 7851 H 754.332 1.40677 -0.811402 0
M  V30 7852 H 756.329 4.11653 0.659367 0
M  V30 7853 H 754.989 3.04134 1.13723 0
M  V30 7854 H 756 4.705 -2.1645 0
M  V30 7855 H 752.677 4.15963 0.357885 0
M  V30 7856 H 754.067 5.84361 -3.3162 0
M  V30 7857 N 756.787 0.722489 1.40064 0
M  V30 7858 C 758.033 0.265371 2.01056 0
M  V30 7859 C 758.366 -1.14062 1.57174 0
M  V30 7860 O 757.641 -1.77514 0.794916 0
M  V30 7861 C 757.924 0.353157 3.58364 0
M  V30 7862 C 757.777 1.79802 4.123 0
M  V30 7863 C 759.096 -0.271677 4.39261 0
M  V30 7864 H 756.215 0.0979002 0.730469 0
M  V30 7865 H 758.857 0.916289 1.66446 0
M  V30 7866 H 757.007 -0.201037 3.87979 0
M  V30 7867 H 758.679 2.40813 3.93455 0
M  V30 7868 H 756.922 2.32348 3.66329 0
M  V30 7869 H 757.593 1.81079 5.21454 0
M  V30 7870 H 760.069 0.200607 4.15616 0
M  V30 7871 H 758.945 -0.179843 5.48605 0
M  V30 7872 H 759.206 -1.35611 4.20787 0
M  V30 7873 N 758.265 -1.50454 0.469181 0
M  V30 7874 C 759.681 -1.59124 0.123226 0
M  V30 7875 C 759.881 -1.47749 -1.37013 0
M  V30 7876 O 758.937 -1.335 -2.14322 0
M  V30 7877 C 760.25 -2.93101 0.67172 0
M  V30 7878 C 761.798 -3.06491 0.634978 0
M  V30 7879 C 762.273 -4.43041 1.16098 0
M  V30 7880 N 763.764 -4.49448 1.12031 0
M  V30 7881 C 764.499 -5.53491 1.49784 0
M  V30 7882 N 763.995 -6.64798 1.94976 0
M  V30 7883 N 765.788 -5.44025 1.41399 0
M  V30 7884 H 757.939 -1.56091 1.44046 0
M  V30 7885 H 760.202 -0.737564 0.59557 0
M  V30 7886 H 759.908 -3.06895 1.7178 0
M  V30 7887 H 759.782 -3.77027 0.114222 0
M  V30 7888 H 762.169 -2.92346 -0.402187 0
M  V30 7889 H 762.25 -2.24328 1.22926 0
M  V30 7890 H 761.894 -4.57935 2.19677 0
M  V30 7891 H 761.824 -5.23794 0.542939 0
M  V30 7892 H 764.315 -3.69575 0.788828 0
M  V30 7893 H 764.628 -7.40246 2.21936 0
M  V30 7894 H 762.973 -6.65923 1.98927 0
M  V30 7895 H 766.164 -4.55955 1.05935 0
M  V30 7896 H 766.337 -6.2499 1.71147 0
M  V30 7897 N 759.743 -0.201713 -1.56304 0
M  V30 7898 C 760.706 0.702811 -2.18159 0
M  V30 7899 C 761.706 1.13619 -1.13787 0
M  V30 7900 O 762.896 1.0482 -1.39134 0
M  V30 7901 C 760.028 1.96032 -2.78898 0
M  V30 7902 H 761.221 0.163836 -2.99452 0
M  V30 7903 H 758.774 0.04791 -1.56227 0
M  V30 7904 H 759.509 2.54165 -2.01421 0
M  V30 7905 H 759.294 1.65824 -3.55309 0
M  V30 7906 H 760.784 2.60519 -3.26373 0
M  V30 7907 N 761.222 1.57436 0.0718424 0
M  V30 7908 C 762.638 1.53792 0.426628 0
M  V30 7909 C 762.838 0.921887 1.79174 0
M  V30 7910 O 761.894 0.524374 2.46995 0
M  V30 7911 C 763.207 2.98443 0.367739 0
M  V30 7912 C 764.755 3.09778 0.447928 0
M  V30 7913 C 765.23 4.5608 0.418946 0
M  V30 7914 N 766.721 4.60716 0.479022 0
M  V30 7915 C 767.456 5.71397 0.47881 0
M  V30 7916 N 766.952 6.91443 0.433417 0
M  V30 7917 N 768.745 5.59639 0.525364 0
M  V30 7918 H 760.896 1.95848 -0.822033 0
M  V30 7919 H 763.159 0.896418 -0.308447 0
M  V30 7920 H 762.865 3.47072 -0.56865 0
M  V30 7921 H 762.739 3.58335 1.17795 0
M  V30 7922 H 765.126 2.61122 1.37474 0
M  V30 7923 H 765.207 2.52796 -0.390857 0
M  V30 7924 H 764.851 5.05393 -0.504016 0
M  V30 7925 H 764.781 5.10925 1.27526 0
M  V30 7926 H 767.272 3.74328 0.518355 0
M  V30 7927 H 767.585 7.71562 0.43718 0
M  V30 7928 H 765.93 6.93847 0.400106 0
M  V30 7929 H 769.121 4.64756 0.558519 0
M  V30 7930 H 769.294 6.45896 0.52173 0
M  V30 7931 N 762.7 -0.34323 1.53817 0
M  V30 7932 C 763.928 -1.10348 1.75017 0
M  V30 7933 C 764.343 -1.82345 0.489475 0
M  V30 7934 O 763.7 -1.74362 -0.538886 0
M  V30 7935 C 763.751 -2.11672 2.93048 0
M  V30 7936 O 763.472 -1.42603 4.14241 0
M  V30 7937 C 764.973 -3.0007 3.26301 0
M  V30 7938 H 762.193 -0.329056 0.584776 0
M  V30 7939 H 764.737 -0.395339 2.00642 0
M  V30 7940 H 762.892 -2.78051 2.69753 0
M  V30 7941 H 763.306 -2.10294 4.80496 0
M  V30 7942 H 764.78 -3.67101 4.12239 0
M  V30 7943 H 765.257 -3.66105 2.42618 0
M  V30 7944 H 765.863 -2.3928 3.51604 0
M  V30 7945 N 764.178 -1.45556 -0.604258 0
M  V30 7946 C 765.141 -1.54091 -1.69672 0
M  V30 7947 C 766.141 -0.420076 -1.55216 0
M  V30 7948 O 767.331 -0.683671 -1.60224 0
M  V30 7949 C 764.463 -1.44063 -3.08964 0
M  V30 7950 H 765.656 -2.51431 -1.6347 0
M  V30 7951 H 763.209 -1.33046 -0.820273 0
M  V30 7952 H 763.944 -0.479201 -3.2074 0
M  V30 7953 H 763.729 -2.25362 -3.20865 0
M  V30 7954 H 765.219 -1.53075 -3.88533 0
M  V30 7955 N 765.656 0.84705 -1.32902 0
M  V30 7956 C 766.619 1.9378 -1.224 0
M  V30 7957 C 767.619 1.60144 -0.145108 0
M  V30 7958 O 768.809 1.69638 -0.396058 0
M  V30 7959 C 765.941 3.29234 -0.884174 0
M  V30 7960 H 767.134 2.04518 -2.19345 0
M  V30 7961 H 764.687 1.03816 -1.16842 0
M  V30 7962 H 765.422 3.24193 0.0831277 0
M  V30 7963 H 765.207 3.55026 -1.6643 0
M  V30 7964 H 766.697 4.09162 -0.835226 0
M  V30 7965 N 767.134 1.16236 1.06428 0
M  V30 7966 C 768.382 0.941171 1.78847 0
M  V30 7967 C 768.703 -0.53248 1.87589 0
M  V30 7968 O 767.973 -1.38686 1.38358 0
M  V30 7969 H 766.553 0.345228 0.66244 0
M  V30 7970 H 769.215 1.46479 1.28569 0
M  V30 7971 H 768.311 1.35871 2.80972 0
M  V30 7972 N 768.612 -1.24939 0.960631 0
M  V30 7973 C 769.842 -1.96595 0.635123 0
M  V30 7974 C 770.25 -1.71538 -0.798206 0
M  V30 7975 O 769.593 -0.991727 -1.5463 0
M  V30 7976 C 769.655 -3.49994 0.821248 0
M  V30 7977 C 769.319 -3.98738 2.23287 0
M  V30 7978 C 770.316 -4.08965 3.21004 0
M  V30 7979 C 768.001 -4.32247 2.55867 0
M  V30 7980 C 769.995 -4.52025 4.49391 0
M  V30 7981 C 767.682 -4.74991 3.84482 0
M  V30 7982 C 768.68 -4.84844 4.81056 0
M  V30 7983 O 768.368 -5.26638 6.07378 0
M  V30 7984 H 768.1 -0.633265 0.23654 0
M  V30 7985 H 770.654 -1.5991 1.28911 0
M  V30 7986 H 768.884 -3.86543 0.110105 0
M  V30 7987 H 770.573 -4.02859 0.495892 0
M  V30 7988 H 771.339 -3.83302 2.97161 0
M  V30 7989 H 767.218 -4.23801 1.81421 0
M  V30 7990 H 770.762 -4.5963 5.24773 0
M  V30 7991 H 766.659 -5.00101 4.08129 0
M  V30 7992 H 767.427 -5.44807 6.10842 0
M  V30 7993 N 770.09 -0.729906 -1.39679 0
M  V30 7994 C 771.338 -0.275077 -2.00219 0
M  V30 7995 C 771.659 1.1401 -1.58199 0
M  V30 7996 O 770.929 1.77546 -0.827904 0
M  V30 7997 H 769.509 -0.0987127 -0.740449 0
M  V30 7998 H 772.171 -0.93873 -1.70804 0
M  V30 7999 H 771.267 -0.319446 -3.10461 0
M  V30 8000 N 771.568 1.50203 -0.477153 0
M  V30 8001 C 772.845 1.95115 0.137609 0
M  V30 8002 C 773.225 1.41778 1.56404 0
M  V30 8003 O 772.573 0.621333 2.1989 0
M  V30 8004 C 772.783 3.4892 0.0747168 0
M  V30 8005 C 774.131 4.238 0.260585 0
M  V30 8006 O 775.155 3.5588 0.151021 0
M  V30 8007 O 774.014 5.44366 0.482534 0
M  V30 8008 H 771.108 0.81987 0.108364 0
M  V30 8009 H 773.654 1.60946 -0.537989 0
M  V30 8010 H 772.426 3.80308 -0.920966 0
M  V30 8011 H 772.049 3.89642 0.791509 0
M  V30 8012 N 773.046 0.209999 1.56195 0
M  V30 8013 C 774.293 -0.424813 1.97994 0
M  V30 8014 C 774.621 -1.60589 1.09733 0
M  V30 8015 O 773.876 -1.95201 0.139693 0
M  V30 8016 C 774.175 -0.91312 3.45539 0
M  V30 8017 C 773.841 0.156187 4.50629 0
M  V30 8018 C 772.503 0.449966 4.79092 0
M  V30 8019 C 774.855 0.879959 5.13718 0
M  V30 8020 C 772.183 1.47223 5.67928 0
M  V30 8021 C 774.535 1.89148 6.0366 0
M  V30 8022 C 773.199 2.1923 6.30472 0
M  V30 8023 H 772.469 -0.15545 0.724511 0
M  V30 8024 H 775.116 0.310095 1.88973 0
M  V30 8025 H 773.421 -1.72658 3.51705 0
M  V30 8026 H 775.118 -1.41395 3.75245 0
M  V30 8027 H 771.708 -0.0829466 4.2852 0
M  V30 8028 H 775.892 0.66623 4.91808 0
M  V30 8029 H 771.148 1.71105 5.86969 0
M  V30 8030 H 775.322 2.45745 6.516 0
M  V30 8031 H 772.949 2.98587 6.99107 0
M  V30 8032 N 774.524 -1.57472 -0.0634922 0
M  V30 8033 C 775.749 -1.92273 -0.77756 0
M  V30 8034 C 776.174 -0.807141 -1.69902 0
M  V30 8035 O 775.532 0.239523 -1.79711 0
M  V30 8036 C 775.58 -3.26054 -1.54017 0
M  V30 8037 O 774.684 -3.15873 -2.65138 0
M  V30 8038 H 774.025 -0.629389 -0.211579 0
M  V30 8039 H 776.555 -2.04579 -0.0292523 0
M  V30 8040 H 776.565 -3.60127 -1.91763 0
M  V30 8041 H 775.24 -4.06824 -0.864128 0
M  V30 8042 H 773.817 -2.93373 -2.30189 0
M  V30 8043 N 776.003 0.335068 -1.53997 0
M  V30 8044 C 776.913 1.43511 -1.85585 0
M  V30 8045 C 777.929 1.57162 -0.746726 0
M  V30 8046 O 779.105 1.72477 -1.03988 0
M  V30 8047 C 776.17 2.78386 -2.06646 0
M  V30 8048 C 775.231 2.74007 -3.30483 0
M  V30 8049 C 774.464 4.02449 -3.50529 0
M  V30 8050 O 774.687 5.00147 -2.74242 0
M  V30 8051 O 773.621 4.06405 -4.4398 0
M  V30 8052 H 777.447 1.19731 -2.79102 0
M  V30 8053 H 775.032 0.528033 -1.39758 0
M  V30 8054 H 776.914 3.58247 -2.21894 0
M  V30 8055 H 775.589 3.0208 -1.16317 0
M  V30 8056 H 774.496 1.92736 -3.2063 0
M  V30 8057 H 775.829 2.55267 -4.20832 0
M  V30 8058 N 777.481 1.45874 0.596531 0
M  V30 8059 C 778.892 1.44798 1.17857 0
M  V30 8060 C 779.243 0.181443 1.95359 0
M  V30 8061 O 778.368 -0.716336 2.042 0
M  V30 8062 C 778.963 2.62333 2.14398 0
M  V30 8063 C 777.522 2.64342 2.67955 0
M  V30 8064 C 776.669 2.37244 1.43564 0
M  V30 8065 H 779.62 1.53954 0.385222 0
M  V30 8066 H 779.641 2.37063 2.97626 0
M  V30 8067 H 779.153 3.54499 1.57963 0
M  V30 8068 H 777.254 1.76213 3.28298 0
M  V30 8069 H 777.367 3.63897 3.11634 0
M  V30 8070 H 775.731 1.87022 1.72901 0
M  V30 8071 H 776.514 3.31568 0.889805 0
M  V30 8072 N 778.959 -0.83999 1.33349 0
M  V30 8073 C 779.889 -1.965 1.26135 0
M  V30 8074 C 780.87 -1.69505 0.142152 0
M  V30 8075 O 782.055 -1.91346 0.331743 0
M  V30 8076 C 779.185 -3.32632 0.99866 0
M  V30 8077 C 778.139 -3.74021 2.08068 0
M  V30 8078 C 777.465 -5.07947 1.67014 0
M  V30 8079 C 778.765 -3.87925 3.49731 0
M  V30 8080 H 780.459 -2.02793 2.20262 0
M  V30 8081 H 778.005 -0.974297 1.06035 0
M  V30 8082 H 779.958 -4.10903 0.934696 0
M  V30 8083 H 778.682 -3.26593 0.0217759 0
M  V30 8084 H 777.341 -2.98012 2.13505 0
M  V30 8085 H 776.989 -4.98378 0.680316 0
M  V30 8086 H 776.689 -5.36611 2.39422 0
M  V30 8087 H 778.213 -5.88695 1.62082 0
M  V30 8088 H 779.627 -4.5651 3.46802 0
M  V30 8089 H 778.024 -4.28023 4.20614 0
M  V30 8090 H 779.094 -2.90407 3.88319 0
M  V30 8091 N 780.437 -1.16799 -1.0581 0
M  V30 8092 C 781.347 -0.893492 -2.16919 0
M  V30 8093 C 782.363 0.136061 -1.73467 0
M  V30 8094 O 783.539 -0.0417348 -2.01357 0
M  V30 8095 C 780.604 -0.403763 -3.44341 0
M  V30 8096 C 779.665 -1.49914 -4.02274 0
M  V30 8097 C 778.898 -1.03269 -5.23614 0
M  V30 8098 O 779.121 0.115647 -5.70283 0
M  V30 8099 O 778.055 -1.8231 -5.73626 0
M  V30 8100 H 781.881 -1.82274 -2.42919 0
M  V30 8101 H 779.466 -0.948361 -1.1544 0
M  V30 8102 H 781.348 -0.137874 -4.21174 0
M  V30 8103 H 780.023 0.497413 -3.19855 0
M  V30 8104 H 778.93 -1.81883 -3.26909 0
M  V30 8105 H 780.263 -2.3758 -4.31064 0
M  V30 8106 N 781.915 1.24427 -0.967243 0
M  V30 8107 C 783.161 1.92772 -0.629812 0
M  V30 8108 C 783.494 1.75436 0.832827 0
M  V30 8109 O 782.769 1.10716 1.59913 0
M  V30 8110 C 783.052 3.45798 -1.00477 0
M  V30 8111 C 782.905 3.72304 -2.52407 0
M  V30 8112 C 784.224 4.36787 -0.538999 0
M  V30 8113 H 781.343 0.700099 -0.230282 0
M  V30 8114 H 783.985 1.46805 -1.20616 0
M  V30 8115 H 782.135 3.8508 -0.514336 0
M  V30 8116 H 783.807 3.42584 -3.08924 0
M  V30 8117 H 782.05 3.17472 -2.95625 0
M  V30 8118 H 782.721 4.7937 -2.73693 0
M  V30 8119 H 785.197 4.04877 -0.959874 0
M  V30 8120 H 784.073 5.4259 -0.829926 0
M  V30 8121 H 784.334 4.38527 0.560923 0
M  V30 8122 N 783.393 0.737304 1.3929 0
M  V30 8123 C 784.621 0.296573 2.04763 0
M  V30 8124 C 785.036 -1.06941 1.55592 0
M  V30 8125 O 784.393 -1.67619 0.721822 0
M  V30 8126 C 784.444 0.291906 3.6032 0
M  V30 8127 O 784.165 1.60397 4.07682 0
M  V30 8128 C 785.666 -0.164708 4.42994 0
M  V30 8129 H 782.886 0.129251 0.658434 0
M  V30 8130 H 785.43 1.0016 1.78293 0
M  V30 8131 H 783.585 -0.364251 3.85684 0
M  V30 8132 H 783.999 1.51909 5.0202 0
M  V30 8133 H 785.473 -0.116814 5.51876 0
M  V30 8134 H 785.95 -1.21022 4.22197 0
M  V30 8135 H 786.556 0.461968 4.22784 0
M  V30 8136 N 784.871 -1.49948 0.485112 0
M  V30 8137 C 786.099 -2.06806 -0.0622824 0
M  V30 8138 C 786.514 -1.34736 -1.32256 0
M  V30 8139 O 785.871 -0.420836 -1.77582 0
M  V30 8140 C 785.922 -3.59934 -0.336096 0
M  V30 8141 O 785.643 -4.29289 0.874203 0
M  V30 8142 C 787.144 -4.33459 -0.928903 0
M  V30 8143 H 784.364 -0.670867 0.0133472 0
M  V30 8144 H 786.908 -1.92937 0.677917 0
M  V30 8145 H 785.063 -3.7356 -1.02625 0
M  V30 8146 H 785.477 -5.20735 0.627332 0
M  V30 8147 H 786.951 -5.41527 -1.07017 0
M  V30 8148 H 787.428 -3.94881 -1.92265 0
M  V30 8149 H 788.034 -4.24399 -0.276705 0
M  V30 8150 N 786.349 -0.21828 -1.56081 0
M  V30 8151 C 787.297 0.709679 -2.21509 0
M  V30 8152 C 788.291 1.20221 -1.19346 0
M  V30 8153 O 789.497 1.16241 -1.37433 0
M  V30 8154 H 785.872 0.247271 -0.710184 0
M  V30 8155 H 787.843 0.134386 -2.98097 0
M  V30 8156 C 786.592 1.90853 -2.90638 0
M  V30 8157 H 785.915 1.53865 -3.69006 0
M  V30 8158 H 787.355 2.53568 -3.39822 0
M  V30 8159 C 785.814 2.76189 -1.92929 0
M  V30 8160 O 786.344 3.74842 -1.44416 0
M  V30 8161 N 784.55 2.42157 -1.6065 0
M  V30 8162 H 784.097 1.61987 -2.00294 0
M  V30 8163 H 784.055 2.99534 -0.955347 0
M  V30 8164 N 787.827 1.57504 0.0551401 0
M  V30 8165 C 789.055 1.92294 0.76358 0
M  V30 8166 C 789.47 0.815774 1.70266 0
M  V30 8167 O 788.827 -0.209772 1.8129 0
M  V30 8168 C 788.878 3.26914 1.54302 0
M  V30 8169 O 788.599 4.33375 0.641666 0
M  V30 8170 C 790.1 3.75825 2.35097 0
M  V30 8171 H 787.32 0.635229 0.216159 0
M  V30 8172 H 789.864 2.0449 0.0204385 0
M  V30 8173 H 788.019 3.16196 2.23828 0
M  V30 8174 H 788.433 5.10927 1.1855 0
M  V30 8175 H 789.907 4.72603 2.8522 0
M  V30 8176 H 790.384 3.0568 3.15367 0
M  V30 8177 H 790.99 3.89542 1.70696 0
M  V30 8178 N 789.305 -0.326896 1.54172 0
M  V30 8179 C 790.551 -1.06681 1.72473 0
M  V30 8180 C 790.884 -1.87779 0.49523 0
M  V30 8181 O 790.159 -1.87754 -0.507803 0
M  V30 8182 C 790.442 -1.99429 2.99834 0
M  V30 8183 C 790.295 -1.21682 4.33028 0
M  V30 8184 C 791.614 -2.99002 3.22933 0
M  V30 8185 H 788.733 -0.386438 0.627563 0
M  V30 8186 H 791.375 -0.343779 1.86864 0
M  V30 8187 H 789.525 -2.61081 2.87696 0
M  V30 8188 H 791.197 -0.625153 4.57044 0
M  V30 8189 H 789.44 -0.519045 4.30684 0
M  V30 8190 H 790.111 -1.89766 5.18356 0
M  V30 8191 H 792.587 -2.4747 3.34511 0
M  V30 8192 H 791.463 -3.61085 4.13412 0
M  V30 8193 H 791.724 -3.71281 2.40006 0
M  V30 8194 N 790.784 -1.46188 -0.588786 0
M  V30 8195 C 792.195 -1.45421 -1.17088 0
M  V30 8196 C 792.546 -0.191801 -1.9526 0
M  V30 8197 O 791.671 0.705497 -2.04577 0
M  V30 8198 C 792.266 -2.63467 -2.13004 0
M  V30 8199 C 790.825 -2.6576 -2.6655 0
M  V30 8200 C 789.972 -2.38002 -1.42304 0
M  V30 8201 H 792.923 -1.54156 -0.377052 0
M  V30 8202 H 792.944 -2.38638 -2.96365 0
M  V30 8203 H 792.456 -3.55331 -1.56081 0
M  V30 8204 H 790.557 -1.77952 -3.27359 0
M  V30 8205 H 790.67 -3.65545 -3.09699 0
M  V30 8206 H 789.034 -1.87936 -1.71907 0
M  V30 8207 H 789.817 -3.32035 -0.872209 0
M  V30 8208 N 792.262 0.832906 -1.33792 0
M  V30 8209 C 793.487 1.62568 -1.28788 0
M  V30 8210 C 793.912 1.87599 0.137246 0
M  V30 8211 O 793.27 1.44436 1.0958 0
M  V30 8212 C 793.318 2.9495 -2.07453 0
M  V30 8213 O 792.422 3.86546 -1.43722 0
M  V30 8214 H 791.763 0.494809 -0.442787 0
M  V30 8215 H 794.293 1.03578 -1.76445 0
M  V30 8216 H 794.303 3.44599 -2.1844 0
M  V30 8217 H 792.978 2.76055 -3.11073 0
M  V30 8218 H 791.555 3.45044 -1.41417 0
M  V30 8219 N 793.74 1.17359 1.05189 0
M  V30 8220 C 795.156 0.920861 1.30355 0
M  V30 8221 C 795.356 -0.419993 1.97074 0
M  V30 8222 O 794.412 -1.15696 2.24434 0
M  V30 8223 C 795.725 2.07818 2.1733 0
M  V30 8224 C 797.273 2.1152 2.30712 0
M  V30 8225 C 797.748 3.26637 3.21048 0
M  V30 8226 N 799.239 3.26426 3.28634 0
M  V30 8227 C 799.974 4.12141 3.98657 0
M  V30 8228 N 799.47 5.07966 4.71107 0
M  V30 8229 N 801.263 4.00091 3.94821 0
M  V30 8230 H 793.414 2.03666 0.602821 0
M  V30 8231 H 795.677 0.889294 0.328421 0
M  V30 8232 H 795.383 3.04727 1.75597 0
M  V30 8233 H 795.257 2.02922 3.17966 0
M  V30 8234 H 797.644 1.15196 2.71687 0
M  V30 8235 H 797.725 2.20477 1.29706 0
M  V30 8236 H 797.369 4.23227 2.80788 0
M  V30 8237 H 797.299 3.14917 4.2206 0
M  V30 8238 H 799.79 2.57045 2.77013 0
M  V30 8239 H 800.103 5.69766 5.22099 0
M  V30 8240 H 798.448 5.11936 4.7005 0
M  V30 8241 H 801.639 3.24523 3.37346 0
M  V30 8242 H 801.812 4.6711 4.49123 0
M  V30 8243 N 795.218 -1.23913 0.973828 0
M  V30 8244 C 796.467 -1.91455 0.63464 0
M  V30 8245 C 796.78 -1.76893 -0.834759 0
M  V30 8246 O 797.986 -2.3918 -1.28473 0
M  V30 8247 C 796.442 -3.43172 1.08447 0
M  V30 8248 C 796.05 -3.66409 2.57776 0
M  V30 8249 C 797.794 -4.1653 0.818721 0
M  V30 8250 C 795.701 -5.11728 2.9646 0
M  V30 8251 H 794.631 -0.716881 0.233661 0
M  V30 8252 H 797.282 -1.40457 1.18085 0
M  V30 8253 H 795.664 -3.93242 0.466524 0
M  V30 8254 H 796.838 -3.26913 3.24753 0
M  V30 8255 H 795.153 -3.06349 2.82027 0
M  V30 8256 H 797.75 -5.23603 1.08367 0
M  V30 8257 H 798.093 -4.15578 -0.245128 0
M  V30 8258 H 798.626 -3.72428 1.39793 0
M  V30 8259 H 795.365 -5.17806 4.01941 0
M  V30 8260 H 794.885 -5.52199 2.34172 0
M  V30 8261 H 796.564 -5.80009 2.86703 0
M  V30 8262 N 796.696 -0.74468 -1.38897 0
M  V30 8263 C 797.945 -0.293716 -1.9955 0
M  V30 8264 C 798.258 1.12831 -1.59777 0
M  V30 8265 O 799.464 1.67929 -2.13336 0
M  V30 8266 C 797.92 -0.474188 -3.56762 0
M  V30 8267 C 797.528 -1.90472 -4.05493 0
M  V30 8268 C 799.272 -0.0854875 -4.24414 0
M  V30 8269 C 797.179 -2.03423 -5.55314 0
M  V30 8270 H 796.109 -0.106066 -0.746502 0
M  V30 8271 H 798.76 -0.919948 -1.58774 0
M  V30 8272 H 797.142 0.221092 -3.95382 0
M  V30 8273 H 798.316 -2.63274 -3.78184 0
M  V30 8274 H 796.631 -2.24752 -3.50536 0
M  V30 8275 H 799.228 -0.161133 -5.34457 0
M  V30 8276 H 799.571 0.96066 -4.05064 0
M  V30 8277 H 800.104 -0.732286 -3.91002 0
M  V30 8278 H 796.843 -3.0626 -5.79556 0
M  V30 8279 H 796.363 -1.3507 -5.84394 0
M  V30 8280 H 798.042 -1.81996 -6.20876 0
M  V30 8281 N 798.174 1.49689 -0.493057 0
M  V30 8282 C 799.422 2.02027 0.0541642 0
M  V30 8283 C 799.743 1.37554 1.38217 0
M  V30 8284 O 799.013 0.528174 1.88646 0
M  V30 8285 H 797.593 0.746646 0.0230069 0
M  V30 8286 H 800.255 1.83795 -0.648489 0
M  V30 8287 H 799.351 3.11523 0.189652 0
M  V30 8288 N 799.652 0.226554 1.55963 0
M  V30 8289 C 800.929 -0.453058 1.90281 0
M  V30 8290 C 801.309 -1.77377 1.14458 0
M  V30 8291 O 800.657 -2.27067 0.255496 0
M  V30 8292 C 800.867 -0.641108 3.43061 0
M  V30 8293 C 802.215 -0.946265 4.13921 0
M  V30 8294 O 803.239 -0.727713 3.48687 0
M  V30 8295 O 802.098 -1.36131 5.29274 0
M  V30 8296 H 799.192 -0.240242 0.791336 0
M  V30 8297 H 801.738 0.26911 1.67553 0
M  V30 8298 H 800.51 0.290283 3.90222 0
M  V30 8299 H 800.133 -1.41458 3.71585 0
M  V30 8300 N 801.13 -1.57531 -0.0467866 0
M  V30 8301 C 802.378 -1.88078 -0.739656 0
M  V30 8302 C 802.699 -0.821936 -1.76831 0
M  V30 8303 O 801.969 0.146582 -1.95351 0
M  V30 8304 H 800.549 -0.694075 -0.276169 0
M  V30 8305 H 803.211 -1.94893 -0.0169391 0
M  V30 8306 H 802.307 -2.86396 -1.24031 0
M  V30 8307 N 802.608 0.318715 -1.54344 0
M  V30 8308 C 803.571 1.37545 -1.83342 0
M  V30 8309 C 804.571 1.445 -0.705444 0
M  V30 8310 O 805.761 1.44443 -0.973752 0
M  V30 8311 C 802.893 2.76225 -1.99781 0
M  V30 8312 H 804.086 1.13084 -2.77762 0
M  V30 8313 H 801.639 0.554457 -1.46135 0
M  V30 8314 H 802.374 3.05934 -1.07588 0
M  V30 8315 H 802.159 2.7257 -2.81865 0
M  V30 8316 H 803.649 3.52664 -2.23647 0
M  V30 8317 N 804.086 1.46499 0.581025 0
M  V30 8318 C 805.034 1.57562 1.71105 0
M  V30 8319 C 806.028 0.44403 1.63477 0
M  V30 8320 O 807.234 0.620964 1.6895 0
M  V30 8321 H 803.609 0.495415 0.565746 0
M  V30 8322 H 805.58 2.5257 1.58905 0
M  V30 8323 C 804.329 1.58465 3.0949 0
M  V30 8324 H 803.652 2.44877 3.16031 0
M  V30 8325 H 805.092 1.70261 3.88313 0
M  V30 8326 C 803.551 0.313596 3.35437 0
M  V30 8327 O 804.081 -0.595456 3.97262 0
M  V30 8328 N 802.287 0.200986 2.89904 0
M  V30 8329 H 801.834 0.941643 2.39773 0
M  V30 8330 H 801.792 -0.648577 3.07638 0
M  V30 8331 N 805.565 -0.825799 1.34232 0
M  V30 8332 C 806.79 -1.61883 1.29648 0
M  V30 8333 C 807.215 -1.87669 -0.127295 0
M  V30 8334 O 806.573 -1.45016 -1.08813 0
M  V30 8335 C 806.621 -2.93846 2.09014 0
M  V30 8336 O 805.725 -3.85778 1.4577 0
M  V30 8337 H 805.066 -0.492454 0.445405 0
M  V30 8338 H 807.596 -1.02641 1.76992 0
M  V30 8339 H 807.606 -3.43435 2.20264 0
M  V30 8340 H 806.281 -2.74401 3.12533 0
M  V30 8341 H 804.858 -3.4429 1.43245 0
M  V30 8342 N 807.043 -1.17915 -1.04565 0
M  V30 8343 C 808.271 -0.99616 -1.8134 0
M  V30 8344 C 808.686 0.455509 -1.83223 0
M  V30 8345 O 808.043 1.31636 -1.26405 0
M  V30 8346 C 808.094 -1.53758 -3.27171 0
M  V30 8347 O 807.815 -2.93241 -3.25486 0
M  V30 8348 C 809.316 -1.40007 -4.2061 0
M  V30 8349 H 806.536 -0.352055 -0.571225 0
M  V30 8350 H 809.08 -1.56349 -1.31815 0
M  V30 8351 H 807.235 -1.01213 -3.73945 0
M  V30 8352 H 807.649 -3.18392 -4.16805 0
M  V30 8353 H 809.123 -1.82695 -5.2089 0
M  V30 8354 H 809.6 -0.348054 -4.37819 0
M  V30 8355 H 810.206 -1.916 -3.79697 0
M  V30 8356 N 808.521 1.23394 -0.980386 0
M  V30 8357 C 809.767 1.92094 -0.650223 0
M  V30 8358 C 810.1 1.76309 0.814173 0
M  V30 8359 O 809.375 1.12406 1.5873 0
M  V30 8360 C 809.658 3.44713 -1.04139 0
M  V30 8361 C 809.511 3.69606 -2.56342 0
M  V30 8362 C 810.83 4.36191 -0.585296 0
M  V30 8363 H 807.949 0.697618 -0.237695 0
M  V30 8364 H 810.591 1.45517 -1.22167 0
M  V30 8365 H 808.741 3.84513 -0.55515 0
M  V30 8366 H 810.413 3.39288 -3.1254 0
M  V30 8367 H 808.656 3.14318 -2.98976 0
M  V30 8368 H 809.327 4.76441 -2.78762 0
M  V30 8369 H 811.803 4.03836 -1.00276 0
M  V30 8370 H 810.679 5.41679 -0.887428 0
M  V30 8371 H 810.94 4.39097 0.51438 0
M  V30 8372 N 809.999 0.752036 1.385 0
M  V30 8373 C 810.929 0.138718 2.33088 0
M  V30 8374 C 811.91 -0.705318 1.54788 0
M  V30 8375 O 813.095 -0.646821 1.83112 0
M  V30 8376 C 810.225 -0.75641 3.38963 0
M  V30 8377 C 809.179 -0.0152239 4.27997 0
M  V30 8378 C 808.505 -1.0285 5.24715 0
M  V30 8379 C 809.805 1.15226 5.09431 0
M  V30 8380 H 811.499 0.928852 2.84627 0
M  V30 8381 H 809.045 0.448111 1.3685 0
M  V30 8382 H 810.998 -1.19513 4.04097 0
M  V30 8383 H 809.722 -1.57885 2.85902 0
M  V30 8384 H 808.381 0.404061 3.64366 0
M  V30 8385 H 808.029 -1.84496 4.67943 0
M  V30 8386 H 807.729 -0.537238 5.85139 0
M  V30 8387 H 809.253 -1.46657 5.92726 0
M  V30 8388 H 810.667 0.791161 5.67815 0
M  V30 8389 H 809.064 1.57428 5.79082 0
M  V30 8390 H 810.134 1.9659 4.43261 0
M  V30 8391 N 811.477 -1.49425 0.500989 0
M  V30 8392 C 812.407 -2.31971 -0.266775 0
M  V30 8393 C 813.388 -1.40245 -0.962563 0
M  V30 8394 O 814.573 -1.69154 -0.953968 0
M  V30 8395 C 811.703 -3.20757 -1.33163 0
M  V30 8396 C 810.657 -4.21275 -0.75572 0
M  V30 8397 C 809.983 -4.98997 -1.92109 0
M  V30 8398 C 811.283 -5.21686 0.253213 0
M  V30 8399 H 812.977 -2.96408 0.422237 0
M  V30 8400 H 810.523 -1.4254 0.204505 0
M  V30 8401 H 812.476 -3.77315 -1.87646 0
M  V30 8402 H 811.2 -2.54263 -2.04983 0
M  V30 8403 H 809.859 -3.65861 -0.232637 0
M  V30 8404 H 809.507 -4.28951 -2.62698 0
M  V30 8405 H 809.207 -5.67011 -1.54182 0
M  V30 8406 H 810.731 -5.584 -2.47026 0
M  V30 8407 H 812.145 -5.72939 -0.203483 0
M  V30 8408 H 810.542 -5.9759 0.548322 0
M  V30 8409 H 811.612 -4.70596 1.16909 0
M  V30 8410 N 812.955 -0.234822 -1.55841 0
M  V30 8411 C 814.201 0.393843 -1.98939 0
M  V30 8412 C 814.534 1.58466 -1.1226 0
M  V30 8413 O 813.809 1.93635 -0.183242 0
M  V30 8414 C 814.092 0.815492 -3.50745 0
M  V30 8415 C 813.945 -0.379878 -4.48193 0
M  V30 8416 C 815.264 1.66687 -4.07312 0
M  V30 8417 H 812.383 0.141681 -0.723253 0
M  V30 8418 H 815.025 -0.333716 -1.87046 0
M  V30 8419 H 813.175 1.43541 -3.6101 0
M  V30 8420 H 814.847 -1.0182 -4.49923 0
M  V30 8421 H 813.09 -1.02507 -4.21515 0
M  V30 8422 H 813.761 -0.0417069 -5.51984 0
M  V30 8423 H 816.237 1.14369 -4.00074 0
M  V30 8424 H 815.113 1.93078 -5.13821 0
M  V30 8425 H 815.374 2.63468 -3.55017 0
M  V30 8426 N 814.433 1.57553 0.0384317 0
M  V30 8427 C 815.658 1.93485 0.746872 0
M  V30 8428 C 816.083 0.834069 1.68597 0
M  V30 8429 O 815.441 -0.210902 1.80069 0
M  V30 8430 C 815.489 3.28463 1.4881 0
M  V30 8431 O 814.593 3.20051 2.60079 0
M  V30 8432 H 813.934 0.632675 0.201539 0
M  V30 8433 H 816.464 2.046 -0.00329815 0
M  V30 8434 H 816.474 3.63132 1.86009 0
M  V30 8435 H 815.149 4.08147 0.799297 0
M  V30 8436 H 813.726 2.96998 2.25492 0
M  V30 8437 N 815.911 -0.310526 1.54511 0
M  V30 8438 C 817.157 -1.04846 1.73595 0
M  V30 8439 C 817.49 -1.87244 0.515118 0
M  V30 8440 O 816.765 -1.88282 -0.48786 0
M  V30 8441 C 817.048 -1.96237 3.01932 0
M  V30 8442 C 816.901 -1.17082 4.34295 0
M  V30 8443 C 818.22 -2.9556 3.26086 0
M  V30 8444 H 815.339 -0.37976 0.631626 0
M  V30 8445 H 817.981 -0.32394 1.87218 0
M  V30 8446 H 816.131 -2.58015 2.90449 0
M  V30 8447 H 817.803 -0.576643 4.57682 0
M  V30 8448 H 816.046 -0.473336 4.3121 0
M  V30 8449 H 816.717 -1.84257 5.20339 0
M  V30 8450 H 819.193 -2.43908 3.37117 0
M  V30 8451 H 818.069 -3.5668 4.17218 0
M  V30 8452 H 818.33 -3.68715 2.4393 0
M  V30 8453 N 817.389 -1.46805 -0.573248 0
M  V30 8454 C 818.614 -1.56433 -1.36175 0
M  V30 8455 C 819.039 -0.209336 -1.86932 0
M  V30 8456 O 818.397 0.812146 -1.62092 0
M  V30 8457 C 818.445 -2.58055 -2.51873 0
M  V30 8458 O 817.549 -2.12214 -3.53609 0
M  V30 8459 H 816.89 -0.526068 -0.405153 0
M  V30 8460 H 819.42 -1.92456 -0.694405 0
M  V30 8461 H 819.43 -2.77966 -2.98662 0
M  V30 8462 H 818.105 -3.56448 -2.14284 0
M  V30 8463 H 816.682 -2.02333 -3.13234 0
M  V30 8464 N 818.867 0.818669 -1.34668 0
M  V30 8465 C 820.115 1.57201 -1.27013 0
M  V30 8466 C 820.436 1.94354 0.158599 0
M  V30 8467 O 819.706 1.62626 1.09223 0
M  V30 8468 H 818.286 0.582919 -0.467135 0
M  V30 8469 H 820.948 0.977234 -1.6863 0
M  V30 8470 H 820.044 2.49291 -1.87778 0
M  V30 8471 N 820.346 1.18468 1.03938 0
M  V30 8472 C 821.571 1.00638 1.81347 0
M  V30 8473 C 821.996 -0.440477 1.8287 0
M  V30 8474 O 821.354 -1.31609 1.24695 0
M  V30 8475 C 821.402 1.5673 3.24759 0
M  V30 8476 O 820.506 0.789517 4.04772 0
M  V30 8477 H 819.847 0.356432 0.560225 0
M  V30 8478 H 822.377 1.57253 1.30891 0
M  V30 8479 H 822.387 1.59496 3.75533 0
M  V30 8480 H 821.062 2.62043 3.22965 0
M  V30 8481 H 819.639 0.834267 3.63448 0
M  V30 8482 N 821.824 -1.22873 0.986916 0
M  V30 8483 C 823.07 -1.91746 0.660401 0
M  V30 8484 C 823.403 -1.76738 -0.804812 0
M  V30 8485 O 822.678 -1.13246 -1.58131 0
M  V30 8486 C 822.961 -3.44156 1.05966 0
M  V30 8487 C 822.814 -3.68242 2.58298 0
M  V30 8488 C 824.133 -4.35874 0.60842 0
M  V30 8489 H 821.252 -0.696347 0.241391 0
M  V30 8490 H 823.894 -1.44867 1.22937 0
M  V30 8491 H 822.044 -3.84213 0.575534 0
M  V30 8492 H 823.716 -3.37626 3.14335 0
M  V30 8493 H 821.959 -3.12728 3.00638 0
M  V30 8494 H 822.63 -4.74956 2.81285 0
M  V30 8495 H 825.106 -4.03299 1.02417 0
M  V30 8496 H 823.982 -5.41201 0.916142 0
M  V30 8497 H 824.243 -4.39364 -0.491086 0
M  V30 8498 N 823.302 -0.75937 -1.38099 0
M  V30 8499 C 824.548 -0.318584 -2.00282 0
M  V30 8500 C 824.881 1.09854 -1.60143 0
M  V30 8501 O 824.156 1.75344 -0.841702 0
M  V30 8502 C 824.439 -0.448047 -3.57302 0
M  V30 8503 C 824.292 -1.9067 -4.07388 0
M  V30 8504 C 825.611 0.155119 -4.39827 0
M  V30 8505 H 822.73 -0.117233 -0.727616 0
M  V30 8506 H 825.372 -0.960097 -1.63958 0
M  V30 8507 H 823.522 0.0981003 -3.88376 0
M  V30 8508 H 825.194 -2.5116 -3.86932 0
M  V30 8509 H 823.437 -2.41979 -3.6004 0
M  V30 8510 H 824.108 -1.94841 -5.1647 0
M  V30 8511 H 826.584 -0.31073 -4.14938 0
M  V30 8512 H 825.46 0.0343264 -5.48889 0
M  V30 8513 H 825.721 1.24407 -4.24235 0
M  V30 8514 N 824.78 1.49157 -0.508906 0
M  V30 8515 C 825.71 2.32109 0.254469 0
M  V30 8516 C 826.691 1.40754 0.955111 0
M  V30 8517 O 827.876 1.69658 0.944983 0
M  V30 8518 C 825.006 3.21458 1.3146 0
M  V30 8519 C 823.96 4.2167 0.733368 0
M  V30 8520 C 823.286 5.00009 1.8946 0
M  V30 8521 C 824.586 5.21544 -0.280875 0
M  V30 8522 H 826.28 2.9618 -0.43795 0
M  V30 8523 H 823.826 1.4243 -0.212062 0
M  V30 8524 H 825.779 3.78305 1.85643 0
M  V30 8525 H 824.503 2.55346 2.03632 0
M  V30 8526 H 823.162 3.65979 0.213231 0
M  V30 8527 H 822.81 4.30338 2.60419 0
M  V30 8528 H 822.51 5.67821 1.51173 0
M  V30 8529 H 824.034 5.59702 2.44061 0
M  V30 8530 H 825.448 5.73039 0.173095 0
M  V30 8531 H 823.845 5.97291 -0.580006 0
M  V30 8532 H 824.915 4.69969 -1.19404 0
M  V30 8533 N 826.258 0.243083 1.55714 0
M  V30 8534 C 827.504 -0.383287 1.99145 0
M  V30 8535 C 827.837 -1.57868 1.13098 0
M  V30 8536 O 827.112 -1.93535 0.193509 0
M  V30 8537 C 827.395 -0.796879 3.51172 0
M  V30 8538 C 827.248 0.403642 4.47985 0
M  V30 8539 C 828.567 -1.64525 4.08191 0
M  V30 8540 H 825.686 -0.137843 0.723995 0
M  V30 8541 H 828.328 0.343631 1.86867 0
M  V30 8542 H 826.478 -1.41625 3.61766 0
M  V30 8543 H 828.15 1.04204 4.49376 0
M  V30 8544 H 826.393 1.04741 4.20965 0
M  V30 8545 H 827.064 0.0709794 5.51954 0
M  V30 8546 H 829.54 -1.12246 4.00674 0
M  V30 8547 H 828.416 -1.9035 5.14838 0
M  V30 8548 H 828.677 -2.61582 3.56409 0
M  V30 8549 N 827.736 -1.57571 -0.0300757 0
M  V30 8550 C 828.982 -1.89506 -0.722159 0
M  V30 8551 C 829.315 -0.840699 -1.7506 0
M  V30 8552 O 828.59 0.144358 -1.93964 0
M  V30 8553 C 828.873 -3.32081 -1.39262 0
M  V30 8554 C 828.726 -4.48211 -0.377768 0
M  V30 8555 C 830.045 -3.73557 -2.32687 0
M  V30 8556 H 827.164 -0.689213 -0.261064 0
M  V30 8557 H 829.806 -1.89994 0.0150388 0
M  V30 8558 H 827.956 -3.31796 -2.02098 0
M  V30 8559 H 829.628 -4.6063 0.248591 0
M  V30 8560 H 827.871 -4.3274 0.303045 0
M  V30 8561 H 828.542 -5.44854 -0.885347 0
M  V30 8562 H 831.018 -3.75202 -1.79896 0
M  V30 8563 H 829.894 -4.74125 -2.7658 0
M  V30 8564 H 830.155 -3.05759 -3.19317 0
M  V30 8565 N 829.214 0.302327 -1.54673 0
M  V30 8566 C 830.463 1.03533 -1.73101 0
M  V30 8567 C 830.776 1.88473 -0.523174 0
M  V30 8568 O 831.982 2.65029 -0.589229 0
M  V30 8569 C 830.438 1.89043 -3.06252 0
M  V30 8570 C 830.046 1.09112 -4.3451 0
M  V30 8571 C 831.79 2.61951 -3.34039 0
M  V30 8572 C 829.697 1.93891 -5.58713 0
M  V30 8573 H 828.627 0.390261 -0.645145 0
M  V30 8574 H 831.278 0.2924 -1.81155 0
M  V30 8575 H 829.66 2.67319 -2.92159 0
M  V30 8576 H 830.834 0.354596 -4.59434 0
M  V30 8577 H 829.149 0.477923 -4.13648 0
M  V30 8578 H 831.746 3.25729 -4.24033 0
M  V30 8579 H 832.089 3.30711 -2.52855 0
M  V30 8580 H 832.622 1.90725 -3.49097 0
M  V30 8581 H 829.361 1.29604 -6.4256 0
M  V30 8582 H 828.881 2.6522 -5.37976 0
M  V30 8583 H 830.56 2.51971 -5.95919 0
M  V30 8584 N 830.692 1.47107 0.565454 0
M  V30 8585 C 831.622 1.61846 1.68309 0
M  V30 8586 C 832.603 0.468159 1.63531 0
M  V30 8587 O 833.788 0.696504 1.8128 0
M  V30 8588 C 830.918 1.62474 3.06952 0
M  V30 8589 C 829.872 2.76649 3.26572 0
M  V30 8590 C 829.198 2.62345 4.65917 0
M  V30 8591 C 830.498 4.18319 3.12741 0
M  V30 8592 H 832.192 2.55407 1.5623 0
M  V30 8593 H 829.738 1.22916 0.750179 0
M  V30 8594 H 831.691 1.71378 3.84977 0
M  V30 8595 H 830.415 0.654692 3.19971 0
M  V30 8596 H 829.074 2.67242 2.50952 0
M  V30 8597 H 828.722 1.63386 4.75725 0
M  V30 8598 H 828.422 3.38936 4.79996 0
M  V30 8599 H 829.946 2.73165 5.46089 0
M  V30 8600 H 831.36 4.28745 3.80593 0
M  V30 8601 H 829.757 4.95632 3.38333 0
M  V30 8602 H 830.827 4.37263 2.09592 0
M  V30 8603 N 832.17 -0.811516 1.35101 0
M  V30 8604 C 833.419 -1.56343 1.27435 0
M  V30 8605 C 833.732 -1.95019 -0.150696 0
M  V30 8606 O 834.938 -2.6924 -0.349586 0
M  V30 8607 C 833.394 -2.82124 2.23459 0
M  V30 8608 C 833.002 -2.50706 3.71283 0
M  V30 8609 C 834.746 -3.60137 2.24726 0
M  V30 8610 C 832.653 -3.72748 4.59143 0
M  V30 8611 H 831.583 -0.58682 0.473453 0
M  V30 8612 H 834.234 -0.892465 1.60335 0
M  V30 8613 H 832.616 -3.50905 1.83525 0
M  V30 8614 H 833.79 -1.89962 4.19823 0
M  V30 8615 H 832.105 -1.85947 3.72576 0
M  V30 8616 H 834.702 -4.50775 2.87587 0
M  V30 8617 H 835.045 -3.97101 1.24965 0
M  V30 8618 H 835.578 -2.98311 2.63164 0
M  V30 8619 H 832.317 -3.40896 5.59884 0
M  V30 8620 H 831.837 -4.32735 4.15332 0
M  V30 8621 H 833.516 -4.40033 4.74321 0
M  V30 8622 N 833.648 -1.19017 -1.03309 0
M  V30 8623 C 834.611 -0.926076 -2.09658 0
M  V30 8624 C 835.611 0.0917077 -1.60538 0
M  V30 8625 O 836.801 -0.142574 -1.73616 0
M  V30 8626 C 833.933 -0.390958 -3.38651 0
M  V30 8627 H 835.126 -1.86923 -2.3452 0
M  V30 8628 H 832.679 -1.00325 -1.19853 0
M  V30 8629 H 833.414 0.558446 -3.19456 0
M  V30 8630 H 833.199 -1.12474 -3.75622 0
M  V30 8631 H 834.689 -0.225131 -4.16993 0
M  V30 8632 N 835.127 1.22348 -0.993418 0
M  V30 8633 C 836.09 2.22522 -0.549251 0
M  V30 8634 C 837.09 1.56529 0.368164 0
M  V30 8635 O 838.28 1.73463 0.16005 0
M  V30 8636 C 835.412 3.40307 0.201037 0
M  V30 8637 H 836.605 2.63332 -1.43515 0
M  V30 8638 H 834.158 1.35407 -0.78068 0
M  V30 8639 H 834.893 3.0497 1.10289 0
M  V30 8640 H 834.678 3.8942 -0.457685 0
M  V30 8641 H 836.168 4.14597 0.499946 0
M  V30 8642 N 836.605 0.766683 1.37694 0
M  V30 8643 C 837.852 0.328714 1.99814 0
M  V30 8644 C 838.18 -1.09333 1.60862 0
M  V30 8645 O 837.435 -1.7657 0.8439 0
M  V30 8646 C 837.734 0.413831 3.54996 0
M  V30 8647 C 837.4 1.7934 4.137 0
M  V30 8648 C 836.062 2.17092 4.29447 0
M  V30 8649 C 838.414 2.69776 4.45949 0
M  V30 8650 C 835.742 3.44726 4.74743 0
M  V30 8651 C 838.094 3.96814 4.92667 0
M  V30 8652 C 836.758 4.34618 5.0662 0
M  V30 8653 H 836.028 0.120285 0.731172 0
M  V30 8654 H 838.675 0.97972 1.64541 0
M  V30 8655 H 836.98 -0.320723 3.90485 0
M  V30 8656 H 838.677 0.0563369 4.0096 0
M  V30 8657 H 835.267 1.48997 4.01868 0
M  V30 8658 H 839.451 2.41871 4.33373 0
M  V30 8659 H 834.707 3.73917 4.83731 0
M  V30 8660 H 838.881 4.67022 5.16588 0
M  V30 8661 H 836.508 5.33578 5.41478 0
M  V30 8662 N 838.083 -1.48885 0.516809 0
M  V30 8663 C 839.329 -2.02788 -0.0220928 0
M  V30 8664 C 839.662 -1.39433 -1.35175 0
M  V30 8665 O 838.937 -0.535459 -1.86984 0
M  V30 8666 C 839.22 -3.59753 -0.158012 0
M  V30 8667 C 839.073 -4.33611 1.19588 0
M  V30 8668 C 840.392 -4.30984 -0.891133 0
M  V30 8669 H 837.511 -0.736971 -0.00655488 0
M  V30 8670 H 840.153 -1.77746 0.671287 0
M  V30 8671 H 838.303 -3.8122 -0.748568 0
M  V30 8672 H 839.975 -4.23598 1.82653 0
M  V30 8673 H 838.218 -3.95547 1.78116 0
M  V30 8674 H 838.889 -5.41846 1.05391 0
M  V30 8675 H 841.365 -4.14267 -0.39012 0
M  V30 8676 H 840.241 -5.40527 -0.955107 0
M  V30 8677 H 840.502 -3.97336 -1.93847 0
M  V30 8678 N 839.561 -0.251338 -1.55583 0
M  V30 8679 C 840.81 0.372681 -1.98227 0
M  V30 8680 C 841.123 1.58743 -1.1428 0
M  V30 8681 O 842.329 2.28289 -1.46957 0
M  V30 8682 C 840.785 0.714439 -3.52738 0
M  V30 8683 C 840.393 -0.479168 -4.4543 0
M  V30 8684 C 842.137 1.3024 -4.04027 0
M  V30 8685 C 840.044 -0.113318 -5.91291 0
M  V30 8686 H 838.974 0.14302 -0.740312 0
M  V30 8687 H 841.625 -0.352253 -1.80087 0
M  V30 8688 H 840.007 1.49762 -3.66589 0
M  V30 8689 H 841.181 -1.25644 -4.4334 0
M  V30 8690 H 839.496 -0.982359 -4.04646 0
M  V30 8691 H 842.093 1.58953 -5.10527 0
M  V30 8692 H 842.436 2.22837 -3.51638 0
M  V30 8693 H 842.969 0.582024 -3.93519 0
M  V30 8694 H 839.708 -1.00654 -6.47726 0
M  V30 8695 H 839.228 0.627666 -5.96507 0
M  V30 8696 H 840.907 0.30293 -6.4629 0
M  V30 8697 N 841.039 1.57585 0.0217189 0
M  V30 8698 C 842.264 1.94267 0.726309 0
M  V30 8699 C 842.689 0.851904 1.67703 0
M  V30 8700 O 842.047 -0.191792 1.80283 0
M  V30 8701 C 842.095 3.30023 1.45318 0
M  V30 8702 O 841.199 3.22791 2.5667 0
M  V30 8703 H 840.54 0.634777 0.194818 0
M  V30 8704 H 843.07 2.04585 -0.0249985 0
M  V30 8705 H 843.08 3.65084 1.82147 0
M  V30 8706 H 841.755 4.08972 0.755962 0
M  V30 8707 H 840.332 2.99373 2.2233 0
M  V30 8708 N 842.517 -0.29412 1.54831 0
M  V30 8709 C 843.933 -0.640167 1.46199 0
M  V30 8710 C 844.133 -1.90426 0.658798 0
M  V30 8711 O 843.189 -2.51932 0.169228 0
M  V30 8712 C 844.502 -0.786763 2.90225 0
M  V30 8713 C 846.05 -0.882201 3.0031 0
M  V30 8714 C 846.525 -1.06074 4.45547 0
M  V30 8715 N 848.016 -1.12678 4.49286 0
M  V30 8716 C 848.751 -1.28334 5.58854 0
M  V30 8717 N 848.247 -1.40845 6.78332 0
M  V30 8718 N 850.04 -1.31277 5.46555 0
M  V30 8719 H 842.191 0.536334 2.05517 0
M  V30 8720 H 844.454 0.178363 0.93107 0
M  V30 8721 H 844.16 0.0713018 3.51628 0
M  V30 8722 H 844.034 -1.67364 3.38037 0
M  V30 8723 H 846.421 -1.73075 2.39017 0
M  V30 8724 H 846.502 0.0288405 2.55784 0
M  V30 8725 H 846.146 -0.216935 5.07437 0
M  V30 8726 H 846.076 -1.98611 4.8771 0
M  V30 8727 H 848.567 -1.04335 3.63212 0
M  V30 8728 H 848.88 -1.52566 7.57591 0
M  V30 8729 H 847.225 -1.37888 6.81184 0
M  V30 8730 H 850.416 -1.2112 4.52159 0
M  V30 8731 H 850.589 -1.43136 6.31994 0
M  V30 8732 N 843.995 -1.47404 -0.557645 0
M  V30 8733 C 845.411 -1.32913 -0.88353 0
M  V30 8734 C 845.611 -0.31929 -1.98954 0
M  V30 8735 O 844.667 0.26934 -2.51059 0
M  V30 8736 C 845.98 -2.72229 -1.27718 0
M  V30 8737 C 847.528 -2.8051 -1.38863 0
M  V30 8738 C 848.003 -4.20466 -1.81583 0
M  V30 8739 N 849.494 -4.23005 -1.88735 0
M  V30 8740 C 850.229 -5.2821 -2.23118 0
M  V30 8741 N 849.725 -6.4372 -2.56117 0
M  V30 8742 N 851.518 -5.15588 -2.23888 0
M  V30 8743 H 843.669 -2.11698 0.172557 0
M  V30 8744 H 845.932 -0.947889 0.0145334 0
M  V30 8745 H 845.638 -3.47556 -0.538329 0
M  V30 8746 H 845.512 -3.03971 -2.23342 0
M  V30 8747 H 847.899 -2.05457 -2.11829 0
M  V30 8748 H 847.98 -2.52423 -0.414274 0
M  V30 8749 H 847.624 -4.96025 -1.09187 0
M  V30 8750 H 847.554 -4.45977 -2.80021 0
M  V30 8751 H 850.045 -3.39674 -1.65621 0
M  V30 8752 H 850.358 -7.19754 -2.81378 0
M  V30 8753 H 848.703 -6.47041 -2.53698 0
M  V30 8754 H 851.894 -4.24374 -1.97546 0
M  V30 8755 H 852.067 -5.97685 -2.50353 0
M  V30 8756 N 845.473 0.80434 -1.35529 0
M  V30 8757 C 846.889 1.10023 -1.15616 0
M  V30 8758 C 847.089 2.01478 0.0298535 0
M  V30 8759 O 846.145 2.42609 0.699778 0
M  V30 8760 C 847.458 1.72905 -2.46017 0
M  V30 8761 C 849.006 1.85315 -2.52245 0
M  V30 8762 C 849.481 2.51612 -3.82695 0
M  V30 8763 N 850.972 2.59095 -3.83958 0
M  V30 8764 C 851.707 3.11167 -4.81625 0
M  V30 8765 N 851.203 3.63659 -5.89681 0
M  V30 8766 N 852.996 3.09741 -4.6906 0
M  V30 8767 H 845.147 0.196428 -2.1149 0
M  V30 8768 H 847.41 0.149735 -0.9361 0
M  V30 8769 H 847.116 1.13171 -3.32994 0
M  V30 8770 H 846.99 2.72579 -2.6073 0
M  V30 8771 H 849.377 2.44191 -1.65695 0
M  V30 8772 H 849.458 0.844886 -2.41444 0
M  V30 8773 H 849.102 1.93385 -4.69643 0
M  V30 8774 H 849.032 3.5298 -3.90785 0
M  V30 8775 H 851.523 2.21908 -3.05884 0
M  V30 8776 H 851.836 4.01699 -6.60195 0
M  V30 8777 H 850.181 3.61852 -5.9337 0
M  V30 8778 H 853.372 2.68011 -3.83781 0
M  V30 8779 H 853.545 3.50016 -5.45338 0
M  V30 8780 N 846.951 1.19563 1.02676 0
M  V30 8781 C 848.176 1.02556 1.80269 0
M  V30 8782 C 848.601 -0.421056 1.83327 0
M  V30 8783 O 847.959 -1.30279 1.26084 0
M  V30 8784 C 848.007 1.60165 3.23078 0
M  V30 8785 O 847.111 0.832404 4.03912 0
M  V30 8786 H 846.452 0.362354 0.556413 0
M  V30 8787 H 848.982 1.58633 1.29216 0
M  V30 8788 H 848.992 1.6347 3.7382 0
M  V30 8789 H 847.667 2.65454 3.20167 0
M  V30 8790 H 846.244 0.872768 3.62543 0
M  V30 8791 N 848.429 -1.21819 0.999893 0
M  V30 8792 C 849.376 -2.24003 0.556005 0
M  V30 8793 C 850.346 -1.60825 -0.415287 0
M  V30 8794 O 851.531 -1.88123 -0.318481 0
M  V30 8795 C 848.671 -3.44904 -0.116289 0
M  V30 8796 C 847.784 -4.22573 0.897574 0
M  V30 8797 C 846.919 -5.30831 0.198073 0
M  V30 8798 C 845.958 -6.00225 1.19983 0
M  V30 8799 N 845.095 -7.00111 0.528157 0
M  V30 8800 H 849.935 -2.61334 1.43208 0
M  V30 8801 H 847.472 -1.28431 0.717205 0
M  V30 8802 H 849.43 -4.13908 -0.523055 0
M  V30 8803 H 848.06 -3.08315 -0.956108 0
M  V30 8804 H 847.112 -3.52797 1.42262 0
M  V30 8805 H 848.424 -4.70363 1.66013 0
M  V30 8806 H 847.578 -6.06121 -0.265065 0
M  V30 8807 H 846.317 -4.84033 -0.596924 0
M  V30 8808 H 845.322 -5.23711 1.67353 0
M  V30 8809 H 846.547 -6.4911 1.99582 0
M  V30 8810 H 844.493 -6.55534 -0.247276 0
M  V30 8811 H 844.41 -7.45943 1.22904 0
M  V30 8812 H 845.678 -7.7945 0.0880543 0
M  V30 8813 N 849.908 -0.773975 -1.37286 0
M  V30 8814 C 851.138 -0.350249 -2.03609 0
M  V30 8815 C 851.546 1.03313 -1.58502 0
M  V30 8816 O 850.889 1.67118 -0.7627 0
M  V30 8817 C 850.951 -0.317215 -3.58098 0
M  V30 8818 C 850.615 -1.64556 -4.26345 0
M  V30 8819 C 851.612 -2.59839 -4.50311 0
M  V30 8820 C 849.297 -1.92061 -4.64131 0
M  V30 8821 C 851.291 -3.80833 -5.11122 0
M  V30 8822 C 848.978 -3.13325 -5.24663 0
M  V30 8823 C 849.976 -4.0753 -5.48095 0
M  V30 8824 O 849.664 -5.26658 -6.0736 0
M  V30 8825 H 849.396 -0.144456 -0.660385 0
M  V30 8826 H 851.95 -1.0496 -1.76557 0
M  V30 8827 H 850.18 0.438528 -3.84205 0
M  V30 8828 H 851.869 0.0797428 -4.05822 0
M  V30 8829 H 852.635 -2.39872 -4.21529 0
M  V30 8830 H 848.514 -1.19562 -4.45226 0
M  V30 8831 H 852.058 -4.54377 -5.29327 0
M  V30 8832 H 847.955 -3.33177 -5.52869 0
M  V30 8833 H 848.723 -5.27513 -6.25837 0
M  V30 8834 N 851.386 1.48609 -0.524698 0
M  V30 8835 C 852.611 2.07398 0.00952139 0
M  V30 8836 C 853.036 1.37939 1.27884 0
M  V30 8837 O 852.394 0.443633 1.75788 0
M  V30 8838 C 852.442 3.59916 0.221956 0
M  V30 8839 O 851.546 3.91647 1.29175 0
M  V30 8840 H 850.887 0.662981 -0.0367729 0
M  V30 8841 H 853.417 1.91092 -0.7311 0
M  V30 8842 H 853.427 4.05552 0.446236 0
M  V30 8843 H 852.102 4.09876 -0.705306 0
M  V30 8844 H 850.679 3.57796 1.05055 0
M  V30 8845 N 852.864 0.259585 1.55447 0
M  V30 8846 C 853.811 -0.634578 2.21905 0
M  V30 8847 C 854.781 -1.16168 1.18719 0
M  V30 8848 O 855.966 -1.21383 1.4721 0
M  V30 8849 C 853.106 -1.82005 2.93203 0
M  V30 8850 C 852.219 -1.32828 4.11073 0
M  V30 8851 C 851.354 -2.47431 4.70055 0
M  V30 8852 C 850.393 -1.95179 5.80148 0
M  V30 8853 N 849.53 -3.03197 6.33258 0
M  V30 8854 H 854.37 -0.0611886 2.97937 0
M  V30 8855 H 851.907 -0.0184378 1.47088 0
M  V30 8856 H 853.865 -2.51664 3.32748 0
M  V30 8857 H 852.495 -2.36571 2.19622 0
M  V30 8858 H 851.547 -0.525301 3.76756 0
M  V30 8859 H 852.859 -0.905435 4.90513 0
M  V30 8860 H 852.013 -3.25111 5.12238 0
M  V30 8861 H 850.752 -2.93023 3.89857 0
M  V30 8862 H 849.757 -1.15974 5.37429 0
M  V30 8863 H 850.982 -1.50541 6.62204 0
M  V30 8864 H 848.928 -3.48199 5.55961 0
M  V30 8865 H 848.845 -2.65282 7.07928 0
M  V30 8866 H 850.113 -3.80898 6.80101 0
M  V30 8867 N 854.342 -1.57594 -0.0133615 0
M  V30 8868 C 855.305 -2.06534 -0.993799 0
M  V30 8869 C 856.305 -0.972267 -1.28077 0
M  V30 8870 O 857.495 -1.23537 -1.22818 0
M  V30 8871 C 854.627 -2.49554 -2.3224 0
M  V30 8872 H 855.82 -2.94419 -0.570741 0
M  V30 8873 H 853.373 -1.54113 -0.260546 0
M  V30 8874 H 854.108 -1.64872 -2.79263 0
M  V30 8875 H 853.893 -3.29371 -2.12737 0
M  V30 8876 H 855.383 -2.8779 -3.026 0
M  V30 8877 N 855.82 0.285905 -1.54985 0
M  V30 8878 C 856.767 1.35306 -1.86978 0
M  V30 8879 C 857.737 1.49682 -0.720046 0
M  V30 8880 O 858.922 1.64297 -0.970107 0
M  V30 8881 C 856.062 2.71059 -2.13591 0
M  V30 8882 C 855.175 2.6501 -3.41165 0
M  V30 8883 C 854.31 3.92856 -3.57544 0
M  V30 8884 C 853.349 3.81266 -4.78855 0
M  V30 8885 N 852.486 5.00919 -4.9196 0
M  V30 8886 H 857.326 1.07323 -2.78003 0
M  V30 8887 H 854.863 0.518776 -1.37649 0
M  V30 8888 H 856.821 3.50026 -2.27019 0
M  V30 8889 H 855.451 2.97271 -1.25816 0
M  V30 8890 H 854.503 1.77824 -3.36278 0
M  V30 8891 H 855.815 2.52342 -4.30262 0
M  V30 8892 H 854.969 4.80263 -3.70718 0
M  V30 8893 H 853.708 4.08377 -2.66608 0
M  V30 8894 H 852.713 2.92243 -4.65698 0
M  V30 8895 H 853.938 3.67277 -5.71213 0
M  V30 8896 H 851.884 5.16875 -4.03951 0
M  V30 8897 H 851.801 4.90732 -5.75081 0
M  V30 8898 H 853.069 5.89935 -5.09507 0
M  V30 8899 N 857.298 1.47698 0.54982 0
M  V30 8900 C 858.23 1.56806 1.67166 0
M  V30 8901 C 859.243 0.453709 1.5635 0
M  V30 8902 O 860.432 0.723663 1.63173 0
M  V30 8903 C 857.532 1.4632 3.05686 0
M  V30 8904 C 856.705 2.72452 3.42182 0
M  V30 8905 C 855.764 2.55698 4.59897 0
M  V30 8906 O 854.79 3.29534 4.64108 0
M  V30 8907 N 855.992 1.64009 5.56849 0
M  V30 8908 H 858.757 2.53545 1.59797 0
M  V30 8909 H 856.318 1.44171 0.736635 0
M  V30 8910 H 858.31 1.32835 3.82279 0
M  V30 8911 H 856.88 0.57634 3.07241 0
M  V30 8912 H 856.1 3.00644 2.54964 0
M  V30 8913 H 857.388 3.56172 3.63344 0
M  V30 8914 H 856.786 1.03186 5.5621 0
M  V30 8915 H 855.343 1.56473 6.3274 0
M  V30 8916 N 858.776 -0.797141 1.35954 0
M  V30 8917 C 859.686 -1.94088 1.31784 0
M  V30 8918 C 860.702 -1.72588 0.221227 0
M  V30 8919 O 861.878 -1.96256 0.452255 0
M  V30 8920 C 858.943 -3.28828 1.09878 0
M  V30 8921 C 858.004 -3.63158 2.28942 0
M  V30 8922 C 857.237 -4.91469 2.08072 0
M  V30 8923 O 857.46 -5.60616 1.05196 0
M  V30 8924 O 856.394 -5.24277 2.95664 0
M  V30 8925 H 860.22 -2.00554 2.28061 0
M  V30 8926 H 857.805 -0.936288 1.16422 0
M  V30 8927 H 859.687 -4.09473 0.995485 0
M  V30 8928 H 858.362 -3.23271 0.16659 0
M  V30 8929 H 857.269 -2.82851 2.44839 0
M  V30 8930 H 858.602 -3.7343 3.20641 0
M  V30 8931 N 860.254 -1.20106 -1.0204 0
M  V30 8932 C 861.217 -0.948261 -2.08664 0
M  V30 8933 C 862.217 0.0746753 -1.60627 0
M  V30 8934 O 863.407 -0.160981 -1.73455 0
M  V30 8935 C 860.539 -0.426854 -3.38217 0
M  V30 8936 H 861.732 -1.894 -2.32524 0
M  V30 8937 H 859.285 -1.0159 -1.18782 0
M  V30 8938 H 860.02 0.524532 -3.2003 0
M  V30 8939 H 859.805 -1.16451 -3.74408 0
M  V30 8940 H 861.295 -0.269346 -4.1673 0
M  V30 8941 N 861.732 1.21287 -1.00634 0
M  V30 8942 C 863.009 1.86 -0.605257 0
M  V30 8943 C 863.389 1.90139 0.917072 0
M  V30 8944 O 862.737 1.40169 1.80458 0
M  V30 8945 C 862.947 3.26183 -1.24119 0
M  V30 8946 C 864.295 4.02562 -1.35015 0
M  V30 8947 O 865.319 3.35499 -1.19661 0
M  V30 8948 O 864.178 5.22638 -1.59726 0
M  V30 8949 H 861.272 0.800549 -0.207486 0
M  V30 8950 H 863.818 1.28959 -1.10307 0
M  V30 8951 H 862.59 3.17878 -2.28186 0
M  V30 8952 H 862.213 3.90845 -0.729807 0
M  V30 8953 N 863.21 0.781244 1.36873 0
M  V30 8954 C 864.12 0.174981 2.33947 0
M  V30 8955 C 865.136 -0.668512 1.60645 0
M  V30 8956 O 866.312 -0.586213 1.9268 0
M  V30 8957 C 863.377 -0.686557 3.39834 0
M  V30 8958 C 862.438 0.174489 4.28945 0
M  V30 8959 C 861.671 -0.646024 5.29776 0
M  V30 8960 O 861.894 -1.88254 5.38439 0
M  V30 8961 O 860.828 -0.0502214 6.01879 0
M  V30 8962 H 864.654 0.977382 2.87543 0
M  V30 8963 H 862.239 0.542559 1.392 0
M  V30 8964 H 864.121 -1.1781 4.04597 0
M  V30 8965 H 862.796 -1.46699 2.8855 0
M  V30 8966 H 861.703 0.712604 3.6725 0
M  V30 8967 H 863.036 0.918232 4.83559 0
M  V30 8968 N 864.689 -1.48329 0.532571 0
M  V30 8969 C 865.599 -2.33445 -0.232546 0
M  V30 8970 C 866.615 -1.46651 -0.93645 0
M  V30 8971 O 867.791 -1.79627 -0.910834 0
M  V30 8972 C 864.856 -3.22824 -1.26434 0
M  V30 8973 C 863.917 -4.25492 -0.570511 0
M  V30 8974 C 863.15 -5.10601 -1.55315 0
M  V30 8975 O 863.373 -4.97733 -2.78599 0
M  V30 8976 O 862.307 -5.91927 -1.09112 0
M  V30 8977 H 866.133 -3.00119 0.464988 0
M  V30 8978 H 863.718 -1.46489 0.293462 0
M  V30 8979 H 865.6 -3.78103 -1.86055 0
M  V30 8980 H 864.275 -2.58807 -1.94424 0
M  V30 8981 H 863.182 -3.74041 0.0662587 0
M  V30 8982 H 864.515 -4.92154 0.0674904 0
M  V30 8983 N 866.167 -0.267825 -1.55308 0
M  V30 8984 C 867.114 0.6228 -2.22238 0
M  V30 8985 C 868.084 1.15536 -1.19334 0
M  V30 8986 O 869.269 1.206 -1.47852 0
M  V30 8987 C 866.409 1.80447 -2.94164 0
M  V30 8988 C 865.522 1.30646 -4.11771 0
M  V30 8989 C 864.657 2.44935 -4.7136 0
M  V30 8990 C 863.696 1.92099 -5.81175 0
M  V30 8991 N 862.833 2.99834 -6.34857 0
M  V30 8992 H 867.673 0.0453874 -2.97965 0
M  V30 8993 H 865.21 0.0106371 -1.47096 0
M  V30 8994 H 867.168 2.49896 -3.34078 0
M  V30 8995 H 865.798 2.35403 -2.20874 0
M  V30 8996 H 864.85 0.505314 -3.77029 0
M  V30 8997 H 866.162 0.879409 -4.90987 0
M  V30 8998 H 865.316 3.2239 -5.13955 0
M  V30 8999 H 864.055 2.90951 -3.91406 0
M  V30 9000 H 863.06 1.13122 -5.38037 0
M  V30 9001 H 864.285 1.47027 -6.62993 0
M  V30 9002 H 862.231 3.45246 -5.578 0
M  V30 9003 H 862.148 2.61524 -7.09324 0
M  V30 9004 H 863.416 3.77286 -6.82111 0
M  V30 9005 N 867.645 1.57599 0.00500368 0
M  V30 9006 C 868.595 2.04585 1.00643 0
M  V30 9007 C 869.579 0.939622 1.30614 0
M  V30 9008 O 870.771 1.20342 1.29796 0
M  V30 9009 C 867.9 2.5486 2.30002 0
M  V30 9010 C 866.986 3.7235 2.03017 0
M  V30 9011 N 867.377 4.84218 1.46173 0
M  V30 9012 C 865.675 3.80185 2.33185 0
M  V30 9013 C 866.376 5.65688 1.35544 0
M  V30 9014 N 865.352 5.11536 1.83933 0
M  V30 9015 H 869.154 2.8849 0.561332 0
M  V30 9016 H 866.668 1.61026 0.210808 0
M  V30 9017 H 868.665 2.86794 3.0258 0
M  V30 9018 H 867.325 1.72372 2.75169 0
M  V30 9019 H 868.336 5.0517 1.1412 0
M  V30 9020 H 865.013 3.08543 2.81261 0
M  V30 9021 H 866.403 6.65588 0.918791 0
M  V30 9022 N 869.123 -0.277682 1.55134 0
M  V30 9023 C 870.053 -1.34742 1.90701 0
M  V30 9024 C 871.034 -1.51757 0.768354 0
M  V30 9025 O 872.219 -1.64879 1.02609 0
M  V30 9026 C 869.349 -2.70775 2.17481 0
M  V30 9027 C 868.303 -2.68497 3.33307 0
M  V30 9028 C 867.629 -4.08037 3.45557 0
M  V30 9029 C 868.929 -2.28178 4.69821 0
M  V30 9030 H 870.623 -1.05224 2.803 0
M  V30 9031 H 868.169 -0.504738 1.34864 0
M  V30 9032 H 870.122 -3.45719 2.40949 0
M  V30 9033 H 868.846 -3.01867 1.24676 0
M  V30 9034 H 867.505 -1.9601 3.09799 0
M  V30 9035 H 867.153 -4.36344 2.50226 0
M  V30 9036 H 866.853 -4.07409 4.23429 0
M  V30 9037 H 868.377 -4.84726 3.71312 0
M  V30 9038 H 869.791 -2.92843 4.92865 0
M  V30 9039 H 868.188 -2.3872 5.50575 0
M  V30 9040 H 869.258 -1.23308 4.6896 0
M  V30 9041 N 870.601 -1.47988 -0.541979 0
M  V30 9042 C 871.549 -1.62044 -1.66867 0
M  V30 9043 C 872.543 -0.487217 -1.62242 0
M  V30 9044 O 873.749 -0.66554 -1.67244 0
M  V30 9045 H 870.124 -0.51024 -0.552412 0
M  V30 9046 H 872.095 -2.56695 -1.52153 0
M  V30 9047 C 870.844 -1.66615 -3.0518 0
M  V30 9048 H 870.167 -2.5317 -3.09427 0
M  V30 9049 H 871.607 -1.80496 -3.83663 0
M  V30 9050 C 870.066 -0.402421 -3.34488 0
M  V30 9051 O 870.596 0.48992 -3.98701 0
M  V30 9052 N 868.802 -0.277778 -2.89269 0
M  V30 9053 H 868.349 -1.00488 -2.37192 0
M  V30 9054 H 868.307 0.566784 -3.09249 0
M  V30 9055 N 872.079 0.78992 -1.36375 0
M  V30 9056 C 873.011 1.91113 -1.26524 0
M  V30 9057 C 874.024 1.61747 -0.184851 0
M  V30 9058 O 875.213 1.73004 -0.439524 0
M  V30 9059 C 872.313 3.25908 -0.92937 0
M  V30 9060 C 871.486 3.83057 -2.11154 0
M  V30 9061 C 870.545 4.96289 -1.74881 0
M  V30 9062 O 869.571 5.12834 -2.46962 0
M  V30 9063 N 870.773 5.76478 -0.682193 0
M  V30 9064 H 873.538 2.00085 -2.23128 0
M  V30 9065 H 871.099 0.968165 -1.29762 0
M  V30 9066 H 873.091 3.99151 -0.667884 0
M  V30 9067 H 871.661 3.12556 -0.0524843 0
M  V30 9068 H 870.881 3.01808 -2.53586 0
M  V30 9069 H 872.169 4.1797 -2.90135 0
M  V30 9070 H 871.567 5.65638 -0.0836661 0
M  V30 9071 H 870.124 6.50026 -0.480529 0
M  V30 9072 N 873.557 1.20646 1.01402 0
M  V30 9073 C 874.805 1.01618 1.74695 0
M  V30 9074 C 875.126 -0.452438 1.89679 0
M  V30 9075 O 874.396 -1.32693 1.44116 0
M  V30 9076 H 872.976 0.373013 0.647202 0
M  V30 9077 H 875.638 1.518 1.22241 0
M  V30 9078 H 874.734 1.47666 2.74957 0
M  V30 9079 N 875.035 -1.20752 1.01276 0
M  V30 9080 C 876.281 -1.90302 0.700924 0
M  V30 9081 C 876.614 -1.78406 -0.767142 0
M  V30 9082 O 875.889 -1.16575 -1.55694 0
M  V30 9083 C 876.172 -3.41831 1.13242 0
M  V30 9084 C 876.025 -3.6268 2.66051 0
M  V30 9085 C 877.344 -4.34486 0.700738 0
M  V30 9086 H 874.463 -0.69107 0.256107 0
M  V30 9087 H 877.105 -1.42227 1.25982 0
M  V30 9088 H 875.255 -3.82906 0.656902 0
M  V30 9089 H 876.927 -3.30882 3.21426 0
M  V30 9090 H 875.17 -3.06281 3.07204 0
M  V30 9091 H 875.841 -4.68882 2.91296 0
M  V30 9092 H 878.317 -4.01036 1.10948 0
M  V30 9093 H 877.193 -5.39136 1.03073 0
M  V30 9094 H 877.454 -4.40307 -0.39778 0
M  V30 9095 N 876.513 -0.788492 -1.36457 0
M  V30 9096 C 877.929 -0.470063 -1.52521 0
M  V30 9097 C 878.129 1.01176 -1.74258 0
M  V30 9098 O 877.185 1.79726 -1.77355 0
M  V30 9099 C 878.498 -1.2997 -2.71161 0
M  V30 9100 C 880.046 -1.2933 -2.85031 0
M  V30 9101 C 880.521 -2.10665 -4.06674 0
M  V30 9102 N 882.012 -2.08107 -4.13819 0
M  V30 9103 C 882.747 -2.6781 -5.07016 0
M  V30 9104 N 882.243 -3.36369 -6.05663 0
M  V30 9105 N 884.036 -2.57549 -4.99625 0
M  V30 9106 H 876.187 -1.7484 -1.20602 0
M  V30 9107 H 878.45 -0.743159 -0.588574 0
M  V30 9108 H 878.156 -2.35051 -2.61618 0
M  V30 9109 H 878.03 -0.940367 -3.6529 0
M  V30 9110 H 880.417 -0.250414 -2.94036 0
M  V30 9111 H 880.498 -1.69239 -1.91812 0
M  V30 9112 H 880.142 -3.14984 -3.98431 0
M  V30 9113 H 880.072 -1.68128 -4.9904 0
M  V30 9114 H 882.563 -1.58208 -3.43189 0
M  V30 9115 H 882.876 -3.79258 -6.73338 0
M  V30 9116 H 881.221 -3.40471 -6.05891 0
M  V30 9117 H 884.412 -2.0359 -4.21508 0
M  V30 9118 H 884.585 -3.0437 -5.72069 0
M  V30 9119 N 877.991 1.48044 -0.54043 0
M  V30 9120 C 879.219 2.06895 -0.0145153 0
M  V30 9121 C 879.634 1.39552 1.27164 0
M  V30 9122 O 878.991 0.486454 1.75897 0
M  V30 9123 C 879.042 3.60934 0.202278 0
M  V30 9124 O 878.763 4.25749 -1.03293 0
M  V30 9125 C 880.264 4.36607 0.767387 0
M  V30 9126 H 877.484 0.66991 -0.0382368 0
M  V30 9127 H 880.028 1.90288 -0.749057 0
M  V30 9128 H 878.183 3.77111 0.886897 0
M  V30 9129 H 878.597 5.18048 -0.820167 0
M  V30 9130 H 880.071 5.45126 0.86845 0
M  V30 9131 H 880.548 4.01745 1.77477 0
M  V30 9132 H 881.154 4.25133 0.119002 0
M  V30 9133 N 879.47 0.276058 1.55163 0
M  V30 9134 C 880.7 -0.343274 2.03728 0
M  V30 9135 C 881.108 -1.49945 1.15383 0
M  V30 9136 O 880.451 -1.82942 0.166696 0
M  V30 9137 C 880.513 -0.885683 3.48419 0
M  V30 9138 C 880.177 0.141976 4.56779 0
M  V30 9139 C 881.174 0.961816 5.10926 0
M  V30 9140 C 878.859 0.276487 5.01538 0
M  V30 9141 C 880.853 1.90234 6.0835 0
M  V30 9142 C 878.54 1.22049 5.98788 0
M  V30 9143 C 879.538 2.03192 6.52075 0
M  V30 9144 O 879.226 2.95996 7.47423 0
M  V30 9145 H 878.958 -0.0822192 0.670981 0
M  V30 9146 H 881.512 0.406199 2.01343 0
M  V30 9147 H 879.742 -1.68524 3.48047 0
M  V30 9148 H 881.431 -1.4182 3.80318 0
M  V30 9149 H 882.197 0.868637 4.77158 0
M  V30 9150 H 878.076 -0.345095 4.59707 0
M  V30 9151 H 881.62 2.5361 6.49867 0
M  V30 9152 H 877.517 1.31448 6.31974 0
M  V30 9153 H 878.285 2.90688 7.65142 0
M  V30 9154 N 880.948 -1.576 0.00335426 0
M  V30 9155 C 882.194 -1.90996 -0.681799 0
M  V30 9156 C 882.527 -0.877643 -1.73237 0
M  V30 9157 O 881.802 0.103183 -1.94226 0
M  V30 9158 C 882.085 -3.34961 -1.32187 0
M  V30 9159 C 881.938 -4.48911 -0.28261 0
M  V30 9160 C 883.257 -3.78408 -2.24711 0
M  V30 9161 H 880.376 -0.694596 -0.246386 0
M  V30 9162 H 883.018 -1.89919 0.055336 0
M  V30 9163 H 881.168 -3.36008 -1.95014 0
M  V30 9164 H 882.84 -4.59999 0.346241 0
M  V30 9165 H 881.083 -4.32 0.394768 0
M  V30 9166 H 881.754 -5.46609 -0.769576 0
M  V30 9167 H 884.23 -3.78934 -1.71897 0
M  V30 9168 H 883.106 -4.79885 -2.66461 0
M  V30 9169 H 883.367 -3.12464 -3.1276 0
M  V30 9170 N 882.426 0.269451 -1.5528 0
M  V30 9171 C 883.703 1.02207 -1.66773 0
M  V30 9172 C 884.083 2.04168 -0.536536 0
M  V30 9173 O 883.431 2.23761 0.462956 0
M  V30 9174 C 883.641 1.67569 -3.0614 0
M  V30 9175 C 884.989 2.18599 -3.64005 0
M  V30 9176 O 886.013 1.7755 -3.08795 0
M  V30 9177 O 884.872 2.93903 -4.60742 0
M  V30 9178 H 881.966 0.474314 -0.677462 0
M  V30 9179 H 884.512 0.265026 -1.67618 0
M  V30 9180 H 883.284 0.937029 -3.79915 0
M  V30 9181 H 882.907 2.49951 -3.09209 0
M  V30 9182 N 883.904 1.48273 0.534124 0
M  V30 9183 C 885.315 1.49667 1.1161 0
M  V30 9184 C 885.666 0.264139 1.94414 0
M  V30 9185 O 884.791 -0.629084 2.07054 0
M  V30 9186 C 885.386 2.71191 2.03079 0
M  V30 9187 C 883.945 2.7547 2.56502 0
M  V30 9188 C 883.092 2.43119 1.33373 0
M  V30 9189 H 886.043 1.55449 0.319578 0
M  V30 9190 H 886.064 2.49473 2.87304 0
M  V30 9191 H 885.576 3.60879 1.42785 0
M  V30 9192 H 883.677 1.89979 3.20529 0
M  V30 9193 H 883.79 3.76787 2.95919 0
M  V30 9194 H 882.154 1.94187 1.64813 0
M  V30 9195 H 882.937 3.35044 0.748375 0
M  V30 9196 N 885.382 -0.782676 1.36792 0
M  V30 9197 C 886.629 -1.54083 1.31395 0
M  V30 9198 C 886.957 -1.94217 -0.104797 0
M  V30 9199 O 886.212 -1.63491 -1.0756 0
M  V30 9200 C 886.511 -2.82542 2.18872 0
M  V30 9201 C 886.177 -2.61512 3.67317 0
M  V30 9202 C 884.839 -2.55486 4.07775 0
M  V30 9203 C 887.191 -2.42389 4.61407 0
M  V30 9204 C 884.519 -2.28311 5.40454 0
M  V30 9205 C 886.871 -2.1674 5.94312 0
M  V30 9206 C 885.535 -2.09151 6.33887 0
M  V30 9207 H 884.805 -0.563829 0.48081 0
M  V30 9208 H 887.452 -0.902436 1.68903 0
M  V30 9209 H 885.757 -3.50883 1.74323 0
M  V30 9210 H 887.454 -3.40367 2.12017 0
M  V30 9211 H 884.044 -2.67062 3.35225 0
M  V30 9212 H 888.228 -2.46043 4.31018 0
M  V30 9213 H 883.484 -2.20922 5.70091 0
M  V30 9214 H 887.658 -2.0094 6.6678 0
M  V30 9215 H 885.285 -1.87857 7.36623 0
M  V30 9216 N 886.86 -1.21182 -1.00761 0
M  V30 9217 C 888.088 -1.05335 -1.78079 0
M  V30 9218 C 888.503 0.396988 -1.84579 0
M  V30 9219 O 887.86 1.27548 -1.30529 0
M  V30 9220 C 887.911 -1.64089 -3.22113 0
M  V30 9221 O 887.632 -3.03448 -3.15992 0
M  V30 9222 C 889.133 -1.53318 -4.15943 0
M  V30 9223 H 886.353 -0.37005 -0.559736 0
M  V30 9224 H 888.897 -1.60463 -1.26775 0
M  V30 9225 H 887.052 -1.13059 -3.70535 0
M  V30 9226 H 887.466 -3.31492 -4.06465 0
M  V30 9227 H 888.94 -1.99174 -5.14814 0
M  V30 9228 H 889.417 -0.487166 -4.3649 0
M  V30 9229 H 890.023 -2.03582 -3.73409 0
M  V30 9230 N 888.338 1.20213 -1.01915 0
M  V30 9231 C 889.568 1.93341 -0.728197 0
M  V30 9232 C 889.976 1.75151 0.715454 0
M  V30 9233 O 889.319 1.06437 1.49722 0
M  V30 9234 C 889.381 3.45677 -0.9873 0
M  V30 9235 C 889.045 3.8763 -2.42057 0
M  V30 9236 C 890.042 3.93184 -3.40151 0
M  V30 9237 C 887.727 4.19547 -2.76199 0
M  V30 9238 C 889.721 4.30069 -4.70446 0
M  V30 9239 C 887.408 4.56106 -4.06707 0
M  V30 9240 C 888.406 4.6134 -5.03641 0
M  V30 9241 O 888.094 4.97059 -6.31813 0
M  V30 9242 H 887.826 0.621258 -0.266485 0
M  V30 9243 H 890.38 1.53577 -1.36393 0
M  V30 9244 H 888.61 3.85578 -0.294405 0
M  V30 9245 H 890.299 4.00035 -0.687536 0
M  V30 9246 H 891.065 3.68687 -3.15111 0
M  V30 9247 H 886.944 4.14663 -2.01434 0
M  V30 9248 H 890.488 4.34069 -5.46105 0
M  V30 9249 H 886.385 4.80059 -4.31525 0
M  V30 9250 H 887.153 5.15043 -6.36139 0
M  V30 9251 N 889.816 0.795718 1.36037 0
M  V30 9252 C 890.726 0.199784 2.33748 0
M  V30 9253 C 891.742 -0.651436 1.61345 0
M  V30 9254 O 892.918 -0.565743 1.93291 0
M  V30 9255 C 889.983 -0.650475 3.40543 0
M  V30 9256 C 889.044 0.219974 4.28736 0
M  V30 9257 C 888.277 -0.589798 5.30431 0
M  V30 9258 O 888.5 -1.82532 5.40406 0
M  V30 9259 O 887.434 0.0136187 6.01898 0
M  V30 9260 H 891.26 1.00782 2.8649 0
M  V30 9261 H 888.845 0.557293 1.38617 0
M  V30 9262 H 890.727 -1.13512 4.05824 0
M  V30 9263 H 889.402 -1.4363 2.9009 0
M  V30 9264 H 888.309 0.751516 3.66474 0
M  V30 9265 H 889.642 0.969468 4.82558 0
M  V30 9266 N 891.294 -1.47756 0.548274 0
M  V30 9267 C 892.571 -1.9555 -0.0443603 0
M  V30 9268 C 892.951 -1.49079 -1.49462 0
M  V30 9269 O 892.299 -0.725538 -2.16675 0
M  V30 9270 C 892.509 -3.48879 0.0918425 0
M  V30 9271 C 893.857 -4.2456 -0.0580879 0
M  V30 9272 O 894.881 -3.56195 0.018946 0
M  V30 9273 O 893.74 -5.46048 -0.222261 0
M  V30 9274 H 890.834 -0.824106 -0.0691235 0
M  V30 9275 H 893.38 -1.58196 0.614166 0
M  V30 9276 H 892.152 -3.7548 1.10137 0
M  V30 9277 H 891.775 -3.92975 -0.604704 0
M  V30 9278 N 892.772 -0.284283 -1.55015 0
M  V30 9279 C 894.183 0.211681 -1.85496 0
M  V30 9280 C 894.534 1.54735 -1.2063 0
M  V30 9281 O 893.659 2.10594 -0.497918 0
M  V30 9282 C 894.254 0.390864 -3.36538 0
M  V30 9283 C 892.813 0.831055 -3.67111 0
M  V30 9284 C 891.96 -0.0703581 -2.77211 0
M  V30 9285 H 894.911 -0.505803 -1.50424 0
M  V30 9286 H 894.932 1.22803 -3.60138 0
M  V30 9287 H 894.444 -0.581409 -3.8372 0
M  V30 9288 H 892.545 1.81447 -3.25434 0
M  V30 9289 H 892.658 0.662026 -4.74504 0
M  V30 9290 H 891.022 0.447528 -2.50737 0
M  V30 9291 H 891.805 -1.03868 -3.2721 0
M  V30 9292 N 894.251 1.57596 -0.0117121 0
M  V30 9293 C 895.199 2.1029 0.994035 0
M  V30 9294 C 896.193 1.02549 1.34833 0
M  V30 9295 O 897.399 1.21003 1.3326 0
M  V30 9296 H 893.774 0.671624 0.338268 0
M  V30 9297 H 895.745 2.93761 0.524147 0
M  V30 9298 C 894.494 2.63099 2.27319 0
M  V30 9299 H 893.817 3.45642 2.00927 0
M  V30 9300 H 895.257 3.03635 2.95942 0
M  V30 9301 C 893.716 1.55044 2.99104 0
M  V30 9302 O 894.246 0.940127 3.90544 0
M  V30 9303 N 892.452 1.27506 2.61133 0
M  V30 9304 H 891.999 1.77322 1.86855 0
M  V30 9305 H 891.957 0.554292 3.09475 0
M  V30 9306 N 895.729 -0.261212 1.5542 0
M  V30 9307 C 896.661 -1.34571 1.85535 0
M  V30 9308 C 897.674 -1.44979 0.740612 0
M  V30 9309 O 898.863 -1.46584 1.01859 0
M  V30 9310 C 895.963 -2.7258 2.01378 0
M  V30 9311 C 895.136 -2.84618 3.32131 0
M  V30 9312 C 894.195 -4.03379 3.37893 0
M  V30 9313 O 893.221 -3.93581 4.11197 0
M  V30 9314 N 894.423 -5.15893 2.66148 0
M  V30 9315 H 897.188 -1.09078 2.79145 0
M  V30 9316 H 894.749 -0.451327 1.55482 0
M  V30 9317 H 896.741 -3.50342 2.0259 0
M  V30 9318 H 895.311 -2.90844 1.14579 0
M  V30 9319 H 894.531 -1.93647 3.43358 0
M  V30 9320 H 895.819 -2.896 4.18341 0
M  V30 9321 H 895.217 -5.26743 2.06297 0
M  V30 9322 H 893.774 -5.91842 2.73069 0
M  V30 9323 N 897.207 -1.48554 -0.526253 0
M  V30 9324 C 898.17 -1.62868 -1.61266 0
M  V30 9325 C 899.17 -0.501762 -1.52771 0
M  V30 9326 O 900.36 -0.76764 -1.56374 0
M  V30 9327 C 897.492 -1.60238 -3.00893 0
M  V30 9328 H 898.685 -2.59742 -1.49913 0
M  V30 9329 H 896.238 -1.37207 -0.748595 0
M  V30 9330 H 896.973 -0.648545 -3.17749 0
M  V30 9331 H 896.758 -2.42054 -3.08468 0
M  V30 9332 H 898.248 -1.73455 -3.79872 0
M  V30 9333 N 898.685 0.775411 -1.37205 0
M  V30 9334 C 899.931 1.53611 -1.32407 0
M  V30 9335 C 900.264 1.9398 0.0924103 0
M  V30 9336 O 899.539 1.63791 1.04893 0
M  V30 9337 C 899.822 2.80367 -2.25979 0
M  V30 9338 C 899.675 2.46275 -3.76389 0
M  V30 9339 C 900.994 3.82277 -2.18064 0
M  V30 9340 H 898.113 0.557278 -0.482297 0
M  V30 9341 H 900.755 0.889826 -1.67875 0
M  V30 9342 H 898.905 3.35515 -1.95862 0
M  V30 9343 H 900.577 1.9707 -4.17087 0
M  V30 9344 H 898.82 1.79023 -3.95137 0
M  V30 9345 H 899.491 3.36868 -4.37291 0
M  V30 9346 H 901.967 3.36613 -2.44604 0
M  V30 9347 H 900.843 4.68696 -2.85684 0
M  V30 9348 H 901.104 4.26272 -1.17239 0
M  V30 9349 N 900.163 1.21714 1.00117 0
M  V30 9350 C 901.579 0.97532 1.26332 0
M  V30 9351 C 901.779 -0.336029 1.98678 0
M  V30 9352 O 900.835 -1.06073 2.29139 0
M  V30 9353 C 902.148 2.16848 2.0832 0
M  V30 9354 C 903.696 2.21115 2.21533 0
M  V30 9355 C 904.171 3.3996 3.06906 0
M  V30 9356 N 905.662 3.40071 3.14494 0
M  V30 9357 C 906.397 4.28678 3.80818 0
M  V30 9358 N 905.893 5.2749 4.49139 0
M  V30 9359 N 907.686 4.16476 3.77497 0
M  V30 9360 H 899.837 2.06039 0.515897 0
M  V30 9361 H 902.1 0.902423 0.290408 0
M  V30 9362 H 901.806 3.119 1.62515 0
M  V30 9363 H 901.68 2.16226 3.09073 0
M  V30 9364 H 904.067 1.26616 2.66557 0
M  V30 9365 H 904.148 2.2578 1.20238 0
M  V30 9366 H 903.792 4.34755 2.62585 0
M  V30 9367 H 903.722 3.32534 4.08324 0
M  V30 9368 H 906.213 2.68563 2.65861 0
M  V30 9369 H 906.526 5.91397 4.97463 0
M  V30 9370 H 904.871 5.31412 4.47914 0
M  V30 9371 H 908.062 3.38539 3.23278 0
M  V30 9372 H 908.235 4.85739 4.28908 0
M  V30 9373 N 901.641 -1.19671 1.02551 0
M  V30 9374 C 902.551 -2.26441 0.613329 0
M  V30 9375 C 903.567 -1.70375 -0.353339 0
M  V30 9376 O 904.743 -2.0028 -0.212064 0
M  V30 9377 C 901.808 -3.46684 -0.0329028 0
M  V30 9378 C 900.869 -4.17945 0.980837 0
M  V30 9379 C 900.102 -5.32448 0.36535 0
M  V30 9380 O 900.325 -5.64291 -0.832596 0
M  V30 9381 O 899.259 -5.92012 1.08652 0
M  V30 9382 H 903.085 -2.63932 1.50246 0
M  V30 9383 H 900.67 -1.2646 0.795502 0
M  V30 9384 H 902.552 -4.1956 -0.393395 0
M  V30 9385 H 901.227 -3.1105 -0.896089 0
M  V30 9386 H 900.134 -3.47204 1.39286 0
M  V30 9387 H 901.467 -4.57542 1.81428 0
M  V30 9388 N 903.119 -0.802921 -1.35613 0
M  V30 9389 C 904.366 -0.381576 -1.98872 0
M  V30 9390 C 904.694 1.0503 -1.63704 0
M  V30 9391 O 903.949 1.7427 -0.890418 0
M  V30 9392 C 904.248 -0.507806 -3.53774 0
M  V30 9393 C 903.914 -1.90245 -4.088 0
M  V30 9394 C 902.576 -2.28401 -4.2354 0
M  V30 9395 C 904.928 -2.81504 -4.3864 0
M  V30 9396 C 902.256 -3.57192 -4.65436 0
M  V30 9397 C 904.608 -4.09737 -4.81973 0
M  V30 9398 C 903.272 -4.47897 -4.94919 0
M  V30 9399 H 902.542 -0.139629 -0.727726 0
M  V30 9400 H 905.189 -1.023 -1.61886 0
M  V30 9401 H 903.494 0.21708 -3.91198 0
M  V30 9402 H 905.191 -0.162625 -4.0067 0
M  V30 9403 H 901.781 -1.596 -3.97776 0
M  V30 9404 H 905.965 -2.53276 -4.26808 0
M  V30 9405 H 901.221 -3.86611 -4.73648 0
M  V30 9406 H 905.395 -4.80555 -5.04024 0
M  V30 9407 H 903.022 -5.47747 -5.27141 0
M  V30 9408 N 904.597 1.47463 -0.556102 0
M  V30 9409 C 905.56 2.28478 0.181743 0
M  V30 9410 C 906.56 1.36886 0.843738 0
M  V30 9411 O 907.75 1.59527 0.69977 0
M  V30 9412 C 904.882 3.16534 1.26566 0
M  V30 9413 H 906.075 2.95182 -0.529892 0
M  V30 9414 H 903.628 1.53134 -0.313005 0
M  V30 9415 H 904.363 2.5452 2.00973 0
M  V30 9416 H 904.148 3.83939 0.795798 0
M  V30 9417 H 905.638 3.77579 1.78393 0
M  V30 9418 N 906.075 0.2925 1.54862 0
M  V30 9419 C 907.022 -0.587365 2.23201 0
M  V30 9420 C 907.992 -1.13623 1.21157 0
M  V30 9421 O 909.177 -1.18233 1.49752 0
M  V30 9422 C 906.317 -1.75745 2.96998 0
M  V30 9423 C 905.43 -1.24078 4.13798 0
M  V30 9424 C 904.565 -2.37405 4.75197 0
M  V30 9425 C 903.604 -1.82829 5.84157 0
M  V30 9426 N 902.741 -2.89696 6.39547 0
M  V30 9427 H 907.581 0.00202207 2.98 0
M  V30 9428 H 905.118 0.012766 1.47094 0
M  V30 9429 H 907.076 -2.44549 3.38011 0
M  V30 9430 H 905.706 -2.3186 2.24591 0
M  V30 9431 H 904.758 -0.445268 3.77785 0
M  V30 9432 H 906.07 -0.801186 4.92324 0
M  V30 9433 H 905.224 -3.14172 5.19019 0
M  V30 9434 H 903.963 -2.84688 3.95985 0
M  V30 9435 H 902.968 -1.04548 5.39768 0
M  V30 9436 H 904.193 -1.36461 6.65248 0
M  V30 9437 H 902.139 -3.36328 5.63222 0
M  V30 9438 H 902.056 -2.50206 7.13395 0
M  V30 9439 H 903.324 -3.66386 6.88027 0
M  V30 9440 N 907.553 -1.57587 0.0200696 0
M  V30 9441 C 908.463 -2.13119 -0.980676 0
M  V30 9442 C 909.479 -1.08124 -1.36328 0
M  V30 9443 O 910.655 -1.40134 -1.44653 0
M  V30 9444 C 907.72 -2.63991 -2.24743 0
M  V30 9445 C 906.781 -3.83667 -1.9261 0
M  V30 9446 C 906.014 -4.32103 -3.13246 0
M  V30 9447 O 906.237 -3.79758 -4.25606 0
M  V30 9448 O 905.171 -5.24047 -2.96072 0
M  V30 9449 H 908.997 -2.98887 -0.538528 0
M  V30 9450 H 906.582 -1.48055 -0.19999 0
M  V30 9451 H 908.464 -2.9682 -2.99125 0
M  V30 9452 H 907.139 -1.81311 -2.68157 0
M  V30 9453 H 906.046 -3.55778 -1.15641 0
M  V30 9454 H 907.379 -4.67482 -1.54019 0
M  V30 9455 N 909.032 0.252966 -1.55557 0
M  V30 9456 C 910.281 0.979736 -1.76307 0
M  V30 9457 C 910.594 1.86714 -0.582871 0
M  V30 9458 O 911.8 2.6302 -0.673247 0
M  V30 9459 C 910.256 1.79205 -3.12112 0
M  V30 9460 C 909.864 0.952333 -4.37761 0
M  V30 9461 C 911.608 2.51191 -3.42203 0
M  V30 9462 C 909.515 1.76018 -5.64599 0
M  V30 9463 H 908.445 0.369538 -0.657235 0
M  V30 9464 H 911.096 0.234619 -1.81994 0
M  V30 9465 H 909.478 2.57888 -3.00515 0
M  V30 9466 H 910.652 0.208251 -4.60329 0
M  V30 9467 H 908.967 0.346082 -4.14959 0
M  V30 9468 H 911.564 3.12074 -4.34182 0
M  V30 9469 H 911.907 3.22499 -2.63249 0
M  V30 9470 H 912.44 1.79523 -3.54988 0
M  V30 9471 H 909.179 1.09095 -6.46358 0
M  V30 9472 H 908.699 2.4797 -5.46142 0
M  V30 9473 H 910.378 2.32884 -6.03634 0
M  V30 9474 N 910.51 1.48831 0.518367 0
M  V30 9475 C 911.787 1.47933 1.27966 0
M  V30 9476 C 912.167 0.197393 2.10175 0
M  V30 9477 O 911.515 -0.820656 2.13255 0
M  V30 9478 C 911.725 2.74816 2.15121 0
M  V30 9479 C 913.073 3.23613 2.74881 0
M  V30 9480 O 914.097 2.75814 2.254 0
M  V30 9481 O 912.956 4.06818 3.64913 0
M  V30 9482 H 910.05 0.591316 0.578164 0
M  V30 9483 H 912.596 1.61077 0.534065 0
M  V30 9484 H 911.368 3.59621 1.54234 0
M  V30 9485 H 910.991 2.64449 2.96905 0
M  V30 9486 N 911.988 -0.768124 1.37614 0
M  V30 9487 C 912.951 -1.86314 1.3349 0
M  V30 9488 C 913.951 -1.59025 0.23823 0
M  V30 9489 O 915.141 -1.6704 0.494288 0
M  V30 9490 C 912.273 -3.23519 1.07462 0
M  V30 9491 H 913.466 -1.91382 2.30896 0
M  V30 9492 H 911.019 -0.968267 1.22696 0
M  V30 9493 H 911.754 -3.24127 0.106028 0
M  V30 9494 H 911.539 -3.44719 1.86846 0
M  V30 9495 H 913.029 -4.03597 1.07236 0
M  V30 9496 N 913.466 -1.22244 -0.994698 0
M  V30 9497 C 914.691 -1.07299 -1.77487 0
M  V30 9498 C 915.116 0.372302 -1.84379 0
M  V30 9499 O 914.474 1.2689 -1.29494 0
M  V30 9500 C 914.522 -1.68675 -3.18718 0
M  V30 9501 O 913.626 -0.939202 -4.01563 0
M  V30 9502 H 912.967 -0.376979 -0.546611 0
M  V30 9503 H 915.497 -1.62003 -1.24965 0
M  V30 9504 H 915.507 -1.73324 -3.69354 0
M  V30 9505 H 914.182 -2.73849 -3.13017 0
M  V30 9506 H 912.759 -0.968583 -3.60101 0
M  V30 9507 N 914.944 1.19125 -1.03184 0
M  V30 9508 C 916.184 1.90582 -0.738785 0
M  V30 9509 C 916.548 1.78004 0.719627 0
M  V30 9510 O 917.749 2.44084 1.12589 0
M  V30 9511 C 916.02 3.37319 -1.18114 0
M  V30 9512 S 917.579 4.26962 -1.01238 0
M  V30 9513 H 914.397 0.6582 -0.268875 0
M  V30 9514 H 916.999 1.43999 -1.32229 0
M  V30 9515 H 915.703 3.43999 -2.23814 0
M  V30 9516 H 915.234 3.88935 -0.591051 0
M  V30 9517 H 917.249 4.96143 0.0753558 0
M  V30 9518 N 916.422 0.810101 1.35185 0
M  V30 9519 C 917.671 0.388589 1.97921 0
M  V30 9520 C 917.984 -1.05079 1.64978 0
M  V30 9521 O 919.19 -1.57559 2.21105 0
M  V30 9522 C 917.646 0.643864 3.54094 0
M  V30 9523 C 917.254 2.09602 3.95943 0
M  V30 9524 C 918.998 0.287883 4.23523 0
M  V30 9525 C 916.905 2.29686 5.44976 0
M  V30 9526 H 915.835 0.141562 0.740592 0
M  V30 9527 H 918.486 0.994653 1.54204 0
M  V30 9528 H 916.868 -0.0321978 3.95987 0
M  V30 9529 H 918.042 2.81018 3.65192 0
M  V30 9530 H 916.357 2.4122 3.39414 0
M  V30 9531 H 918.954 0.415946 5.3308 0
M  V30 9532 H 919.297 -0.766305 4.09186 0
M  V30 9533 H 919.83 0.918004 3.87063 0
M  V30 9534 H 916.569 3.33563 5.64284 0
M  V30 9535 H 916.089 1.62798 5.77284 0
M  V30 9536 H 917.768 2.11411 6.11485 0
M  V30 9537 N 917.9 -1.47166 0.563914 0
M  V30 9538 C 918.847 -2.30097 -0.180013 0
M  V30 9539 C 919.817 -1.39473 -0.902019 0
M  V30 9540 O 921.002 -1.68432 -0.896396 0
M  V30 9541 C 918.142 -3.23573 -1.19978 0
M  V30 9542 C 917.255 -4.2929 -0.483149 0
M  V30 9543 C 916.39 -5.0991 -1.48879 0
M  V30 9544 C 915.429 -6.07395 -0.757513 0
M  V30 9545 N 914.566 -6.8095 -1.71031 0
M  V30 9546 H 919.406 -2.93189 0.53329 0
M  V30 9547 H 916.943 -1.4451 0.274814 0
M  V30 9548 H 918.901 -3.76196 -1.80368 0
M  V30 9549 H 917.531 -2.6233 -1.88103 0
M  V30 9550 H 916.583 -3.79671 0.235414 0
M  V30 9551 H 917.895 -4.9872 0.0894075 0
M  V30 9552 H 917.049 -5.66717 -2.16603 0
M  V30 9553 H 915.788 -4.40397 -2.09527 0
M  V30 9554 H 914.793 -5.4976 -0.0663841 0
M  V30 9555 H 916.018 -6.78919 -0.156685 0
M  V30 9556 H 913.964 -6.14162 -2.30524 0
M  V30 9557 H 913.881 -7.46574 -1.19007 0
M  V30 9558 H 915.149 -7.42326 -2.37849 0
M  V30 9559 N 919.378 -0.300708 -1.54705 0
M  V30 9560 C 920.627 0.309428 -1.99312 0
M  V30 9561 C 920.94 1.55027 -1.19272 0
M  V30 9562 O 922.146 2.23498 -1.54146 0
M  V30 9563 C 920.602 0.601856 -3.54832 0
M  V30 9564 C 920.21 -0.620636 -4.4368 0
M  V30 9565 C 921.954 1.1732 -4.07966 0
M  V30 9566 C 919.861 -0.301376 -5.90632 0
M  V30 9567 H 918.791 0.119395 -0.744487 0
M  V30 9568 H 921.442 -0.409368 -1.78875 0
M  V30 9569 H 919.824 1.38024 -3.71168 0
M  V30 9570 H 920.998 -1.39685 -4.39118 0
M  V30 9571 H 919.313 -1.1106 -4.01316 0
M  V30 9572 H 921.91 1.42631 -5.15326 0
M  V30 9573 H 922.253 2.11537 -3.5855 0
M  V30 9574 H 922.786 0.456534 -3.95172 0
M  V30 9575 H 919.525 -1.21209 -6.44196 0
M  V30 9576 H 919.045 0.437574 -5.98202 0
M  V30 9577 H 920.724 0.097164 -6.46927 0
M  V30 9578 N 920.856 1.57574 -0.0284266 0
M  V30 9579 C 921.766 2.13637 0.96936 0
M  V30 9580 C 922.782 1.08845 1.35752 0
M  V30 9581 O 923.958 1.40899 1.43908 0
M  V30 9582 C 921.023 2.65179 2.2334 0
M  V30 9583 C 920.084 3.84683 1.90572 0
M  V30 9584 C 919.317 4.33758 3.1095 0
M  V30 9585 O 919.54 3.82009 4.23586 0
M  V30 9586 O 918.474 5.2561 2.93288 0
M  V30 9587 H 922.3 2.99169 0.52267 0
M  V30 9588 H 919.885 1.48159 0.192135 0
M  V30 9589 H 921.767 2.98402 2.97547 0
M  V30 9590 H 920.442 1.82731 2.67191 0
M  V30 9591 H 919.349 3.56386 1.13753 0
M  V30 9592 H 920.682 4.68292 1.51538 0
M  V30 9593 N 922.334 -0.244713 1.55689 0
M  V30 9594 C 923.281 -1.30301 1.905 0
M  V30 9595 C 924.251 -1.4772 0.759478 0
M  V30 9596 O 925.436 -1.61667 1.01333 0
M  V30 9597 C 922.576 -2.653 2.20703 0
M  V30 9598 C 921.689 -2.55872 3.48071 0
M  V30 9599 C 920.824 -3.83238 3.67834 0
M  V30 9600 C 919.863 -3.68436 4.88796 0
M  V30 9601 N 919 -4.877 5.05068 0
M  V30 9602 H 923.84 -0.999143 2.80751 0
M  V30 9603 H 921.377 -0.482099 1.38976 0
M  V30 9604 H 923.335 -3.43884 2.36219 0
M  V30 9605 H 921.965 -2.93831 1.33653 0
M  V30 9606 H 921.017 -1.68846 3.40874 0
M  V30 9607 H 922.329 -2.40845 4.36801 0
M  V30 9608 H 921.483 -4.70266 3.83321 0
M  V30 9609 H 920.222 -4.01165 2.77341 0
M  V30 9610 H 919.227 -2.79793 4.73282 0
M  V30 9611 H 920.452 -3.52003 5.8075 0
M  V30 9612 H 918.398 -5.05983 4.17513 0
M  V30 9613 H 918.315 -4.75312 5.8789 0
M  V30 9614 H 919.583 -5.76219 5.24969 0
M  V30 9615 N 923.813 -1.49104 -0.510467 0
M  V30 9616 C 925.059 -1.58346 -1.26705 0
M  V30 9617 C 925.392 -0.265121 -1.92382 0
M  V30 9618 O 924.667 0.730558 -1.80258 0
M  V30 9619 C 924.95 -2.7359 -2.34137 0
M  V30 9620 C 924.803 -4.1519 -1.73024 0
M  V30 9621 C 926.122 -2.84511 -3.3577 0
M  V30 9622 H 923.241 -0.57637 -0.459311 0
M  V30 9623 H 925.883 -1.81353 -0.566658 0
M  V30 9624 H 924.033 -2.54105 -2.93876 0
M  V30 9625 H 925.705 -4.46167 -1.17186 0
M  V30 9626 H 923.948 -4.21279 -1.03473 0
M  V30 9627 H 924.619 -4.91683 -2.50903 0
M  V30 9628 H 927.095 -3.0222 -2.86011 0
M  V30 9629 H 925.971 -3.6684 -4.08313 0
M  V30 9630 H 926.232 -1.93471 -3.97519 0
M  V30 9631 N 925.291 0.760815 -1.38019 0
M  V30 9632 C 926.54 1.51506 -1.3315 0
M  V30 9633 C 926.853 1.95444 0.0782124 0
M  V30 9634 O 928.059 2.70352 0.249418 0
M  V30 9635 C 926.515 2.73636 -2.33776 0
M  V30 9636 C 926.123 2.36753 -3.80332 0
M  V30 9637 C 927.867 3.51548 -2.37937 0
M  V30 9638 C 925.774 3.55451 -4.72661 0
M  V30 9639 H 924.704 0.568844 -0.494907 0
M  V30 9640 H 927.355 0.832343 -1.63537 0
M  V30 9641 H 925.737 3.43852 -1.96422 0
M  V30 9642 H 926.911 1.7425 -4.26584 0
M  V30 9643 H 925.226 1.71991 -3.7922 0
M  V30 9644 H 927.823 4.39791 -3.04119 0
M  V30 9645 H 928.166 3.9219 -1.39617 0
M  V30 9646 H 928.699 2.88339 -2.74054 0
M  V30 9647 H 925.438 3.19882 -5.7215 0
M  V30 9648 H 924.958 4.17022 -4.31107 0
M  V30 9649 H 926.637 4.22125 -4.90326 0
M  V30 9650 N 926.769 1.22769 0.988202 0
M  V30 9651 C 928.017 1.05301 1.725 0
M  V30 9652 C 928.338 -0.412103 1.90596 0
M  V30 9653 O 927.608 -1.29606 1.46898 0
M  V30 9654 H 926.188 0.386658 0.639144 0
M  V30 9655 H 928.85 1.54359 1.18993 0
M  V30 9656 H 927.946 1.53465 2.71763 0
M  V30 9657 N 928.247 -1.18576 1.03814 0
M  V30 9658 C 929.493 -1.88773 0.741132 0
M  V30 9659 C 929.826 -1.79993 -0.729127 0
M  V30 9660 O 929.101 -1.19851 -1.53186 0
M  V30 9661 C 929.384 -3.39352 1.20468 0
M  V30 9662 C 929.237 -3.56955 2.73684 0
M  V30 9663 C 930.556 -4.32901 0.792741 0
M  V30 9664 H 927.675 -0.685482 0.270708 0
M  V30 9665 H 930.317 -1.39523 1.2897 0
M  V30 9666 H 928.467 -3.81427 0.737974 0
M  V30 9667 H 930.139 -3.2399 3.28372 0
M  V30 9668 H 928.382 -2.99696 3.13632 0
M  V30 9669 H 929.053 -4.62598 3.01176 0
M  V30 9670 H 931.529 -3.98592 1.1943 0
M  V30 9671 H 930.405 -5.36828 1.14486 0
M  V30 9672 H 930.666 -4.41052 -0.304295 0
M  V30 9673 N 929.725 -0.817259 -1.34754 0
M  V30 9674 C 930.973 -0.401852 -1.98065 0
M  V30 9675 C 931.294 1.03718 -1.65129 0
M  V30 9676 O 930.564 1.71921 -0.939141 0
M  V30 9677 H 929.144 -0.145603 -0.732672 0
M  V30 9678 H 931.806 -1.04545 -1.64488 0
M  V30 9679 H 930.902 -0.516241 -3.07801 0
M  V30 9680 N 931.203 1.46865 -0.571711 0
M  V30 9681 C 932.113 2.33979 0.170571 0
M  V30 9682 C 933.129 1.49083 0.897239 0
M  V30 9683 O 934.305 1.81979 0.862888 0
M  V30 9684 C 931.37 3.26063 1.17831 0
M  V30 9685 C 930.431 4.26855 0.457499 0
M  V30 9686 C 929.664 5.14539 1.41722 0
M  V30 9687 O 929.887 5.04945 2.65305 0
M  V30 9688 O 928.821 5.94612 0.9338 0
M  V30 9689 H 932.647 2.98781 -0.544396 0
M  V30 9690 H 930.232 1.4566 -0.332198 0
M  V30 9691 H 932.114 3.82903 1.75965 0
M  V30 9692 H 930.789 2.63871 1.87493 0
M  V30 9693 H 929.696 3.73734 -0.165406 0
M  V30 9694 H 931.029 4.91802 -0.197953 0
M  V30 9695 N 932.681 0.308908 1.54543 0
M  V30 9696 C 933.928 -0.298036 2.00295 0
M  V30 9697 C 934.256 -1.53285 1.19724 0
M  V30 9698 O 933.511 -1.93917 0.263551 0
M  V30 9699 C 933.81 -0.691522 3.50646 0
M  V30 9700 C 933.476 0.442454 4.48724 0
M  V30 9701 C 932.138 0.753739 4.7526 0
M  V30 9702 C 934.49 1.20488 5.07082 0
M  V30 9703 C 931.818 1.83044 5.57415 0
M  V30 9704 C 934.17 2.27156 5.90409 0
M  V30 9705 C 932.834 2.58882 6.15253 0
M  V30 9706 H 932.104 -0.109059 0.73293 0
M  V30 9707 H 934.751 0.429647 1.86618 0
M  V30 9708 H 933.056 -1.49941 3.61974 0
M  V30 9709 H 934.753 -1.17244 3.83477 0
M  V30 9710 H 931.343 0.189744 4.2818 0
M  V30 9711 H 935.527 0.977653 4.86575 0
M  V30 9712 H 930.783 2.08088 5.749 0
M  V30 9713 H 934.957 2.86687 6.34652 0
M  V30 9714 H 932.584 3.42443 6.78702 0
M  V30 9715 N 934.159 -1.57557 0.0367827 0
M  V30 9716 C 935.407 -1.91735 -0.63892 0
M  V30 9717 C 935.728 -0.914515 -1.72226 0
M  V30 9718 O 934.998 0.0428248 -1.95853 0
M  V30 9719 H 933.578 -0.707738 -0.23899 0
M  V30 9720 H 936.24 -1.94708 0.0863931 0
M  V30 9721 H 935.336 -2.92568 -1.08676 0
M  V30 9722 N 935.637 0.236453 -1.55816 0
M  V30 9723 C 936.547 1.31418 -1.94336 0
M  V30 9724 C 937.563 1.52095 -0.845164 0
M  V30 9725 O 938.739 1.65515 -1.14746 0
M  V30 9726 C 935.804 2.6468 -2.23932 0
M  V30 9727 C 934.865 2.52435 -3.47239 0
M  V30 9728 C 934.098 3.79342 -3.75414 0
M  V30 9729 O 934.321 4.81694 -3.05495 0
M  V30 9730 O 933.255 3.77347 -4.68927 0
M  V30 9731 H 937.081 1.01739 -2.86152 0
M  V30 9732 H 934.666 0.438084 -1.42833 0
M  V30 9733 H 936.548 3.4341 -2.44228 0
M  V30 9734 H 935.223 2.94071 -1.35292 0
M  V30 9735 H 934.13 1.71955 -3.32238 0
M  V30 9736 H 935.463 2.27987 -4.36214 0
M  V30 9737 N 937.115 1.49373 0.502552 0
M  V30 9738 C 938.361 1.59016 1.25864 0
M  V30 9739 C 938.694 0.27532 1.92238 0
M  V30 9740 O 937.969 -0.720988 1.80643 0
M  V30 9741 C 938.252 2.74828 2.32683 0
M  V30 9742 C 938.105 4.16102 1.7082 0
M  V30 9743 C 939.424 2.86288 3.34256 0
M  V30 9744 H 936.543 0.578798 0.456248 0
M  V30 9745 H 939.185 1.81651 0.557032 0
M  V30 9746 H 937.335 2.5566 2.92524 0
M  V30 9747 H 939.007 4.46782 1.14818 0
M  V30 9748 H 937.25 4.21822 1.01238 0
M  V30 9749 H 937.921 4.93006 2.48292 0
M  V30 9750 H 940.397 3.03733 2.84404 0
M  V30 9751 H 939.273 3.69001 4.06362 0
M  V30 9752 H 939.534 1.95576 3.96488 0
M  V30 9753 N 938.594 -0.753485 1.38421 0
M  V30 9754 C 939.834 -1.52544 1.3605 0
M  V30 9755 C 940.198 -1.91937 -0.0493257 0
M  V30 9756 O 941.399 -2.6807 -0.197908 0
M  V30 9757 C 939.67 -2.74432 2.28958 0
M  V30 9758 S 941.229 -3.64297 2.44607 0
M  V30 9759 H 938.047 -0.522017 0.48272 0
M  V30 9760 H 940.649 -0.884503 1.74347 0
M  V30 9761 H 939.353 -2.43602 3.30282 0
M  V30 9762 H 938.884 -3.43471 1.91811 0
M  V30 9763 H 940.899 -4.67245 1.67022 0
M  V30 9764 N 940.072 -1.23292 -0.981677 0
M  V30 9765 C 941.297 -1.09176 -1.76339 0
M  V30 9766 C 941.722 0.352726 -1.84763 0
M  V30 9767 O 941.08 1.25509 -1.30832 0
M  V30 9768 C 941.128 -1.72046 -3.16911 0
M  V30 9769 O 940.232 -0.98174 -4.00544 0
M  V30 9770 H 939.573 -0.382755 -0.542581 0
M  V30 9771 H 942.103 -1.63319 -1.23239 0
M  V30 9772 H 942.113 -1.77232 -3.67495 0
M  V30 9773 H 940.788 -2.77154 -3.10095 0
M  V30 9774 H 939.365 -1.00672 -3.59054 0
M  V30 9775 N 941.55 1.18024 -1.04442 0
M  V30 9776 C 942.798 1.87727 -0.74854 0
M  V30 9777 C 943.119 1.80975 0.726156 0
M  V30 9778 O 942.389 1.23061 1.52423 0
M  V30 9779 H 940.969 0.694974 -0.273897 0
M  V30 9780 H 943.631 1.43213 -1.32197 0
M  V30 9781 H 942.727 2.93665 -1.05674 0
M  V30 9782 N 943.028 0.824394 1.34319 0
M  V30 9783 C 944.444 0.510336 1.51221 0
M  V30 9784 C 944.644 -0.965201 1.76879 0
M  V30 9785 O 943.7 -1.74961 1.82057 0
M  V30 9786 C 945.013 1.37114 2.6762 0
M  V30 9787 C 946.561 1.36842 2.81502 0
M  V30 9788 C 947.036 2.21374 4.00946 0
M  V30 9789 N 948.527 2.19005 4.08156 0
M  V30 9790 C 949.262 2.81159 4.99737 0
M  V30 9791 N 948.758 3.52309 5.96532 0
M  V30 9792 N 950.551 2.70706 4.9262 0
M  V30 9793 H 942.702 1.77976 1.15924 0
M  V30 9794 H 944.965 0.758503 0.568663 0
M  V30 9795 H 944.671 2.41905 2.55294 0
M  V30 9796 H 944.545 1.03689 3.62669 0
M  V30 9797 H 946.932 0.328284 2.93268 0
M  V30 9798 H 947.013 1.74265 1.87257 0
M  V30 9799 H 946.657 3.25437 3.8994 0
M  V30 9800 H 946.587 1.813 4.94407 0
M  V30 9801 H 949.078 1.67252 3.38874 0
M  V30 9802 H 949.391 3.96977 6.63045 0
M  V30 9803 H 947.736 3.56415 5.96652 0
M  V30 9804 H 950.927 2.14694 4.15962 0
M  V30 9805 H 951.1 3.19431 5.63798 0
M  V30 9806 N 944.506 -1.46559 0.579492 0
M  V30 9807 C 945.436 -2.33059 -0.143437 0
M  V30 9808 C 946.417 -1.4515 -0.886868 0
M  V30 9809 O 947.602 -1.73973 -0.862961 0
M  V30 9810 C 944.732 -3.27364 -1.15973 0
M  V30 9811 C 943.686 -4.24689 -0.531348 0
M  V30 9812 C 943.012 -5.08479 -1.65388 0
M  V30 9813 C 944.312 -5.1961 0.529391 0
M  V30 9814 H 946.006 -2.93753 0.578762 0
M  V30 9815 H 943.552 -1.41256 0.279775 0
M  V30 9816 H 945.505 -3.86732 -1.67382 0
M  V30 9817 H 944.229 -2.64771 -1.91217 0
M  V30 9818 H 942.888 -3.6658 -0.0383749 0
M  V30 9819 H 942.536 -4.42273 -2.3959 0
M  V30 9820 H 942.236 -5.74387 -1.23909 0
M  V30 9821 H 943.76 -5.70709 -2.17079 0
M  V30 9822 H 945.174 -5.73212 0.100506 0
M  V30 9823 H 943.571 -5.93843 0.86432 0
M  V30 9824 H 944.641 -4.63737 1.4169 0
M  V30 9825 N 945.984 -0.3171 -1.54377 0
M  V30 9826 C 946.931 0.551782 -2.24107 0
M  V30 9827 C 947.901 1.11681 -1.22949 0
M  V30 9828 O 949.086 1.15836 -1.51614 0
M  V30 9829 C 946.226 1.70997 -2.99756 0
M  V30 9830 C 945.339 1.17479 -4.15719 0
M  V30 9831 C 944.474 2.29815 -4.78914 0
M  V30 9832 C 943.513 1.73513 -5.86992 0
M  V30 9833 N 942.65 2.79485 -6.44075 0
M  V30 9834 H 947.49 -0.049431 -2.97959 0
M  V30 9835 H 945.027 -0.0361658 -1.47056 0
M  V30 9836 H 946.985 2.39141 -3.41859 0
M  V30 9837 H 945.615 2.28257 -2.28251 0
M  V30 9838 H 944.667 0.385109 -3.78446 0
M  V30 9839 H 945.979 0.72276 -4.93536 0
M  V30 9840 H 945.133 3.05875 -5.23952 0
M  V30 9841 H 943.872 2.78352 -4.00464 0
M  V30 9842 H 942.877 0.959475 -5.41363 0
M  V30 9843 H 944.102 1.2586 -6.67335 0
M  V30 9844 H 942.048 3.27325 -5.68502 0
M  V30 9845 H 941.965 2.38825 -7.17286 0
M  V30 9846 H 943.233 3.55394 -6.93769 0
M  V30 9847 N 947.462 1.57535 -0.0451378 0
M  V30 9848 C 948.708 1.92736 0.630921 0
M  V30 9849 C 949.041 0.923265 1.70849 0
M  V30 9850 O 948.316 -0.0516512 1.94431 0
M  V30 9851 C 948.599 3.38348 1.23259 0
M  V30 9852 C 948.452 4.49503 0.16349 0
M  V30 9853 C 949.771 3.84233 2.14599 0
M  V30 9854 H 946.89 0.700884 0.227883 0
M  V30 9855 H 949.532 1.89706 -0.10567 0
M  V30 9856 H 947.682 3.41061 1.86037 0
M  V30 9857 H 949.354 4.58919 -0.46808 0
M  V30 9858 H 947.597 4.30802 -0.509166 0
M  V30 9859 H 948.268 5.48457 0.624382 0
M  V30 9860 H 950.744 3.83358 1.6179 0
M  V30 9861 H 949.62 4.86781 2.53644 0
M  V30 9862 H 949.881 3.20646 3.04366 0
M  V30 9863 N 948.94 -0.228186 1.55939 0
M  V30 9864 C 950.351 -0.795734 1.68893 0
M  V30 9865 C 950.702 -1.85261 0.645967 0
M  V30 9866 O 949.827 -2.15434 -0.2042 0
M  V30 9867 C 950.422 -1.45013 3.06197 0
M  V30 9868 C 948.981 -1.96514 3.21028 0
M  V30 9869 C 948.128 -0.822918 2.64808 0
M  V30 9870 H 951.079 -0.0036485 1.587 0
M  V30 9871 H 951.1 -2.31875 3.01685 0
M  V30 9872 H 950.612 -0.680678 3.82084 0
M  V30 9873 H 948.713 -2.76282 2.49998 0
M  V30 9874 H 948.826 -2.14967 4.28166 0
M  V30 9875 H 947.19 -1.22846 2.23116 0
M  V30 9876 H 947.973 -0.0662493 3.43236 0
M  V30 9877 N 950.418 -1.49637 -0.494624 0
M  V30 9878 C 951.666 -1.5913 -1.24587 0
M  V30 9879 C 951.987 -0.282828 -1.92938 0
M  V30 9880 O 951.257 0.69825 -1.83034 0
M  V30 9881 H 949.837 -0.586329 -0.462847 0
M  V30 9882 H 952.499 -1.86296 -0.572696 0
M  V30 9883 H 951.595 -2.3906 -2.00641 0
M  V30 9884 N 951.896 0.746133 -1.38819 0
M  V30 9885 C 952.843 1.86001 -1.36647 0
M  V30 9886 C 953.813 1.6453 -0.227849 0
M  V30 9887 O 954.998 1.86092 -0.421241 0
M  V30 9888 C 952.138 3.23388 -1.20474 0
M  V30 9889 C 951.251 3.5664 -2.43786 0
M  V30 9890 C 950.386 4.8337 -2.20287 0
M  V30 9891 C 949.425 5.09431 -3.39332 0
M  V30 9892 N 948.562 6.2736 -3.1522 0
M  V30 9893 H 953.402 1.87192 -2.31869 0
M  V30 9894 H 950.939 0.914838 -1.15192 0
M  V30 9895 H 952.897 4.02679 -1.09112 0
M  V30 9896 H 951.527 3.21505 -0.288874 0
M  V30 9897 H 950.579 2.72135 -2.65794 0
M  V30 9898 H 951.891 3.71823 -3.3249 0
M  V30 9899 H 951.045 5.70619 -2.06103 0
M  V30 9900 H 949.784 4.70341 -1.28961 0
M  V30 9901 H 948.789 4.20648 -3.54027 0
M  V30 9902 H 950.014 5.24354 -4.31544 0
M  V30 9903 H 947.96 6.15639 -2.26549 0
M  V30 9904 H 947.877 6.43078 -3.97476 0
M  V30 9905 H 949.145 7.17477 -3.04707 0
M  V30 9906 N 953.375 1.23811 0.975125 0
M  V30 9907 C 954.791 1.0019 1.24234 0
M  V30 9908 C 954.991 -0.293811 1.99346 0
M  V30 9909 O 954.047 -1.01189 2.31337 0
M  V30 9910 C 955.36 2.21218 2.03674 0
M  V30 9911 C 956.908 2.25764 2.16793 0
M  V30 9912 C 957.383 3.46394 2.99626 0
M  V30 9913 N 958.874 3.46665 3.07209 0
M  V30 9914 C 959.609 4.3666 3.71639 0
M  V30 9915 N 959.105 5.36899 4.37849 0
M  V30 9916 N 960.898 4.2439 3.68578 0
M  V30 9917 H 953.049 2.07087 0.472076 0
M  V30 9918 H 955.312 0.90838 0.271201 0
M  V30 9919 H 955.018 3.15277 1.55862 0
M  V30 9920 H 954.892 2.22733 3.04417 0
M  V30 9921 H 957.279 1.32242 2.63811 0
M  V30 9922 H 957.36 2.28279 1.15422 0
M  V30 9923 H 957.004 4.40227 2.53304 0
M  V30 9924 H 956.934 3.41121 4.01178 0
M  V30 9925 H 959.425 2.74142 2.60105 0
M  V30 9926 H 959.738 6.01816 4.84807 0
M  V30 9927 H 958.083 5.40793 4.36541 0
M  V30 9928 H 961.274 3.4532 3.16025 0
M  V30 9929 H 961.447 4.94727 4.18508 0
M  V30 9930 N 954.853 -1.17469 1.05066 0
M  V30 9931 C 955.763 -2.25089 0.661222 0
M  V30 9932 C 956.779 -1.71086 -0.31712 0
M  V30 9933 O 957.955 -2.00685 -0.169534 0
M  V30 9934 C 955.02 -3.46676 0.0406415 0
M  V30 9935 C 954.081 -4.15771 1.06927 0
M  V30 9936 C 953.314 -5.31553 0.478208 0
M  V30 9937 O 953.537 -5.6593 -0.712714 0
M  V30 9938 O 952.471 -5.89574 1.21185 0
M  V30 9939 H 956.297 -2.60685 1.5581 0
M  V30 9940 H 953.882 -1.24744 0.822147 0
M  V30 9941 H 955.764 -4.203 -0.304312 0
M  V30 9942 H 954.439 -3.1288 -0.829909 0
M  V30 9943 H 953.346 -3.44171 1.46619 0
M  V30 9944 H 954.679 -4.53591 1.91092 0
M  V30 9945 N 956.331 -0.831506 -1.3388 0
M  V30 9946 C 957.58 -0.420028 -1.97278 0
M  V30 9947 C 957.893 1.02441 -1.66629 0
M  V30 9948 O 959.099 1.54021 -2.23584 0
M  V30 9949 C 957.555 -0.700116 -3.53025 0
M  V30 9950 C 957.163 -2.15874 -3.92559 0
M  V30 9951 C 958.907 -0.355226 -4.23011 0
M  V30 9952 C 956.814 -2.38327 -5.41252 0
M  V30 9953 H 955.744 -0.153326 -0.738246 0
M  V30 9954 H 958.395 -1.01906 -1.52602 0
M  V30 9955 H 956.777 -0.0308044 -3.95988 0
M  V30 9956 H 957.951 -2.86792 -3.60675 0
M  V30 9957 H 956.266 -2.4659 -3.35533 0
M  V30 9958 H 958.863 -0.500701 -5.32351 0
M  V30 9959 H 959.206 0.70111 -4.10354 0
M  V30 9960 H 959.739 -0.979466 -3.85553 0
M  V30 9961 H 956.478 -3.42498 -5.58906 0
M  V30 9962 H 955.998 -1.71962 -5.74621 0
M  V30 9963 H 957.677 -2.21113 -6.08045 0
M  V30 9964 N 957.809 1.4625 -0.587256 0
M  V30 9965 C 959.049 2.04254 -0.0773169 0
M  V30 9966 C 959.413 1.44831 1.26047 0
M  V30 9967 O 960.614 1.94063 1.85992 0
M  V30 9968 C 958.885 3.57396 -0.0172813 0
M  V30 9969 S 960.444 4.36644 0.434422 0
M  V30 9970 H 957.262 0.709892 -0.0396783 0
M  V30 9971 H 959.864 1.79232 -0.780779 0
M  V30 9972 H 958.568 3.98161 -0.994795 0
M  V30 9973 H 958.099 3.86962 0.70881 0
M  V30 9974 H 960.114 4.66597 1.68824 0
M  V30 9975 N 959.287 0.325282 1.54207 0
M  V30 9976 C 960.533 -0.277185 2.00897 0
M  V30 9977 C 960.866 -1.51651 1.21308 0
M  V30 9978 O 960.141 -1.92237 0.295825 0
M  V30 9979 C 960.424 -0.60961 3.54902 0
M  V30 9980 C 960.277 0.640542 4.45216 0
M  V30 9981 C 961.596 -1.42656 4.16338 0
M  V30 9982 H 958.715 -0.0992722 0.730284 0
M  V30 9983 H 961.357 0.442201 1.84783 0
M  V30 9984 H 959.507 -1.22249 3.68765 0
M  V30 9985 H 961.179 1.27878 4.43221 0
M  V30 9986 H 959.422 1.26908 4.14821 0
M  V30 9987 H 960.093 0.363459 5.50802 0
M  V30 9988 H 962.569 -0.908494 4.06061 0
M  V30 9989 H 961.445 -1.62792 5.24204 0
M  V30 9990 H 961.706 -2.42321 3.69774 0
M  V30 9991 N 960.765 -1.57509 0.0534917 0
M  V30 9992 C 961.728 -2.10563 -0.905307 0
M  V30 9993 C 962.728 -1.02571 -1.23838 0
M  V30 9994 O 963.918 -1.28635 -1.17468 0
M  V30 9995 C 961.05 -2.5918 -2.21447 0
M  V30 9996 H 962.243 -2.96575 -0.445354 0
M  V30 9997 H 959.796 -1.55079 -0.194947 0
M  V30 9998 H 960.531 -1.76568 -2.72019 0
M  V30 9999 H 960.316 -3.38098 -1.98575 0
M  V30 10000 H 961.806 -3.00365 -2.90122 0
M  V30 10001 N 962.243 0.219913 -1.56058 0
M  V30 10002 C 963.492 0.942119 -1.78345 0
M  V30 10003 C 963.805 1.85435 -0.622344 0
M  V30 10004 O 965.011 2.61533 -0.728886 0
M  V30 10005 C 963.467 1.72544 -3.15843 0
M  V30 10006 C 963.075 0.859263 -4.39682 0
M  V30 10007 C 964.819 2.43876 -3.47455 0
M  V30 10008 C 962.726 1.64003 -5.68205 0
M  V30 10009 H 961.656 0.355514 -0.664925 0
M  V30 10010 H 964.307 0.195963 -1.82451 0
M  V30 10011 H 962.689 2.51456 -3.05918 0
M  V30 10012 H 963.863 0.110562 -4.60667 0
M  V30 10013 H 962.178 0.257985 -4.156 0
M  V30 10014 H 964.775 3.02794 -4.40704 0
M  V30 10015 H 965.118 3.16843 -2.7003 0
M  V30 10016 H 965.651 1.71952 -3.58716 0
M  V30 10017 H 962.39 0.953606 -6.48526 0
M  V30 10018 H 961.91 2.3633 -5.51279 0
M  V30 10019 H 963.589 2.20028 -6.08438 0
M  V30 10020 N 963.721 1.49897 0.486681 0
M  V30 10021 C 964.668 1.67619 1.58658 0
M  V30 10022 C 965.638 0.517537 1.57831 0
M  V30 10023 O 966.823 0.746272 1.756 0
M  V30 10024 C 963.963 1.762 2.96728 0
M  V30 10025 C 963.076 3.03465 3.07462 0
M  V30 10026 C 962.211 3.02937 4.36351 0
M  V30 10027 C 961.25 4.24721 4.4077 0
M  V30 10028 N 960.387 4.22021 5.61108 0
M  V30 10029 H 965.227 2.61528 1.42853 0
M  V30 10030 H 962.764 1.29657 0.694807 0
M  V30 10031 H 964.722 1.79156 3.76774 0
M  V30 10032 H 963.352 0.857452 3.11203 0
M  V30 10033 H 962.404 3.10054 2.20387 0
M  V30 10034 H 963.716 3.93454 3.06586 0
M  V30 10035 H 962.87 3.04536 5.24731 0
M  V30 10036 H 961.609 2.10751 4.39813 0
M  V30 10037 H 960.614 4.23352 3.5079 0
M  V30 10038 H 961.839 5.18116 4.39013 0
M  V30 10039 H 959.785 3.3268 5.65385 0
M  V30 10040 H 959.702 5.05761 5.61909 0
M  V30 10041 H 960.97 4.27743 6.51656 0
M  V30 10042 N 965.199 -0.738761 1.39212 0
M  V30 10043 C 966.427 -1.52801 1.39497 0
M  V30 10044 C 966.842 -1.88797 -0.0114917 0
M  V30 10045 O 966.199 -1.53835 -0.981887 0
M  V30 10046 C 966.25 -2.81793 2.2644 0
M  V30 10047 O 965.971 -2.47328 3.61608 0
M  V30 10048 C 967.472 -3.75844 2.35067 0
M  V30 10049 H 964.692 -0.472322 0.476606 0
M  V30 10050 H 967.236 -0.913153 1.8298 0
M  V30 10051 H 965.391 -3.3962 1.8638 0
M  V30 10052 H 965.805 -3.30162 4.07545 0
M  V30 10053 H 967.279 -4.6326 3.00157 0
M  V30 10054 H 967.756 -4.17329 1.3687 0
M  V30 10055 H 968.362 -3.23937 2.75581 0
M  V30 10056 N 966.677 -1.24326 -0.968545 0
M  V30 10057 C 967.607 -1.05951 -2.08079 0
M  V30 10058 C 968.588 0.0272666 -1.70078 0
M  V30 10059 O 969.773 -0.139644 -1.93697 0
M  V30 10060 C 966.903 -0.662623 -3.4092 0
M  V30 10061 C 965.857 -1.69807 -3.92873 0
M  V30 10062 C 965.183 -1.15628 -5.22048 0
M  V30 10063 C 966.483 -3.09383 -4.20808 0
M  V30 10064 H 968.177 -1.98984 -2.23709 0
M  V30 10065 H 965.723 -0.958112 -1.075 0
M  V30 10066 H 967.676 -0.521071 -4.18166 0
M  V30 10067 H 966.4 0.303399 -3.25188 0
M  V30 10068 H 965.059 -1.82783 -3.17783 0
M  V30 10069 H 964.707 -0.180888 -5.02675 0
M  V30 10070 H 964.407 -1.84822 -5.57776 0
M  V30 10071 H 965.931 -1.02683 -6.01904 0
M  V30 10072 H 967.345 -2.99642 -4.88761 0
M  V30 10073 H 965.742 -3.75923 -4.67763 0
M  V30 10074 H 966.812 -3.57486 -3.27616 0
M  V30 10075 N 968.156 1.1691 -1.05688 0
M  V30 10076 C 969.103 2.21095 -0.662246 0
M  V30 10077 C 970.073 1.62623 0.338083 0
M  V30 10078 O 971.258 1.89428 0.228362 0
M  V30 10079 C 968.398 3.45066 -0.0484018 0
M  V30 10080 C 967.511 4.17809 -1.09817 0
M  V30 10081 C 966.646 5.29281 -0.451114 0
M  V30 10082 C 965.685 5.93817 -1.48484 0
M  V30 10083 N 964.822 6.96793 -0.861588 0
M  V30 10084 H 969.662 2.54204 -1.55513 0
M  V30 10085 H 967.199 1.24863 -0.777665 0
M  V30 10086 H 969.157 4.15932 0.324978 0
M  V30 10087 H 967.787 3.12526 0.807918 0
M  V30 10088 H 966.839 3.45608 -1.58932 0
M  V30 10089 H 968.151 4.61907 -1.88265 0
M  V30 10090 H 967.305 6.06695 -0.0244251 0
M  V30 10091 H 966.044 4.8633 0.365306 0
M  V30 10092 H 965.049 5.1513 -1.92149 0
M  V30 10093 H 966.274 6.38848 -2.30325 0
M  V30 10094 H 964.22 6.55967 -0.0657688 0
M  V30 10095 H 964.137 7.39229 -1.58354 0
M  V30 10096 H 965.405 7.78142 -0.45984 0
M  V30 10097 N 969.634 0.838594 1.33437 0
M  V30 10098 C 970.597 0.276843 2.27522 0
M  V30 10099 C 971.597 -0.554275 1.50945 0
M  V30 10100 O 972.787 -0.368107 1.70266 0
M  V30 10101 C 969.919 -0.610036 3.35397 0
M  V30 10102 H 971.112 1.10705 2.78719 0
M  V30 10103 H 968.665 0.611657 1.43835 0
M  V30 10104 H 969.4 -1.46269 2.89441 0
M  V30 10105 H 969.185 -0.0153615 3.92097 0
M  V30 10106 H 970.675 -0.996368 4.05539 0
M  V30 10107 N 971.112 -1.45937 0.595003 0
M  V30 10108 C 972.36 -2.01921 0.0851368 0
M  V30 10109 C 972.681 -1.46748 -1.28413 0
M  V30 10110 O 971.951 -0.656873 -1.84559 0
M  V30 10111 H 970.531 -0.746457 0.0284826 0
M  V30 10112 H 973.193 -1.78891 0.773561 0
M  V30 10113 H 972.289 -3.1209 0.0254002 0
M  V30 10114 N 972.59 -0.333456 -1.54032 0
M  V30 10115 C 973.82 0.267425 -2.04862 0
M  V30 10116 C 974.228 1.45559 -1.20869 0
M  V30 10117 O 973.571 1.82197 -0.234478 0
M  V30 10118 C 973.633 0.755759 -3.51466 0
M  V30 10119 C 973.297 -0.311409 -4.55938 0
M  V30 10120 C 974.294 -1.15078 -5.07004 0
M  V30 10121 C 971.979 -0.462439 -5.00167 0
M  V30 10122 C 973.973 -2.12682 -6.0087 0
M  V30 10123 C 971.66 -1.44188 -5.93846 0
M  V30 10124 C 972.658 -2.27253 -6.44085 0
M  V30 10125 O 972.346 -3.23532 -7.35923 0
M  V30 10126 H 972.078 0.0572596 -0.673571 0
M  V30 10127 H 974.632 -0.480646 -1.99697 0
M  V30 10128 H 972.862 1.55491 -3.54062 0
M  V30 10129 H 974.551 1.27607 -3.8532 0
M  V30 10130 H 975.317 -1.04513 -4.73605 0
M  V30 10131 H 971.196 0.17424 -4.60671 0
M  V30 10132 H 974.74 -2.77555 -6.40007 0
M  V30 10133 H 970.637 -1.54813 -6.2666 0
M  V30 10134 H 971.405 -3.18886 -7.53826 0
M  V30 10135 N 974.068 1.57479 -0.061844 0
M  V30 10136 C 975.296 1.97429 0.618837 0
M  V30 10137 C 975.711 0.939826 1.63746 0
M  V30 10138 O 975.068 -0.0747173 1.82347 0
M  V30 10139 C 975.119 3.3746 1.29628 0
M  V30 10140 O 974.84 4.36941 0.318431 0
M  V30 10141 C 976.341 3.92228 2.06572 0
M  V30 10142 H 973.561 0.649513 0.168444 0
M  V30 10143 H 976.105 2.04078 -0.131303 0
M  V30 10144 H 974.26 3.31928 1.99757 0
M  V30 10145 H 974.674 5.18313 0.803239 0
M  V30 10146 H 976.148 4.92458 2.49377 0
M  V30 10147 H 976.625 3.28231 2.91824 0
M  V30 10148 H 977.231 4.01131 1.4133 0
M  V30 10149 N 975.546 -0.211634 1.56173 0
M  V30 10150 C 976.823 -0.959467 1.70451 0
M  V30 10151 C 977.203 -2.02036 0.611942 0
M  V30 10152 O 976.551 -2.25325 -0.37959 0
M  V30 10153 C 976.761 -1.56092 3.12148 0
M  V30 10154 C 978.109 -2.04939 3.71867 0
M  V30 10155 O 979.133 -1.65966 3.15172 0
M  V30 10156 O 977.992 -2.766 4.71333 0
M  V30 10157 H 975.086 -0.448844 0.6946 0
M  V30 10158 H 977.632 -0.202633 1.68486 0
M  V30 10159 H 976.404 -0.79538 3.83131 0
M  V30 10160 H 976.027 -2.38303 3.18273 0
M  V30 10161 N 977.024 -1.50153 -0.478725 0
M  V30 10162 C 977.971 -1.68458 -1.57767 0
M  V30 10163 C 978.941 -0.5259 -1.57555 0
M  V30 10164 O 980.126 -0.755574 -1.75202 0
M  V30 10165 C 977.266 -1.77772 -2.95789 0
M  V30 10166 C 976.379 -3.05092 -3.05848 0
M  V30 10167 C 975.514 -3.05247 -4.34739 0
M  V30 10168 C 974.553 -4.27053 -4.38512 0
M  V30 10169 N 973.69 -4.24991 -5.58862 0
M  V30 10170 H 978.53 -2.62282 -1.41464 0
M  V30 10171 H 976.067 -1.30023 -0.687921 0
M  V30 10172 H 978.025 -1.81152 -3.75819 0
M  V30 10173 H 976.655 -0.873944 -3.10744 0
M  V30 10174 H 975.707 -3.11219 -2.1874 0
M  V30 10175 H 977.019 -3.95075 -3.04495 0
M  V30 10176 H 976.173 -3.07314 -5.23109 0
M  V30 10177 H 974.912 -2.13081 -4.38689 0
M  V30 10178 H 973.917 -4.25206 -3.4854 0
M  V30 10179 H 975.142 -5.20437 -4.36259 0
M  V30 10180 H 973.088 -3.35674 -5.63612 0
M  V30 10181 H 973.005 -5.08734 -5.59219 0
M  V30 10182 H 974.273 -4.31193 -6.49379 0
M  V30 10183 N 978.502 0.731368 -1.39602 0
M  V30 10184 C 979.434 1.85575 -1.34516 0
M  V30 10185 C 980.447 1.60818 -0.253287 0
M  V30 10186 O 981.636 1.70984 -0.512505 0
M  V30 10187 C 978.736 3.21673 -1.06676 0
M  V30 10188 C 977.909 3.73757 -2.27211 0
M  V30 10189 C 976.968 4.88426 -1.95773 0
M  V30 10190 O 975.994 5.01898 -2.68491 0
M  V30 10191 N 977.196 5.73065 -0.926083 0
M  V30 10192 H 979.961 1.90442 -2.31413 0
M  V30 10193 H 977.522 0.912258 -1.33752 0
M  V30 10194 H 979.514 3.95959 -0.836577 0
M  V30 10195 H 978.084 3.12052 -0.185003 0
M  V30 10196 H 977.304 2.90781 -2.66158 0
M  V30 10197 H 978.592 4.05289 -3.07601 0
M  V30 10198 H 977.99 5.64774 -0.323497 0
M  V30 10199 H 976.547 6.47403 -0.755795 0
M  V30 10200 N 979.98 1.24838 0.961938 0
M  V30 10201 C 981.396 1.01502 1.23165 0
M  V30 10202 C 981.596 -0.272651 1.99647 0
M  V30 10203 O 980.652 -0.987297 2.32398 0
M  V30 10204 C 981.965 2.23366 2.01316 0
M  V30 10205 C 983.513 2.28051 2.14387 0
M  V30 10206 C 983.988 3.49552 2.95935 0
M  V30 10207 N 985.479 3.49904 3.03515 0
M  V30 10208 C 986.214 4.40577 3.66987 0
M  V30 10209 N 985.71 5.41512 4.3213 0
M  V30 10210 N 987.503 4.28275 3.64056 0
M  V30 10211 H 979.654 2.07576 0.450086 0
M  V30 10212 H 981.917 0.911205 0.261551 0
M  V30 10213 H 981.623 3.16913 1.5251 0
M  V30 10214 H 981.497 2.25949 3.02038 0
M  V30 10215 H 983.884 1.35032 2.62393 0
M  V30 10216 H 983.965 2.29491 1.12994 0
M  V30 10217 H 983.609 4.42889 2.4862 0
M  V30 10218 H 983.539 3.45357 3.97538 0
M  V30 10219 H 986.03 2.76885 2.57183 0
M  V30 10220 H 986.343 6.06924 4.78396 0
M  V30 10221 H 984.688 5.45393 4.3078 0
M  V30 10222 H 987.879 3.48653 3.12344 0
M  V30 10223 H 988.052 4.99138 4.13237 0
M  V30 10224 N 981.458 -1.16348 1.06306 0
M  V30 10225 C 982.874 -1.38873 0.786543 0
M  V30 10226 C 983.074 -1.91915 -0.614061 0
M  V30 10227 O 982.13 -2.11804 -1.3746 0
M  V30 10228 C 983.443 -2.36936 1.85154 0
M  V30 10229 C 984.991 -2.5062 1.87506 0
M  V30 10230 C 985.466 -3.51965 2.9306 0
M  V30 10231 N 986.957 -3.59492 2.92095 0
M  V30 10232 C 987.692 -4.37699 3.70415 0
M  V30 10233 N 987.188 -5.19327 4.58553 0
M  V30 10234 N 988.981 -4.32683 3.58806 0
M  V30 10235 H 981.132 -0.802542 1.96655 0
M  V30 10236 H 983.395 -0.415304 0.852189 0
M  V30 10237 H 983.101 -2.05056 2.85736 0
M  V30 10238 H 982.975 -3.36585 1.70267 0
M  V30 10239 H 985.362 -2.81804 0.875827 0
M  V30 10240 H 985.443 -1.51006 2.06472 0
M  V30 10241 H 985.087 -3.21518 3.93177 0
M  V30 10242 H 985.017 -4.51309 2.71344 0
M  V30 10243 H 987.508 -3.01222 2.28197 0
M  V30 10244 H 987.821 -5.76216 5.1497 0
M  V30 10245 H 986.166 -5.1867 4.62608 0
M  V30 10246 H 989.357 -3.67971 2.89335 0
M  V30 10247 H 989.53 -4.93386 4.20088 0
M  V30 10248 N 982.937 -0.845659 -1.3299 0
M  V30 10249 C 984.214 -0.366306 -1.92139 0
M  V30 10250 C 984.594 1.14912 -1.77083 0
M  V30 10251 O 983.942 1.96667 -1.16338 0
M  V30 10252 C 984.152 -0.820716 -3.39213 0
M  V30 10253 C 985.5 -0.832667 -4.16355 0
M  V30 10254 O 986.524 -0.764764 -3.47893 0
M  V30 10255 O 985.383 -0.926658 -5.38586 0
M  V30 10256 H 982.477 -0.105063 -0.820299 0
M  V30 10257 H 985.023 -0.931962 -1.41819 0
M  V30 10258 H 983.795 -1.86357 -3.44074 0
M  V30 10259 H 983.418 -0.232009 -3.96923 0
M  V30 10260 N 984.415 1.45619 -0.602734 0
M  V30 10261 C 985.662 2.02272 -0.0960337 0
M  V30 10262 C 985.99 1.47177 1.27159 0
M  V30 10263 O 985.245 0.634593 1.85125 0
M  V30 10264 C 985.544 3.574 -0.00157909 0
M  V30 10265 C 985.21 4.31626 -1.30422 0
M  V30 10266 C 983.872 4.51622 -1.66106 0
M  V30 10267 C 986.224 4.74091 -2.16535 0
M  V30 10268 C 983.552 5.11338 -2.87663 0
M  V30 10269 C 985.904 5.35151 -3.37336 0
M  V30 10270 C 984.568 5.53371 -3.73278 0
M  V30 10271 H 983.838 0.740166 -0.0351412 0
M  V30 10272 H 986.485 1.74744 -0.783382 0
M  V30 10273 H 984.79 3.84179 0.769008 0
M  V30 10274 H 986.487 3.98934 0.406549 0
M  V30 10275 H 983.077 4.16372 -1.01647 0
M  V30 10276 H 987.261 4.5838 -1.90266 0
M  V30 10277 H 982.517 5.23634 -3.15622 0
M  V30 10278 H 986.691 5.67011 -4.04316 0
M  V30 10279 H 984.318 5.99412 -4.67556 0
M  V30 10280 N 985.893 0.34162 1.53853 0
M  V30 10281 C 986.823 -0.508431 2.27897 0
M  V30 10282 C 987.804 -1.10425 1.29384 0
M  V30 10283 O 988.989 -1.126 1.58224 0
M  V30 10284 C 986.119 -1.66048 3.05034 0
M  V30 10285 C 985.073 -1.19309 4.11035 0
M  V30 10286 C 984.399 -2.4335 4.76114 0
M  V30 10287 C 985.699 -0.294952 5.21467 0
M  V30 10288 H 987.393 0.109251 2.99201 0
M  V30 10289 H 984.939 0.0539847 1.43899 0
M  V30 10290 H 986.892 -2.26158 3.5557 0
M  V30 10291 H 985.616 -2.30503 2.31379 0
M  V30 10292 H 984.275 -0.614809 3.61408 0
M  V30 10293 H 983.923 -3.06208 3.99056 0
M  V30 10294 H 983.623 -2.1276 5.47729 0
M  V30 10295 H 985.147 -3.0419 5.29434 0
M  V30 10296 H 986.561 -0.80285 5.67651 0
M  V30 10297 H 984.958 -0.0810221 6.00045 0
M  V30 10298 H 986.028 0.669433 4.80257 0
M  V30 10299 N 987.371 -1.57444 0.0701946 0
M  V30 10300 C 988.596 -1.98171 -0.61181 0
M  V30 10301 C 989.021 -0.94823 -1.62451 0
M  V30 10302 O 988.379 0.0863553 -1.81094 0
M  V30 10303 C 988.427 -3.37934 -1.2583 0
M  V30 10304 O 987.531 -3.37207 -2.37414 0
M  V30 10305 H 986.872 -0.645056 -0.157477 0
M  V30 10306 H 989.402 -2.04091 0.144235 0
M  V30 10307 H 989.412 -3.75083 -1.60552 0
M  V30 10308 H 988.087 -4.12684 -0.516234 0
M  V30 10309 H 986.664 -3.11826 -2.04497 0
M  V30 10310 N 988.849 0.203349 -1.56283 0
M  V30 10311 C 989.759 1.27266 -1.9708 0
M  V30 10312 C 990.775 1.50268 -0.877236 0
M  V30 10313 O 991.951 1.63044 -1.18231 0
M  V30 10314 C 989.016 2.59871 -2.29495 0
M  V30 10315 C 988.077 2.45012 -3.52516 0
M  V30 10316 C 987.31 3.71293 -3.83376 0
M  V30 10317 O 987.533 4.75106 -3.15643 0
M  V30 10318 O 986.467 3.67316 -4.76826 0
M  V30 10319 H 990.293 0.956461 -2.88246 0
M  V30 10320 H 987.878 0.407688 -1.4373 0
M  V30 10321 H 989.76 3.38152 -2.51458 0
M  V30 10322 H 988.435 2.91135 -1.415 0
M  V30 10323 H 987.342 1.6487 -3.35811 0
M  V30 10324 H 988.675 2.18683 -4.40952 0
M  V30 10325 N 990.327 1.50405 0.470755 0
M  V30 10326 C 991.29 1.68741 1.5511 0
M  V30 10327 C 992.29 0.558116 1.50804 0
M  V30 10328 O 993.48 0.825149 1.53418 0
M  V30 10329 C 990.612 1.71295 2.94739 0
M  V30 10330 H 991.805 2.65127 1.40169 0
M  V30 10331 H 989.358 1.39891 0.697156 0
M  V30 10332 H 990.093 0.766029 3.15123 0
M  V30 10333 H 989.878 2.53336 2.99271 0
M  V30 10334 H 991.368 1.87434 3.73173 0
M  V30 10335 N 991.805 -0.723954 1.39988 0
M  V30 10336 C 993.03 -1.5182 1.41299 0
M  V30 10337 C 993.455 -1.88096 0.0122636 0
M  V30 10338 O 992.813 -1.52687 -0.977559 0
M  V30 10339 C 992.861 -2.77532 2.30235 0
M  V30 10340 O 991.965 -3.73903 1.73984 0
M  V30 10341 H 991.306 -0.458058 0.480707 0
M  V30 10342 H 993.836 -0.892291 1.84118 0
M  V30 10343 H 993.846 -3.2615 2.45132 0
M  V30 10344 H 992.521 -2.50462 3.32026 0
M  V30 10345 H 991.098 -3.32715 1.68389 0
M  V30 10346 N 993.283 -1.25346 -0.955304 0
M  V30 10347 C 994.532 -1.0945 -1.69421 0
M  V30 10348 C 994.845 0.364459 -1.92175 0
M  V30 10349 O 996.051 0.643843 -2.63755 0
M  V30 10350 C 994.507 -1.91045 -3.05008 0
M  V30 10351 C 994.115 -3.41428 -2.90053 0
M  V30 10352 C 995.859 -1.83716 -3.82686 0
M  V30 10353 C 993.766 -4.1532 -4.21026 0
M  V30 10354 H 992.696 -0.405978 -0.635372 0
M  V30 10355 H 995.347 -1.49536 -1.06354 0
M  V30 10356 H 993.729 -1.43781 -3.68975 0
M  V30 10357 H 994.903 -3.9636 -2.35022 0
M  V30 10358 H 993.218 -3.49842 -2.25831 0
M  V30 10359 H 995.815 -2.36217 -4.79693 0
M  V30 10360 H 996.158 -0.804919 -4.08444 0
M  V30 10361 H 996.691 -2.28726 -3.25468 0
M  V30 10362 H 993.43 -5.18955 -4.00457 0
M  V30 10363 H 992.95 -3.65172 -4.75825 0
M  V30 10364 H 994.629 -4.22999 -4.89572 0
M  V30 10365 N 994.761 1.15782 -1.06922 0
M  V30 10366 C 995.694 2.19336 -0.629837 0
M  V30 10367 C 996.672 1.58774 0.350663 0
M  V30 10368 O 997.856 1.86724 0.258124 0
M  V30 10369 C 994.983 3.38615 0.0757526 0
M  V30 10370 C 994.029 4.17688 -0.862503 0
M  V30 10371 S 994.862 4.80634 -2.36117 0
M  V30 10372 C 996.018 6.03286 -1.66725 0
M  V30 10373 H 996.251 2.56267 -1.50714 0
M  V30 10374 H 993.784 1.26674 -0.882776 0
M  V30 10375 H 995.742 4.07724 0.476611 0
M  V30 10376 H 994.403 3.00037 0.929332 0
M  V30 10377 H 993.596 5.03012 -0.315461 0
M  V30 10378 H 993.198 3.54106 -1.20354 0
M  V30 10379 H 995.49 6.70426 -0.976472 0
M  V30 10380 H 996.433 6.62551 -2.49864 0
M  V30 10381 H 996.841 5.52722 -1.14711 0
M  V30 10382 N 996.239 0.8527 1.3254 0
M  V30 10383 C 997.487 0.454224 1.96929 0
M  V30 10384 C 997.808 -0.993034 1.67821 0
M  V30 10385 O 997.078 -1.69371 0.984393 0
M  V30 10386 H 995.658 0.164977 0.728554 0
M  V30 10387 H 998.32 1.0887 1.61658 0
M  V30 10388 H 997.416 0.597667 3.06324 0
M  V30 10389 N 997.718 -1.45297 0.610449 0
M  V30 10390 C 998.65 -2.28742 -0.144884 0
M  V30 10391 C 999.663 -1.40114 -0.828977 0
M  V30 10392 O 1000.85 -1.64461 -0.693887 0
M  V30 10393 C 997.952 -3.15934 -1.22632 0
M  V30 10394 C 997.125 -4.32857 -0.628785 0
M  V30 10395 C 996.184 -5.01237 -1.60148 0
M  V30 10396 O 995.21 -5.57938 -1.12667 0
M  V30 10397 N 996.412 -5.00785 -2.9359 0
M  V30 10398 H 999.177 -2.94207 0.571145 0
M  V30 10399 H 996.738 -1.55517 0.450134 0
M  V30 10400 H 998.73 -3.58545 -1.87691 0
M  V30 10401 H 997.3 -2.52358 -1.84483 0
M  V30 10402 H 996.52 -3.93693 0.199951 0
M  V30 10403 H 997.808 -5.08367 -0.209845 0
M  V30 10404 H 997.206 -4.56014 -3.34765 0
M  V30 10405 H 995.763 -5.4725 -3.54064 0
M  V30 10406 N 999.196 -0.349774 -1.5367 0
M  V30 10407 C 1000.44 0.244827 -2.01015 0
M  V30 10408 C 1000.77 1.50057 -1.23746 0
M  V30 10409 O 1000.03 1.9315 -0.314872 0
M  V30 10410 C 1000.32 0.598311 -3.52356 0
M  V30 10411 C 999.991 -0.56127 -4.47393 0
M  V30 10412 C 998.653 -0.879481 -4.73095 0
M  V30 10413 C 1001 -1.3389 -5.03709 0
M  V30 10414 C 998.333 -1.97758 -5.52366 0
M  V30 10415 C 1000.68 -2.4273 -5.84179 0
M  V30 10416 C 999.349 -2.75103 -6.08173 0
M  V30 10417 H 998.619 0.0895884 -0.735564 0
M  V30 10418 H 1001.27 -0.478975 -1.85413 0
M  V30 10419 H 999.571 1.40291 -3.65822 0
M  V30 10420 H 1001.27 1.07036 -3.86451 0
M  V30 10421 H 997.858 -0.303201 -4.27526 0
M  V30 10422 H 1002.04 -1.10632 -4.83812 0
M  V30 10423 H 997.298 -2.23257 -5.6918 0
M  V30 10424 H 1001.47 -3.03412 -6.26828 0
M  V30 10425 H 999.099 -3.60317 -6.69385 0
M  V30 10426 N 1000.67 1.57404 -0.0785433 0
M  V30 10427 C 1001.95 1.85163 0.630389 0
M  V30 10428 C 1002.33 0.972295 1.87376 0
M  V30 10429 O 1001.68 0.0403375 2.28464 0
M  V30 10430 C 1001.89 3.35491 0.961604 0
M  V30 10431 C 1003.24 4.0316 1.33219 0
M  V30 10432 O 1004.26 3.40276 1.05313 0
M  V30 10433 O 1003.12 5.14086 1.85412 0
M  V30 10434 H 1000.21 0.765169 0.31376 0
M  V30 10435 H 1002.76 1.69343 -0.109986 0
M  V30 10436 H 1001.53 3.91221 0.0788113 0
M  V30 10437 H 1001.15 3.56598 1.75852 0
M  V30 10438 N 1002.15 -0.195058 1.56388 0
M  V30 10439 C 1003.1 -1.24584 1.90952 0
M  V30 10440 C 1004.09 -1.40993 0.77522 0
M  V30 10441 O 1005.28 -1.43363 1.03808 0
M  V30 10442 C 1002.41 -2.59064 2.25258 0
M  V30 10443 C 1001.49 -2.46447 3.45145 0
M  V30 10444 N 1001.88 -2.0351 4.63052 0
M  V30 10445 C 1000.18 -2.77339 3.49283 0
M  V30 10446 C 1000.88 -2.02785 5.45209 0
M  V30 10447 N 999.859 -2.4429 4.85616 0
M  V30 10448 H 1003.66 -0.9052 2.79613 0
M  V30 10449 H 1001.17 -0.403493 1.57308 0
M  V30 10450 H 1003.17 -3.34963 2.48205 0
M  V30 10451 H 1001.83 -2.93951 1.37924 0
M  V30 10452 H 1002.84 -1.74219 4.87717 0
M  V30 10453 H 999.52 -3.16423 2.72365 0
M  V30 10454 H 1000.91 -1.71489 6.49647 0
M  V30 10455 N 1003.63 -1.50653 -0.462772 0
M  V30 10456 C 1005.04 -1.54821 -1.04342 0
M  V30 10457 C 1005.39 -0.356595 -1.92932 0
M  V30 10458 O 1004.52 0.529579 -2.0982 0
M  V30 10459 C 1005.11 -2.80571 -1.89909 0
M  V30 10460 C 1003.67 -2.87394 -2.43067 0
M  V30 10461 C 1002.82 -2.49206 -1.21621 0
M  V30 10462 H 1005.77 -1.56797 -0.245048 0
M  V30 10463 H 1005.79 -2.62897 -2.75074 0
M  V30 10464 H 1005.3 -3.67281 -1.25405 0
M  V30 10465 H 1003.4 -2.05055 -3.111 0
M  V30 10466 H 1003.52 -3.90477 -2.77605 0
M  V30 10467 H 1001.88 -2.01829 -1.55361 0
M  V30 10468 H 1002.66 -3.38233 -0.587669 0
M  V30 10469 N 1005.11 0.71652 -1.4037 0
M  V30 10470 C 1006.06 1.85194 -1.40734 0
M  V30 10471 C 1007.05 1.66934 -0.287969 0
M  V30 10472 O 1008.26 1.74051 -0.458957 0
M  V30 10473 H 1004.63 0.609922 -0.439885 0
M  V30 10474 H 1006.6 1.82003 -2.36468 0
M  V30 10475 C 1005.35 3.23048 -1.28589 0
M  V30 10476 H 1004.67 3.37704 -2.13999 0
M  V30 10477 H 1006.11 4.02633 -1.32902 0
M  V30 10478 C 1004.57 3.369 0.00396512 0
M  V30 10479 O 1005.1 3.89881 0.967243 0
M  V30 10480 N 1003.31 2.90508 0.0731565 0
M  V30 10481 H 1002.86 2.4758 -0.711454 0
M  V30 10482 H 1002.81 3.00155 0.935652 0
M  V30 10483 N 1006.59 1.25851 0.948643 0
M  V30 10484 C 1007.84 1.10347 1.68838 0
M  V30 10485 C 1008.15 -0.354262 1.92365 0
M  V30 10486 O 1009.35 -0.629847 2.64093 0
M  V30 10487 C 1007.81 1.92659 3.03991 0
M  V30 10488 C 1007.42 3.42962 2.88238 0
M  V30 10489 C 1009.16 1.85743 3.81707 0
M  V30 10490 C 1007.07 4.17547 4.18818 0
M  V30 10491 H 1006 0.409342 0.63321 0
M  V30 10492 H 1008.65 1.50098 1.05559 0
M  V30 10493 H 1007.03 1.45736 3.68208 0
M  V30 10494 H 1008.21 3.97601 2.32917 0
M  V30 10495 H 1006.52 3.51035 2.23972 0
M  V30 10496 H 1009.12 2.38758 4.78434 0
M  V30 10497 H 1009.46 0.826568 4.08012 0
M  V30 10498 H 1009.99 2.30449 3.2425 0
M  V30 10499 H 1006.73 5.21072 3.97699 0
M  V30 10500 H 1006.25 3.6769 4.73882 0
M  V30 10501 H 1007.93 4.25589 4.87322 0
M  V30 10502 N 1008.06 -1.15214 1.07534 0
M  V30 10503 C 1009.31 -1.85388 0.794617 0
M  V30 10504 C 1009.63 -1.83331 -0.681838 0
M  V30 10505 O 1010.83 -2.49207 -1.0774 0
M  V30 10506 C 1009.29 -3.32747 1.37141 0
M  V30 10507 C 1008.9 -3.43244 2.87902 0
M  V30 10508 C 1010.64 -4.08093 1.16879 0
M  V30 10509 C 1008.55 -4.84762 3.38763 0
M  V30 10510 H 1007.48 -0.694499 0.293577 0
M  V30 10511 H 1010.13 -1.29944 1.29564 0
M  V30 10512 H 1008.51 -3.87874 0.798121 0
M  V30 10513 H 1009.68 -2.98214 3.51291 0
M  V30 10514 H 1008 -2.81345 3.06975 0
M  V30 10515 H 1010.6 -5.12535 1.52353 0
M  V30 10516 H 1010.94 -4.1616 0.107958 0
M  V30 10517 H 1011.47 -3.59241 1.70854 0
M  V30 10518 H 1008.21 -4.81879 4.4438 0
M  V30 10519 H 1007.73 -5.30366 2.80128 0
M  V30 10520 H 1009.41 -5.53624 3.34827 0
M  V30 10521 N 1009.54 -0.859717 -1.32086 0
M  V30 10522 C 1010.49 -0.279715 -2.26278 0
M  V30 10523 C 1011.48 0.577348 -1.50185 0
M  V30 10524 O 1012.67 0.425903 -1.71799 0
M  V30 10525 C 1009.8 0.526622 -3.39237 0
M  V30 10526 C 1008.88 -0.343112 -4.2271 0
M  V30 10527 N 1009.27 -1.43176 -4.85113 0
M  V30 10528 C 1007.57 -0.133744 -4.45799 0
M  V30 10529 C 1008.27 -1.96725 -5.47425 0
M  V30 10530 N 1007.25 -1.26569 -5.2866 0
M  V30 10531 H 1011.05 -1.11191 -2.72055 0
M  V30 10532 H 1008.57 -0.706372 -1.46233 0
M  V30 10533 H 1010.56 0.958587 -4.0573 0
M  V30 10534 H 1009.22 1.35655 -2.95005 0
M  V30 10535 H 1010.23 -1.81469 -4.85066 0
M  V30 10536 H 1006.91 0.661064 -4.12233 0
M  V30 10537 H 1008.3 -2.88006 -6.07044 0
M  V30 10538 N 1011.02 1.44971 -0.618145 0
M  V30 10539 C 1011.95 2.33357 0.0815955 0
M  V30 10540 C 1012.93 1.47451 0.848072 0
M  V30 10541 O 1014.12 1.762 0.816532 0
M  V30 10542 C 1011.25 3.30324 1.07253 0
M  V30 10543 C 1010.2 4.25948 0.418563 0
M  V30 10544 C 1009.53 5.12685 1.51849 0
M  V30 10545 C 1010.83 5.18024 -0.66697 0
M  V30 10546 H 1012.52 2.92115 -0.656442 0
M  V30 10547 H 1010.07 1.40465 -0.317129 0
M  V30 10548 H 1012.02 3.91033 1.57069 0
M  V30 10549 H 1010.74 2.69748 1.8413 0
M  V30 10550 H 1009.4 3.66553 -0.0588308 0
M  V30 10551 H 1009.05 4.4847 2.2778 0
M  V30 10552 H 1008.75 5.7747 1.08637 0
M  V30 10553 H 1010.27 5.76264 2.01871 0
M  V30 10554 H 1011.69 5.72744 -0.252448 0
M  V30 10555 H 1010.09 5.91343 -1.02146 0
M  V30 10556 H 1011.16 4.59817 -1.53936 0
M  V30 10557 N 1012.5 0.357919 1.53482 0
M  V30 10558 C 1013.41 -0.500273 2.29204 0
M  V30 10559 C 1014.42 -1.09936 1.3487 0
M  V30 10560 O 1015.6 -1.11195 1.67921 0
M  V30 10561 C 1012.67 -1.62828 3.06085 0
M  V30 10562 C 1011.73 -1.05751 4.16071 0
M  V30 10563 C 1010.96 -2.13176 4.89277 0
M  V30 10564 O 1011.18 -3.34153 4.62274 0
M  V30 10565 O 1010.12 -1.76663 5.7539 0
M  V30 10566 H 1013.94 0.115696 3.0348 0
M  V30 10567 H 1011.53 0.122527 1.48897 0
M  V30 10568 H 1013.41 -2.28427 3.54117 0
M  V30 10569 H 1012.08 -2.22979 2.34653 0
M  V30 10570 H 1010.99 -0.365642 3.72309 0
M  V30 10571 H 1012.32 -0.500661 4.89647 0
M  V30 10572 N 1013.98 -1.5736 0.0868897 0
M  V30 10573 C 1015.22 -1.9367 -0.577598 0
M  V30 10574 C 1015.55 -0.968844 -1.69229 0
M  V30 10575 O 1014.82 -0.0195061 -1.9589 0
M  V30 10576 H 1013.4 -0.714983 -0.216353 0
M  V30 10577 H 1016.06 -1.94335 0.148294 0
M  V30 10578 H 1015.15 -2.95877 -0.993128 0
M  V30 10579 N 1015.45 0.186762 -1.56489 0
M  V30 10580 C 1016.7 0.907194 -1.81378 0
M  V30 10581 C 1017.03 1.82558 -0.662283 0
M  V30 10582 O 1016.31 1.91564 0.336699 0
M  V30 10583 C 1016.59 1.71624 -3.16571 0
M  V30 10584 C 1016.44 0.822009 -4.42225 0
M  V30 10585 C 1017.76 2.68713 -3.48542 0
M  V30 10586 H 1014.88 0.328366 -0.659806 0
M  V30 10587 H 1017.52 0.174142 -1.892 0
M  V30 10588 H 1015.67 2.34119 -3.10033 0
M  V30 10589 H 1017.35 0.211122 -4.60817 0
M  V30 10590 H 1015.59 0.129178 -4.33608 0
M  V30 10591 H 1016.26 1.42326 -5.33336 0
M  V30 10592 H 1018.74 2.16348 -3.55433 0
M  V30 10593 H 1017.61 3.22397 -4.44242 0
M  V30 10594 H 1017.87 3.48165 -2.72459 0
M  V30 10595 N 1016.93 1.50896 0.454776 0
M  V30 10596 C 1018.18 1.6294 1.20741 0
M  V30 10597 C 1018.51 0.336339 1.91265 0
M  V30 10598 O 1017.79 -0.663153 1.82846 0
M  V30 10599 C 1018.07 2.82092 2.23822 0
M  V30 10600 C 1017.92 4.21326 1.57495 0
M  V30 10601 C 1019.24 2.96777 3.24979 0
M  V30 10602 H 1016.36 0.59302 0.437603 0
M  V30 10603 H 1019 1.83331 0.498959 0
M  V30 10604 H 1017.15 2.64837 2.84243 0
M  V30 10605 H 1018.82 4.50209 1.00546 0
M  V30 10606 H 1017.07 4.24829 0.877664 0
M  V30 10607 H 1017.74 5.00656 2.32482 0
M  V30 10608 H 1020.21 3.12627 2.74597 0
M  V30 10609 H 1019.09 3.81742 3.94416 0
M  V30 10610 H 1019.35 2.08091 3.90065 0
M  V30 10611 N 1018.41 -0.709066 1.40748 0
M  V30 10612 C 1019.64 -1.49808 1.42707 0
M  V30 10613 C 1020.05 -1.88778 0.0285574 0
M  V30 10614 O 1019.41 -1.55883 -0.949035 0
M  V30 10615 C 1019.46 -2.76926 2.32366 0
M  V30 10616 O 1019.18 -2.39602 3.66773 0
M  V30 10617 C 1020.68 -3.70773 2.42986 0
M  V30 10618 H 1017.9 -0.462106 0.486517 0
M  V30 10619 H 1020.45 -0.874135 1.84876 0
M  V30 10620 H 1018.6 -3.3559 1.93541 0
M  V30 10621 H 1019.02 -3.21443 4.14457 0
M  V30 10622 H 1020.49 -4.56789 3.09916 0
M  V30 10623 H 1020.97 -4.14332 1.45691 0
M  V30 10624 H 1021.57 -3.18019 2.8239 0
M  V30 10625 N 1019.89 -1.26353 -0.941956 0
M  V30 10626 C 1020.84 -1.07842 -2.04056 0
M  V30 10627 C 1021.81 0.0163064 -1.66092 0
M  V30 10628 O 1022.99 -0.143313 -1.90261 0
M  V30 10629 C 1020.13 -0.716636 -3.37577 0
M  V30 10630 C 1019.24 -1.88754 -3.88582 0
M  V30 10631 C 1018.38 -1.46893 -5.10486 0
M  V30 10632 C 1017.42 -2.60819 -5.53751 0
M  V30 10633 N 1016.56 -2.19646 -6.66858 0
M  V30 10634 H 1021.4 -2.01856 -2.19221 0
M  V30 10635 H 1018.93 -1.00504 -1.07412 0
M  V30 10636 H 1020.89 -0.487768 -4.14339 0
M  V30 10637 H 1019.52 0.18653 -3.22261 0
M  V30 10638 H 1018.57 -2.22936 -3.08227 0
M  V30 10639 H 1019.88 -2.74264 -4.1663 0
M  V30 10640 H 1019.04 -1.20047 -5.94705 0
M  V30 10641 H 1017.78 -0.584721 -4.84182 0
M  V30 10642 H 1016.78 -2.88396 -4.6809 0
M  V30 10643 H 1018.01 -3.49838 -5.82057 0
M  V30 10644 H 1015.95 -1.33657 -6.4224 0
M  V30 10645 H 1015.87 -2.987 -6.94489 0
M  V30 10646 H 1017.14 -1.96009 -7.54454 0
M  V30 10647 N 1021.37 1.14642 -1.08144 0
M  V30 10648 C 1022.61 1.87277 -0.818953 0
M  V30 10649 C 1022.97 1.80896 0.643482 0
M  V30 10650 O 1024.17 2.4864 1.02135 0
M  V30 10651 C 1022.44 3.32006 -1.32314 0
M  V30 10652 S 1024 4.22284 -1.19256 0
M  V30 10653 H 1020.82 0.646204 -0.29655 0
M  V30 10654 H 1023.42 1.38261 -1.38217 0
M  V30 10655 H 1022.13 3.34197 -2.38203 0
M  V30 10656 H 1021.66 3.86078 -0.75548 0
M  V30 10657 H 1023.67 4.96016 -0.135143 0
M  V30 10658 N 1022.85 0.866709 1.31628 0
M  V30 10659 C 1023.79 0.318169 2.28596 0
M  V30 10660 C 1024.76 -0.581558 1.55586 0
M  V30 10661 O 1025.95 -0.513895 1.83749 0
M  V30 10662 C 1023.09 -0.477137 3.41786 0
M  V30 10663 C 1022.2 0.449739 4.29653 0
M  V30 10664 C 1021.34 -0.359373 5.29983 0
M  V30 10665 C 1020.37 0.564138 6.09495 0
M  V30 10666 N 1019.51 -0.208526 7.0179 0
M  V30 10667 H 1024.35 1.15029 2.74904 0
M  V30 10668 H 1021.89 0.578649 1.35241 0
M  V30 10669 H 1023.85 -0.953985 4.06146 0
M  V30 10670 H 1022.48 -1.27398 2.96597 0
M  V30 10671 H 1021.53 1.04502 3.65764 0
M  V30 10672 H 1022.84 1.158 4.85172 0
M  V30 10673 H 1021.99 -0.89887 6.00004 0
M  V30 10674 H 1020.73 -1.10094 4.75111 0
M  V30 10675 H 1019.74 1.11542 5.38366 0
M  V30 10676 H 1020.96 1.30451 6.66453 0
M  V30 10677 H 1018.91 -0.932969 6.49332 0
M  V30 10678 H 1018.83 0.440463 7.54716 0
M  V30 10679 H 1020.09 -0.72936 7.7608 0
M  V30 10680 N 1024.32 -1.44642 0.625825 0
M  V30 10681 C 1025.73 -1.85502 0.211175 0
M  V30 10682 C 1026.09 -1.52356 -1.2362 0
M  V30 10683 O 1025.21 -0.959051 -1.93988 0
M  V30 10684 C 1025.81 -3.36702 0.37648 0
M  V30 10685 C 1024.36 -3.76396 0.0163795 0
M  V30 10686 C 1023.51 -2.68517 0.692368 0
M  V30 10687 H 1026.46 -1.35183 0.831333 0
M  V30 10688 H 1026.48 -3.78536 -0.386106 0
M  V30 10689 H 1026 -3.60795 1.42999 0
M  V30 10690 H 1024.1 -3.57919 -1.0356 0
M  V30 10691 H 1024.21 -4.77231 0.422742 0
M  V30 10692 H 1022.57 -2.54377 0.128191 0
M  V30 10693 H 1023.36 -2.95444 1.74837 0
M  V30 10694 N 1025.8 -0.366053 -1.5329 0
M  V30 10695 C 1027.05 0.223824 -2.01561 0
M  V30 10696 C 1027.38 1.48382 -1.25286 0
M  V30 10697 O 1026.66 1.91385 -0.34669 0
M  V30 10698 C 1026.94 0.5153 -3.56394 0
M  V30 10699 C 1026.79 -0.758357 -4.43361 0
M  V30 10700 C 1028.11 1.31568 -4.19974 0
M  V30 10701 H 1025.23 0.0798751 -0.732659 0
M  V30 10702 H 1027.87 -0.491038 -1.83545 0
M  V30 10703 H 1026.02 1.12429 -3.71876 0
M  V30 10704 H 1027.69 -1.39584 -4.39675 0
M  V30 10705 H 1025.94 -1.37862 -4.11311 0
M  V30 10706 H 1026.61 -0.509366 -5.49645 0
M  V30 10707 H 1029.08 0.800514 -4.08327 0
M  V30 10708 H 1027.96 1.48837 -5.28336 0
M  V30 10709 H 1028.22 2.32432 -3.76069 0
M  V30 10710 N 1027.28 1.57312 -0.0952337 0
M  V30 10711 C 1028.21 2.09691 0.900274 0
M  V30 10712 C 1029.19 1.0075 1.27625 0
M  V30 10713 O 1030.37 1.28249 1.38147 0
M  V30 10714 C 1027.5 2.574 2.20142 0
M  V30 10715 C 1026.55 3.78 1.9753 0
M  V30 10716 S 1027.38 5.21577 1.21318 0
M  V30 10717 C 1028.54 5.72636 2.52663 0
M  V30 10718 H 1028.77 2.93803 0.45467 0
M  V30 10719 H 1026.3 1.53948 0.118056 0
M  V30 10720 H 1028.26 2.85546 2.94914 0
M  V30 10721 H 1026.92 1.73514 2.61824 0
M  V30 10722 H 1026.11 4.09451 2.93881 0
M  V30 10723 H 1025.72 3.50349 1.30888 0
M  V30 10724 H 1028.01 5.80911 3.48638 0
M  V30 10725 H 1028.95 6.71136 2.25791 0
M  V30 10726 H 1029.36 5.00569 2.60943 0
M  V30 10727 N 1028.76 -0.17846 1.56586 0
M  V30 10728 C 1030.01 -0.894502 1.8078 0
M  V30 10729 C 1030.32 -1.8372 0.67129 0
M  V30 10730 O 1031.53 -2.59509 0.797971 0
M  V30 10731 C 1029.98 -1.64109 3.20306 0
M  V30 10732 C 1029.59 -0.742387 4.41806 0
M  V30 10733 C 1031.33 -2.34578 3.53798 0
M  V30 10734 C 1029.24 -1.4888 5.72354 0
M  V30 10735 H 1028.17 -0.33776 0.674117 0
M  V30 10736 H 1030.82 -0.14752 1.82906 0
M  V30 10737 H 1029.2 -2.43257 3.12477 0
M  V30 10738 H 1030.38 0.011615 4.60799 0
M  V30 10739 H 1028.69 -0.147705 4.16138 0
M  V30 10740 H 1031.29 -2.91004 4.48577 0
M  V30 10741 H 1031.63 -3.09572 2.78336 0
M  V30 10742 H 1032.17 -1.62381 3.63149 0
M  V30 10743 H 1028.9 -0.781325 6.50827 0
M  V30 10744 H 1028.42 -2.21631 5.57351 0
M  V30 10745 H 1030.1 -2.03819 6.14058 0
M  V30 10746 N 1030.24 -1.51135 -0.446768 0
M  V30 10747 C 1031.48 -1.62571 -1.19388 0
M  V30 10748 C 1031.8 -0.3432 -1.92566 0
M  V30 10749 O 1033 -0.336804 -2.69403 0
M  V30 10750 C 1031.46 -2.87071 -2.17068 0
M  V30 10751 C 1031.07 -4.22291 -1.49581 0
M  V30 10752 C 1032.81 -3.07862 -2.9227 0
M  V30 10753 C 1030.72 -5.3795 -2.45689 0
M  V30 10754 H 1029.65 -0.60549 -0.449331 0
M  V30 10755 H 1032.3 -1.77593 -0.461846 0
M  V30 10756 H 1030.68 -2.65662 -2.93666 0
M  V30 10757 H 1031.86 -4.54046 -0.786054 0
M  V30 10758 H 1030.17 -4.07302 -0.865677 0
M  V30 10759 H 1032.77 -3.91444 -3.64246 0
M  V30 10760 H 1033.11 -2.20559 -3.53072 0
M  V30 10761 H 1033.64 -3.29566 -2.2278 0
M  V30 10762 H 1030.38 -6.27484 -1.89591 0
M  V30 10763 H 1029.9 -5.10583 -3.14746 0
M  V30 10764 H 1031.58 -5.69517 -3.07017 0
M  V30 10765 N 1031.71 0.701592 -1.41122 0
M  V30 10766 C 1032.94 1.49049 -1.43499 0
M  V30 10767 C 1033.36 1.88761 -0.0385684 0
M  V30 10768 O 1032.71 1.56384 0.940755 0
M  V30 10769 C 1032.76 2.7569 -2.33832 0
M  V30 10770 O 1032.49 2.37653 -3.68039 0
M  V30 10771 C 1033.99 3.69479 -2.44949 0
M  V30 10772 H 1031.21 0.459519 -0.488961 0
M  V30 10773 H 1033.75 0.864318 -1.85337 0
M  V30 10774 H 1031.91 3.34559 -1.95318 0
M  V30 10775 H 1032.32 3.19241 -4.16156 0
M  V30 10776 H 1033.79 4.55139 -3.12334 0
M  V30 10777 H 1034.27 4.13553 -1.47887 0
M  V30 10778 H 1034.88 3.16517 -2.84072 0
M  V30 10779 N 1033.19 1.2685 0.935242 0
M  V30 10780 C 1034.1 1.10716 2.06831 0
M  V30 10781 C 1035.12 0.0391222 1.73956 0
M  V30 10782 O 1036.29 0.244071 1.99916 0
M  V30 10783 C 1033.36 0.748093 3.38533 0
M  V30 10784 C 1032.42 1.89619 3.85153 0
M  V30 10785 C 1031.65 1.55416 5.1057 0
M  V30 10786 O 1031.88 0.458596 5.68553 0
M  V30 10787 O 1030.81 2.39087 5.52378 0
M  V30 10788 H 1034.64 2.05785 2.23352 0
M  V30 10789 H 1032.22 1.05967 1.05315 0
M  V30 10790 H 1034.1 0.560841 4.17651 0
M  V30 10791 H 1032.78 -0.173142 3.23237 0
M  V30 10792 H 1031.68 2.13845 3.06954 0
M  V30 10793 H 1033.02 2.79737 4.04979 0
M  V30 10794 N 1034.67 -1.14067 1.0875 0
M  V30 10795 C 1035.9 -1.88767 0.839682 0
M  V30 10796 C 1036.31 -1.79024 -0.612119 0
M  V30 10797 O 1035.65 -1.14986 -1.43262 0
M  V30 10798 C 1035.71 -3.39333 1.18716 0
M  V30 10799 C 1035.38 -3.72858 2.64245 0
M  V30 10800 C 1036.37 -3.72683 3.62496 0
M  V30 10801 C 1034.06 -4.0273 3.0019 0
M  V30 10802 C 1036.05 -4.01909 4.9472 0
M  V30 10803 C 1033.74 -4.31618 4.32607 0
M  V30 10804 C 1034.74 -4.31192 5.29682 0
M  V30 10805 O 1034.43 -4.59377 6.59718 0
M  V30 10806 H 1034.16 -0.604665 0.302253 0
M  V30 10807 H 1036.71 -1.45364 1.45115 0
M  V30 10808 H 1034.94 -3.83205 0.518707 0
M  V30 10809 H 1036.63 -3.95346 0.919599 0
M  V30 10810 H 1037.4 -3.49688 3.3607 0
M  V30 10811 H 1033.28 -4.02213 2.25268 0
M  V30 10812 H 1036.82 -4.01491 5.70483 0
M  V30 10813 H 1032.72 -4.54083 4.58779 0
M  V30 10814 H 1033.49 -4.77078 6.65086 0
M  V30 10815 N 1036.15 -0.873678 -1.31166 0
M  V30 10816 C 1037.08 -0.276805 -2.26515 0
M  V30 10817 C 1038.06 0.596166 -1.51277 0
M  V30 10818 O 1039.24 0.548769 -1.80335 0
M  V30 10819 C 1036.37 0.607711 -3.33203 0
M  V30 10820 C 1035.42 -0.194411 -4.26057 0
M  V30 10821 S 1036.25 -1.57534 -5.11804 0
M  V30 10822 C 1037.41 -0.697047 -6.22006 0
M  V30 10823 H 1037.64 -1.08505 -2.76792 0
M  V30 10824 H 1035.17 -0.672419 -1.38989 0
M  V30 10825 H 1037.13 1.11234 -3.95142 0
M  V30 10826 H 1035.79 1.38994 -2.81673 0
M  V30 10827 H 1034.98 0.480094 -5.01708 0
M  V30 10828 H 1034.59 -0.631262 -3.68634 0
M  V30 10829 H 1036.88 0.0907919 -6.77439 0
M  V30 10830 H 1037.82 -1.42481 -6.93617 0
M  V30 10831 H 1038.23 -0.262954 -5.63887 0
M  V30 10832 N 1037.63 1.44308 -0.633487 0
M  V30 10833 C 1038.54 2.34492 0.0711787 0
M  V30 10834 C 1039.55 1.52754 0.8332 0
M  V30 10835 O 1040.73 1.85475 0.784929 0
M  V30 10836 C 1037.79 3.30767 1.03895 0
M  V30 10837 C 1036.85 4.28412 0.276043 0
M  V30 10838 C 1036.09 5.20087 1.19772 0
M  V30 10839 O 1036.31 5.15743 2.4365 0
M  V30 10840 O 1035.24 5.98038 0.680764 0
M  V30 10841 H 1039.07 2.96203 -0.67063 0
M  V30 10842 H 1036.66 1.4412 -0.393678 0
M  V30 10843 H 1038.54 3.90021 1.59566 0
M  V30 10844 H 1037.21 2.71586 1.76133 0
M  V30 10845 H 1036.12 3.72696 -0.32377 0
M  V30 10846 H 1037.45 4.9052 -0.406364 0
M  V30 10847 N 1039.1 0.374177 1.53094 0
M  V30 10848 C 1040.05 -0.48326 2.27524 0
M  V30 10849 C 1041.05 -1.07606 1.30833 0
M  V30 10850 O 1042.25 -1.01827 1.48429 0
M  V30 10851 H 1038.63 -0.174578 0.731455 0
M  V30 10852 H 1040.6 0.166156 2.97937 0
M  V30 10853 C 1039.35 -1.6065 3.08362 0
M  V30 10854 H 1038.67 -1.15966 3.82612 0
M  V30 10855 H 1040.11 -2.18099 3.63606 0
M  V30 10856 C 1038.57 -2.55381 2.19732 0
M  V30 10857 O 1039.1 -3.58414 1.8139 0
M  V30 10858 N 1037.31 -2.24769 1.84194 0
M  V30 10859 H 1036.85 -1.41018 2.15573 0
M  V30 10860 H 1036.81 -2.88404 1.25181 0
M  V30 10861 N 1040.58 -1.57259 0.103575 0
M  V30 10862 C 1041.83 -1.94272 -0.557024 0
M  V30 10863 C 1042.15 -0.986739 -1.68192 0
M  V30 10864 O 1041.42 -0.0402818 -1.95859 0
M  V30 10865 H 1040 -0.717237 -0.208757 0
M  V30 10866 H 1042.66 -1.94167 0.168898 0
M  V30 10867 H 1041.76 -2.96914 -0.961691 0
M  V30 10868 N 1042.06 0.170153 -1.56679 0
M  V30 10869 C 1043.29 0.90618 -1.86556 0
M  V30 10870 C 1043.71 1.74986 -0.690044 0
M  V30 10871 O 1043.07 1.77672 0.360862 0
M  V30 10872 C 1043.12 1.75777 -3.14857 0
M  V30 10873 O 1042.22 2.85952 -2.97162 0
M  V30 10874 H 1041.56 0.253781 -0.613589 0
M  V30 10875 H 1044.09 0.167943 -2.0391 0
M  V30 10876 H 1044.1 2.15747 -3.46291 0
M  V30 10877 H 1042.78 1.13807 -4.00026 0
M  V30 10878 H 1041.35 2.49557 -2.77084 0
M  V30 10879 N 1043.54 1.5137 0.438746 0
M  V30 10880 C 1044.47 1.75528 1.53987 0
M  V30 10881 C 1045.45 0.605067 1.58975 0
M  V30 10882 O 1046.63 0.847634 1.74725 0
M  V30 10883 C 1043.76 1.87904 2.92078 0
M  V30 10884 C 1042.72 3.0333 3.01951 0
M  V30 10885 C 1042.04 3.00888 4.42007 0
M  V30 10886 C 1043.34 4.43319 2.76163 0
M  V30 10887 H 1045.04 2.67728 1.34022 0
M  V30 10888 H 1042.58 1.28831 0.643308 0
M  V30 10889 H 1044.54 2.03388 3.69068 0
M  V30 10890 H 1043.26 0.923514 3.13271 0
M  V30 10891 H 1041.92 2.87549 2.274 0
M  V30 10892 H 1041.57 2.03116 4.60166 0
M  V30 10893 H 1041.27 3.78397 4.49544 0
M  V30 10894 H 1042.79 3.18464 5.20973 0
M  V30 10895 H 1044.21 4.59458 3.42887 0
M  V30 10896 H 1042.6 5.22523 2.9511 0
M  V30 10897 H 1043.67 4.53453 1.71779 0
M  V30 10898 N 1045.02 -0.694098 1.41492 0
M  V30 10899 C 1046.29 -1.44875 1.31418 0
M  V30 10900 C 1046.67 -2.11022 -0.0575538 0
M  V30 10901 O 1046.02 -2.01799 -1.07188 0
M  V30 10902 C 1046.23 -2.46698 2.46863 0
M  V30 10903 C 1047.58 -3.11907 2.88095 0
M  V30 10904 O 1048.6 -2.57022 2.46613 0
M  V30 10905 O 1047.46 -4.11318 3.59833 0
M  V30 10906 H 1044.56 -0.645266 0.517263 0
M  V30 10907 H 1047.1 -0.724452 1.53459 0
M  V30 10908 H 1045.87 -1.96485 3.38392 0
M  V30 10909 H 1045.5 -3.26634 2.26706 0
M  V30 10910 N 1046.49 -1.27344 -0.928501 0
M  V30 10911 C 1047.46 -1.10043 -2.01055 0
M  V30 10912 C 1048.46 -0.0446793 -1.60738 0
M  V30 10913 O 1049.65 -0.289202 -1.71783 0
M  V30 10914 C 1046.78 -0.676559 -3.34119 0
M  V30 10915 H 1047.97 -2.06126 -2.17835 0
M  V30 10916 H 1045.53 -1.10121 -1.10919 0
M  V30 10917 H 1046.26 0.285697 -3.23039 0
M  V30 10918 H 1046.05 -1.43903 -3.64739 0
M  V30 10919 H 1047.54 -0.577725 -4.13584 0
M  V30 10920 N 1047.97 1.13488 -1.09353 0
M  V30 10921 C 1049.22 1.84748 -0.829126 0
M  V30 10922 C 1049.55 1.83485 0.645247 0
M  V30 10923 O 1048.8 1.26767 1.49093 0
M  V30 10924 C 1049.1 3.32584 -1.30854 0
M  V30 10925 C 1048.77 3.54028 -2.7924 0
M  V30 10926 C 1047.43 3.59588 -3.19765 0
M  V30 10927 C 1049.78 3.62058 -3.74918 0
M  V30 10928 C 1047.11 3.70712 -4.54741 0
M  V30 10929 C 1049.46 3.7471 -5.09682 0
M  V30 10930 C 1048.13 3.78523 -5.49797 0
M  V30 10931 H 1047.4 0.67604 -0.303399 0
M  V30 10932 H 1050.04 1.33989 -1.36818 0
M  V30 10933 H 1048.35 3.85689 -0.689275 0
M  V30 10934 H 1050.04 3.86166 -1.08059 0
M  V30 10935 H 1046.63 3.50354 -2.4688 0
M  V30 10936 H 1050.82 3.57043 -3.44723 0
M  V30 10937 H 1046.07 3.71931 -4.8526 0
M  V30 10938 H 1050.25 3.79866 -5.83674 0
M  V30 10939 H 1047.88 3.86895 -6.54382 0
M  V30 10940 N 1049.45 0.880621 1.30701 0
M  V30 10941 C 1050.38 0.360251 2.30704 0
M  V30 10942 C 1051.36 -0.554572 1.60806 0
M  V30 10943 O 1052.55 -0.469345 1.88443 0
M  V30 10944 C 1049.68 -0.429888 3.44629 0
M  V30 10945 C 1048.63 0.392786 4.26194 0
M  V30 10946 C 1047.96 -0.52369 5.32129 0
M  V30 10947 C 1049.26 1.63258 4.96129 0
M  V30 10948 H 1050.95 1.19591 2.74478 0
M  V30 10949 H 1048.5 0.576508 1.31956 0
M  V30 10950 H 1050.45 -0.804532 4.13649 0
M  V30 10951 H 1049.17 -1.29916 2.99649 0
M  V30 10952 H 1047.83 0.749514 3.58856 0
M  V30 10953 H 1047.48 -1.39054 4.83397 0
M  V30 10954 H 1047.18 0.0229272 5.87596 0
M  V30 10955 H 1048.71 -0.894946 6.04006 0
M  V30 10956 H 1050.12 1.32877 5.57689 0
M  V30 10957 H 1048.52 2.11906 5.61441 0
M  V30 10958 H 1049.59 2.37944 4.22505 0
M  V30 10959 N 1050.93 -1.4397 0.641131 0
M  V30 10960 C 1052.35 -1.56607 0.30762 0
M  V30 10961 C 1052.55 -1.62694 -1.18882 0
M  V30 10962 O 1051.6 -1.57541 -1.97325 0
M  V30 10963 C 1052.91 -2.83289 1.00834 0
M  V30 10964 C 1054.46 -2.97016 0.98744 0
M  V30 10965 C 1054.94 -4.26514 1.66882 0
M  V30 10966 N 1056.43 -4.33351 1.63589 0
M  V30 10967 C 1057.16 -5.32292 2.13196 0
M  V30 10968 N 1056.66 -6.37582 2.71038 0
M  V30 10969 N 1058.45 -5.23866 2.03766 0
M  V30 10970 H 1050.6 -1.38262 1.61237 0
M  V30 10971 H 1052.87 -0.663221 0.677378 0
M  V30 10972 H 1052.57 -2.84812 2.06337 0
M  V30 10973 H 1052.45 -3.73134 0.552333 0
M  V30 10974 H 1054.83 -2.95041 -0.0591395 0
M  V30 10975 H 1054.91 -2.08493 1.48203 0
M  V30 10976 H 1054.56 -4.2925 2.71491 0
M  V30 10977 H 1054.49 -5.13912 1.14898 0
M  V30 10978 H 1056.98 -3.5788 1.21368 0
M  V30 10979 H 1057.29 -7.09378 3.06597 0
M  V30 10980 H 1055.64 -6.38239 2.75093 0
M  V30 10981 H 1058.83 -4.40524 1.58291 0
M  V30 10982 H 1059 -6.00819 2.42737 0
M  V30 10983 N 1052.41 -0.382291 -1.52893 0
M  V30 10984 C 1053.35 0.456234 -2.26246 0
M  V30 10985 C 1054.32 1.06366 -1.27575 0
M  V30 10986 O 1055.51 1.09301 -1.5639 0
M  V30 10987 C 1052.65 1.5813 -3.06739 0
M  V30 10988 C 1051.76 0.997416 -4.20328 0
M  V30 10989 C 1050.9 2.09296 -4.8823 0
M  V30 10990 C 1049.94 1.4846 -5.93823 0
M  V30 10991 N 1049.07 2.51916 -6.55349 0
M  V30 10992 H 1053.91 -0.175761 -2.97481 0
M  V30 10993 H 1051.45 -0.0985046 -1.4677 0
M  V30 10994 H 1053.41 2.24426 -3.51694 0
M  V30 10995 H 1052.04 2.18371 -2.37727 0
M  V30 10996 H 1051.09 0.224251 -3.79738 0
M  V30 10997 H 1052.4 0.512784 -4.96157 0
M  V30 10998 H 1051.56 2.83377 -5.36453 0
M  V30 10999 H 1050.3 2.61116 -4.1191 0
M  V30 11000 H 1049.3 0.729001 -5.44946 0
M  V30 11001 H 1050.53 0.97443 -6.72073 0
M  V30 11002 H 1048.47 3.02919 -5.81873 0
M  V30 11003 H 1048.39 2.08188 -7.26769 0
M  V30 11004 H 1049.66 3.25649 -7.08218 0
M  V30 11005 N 1053.89 1.57202 -0.111913 0
M  V30 11006 C 1054.83 2.16186 0.858286 0
M  V30 11007 C 1055.83 1.10917 1.28039 0
M  V30 11008 O 1057.03 1.29233 1.25295 0
M  V30 11009 H 1053.41 0.691777 0.29487 0
M  V30 11010 H 1055.38 2.96499 0.336265 0
M  V30 11011 C 1054.13 2.77024 2.10127 0
M  V30 11012 H 1053.45 3.5772 1.78539 0
M  V30 11013 H 1054.89 3.21841 2.76033 0
M  V30 11014 C 1053.35 1.73752 2.88638 0
M  V30 11015 O 1053.88 1.18659 3.83774 0
M  V30 11016 N 1052.09 1.43855 2.52496 0
M  V30 11017 H 1051.63 1.88846 1.75199 0
M  V30 11018 H 1051.59 0.749985 3.05324 0
M  V30 11019 N 1055.36 -0.161842 1.56767 0
M  V30 11020 C 1056.64 -0.904754 1.73417 0
M  V30 11021 C 1057.02 -1.99987 0.675908 0
M  V30 11022 O 1056.37 -2.26419 -0.307712 0
M  V30 11023 C 1056.58 -1.46082 3.16956 0
M  V30 11024 C 1057.93 -1.93004 3.78199 0
M  V30 11025 O 1058.95 -1.55856 3.20293 0
M  V30 11026 O 1057.81 -2.61465 4.79894 0
M  V30 11027 H 1054.9 -0.426518 0.708528 0
M  V30 11028 H 1057.45 -0.148928 1.69045 0
M  V30 11029 H 1056.22 -0.673087 3.85468 0
M  V30 11030 H 1055.84 -2.28056 3.25693 0
M  V30 11031 N 1056.84 -1.516 -0.430713 0
M  V30 11032 C 1058.09 -1.64271 -1.17726 0
M  V30 11033 C 1058.41 -0.364406 -1.91565 0
M  V30 11034 O 1057.68 0.619991 -1.8583 0
M  V30 11035 H 1056.26 -0.605432 -0.437562 0
M  V30 11036 H 1058.92 -1.88557 -0.493166 0
M  V30 11037 H 1058.02 -2.47355 -1.90321 0
M  V30 11038 N 1058.32 0.686584 -1.41858 0
M  V30 11039 C 1059.74 0.998283 -1.24525 0
M  V30 11040 C 1059.94 2.01006 -0.141007 0
M  V30 11041 O 1058.99 2.47667 0.491648 0
M  V30 11042 C 1060.3 1.51432 -2.59786 0
M  V30 11043 C 1061.85 1.6327 -2.67043 0
M  V30 11044 C 1062.33 2.18274 -4.02642 0
M  V30 11045 N 1063.82 2.25622 -4.04535 0
M  V30 11046 C 1064.55 2.69229 -5.06264 0
M  V30 11047 N 1064.05 3.12375 -6.1838 0
M  V30 11048 N 1065.84 2.68873 -4.93623 0
M  V30 11049 H 1057.99 0.0164825 -2.12394 0
M  V30 11050 H 1060.26 0.0698613 -0.945422 0
M  V30 11051 H 1059.96 0.845426 -3.41388 0
M  V30 11052 H 1059.84 2.49502 -2.82894 0
M  V30 11053 H 1062.22 2.29269 -1.85794 0
M  V30 11054 H 1062.3 0.637221 -2.47736 0
M  V30 11055 H 1061.95 1.52887 -4.84343 0
M  V30 11056 H 1061.88 3.18591 -4.19294 0
M  V30 11057 H 1064.37 1.95186 -3.23591 0
M  V30 11058 H 1064.68 3.44301 -6.91864 0
M  V30 11059 H 1063.03 3.10262 -6.21902 0
M  V30 11060 H 1066.22 2.34521 -4.05114 0
M  V30 11061 H 1066.39 3.02539 -5.7304 0
M  V30 11062 N 1059.8 1.27835 0.921735 0
M  V30 11063 C 1061.04 1.14523 1.67005 0
M  V30 11064 C 1061.37 -0.307776 1.92049 0
M  V30 11065 O 1060.63 -1.24103 1.51317 0
M  V30 11066 C 1060.93 1.88054 3.03925 0
M  V30 11067 C 1060.59 3.37886 2.9857 0
M  V30 11068 C 1059.25 3.78752 2.96817 0
M  V30 11069 C 1061.61 4.33462 2.89414 0
M  V30 11070 C 1058.93 5.13549 2.83698 0
M  V30 11071 C 1061.29 5.68322 2.77836 0
M  V30 11072 C 1059.95 6.08475 2.74436 0
M  V30 11073 H 1059.22 0.419068 0.611116 0
M  V30 11074 H 1061.87 1.58515 1.07449 0
M  V30 11075 H 1060.17 1.36587 3.67221 0
M  V30 11076 H 1061.87 1.75176 3.60714 0
M  V30 11077 H 1058.46 3.05389 3.00725 0
M  V30 11078 H 1062.64 4.02857 2.89862 0
M  V30 11079 H 1057.9 5.43796 2.79456 0
M  V30 11080 H 1062.07 6.42048 2.69717 0
M  V30 11081 H 1059.7 7.12877 2.64027 0
M  V30 11082 N 1061.28 -1.12907 1.09954 0
M  V30 11083 C 1062.5 -1.88138 0.860905 0
M  V30 11084 C 1062.92 -1.79402 -0.588256 0
M  V30 11085 O 1062.28 -1.16442 -1.40526 0
M  V30 11086 C 1062.33 -3.37537 1.29425 0
M  V30 11087 O 1062.05 -3.46056 2.68658 0
M  V30 11088 C 1063.55 -4.29721 1.08879 0
M  V30 11089 H 1060.77 -0.595437 0.309347 0
M  V30 11090 H 1063.31 -1.42894 1.46292 0
M  V30 11091 H 1061.47 -3.80344 0.736009 0
M  V30 11092 H 1061.88 -4.38969 2.87065 0
M  V30 11093 H 1063.36 -5.32854 1.4412 0
M  V30 11094 H 1063.83 -4.39192 0.0270053 0
M  V30 11095 H 1064.44 -3.9269 1.63325 0
M  V30 11096 N 1062.75 -0.88754 -1.30232 0
M  V30 11097 C 1064 -0.508031 -1.96334 0
M  V30 11098 C 1064.33 0.940905 -1.69884 0
M  V30 11099 O 1063.61 1.66523 -1.005 0
M  V30 11100 C 1063.89 -0.786566 -3.51405 0
M  V30 11101 C 1063.74 -2.28632 -3.8736 0
M  V30 11102 C 1065.06 -0.264803 -4.39303 0
M  V30 11103 H 1062.18 -0.186051 -0.71313 0
M  V30 11104 H 1064.82 -1.112 -1.5406 0
M  V30 11105 H 1062.97 -0.272523 -3.87543 0
M  V30 11106 H 1064.65 -2.86896 -3.61231 0
M  V30 11107 H 1062.89 -2.75194 -3.35337 0
M  V30 11108 H 1063.56 -2.43181 -4.95547 0
M  V30 11109 H 1066.04 -0.704809 -4.10087 0
M  V30 11110 H 1064.91 -0.488998 -5.46717 0
M  V30 11111 H 1065.17 0.834055 -4.34161 0
M  V30 11112 N 1064.23 1.43628 -0.648757 0
M  V30 11113 C 1065.48 2.01083 -0.157692 0
M  V30 11114 C 1065.79 1.51756 1.23408 0
M  V30 11115 O 1067 2.01455 1.82012 0
M  V30 11116 C 1065.46 3.59157 -0.231118 0
M  V30 11117 C 1065.06 4.17478 -1.6253 0
M  V30 11118 C 1066.81 4.24016 0.202573 0
M  V30 11119 C 1064.72 5.67832 -1.6529 0
M  V30 11120 H 1063.65 0.751977 -0.0551897 0
M  V30 11121 H 1066.3 1.64648 -0.810139 0
M  V30 11122 H 1064.68 3.92972 0.488755 0
M  V30 11123 H 1065.85 3.9517 -2.37017 0
M  V30 11124 H 1064.17 3.64973 -2.00459 0
M  V30 11125 H 1066.76 5.34319 0.20174 0
M  V30 11126 H 1067.11 3.97616 1.23319 0
M  V30 11127 H 1067.64 3.95068 -0.465398 0
M  V30 11128 H 1064.38 5.98994 -2.66246 0
M  V30 11129 H 1063.9 5.92209 -0.951217 0
M  V30 11130 H 1065.58 6.3179 -1.39465 0
M  V30 11131 N 1065.71 0.390394 1.52688 0
M  V30 11132 C 1066.64 -0.479319 2.24132 0
M  V30 11133 C 1067.66 -1.0258 1.26416 0
M  V30 11134 O 1068.84 -0.927943 1.52484 0
M  V30 11135 C 1065.94 -1.67711 2.94493 0
M  V30 11136 C 1065.12 -1.2578 4.18925 0
M  V30 11137 C 1064.18 -2.3204 4.72275 0
M  V30 11138 O 1063.2 -1.93402 5.35336 0
M  V30 11139 N 1064.4 -3.63967 4.52226 0
M  V30 11140 H 1067.17 0.132777 2.99406 0
M  V30 11141 H 1064.73 0.216807 1.60442 0
M  V30 11142 H 1066.72 -2.38323 3.27084 0
M  V30 11143 H 1065.29 -2.19552 2.22521 0
M  V30 11144 H 1064.51 -0.380528 3.92359 0
M  V30 11145 H 1065.8 -0.954329 4.9977 0
M  V30 11146 H 1065.2 -3.98119 4.01892 0
M  V30 11147 H 1063.76 -4.30611 4.89303 0
M  V30 11148 N 1067.19 -1.57141 0.120249 0
M  V30 11149 C 1068.12 -2.18398 -0.826112 0
M  V30 11150 C 1069.1 -1.12439 -1.27638 0
M  V30 11151 O 1070.28 -1.40679 -1.33877 0
M  V30 11152 C 1067.41 -2.78438 -2.0758 0
M  V30 11153 C 1066.37 -3.89991 -1.76327 0
M  V30 11154 C 1065.69 -4.36844 -3.08336 0
M  V30 11155 C 1066.99 -5.12031 -1.03062 0
M  V30 11156 H 1068.69 -2.97731 -0.315656 0
M  V30 11157 H 1066.23 -1.43213 -0.150387 0
M  V30 11158 H 1068.19 -3.19951 -2.74243 0
M  V30 11159 H 1066.91 -1.96396 -2.60953 0
M  V30 11160 H 1065.57 -3.49055 -1.12053 0
M  V30 11161 H 1065.22 -3.51659 -3.59646 0
M  V30 11162 H 1064.92 -5.1207 -2.88199 0
M  V30 11163 H 1066.44 -4.81009 -3.76116 0
M  V30 11164 H 1067.86 -5.50555 -1.59881 0
M  V30 11165 H 1066.25 -5.92848 -0.930146 0
M  V30 11166 H 1067.32 -4.84897 -0.017582 0
M  V30 11167 N 1068.67 0.153526 -1.5685 0
M  V30 11168 C 1069.91 0.868517 -1.83261 0
M  V30 11169 C 1070.25 1.81112 -0.700857 0
M  V30 11170 O 1069.52 1.92235 0.295989 0
M  V30 11171 C 1069.8 1.6487 -3.2014 0
M  V30 11172 C 1069.66 0.728021 -4.43869 0
M  V30 11173 C 1070.98 2.61259 -3.54163 0
M  V30 11174 H 1068.09 0.314297 -0.666623 0
M  V30 11175 H 1070.74 0.133971 -1.89527 0
M  V30 11176 H 1068.89 2.2749 -3.1493 0
M  V30 11177 H 1070.56 0.113328 -4.61161 0
M  V30 11178 H 1068.8 0.0371744 -4.33784 0
M  V30 11179 H 1069.47 1.30981 -5.36235 0
M  V30 11180 H 1071.95 2.0876 -3.59942 0
M  V30 11181 H 1070.82 3.12902 -4.50981 0
M  V30 11182 H 1071.09 3.42307 -2.79782 0
M  V30 11183 N 1070.14 1.51827 0.422667 0
M  V30 11184 C 1071.39 1.64893 1.16853 0
M  V30 11185 C 1071.71 0.37456 1.91369 0
M  V30 11186 O 1070.98 -0.610128 1.86157 0
M  V30 11187 H 1069.56 0.607744 0.434345 0
M  V30 11188 H 1072.23 1.88816 0.483159 0
M  V30 11189 H 1071.32 2.48361 1.89006 0
M  V30 11190 N 1071.62 -0.679052 1.4222 0
M  V30 11191 C 1072.56 -1.80369 1.39794 0
M  V30 11192 C 1073.53 -1.60462 0.262806 0
M  V30 11193 O 1074.72 -1.82992 0.452352 0
M  V30 11194 C 1071.84 -3.17305 1.18471 0
M  V30 11195 C 1070.89 -3.55969 2.34922 0
M  V30 11196 S 1071.72 -3.58884 3.97445 0
M  V30 11197 C 1072.88 -4.98519 3.78457 0
M  V30 11198 H 1073.11 -1.82152 2.34964 0
M  V30 11199 H 1070.65 -0.84932 1.28942 0
M  V30 11200 H 1072.6 -3.96348 1.06856 0
M  V30 11201 H 1071.26 -3.13112 0.248944 0
M  V30 11202 H 1070.46 -4.55491 2.1574 0
M  V30 11203 H 1070.06 -2.84275 2.4303 0
M  V30 11204 H 1072.35 -5.86481 3.39184 0
M  V30 11205 H 1073.29 -5.22748 4.77641 0
M  V30 11206 H 1073.7 -4.70836 3.11406 0
M  V30 11207 N 1073.1 -1.28322 -0.914942 0
M  V30 11208 C 1074.03 -1.14681 -2.03398 0
M  V30 11209 C 1075.01 -0.0448939 -1.70041 0
M  V30 11210 O 1076.2 -0.221672 -1.92931 0
M  V30 11211 C 1073.33 -0.806623 -3.37803 0
M  V30 11212 C 1072.28 -1.86318 -3.85318 0
M  V30 11213 C 1071.61 -1.37665 -5.16674 0
M  V30 11214 C 1072.91 -3.26953 -4.07307 0
M  V30 11215 H 1074.6 -2.08293 -2.15068 0
M  V30 11216 H 1072.15 -1.00284 -1.03339 0
M  V30 11217 H 1074.1 -0.69796 -4.1558 0
M  V30 11218 H 1072.82 0.165203 -3.26182 0
M  V30 11219 H 1071.48 -1.96096 -3.09745 0
M  V30 11220 H 1071.13 -0.393927 -5.01455 0
M  V30 11221 H 1070.83 -2.08313 -5.49435 0
M  V30 11222 H 1072.35 -1.28119 -5.97007 0
M  V30 11223 H 1073.77 -3.20102 -4.75613 0
M  V30 11224 H 1072.17 -3.95424 -4.51398 0
M  V30 11225 H 1073.24 -3.71059 -3.12159 0
M  V30 11226 N 1074.58 1.12322 -1.10551 0
M  V30 11227 C 1075.99 1.35858 -0.837543 0
M  V30 11228 C 1076.19 1.94062 0.54241 0
M  V30 11229 O 1075.25 2.1676 1.29505 0
M  V30 11230 C 1076.56 2.299 -1.9382 0
M  V30 11231 C 1078.11 2.43488 -1.96679 0
M  V30 11232 C 1078.59 3.40846 -3.05922 0
M  V30 11233 N 1080.08 3.48404 -3.05236 0
M  V30 11234 C 1080.81 4.2365 -3.86405 0
M  V30 11235 N 1080.31 5.01951 -4.77512 0
M  V30 11236 N 1082.1 4.19068 -3.74618 0
M  V30 11237 H 1074.25 0.729002 -1.99498 0
M  V30 11238 H 1076.52 0.38339 -0.867016 0
M  V30 11239 H 1076.22 1.94309 -2.9315 0
M  V30 11240 H 1076.1 3.30033 -1.82641 0
M  V30 11241 H 1078.48 2.78359 -0.979813 0
M  V30 11242 H 1078.56 1.43239 -2.11934 0
M  V30 11243 H 1078.21 3.06704 -4.04839 0
M  V30 11244 H 1078.14 4.40927 -2.87907 0
M  V30 11245 H 1080.63 2.92545 -2.39219 0
M  V30 11246 H 1080.94 5.56707 -5.36002 0
M  V30 11247 H 1079.29 5.01143 -4.8154 0
M  V30 11248 H 1082.48 3.5698 -3.02792 0
M  V30 11249 H 1082.65 4.77455 -4.38111 0
M  V30 11250 N 1076.06 0.894434 1.2976 0
M  V30 11251 C 1077.3 0.516646 1.95385 0
M  V30 11252 C 1077.63 -0.939141 1.70895 0
M  V30 11253 O 1076.9 -1.66153 1.03778 0
M  V30 11254 H 1075.48 0.188072 0.722937 0
M  V30 11255 H 1078.14 1.13958 1.58113 0
M  V30 11256 H 1077.23 0.694819 3.04267 0
M  V30 11257 N 1077.53 -1.43282 0.656365 0
M  V30 11258 C 1078.78 -2.00996 0.168354 0
M  V30 11259 C 1079.1 -1.52408 -1.22601 0
M  V30 11260 O 1080.3 -2.02417 -1.80941 0
M  V30 11261 C 1078.76 -3.5903 0.250161 0
M  V30 11262 C 1078.37 -4.1661 1.64742 0
M  V30 11263 C 1080.11 -4.24118 -0.180084 0
M  V30 11264 C 1078.02 -5.66948 1.68299 0
M  V30 11265 H 1076.95 -0.751674 0.0591769 0
M  V30 11266 H 1079.6 -1.64216 0.818859 0
M  V30 11267 H 1077.98 -3.93226 -0.467908 0
M  V30 11268 H 1079.15 -3.93908 2.3911 0
M  V30 11269 H 1077.47 -3.63905 2.02391 0
M  V30 11270 H 1080.07 -5.34419 -0.173401 0
M  V30 11271 H 1080.41 -3.98264 -1.21208 0
M  V30 11272 H 1080.94 -3.94816 0.486343 0
M  V30 11273 H 1077.68 -5.97573 2.69419 0
M  V30 11274 H 1077.2 -5.91697 0.98261 0
M  V30 11275 H 1078.88 -6.31041 1.42813 0
M  V30 11276 N 1079.01 -0.398486 -1.52479 0
M  V30 11277 C 1080.26 0.180394 -2.01293 0
M  V30 11278 C 1080.58 1.46548 -1.28641 0
M  V30 11279 O 1079.85 1.91579 -0.409173 0
M  V30 11280 H 1078.43 0.0696528 -0.743746 0
M  V30 11281 H 1081.09 -0.532285 -1.87491 0
M  V30 11282 H 1080.19 0.38409 -3.09728 0
M  V30 11283 N 1080.49 1.57075 -0.12858 0
M  V30 11284 C 1081.72 2.00305 0.537839 0
M  V30 11285 C 1082.14 1.00787 1.58819 0
M  V30 11286 O 1081.5 -0.0190839 1.8129 0
M  V30 11287 C 1081.55 3.42371 1.13201 0
M  V30 11288 O 1080.65 3.45786 2.24735 0
M  V30 11289 H 1079.99 0.650456 0.133428 0
M  V30 11290 H 1082.52 2.03415 -0.219882 0
M  V30 11291 H 1082.53 3.80783 1.4652 0
M  V30 11292 H 1081.21 4.14315 0.362713 0
M  V30 11293 H 1079.78 3.19201 1.92783 0
M  V30 11294 N 1081.97 -0.145205 1.5693 0
M  V30 11295 C 1083.22 -0.855822 1.83085 0
M  V30 11296 C 1083.54 -1.81625 0.709747 0
M  V30 11297 O 1082.81 -1.94052 -0.268456 0
M  V30 11298 H 1081.39 -0.319032 0.675446 0
M  V30 11299 H 1084.05 -0.138781 1.94405 0
M  V30 11300 H 1083.15 -1.41698 2.78079 0
M  V30 11301 N 1083.45 -1.52049 -0.414609 0
M  V30 11302 C 1084.38 -1.69712 -1.52555 0
M  V30 11303 C 1085.36 -0.544681 -1.53206 0
M  V30 11304 O 1086.54 -0.771358 -1.71995 0
M  V30 11305 C 1083.67 -1.73145 -2.91099 0
M  V30 11306 C 1082.72 -2.94624 -3.08382 0
M  V30 11307 S 1083.55 -4.55062 -2.82274 0
M  V30 11308 C 1084.7 -4.61274 -4.23057 0
M  V30 11309 H 1084.94 -2.63675 -1.37342 0
M  V30 11310 H 1082.47 -1.42018 -0.605824 0
M  V30 11311 H 1084.43 -1.75808 -3.70947 0
M  V30 11312 H 1083.09 -0.803198 -3.03657 0
M  V30 11313 H 1082.28 -2.93492 -4.0973 0
M  V30 11314 H 1081.88 -2.8982 -2.36391 0
M  V30 11315 H 1084.18 -4.38313 -5.16612 0
M  V30 11316 H 1085.12 -5.63188 -4.29214 0
M  V30 11317 H 1085.53 -3.90361 -4.07773 0
M  V30 11318 N 1084.93 0.6715 -1.42579 0
M  V30 11319 C 1085.87 1.78496 -1.46314 0
M  V30 11320 C 1086.84 1.63091 -0.314743 0
M  V30 11321 O 1088.03 1.83597 -0.519292 0
M  V30 11322 C 1085.17 3.16548 -1.37447 0
M  V30 11323 C 1084.28 3.43216 -2.62348 0
M  V30 11324 C 1083.42 4.71014 -2.456 0
M  V30 11325 C 1082.45 4.90728 -3.65859 0
M  V30 11326 N 1081.59 6.09769 -3.48032 0
M  V30 11327 H 1086.43 1.74638 -2.41466 0
M  V30 11328 H 1083.97 0.852491 -1.19879 0
M  V30 11329 H 1085.93 3.96329 -1.30303 0
M  V30 11330 H 1084.56 3.19522 -0.458891 0
M  V30 11331 H 1083.61 2.57664 -2.79846 0
M  V30 11332 H 1084.92 3.53675 -3.51732 0
M  V30 11333 H 1084.07 5.58892 -2.3606 0
M  V30 11334 H 1082.81 4.62843 -1.53712 0
M  V30 11335 H 1081.82 4.01291 -3.75827 0
M  V30 11336 H 1083.04 5.00741 -4.58732 0
M  V30 11337 H 1080.99 6.02765 -2.58864 0
M  V30 11338 H 1080.91 6.21104 -4.31005 0
M  V30 11339 H 1082.17 7.00317 -3.42311 0
M  V30 11340 N 1086.4 1.28806 0.908124 0
M  V30 11341 C 1087.63 1.1898 1.689 0
M  V30 11342 C 1088.04 -0.253334 1.87496 0
M  V30 11343 O 1087.38 -1.18245 1.40584 0
M  V30 11344 C 1087.45 1.82266 3.0987 0
M  V30 11345 C 1087.11 3.31534 3.14538 0
M  V30 11346 C 1088.11 4.27886 2.95313 0
M  V30 11347 C 1085.79 3.72589 3.36872 0
M  V30 11348 C 1087.79 5.63267 2.98343 0
M  V30 11349 C 1085.47 5.08095 3.39534 0
M  V30 11350 C 1086.47 6.03244 3.2029 0
M  V30 11351 O 1086.16 7.36277 3.22724 0
M  V30 11352 H 1085.89 0.413772 0.534574 0
M  V30 11353 H 1088.45 1.7055 1.14464 0
M  V30 11354 H 1086.68 1.25197 3.65872 0
M  V30 11355 H 1088.36 1.6688 3.70008 0
M  V30 11356 H 1089.13 3.97502 2.77879 0
M  V30 11357 H 1085.01 2.98989 3.50894 0
M  V30 11358 H 1088.55 6.37511 2.83241 0
M  V30 11359 H 1084.45 5.38126 3.56497 0
M  V30 11360 H 1085.22 7.44976 3.39048 0
M  V30 11361 N 1087.88 -1.11734 1.11145 0
M  V30 11362 C 1088.81 -2.1976 0.789152 0
M  V30 11363 C 1089.79 -1.68382 -0.241143 0
M  V30 11364 O 1090.98 -1.93914 -0.105292 0
M  V30 11365 C 1088.11 -3.46549 0.228204 0
M  V30 11366 C 1087.06 -4.11123 1.19002 0
M  V30 11367 C 1086.39 -5.32451 0.489928 0
M  V30 11368 C 1087.69 -4.56406 2.53951 0
M  V30 11369 H 1089.38 -2.46978 1.69241 0
M  V30 11370 H 1086.93 -1.18705 0.81517 0
M  V30 11371 H 1088.88 -4.21399 -0.00945908 0
M  V30 11372 H 1087.6 -3.18782 -0.71033 0
M  V30 11373 H 1086.26 -3.38264 1.41326 0
M  V30 11374 H 1085.91 -5.00953 -0.453315 0
M  V30 11375 H 1085.61 -5.76605 1.1314 0
M  V30 11376 H 1087.14 -6.10042 0.260984 0
M  V30 11377 H 1088.55 -5.22592 2.35733 0
M  V30 11378 H 1086.95 -5.11363 3.14051 0
M  V30 11379 H 1088.02 -3.7001 3.13402 0
M  V30 11380 N 1089.36 -0.901303 -1.29284 0
M  V30 11381 C 1090.58 -0.542823 -2.0017 0
M  V30 11382 C 1091.01 0.865583 -1.67001 0
M  V30 11383 O 1090.37 1.5764 -0.895502 0
M  V30 11384 C 1090.42 -0.743987 -3.52842 0
M  V30 11385 O 1089.52 0.202771 -4.11901 0
M  V30 11386 H 1088.86 -0.211903 -0.62928 0
M  V30 11387 H 1091.39 -1.21333 -1.64741 0
M  V30 11388 H 1091.4 -0.64926 -4.02801 0
M  V30 11389 H 1090.08 -1.77077 -3.7632 0
M  V30 11390 H 1088.65 0.0603637 -3.72851 0
M  V30 11391 N 1090.84 1.42931 -0.663954 0
M  V30 11392 C 1092.11 1.95284 -0.111174 0
M  V30 11393 C 1092.49 1.60484 1.37142 0
M  V30 11394 O 1091.84 0.895425 2.10225 0
M  V30 11395 C 1092.05 3.47046 -0.368789 0
M  V30 11396 C 1093.4 4.23679 -0.279473 0
M  V30 11397 O 1094.42 3.54918 -0.301937 0
M  V30 11398 O 1093.28 5.46087 -0.21236 0
M  V30 11399 H 1090.38 0.826993 0.00341718 0
M  V30 11400 H 1092.92 1.52816 -0.737935 0
M  V30 11401 H 1091.7 3.65541 -1.39626 0
M  V30 11402 H 1091.32 3.96537 0.290514 0
M  V30 11403 N 1092.32 0.406567 1.52266 0
M  V30 11404 C 1093.25 -0.464709 2.23418 0
M  V30 11405 C 1094.23 -1.05008 1.24146 0
M  V30 11406 O 1095.41 -1.09843 1.53188 0
M  V30 11407 C 1092.54 -1.64481 2.96081 0
M  V30 11408 C 1091.58 -1.18307 4.09763 0
M  V30 11409 S 1092.42 -0.150326 5.35289 0
M  V30 11410 C 1093.57 -1.3358 6.11479 0
M  V30 11411 H 1093.81 0.139455 2.96973 0
M  V30 11412 H 1091.34 0.19085 1.53216 0
M  V30 11413 H 1093.3 -2.3215 3.38551 0
M  V30 11414 H 1091.96 -2.22031 2.22174 0
M  V30 11415 H 1091.15 -2.06466 4.59769 0
M  V30 11416 H 1090.75 -0.58505 3.69396 0
M  V30 11417 H 1093.04 -2.25986 6.38699 0
M  V30 11418 H 1093.99 -0.876328 7.02656 0
M  V30 11419 H 1094.4 -1.56044 5.42504 0
M  V30 11420 N 1093.79 -1.57004 0.136909 0
M  V30 11421 C 1095.02 -2.00587 -0.527209 0
M  V30 11422 C 1095.44 -1.01628 -1.58283 0
M  V30 11423 O 1094.8 0.00946934 -1.81298 0
M  V30 11424 C 1094.85 -3.42967 -1.11384 0
M  V30 11425 O 1093.95 -3.46973 -2.22898 0
M  V30 11426 H 1093.3 -0.651155 -0.129976 0
M  V30 11427 H 1095.83 -2.03296 0.230667 0
M  V30 11428 H 1095.84 -3.81555 -1.44499 0
M  V30 11429 H 1094.51 -4.14502 -0.340736 0
M  V30 11430 H 1093.09 -3.20219 -1.91087 0
M  V30 11431 N 1095.27 0.136881 -1.57004 0
M  V30 11432 C 1096.5 0.861186 -1.87796 0
M  V30 11433 C 1096.91 1.74788 -0.724272 0
M  V30 11434 O 1096.25 1.80984 0.31471 0
M  V30 11435 C 1096.32 1.76115 -3.13407 0
M  V30 11436 C 1095.98 1.05059 -4.4476 0
M  V30 11437 C 1096.98 0.399736 -5.18361 0
M  V30 11438 C 1094.66 1.03709 -4.91477 0
M  V30 11439 C 1096.66 -0.255127 -6.36889 0
M  V30 11440 C 1094.34 0.378414 -6.09927 0
M  V30 11441 C 1095.34 -0.266555 -6.8248 0
M  V30 11442 O 1095.03 -0.914757 -7.98679 0
M  V30 11443 H 1094.76 0.253855 -0.626525 0
M  V30 11444 H 1097.31 0.131291 -2.0498 0
M  V30 11445 H 1095.54 2.53224 -2.92257 0
M  V30 11446 H 1097.23 2.3583 -3.30362 0
M  V30 11447 H 1098 0.401909 -4.83332 0
M  V30 11448 H 1093.88 1.52852 -4.34922 0
M  V30 11449 H 1097.42 -0.759135 -6.93457 0
M  V30 11450 H 1093.32 0.373942 -6.44416 0
M  V30 11451 H 1094.09 -0.817437 -8.14408 0
M  V30 11452 N 1096.75 1.52266 0.40654 0
M  V30 11453 C 1098 1.66699 1.15496 0
M  V30 11454 C 1098.33 0.397019 1.90098 0
M  V30 11455 O 1097.6 -0.604646 1.84863 0
M  V30 11456 C 1097.89 2.8907 2.14734 0
M  V30 11457 C 1097.74 4.26123 1.44012 0
M  V30 11458 C 1099.06 3.06966 3.15373 0
M  V30 11459 H 1096.18 0.606642 0.418515 0
M  V30 11460 H 1098.82 1.84826 0.440381 0
M  V30 11461 H 1096.97 2.73745 2.75673 0
M  V30 11462 H 1098.64 4.5318 0.861722 0
M  V30 11463 H 1096.89 4.27406 0.742064 0
M  V30 11464 H 1097.56 5.07799 2.16436 0
M  V30 11465 H 1100.03 3.21205 2.64512 0
M  V30 11466 H 1098.91 3.94097 3.82072 0
M  V30 11467 H 1099.17 2.20395 3.83247 0
M  V30 11468 N 1098.23 -0.663929 1.42933 0
M  V30 11469 C 1099.18 -1.77007 1.4371 0
M  V30 11470 C 1100.16 -1.57945 0.306948 0
M  V30 11471 O 1101.35 -1.68239 0.549967 0
M  V30 11472 C 1098.48 -3.15535 1.3525 0
M  V30 11473 C 1097.57 -3.40183 2.53252 0
M  V30 11474 N 1097.96 -3.35357 3.78641 0
M  V30 11475 C 1096.26 -3.70861 2.47746 0
M  V30 11476 C 1096.96 -3.5979 4.57085 0
M  V30 11477 N 1095.94 -3.81084 3.87655 0
M  V30 11478 H 1099.74 -1.71686 2.3854 0
M  V30 11479 H 1097.25 -0.865191 1.37434 0
M  V30 11480 H 1099.25 -3.94816 1.33888 0
M  V30 11481 H 1097.91 -3.22046 0.414308 0
M  V30 11482 H 1098.92 -3.15011 4.11082 0
M  V30 11483 H 1095.6 -3.84552 1.62561 0
M  V30 11484 H 1096.99 -3.61928 5.6609 0
M  V30 11485 N 1099.71 -1.29285 -0.901281 0
M  V30 11486 C 1101.12 -1.07263 -1.18182 0
M  V30 11487 C 1101.32 0.177087 -2.0072 0
M  V30 11488 O 1100.38 0.875292 -2.36844 0
M  V30 11489 C 1101.69 -2.32717 -1.9043 0
M  V30 11490 C 1103.24 -2.3802 -2.03262 0
M  V30 11491 C 1103.71 -3.63273 -2.7892 0
M  V30 11492 N 1105.21 -3.63986 -2.86475 0
M  V30 11493 C 1105.94 -4.57585 -3.45549 0
M  V30 11494 N 1105.44 -5.61513 -4.05801 0
M  V30 11495 N 1107.23 -4.45157 -3.43208 0
M  V30 11496 H 1099.38 -2.09487 -0.350536 0
M  V30 11497 H 1101.64 -0.922647 -0.217778 0
M  V30 11498 H 1101.35 -3.23828 -1.37216 0
M  V30 11499 H 1101.22 -2.40102 -2.90913 0
M  V30 11500 H 1103.61 -1.47398 -2.55652 0
M  V30 11501 H 1103.69 -2.3462 -1.01916 0
M  V30 11502 H 1103.34 -4.54246 -2.27206 0
M  V30 11503 H 1103.27 -3.6393 -3.80608 0
M  V30 11504 H 1105.76 -2.8884 -2.43679 0
M  V30 11505 H 1106.07 -6.29058 -4.48894 0
M  V30 11506 H 1104.41 -5.65325 -4.04268 0
M  V30 11507 H 1107.61 -3.63158 -2.95354 0
M  V30 11508 H 1107.78 -5.18286 -3.88952 0
M  V30 11509 N 1101.18 1.11143 -1.11736 0
M  V30 11510 C 1102.46 1.79384 -0.779785 0
M  V30 11511 C 1102.84 1.98015 0.731668 0
M  V30 11512 O 1102.19 1.56731 1.66276 0
M  V30 11513 C 1102.4 3.12868 -1.54643 0
M  V30 11514 C 1103.75 3.8786 -1.7277 0
M  V30 11515 O 1104.77 3.22566 -1.51094 0
M  V30 11516 O 1103.63 5.05034 -2.08813 0
M  V30 11517 H 1100.72 0.777128 -0.282845 0
M  V30 11518 H 1103.27 1.17858 -1.22096 0
M  V30 11519 H 1102.04 2.94682 -2.57446 0
M  V30 11520 H 1101.67 3.82109 -1.09901 0
M  V30 11521 N 1102.66 0.908147 1.28804 0
M  V30 11522 C 1103.59 0.409106 2.29888 0
M  V30 11523 C 1104.57 -0.520338 1.61946 0
M  V30 11524 O 1105.76 -0.429268 1.89396 0
M  V30 11525 C 1102.89 -0.35669 3.45463 0
M  V30 11526 C 1101.84 0.4831 4.25265 0
M  V30 11527 C 1101.17 -0.4107 5.3312 0
M  V30 11528 C 1102.47 1.73744 4.92555 0
M  V30 11529 H 1104.16 1.25386 2.7188 0
M  V30 11530 H 1101.71 0.604368 1.30703 0
M  V30 11531 H 1103.66 -0.71661 4.15262 0
M  V30 11532 H 1102.39 -1.2353 3.02337 0
M  V30 11533 H 1101.04 0.825464 3.57186 0
M  V30 11534 H 1100.69 -1.28769 4.86238 0
M  V30 11535 H 1100.39 0.14756 5.87415 0
M  V30 11536 H 1101.92 -0.766626 6.05768 0
M  V30 11537 H 1103.33 1.44676 5.54745 0
M  V30 11538 H 1101.73 2.23767 5.5682 0
M  V30 11539 H 1102.8 2.46853 4.17363 0
M  V30 11540 N 1104.14 -1.42577 0.671525 0
M  V30 11541 C 1105.1 -2.292 0.000392482 0
M  V30 11542 C 1106.1 -1.43158 -0.732294 0
M  V30 11543 O 1107.29 -1.64583 -0.570789 0
M  V30 11544 C 1104.43 -3.25591 -1.01013 0
M  V30 11545 H 1105.62 -2.90037 0.762783 0
M  V30 11546 H 1103.17 -1.50162 0.433703 0
M  V30 11547 H 1103.91 -2.69685 -1.80112 0
M  V30 11548 H 1103.69 -3.89049 -0.488183 0
M  V30 11549 H 1105.18 -3.90561 -1.47824 0
M  V30 11550 N 1105.62 -0.414636 -1.52048 0
M  V30 11551 C 1106.58 0.396285 -2.25748 0
M  V30 11552 C 1107.58 0.969003 -1.28324 0
M  V30 11553 O 1108.77 0.847016 -1.52221 0
M  V30 11554 C 1105.9 1.55838 -3.03195 0
M  V30 11555 H 1107.1 -0.249311 -2.98862 0
M  V30 11556 H 1104.65 -0.167276 -1.55402 0
M  V30 11557 H 1105.38 2.24068 -2.34444 0
M  V30 11558 H 1105.17 1.15414 -3.74729 0
M  V30 11559 H 1106.66 2.13187 -3.59084 0
M  V30 11560 N 1107.1 1.56929 -0.145233 0
M  V30 11561 C 1108.51 1.58196 0.211194 0
M  V30 11562 C 1108.71 1.15941 1.64803 0
M  V30 11563 O 1107.77 0.858888 2.37443 0
M  V30 11564 C 1109.08 3.00665 -0.0459569 0
M  V30 11565 C 1110.63 3.12995 0.0178913 0
M  V30 11566 C 1111.1 4.5751 -0.211905 0
M  V30 11567 N 1112.6 4.62928 -0.158772 0
M  V30 11568 C 1113.33 5.72555 -0.311111 0
M  V30 11569 N 1112.83 6.90838 -0.521074 0
M  V30 11570 N 1114.62 5.61549 -0.248838 0
M  V30 11571 H 1106.77 1.8269 -1.08342 0
M  V30 11572 H 1109.03 0.845514 -0.428731 0
M  V30 11573 H 1108.74 3.35962 -1.0403 0
M  V30 11574 H 1108.61 3.71125 0.674246 0
M  V30 11575 H 1111 2.7754 1.00278 0
M  V30 11576 H 1111.08 2.45025 -0.734612 0
M  V30 11577 H 1110.73 4.93669 -1.19389 0
M  V30 11578 H 1110.66 5.23604 0.560901 0
M  V30 11579 H 1113.15 3.779 -0.00107283 0
M  V30 11580 H 1113.46 7.70248 -0.62747 0
M  V30 11581 H 1111.8 6.92761 -0.557374 0
M  V30 11582 H 1115 4.68022 -0.0855821 0
M  V30 11583 H 1115.17 6.46937 -0.370997 0
M  V30 11584 N 1108.58 -0.128553 1.57075 0
M  V30 11585 C 1109.52 -1.17719 2.00611 0
M  V30 11586 C 1110.52 -1.43423 0.90146 0
M  V30 11587 O 1111.72 -1.43498 1.08666 0
M  V30 11588 H 1108.1 -0.396683 0.638864 0
M  V30 11589 H 1110.07 -0.783437 2.87932 0
M  V30 11590 C 1108.82 -2.49826 2.41831 0
M  V30 11591 H 1108.14 -2.30883 3.26394 0
M  V30 11592 H 1109.58 -3.21784 2.761 0
M  V30 11593 C 1108.04 -3.11712 1.27816 0
M  V30 11594 O 1108.57 -3.9736 0.588917 0
M  V30 11595 N 1106.78 -2.71442 1.03767 0
M  V30 11596 H 1106.32 -2.01891 1.59994 0
M  V30 11597 H 1106.28 -3.1318 0.276743 0
M  V30 11598 N 1110.05 -1.5248 -0.398459 0
M  V30 11599 C 1111.3 -1.66287 -1.14155 0
M  V30 11600 C 1111.62 -0.40429 -1.91376 0
M  V30 11601 O 1112.82 -0.422341 -2.68195 0
M  V30 11602 C 1111.28 -2.93831 -2.07825 0
M  V30 11603 C 1110.89 -4.26836 -1.3607 0
M  V30 11604 C 1112.63 -3.17004 -2.82327 0
M  V30 11605 C 1110.54 -5.45495 -2.28451 0
M  V30 11606 H 1109.47 -0.619478 -0.42984 0
M  V30 11607 H 1112.12 -1.78972 -0.405112 0
M  V30 11608 H 1110.5 -2.7487 -2.85065 0
M  V30 11609 H 1111.67 -4.56317 -0.641205 0
M  V30 11610 H 1109.99 -4.0985 -0.735659 0
M  V30 11611 H 1112.59 -4.02834 -3.51609 0
M  V30 11612 H 1112.93 -2.3168 -3.45876 0
M  V30 11613 H 1113.46 -3.36487 -2.12183 0
M  V30 11614 H 1110.2 -6.33198 -1.69532 0
M  V30 11615 H 1109.72 -5.20338 -2.98343 0
M  V30 11616 H 1111.4 -5.78996 -2.88743 0
M  V30 11617 N 1111.53 0.65634 -1.43283 0
M  V30 11618 C 1112.46 1.78101 -1.51004 0
M  V30 11619 C 1113.44 1.66138 -0.36498 0
M  V30 11620 O 1114.63 1.85281 -0.581778 0
M  V30 11621 C 1111.76 3.16511 -1.42961 0
M  V30 11622 C 1110.71 3.43233 -2.55685 0
M  V30 11623 C 1110.04 4.81411 -2.32696 0
M  V30 11624 C 1111.34 3.38288 -3.97943 0
M  V30 11625 H 1113.03 1.71896 -2.45137 0
M  V30 11626 H 1110.58 0.825575 -1.17984 0
M  V30 11627 H 1112.53 3.94941 -1.46968 0
M  V30 11628 H 1111.25 3.23439 -0.45332 0
M  V30 11629 H 1109.91 2.67173 -2.51026 0
M  V30 11630 H 1109.56 4.85011 -1.33317 0
M  V30 11631 H 1109.26 5.00251 -3.08257 0
M  V30 11632 H 1110.79 5.62102 -2.38481 0
M  V30 11633 H 1112.2 4.06659 -4.04106 0
M  V30 11634 H 1110.6 3.68664 -4.73505 0
M  V30 11635 H 1111.67 2.36525 -4.23301 0
M  V30 11636 N 1113.01 1.29761 0.894412 0
M  V30 11637 C 1114.26 1.18214 1.64782 0
M  V30 11638 C 1114.59 -0.264635 1.92388 0
M  V30 11639 O 1113.86 -1.19051 1.53809 0
M  V30 11640 C 1114.15 2.00138 2.99361 0
M  V30 11641 C 1114 3.52984 2.78787 0
M  V30 11642 C 1115.32 1.83187 4.00163 0
M  V30 11643 H 1112.44 0.430802 0.597979 0
M  V30 11644 H 1115.08 1.59292 1.03566 0
M  V30 11645 H 1113.23 1.65233 3.51611 0
M  V30 11646 H 1114.9 3.97898 2.33398 0
M  V30 11647 H 1113.14 3.77642 2.13469 0
M  V30 11648 H 1113.82 4.05585 3.7444 0
M  V30 11649 H 1116.29 2.13684 3.57041 0
M  V30 11650 H 1115.17 2.42849 4.92255 0
M  V30 11651 H 1115.43 0.788469 4.35012 0
M  V30 11652 N 1114.49 -1.10549 1.12324 0
M  V30 11653 C 1115.44 -2.18944 0.785248 0
M  V30 11654 C 1116.43 -1.67867 -0.227389 0
M  V30 11655 O 1117.64 -1.79796 -0.0857162 0
M  V30 11656 H 1114.01 -0.713976 0.236098 0
M  V30 11657 H 1115.98 -2.44692 1.70788 0
M  V30 11658 C 1114.73 -3.46765 0.25485 0
M  V30 11659 H 1114.05 -3.86428 1.02534 0
M  V30 11660 H 1115.49 -4.23962 0.0566526 0
M  V30 11661 C 1113.95 -3.21185 -1.01695 0
M  V30 11662 O 1114.48 -3.42745 -2.09497 0
M  V30 11663 N 1112.69 -2.7486 -0.943423 0
M  V30 11664 H 1112.24 -2.57515 -0.0660366 0
M  V30 11665 H 1112.19 -2.58122 -1.795 0
M  V30 11666 N 1115.97 -0.914965 -1.28321 0
M  V30 11667 C 1117.19 -0.564023 -1.99583 0
M  V30 11668 C 1117.62 0.847821 -1.6791 0
M  V30 11669 O 1116.97 1.56682 -0.912171 0
M  V30 11670 C 1117.02 -0.781368 -3.52033 0
M  V30 11671 O 1116.13 0.159072 -4.12093 0
M  V30 11672 H 1115.47 -0.218565 -0.626997 0
M  V30 11673 H 1118 -1.23074 -1.63444 0
M  V30 11674 H 1118.01 -0.691946 -4.0209 0
M  V30 11675 H 1116.68 -1.81059 -3.7442 0
M  V30 11676 H 1115.26 0.0208145 -3.72894 0
M  V30 11677 N 1117.44 1.42219 -0.679077 0
M  V30 11678 C 1118.39 2.32599 0.00820028 0
M  V30 11679 C 1119.39 1.50059 0.786046 0
M  V30 11680 O 1120.59 1.66103 0.693528 0
M  V30 11681 H 1116.97 0.751694 0.0214483 0
M  V30 11682 H 1118.94 2.88257 -0.77138 0
M  V30 11683 C 1117.69 3.3468 0.942581 0
M  V30 11684 H 1117.01 3.98234 0.353463 0
M  V30 11685 H 1118.45 4.00496 1.39208 0
M  V30 11686 C 1116.91 2.67275 2.05099 0
M  V30 11687 O 1117.44 2.50793 3.13793 0
M  V30 11688 N 1115.64 2.26232 1.82394 0
M  V30 11689 H 1115.19 2.39838 0.939983 0
M  V30 11690 H 1115.15 1.81465 2.56744 0
M  V30 11691 N 1118.92 0.422693 1.51826 0
M  V30 11692 C 1119.85 -0.386913 2.30272 0
M  V30 11693 C 1120.83 -1.03411 1.35056 0
M  V30 11694 O 1122.02 -1.04055 1.6397 0
M  V30 11695 C 1119.15 -1.49645 3.13407 0
M  V30 11696 C 1118.1 -0.973532 4.16781 0
M  V30 11697 C 1117.43 -2.1777 4.88344 0
M  V30 11698 C 1118.73 -0.0181194 5.22297 0
M  V30 11699 H 1120.42 0.267697 2.98201 0
M  V30 11700 H 1117.97 0.130186 1.4341 0
M  V30 11701 H 1119.92 -2.06993 3.67059 0
M  V30 11702 H 1118.64 -2.17914 2.43272 0
M  V30 11703 H 1117.3 -0.42237 3.64159 0
M  V30 11704 H 1116.95 -2.84625 4.14726 0
M  V30 11705 H 1116.65 -1.83427 5.58237 0
M  V30 11706 H 1118.18 -2.75699 5.44814 0
M  V30 11707 H 1119.59 -0.500822 5.71108 0
M  V30 11708 H 1117.99 0.237163 5.99631 0
M  V30 11709 H 1119.06 0.923065 4.76033 0
M  V30 11710 N 1120.4 -1.5685 0.153553 0
M  V30 11711 C 1121.65 -1.96625 -0.49665 0
M  V30 11712 C 1121.98 -1.03877 -1.64083 0
M  V30 11713 O 1121.25 -0.0824112 -1.94325 0
M  V30 11714 C 1121.54 -3.46035 -0.996585 0
M  V30 11715 C 1121.39 -4.49561 0.146551 0
M  V30 11716 C 1122.71 -3.98104 -1.8762 0
M  V30 11717 H 1119.83 -0.714917 -0.179059 0
M  V30 11718 H 1122.47 -1.88527 0.236104 0
M  V30 11719 H 1120.62 -3.53066 -1.621 0
M  V30 11720 H 1122.29 -4.54604 0.783108 0
M  V30 11721 H 1120.53 -4.26271 0.804727 0
M  V30 11722 H 1121.21 -5.51456 -0.245078 0
M  V30 11723 H 1123.68 -3.93593 -1.34997 0
M  V30 11724 H 1122.56 -5.03098 -2.19508 0
M  V30 11725 H 1122.82 -3.40852 -2.81554 0
M  V30 11726 N 1121.88 0.120221 -1.57141 0
M  V30 11727 C 1123.12 0.834128 -1.86606 0
M  V30 11728 C 1123.48 1.77109 -0.741383 0
M  V30 11729 O 1124.68 2.52647 -0.917769 0
M  V30 11730 C 1122.95 1.56536 -3.21296 0
M  V30 11731 S 1124.51 2.32101 -3.7239 0
M  V30 11732 H 1121.33 0.278419 -0.65422 0
M  V30 11733 H 1123.93 0.0925474 -1.95281 0
M  V30 11734 H 1122.64 0.868987 -4.01094 0
M  V30 11735 H 1122.17 2.34734 -3.15696 0
M  V30 11736 H 1124.18 3.57799 -3.43794 0
M  V30 11737 N 1123.36 1.52689 0.390367 0
M  V30 11738 C 1124.3 1.7737 1.47677 0
M  V30 11739 C 1125.27 0.616864 1.54221 0
M  V30 11740 O 1126.46 0.856437 1.70499 0
M  V30 11741 C 1123.6 1.94715 2.84921 0
M  V30 11742 C 1122.71 3.22405 2.8754 0
M  V30 11743 C 1121.85 3.30074 4.16202 0
M  V30 11744 C 1120.89 4.51893 4.12867 0
M  V30 11745 N 1120.02 4.56851 5.33134 0
M  V30 11746 H 1124.86 2.70084 1.25932 0
M  V30 11747 H 1122.4 1.33813 0.610943 0
M  V30 11748 H 1124.36 2.02755 3.64618 0
M  V30 11749 H 1122.99 1.05363 3.0512 0
M  V30 11750 H 1122.04 3.23442 2.00223 0
M  V30 11751 H 1123.35 4.12156 2.80943 0
M  V30 11752 H 1122.51 3.3729 5.04302 0
M  V30 11753 H 1121.24 2.38295 4.25519 0
M  V30 11754 H 1120.25 4.44803 3.23156 0
M  V30 11755 H 1121.47 5.44987 4.05174 0
M  V30 11756 H 1119.42 3.67963 5.43083 0
M  V30 11757 H 1119.34 5.40472 5.28607 0
M  V30 11758 H 1120.61 4.6832 6.23134 0
M  V30 11759 N 1124.83 -0.648732 1.43629 0
M  V30 11760 C 1126.08 -1.41066 1.45699 0
M  V30 11761 C 1126.41 -1.94024 0.082612 0
M  V30 11762 O 1125.69 -1.7257 -0.897207 0
M  V30 11763 C 1125.97 -2.58882 2.50304 0
M  V30 11764 C 1125.82 -2.11387 3.97033 0
M  V30 11765 C 1127.14 -3.61092 2.51597 0
M  V30 11766 H 1124.26 -0.511591 0.530512 0
M  V30 11767 H 1126.9 -0.735069 1.75205 0
M  V30 11768 H 1125.05 -3.16518 2.25274 0
M  V30 11769 H 1126.73 -1.58718 4.33136 0
M  V30 11770 H 1124.97 -1.4272 4.0965 0
M  V30 11771 H 1125.64 -2.96129 4.65845 0
M  V30 11772 H 1128.12 -3.13223 2.73917 0
M  V30 11773 H 1126.99 -4.41071 3.26722 0
M  V30 11774 H 1127.25 -4.13985 1.55141 0
M  V30 11775 N 1126.31 -1.30234 -0.887518 0
M  V30 11776 C 1127.54 -1.21955 -1.67755 0
M  V30 11777 C 1127.96 0.214701 -1.86871 0
M  V30 11778 O 1127.32 1.15459 -1.39782 0
M  V30 11779 C 1127.37 -1.95079 -3.03276 0
M  V30 11780 O 1126.47 -1.27615 -3.92158 0
M  V30 11781 H 1125.81 -0.421948 -0.512695 0
M  V30 11782 H 1128.34 -1.72011 -1.10785 0
M  V30 11783 H 1128.35 -2.04004 -3.53336 0
M  V30 11784 H 1127.03 -2.99392 -2.88682 0
M  V30 11785 H 1125.61 -1.27029 -3.50597 0
M  V30 11786 N 1127.79 1.09952 -1.12909 0
M  V30 11787 C 1129.07 1.78547 -0.798767 0
M  V30 11788 C 1129.45 1.9878 0.710624 0
M  V30 11789 O 1128.8 1.58485 1.64604 0
M  V30 11790 C 1129.01 3.1121 -1.57953 0
M  V30 11791 C 1130.35 3.86006 -1.76874 0
M  V30 11792 O 1131.38 3.20946 -1.54506 0
M  V30 11793 O 1130.24 5.02791 -2.14158 0
M  V30 11794 H 1127.33 0.774084 -0.291072 0
M  V30 11795 H 1129.88 1.16557 -1.2334 0
M  V30 11796 H 1128.65 2.91935 -2.60557 0
M  V30 11797 H 1128.27 3.80922 -1.13948 0
M  V30 11798 N 1129.27 0.921757 1.27833 0
M  V30 11799 C 1130.52 0.559078 1.94629 0
M  V30 11800 C 1130.84 -0.898641 1.72495 0
M  V30 11801 O 1130.1 -1.65546 1.0437 0
M  V30 11802 C 1130.4 0.824259 3.47765 0
M  V30 11803 C 1130.06 2.26278 3.90011 0
M  V30 11804 C 1128.73 2.65607 4.01256 0
M  V30 11805 C 1131.08 3.19853 4.11513 0
M  V30 11806 C 1128.41 3.97646 4.31387 0
M  V30 11807 C 1130.76 4.51467 4.43126 0
M  V30 11808 C 1129.42 4.90637 4.52583 0
M  V30 11809 H 1128.69 0.204581 0.712199 0
M  V30 11810 H 1131.34 1.1646 1.52018 0
M  V30 11811 H 1129.64 0.136011 3.91564 0
M  V30 11812 H 1131.34 0.522701 3.97579 0
M  V30 11813 H 1127.93 1.94765 3.81791 0
M  V30 11814 H 1132.11 2.90674 4.02271 0
M  V30 11815 H 1127.37 4.27685 4.36916 0
M  V30 11816 H 1131.54 5.23982 4.58711 0
M  V30 11817 H 1129.17 5.92982 4.75685 0
M  V30 11818 N 1130.75 -1.41857 0.686609 0
M  V30 11819 C 1131.99 -2.0097 0.213378 0
M  V30 11820 C 1132.32 -1.54618 -1.1882 0
M  V30 11821 O 1131.59 -0.772916 -1.80008 0
M  V30 11822 H 1130.17 -0.743134 0.0758968 0
M  V30 11823 H 1132.83 -1.73609 0.885763 0
M  V30 11824 H 1131.92 -3.11296 0.223826 0
M  V30 11825 N 1132.22 -0.430739 -1.51599 0
M  V30 11826 C 1133.16 0.429107 -2.24129 0
M  V30 11827 C 1134.14 1.03019 -1.25801 0
M  V30 11828 O 1135.32 1.07392 -1.54917 0
M  V30 11829 C 1132.45 1.59749 -2.9866 0
M  V30 11830 C 1131.49 1.11773 -4.11593 0
M  V30 11831 S 1132.33 0.0651468 -5.3546 0
M  V30 11832 C 1133.48 1.23835 -6.13527 0
M  V30 11833 H 1133.71 -0.186683 -2.96713 0
M  V30 11834 H 1131.25 -0.215201 -1.52893 0
M  V30 11835 H 1133.21 2.26735 -3.42201 0
M  V30 11836 H 1131.87 2.18468 -2.25678 0
M  V30 11837 H 1131.06 1.99125 -4.62996 0
M  V30 11838 H 1130.66 0.526209 -3.7028 0
M  V30 11839 H 1132.95 2.15796 -6.42214 0
M  V30 11840 H 1133.9 0.76443 -7.03962 0
M  V30 11841 H 1134.3 1.47393 -5.44918 0
M  V30 11842 N 1133.7 1.56767 -0.161869 0
M  V30 11843 C 1134.93 2.01401 0.49523 0
M  V30 11844 C 1135.35 1.04133 1.56646 0
M  V30 11845 O 1134.71 0.0193747 1.8129 0
M  V30 11846 C 1134.76 3.44695 1.05913 0
M  V30 11847 O 1133.86 3.50475 2.1735 0
M  V30 11848 H 1133.2 0.65314 0.1196 0
M  V30 11849 H 1135.73 2.02903 -0.26298 0
M  V30 11850 H 1135.74 3.83805 1.3841 0
M  V30 11851 H 1134.42 4.14991 0.274749 0
M  V30 11852 H 1133 3.23218 1.85969 0
M  V30 11853 N 1135.18 -0.111886 1.57202 0
M  V30 11854 C 1136.6 -0.465629 1.52657 0
M  V30 11855 C 1136.8 -1.81463 0.875989 0
M  V30 11856 O 1135.85 -2.4825 0.461345 0
M  V30 11857 C 1137.17 -0.443571 2.9741 0
M  V30 11858 C 1138.71 -0.52662 3.08538 0
M  V30 11859 C 1139.19 -0.53488 4.54866 0
M  V30 11860 N 1140.68 -0.596117 4.59348 0
M  V30 11861 C 1141.41 -0.624073 5.69994 0
M  V30 11862 N 1140.91 -0.609245 6.90116 0
M  V30 11863 N 1142.7 -0.667619 5.58121 0
M  V30 11864 H 1134.85 0.771925 1.97876 0
M  V30 11865 H 1137.12 0.285534 0.903977 0
M  V30 11866 H 1136.82 0.480138 3.48407 0
M  V30 11867 H 1136.7 -1.26876 3.55221 0
M  V30 11868 H 1139.08 -1.44075 2.57539 0
M  V30 11869 H 1139.17 0.326396 2.53709 0
M  V30 11870 H 1138.81 0.375233 5.06512 0
M  V30 11871 H 1138.74 -1.40488 5.07514 0
M  V30 11872 H 1141.23 -0.613452 3.72888 0
M  V30 11873 H 1141.54 -0.633396 7.702 0
M  V30 11874 H 1139.89 -0.576557 6.92604 0
M  V30 11875 H 1143.08 -0.676616 4.63184 0
M  V30 11876 H 1143.25 -0.685938 6.44359 0
M  V30 11877 N 1136.66 -1.52894 -0.382264 0
M  V30 11878 C 1137.9 -1.68515 -1.12829 0
M  V30 11879 C 1138.24 -0.427211 -1.89443 0
M  V30 11880 O 1137.51 0.57516 -1.85801 0
M  V30 11881 C 1137.8 -2.92449 -2.10108 0
M  V30 11882 C 1137.65 -4.2836 -1.37214 0
M  V30 11883 C 1138.97 -3.11944 -3.1045 0
M  V30 11884 H 1136.09 -0.613223 -0.408811 0
M  V30 11885 H 1138.73 -1.85503 -0.410921 0
M  V30 11886 H 1136.88 -2.78097 -2.71283 0
M  V30 11887 H 1138.55 -4.54493 -0.789516 0
M  V30 11888 H 1136.79 -4.28532 -0.673973 0
M  V30 11889 H 1137.46 -5.11178 -2.0833 0
M  V30 11890 H 1139.94 -3.25372 -2.59369 0
M  V30 11891 H 1138.82 -4.00125 -3.75754 0
M  V30 11892 H 1139.08 -2.26465 -3.79692 0
M  V30 11893 N 1138.14 0.641106 -1.43971 0
M  V30 11894 C 1139.07 1.76489 -1.52885 0
M  V30 11895 C 1140.05 1.65742 -0.38258 0
M  V30 11896 O 1141.23 1.84653 -0.601397 0
M  V30 11897 C 1138.36 3.14977 -1.4631 0
M  V30 11898 C 1137.32 3.40502 -2.59311 0
M  V30 11899 C 1136.64 4.78916 -2.37789 0
M  V30 11900 C 1137.94 3.34048 -4.01509 0
M  V30 11901 H 1139.64 1.69286 -2.46946 0
M  V30 11902 H 1137.18 0.813015 -1.18853 0
M  V30 11903 H 1139.14 3.9336 -1.51149 0
M  V30 11904 H 1137.86 3.2294 -0.487599 0
M  V30 11905 H 1136.52 2.64495 -2.53846 0
M  V30 11906 H 1136.17 4.8357 -1.38454 0
M  V30 11907 H 1135.87 4.96954 -3.13545 0
M  V30 11908 H 1137.39 5.59541 -2.4443 0
M  V30 11909 H 1138.81 4.0235 -4.08396 0
M  V30 11910 H 1137.2 3.63622 -4.77388 0
M  V30 11911 H 1138.27 2.32022 -4.25786 0
M  V30 11912 N 1139.62 1.30703 0.880598 0
M  V30 11913 C 1140.53 1.19389 2.01949 0
M  V30 11914 C 1141.54 0.112868 1.73634 0
M  V30 11915 O 1142.72 0.328643 1.98701 0
M  V30 11916 C 1139.78 0.891004 3.35055 0
M  V30 11917 C 1138.84 2.05784 3.76764 0
M  V30 11918 C 1138.08 1.76931 5.03519 0
M  V30 11919 O 1138.3 0.699326 5.66097 0
M  V30 11920 O 1137.23 2.623 5.4174 0
M  V30 11921 H 1141.06 2.15073 2.14423 0
M  V30 11922 H 1138.64 1.10339 1.00726 0
M  V30 11923 H 1140.53 0.737476 4.14897 0
M  V30 11924 H 1139.2 -0.0358909 3.2368 0
M  V30 11925 H 1138.11 2.26672 2.97608 0
M  V30 11926 H 1139.44 2.96661 3.9275 0
M  V30 11927 N 1141.09 -1.09351 1.1349 0
M  V30 11928 C 1142.37 -1.78121 0.808225 0
M  V30 11929 C 1142.75 -1.99154 -0.700072 0
M  V30 11930 O 1142.1 -1.59356 -1.63762 0
M  V30 11931 C 1142.31 -3.10368 1.59601 0
M  V30 11932 C 1143.66 -3.85063 1.78919 0
M  V30 11933 O 1144.68 -3.20122 1.56206 0
M  V30 11934 O 1143.54 -5.01648 2.16821 0
M  V30 11935 H 1140.63 -0.77253 0.295173 0
M  V30 11936 H 1143.18 -1.15901 1.23956 0
M  V30 11937 H 1141.95 -2.90549 2.62101 0
M  V30 11938 H 1141.57 -3.80312 1.15967 0
M  V30 11939 N 1142.57 -0.928524 -1.27343 0
M  V30 11940 C 1143.85 -0.487758 -1.89421 0
M  V30 11941 C 1144.23 1.03418 -1.84032 0
M  V30 11942 O 1143.58 1.8887 -1.2861 0
M  V30 11943 C 1143.79 -1.03478 -3.33307 0
M  V30 11944 C 1145.13 -1.09577 -4.10217 0
M  V30 11945 O 1146.16 -0.984463 -3.42326 0
M  V30 11946 O 1145.02 -1.2673 -5.31603 0
M  V30 11947 H 1142.11 -0.157018 -0.811957 0
M  V30 11948 H 1144.66 -1.02027 -1.35605 0
M  V30 11949 H 1143.43 -2.07861 -3.31526 0
M  V30 11950 H 1143.05 -0.483967 -3.94644 0
M  V30 11951 N 1144.05 1.41491 -0.694123 0
M  V30 11952 C 1145.46 1.84283 -0.299439 0
M  V30 11953 C 1145.81 1.58081 1.16211 0
M  V30 11954 O 1144.94 1.05051 1.89191 0
M  V30 11955 C 1145.53 3.34522 -0.536696 0
M  V30 11956 C 1144.09 3.7589 -0.195944 0
M  V30 11957 C 1143.24 2.64908 -0.819692 0
M  V30 11958 H 1146.19 1.31063 -0.894884 0
M  V30 11959 H 1146.21 3.79947 0.205062 0
M  V30 11960 H 1145.72 3.53561 -1.6005 0
M  V30 11961 H 1143.82 3.62452 0.863655 0
M  V30 11962 H 1143.94 4.74671 -0.649954 0
M  V30 11963 H 1142.3 2.53476 -0.249412 0
M  V30 11964 H 1143.08 2.86765 -1.88734 0
M  V30 11965 N 1145.53 0.438773 1.51369 0
M  V30 11966 C 1146.44 -0.378074 2.31534 0
M  V30 11967 C 1147.45 -1.02632 1.40508 0
M  V30 11968 O 1148.63 -1.02138 1.73579 0
M  V30 11969 C 1145.69 -1.46374 3.14286 0
M  V30 11970 C 1144.76 -0.835473 4.21092 0
M  V30 11971 C 1143.99 -1.86941 4.99889 0
M  V30 11972 O 1144.21 -3.0918 4.79337 0
M  V30 11973 O 1143.15 -1.45914 5.83946 0
M  V30 11974 H 1146.97 0.276401 3.0244 0
M  V30 11975 H 1144.56 0.201281 1.48038 0
M  V30 11976 H 1146.44 -2.09335 3.65728 0
M  V30 11977 H 1145.11 -2.10227 2.46143 0
M  V30 11978 H 1144.02 -0.167775 3.73724 0
M  V30 11979 H 1145.35 -0.240406 4.91613 0
M  V30 11980 N 1147.01 -1.56678 0.170181 0
M  V30 11981 C 1147.97 -2.16698 -0.746622 0
M  V30 11982 C 1148.97 -1.11475 -1.15888 0
M  V30 11983 O 1150.16 -1.36994 -1.07602 0
M  V30 11984 C 1147.29 -2.74892 -2.01612 0
M  V30 11985 H 1148.48 -2.99061 -0.224135 0
M  V30 11986 H 1146.04 -1.56098 -0.0793761 0
M  V30 11987 H 1146.77 -1.96259 -2.58172 0
M  V30 11988 H 1146.56 -3.51896 -1.72949 0
M  V30 11989 H 1148.05 -3.21058 -2.67042 0
M  V30 11990 N 1148.48 0.103547 -1.57259 0
M  V30 11991 C 1149.45 1.11039 -2.00507 0
M  V30 11992 C 1150.45 1.33432 -0.897361 0
M  V30 11993 O 1151.64 1.29688 -1.16304 0
M  V30 11994 C 1148.77 2.46144 -2.35851 0
M  V30 11995 H 1149.96 0.738332 -2.90669 0
M  V30 11996 H 1147.51 0.348334 -1.52369 0
M  V30 11997 H 1148.25 2.88242 -1.48617 0
M  V30 11998 H 1148.03 2.31241 -3.16654 0
M  V30 11999 H 1149.52 3.18577 -2.69997 0
M  V30 12000 N 1149.96 1.53094 0.37415 0
M  V30 12001 C 1151.19 1.72508 1.13687 0
M  V30 12002 C 1151.6 0.449922 1.83773 0
M  V30 12003 O 1150.94 -0.586391 1.74089 0
M  V30 12004 C 1151 2.82965 2.21746 0
M  V30 12005 C 1150.67 4.23599 1.71501 0
M  V30 12006 C 1151.67 5.06245 1.1837 0
M  V30 12007 C 1149.35 4.69978 1.77273 0
M  V30 12008 C 1151.34 6.33357 0.71679 0
M  V30 12009 C 1149.03 5.9707 1.30194 0
M  V30 12010 C 1150.03 6.7859 0.774856 0
M  V30 12011 O 1149.72 8.03298 0.310981 0
M  V30 12012 H 1149.45 0.580611 0.346218 0
M  V30 12013 H 1152 2.00596 0.441614 0
M  V30 12014 H 1150.23 2.5033 2.9474 0
M  V30 12015 H 1151.92 2.90638 2.83345 0
M  V30 12016 H 1152.69 4.71591 1.13256 0
M  V30 12017 H 1148.57 4.06605 2.17241 0
M  V30 12018 H 1152.11 6.96934 0.30471 0
M  V30 12019 H 1148.01 6.31225 1.34999 0
M  V30 12020 H 1148.78 8.17364 0.431098 0
M  V30 12021 N 1151.44 -0.633461 1.44309 0
M  V30 12022 C 1152.67 -1.42033 1.50447 0
M  V30 12023 C 1153.08 -1.88362 0.128585 0
M  V30 12024 O 1152.44 -1.60695 -0.865071 0
M  V30 12025 C 1152.49 -2.6422 2.46719 0
M  V30 12026 O 1152.21 -2.19823 3.78958 0
M  V30 12027 C 1153.71 -3.57372 2.62298 0
M  V30 12028 H 1150.93 -0.435667 0.510329 0
M  V30 12029 H 1153.48 -0.774907 1.8925 0
M  V30 12030 H 1151.63 -3.24859 2.11058 0
M  V30 12031 H 1152.05 -2.99022 4.30913 0
M  V30 12032 H 1153.52 -4.39719 3.33693 0
M  V30 12033 H 1154 -4.06026 1.67449 0
M  V30 12034 H 1154.6 -3.02603 2.9885 0
M  V30 12035 N 1152.92 -1.31168 -0.873655 0
M  V30 12036 C 1154.15 -1.23595 -1.65927 0
M  V30 12037 C 1154.56 0.199349 -1.87745 0
M  V30 12038 O 1153.92 1.13013 -1.43298 0
M  V30 12039 C 1153.97 -1.97268 -3.02932 0
M  V30 12040 O 1153.69 -3.35196 -2.82091 0
M  V30 12041 C 1155.19 -1.9649 -3.97374 0
M  V30 12042 H 1152.41 -0.427228 -0.517414 0
M  V30 12043 H 1154.96 -1.72983 -1.09074 0
M  V30 12044 H 1153.11 -1.51651 -3.56484 0
M  V30 12045 H 1153.52 -3.7266 -3.69087 0
M  V30 12046 H 1155 -2.52557 -4.90835 0
M  V30 12047 H 1155.48 -0.946525 -4.28879 0
M  V30 12048 H 1156.08 -2.4197 -3.49758 0
M  V30 12049 N 1154.4 1.08748 -1.14068 0
M  V30 12050 C 1155.81 1.33125 -0.880341 0
M  V30 12051 C 1156.01 1.9569 0.480396 0
M  V30 12052 O 1155.07 2.2077 1.22543 0
M  V30 12053 C 1156.38 2.23618 -2.01036 0
M  V30 12054 C 1157.93 2.37108 -2.04326 0
M  V30 12055 C 1158.4 3.30941 -3.1661 0
M  V30 12056 N 1159.9 3.38517 -3.16166 0
M  V30 12057 C 1160.63 4.11142 -3.99687 0
M  V30 12058 N 1160.13 4.86505 -4.93239 0
M  V30 12059 N 1161.92 4.06938 -3.87761 0
M  V30 12060 H 1154.07 0.665164 -2.01716 0
M  V30 12061 H 1156.33 0.355612 -0.878774 0
M  V30 12062 H 1156.04 1.84885 -2.99183 0
M  V30 12063 H 1155.91 3.24056 -1.93049 0
M  V30 12064 H 1158.3 2.75101 -1.06787 0
M  V30 12065 H 1158.38 1.36424 -2.16384 0
M  V30 12066 H 1158.03 2.93669 -4.14392 0
M  V30 12067 H 1157.96 4.31545 -3.01789 0
M  V30 12068 H 1160.45 2.84786 -2.48405 0
M  V30 12069 H 1160.76 5.39372 -5.53441 0
M  V30 12070 H 1159.1 4.8557 -4.9724 0
M  V30 12071 H 1162.3 3.47166 -3.13996 0
M  V30 12072 H 1162.47 4.63275 -4.53079 0
M  V30 12073 N 1155.87 0.935264 1.26849 0
M  V30 12074 C 1157.12 0.578545 1.93642 0
M  V30 12075 C 1157.44 -0.884296 1.73796 0
M  V30 12076 O 1156.71 -1.62768 1.09011 0
M  V30 12077 H 1155.29 0.210976 0.716588 0
M  V30 12078 H 1157.96 1.1893 1.54407 0
M  V30 12079 H 1157.05 0.791268 3.01903 0
M  V30 12080 N 1157.35 -1.41121 0.701616 0
M  V30 12081 C 1158.6 -2.00733 0.234682 0
M  V30 12082 C 1158.92 -1.55869 -1.17174 0
M  V30 12083 O 1158.19 -0.791965 -1.79178 0
M  V30 12084 H 1156.77 -0.742288 0.0837745 0
M  V30 12085 H 1159.43 -1.7266 0.904127 0
M  V30 12086 H 1158.53 -3.11041 0.256831 0
M  V30 12087 N 1158.83 -0.446794 -1.51134 0
M  V30 12088 C 1159.78 0.359865 -2.27977 0
M  V30 12089 C 1160.75 1.0086 -1.31972 0
M  V30 12090 O 1161.93 1.02569 -1.60886 0
M  V30 12091 C 1159.07 1.44978 -3.1317 0
M  V30 12092 C 1158.19 0.818243 -4.2418 0
M  V30 12093 C 1157.32 1.884 -4.96668 0
M  V30 12094 C 1156.36 1.2314 -5.99586 0
M  V30 12095 N 1155.5 2.23894 -6.65444 0
M  V30 12096 H 1160.34 -0.301775 -2.96468 0
M  V30 12097 H 1157.87 -0.160666 -1.4622 0
M  V30 12098 H 1159.83 2.09308 -3.60896 0
M  V30 12099 H 1158.46 2.08092 -2.46775 0
M  V30 12100 H 1157.51 0.0629889 -3.80348 0
M  V30 12101 H 1158.83 0.301885 -4.97886 0
M  V30 12102 H 1157.98 2.6037 -5.4799 0
M  V30 12103 H 1156.72 2.43411 -4.22614 0
M  V30 12104 H 1155.72 0.497215 -5.47547 0
M  V30 12105 H 1156.95 0.688505 -6.75601 0
M  V30 12106 H 1154.89 2.77967 -5.94197 0
M  V30 12107 H 1154.81 1.77176 -7.34945 0
M  V30 12108 H 1156.08 2.95318 -7.21393 0
M  V30 12109 N 1160.31 1.56586 -0.178487 0
M  V30 12110 C 1161.56 1.96273 0.464745 0
M  V30 12111 C 1161.87 1.0675 1.63902 0
M  V30 12112 O 1163.08 1.36148 2.34896 0
M  V30 12113 C 1161.53 3.49021 0.878207 0
M  V30 12114 C 1161.14 4.4718 -0.270861 0
M  V30 12115 C 1162.88 3.97512 1.48946 0
M  V30 12116 C 1160.79 5.91176 0.162632 0
M  V30 12117 H 1159.72 0.732834 0.177398 0
M  V30 12118 H 1162.37 1.81534 -0.267861 0
M  V30 12119 H 1160.75 3.59203 1.667 0
M  V30 12120 H 1161.93 4.48718 -1.04826 0
M  V30 12121 H 1160.24 4.08788 -0.792529 0
M  V30 12122 H 1162.84 5.02556 1.82595 0
M  V30 12123 H 1163.18 3.40861 2.38997 0
M  V30 12124 H 1163.72 3.90376 0.76496 0
M  V30 12125 H 1160.46 6.51716 -0.703286 0
M  V30 12126 H 1159.98 5.9293 0.905243 0
M  V30 12127 H 1161.65 6.44174 0.604084 0
M  V30 12128 N 1161.79 -0.095206 1.57312 0
M  V30 12129 C 1163.2 -0.649733 1.7503 0
M  V30 12130 C 1163.55 -1.7912 0.800652 0
M  V30 12131 O 1162.67 -2.1639 -0.0208831 0
M  V30 12132 C 1163.27 -1.18541 3.17386 0
M  V30 12133 C 1161.83 -1.686 3.36528 0
M  V30 12134 C 1160.97 -0.595531 2.7083 0
M  V30 12135 H 1163.93 0.130863 1.5816 0
M  V30 12136 H 1163.95 -2.05473 3.20252 0
M  V30 12137 H 1163.46 -0.35441 3.86478 0
M  V30 12138 H 1161.56 -2.541 2.72514 0
M  V30 12139 H 1161.67 -1.77907 4.44844 0
M  V30 12140 H 1160.04 -1.03495 2.32725 0
M  V30 12141 H 1160.82 0.224883 3.42563 0
M  V30 12142 N 1163.26 -1.53291 -0.366026 0
M  V30 12143 C 1164.51 -1.68671 -1.10602 0
M  V30 12144 C 1164.83 -0.444793 -1.90476 0
M  V30 12145 O 1166.03 -0.479135 -2.67239 0
M  V30 12146 C 1164.49 -2.98174 -2.01545 0
M  V30 12147 C 1164.1 -4.29626 -1.26986 0
M  V30 12148 C 1165.84 -3.22921 -2.7554 0
M  V30 12149 C 1163.75 -5.50218 -2.16828 0
M  V30 12150 H 1162.68 -0.628456 -0.416604 0
M  V30 12151 H 1165.33 -1.79791 -0.367058 0
M  V30 12152 H 1163.71 -2.80855 -2.79171 0
M  V30 12153 H 1164.88 -4.57574 -0.544269 0
M  V30 12154 H 1163.2 -4.11318 -0.648558 0
M  V30 12155 H 1165.8 -4.10202 -3.42985 0
M  V30 12156 H 1166.14 -2.38964 -3.40884 0
M  V30 12157 H 1166.67 -3.40912 -2.04997 0
M  V30 12158 H 1163.41 -6.36651 -1.56063 0
M  V30 12159 H 1162.93 -5.26549 -2.87238 0
M  V30 12160 H 1164.61 -5.84991 -2.76396 0
M  V30 12161 N 1164.74 0.6258 -1.44643 0
M  V30 12162 C 1166.16 0.944569 -1.28647 0
M  V30 12163 C 1166.36 2.00227 -0.226134 0
M  V30 12164 O 1165.41 2.4953 0.386161 0
M  V30 12165 C 1166.73 1.40278 -2.65975 0
M  V30 12166 C 1168.28 1.51797 -2.73727 0
M  V30 12167 C 1168.75 2.01 -4.11537 0
M  V30 12168 N 1170.24 2.08262 -4.13741 0
M  V30 12169 C 1170.98 2.47515 -5.17227 0
M  V30 12170 N 1170.47 2.85867 -6.31072 0
M  V30 12171 N 1172.27 2.47695 -5.04583 0
M  V30 12172 H 1164.42 -0.0736157 -2.12272 0
M  V30 12173 H 1166.68 0.0296998 -0.947535 0
M  V30 12174 H 1166.39 0.699871 -3.44666 0
M  V30 12175 H 1166.26 2.37279 -2.93221 0
M  V30 12176 H 1168.65 2.21183 -1.95351 0
M  V30 12177 H 1168.73 0.531574 -2.50216 0
M  V30 12178 H 1168.37 1.32207 -4.90391 0
M  V30 12179 H 1168.3 3.0052 -4.32429 0
M  V30 12180 H 1170.79 1.81286 -3.31578 0
M  V30 12181 H 1171.11 3.14647 -7.05845 0
M  V30 12182 H 1169.45 2.83605 -6.34502 0
M  V30 12183 H 1172.64 2.17127 -4.14697 0
M  V30 12184 H 1172.81 2.77962 -5.85356 0
M  V30 12185 N 1166.22 1.31629 0.866686 0
M  V30 12186 C 1167.47 1.22693 1.62228 0
M  V30 12187 C 1167.82 -0.212134 1.91227 0
M  V30 12188 O 1167.11 -1.1465 1.53512 0
M  V30 12189 C 1167.31 2.00775 2.95676 0
M  V30 12190 C 1167.14 3.52128 2.79708 0
M  V30 12191 C 1165.91 4.21476 2.78722 0
M  V30 12192 C 1168.11 4.47013 2.5433 0
M  V30 12193 N 1166.09 5.58963 2.53838 0
M  V30 12194 C 1167.46 5.72192 2.3874 0
M  V30 12195 C 1169.51 4.36404 2.39701 0
M  V30 12196 C 1168.22 6.8796 2.10008 0
M  V30 12197 C 1170.24 5.51959 2.12358 0
M  V30 12198 C 1169.6 6.76129 1.97559 0
M  V30 12199 H 1165.7 0.504088 0.597845 0
M  V30 12200 H 1168.29 1.65856 1.01979 0
M  V30 12201 H 1166.46 1.59975 3.53924 0
M  V30 12202 H 1168.19 1.83831 3.60539 0
M  V30 12203 H 1164.95 3.73478 2.91224 0
M  V30 12204 H 1165.37 6.31362 2.44358 0
M  V30 12205 H 1170.01 3.41066 2.49868 0
M  V30 12206 H 1167.73 7.83321 1.98578 0
M  V30 12207 H 1171.32 5.45669 2.01834 0
M  V30 12208 H 1170.2 7.64033 1.76701 0
M  V30 12209 N 1167.7 -1.08142 1.14644 0
M  V30 12210 C 1168.93 -1.84318 0.939926 0
M  V30 12211 C 1169.34 -1.81735 -0.511636 0
M  V30 12212 O 1168.7 -1.22297 -1.35461 0
M  V30 12213 C 1168.75 -3.31744 1.43625 0
M  V30 12214 O 1168.47 -3.3435 2.83094 0
M  V30 12215 C 1169.97 -4.24717 1.27007 0
M  V30 12216 H 1167.19 -0.581781 0.334323 0
M  V30 12217 H 1169.74 -1.36561 1.52221 0
M  V30 12218 H 1167.89 -3.7688 0.896664 0
M  V30 12219 H 1168.31 -4.26399 3.05425 0
M  V30 12220 H 1169.78 -5.26262 1.66591 0
M  V30 12221 H 1170.26 -4.38682 0.213257 0
M  V30 12222 H 1170.86 -3.85409 1.79833 0
M  V30 12223 N 1169.18 -0.941978 -1.26351 0
M  V30 12224 C 1170.14 -0.456768 -2.24602 0
M  V30 12225 C 1171.14 0.432574 -1.54872 0
M  V30 12226 O 1172.33 0.23164 -1.72653 0
M  V30 12227 C 1169.46 0.341583 -3.39184 0
M  V30 12228 H 1170.66 -1.32503 -2.69041 0
M  V30 12229 H 1168.21 -0.724021 -1.38519 0
M  V30 12230 H 1168.94 1.22806 -3.00149 0
M  V30 12231 H 1168.73 -0.296268 -3.90979 0
M  V30 12232 H 1170.22 0.670955 -4.12175 0
M  V30 12233 N 1170.66 1.40747 -0.709091 0
M  V30 12234 C 1172.07 1.83955 -0.318968 0
M  V30 12235 C 1172.42 1.59304 1.14527 0
M  V30 12236 O 1171.54 1.07052 1.88066 0
M  V30 12237 C 1172.14 3.33934 -0.572147 0
M  V30 12238 C 1170.7 3.75661 -0.235802 0
M  V30 12239 C 1169.84 2.64024 -0.847743 0
M  V30 12240 H 1172.79 1.30107 -0.908734 0
M  V30 12241 H 1172.82 3.80143 0.164752 0
M  V30 12242 H 1172.33 3.51844 -1.63791 0
M  V30 12243 H 1170.43 3.63348 0.825164 0
M  V30 12244 H 1170.54 4.73955 -0.700263 0
M  V30 12245 H 1168.91 2.53197 -0.276283 0
M  V30 12246 H 1169.69 2.84748 -1.91765 0
M  V30 12247 N 1172.13 0.454803 1.50895 0
M  V30 12248 C 1173.04 -0.353495 2.31921 0
M  V30 12249 C 1174.06 -1.01136 1.41589 0
M  V30 12250 O 1175.24 -1.00291 1.74653 0
M  V30 12251 C 1172.3 -1.43032 3.15821 0
M  V30 12252 C 1171.36 -0.790763 4.21954 0
M  V30 12253 C 1170.59 -1.81628 5.01843 0
M  V30 12254 O 1170.82 -3.04078 4.8259 0
M  V30 12255 O 1169.75 -1.39713 5.8546 0
M  V30 12256 H 1173.58 0.308463 3.02129 0
M  V30 12257 H 1171.16 0.216971 1.47816 0
M  V30 12258 H 1173.04 -2.05444 3.67927 0
M  V30 12259 H 1171.72 -2.07605 2.48358 0
M  V30 12260 H 1170.63 -0.128127 3.73881 0
M  V30 12261 H 1171.96 -0.188251 4.9184 0
M  V30 12262 N 1173.61 -1.56489 0.186789 0
M  V30 12263 C 1174.57 -2.17478 -0.723596 0
M  V30 12264 C 1175.57 -1.12698 -1.14699 0
M  V30 12265 O 1176.76 -1.38128 -1.06143 0
M  V30 12266 C 1173.9 -2.77015 -1.98685 0
M  V30 12267 H 1175.09 -2.99282 -0.192403 0
M  V30 12268 H 1172.64 -1.56174 -0.0628153 0
M  V30 12269 H 1173.38 -1.98987 -2.56076 0
M  V30 12270 H 1173.16 -3.53711 -1.69207 0
M  V30 12271 H 1174.65 -3.23872 -2.63622 0
M  V30 12272 N 1175.09 0.086862 -1.5736 0
M  V30 12273 C 1176.34 0.787581 -1.85688 0
M  V30 12274 C 1176.65 1.79494 -0.777263 0
M  V30 12275 O 1177.86 2.54415 -0.947914 0
M  V30 12276 C 1176.31 1.45155 -3.2933 0
M  V30 12277 C 1175.92 0.483539 -4.45383 0
M  V30 12278 C 1177.67 2.13552 -3.66873 0
M  V30 12279 C 1175.57 1.15257 -5.8006 0
M  V30 12280 H 1174.5 0.297882 -0.692663 0
M  V30 12281 H 1177.15 0.0406299 -1.83455 0
M  V30 12282 H 1175.54 2.24625 -3.26128 0
M  V30 12283 H 1176.71 -0.280254 -4.59947 0
M  V30 12284 H 1175.02 -0.0951664 -4.16291 0
M  V30 12285 H 1177.62 2.64355 -4.6478 0
M  V30 12286 H 1177.96 2.92818 -2.95911 0
M  V30 12287 H 1178.5 1.40932 -3.71999 0
M  V30 12288 H 1175.24 0.400546 -6.54275 0
M  V30 12289 H 1174.76 1.88759 -5.69324 0
M  V30 12290 H 1176.44 1.67671 -6.24896 0
M  V30 12291 N 1176.57 1.53483 0.357892 0
M  V30 12292 C 1177.53 1.79782 1.42166 0
M  V30 12293 C 1178.53 0.668441 1.46248 0
M  V30 12294 O 1179.72 0.936677 1.46874 0
M  V30 12295 C 1176.85 1.92686 2.8122 0
M  V30 12296 H 1178.05 2.74794 1.20117 0
M  V30 12297 H 1175.6 1.44677 0.591468 0
M  V30 12298 H 1176.33 0.997669 3.08573 0
M  V30 12299 H 1176.12 2.74837 2.79655 0
M  V30 12300 H 1177.61 2.14599 3.58242 0
M  V30 12301 N 1178.05 -0.61812 1.44973 0
M  V30 12302 C 1179.28 -1.40225 1.51725 0
M  V30 12303 C 1179.68 -1.88643 0.145098 0
M  V30 12304 O 1179.03 -1.62237 -0.861677 0
M  V30 12305 C 1179.09 -2.64808 2.4314 0
M  V30 12306 C 1178.75 -2.381 3.90073 0
M  V30 12307 C 1179.75 -1.99116 4.80259 0
M  V30 12308 C 1177.43 -2.51338 4.34896 0
M  V30 12309 C 1179.43 -1.73716 6.13271 0
M  V30 12310 C 1177.12 -2.25552 5.67952 0
M  V30 12311 C 1178.11 -1.86801 6.56958 0
M  V30 12312 O 1177.8 -1.6131 7.8755 0
M  V30 12313 H 1177.53 -0.436024 0.516584 0
M  V30 12314 H 1180.09 -0.761929 1.90745 0
M  V30 12315 H 1178.32 -3.31524 1.9907 0
M  V30 12316 H 1180.01 -3.26835 2.40694 0
M  V30 12317 H 1180.77 -1.88435 4.46897 0
M  V30 12318 H 1176.65 -2.80468 3.65867 0
M  V30 12319 H 1180.2 -1.43395 6.82703 0
M  V30 12320 H 1176.09 -2.35847 6.00872 0
M  V30 12321 H 1176.86 -1.75449 7.99475 0
M  V30 12322 N 1179.52 -1.32087 -0.859693 0
M  V30 12323 C 1180.94 -1.10968 -1.14709 0
M  V30 12324 C 1181.14 0.113139 -2.01182 0
M  V30 12325 O 1180.2 0.799499 -2.39508 0
M  V30 12326 C 1181.51 -2.38657 -1.8293 0
M  V30 12327 C 1183.06 -2.44366 -1.95587 0
M  V30 12328 C 1183.53 -3.71963 -2.67222 0
M  V30 12329 N 1185.02 -3.72916 -2.7475 0
M  V30 12330 C 1185.76 -4.68346 -3.30816 0
M  V30 12331 N 1185.25 -5.74139 -3.87732 0
M  V30 12332 N 1187.05 -4.55851 -3.28872 0
M  V30 12333 H 1179.2 -2.10497 -0.283711 0
M  V30 12334 H 1181.46 -0.929108 -0.188315 0
M  V30 12335 H 1181.17 -3.2803 -1.26844 0
M  V30 12336 H 1181.04 -2.49236 -2.83128 0
M  V30 12337 H 1183.43 -1.55456 -2.50833 0
M  V30 12338 H 1183.51 -2.37744 -0.944001 0
M  V30 12339 H 1183.15 -4.61245 -2.1264 0
M  V30 12340 H 1183.08 -3.75855 -3.68837 0
M  V30 12341 H 1185.57 -2.96447 -2.34367 0
M  V30 12342 H 1185.89 -6.43021 -4.28654 0
M  V30 12343 H 1184.23 -5.779 -3.86078 0
M  V30 12344 H 1187.42 -3.72371 -2.83651 0
M  V30 12345 H 1187.6 -5.30398 -3.72266 0
M  V30 12346 N 1181 1.07532 -1.15215 0
M  V30 12347 C 1181.95 2.14687 -0.847243 0
M  V30 12348 C 1182.92 1.64903 0.199043 0
M  V30 12349 O 1184.1 1.90682 0.0669986 0
M  V30 12350 C 1181.24 3.43414 -0.340673 0
M  V30 12351 C 1180.36 4.06999 -1.44831 0
M  V30 12352 C 1179.49 5.23554 -0.898059 0
M  V30 12353 C 1178.53 5.79097 -1.98276 0
M  V30 12354 N 1177.67 6.86985 -1.44902 0
M  V30 12355 H 1182.51 2.4011 -1.76498 0
M  V30 12356 H 1180.04 1.17823 -0.880689 0
M  V30 12357 H 1182 4.1719 -0.0286956 0
M  V30 12358 H 1180.63 3.18249 0.540144 0
M  V30 12359 H 1179.68 3.30895 -1.87651 0
M  V30 12360 H 1181 4.44289 -2.26735 0
M  V30 12361 H 1180.15 6.04305 -0.538514 0
M  V30 12362 H 1178.89 4.87676 -0.0481752 0
M  V30 12363 H 1177.89 4.96992 -2.35115 0
M  V30 12364 H 1179.12 6.1703 -2.83639 0
M  V30 12365 H 1177.07 6.5305 -0.621468 0
M  V30 12366 H 1176.98 7.23149 -2.20434 0
M  V30 12367 H 1178.25 7.71446 -1.11767 0
M  V30 12368 N 1182.48 0.948665 1.2585 0
M  V30 12369 C 1183.73 0.600236 1.934 0
M  V30 12370 C 1184.06 -0.86185 1.74363 0
M  V30 12371 O 1183.31 -1.63294 1.07858 0
M  V30 12372 C 1183.61 0.89784 3.45939 0
M  V30 12373 C 1183.28 2.345 3.85124 0
M  V30 12374 C 1181.94 2.74058 3.95532 0
M  V30 12375 C 1184.29 3.2851 4.04636 0
M  V30 12376 C 1181.62 4.06707 4.22855 0
M  V30 12377 C 1183.97 4.60764 4.3345 0
M  V30 12378 C 1182.63 5.00127 4.42074 0
M  V30 12379 H 1181.9 0.219642 0.707699 0
M  V30 12380 H 1184.55 1.19658 1.49513 0
M  V30 12381 H 1182.86 0.219037 3.91187 0
M  V30 12382 H 1184.55 0.606916 3.96381 0
M  V30 12383 H 1181.14 2.02819 3.77574 0
M  V30 12384 H 1185.33 2.99141 3.96015 0
M  V30 12385 H 1180.58 4.36856 4.27746 0
M  V30 12386 H 1184.76 5.33594 4.47493 0
M  V30 12387 H 1182.38 6.02939 4.63 0
M  V30 12388 N 1183.96 -1.40369 0.716545 0
M  V30 12389 C 1185.19 -2.05181 0.266143 0
M  V30 12390 C 1185.6 -1.53988 -1.09239 0
M  V30 12391 O 1184.96 -0.696859 -1.68672 0
M  V30 12392 C 1185.01 -3.60713 0.238384 0
M  V30 12393 O 1184.73 -4.10018 1.54328 0
M  V30 12394 C 1186.23 -4.42701 -0.230453 0
M  V30 12395 H 1183.45 -0.66028 0.119463 0
M  V30 12396 H 1186 -1.7976 0.97502 0
M  V30 12397 H 1184.15 -3.85101 -0.421466 0
M  V30 12398 H 1184.56 -5.0422 1.4444 0
M  V30 12399 H 1186.04 -5.51642 -0.198728 0
M  V30 12400 H 1186.52 -4.20354 -1.27276 0
M  V30 12401 H 1187.12 -4.23423 0.399155 0
M  V30 12402 N 1185.44 -0.462799 -1.50652 0
M  V30 12403 C 1186.66 0.0952726 -2.07181 0
M  V30 12404 C 1187.09 1.33479 -1.32533 0
M  V30 12405 O 1186.44 1.77473 -0.370564 0
M  V30 12406 C 1186.49 0.370592 -3.58691 0
M  V30 12407 O 1185.6 1.4526 -3.85971 0
M  V30 12408 H 1184.94 -0.00932702 -0.663934 0
M  V30 12409 H 1187.47 -0.651458 -1.93951 0
M  V30 12410 H 1187.48 0.613551 -4.0336 0
M  V30 12411 H 1186.15 -0.535219 -4.12442 0
M  V30 12412 H 1184.73 1.1976 -3.53146 0
M  V30 12413 N 1186.91 1.56388 -0.195085 0
M  V30 12414 C 1187.88 2.17859 0.712053 0
M  V30 12415 C 1188.88 1.13304 1.141 0
M  V30 12416 O 1190.07 1.38689 1.05409 0
M  V30 12417 C 1187.2 2.78065 1.97213 0
M  V30 12418 H 1188.39 2.9938 0.176529 0
M  V30 12419 H 1185.95 1.56205 0.0545322 0
M  V30 12420 H 1186.68 2.00342 2.55017 0
M  V30 12421 H 1186.47 3.54603 1.67329 0
M  V30 12422 H 1187.96 3.25266 2.619 0
M  V30 12423 N 1188.39 -0.0785156 1.57404 0
M  V30 12424 C 1189.62 -0.795871 1.91522 0
M  V30 12425 C 1190.04 -1.70665 0.790892 0
M  V30 12426 O 1189.4 -1.79474 -0.25666 0
M  V30 12427 C 1189.45 -1.57121 3.24569 0
M  V30 12428 O 1188.55 -2.6814 3.13328 0
M  V30 12429 H 1187.89 -0.217575 0.627341 0
M  V30 12430 H 1190.42 -0.0487724 2.04542 0
M  V30 12431 H 1190.43 -1.9519 3.5828 0
M  V30 12432 H 1189.11 -0.902909 4.05981 0
M  V30 12433 H 1187.69 -2.32978 2.91163 0
M  V30 12434 N 1189.87 -1.5367 -0.349747 0
M  V30 12435 C 1191.15 -1.61238 -1.10732 0
M  V30 12436 C 1191.53 -0.429756 -2.06679 0
M  V30 12437 O 1190.88 0.578564 -2.21054 0
M  V30 12438 C 1191.09 -2.97022 -1.83245 0
M  V30 12439 C 1192.43 -3.52158 -2.37212 0
M  V30 12440 O 1193.46 -2.99156 -1.9335 0
M  V30 12441 O 1192.32 -4.44853 -3.1744 0
M  V30 12442 H 1189.41 -0.65191 -0.508864 0
M  V30 12443 H 1191.96 -1.66015 -0.351738 0
M  V30 12444 H 1190.73 -3.74535 -1.13311 0
M  V30 12445 H 1190.35 -2.95808 -2.65675 0
M  V30 12446 N 1191.35 0.610423 -1.45298 0
M  V30 12447 C 1192.59 1.37154 -1.49388 0
M  V30 12448 C 1192.93 1.93737 -0.134025 0
M  V30 12449 O 1192.2 1.74888 0.851138 0
M  V30 12450 C 1192.49 2.52155 -2.5708 0
M  V30 12451 C 1192.34 2.00786 -4.02498 0
M  V30 12452 C 1193.66 3.54294 -2.61082 0
M  V30 12453 H 1190.78 0.497346 -0.54389 0
M  V30 12454 H 1193.42 0.688358 -1.77092 0
M  V30 12455 H 1191.57 3.10434 -2.33587 0
M  V30 12456 H 1193.24 1.47178 -4.37191 0
M  V30 12457 H 1191.48 1.31809 -4.1329 0
M  V30 12458 H 1192.15 2.83674 -4.73533 0
M  V30 12459 H 1194.63 3.05851 -2.82125 0
M  V30 12460 H 1193.51 4.32254 -3.38301 0
M  V30 12461 H 1193.77 4.09726 -1.66063 0
M  V30 12462 N 1192.83 1.32541 0.852676 0
M  V30 12463 C 1194.07 1.24406 1.60918 0
M  V30 12464 C 1194.43 -0.19184 1.91441 0
M  V30 12465 O 1193.72 -1.13016 1.54719 0
M  V30 12466 C 1193.91 2.039 2.9353 0
M  V30 12467 C 1193.74 3.55074 2.75957 0
M  V30 12468 C 1192.51 4.24409 2.74236 0
M  V30 12469 C 1194.71 4.49686 2.49574 0
M  V30 12470 N 1192.69 5.61624 2.47895 0
M  V30 12471 C 1194.06 5.74692 2.32658 0
M  V30 12472 C 1196.12 4.38921 2.35058 0
M  V30 12473 C 1194.82 6.90149 2.027 0
M  V30 12474 C 1196.85 5.5418 2.06491 0
M  V30 12475 C 1196.21 6.78186 1.90377 0
M  V30 12476 H 1192.31 0.510401 0.592465 0
M  V30 12477 H 1194.89 1.66929 1.00214 0
M  V30 12478 H 1193.06 1.6372 3.52208 0
M  V30 12479 H 1194.8 1.87644 3.58569 0
M  V30 12480 H 1191.55 3.76546 2.87246 0
M  V30 12481 H 1191.98 6.33918 2.37648 0
M  V30 12482 H 1196.62 3.43697 2.46236 0
M  V30 12483 H 1194.34 7.85383 1.90259 0
M  V30 12484 H 1197.92 5.47779 1.96035 0
M  V30 12485 H 1196.8 7.65864 1.68587 0
M  V30 12486 N 1194.3 -1.0692 1.15784 0
M  V30 12487 C 1195.53 -1.83849 0.959903 0
M  V30 12488 C 1195.95 -1.8169 -0.486873 0
M  V30 12489 O 1195.31 -1.21305 -1.34739 0
M  V30 12490 C 1195.36 -3.28642 1.48414 0
M  V30 12491 O 1194.46 -4.0665 0.686249 0
M  V30 12492 H 1193.81 -0.569115 0.342059 0
M  V30 12493 H 1196.34 -1.34851 1.53871 0
M  V30 12494 H 1196.35 -3.7947 1.49888 0
M  V30 12495 H 1195.02 -3.29529 2.53739 0
M  V30 12496 H 1193.6 -3.65453 0.741501 0
M  V30 12497 N 1195.78 -0.955326 -1.25345 0
M  V30 12498 C 1197.01 -0.626783 -1.96863 0
M  V30 12499 C 1197.42 0.80547 -1.71198 0
M  V30 12500 O 1196.76 1.55049 -0.985163 0
M  V30 12501 C 1196.83 -0.806404 -3.50339 0
M  V30 12502 C 1196.49 -2.21595 -3.99681 0
M  V30 12503 C 1197.49 -3.19268 -4.10322 0
M  V30 12504 C 1195.17 -2.54032 -4.33328 0
M  V30 12505 C 1197.17 -4.47471 -4.53926 0
M  V30 12506 C 1194.85 -3.82465 -4.76617 0
M  V30 12507 C 1195.85 -4.78997 -4.86879 0
M  V30 12508 O 1195.54 -6.0514 -5.29208 0
M  V30 12509 H 1195.27 -0.233854 -0.634262 0
M  V30 12510 H 1197.82 -1.28232 -1.60455 0
M  V30 12511 H 1196.05 -0.0937184 -3.86586 0
M  V30 12512 H 1197.74 -0.47881 -4.03066 0
M  V30 12513 H 1198.51 -2.95534 -3.84558 0
M  V30 12514 H 1194.39 -1.79623 -4.24566 0
M  V30 12515 H 1197.93 -5.22819 -4.6185 0
M  V30 12516 H 1193.83 -4.06005 -5.01827 0
M  V30 12517 H 1194.6 -6.08527 -5.47392 0
M  V30 12518 N 1197.26 1.39987 -0.723979 0
M  V30 12519 C 1198.51 2.00334 -0.266587 0
M  V30 12520 C 1198.83 1.57714 1.14679 0
M  V30 12521 O 1198.1 0.82037 1.77895 0
M  V30 12522 H 1196.68 0.740861 -0.095573 0
M  V30 12523 H 1199.34 1.712 -0.931481 0
M  V30 12524 H 1198.44 3.10594 -0.306282 0
M  V30 12525 N 1198.74 0.470782 1.50404 0
M  V30 12526 C 1199.99 -0.0859981 2.01517 0
M  V30 12527 C 1200.3 -1.40811 1.35763 0
M  V30 12528 O 1201.51 -2.04982 1.7803 0
M  V30 12529 C 1199.96 -0.203773 3.59323 0
M  V30 12530 C 1199.57 1.10989 4.34034 0
M  V30 12531 C 1201.32 -0.712528 4.18477 0
M  V30 12532 C 1199.22 0.955928 5.83623 0
M  V30 12533 H 1198.15 -0.0359142 0.753144 0
M  V30 12534 H 1200.8 0.605631 1.73218 0
M  V30 12535 H 1199.19 -0.959177 3.84208 0
M  V30 12536 H 1200.36 1.87623 4.20873 0
M  V30 12537 H 1198.67 1.54973 3.86487 0
M  V30 12538 H 1201.27 -0.844745 5.27985 0
M  V30 12539 H 1201.61 -1.70377 3.79838 0
M  V30 12540 H 1202.15 -0.0145179 3.97797 0
M  V30 12541 H 1198.89 1.92054 6.26734 0
M  V30 12542 H 1198.41 0.22997 5.99359 0
M  V30 12543 H 1200.09 0.622423 6.43999 0
M  V30 12544 N 1200.22 -1.56282 0.203376 0
M  V30 12545 C 1201.46 -1.98105 -0.433844 0
M  V30 12546 C 1201.8 -1.09044 -1.60695 0
M  V30 12547 O 1201.07 -0.144193 -1.93965 0
M  V30 12548 C 1201.35 -3.4903 -0.885992 0
M  V30 12549 C 1201.21 -4.48867 0.289501 0
M  V30 12550 C 1202.53 -4.03871 -1.7486 0
M  V30 12551 H 1199.65 -0.720252 -0.156224 0
M  V30 12552 H 1202.29 -1.87681 0.295963 0
M  V30 12553 H 1200.44 -3.58045 -1.50785 0
M  V30 12554 H 1202.11 -4.51883 0.92734 0
M  V30 12555 H 1200.35 -4.23495 0.939934 0
M  V30 12556 H 1201.02 -5.51956 -0.0695128 0
M  V30 12557 H 1203.5 -3.97688 -1.22407 0
M  V30 12558 H 1202.38 -5.09827 -2.03391 0
M  V30 12559 H 1202.64 -3.49637 -2.70567 0
M  V30 12560 N 1201.7 0.070167 -1.57444 0
M  V30 12561 C 1202.63 1.11509 -1.991 0
M  V30 12562 C 1203.61 1.37481 -0.868194 0
M  V30 12563 O 1204.79 1.50827 -1.13064 0
M  V30 12564 C 1201.92 2.45908 -2.3291 0
M  V30 12565 C 1200.96 2.36059 -3.55216 0
M  V30 12566 S 1201.8 1.75316 -5.05989 0
M  V30 12567 C 1202.95 3.11289 -5.43001 0
M  V30 12568 H 1203.19 0.760096 -2.87419 0
M  V30 12569 H 1200.72 0.278756 -1.51863 0
M  V30 12570 H 1202.68 3.23217 -2.53063 0
M  V30 12571 H 1201.34 2.78567 -1.45117 0
M  V30 12572 H 1200.53 3.35176 -3.76395 0
M  V30 12573 H 1200.13 1.66886 -3.34701 0
M  V30 12574 H 1202.42 4.07603 -5.41171 0
M  V30 12575 H 1203.37 2.94888 -6.43775 0
M  V30 12576 H 1203.78 3.11969 -4.70463 0
M  V30 12577 N 1203.17 1.53854 0.341593 0
M  V30 12578 C 1204.42 1.72388 1.07954 0
M  V30 12579 C 1204.77 0.482184 1.8626 0
M  V30 12580 O 1204.07 -0.525232 1.8426 0
M  V30 12581 C 1204.26 2.92844 2.04884 0
M  V30 12582 C 1204.09 4.28609 1.36105 0
M  V30 12583 C 1202.86 4.93068 1.10508 0
M  V30 12584 C 1205.06 5.08254 0.786255 0
M  V30 12585 N 1203.04 6.12702 0.383319 0
M  V30 12586 C 1204.41 6.19693 0.195147 0
M  V30 12587 C 1206.47 4.93134 0.687293 0
M  V30 12588 C 1205.17 7.17661 -0.485298 0
M  V30 12589 C 1207.2 5.91396 0.0205841 0
M  V30 12590 C 1206.56 7.02174 -0.559545 0
M  V30 12591 H 1202.66 0.683826 0.37935 0
M  V30 12592 H 1205.24 1.91288 0.36289 0
M  V30 12593 H 1203.41 2.7544 2.73838 0
M  V30 12594 H 1205.14 3.00088 2.71531 0
M  V30 12595 H 1201.9 4.52659 1.39271 0
M  V30 12596 H 1202.32 6.7699 0.0371033 0
M  V30 12597 H 1206.96 4.07653 1.12155 0
M  V30 12598 H 1204.68 8.02714 -0.931438 0
M  V30 12599 H 1208.27 5.81774 -0.0553832 0
M  V30 12600 H 1207.15 7.76904 -1.06726 0
M  V30 12601 N 1204.65 -0.602709 1.4562 0
M  V30 12602 C 1205.56 -1.74132 1.5721 0
M  V30 12603 C 1206.58 -1.67909 0.456347 0
M  V30 12604 O 1207.75 -1.88178 0.717714 0
M  V30 12605 C 1204.82 -3.10604 1.54032 0
M  V30 12606 C 1203.88 -3.28244 2.76685 0
M  V30 12607 C 1203.11 -4.58205 2.73649 0
M  V30 12608 O 1203.34 -5.40836 1.81254 0
M  V30 12609 O 1202.27 -4.78663 3.64919 0
M  V30 12610 H 1206.1 -1.67304 2.53462 0
M  V30 12611 H 1203.68 -0.767381 1.28186 0
M  V30 12612 H 1205.56 -3.91904 1.54885 0
M  V30 12613 H 1204.24 -3.17913 0.60934 0
M  V30 12614 H 1203.14 -2.46514 2.81393 0
M  V30 12615 H 1204.48 -3.25814 3.68925 0
M  V30 12616 N 1206.13 -1.32992 -0.845635 0
M  V30 12617 C 1207.38 -1.24249 -1.60281 0
M  V30 12618 C 1207.71 0.193049 -1.93238 0
M  V30 12619 O 1206.98 1.1326 -1.58122 0
M  V30 12620 C 1207.27 -2.1111 -2.91727 0
M  V30 12621 C 1207.12 -3.63088 -2.65494 0
M  V30 12622 C 1208.44 -1.97913 -3.93089 0
M  V30 12623 H 1205.56 -0.452698 -0.581578 0
M  V30 12624 H 1208.2 -1.63026 -0.975828 0
M  V30 12625 H 1206.35 -1.78169 -3.45236 0
M  V30 12626 H 1208.02 -4.06287 -2.18469 0
M  V30 12627 H 1206.26 -3.85304 -1.99306 0
M  V30 12628 H 1206.94 -4.19202 -3.59129 0
M  V30 12629 H 1209.41 -2.26788 -3.48864 0
M  V30 12630 H 1208.29 -2.60952 -4.82903 0
M  V30 12631 H 1208.55 -0.949378 -4.31786 0
M  V30 12632 N 1207.61 1.06304 -1.1635 0
M  V30 12633 C 1208.54 2.13209 -0.81346 0
M  V30 12634 C 1209.52 1.61174 0.21484 0
M  V30 12635 O 1210.7 1.8824 0.0989458 0
M  V30 12636 C 1207.83 3.38039 -0.211498 0
M  V30 12637 C 1206.88 4.08875 -1.21339 0
M  V30 12638 S 1207.71 4.58894 -2.76001 0
M  V30 12639 C 1208.86 5.86985 -2.17254 0
M  V30 12640 H 1209.1 2.42572 -1.7189 0
M  V30 12641 H 1206.63 1.18737 -0.986957 0
M  V30 12642 H 1208.59 4.10296 0.129349 0
M  V30 12643 H 1207.25 3.06834 0.671705 0
M  V30 12644 H 1206.44 4.98528 -0.740631 0
M  V30 12645 H 1206.04 3.42632 -1.49932 0
M  V30 12646 H 1208.34 6.59738 -1.54115 0
M  V30 12647 H 1209.28 6.38991 -3.05117 0
M  V30 12648 H 1209.69 5.41012 -1.61141 0
M  V30 12649 N 1209.09 0.96196 1.24836 0
M  V30 12650 C 1210.31 0.637709 1.97353 0
M  V30 12651 C 1210.74 -0.784919 1.7094 0
M  V30 12652 O 1210.09 -1.53188 0.969694 0
M  V30 12653 C 1210.14 0.911485 3.4889 0
M  V30 12654 O 1209.25 -0.00601668 4.124 0
M  V30 12655 H 1208.59 0.241685 0.618453 0
M  V30 12656 H 1211.12 1.29055 1.58764 0
M  V30 12657 H 1211.13 0.840702 3.99245 0
M  V30 12658 H 1209.8 1.9483 3.67442 0
M  V30 12659 H 1208.38 0.117597 3.72715 0
M  V30 12660 N 1210.56 -1.39601 0.731392 0
M  V30 12661 C 1211.79 -2.0459 0.287472 0
M  V30 12662 C 1212.2 -1.5525 -1.08139 0
M  V30 12663 O 1211.54 -0.710949 -1.69385 0
M  V30 12664 C 1211.61 -3.58904 0.206948 0
M  V30 12665 C 1211.27 -4.31204 1.51368 0
M  V30 12666 C 1212.27 -4.58088 2.45869 0
M  V30 12667 C 1209.95 -4.69818 1.77698 0
M  V30 12668 C 1211.95 -5.22591 3.64935 0
M  V30 12669 C 1209.63 -5.34049 2.97043 0
M  V30 12670 C 1210.63 -5.60368 3.90483 0
M  V30 12671 O 1210.32 -6.23268 5.07732 0
M  V30 12672 H 1210.05 -0.664515 0.12408 0
M  V30 12673 H 1212.61 -1.79701 0.994814 0
M  V30 12674 H 1210.84 -3.82675 -0.556466 0
M  V30 12675 H 1212.52 -4.05385 -0.204498 0
M  V30 12676 H 1213.29 -4.28706 2.26796 0
M  V30 12677 H 1209.17 -4.48692 1.05815 0
M  V30 12678 H 1212.71 -5.43049 4.37885 0
M  V30 12679 H 1208.61 -5.62852 3.16018 0
M  V30 12680 H 1209.38 -6.41763 5.08019 0
M  V30 12681 N 1212.04 -0.478751 -1.50152 0
M  V30 12682 C 1213.29 0.0734397 -2.01967 0
M  V30 12683 C 1213.61 1.39523 -1.36229 0
M  V30 12684 O 1212.88 1.89141 -0.510149 0
M  V30 12685 H 1211.46 0.0301305 -0.746392 0
M  V30 12686 H 1214.12 -0.630921 -1.84406 0
M  V30 12687 H 1213.22 0.21937 -3.11328 0
M  V30 12688 N 1213.52 1.56172 -0.211661 0
M  V30 12689 C 1214.43 2.23468 0.714081 0
M  V30 12690 C 1215.45 1.23908 1.22159 0
M  V30 12691 O 1216.62 1.56693 1.26528 0
M  V30 12692 C 1213.69 2.89375 1.90953 0
M  V30 12693 C 1212.75 4.04251 1.44497 0
M  V30 12694 C 1211.98 4.67006 2.58343 0
M  V30 12695 O 1212.2 4.28721 3.76237 0
M  V30 12696 O 1211.14 5.56177 2.3011 0
M  V30 12697 H 1214.96 3.03219 0.170862 0
M  V30 12698 H 1212.55 1.49389 0.0183607 0
M  V30 12699 H 1214.43 3.3101 2.60787 0
M  V30 12700 H 1213.11 2.12591 2.44104 0
M  V30 12701 H 1212.01 3.67205 0.714932 0
M  V30 12702 H 1213.35 4.82748 0.959947 0
M  V30 12703 N 1215 -0.0618163 1.57479 0
M  V30 12704 C 1216.41 -0.416827 1.54061 0
M  V30 12705 C 1216.61 -1.78584 0.933277 0
M  V30 12706 O 1215.67 -2.46656 0.54009 0
M  V30 12707 C 1216.98 -0.348728 2.98671 0
M  V30 12708 C 1218.53 -0.428194 3.10057 0
M  V30 12709 C 1219.01 -0.389898 4.56337 0
M  V30 12710 N 1220.5 -0.449677 4.61012 0
M  V30 12711 C 1221.23 -0.442418 5.71691 0
M  V30 12712 N 1220.73 -0.389381 6.91705 0
M  V30 12713 N 1222.52 -0.489719 5.59963 0
M  V30 12714 H 1214.67 0.834487 1.9532 0
M  V30 12715 H 1216.94 0.314149 0.894435 0
M  V30 12716 H 1216.64 0.590738 3.46703 0
M  V30 12717 H 1216.52 -1.15511 3.59078 0
M  V30 12718 H 1218.9 -1.35808 2.61992 0
M  V30 12719 H 1218.98 0.406946 2.52542 0
M  V30 12720 H 1218.63 0.536186 5.05062 0
M  V30 12721 H 1218.56 -1.24271 5.11727 0
M  V30 12722 H 1221.05 -0.49451 3.74651 0
M  V30 12723 H 1221.36 -0.388042 7.71825 0
M  V30 12724 H 1219.71 -0.355918 6.94088 0
M  V30 12725 H 1222.9 -0.528915 4.65102 0
M  V30 12726 H 1223.07 -0.480592 6.46215 0
M  V30 12727 N 1216.48 -1.54033 -0.333429 0
M  V30 12728 C 1217.89 -1.63107 -0.908455 0
M  V30 12729 C 1218.24 -0.518823 -1.89216 0
M  V30 12730 O 1217.36 0.34985 -2.13553 0
M  V30 12731 C 1217.96 -2.95657 -1.65447 0
M  V30 12732 C 1216.52 -3.0696 -2.17836 0
M  V30 12733 C 1215.66 -2.58617 -1.00063 0
M  V30 12734 H 1218.62 -1.58309 -0.11128 0
M  V30 12735 H 1218.64 -2.85263 -2.51804 0
M  V30 12736 H 1218.15 -3.76588 -0.938263 0
M  V30 12737 H 1216.25 -2.30683 -2.92602 0
M  V30 12738 H 1216.36 -4.12599 -2.43513 0
M  V30 12739 H 1214.73 -2.1427 -1.37697 0
M  V30 12740 H 1215.51 -3.41996 -0.298901 0
M  V30 12741 N 1217.95 0.594978 -1.45938 0
M  V30 12742 C 1219.18 1.37794 -1.53936 0
M  V30 12743 C 1219.59 1.88388 -0.175091 0
M  V30 12744 O 1218.94 1.63587 0.835757 0
M  V30 12745 C 1219 2.60906 -2.47322 0
M  V30 12746 C 1218.66 2.31865 -3.93812 0
M  V30 12747 C 1219.66 1.91451 -4.83366 0
M  V30 12748 C 1217.34 2.44387 -4.3884 0
M  V30 12749 C 1219.34 1.63938 -6.15957 0
M  V30 12750 C 1217.02 2.16487 -5.71469 0
M  V30 12751 C 1218.02 1.76326 -6.59847 0
M  V30 12752 O 1217.71 1.4876 -7.90016 0
M  V30 12753 H 1217.44 0.42775 -0.523456 0
M  V30 12754 H 1220 0.731487 -1.91933 0
M  V30 12755 H 1218.23 3.28315 -2.04319 0
M  V30 12756 H 1219.92 3.22964 -2.45863 0
M  V30 12757 H 1220.68 1.81301 -4.49839 0
M  V30 12758 H 1216.56 2.74612 -3.70283 0
M  V30 12759 H 1220.1 1.32516 -6.84898 0
M  V30 12760 H 1216 2.26257 -6.04548 0
M  V30 12761 H 1216.77 1.62708 -8.02165 0
M  V30 12762 N 1219.43 1.33438 0.838571 0
M  V30 12763 C 1220.68 1.26106 1.59589 0
M  V30 12764 C 1221.03 -0.171524 1.91634 0
M  V30 12765 O 1220.33 -1.11368 1.55909 0
M  V30 12766 C 1220.52 2.07002 2.9135 0
M  V30 12767 C 1220.35 3.57981 2.72175 0
M  V30 12768 C 1219.12 4.27293 2.69719 0
M  V30 12769 C 1221.32 4.52308 2.4479 0
M  V30 12770 N 1219.3 5.64221 2.41925 0
M  V30 12771 C 1220.67 5.77127 2.26549 0
M  V30 12772 C 1222.73 4.4139 2.3039 0
M  V30 12773 C 1221.43 6.9226 1.95368 0
M  V30 12774 C 1223.45 5.56339 2.00602 0
M  V30 12775 C 1222.82 6.80167 1.83173 0
M  V30 12776 H 1218.92 0.516656 0.587018 0
M  V30 12777 H 1221.5 1.67982 0.984382 0
M  V30 12778 H 1219.67 1.67446 3.50452 0
M  V30 12779 H 1221.4 1.91437 3.56558 0
M  V30 12780 H 1218.16 3.79571 2.83236 0
M  V30 12781 H 1218.58 6.36403 2.30911 0
M  V30 12782 H 1223.22 3.46289 2.42577 0
M  V30 12783 H 1220.94 7.87357 1.81918 0
M  V30 12784 H 1224.53 5.49827 1.90214 0
M  V30 12785 H 1223.41 7.67609 1.60455 0
M  V30 12786 N 1220.91 -1.05686 1.16912 0
M  V30 12787 C 1222.19 -1.7546 0.864483 0
M  V30 12788 C 1222.57 -2.0128 -0.636359 0
M  V30 12789 O 1221.92 -1.64485 -1.58609 0
M  V30 12790 C 1222.13 -3.05134 1.69395 0
M  V30 12791 C 1223.47 -3.79176 1.91079 0
M  V30 12792 O 1224.5 -3.1499 1.66312 0
M  V30 12793 O 1223.36 -4.94496 2.32671 0
M  V30 12794 H 1220.45 -0.762748 0.319601 0
M  V30 12795 H 1223 -1.11899 1.27581 0
M  V30 12796 H 1221.77 -2.82063 2.71212 0
M  V30 12797 H 1221.39 -3.76431 1.28007 0
M  V30 12798 N 1222.39 -0.968567 -1.24324 0
M  V30 12799 C 1223.32 -0.444065 -2.23838 0
M  V30 12800 C 1224.3 0.482311 -1.55282 0
M  V30 12801 O 1225.48 0.413489 -1.83909 0
M  V30 12802 C 1222.61 0.358874 -3.36793 0
M  V30 12803 C 1221.66 -0.509913 -4.23441 0
M  V30 12804 S 1222.49 -1.95064 -4.98708 0
M  V30 12805 C 1223.65 -1.15652 -6.15122 0
M  V30 12806 H 1223.88 -1.28738 -2.67981 0
M  V30 12807 H 1221.41 -0.773665 -1.33618 0
M  V30 12808 H 1223.37 0.816164 -4.02305 0
M  V30 12809 H 1222.03 1.17717 -2.91207 0
M  V30 12810 H 1221.22 0.106617 -5.03887 0
M  V30 12811 H 1220.83 -0.902967 -3.62936 0
M  V30 12812 H 1223.12 -0.411966 -6.76246 0
M  V30 12813 H 1224.06 -1.93539 -6.81137 0
M  V30 12814 H 1224.47 -0.680507 -5.60383 0
M  V30 12815 N 1223.87 1.39211 -0.738786 0
M  V30 12816 C 1225.09 2.05256 -0.297421 0
M  V30 12817 C 1225.52 1.55341 1.06069 0
M  V30 12818 O 1224.87 0.698823 1.67291 0
M  V30 12819 C 1224.92 3.59239 -0.312969 0
M  V30 12820 O 1224.03 4.06448 0.698112 0
M  V30 12821 H 1223.37 0.650245 -0.134454 0
M  V30 12822 H 1225.9 1.78173 -1.00577 0
M  V30 12823 H 1225.91 4.07691 -0.158675 0
M  V30 12824 H 1224.58 3.94931 -1.30394 0
M  V30 12825 H 1223.16 3.69401 0.509643 0
M  V30 12826 N 1225.34 0.486708 1.49896 0
M  V30 12827 C 1226.29 -0.313156 2.30482 0
M  V30 12828 C 1227.29 -0.976043 1.38455 0
M  V30 12829 O 1228.49 -0.905364 1.55574 0
M  V30 12830 H 1224.87 -0.119839 0.74239 0
M  V30 12831 H 1226.84 0.386701 2.95884 0
M  V30 12832 C 1225.59 -1.37334 3.19429 0
M  V30 12833 H 1224.91 -0.87265 3.9016 0
M  V30 12834 H 1226.35 -1.90526 3.78782 0
M  V30 12835 C 1224.81 -2.38378 2.38071 0
M  V30 12836 O 1225.34 -3.43972 2.07476 0
M  V30 12837 N 1223.55 -2.10486 2.00359 0
M  V30 12838 H 1223.09 -1.24638 2.2544 0
M  V30 12839 H 1223.05 -2.78324 1.46229 0
M  V30 12840 N 1226.82 -1.56058 0.219941 0
M  V30 12841 C 1227.76 -2.17494 -0.723133 0
M  V30 12842 C 1228.77 -1.14356 -1.15873 0
M  V30 12843 O 1229.96 -1.41343 -1.09016 0
M  V30 12844 C 1227.06 -2.74242 -1.99109 0
M  V30 12845 C 1226.23 -4.02533 -1.71132 0
M  V30 12846 C 1225.29 -4.43862 -2.82618 0
M  V30 12847 O 1224.32 -5.10792 -2.51157 0
M  V30 12848 N 1225.52 -4.09412 -4.11537 0
M  V30 12849 H 1228.28 -2.99048 -0.197619 0
M  V30 12850 H 1225.84 -1.61853 0.0388738 0
M  V30 12851 H 1227.84 -2.98862 -2.7288 0
M  V30 12852 H 1226.41 -1.97 -2.42713 0
M  V30 12853 H 1225.63 -3.85786 -0.810128 0
M  V30 12854 H 1226.91 -4.86227 -1.49868 0
M  V30 12855 H 1226.31 -3.55624 -4.39941 0
M  V30 12856 H 1224.87 -4.38928 -4.81857 0
M  V30 12857 N 1228.3 0.053464 -1.57509 0
M  V30 12858 C 1229.58 0.783141 -1.79238 0
M  V30 12859 C 1229.96 1.94855 -0.812069 0
M  V30 12860 O 1229.31 2.28 0.151006 0
M  V30 12861 C 1229.52 1.239 -3.26266 0
M  V30 12862 C 1230.86 1.66492 -3.90596 0
M  V30 12863 O 1231.89 1.33421 -3.30269 0
M  V30 12864 O 1230.75 2.27785 -4.96766 0
M  V30 12865 H 1227.84 0.376696 -0.736226 0
M  V30 12866 H 1230.39 0.0321229 -1.6967 0
M  V30 12867 H 1229.16 0.405948 -3.89189 0
M  V30 12868 H 1228.78 2.05078 -3.4063 0
M  V30 12869 N 1229.78 1.54207 0.325255 0
M  V30 12870 C 1231.03 1.72587 1.06497 0
M  V30 12871 C 1231.36 0.497228 1.87727 0
M  V30 12872 O 1230.63 -0.505804 1.87808 0
M  V30 12873 C 1230.92 3.00046 1.99109 0
M  V30 12874 C 1230.77 4.33158 1.21221 0
M  V30 12875 C 1232.09 3.23251 2.98658 0
M  V30 12876 H 1229.21 0.627974 0.38577 0
M  V30 12877 H 1231.85 1.869 0.34179 0
M  V30 12878 H 1230 2.87973 2.60775 0
M  V30 12879 H 1231.67 4.57111 0.620289 0
M  V30 12880 H 1229.91 4.30739 0.514462 0
M  V30 12881 H 1230.59 5.18558 1.89214 0
M  V30 12882 H 1233.06 3.34774 2.47114 0
M  V30 12883 H 1231.94 4.13796 3.60645 0
M  V30 12884 H 1232.2 2.40401 3.71026 0
M  V30 12885 N 1231.26 -0.58723 1.46251 0
M  V30 12886 C 1232.51 -1.34179 1.50595 0
M  V30 12887 C 1232.82 -1.94943 0.160171 0
M  V30 12888 O 1234.03 -2.71378 0.0813797 0
M  V30 12889 C 1232.48 -2.43159 2.65333 0
M  V30 12890 C 1232.09 -1.88718 4.06312 0
M  V30 12891 C 1233.83 -3.19986 2.78943 0
M  V30 12892 C 1231.74 -2.953 5.12398 0
M  V30 12893 H 1230.67 -0.504401 0.560442 0
M  V30 12894 H 1233.32 -0.627179 1.72449 0
M  V30 12895 H 1231.7 -3.17398 2.368 0
M  V30 12896 H 1232.88 -1.21051 4.44616 0
M  V30 12897 H 1231.19 -1.24572 3.97329 0
M  V30 12898 H 1233.79 -3.9952 3.5537 0
M  V30 12899 H 1234.13 -3.72288 1.86298 0
M  V30 12900 H 1234.67 -2.52852 3.07101 0
M  V30 12901 H 1231.4 -2.4789 6.0682 0
M  V30 12902 H 1230.92 -3.61469 4.78644 0
M  V30 12903 H 1232.6 -3.5933 5.38044 0
M  V30 12904 N 1232.74 -1.33881 -0.831482 0
M  V30 12905 C 1233.68 -1.24748 -1.94182 0
M  V30 12906 C 1234.65 -0.124516 -1.65633 0
M  V30 12907 O 1235.84 -0.304045 -1.88362 0
M  V30 12908 C 1232.98 -1.00016 -3.30289 0
M  V30 12909 C 1232.09 -2.21007 -3.71187 0
M  V30 12910 C 1231.23 -1.89629 -4.962 0
M  V30 12911 C 1230.26 -3.06811 -5.29654 0
M  V30 12912 N 1229.4 -2.75372 -6.45844 0
M  V30 12913 H 1234.24 -2.19709 -2.01325 0
M  V30 12914 H 1231.78 -1.09245 -0.985081 0
M  V30 12915 H 1233.74 -0.837167 -4.08714 0
M  V30 12916 H 1232.37 -0.0872582 -3.22682 0
M  V30 12917 H 1231.42 -2.48256 -2.88224 0
M  V30 12918 H 1232.73 -3.08587 -3.91887 0
M  V30 12919 H 1231.88 -1.70016 -5.82391 0
M  V30 12920 H 1230.62 -0.992964 -4.77485 0
M  V30 12921 H 1229.63 -3.27029 -4.41964 0
M  V30 12922 H 1230.85 -3.97909 -5.50314 0
M  V30 12923 H 1228.8 -1.87607 -6.28601 0
M  V30 12924 H 1228.72 -3.56483 -6.66675 0
M  V30 12925 H 1229.98 -2.59244 -7.35128 0
M  V30 12926 N 1234.21 1.05064 -1.1747 0
M  V30 12927 C 1235.18 2.1101 -0.89485 0
M  V30 12928 C 1236.18 1.60384 0.11553 0
M  V30 12929 O 1237.37 1.73808 -0.116785 0
M  V30 12930 C 1234.5 3.39194 -0.340642 0
M  V30 12931 H 1235.69 2.37269 -1.83421 0
M  V30 12932 H 1233.24 1.21329 -0.985343 0
M  V30 12933 H 1233.98 3.18591 0.605808 0
M  V30 12934 H 1233.76 3.77251 -1.06885 0
M  V30 12935 H 1235.25 4.17281 -0.163204 0
M  V30 12936 N 1235.69 0.975146 1.23809 0
M  V30 12937 C 1236.94 0.636678 1.91388 0
M  V30 12938 C 1237.25 -0.832876 1.76982 0
M  V30 12939 O 1238.46 -1.28218 2.39316 0
M  V30 12940 C 1236.92 1.08813 3.43057 0
M  V30 12941 C 1236.52 2.58165 3.66135 0
M  V30 12942 C 1238.27 0.823154 4.16443 0
M  V30 12943 C 1236.17 2.97004 5.11412 0
M  V30 12944 H 1235.1 0.234424 0.716632 0
M  V30 12945 H 1237.76 1.18235 1.40331 0
M  V30 12946 H 1236.14 0.470709 3.93192 0
M  V30 12947 H 1237.31 3.25101 3.26567 0
M  V30 12948 H 1235.63 2.82353 3.06049 0
M  V30 12949 H 1238.22 1.08925 5.23488 0
M  V30 12950 H 1238.57 -0.240705 4.15604 0
M  V30 12951 H 1239.1 1.4019 3.72279 0
M  V30 12952 H 1235.84 4.02492 5.17378 0
M  V30 12953 H 1235.36 2.34759 5.51949 0
M  V30 12954 H 1237.04 2.8732 5.79704 0
M  V30 12955 N 1237.17 -1.38817 0.746158 0
M  V30 12956 C 1238.08 -2.34316 0.115386 0
M  V30 12957 C 1239.1 -1.58892 -0.709179 0
M  V30 12958 O 1240.27 -1.91126 -0.635059 0
M  V30 12959 C 1237.34 -3.37977 -0.772821 0
M  V30 12960 C 1236.4 -4.2925 0.0652679 0
M  V30 12961 C 1235.63 -5.2796 -0.78064 0
M  V30 12962 O 1235.85 -5.33474 -2.01896 0
M  V30 12963 O 1234.79 -6.01556 -0.20338 0
M  V30 12964 H 1238.61 -2.89937 0.903887 0
M  V30 12965 H 1236.2 -1.40536 0.506958 0
M  V30 12966 H 1238.08 -4.01468 -1.28068 0
M  V30 12967 H 1236.76 -2.84723 -1.53994 0
M  V30 12968 H 1235.66 -3.68945 0.61891 0
M  V30 12969 H 1237 -4.85739 0.794871 0
M  V30 12970 N 1238.65 -0.49465 -1.49636 0
M  V30 12971 C 1239.56 0.291881 -2.32777 0
M  V30 12972 C 1240.57 0.973468 -1.44221 0
M  V30 12973 O 1241.75 0.956252 -1.77251 0
M  V30 12974 C 1238.81 1.34609 -3.19502 0
M  V30 12975 C 1237.88 0.678611 -4.23903 0
M  V30 12976 C 1237.11 1.68259 -5.06483 0
M  V30 12977 O 1237.33 2.91176 -4.90482 0
M  V30 12978 O 1236.27 1.24141 -5.88959 0
M  V30 12979 H 1240.09 -0.388459 -3.01205 0
M  V30 12980 H 1237.68 -0.256086 -1.47189 0
M  V30 12981 H 1239.56 1.95617 -3.73245 0
M  V30 12982 H 1238.23 2.00947 -2.53775 0
M  V30 12983 H 1237.14 0.0289541 -3.74089 0
M  V30 12984 H 1238.47 0.0577817 -4.92166 0
M  V30 12985 N 1240.13 1.55939 -0.228214 0
M  V30 12986 C 1241.37 1.98084 0.400884 0
M  V30 12987 C 1241.69 1.11727 1.59819 0
M  V30 12988 O 1240.96 0.195794 1.94919 0
M  V30 12989 H 1239.54 0.731558 0.151102 0
M  V30 12990 H 1242.21 1.92211 -0.322659 0
M  V30 12991 H 1241.3 3.03617 0.722706 0
M  V30 12992 N 1241.6 -0.0451101 1.57535 0
M  V30 12993 C 1242.83 -0.750231 1.92497 0
M  V30 12994 C 1243.24 -1.70268 0.824946 0
M  V30 12995 O 1242.59 -1.82511 -0.208656 0
M  V30 12996 C 1242.65 -1.57543 3.23141 0
M  V30 12997 C 1242.31 -0.789495 4.50129 0
M  V30 12998 C 1243.31 -0.0968367 5.1981 0
M  V30 12999 C 1240.99 -0.748776 4.96688 0
M  V30 13000 C 1242.99 0.626018 6.34318 0
M  V30 13001 C 1240.67 -0.0221652 6.11096 0
M  V30 13002 C 1241.67 0.664006 6.79765 0
M  V30 13003 O 1241.36 1.37885 7.91987 0
M  V30 13004 H 1241.09 -0.216895 0.64026 0
M  V30 13005 H 1243.65 -0.011558 2.05397 0
M  V30 13006 H 1241.88 -2.35754 3.06524 0
M  V30 13007 H 1243.57 -2.16168 3.4355 0
M  V30 13008 H 1244.33 -0.119429 4.84853 0
M  V30 13009 H 1240.21 -1.27235 4.43094 0
M  V30 13010 H 1243.75 1.16215 6.87852 0
M  V30 13011 H 1239.65 0.00240707 6.455 0
M  V30 13012 H 1240.42 1.29087 8.08257 0
M  V30 13013 N 1243.08 -1.54377 -0.317073 0
M  V30 13014 C 1244.5 -1.45232 -0.6618 0
M  V30 13015 C 1244.7 -0.630457 -1.91383 0
M  V30 13016 O 1243.75 -0.13181 -2.52156 0
M  V30 13017 C 1245.07 -2.89025 -0.829761 0
M  V30 13018 C 1246.62 -2.98967 -0.926685 0
M  V30 13019 C 1247.09 -4.43923 -1.12677 0
M  V30 13020 N 1248.58 -4.47564 -1.19335 0
M  V30 13021 C 1249.32 -5.56887 -1.36617 0
M  V30 13022 N 1248.81 -6.76167 -1.50899 0
M  V30 13023 N 1250.61 -5.44546 -1.39377 0
M  V30 13024 H 1242.76 -2.0629 0.505766 0
M  V30 13025 H 1245.02 -0.933615 0.164522 0
M  V30 13026 H 1244.73 -3.51695 0.0190945 0
M  V30 13027 H 1244.6 -3.35515 -1.72364 0
M  V30 13028 H 1246.99 -2.36421 -1.76604 0
M  V30 13029 H 1247.07 -2.55798 -0.00913402 0
M  V30 13030 H 1246.71 -5.07059 -0.29224 0
M  V30 13031 H 1246.64 -4.84708 -2.05829 0
M  V30 13032 H 1249.13 -3.61623 -1.09715 0
M  V30 13033 H 1249.45 -7.55242 -1.63796 0
M  V30 13034 H 1247.79 -6.79062 -1.47985 0
M  V30 13035 H 1250.98 -4.50311 -1.27819 0
M  V30 13036 H 1251.15 -6.29799 -1.52502 0
M  V30 13037 N 1244.56 0.579466 -1.4656 0
M  V30 13038 C 1245.49 1.69846 -1.60233 0
M  V30 13039 C 1246.47 1.6397 -0.452533 0
M  V30 13040 O 1247.66 1.81936 -0.679174 0
M  V30 13041 C 1244.79 3.08488 -1.59538 0
M  V30 13042 C 1243.74 3.29197 -2.7352 0
M  V30 13043 C 1243.07 4.684 -2.57887 0
M  V30 13044 C 1244.37 3.16718 -4.15315 0
M  V30 13045 H 1246.06 1.5866 -2.53904 0
M  V30 13046 H 1243.61 0.761873 -1.22194 0
M  V30 13047 H 1245.56 3.86595 -1.67696 0
M  V30 13048 H 1244.28 3.20581 -0.62413 0
M  V30 13049 H 1242.94 2.53491 -2.64836 0
M  V30 13050 H 1242.59 4.77262 -1.58839 0
M  V30 13051 H 1242.29 4.83208 -3.34341 0
M  V30 13052 H 1243.81 5.48671 -2.67942 0
M  V30 13053 H 1245.23 3.84666 -4.25094 0
M  V30 13054 H 1243.63 3.43047 -4.92381 0
M  V30 13055 H 1244.7 2.13755 -4.35244 0
M  V30 13056 N 1246.04 1.3432 0.824371 0
M  V30 13057 C 1247.45 1.23855 1.39703 0
M  V30 13058 C 1247.8 -0.136566 1.95724 0
M  V30 13059 O 1246.93 -1.03683 1.89944 0
M  V30 13060 C 1247.52 2.24249 2.53965 0
M  V30 13061 C 1246.08 2.17578 3.07143 0
M  V30 13062 C 1245.23 2.10933 1.80008 0
M  V30 13063 H 1248.18 1.45707 0.628891 0
M  V30 13064 H 1248.2 1.85864 3.32016 0
M  V30 13065 H 1247.71 3.24321 2.13161 0
M  V30 13066 H 1245.81 1.20858 3.52455 0
M  V30 13067 H 1245.92 3.08769 3.66331 0
M  V30 13068 H 1244.29 1.56631 2.00845 0
M  V30 13069 H 1245.07 3.12836 1.4138 0
M  V30 13070 N 1247.52 -1.0444 1.18026 0
M  V30 13071 C 1248.93 -1.5903 0.978076 0
M  V30 13072 C 1249.28 -1.90407 -0.473241 0
M  V30 13073 O 1248.4 -1.69133 -1.34992 0
M  V30 13074 C 1249 -2.88942 1.76912 0
M  V30 13075 C 1247.56 -3.40164 1.61139 0
M  V30 13076 C 1246.7 -2.13797 1.76596 0
M  V30 13077 H 1249.66 -0.871574 1.32625 0
M  V30 13078 H 1249.68 -3.59173 1.25598 0
M  V30 13079 H 1249.19 -2.66074 2.82535 0
M  V30 13080 H 1247.29 -3.68053 0.580353 0
M  V30 13081 H 1247.4 -4.14241 2.40709 0
M  V30 13082 H 1245.77 -2.24922 1.19507 0
M  V30 13083 H 1246.55 -1.93389 2.83647 0
M  V30 13084 N 1248.99 -0.981699 -1.2329 0
M  V30 13085 C 1250.41 -0.688087 -1.73558 0
M  V30 13086 C 1250.76 0.795633 -1.79344 0
M  V30 13087 O 1249.88 1.62227 -1.43218 0
M  V30 13088 C 1250.48 -1.24235 -3.152 0
M  V30 13089 C 1249.04 -0.998356 -3.62918 0
M  V30 13090 C 1248.18 -1.3693 -2.41134 0
M  V30 13091 H 1251.13 -1.15539 -1.08795 0
M  V30 13092 H 1251.15 -0.61541 -3.7549 0
M  V30 13093 H 1250.67 -2.32223 -3.10957 0
M  V30 13094 H 1248.77 0.0653847 -3.72543 0
M  V30 13095 H 1248.88 -1.65385 -4.49649 0
M  V30 13096 H 1247.24 -0.787773 -2.42211 0
M  V30 13097 H 1248.03 -2.45898 -2.39561 0
M  V30 13098 N 1250.47 1.3842 -0.753509 0
M  V30 13099 C 1251.41 2.28079 -0.0741683 0
M  V30 13100 C 1252.38 1.45372 0.728398 0
M  V30 13101 O 1253.57 1.74737 0.707043 0
M  V30 13102 C 1250.69 3.26475 0.901764 0
M  V30 13103 C 1249.74 4.26097 0.185438 0
M  V30 13104 S 1250.57 5.23791 -1.11372 0
M  V30 13105 C 1251.73 6.25741 -0.140861 0
M  V30 13106 H 1251.96 2.85349 -0.834475 0
M  V30 13107 H 1249.5 1.4442 -0.546089 0
M  V30 13108 H 1251.45 3.83678 1.4595 0
M  V30 13109 H 1250.11 2.68189 1.63504 0
M  V30 13110 H 1249.31 4.95447 0.924578 0
M  V30 13111 H 1248.91 3.72789 -0.300772 0
M  V30 13112 H 1251.2 6.73945 0.693174 0
M  V30 13113 H 1252.14 7.03543 -0.80202 0
M  V30 13114 H 1252.55 5.6399 0.2398 0
M  V30 13115 N 1251.95 0.502579 1.49372 0
M  V30 13116 C 1253.23 -0.104472 1.95321 0
M  V30 13117 C 1253.61 -1.53975 1.44412 0
M  V30 13118 O 1252.96 -2.18804 0.658566 0
M  V30 13119 C 1253.17 -0.0154833 3.48997 0
M  V30 13120 C 1254.51 -0.188615 4.24181 0
M  V30 13121 O 1255.54 -0.090595 3.56085 0
M  V30 13122 O 1254.4 -0.390068 5.45106 0
M  V30 13123 H 1251.49 -0.0944325 0.821591 0
M  V30 13124 H 1254.04 0.565229 1.6001 0
M  V30 13125 H 1252.81 0.985383 3.7869 0
M  V30 13126 H 1252.43 -0.72526 3.90929 0
M  V30 13127 N 1253.43 -1.55816 0.23648 0
M  V30 13128 C 1254.67 -2.0059 -0.39281 0
M  V30 13129 C 1255.03 -1.12092 -1.55883 0
M  V30 13130 O 1256.23 -1.46277 -2.25514 0
M  V30 13131 C 1254.5 -3.48281 -0.80219 0
M  V30 13132 S 1256.06 -4.15069 -1.42348 0
M  V30 13133 H 1252.88 -0.700093 -0.124057 0
M  V30 13134 H 1255.48 -1.92355 0.349272 0
M  V30 13135 H 1254.19 -4.10362 0.0558941 0
M  V30 13136 H 1253.72 -3.60421 -1.57671 0
M  V30 13137 H 1255.73 -4.15493 -2.71257 0
M  V30 13138 N 1254.91 0.036755 -1.57557 0
M  V30 13139 C 1256.32 0.584324 -1.7732 0
M  V30 13140 C 1256.67 1.76025 -0.86658 0
M  V30 13141 O 1255.79 2.16318 -0.059443 0
M  V30 13142 C 1256.39 1.06679 -3.21566 0
M  V30 13143 C 1254.95 1.55994 -3.42553 0
M  V30 13144 C 1254.09 0.494604 -2.72853 0
M  V30 13145 H 1257.05 -0.189473 -1.57565 0
M  V30 13146 H 1257.07 1.93446 -3.27657 0
M  V30 13147 H 1256.58 0.210727 -3.87527 0
M  V30 13148 H 1254.68 2.43811 -2.81757 0
M  V30 13149 H 1254.79 1.61274 -4.5114 0
M  V30 13150 H 1253.16 0.947865 -2.36406 0
M  V30 13151 H 1253.94 -0.351868 -3.41492 0
M  V30 13152 N 1256.39 1.54543 0.308881 0
M  V30 13153 C 1257.63 1.7266 1.04266 0
M  V30 13154 C 1257.95 0.51518 1.88694 0
M  V30 13155 O 1259.15 0.577988 2.65276 0
M  V30 13156 C 1257.61 3.05448 1.9034 0
M  V30 13157 C 1257.22 4.34043 1.10953 0
M  V30 13158 C 1258.96 3.32925 2.63365 0
M  V30 13159 C 1256.87 5.57886 1.96258 0
M  V30 13160 H 1255.8 0.643485 0.392992 0
M  V30 13161 H 1258.45 1.8103 0.300077 0
M  V30 13162 H 1256.83 2.91023 2.68555 0
M  V30 13163 H 1258.01 4.59279 0.374069 0
M  V30 13164 H 1256.32 4.13442 0.495453 0
M  V30 13165 H 1258.92 4.22649 3.27524 0
M  V30 13166 H 1259.26 2.51451 3.3178 0
M  V30 13167 H 1259.79 3.48285 1.92204 0
M  V30 13168 H 1256.53 6.42005 1.32326 0
M  V30 13169 H 1256.05 5.36847 2.67498 0
M  V30 13170 H 1257.73 5.94846 2.54494 0
M  V30 13171 N 1257.86 -0.571685 1.46866 0
M  V30 13172 C 1258.83 -1.66198 1.57832 0
M  V30 13173 C 1259.83 -1.54242 0.454547 0
M  V30 13174 O 1261.02 -1.58661 0.719191 0
M  V30 13175 C 1258.15 -3.05678 1.5091 0
M  V30 13176 H 1259.34 -1.57829 2.5501 0
M  V30 13177 H 1256.89 -0.790433 1.3484 0
M  V30 13178 H 1257.63 -3.19593 0.550529 0
M  V30 13179 H 1257.41 -3.15765 2.32454 0
M  V30 13180 H 1258.9 -3.85027 1.61692 0
M  V30 13181 N 1259.34 -1.34755 -0.817236 0
M  V30 13182 C 1260.27 -1.29452 -1.94331 0
M  V30 13183 C 1261.25 -0.170902 -1.69239 0
M  V30 13184 O 1262.44 -0.364173 -1.90755 0
M  V30 13185 C 1259.57 -1.05497 -3.30889 0
M  V30 13186 C 1258.52 -2.14386 -3.70436 0
M  V30 13187 C 1257.85 -1.75612 -5.05039 0
M  V30 13188 C 1259.15 -3.56265 -3.81933 0
M  V30 13189 H 1260.84 -2.23672 -1.99025 0
M  V30 13190 H 1258.39 -1.07674 -0.956159 0
M  V30 13191 H 1260.34 -1.0043 -4.09257 0
M  V30 13192 H 1259.06 -0.0772059 -3.26509 0
M  V30 13193 H 1257.72 -2.18532 -2.94345 0
M  V30 13194 H 1257.37 -0.764809 -4.97152 0
M  V30 13195 H 1257.07 -2.48495 -5.3247 0
M  V30 13196 H 1258.6 -1.72051 -5.85859 0
M  V30 13197 H 1260.01 -3.545 -4.50558 0
M  V30 13198 H 1258.41 -4.27818 -4.20822 0
M  V30 13199 H 1259.48 -3.93192 -2.83775 0
M  V30 13200 N 1260.82 1.03812 -1.18578 0
M  V30 13201 C 1261.77 2.10206 -0.883037 0
M  V30 13202 C 1262.75 1.60215 0.148303 0
M  V30 13203 O 1263.95 1.76911 -0.0560957 0
M  V30 13204 C 1261.07 3.40802 -0.41335 0
M  V30 13205 C 1260.16 3.97553 -1.47691 0
M  V30 13206 N 1260.55 4.28085 -2.69401 0
M  V30 13207 C 1258.85 4.25456 -1.33802 0
M  V30 13208 C 1259.55 4.73535 -3.37845 0
M  V30 13209 N 1258.53 4.74504 -2.6523 0
M  V30 13210 H 1262.33 2.31692 -1.80821 0
M  V30 13211 H 1259.84 1.21589 -1.07656 0
M  V30 13212 H 1261.84 4.1652 -0.177953 0
M  V30 13213 H 1260.5 3.20742 0.505449 0
M  V30 13214 H 1261.51 4.17653 -3.06246 0
M  V30 13215 H 1258.19 4.14709 -0.481961 0
M  V30 13216 H 1259.58 5.06157 -4.41876 0
M  V30 13217 N 1262.3 0.988223 1.22768 0
M  V30 13218 C 1263.23 0.492919 2.23837 0
M  V30 13219 C 1264.24 -0.409467 1.57567 0
M  V30 13220 O 1265.43 -0.21235 1.77232 0
M  V30 13221 C 1262.53 -0.305428 3.37521 0
M  V30 13222 C 1261.7 0.591966 4.33376 0
M  V30 13223 C 1260.76 -0.15387 5.25975 0
M  V30 13224 O 1259.79 0.459153 5.67345 0
M  V30 13225 N 1260.99 -1.43756 5.62418 0
M  V30 13226 H 1263.76 1.36199 2.66965 0
M  V30 13227 H 1261.32 0.862395 1.3702 0
M  V30 13228 H 1263.31 -0.812921 3.96451 0
M  V30 13229 H 1261.88 -1.07556 2.93514 0
M  V30 13230 H 1261.1 1.28019 3.72833 0
M  V30 13231 H 1262.39 1.20327 4.94367 0
M  V30 13232 H 1261.79 -1.95701 5.30771 0
M  V30 13233 H 1260.34 -1.89034 6.23786 0
M  V30 13234 N 1263.78 -1.38018 0.760839 0
M  V30 13235 C 1264.71 -2.32995 0.153557 0
M  V30 13236 C 1265.69 -1.55234 -0.695448 0
M  V30 13237 O 1266.87 -1.8352 -0.635148 0
M  V30 13238 C 1264 -3.39437 -0.734811 0
M  V30 13239 C 1262.96 -4.27998 0.0120287 0
M  V30 13240 C 1262.28 -5.25359 -0.995067 0
M  V30 13241 C 1263.58 -5.08687 1.18468 0
M  V30 13242 H 1265.28 -2.8403 0.946956 0
M  V30 13243 H 1262.82 -1.36562 0.456816 0
M  V30 13244 H 1264.77 -4.0485 -1.16938 0
M  V30 13245 H 1263.5 -2.86901 -1.56061 0
M  V30 13246 H 1262.16 -3.64102 0.427254 0
M  V30 13247 H 1261.81 -4.69108 -1.81512 0
M  V30 13248 H 1261.51 -5.85469 -0.499969 0
M  V30 13249 H 1263.03 -5.93648 -1.4288 0
M  V30 13250 H 1264.44 -5.67299 0.8273 0
M  V30 13251 H 1262.84 -5.78068 1.61112 0
M  V30 13252 H 1263.91 -4.42 1.99409 0
M  V30 13253 N 1265.25 -0.510493 -1.49103 0
M  V30 13254 C 1266.19 0.309697 -2.26089 0
M  V30 13255 C 1267.16 0.962061 -1.31084 0
M  V30 13256 O 1268.35 0.990296 -1.60391 0
M  V30 13257 C 1265.48 1.43693 -3.06708 0
M  V30 13258 C 1264.52 0.897978 -4.1694 0
M  V30 13259 S 1265.35 -0.218781 -5.35053 0
M  V30 13260 C 1266.51 0.911396 -6.19229 0
M  V30 13261 H 1266.74 -0.343702 -2.95307 0
M  V30 13262 H 1264.28 -0.295944 -1.51537 0
M  V30 13263 H 1266.23 2.08277 -3.53739 0
M  V30 13264 H 1264.9 2.06198 -2.36941 0
M  V30 13265 H 1264.09 1.74303 -4.729 0
M  V30 13266 H 1263.69 0.329192 -3.72548 0
M  V30 13267 H 1265.98 1.8145 -6.5275 0
M  V30 13268 H 1266.93 0.390201 -7.07024 0
M  V30 13269 H 1267.33 1.18301 -5.51965 0
M  V30 13270 N 1266.73 1.55688 -0.24474 0
M  V30 13271 C 1267.66 2.24272 0.64995 0
M  V30 13272 C 1268.64 1.22226 1.183 0
M  V30 13273 O 1269.83 1.50873 1.22274 0
M  V30 13274 C 1266.96 2.94053 1.84798 0
M  V30 13275 C 1265.91 4.02769 1.44779 0
M  V30 13276 C 1265.24 4.59965 2.72647 0
M  V30 13277 C 1266.54 5.18601 0.62047 0
M  V30 13278 H 1268.23 2.99298 0.0780654 0
M  V30 13279 H 1265.78 1.43955 0.0361069 0
M  V30 13280 H 1267.73 3.40732 2.47951 0
M  V30 13281 H 1266.45 2.16511 2.44521 0
M  V30 13282 H 1265.11 3.56856 0.839609 0
M  V30 13283 H 1264.76 3.79126 3.30564 0
M  V30 13284 H 1264.46 5.33352 2.46596 0
M  V30 13285 H 1265.99 5.09376 3.36703 0
M  V30 13286 H 1267.4 5.61519 1.15625 0
M  V30 13287 H 1265.8 5.98364 0.456097 0
M  V30 13288 H 1266.87 4.83503 -0.367798 0
M  V30 13289 N 1268.21 -0.0283989 1.57574 0
M  V30 13290 C 1269.49 -0.754527 1.80461 0
M  V30 13291 C 1269.87 -1.93539 0.842966 0
M  V30 13292 O 1269.21 -2.28212 -0.114714 0
M  V30 13293 C 1269.42 -1.18694 3.28196 0
M  V30 13294 C 1270.77 -1.60257 3.93196 0
M  V30 13295 O 1271.8 -1.2815 3.32349 0
M  V30 13296 O 1270.66 -2.19853 5.00327 0
M  V30 13297 H 1267.75 -0.364936 0.742126 0
M  V30 13298 H 1270.3 -0.00512589 1.69699 0
M  V30 13299 H 1269.07 -0.34398 3.89785 0
M  V30 13300 H 1268.69 -1.99633 3.43849 0
M  V30 13301 N 1269.69 -1.54705 -0.300681 0
M  V30 13302 C 1270.93 -1.75738 -1.04381 0
M  V30 13303 C 1271.29 -0.532138 -1.84478 0
M  V30 13304 O 1272.49 -0.620213 -2.61547 0
M  V30 13305 C 1270.76 -3.01095 -1.92553 0
M  V30 13306 S 1272.32 -3.43132 -2.73507 0
M  V30 13307 H 1269.14 -0.617737 -0.352025 0
M  V30 13308 H 1271.74 -1.9291 -0.317187 0
M  V30 13309 H 1270.45 -3.88393 -1.32585 0
M  V30 13310 H 1269.98 -2.86512 -2.69582 0
M  V30 13311 H 1271.99 -3.00227 -3.95067 0
M  V30 13312 N 1271.17 0.563888 -1.47167 0
M  V30 13313 C 1272.41 1.32105 -1.5466 0
M  V30 13314 C 1272.77 1.91322 -0.203349 0
M  V30 13315 O 1272.06 1.74546 0.790201 0
M  V30 13316 C 1272.25 2.45678 -2.59571 0
M  V30 13317 C 1272.08 1.97589 -4.03966 0
M  V30 13318 C 1270.85 1.81738 -4.71486 0
M  V30 13319 C 1273.05 1.52432 -4.91191 0
M  V30 13320 N 1271.03 1.27918 -6.00425 0
M  V30 13321 C 1272.4 1.10332 -6.10104 0
M  V30 13322 C 1274.46 1.40422 -4.77688 0
M  V30 13323 C 1273.16 0.574166 -7.17005 0
M  V30 13324 C 1275.19 0.889086 -5.84679 0
M  V30 13325 C 1274.55 0.477976 -7.02776 0
M  V30 13326 H 1270.65 0.475685 -0.620683 0
M  V30 13327 H 1273.23 0.639944 -1.83883 0
M  V30 13328 H 1271.4 3.11328 -2.32227 0
M  V30 13329 H 1273.14 3.12667 -2.56947 0
M  V30 13330 H 1269.89 2.04253 -4.27291 0
M  V30 13331 H 1270.32 1.03116 -6.69101 0
M  V30 13332 H 1274.96 1.7082 -3.86756 0
M  V30 13333 H 1272.68 0.257804 -8.07689 0
M  V30 13334 H 1276.26 0.799807 -5.76276 0
M  V30 13335 H 1275.14 0.0855381 -7.84153 0
M  V30 13336 N 1272.64 1.35187 0.810078 0
M  V30 13337 C 1273.58 1.23673 1.92971 0
M  V30 13338 C 1274.59 0.160819 1.62004 0
M  V30 13339 O 1275.78 0.413793 1.73638 0
M  V30 13340 C 1272.88 0.880887 3.27252 0
M  V30 13341 C 1272.05 2.05444 3.86149 0
M  V30 13342 C 1271.11 1.67494 4.98831 0
M  V30 13343 O 1270.14 2.39322 5.16443 0
M  V30 13344 N 1271.34 0.596539 5.77427 0
M  V30 13345 H 1274.1 2.20133 2.03376 0
M  V30 13346 H 1271.66 1.2831 0.987322 0
M  V30 13347 H 1273.66 0.608556 4.00098 0
M  V30 13348 H 1272.23 0.00607926 3.12599 0
M  V30 13349 H 1271.45 2.49077 3.05539 0
M  V30 13350 H 1272.73 2.83898 4.22231 0
M  V30 13351 H 1272.13 -0.000312591 5.657 0
M  V30 13352 H 1270.69 0.383979 6.50668 0
M  V30 13353 N 1274.12 -1.03182 1.19127 0
M  V30 13354 C 1275.07 -2.11394 0.926339 0
M  V30 13355 C 1276.04 -1.65528 -0.137703 0
M  V30 13356 O 1277.22 -1.908 0.00381804 0
M  V30 13357 C 1274.36 -3.41913 0.467894 0
M  V30 13358 C 1273.48 -4.01343 1.59837 0
M  V30 13359 C 1272.61 -5.1986 1.09175 0
M  V30 13360 C 1271.65 -5.71339 2.19632 0
M  V30 13361 N 1270.79 -6.81133 1.703 0
M  V30 13362 H 1275.63 -2.33393 1.85288 0
M  V30 13363 H 1273.17 -1.14473 0.923811 0
M  V30 13364 H 1275.12 -4.16796 0.183513 0
M  V30 13365 H 1273.75 -3.20034 -0.421656 0
M  V30 13366 H 1272.81 -3.23702 1.99803 0
M  V30 13367 H 1274.12 -4.35568 2.43068 0
M  V30 13368 H 1273.27 -6.0189 0.762427 0
M  V30 13369 H 1272.01 -4.87161 0.22914 0
M  V30 13370 H 1271.02 -4.87923 2.53399 0
M  V30 13371 H 1272.24 -6.06078 3.06344 0
M  V30 13372 H 1270.19 -6.50293 0.863415 0
M  V30 13373 H 1270.1 -7.1447 2.47122 0
M  V30 13374 H 1271.37 -7.66766 1.40321 0
M  V30 13375 N 1275.6 -0.99472 -1.22242 0
M  V30 13376 C 1276.51 -0.555502 -2.27928 0
M  V30 13377 C 1277.53 0.396584 -1.6942 0
M  V30 13378 O 1278.7 0.262965 -1.99676 0
M  V30 13379 C 1275.77 0.121121 -3.46488 0
M  V30 13380 C 1274.83 -0.874155 -4.20306 0
M  V30 13381 C 1274.06 -0.229726 -5.33205 0
M  V30 13382 O 1274.28 0.975935 -5.61989 0
M  V30 13383 O 1273.22 -0.935501 -5.94586 0
M  V30 13384 H 1277.04 -1.4348 -2.6767 0
M  V30 13385 H 1274.63 -0.763061 -1.28444 0
M  V30 13386 H 1276.51 0.500043 -4.18423 0
M  V30 13387 H 1275.19 0.974959 -3.08668 0
M  V30 13388 H 1274.09 -1.30404 -3.50636 0
M  V30 13389 H 1275.43 -1.69725 -4.62011 0
M  V30 13390 N 1277.08 1.37613 -0.768148 0
M  V30 13391 C 1278.49 1.53202 -0.44737 0
M  V30 13392 C 1278.69 1.72736 1.03752 0
M  V30 13393 O 1277.75 1.74667 1.8234 0
M  V30 13394 C 1279.06 2.7306 -1.25931 0
M  V30 13395 C 1280.61 2.8692 -1.25084 0
M  V30 13396 C 1281.09 4.09757 -2.04605 0
M  V30 13397 N 1282.58 4.16862 -2.0194 0
M  V30 13398 C 1283.31 5.10936 -2.60254 0
M  V30 13399 N 1282.81 6.1059 -3.27341 0
M  V30 13400 N 1284.6 5.03393 -2.50104 0
M  V30 13401 H 1276.75 1.23184 -1.7303 0
M  V30 13402 H 1279.02 0.599541 -0.73434 0
M  V30 13403 H 1278.72 2.65078 -2.31141 0
M  V30 13404 H 1278.6 3.66646 -0.886036 0
M  V30 13405 H 1280.98 2.94375 -0.206736 0
M  V30 13406 H 1281.06 1.94303 -1.66373 0
M  V30 13407 H 1280.71 4.03063 -3.09035 0
M  V30 13408 H 1280.64 5.01481 -1.60701 0
M  V30 13409 H 1283.13 3.455 -1.53096 0
M  V30 13410 H 1283.44 6.78893 -3.6922 0
M  V30 13411 H 1281.79 6.10879 -3.31439 0
M  V30 13412 H 1284.98 4.24483 -1.9731 0
M  V30 13413 H 1285.15 5.76524 -2.95844 0
M  V30 13414 N 1278.56 0.518393 1.4883 0
M  V30 13415 C 1279.78 -0.0183131 2.07392 0
M  V30 13416 C 1280.21 -1.28468 1.37396 0
M  V30 13417 O 1279.56 -1.75975 0.436177 0
M  V30 13418 C 1279.61 -0.237211 3.59819 0
M  V30 13419 O 1278.72 -1.30835 3.91096 0
M  V30 13420 H 1278.06 0.0339621 0.663131 0
M  V30 13421 H 1280.59 0.722993 1.914 0
M  V30 13422 H 1280.6 -0.463424 4.0536 0
M  V30 13423 H 1279.27 0.687925 4.10171 0
M  V30 13424 H 1277.85 -1.06571 3.57347 0
M  V30 13425 N 1280.03 -1.55556 0.252993 0
M  V30 13426 C 1281.31 -1.91022 -0.420696 0
M  V30 13427 C 1281.69 -1.17452 -1.75409 0
M  V30 13428 O 1281.04 -0.294 -2.26601 0
M  V30 13429 C 1281.25 -3.441 -0.582787 0
M  V30 13430 C 1282.6 -4.15468 -0.875873 0
M  V30 13431 O 1283.62 -3.49872 -0.668425 0
M  V30 13432 O 1282.48 -5.31508 -1.27128 0
M  V30 13433 H 1279.57 -0.7953 -0.226776 0
M  V30 13434 H 1282.12 -1.67072 0.297511 0
M  V30 13435 H 1280.89 -3.89673 0.356474 0
M  V30 13436 H 1280.52 -3.73933 -1.3513 0
M  V30 13437 N 1281.51 0.0200419 -1.57587 0
M  V30 13438 C 1282.93 0.375834 -1.55112 0
M  V30 13439 C 1283.13 1.76047 -0.980297 0
M  V30 13440 O 1282.18 2.45138 -0.605297 0
M  V30 13441 C 1283.5 0.269418 -2.99491 0
M  V30 13442 C 1285.05 0.345838 -3.11084 0
M  V30 13443 C 1285.52 0.268771 -4.57211 0
M  V30 13444 N 1287.01 0.32729 -4.62042 0
M  V30 13445 C 1287.75 0.290688 -5.72663 0
M  V30 13446 N 1287.24 0.205851 -6.92494 0
M  V30 13447 N 1289.04 0.341082 -5.61064 0
M  V30 13448 H 1281.19 -0.885979 -1.93039 0
M  V30 13449 H 1283.45 -0.337753 -0.885792 0
M  V30 13450 H 1283.16 -0.682452 -3.45015 0
M  V30 13451 H 1283.03 1.0595 -3.62014 0
M  V30 13452 H 1285.42 1.28814 -2.65501 0
M  V30 13453 H 1285.5 -0.47376 -2.51375 0
M  V30 13454 H 1285.14 -0.669906 -5.03463 0
M  V30 13455 H 1285.07 1.10659 -5.14842 0
M  V30 13456 H 1287.56 0.395004 -3.7583 0
M  V30 13457 H 1287.88 0.18327 -7.72583 0
M  V30 13458 H 1286.22 0.171768 -6.94788 0
M  V30 13459 H 1289.41 0.405415 -4.66341 0
M  V30 13460 H 1289.58 0.309091 -6.47262 0
M  V30 13461 N 1282.99 1.54862 0.292472 0
M  V30 13462 C 1284.4 1.65459 0.864891 0
M  V30 13463 C 1284.75 0.568808 1.87774 0
M  V30 13464 O 1283.88 -0.293107 2.14406 0
M  V30 13465 C 1284.47 2.99939 1.5755 0
M  V30 13466 C 1283.03 3.12628 2.09621 0
M  V30 13467 C 1282.18 2.61179 0.931713 0
M  V30 13468 H 1285.13 1.58549 0.0692679 0
M  V30 13469 H 1285.15 2.91839 2.44152 0
M  V30 13470 H 1284.66 3.78943 0.838088 0
M  V30 13471 H 1282.76 2.3836 2.86383 0
M  V30 13472 H 1282.88 4.18911 2.32488 0
M  V30 13473 H 1281.24 2.17846 1.31967 0
M  V30 13474 H 1282.02 3.42669 0.208121 0
M  V30 13475 N 1284.47 -0.556076 1.47464 0
M  V30 13476 C 1285.42 -1.66304 1.60036 0
M  V30 13477 C 1286.39 -1.60074 0.443348 0
M  V30 13478 O 1287.57 -1.7889 0.663545 0
M  V30 13479 C 1284.71 -3.04624 1.62167 0
M  V30 13480 C 1283.82 -3.21283 2.88793 0
M  V30 13481 C 1282.96 -4.50008 2.82252 0
M  V30 13482 C 1282 -4.60103 4.03698 0
M  V30 13483 N 1281.13 -5.80184 3.95387 0
M  V30 13484 H 1285.97 -1.54897 2.5458 0
M  V30 13485 H 1283.51 -0.754533 1.26274 0
M  V30 13486 H 1285.47 -3.84721 1.61386 0
M  V30 13487 H 1284.1 -3.14865 0.711348 0
M  V30 13488 H 1283.15 -2.34611 2.99436 0
M  V30 13489 H 1284.46 -3.24607 3.78724 0
M  V30 13490 H 1283.62 -5.38366 2.79726 0
M  V30 13491 H 1282.36 -4.49165 1.90005 0
M  V30 13492 H 1281.36 -3.70157 4.06527 0
M  V30 13493 H 1282.59 -4.62704 4.97073 0
M  V30 13494 H 1280.53 -5.80288 3.05944 0
M  V30 13495 H 1280.45 -5.8489 4.78998 0
M  V30 13496 H 1281.72 -6.709 3.96879 0
M  V30 13497 N 1285.95 -1.35615 -0.802897 0
M  V30 13498 C 1287.19 -1.29094 -1.56016 0
M  V30 13499 C 1287.52 0.133617 -1.9404 0
M  V30 13500 O 1286.78 1.09975 -1.61876 0
M  V30 13501 C 1287.08 -2.14653 -2.8576 0
M  V30 13502 C 1286.74 -3.63395 -2.66936 0
M  V30 13503 C 1285.4 -4.03937 -2.61511 0
M  V30 13504 C 1287.76 -4.57758 -2.49212 0
M  V30 13505 C 1285.08 -5.37006 -2.36309 0
M  V30 13506 C 1287.44 -5.91029 -2.25539 0
M  V30 13507 C 1286.1 -6.30712 -2.18538 0
M  V30 13508 H 1285.37 -0.472387 -0.570904 0
M  V30 13509 H 1288.02 -1.67545 -0.92741 0
M  V30 13510 H 1286.32 -1.69095 -3.53432 0
M  V30 13511 H 1288.02 -2.06941 -3.43477 0
M  V30 13512 H 1284.61 -3.31224 -2.72009 0
M  V30 13513 H 1288.79 -4.27318 -2.52414 0
M  V30 13514 H 1284.05 -5.66748 -2.29361 0
M  V30 13515 H 1288.22 -6.63724 -2.10816 0
M  V30 13516 H 1285.85 -7.33753 -1.98772 0
M  V30 13517 N 1287.43 1.02549 -1.19673 0
M  V30 13518 C 1288.67 1.75656 -0.999463 0
M  V30 13519 C 1288.99 1.89238 0.470517 0
M  V30 13520 O 1288.26 1.42843 1.34062 0
M  V30 13521 H 1286.84 0.650732 -0.366821 0
M  V30 13522 H 1289.51 1.23684 -1.50627 0
M  V30 13523 H 1288.6 2.76353 -1.45035 0
M  V30 13524 N 1288.9 1.00119 1.21713 0
M  V30 13525 C 1289.84 0.516633 2.23301 0
M  V30 13526 C 1290.85 -0.392732 1.57992 0
M  V30 13527 O 1292.04 -0.19354 1.77448 0
M  V30 13528 C 1289.14 -0.269612 3.37826 0
M  V30 13529 C 1288.31 0.637898 4.32723 0
M  V30 13530 C 1287.37 -0.0980745 5.26109 0
M  V30 13531 O 1286.4 0.519302 5.66826 0
M  V30 13532 N 1287.6 -1.37783 5.63911 0
M  V30 13533 H 1290.36 1.39022 2.65505 0
M  V30 13534 H 1287.92 0.87688 1.36097 0
M  V30 13535 H 1289.92 -0.770826 3.97291 0
M  V30 13536 H 1288.49 -1.04436 2.94638 0
M  V30 13537 H 1287.71 1.31966 3.71455 0
M  V30 13538 H 1288.99 1.25564 4.93063 0
M  V30 13539 H 1288.39 -1.90061 5.32817 0
M  V30 13540 H 1286.95 -1.82407 6.25756 0
M  V30 13541 N 1290.38 -1.37203 0.775435 0
M  V30 13542 C 1291.63 -1.98846 0.338093 0
M  V30 13543 C 1291.94 -1.6225 -1.09244 0
M  V30 13544 O 1293.15 -2.17024 -1.63135 0
M  V30 13545 C 1291.61 -3.55618 0.553541 0
M  V30 13546 C 1291.21 -4.01149 1.99457 0
M  V30 13547 C 1292.96 -4.24118 0.180006 0
M  V30 13548 C 1290.86 -5.50644 2.15742 0
M  V30 13549 H 1289.79 -0.743955 0.122669 0
M  V30 13550 H 1292.45 -1.56685 0.955087 0
M  V30 13551 H 1290.83 -3.95777 -0.132964 0
M  V30 13552 H 1292 -3.72226 2.71633 0
M  V30 13553 H 1290.32 -3.45443 2.32504 0
M  V30 13554 H 1292.91 -5.33966 0.280145 0
M  V30 13555 H 1293.26 -4.07104 -0.870192 0
M  V30 13556 H 1293.79 -3.89274 0.819201 0
M  V30 13557 H 1290.53 -5.7259 3.19094 0
M  V30 13558 H 1290.05 -5.8124 1.48054 0
M  V30 13559 H 1291.73 -6.16668 1.95781 0
M  V30 13560 N 1291.86 -0.526279 -1.48553 0
M  V30 13561 C 1293.11 0.00918008 -2.02798 0
M  V30 13562 C 1293.44 1.34284 -1.4029 0
M  V30 13563 O 1292.71 1.86639 -0.547355 0
M  V30 13564 C 1293 0.135102 -3.59846 0
M  V30 13565 C 1292.85 -1.22347 -4.32841 0
M  V30 13566 C 1294.17 0.863673 -4.31542 0
M  V30 13567 H 1291.29 0.00186216 -0.736998 0
M  V30 13568 H 1293.93 -0.682591 -1.77315 0
M  V30 13569 H 1292.08 0.724279 -3.81689 0
M  V30 13570 H 1293.75 -1.85347 -4.22427 0
M  V30 13571 H 1291.99 -1.80631 -3.94405 0
M  V30 13572 H 1292.67 -1.08839 -5.41164 0
M  V30 13573 H 1295.14 0.363734 -4.14507 0
M  V30 13574 H 1294.02 0.92067 -5.41124 0
M  V30 13575 H 1294.28 1.91313 -3.98562 0
M  V30 13576 N 1293.34 1.5542 -0.261239 0
M  V30 13577 C 1294.29 2.23382 0.648324 0
M  V30 13578 C 1295.28 1.22615 1.16884 0
M  V30 13579 O 1296.49 1.40587 1.12407 0
M  V30 13580 H 1292.86 0.716733 0.227592 0
M  V30 13581 H 1294.83 2.98354 0.0521289 0
M  V30 13582 C 1293.58 2.9579 1.82766 0
M  V30 13583 H 1292.9 3.73109 1.4363 0
M  V30 13584 H 1294.34 3.46686 2.441 0
M  V30 13585 C 1292.8 2.00472 2.70763 0
M  V30 13586 O 1293.33 1.54698 3.70717 0
M  V30 13587 N 1291.54 1.67267 2.37635 0
M  V30 13588 H 1291.09 2.04685 1.56402 0
M  V30 13589 H 1291.04 1.03759 2.96785 0
M  V30 13590 N 1294.82 -0.0116844 1.57596 0
M  V30 13591 C 1295.75 -1.04043 2.03102 0
M  V30 13592 C 1296.73 -1.34164 0.918622 0
M  V30 13593 O 1297.91 -1.46527 1.18584 0
M  V30 13594 C 1295.04 -2.37094 2.41876 0
M  V30 13595 C 1294.08 -2.22713 3.63732 0
M  V30 13596 S 1294.92 -1.56416 5.12147 0
M  V30 13597 C 1296.07 -2.90921 5.5418 0
M  V30 13598 H 1296.31 -0.652899 2.90042 0
M  V30 13599 H 1293.84 -0.222201 1.52793 0
M  V30 13600 H 1295.8 -3.13602 2.64885 0
M  V30 13601 H 1294.46 -2.7299 1.55356 0
M  V30 13602 H 1293.65 -3.20976 3.88575 0
M  V30 13603 H 1293.25 -1.54349 3.40665 0
M  V30 13604 H 1295.54 -3.87237 5.55926 0
M  V30 13605 H 1296.49 -2.70792 6.54276 0
M  V30 13606 H 1296.9 -2.94293 4.81717 0
M  V30 13607 N 1296.29 -1.55015 -0.284256 0
M  V30 13608 C 1297.22 -1.90128 -1.3555 0
M  V30 13609 C 1298.2 -0.761914 -1.52082 0
M  V30 13610 O 1299.39 -1.01909 -1.65312 0
M  V30 13611 C 1296.52 -2.16332 -2.71695 0
M  V30 13612 C 1295.47 -3.32166 -2.69907 0
M  V30 13613 C 1294.8 -3.43824 -4.09498 0
M  V30 13614 C 1296.1 -4.6885 -2.30168 0
M  V30 13615 H 1297.79 -2.79852 -1.06411 0
M  V30 13616 H 1295.34 -1.34649 -0.510451 0
M  V30 13617 H 1297.29 -2.39482 -3.46737 0
M  V30 13618 H 1296.02 -1.23395 -3.02392 0
M  V30 13619 H 1294.68 -3.08965 -1.97322 0
M  V30 13620 H 1294.32 -2.48375 -4.374 0
M  V30 13621 H 1294.02 -4.21698 -4.092 0
M  V30 13622 H 1295.55 -3.69254 -4.86296 0
M  V30 13623 H 1296.96 -4.91619 -2.9493 0
M  V30 13624 H 1295.36 -5.49558 -2.41052 0
M  V30 13625 H 1296.43 -4.68433 -1.25294 0
M  V30 13626 N 1297.77 0.548248 -1.47757 0
M  V30 13627 C 1299.05 1.3092 -1.45325 0
M  V30 13628 C 1299.43 2.1053 -0.155008 0
M  V30 13629 O 1298.78 2.11558 0.863455 0
M  V30 13630 C 1298.99 2.20614 -2.70426 0
M  V30 13631 C 1300.33 2.81345 -3.18009 0
M  V30 13632 O 1301.36 2.30911 -2.71216 0
M  V30 13633 O 1300.22 3.73036 -3.99383 0
M  V30 13634 H 1297.31 0.58996 -0.579548 0
M  V30 13635 H 1299.86 0.56641 -1.59968 0
M  V30 13636 H 1298.63 1.61449 -3.56441 0
M  V30 13637 H 1298.25 3.02173 -2.58413 0
M  V30 13638 N 1299.25 1.36039 0.795694 0
M  V30 13639 C 1300.2 1.29853 1.90806 0
M  V30 13640 C 1301.17 0.168387 1.65244 0
M  V30 13641 O 1302.35 0.353879 1.8749 0
M  V30 13642 C 1299.49 1.08737 3.27521 0
M  V30 13643 C 1298.6 2.30771 3.65197 0
M  V30 13644 C 1297.74 2.02718 4.90998 0
M  V30 13645 C 1296.78 3.20746 5.21333 0
M  V30 13646 N 1295.92 2.92399 6.38316 0
M  V30 13647 H 1300.76 2.2497 1.95429 0
M  V30 13648 H 1298.29 1.11819 0.955771 0
M  V30 13649 H 1300.25 0.945236 4.06351 0
M  V30 13650 H 1298.88 0.172781 3.22337 0
M  V30 13651 H 1297.93 2.5581 2.81541 0
M  V30 13652 H 1299.24 3.18869 3.83568 0
M  V30 13653 H 1298.4 1.85398 5.77679 0
M  V30 13654 H 1297.14 1.11921 4.74684 0
M  V30 13655 H 1296.14 3.38632 4.33138 0
M  V30 13656 H 1297.37 4.1236 5.3957 0
M  V30 13657 H 1295.31 2.04207 6.23406 0
M  V30 13658 H 1295.23 3.74034 6.56989 0
M  V30 13659 H 1296.5 2.78643 7.27996 0
M  V30 13660 N 1300.73 -1.01913 1.20215 0
M  V30 13661 C 1301.66 -2.12282 0.97256 0
M  V30 13662 C 1302.64 -1.6982 -0.0975709 0
M  V30 13663 O 1303.82 -1.94109 0.0594307 0
M  V30 13664 C 1300.95 -3.43369 0.521085 0
M  V30 13665 C 1299.91 -3.99559 1.53417 0
M  V30 13666 C 1299.23 -5.26383 0.93942 0
M  V30 13667 C 1300.53 -4.33241 2.91718 0
M  V30 13668 H 1302.23 -2.31746 1.89563 0
M  V30 13669 H 1299.77 -1.1137 0.912841 0
M  V30 13670 H 1301.73 -4.19963 0.347713 0
M  V30 13671 H 1300.45 -3.23655 -0.437605 0
M  V30 13672 H 1299.11 -3.25069 1.69486 0
M  V30 13673 H 1298.76 -5.02993 -0.0271236 0
M  V30 13674 H 1298.46 -5.64942 1.616 0
M  V30 13675 H 1299.98 -6.05635 0.777059 0
M  V30 13676 H 1301.4 -5.00734 2.79175 0
M  V30 13677 H 1299.79 -4.82907 3.56259 0
M  V30 13678 H 1300.86 -3.42118 3.43633 0
M  V30 13679 N 1302.21 -1.00763 -1.2118 0
M  V30 13680 C 1303.46 -0.687197 -1.89633 0
M  V30 13681 C 1303.77 0.78566 -1.79128 0
M  V30 13682 O 1304.97 1.21828 -2.42632 0
M  V30 13683 C 1303.43 -1.1787 -3.40051 0
M  V30 13684 C 1303.04 -2.67782 -3.59161 0
M  V30 13685 C 1304.78 -0.933277 -4.14114 0
M  V30 13686 C 1302.69 -3.10459 -5.03358 0
M  V30 13687 H 1301.62 -0.253342 -0.710165 0
M  V30 13688 H 1304.27 -1.21914 -1.37147 0
M  V30 13689 H 1302.65 -0.574791 -3.91806 0
M  V30 13690 H 1303.83 -3.33645 -3.17833 0
M  V30 13691 H 1302.14 -2.90368 -2.98455 0
M  V30 13692 H 1304.74 -1.22766 -5.20416 0
M  V30 13693 H 1305.08 0.130431 -4.16096 0
M  V30 13694 H 1305.61 -1.50011 -3.68431 0
M  V30 13695 H 1302.35 -4.16068 -5.06525 0
M  V30 13696 H 1301.87 -2.4931 -5.45531 0
M  V30 13697 H 1303.55 -3.02589 -5.71882 0
M  V30 13698 N 1303.68 1.3679 -0.7827 0
M  V30 13699 C 1305.1 1.52719 -0.463594 0
M  V30 13700 C 1305.3 1.73827 1.01914 0
M  V30 13701 O 1304.36 1.76591 1.80477 0
M  V30 13702 C 1305.67 2.71709 -1.2882 0
M  V30 13703 C 1307.22 2.85577 -1.2812 0
M  V30 13704 C 1307.69 4.07564 -2.0894 0
M  V30 13705 N 1309.18 4.14697 -2.0635 0
M  V30 13706 C 1309.92 5.08147 -2.65659 0
M  V30 13707 N 1309.41 6.07083 -3.33799 0
M  V30 13708 N 1311.21 5.00712 -2.55429 0
M  V30 13709 H 1303.36 1.21342 -1.74327 0
M  V30 13710 H 1305.62 0.591719 -0.740657 0
M  V30 13711 H 1305.33 2.62612 -2.3394 0
M  V30 13712 H 1305.2 3.65686 -0.924873 0
M  V30 13713 H 1307.59 2.94139 -0.237947 0
M  V30 13714 H 1307.67 1.92528 -1.68424 0
M  V30 13715 H 1307.31 3.99763 -3.13293 0
M  V30 13716 H 1307.24 4.99748 -1.66011 0
M  V30 13717 H 1309.73 3.43856 -1.56752 0
M  V30 13718 H 1310.05 6.74939 -3.764 0
M  V30 13719 H 1308.39 6.07329 -3.379 0
M  V30 13720 H 1311.58 4.22367 -2.01802 0
M  V30 13721 H 1311.76 5.73354 -3.01943 0
M  V30 13722 N 1305.16 0.53415 1.48272 0
M  V30 13723 C 1306.11 -0.239672 2.31362 0
M  V30 13724 C 1307.1 -0.931501 1.4149 0
M  V30 13725 O 1308.31 -0.855411 1.58375 0
M  V30 13726 H 1304.69 -0.09616 0.745827 0
M  V30 13727 H 1306.66 0.480638 2.94504 0
M  V30 13728 C 1305.41 -1.27102 3.23636 0
M  V30 13729 H 1304.73 -0.748082 3.92739 0
M  V30 13730 H 1306.17 -1.78379 3.84652 0
M  V30 13731 C 1304.63 -2.30683 2.45534 0
M  V30 13732 O 1305.16 -3.37197 2.18314 0
M  V30 13733 N 1303.36 -2.04006 2.06954 0
M  V30 13734 H 1302.91 -1.17403 2.29291 0
M  V30 13735 H 1302.87 -2.73531 1.5501 0
M  V30 13736 N 1306.64 -1.55279 0.269478 0
M  V30 13737 C 1308.05 -1.85286 -0.229372 0
M  V30 13738 C 1308.4 -1.19148 -1.55879 0
M  V30 13739 O 1307.53 -0.4778 -2.11059 0
M  V30 13740 C 1308.12 -3.3615 -0.42296 0
M  V30 13741 C 1306.68 -3.66301 -0.866047 0
M  V30 13742 C 1305.83 -2.77265 0.0439028 0
M  V30 13743 H 1308.78 -1.509 0.491427 0
M  V30 13744 H 1308.8 -3.5895 -1.26234 0
M  V30 13745 H 1308.31 -3.84258 0.544768 0
M  V30 13746 H 1306.41 -3.23688 -1.84545 0
M  V30 13747 H 1306.53 -4.73851 -0.707274 0
M  V30 13748 H 1304.89 -2.50299 -0.471433 0
M  V30 13749 H 1305.67 -3.28186 1.00741 0
M  V30 13750 N 1308.12 0.00332656 -1.576 0
M  V30 13751 C 1309.07 1.01406 -2.09331 0
M  V30 13752 C 1310.06 1.35806 -1.01258 0
M  V30 13753 O 1311.27 1.34409 -1.19726 0
M  V30 13754 H 1307.64 0.344661 -0.668366 0
M  V30 13755 H 1309.61 0.552154 -2.93247 0
M  V30 13756 C 1308.36 2.29819 -2.60918 0
M  V30 13757 H 1307.68 2.04216 -3.43709 0
M  V30 13758 H 1309.12 2.98826 -3.00797 0
M  V30 13759 C 1307.58 3.0057 -1.52182 0
M  V30 13760 O 1308.11 3.91423 -0.902817 0
M  V30 13761 N 1306.32 2.62338 -1.25009 0
M  V30 13762 H 1305.87 1.88538 -1.75531 0
M  V30 13763 H 1305.82 3.0999 -0.524736 0
M  V30 13764 N 1309.6 1.55164 0.276031 0
M  V30 13765 C 1310.82 1.7998 1.03063 0
M  V30 13766 C 1311.25 0.569769 1.79263 0
M  V30 13767 O 1310.6 -0.48054 1.74816 0
M  V30 13768 C 1310.65 3.02209 1.96728 0
M  V30 13769 O 1309.76 2.77083 3.05449 0
M  V30 13770 H 1309.1 0.594963 0.294814 0
M  V30 13771 H 1311.63 2.02301 0.305861 0
M  V30 13772 H 1311.64 3.3086 2.38738 0
M  V30 13773 H 1310.31 3.91386 1.40677 0
M  V30 13774 H 1308.89 2.5952 2.67776 0
M  V30 13775 N 1311.07 -0.540404 1.48045 0
M  V30 13776 C 1312 -1.65538 1.6468 0
M  V30 13777 C 1312.99 -1.62713 0.495847 0
M  V30 13778 O 1314.17 -1.80072 0.727172 0
M  V30 13779 C 1311.3 -3.0415 1.67661 0
M  V30 13780 C 1310.25 -3.2183 2.82152 0
M  V30 13781 C 1309.58 -4.61397 2.70216 0
M  V30 13782 C 1310.88 -3.05596 4.23567 0
M  V30 13783 H 1312.57 -1.51873 2.58021 0
M  V30 13784 H 1310.12 -0.729208 1.24171 0
M  V30 13785 H 1312.07 -3.82013 1.77887 0
M  V30 13786 H 1310.8 -3.18814 0.708907 0
M  V30 13787 H 1309.46 -2.4638 2.71463 0
M  V30 13788 H 1309.1 -4.72883 1.71437 0
M  V30 13789 H 1308.8 -4.74174 3.47035 0
M  V30 13790 H 1310.33 -5.41374 2.82395 0
M  V30 13791 H 1311.74 -3.73261 4.35143 0
M  V30 13792 H 1310.14 -3.29871 5.01303 0
M  V30 13793 H 1311.21 -2.0214 4.40758 0
M  V30 13794 N 1312.55 -1.36459 -0.788468 0
M  V30 13795 C 1313.5 -1.30863 -1.90115 0
M  V30 13796 C 1314.47 -0.177148 -1.65153 0
M  V30 13797 O 1315.65 -0.363817 -1.87299 0
M  V30 13798 C 1312.79 -1.10473 -3.2694 0
M  V30 13799 C 1311.91 -2.32704 -3.63968 0
M  V30 13800 C 1311.04 -2.05319 -4.89916 0
M  V30 13801 C 1310.08 -3.23506 -5.19625 0
M  V30 13802 N 1309.22 -2.9578 -6.36756 0
M  V30 13803 H 1314.06 -2.26003 -1.94233 0
M  V30 13804 H 1311.6 -1.12324 -0.949827 0
M  V30 13805 H 1313.55 -0.966773 -4.05844 0
M  V30 13806 H 1312.18 -0.189873 -3.22241 0
M  V30 13807 H 1311.24 -2.573 -2.8018 0
M  V30 13808 H 1312.55 -3.20899 -3.81871 0
M  V30 13809 H 1311.7 -1.88459 -5.76687 0
M  V30 13810 H 1310.44 -1.14437 -4.74084 0
M  V30 13811 H 1309.45 -3.40924 -4.31336 0
M  V30 13812 H 1310.67 -4.15216 -5.37376 0
M  V30 13813 H 1308.62 -2.0751 -6.22315 0
M  V30 13814 H 1308.53 -3.77513 -6.54996 0
M  V30 13815 H 1309.8 -2.825 -7.26508 0
M  V30 13816 N 1314.03 1.01274 -1.20754 0
M  V30 13817 C 1315.45 1.27256 -0.963221 0
M  V30 13818 C 1315.65 1.98349 0.354972 0
M  V30 13819 O 1314.7 2.28116 1.08255 0
M  V30 13820 C 1316.02 2.1038 -2.14851 0
M  V30 13821 C 1317.56 2.23633 -2.18991 0
M  V30 13822 C 1318.04 3.10136 -3.37016 0
M  V30 13823 N 1319.53 3.17724 -3.37054 0
M  V30 13824 C 1320.26 3.84891 -4.25025 0
M  V30 13825 N 1319.76 4.54152 -5.23181 0
M  V30 13826 N 1321.55 3.81454 -4.12855 0
M  V30 13827 H 1313.7 0.535534 -2.05538 0
M  V30 13828 H 1315.97 0.299006 -0.899611 0
M  V30 13829 H 1315.67 1.65484 -3.10335 0
M  V30 13830 H 1315.55 3.11122 -2.13267 0
M  V30 13831 H 1317.93 2.67753 -1.24067 0
M  V30 13832 H 1318.02 1.22387 -2.24622 0
M  V30 13833 H 1317.66 2.66721 -4.32229 0
M  V30 13834 H 1317.59 4.11478 -3.28623 0
M  V30 13835 H 1320.08 2.68412 -2.66014 0
M  V30 13836 H 1320.39 5.03084 -5.86623 0
M  V30 13837 H 1318.74 4.52964 -5.27113 0
M  V30 13838 H 1321.93 3.26494 -3.35439 0
M  V30 13839 H 1322.1 4.33523 -4.81624 0
M  V30 13840 N 1315.51 1.01404 1.20644 0
M  V30 13841 C 1316.74 0.72104 1.93929 0
M  V30 13842 C 1317.15 -0.717853 1.7462 0
M  V30 13843 O 1316.51 -1.48664 1.05855 0
M  V30 13844 C 1316.56 1.04399 3.46097 0
M  V30 13845 O 1316.28 2.42637 3.64773 0
M  V30 13846 C 1317.78 0.771678 4.36532 0
M  V30 13847 H 1315 0.264983 0.616462 0
M  V30 13848 H 1317.55 1.35453 1.53208 0
M  V30 13849 H 1315.7 0.455946 3.84708 0
M  V30 13850 H 1316.12 2.54201 4.58783 0
M  V30 13851 H 1317.59 1.04774 5.41965 0
M  V30 13852 H 1318.07 -0.294188 4.38214 0
M  V30 13853 H 1318.67 1.34176 4.0358 0
M  V30 13854 N 1316.99 -1.36373 0.789944 0
M  V30 13855 C 1318.24 -1.98834 0.361866 0
M  V30 13856 C 1318.56 -1.63006 -1.07024 0
M  V30 13857 O 1317.83 -0.904312 -1.73779 0
M  V30 13858 H 1316.41 -0.735457 0.130812 0
M  V30 13859 H 1319.07 -1.66561 1.0121 0
M  V30 13860 H 1318.16 -3.08778 0.454122 0
M  V30 13861 N 1318.47 -0.542005 -1.47987 0
M  V30 13862 C 1319.69 -0.016717 -2.06893 0
M  V30 13863 C 1320.11 1.27015 -1.39687 0
M  V30 13864 O 1319.47 1.75845 -0.488326 0
M  V30 13865 C 1319.52 0.198437 -3.60955 0
M  V30 13866 O 1319.24 -1.03746 -4.25639 0
M  V30 13867 C 1320.74 0.762741 -4.36689 0
M  V30 13868 H 1317.96 -0.0389497 -0.669869 0
M  V30 13869 H 1320.5 -0.751082 -1.90208 0
M  V30 13870 H 1318.66 0.882884 -3.77205 0
M  V30 13871 H 1319.07 -0.82568 -5.1796 0
M  V30 13872 H 1320.55 0.862649 -5.45218 0
M  V30 13873 H 1321.02 1.77049 -4.01933 0
M  V30 13874 H 1321.63 0.114478 -4.25146 0
M  V30 13875 N 1319.94 1.55134 -0.277709 0
M  V30 13876 C 1320.85 2.26296 0.618658 0
M  V30 13877 C 1321.87 1.28978 1.16794 0
M  V30 13878 O 1323.05 1.61918 1.19768 0
M  V30 13879 C 1320.11 2.97214 1.78508 0
M  V30 13880 C 1319.17 4.10016 1.27221 0
M  V30 13881 C 1318.4 4.77543 2.38304 0
M  V30 13882 O 1318.63 4.44293 3.57715 0
M  V30 13883 O 1317.56 5.65437 2.06313 0
M  V30 13884 H 1321.39 3.03671 0.0421031 0
M  V30 13885 H 1318.97 1.49332 -0.0450166 0
M  V30 13886 H 1320.85 3.41773 2.46513 0
M  V30 13887 H 1319.53 2.22753 2.34867 0
M  V30 13888 H 1318.44 3.69907 0.558544 0
M  V30 13889 H 1319.77 4.86385 0.754333 0
M  V30 13890 N 1321.42 0.00503138 1.57599 0
M  V30 13891 C 1322.65 -0.693231 1.95471 0
M  V30 13892 C 1323.07 -1.66233 0.880246 0
M  V30 13893 O 1322.43 -1.80582 -0.161164 0
M  V30 13894 C 1322.48 -1.39696 3.32442 0
M  V30 13895 O 1321.58 -2.51154 3.27101 0
M  V30 13896 H 1320.92 -0.184015 0.637992 0
M  V30 13897 H 1323.45 0.0597194 2.04513 0
M  V30 13898 H 1323.46 -1.75924 3.68123 0
M  V30 13899 H 1322.14 -0.686438 4.10196 0
M  V30 13900 H 1320.71 -2.17216 3.03103 0
M  V30 13901 N 1322.9 -1.55308 -0.267798 0
M  V30 13902 C 1324.12 -1.80524 -1.02107 0
M  V30 13903 C 1324.55 -0.579268 -1.78958 0
M  V30 13904 O 1323.91 0.471262 -1.75068 0
M  V30 13905 C 1323.96 -3.03248 -1.95123 0
M  V30 13906 O 1323.06 -2.78699 -3.03975 0
M  V30 13907 H 1322.4 -0.596518 -0.291655 0
M  V30 13908 H 1324.93 -2.0246 -0.295128 0
M  V30 13909 H 1324.94 -3.32121 -2.3698 0
M  V30 13910 H 1323.62 -3.92126 -1.386 0
M  V30 13911 H 1322.19 -2.60936 -2.66396 0
M  V30 13912 N 1324.38 0.532545 -1.4833 0
M  V30 13913 C 1325.79 0.860843 -1.34394 0
M  V30 13914 C 1325.99 1.98384 -0.353013 0
M  V30 13915 O 1325.05 2.5148 0.226688 0
M  V30 13916 C 1326.36 1.23079 -2.74358 0
M  V30 13917 C 1327.91 1.34082 -2.82827 0
M  V30 13918 C 1328.39 1.74421 -4.23487 0
M  V30 13919 N 1329.88 1.81528 -4.26148 0
M  V30 13920 C 1330.61 2.1412 -5.31921 0
M  V30 13921 N 1330.11 2.45154 -6.47975 0
M  V30 13922 N 1331.9 2.15104 -5.19314 0
M  V30 13923 H 1324.05 -0.208464 -2.11375 0
M  V30 13924 H 1326.31 -0.03062 -0.947505 0
M  V30 13925 H 1326.02 0.47926 -3.48419 0
M  V30 13926 H 1325.89 2.18151 -3.07718 0
M  V30 13927 H 1328.28 2.08311 -2.09022 0
M  V30 13928 H 1328.36 0.37137 -2.5309 0
M  V30 13929 H 1328.01 1.00752 -4.97807 0
M  V30 13930 H 1327.94 2.72411 -4.50666 0
M  V30 13931 H 1330.43 1.59832 -3.42436 0
M  V30 13932 H 1330.74 2.69121 -7.24426 0
M  V30 13933 H 1329.09 2.42679 -6.51254 0
M  V30 13934 H 1332.28 1.90315 -4.27666 0
M  V30 13935 H 1332.45 2.40173 -6.01848 0
M  V30 13936 N 1325.86 1.36875 0.78122 0
M  V30 13937 C 1327.27 1.28236 1.35692 0
M  V30 13938 C 1327.62 -0.0742286 1.9606 0
M  V30 13939 O 1326.74 -0.97588 1.93146 0
M  V30 13940 C 1327.34 2.32215 2.46702 0
M  V30 13941 C 1325.9 2.2724 3.00065 0
M  V30 13942 C 1325.04 2.16553 1.73206 0
M  V30 13943 H 1327.99 1.47634 0.582217 0
M  V30 13944 H 1328.02 1.96333 3.25935 0
M  V30 13945 H 1327.53 3.30938 2.02735 0
M  V30 13946 H 1325.63 1.3201 3.48431 0
M  V30 13947 H 1325.74 3.20267 3.56323 0
M  V30 13948 H 1324.11 1.62941 1.95761 0
M  V30 13949 H 1324.89 3.17176 1.31356 0
M  V30 13950 N 1327.33 -1.00632 1.21289 0
M  V30 13951 C 1328.28 -2.11502 0.96798 0
M  V30 13952 C 1329.28 -1.6919 -0.0843024 0
M  V30 13953 O 1330.48 -1.79875 0.06697 0
M  V30 13954 H 1326.86 -0.691398 0.295759 0
M  V30 13955 H 1328.83 -2.29337 1.90911 0
M  V30 13956 C 1327.58 -3.43357 0.547818 0
M  V30 13957 H 1326.9 -3.76348 1.34915 0
M  V30 13958 H 1328.34 -4.21957 0.415759 0
M  V30 13959 C 1326.8 -3.28648 -0.741086 0
M  V30 13960 O 1327.33 -3.59267 -1.79695 0
M  V30 13961 N 1325.53 -2.81866 -0.707084 0
M  V30 13962 H 1325.08 -2.57149 0.152447 0
M  V30 13963 H 1325.04 -2.72406 -1.56979 0
M  V30 13964 N 1328.81 -1.02043 -1.20104 0
M  V30 13965 C 1330.04 -0.731315 -1.93544 0
M  V30 13966 C 1330.45 0.708582 -1.74999 0
M  V30 13967 O 1329.81 1.481 -1.06642 0
M  V30 13968 C 1329.86 -1.06233 -3.45538 0
M  V30 13969 O 1329.58 -2.44568 -3.63481 0
M  V30 13970 C 1331.08 -0.794818 -4.36116 0
M  V30 13971 H 1328.3 -0.268248 -0.615048 0
M  V30 13972 H 1330.85 -1.36264 -1.52488 0
M  V30 13973 H 1329 -0.476341 -3.8446 0
M  V30 13974 H 1329.42 -2.5663 -4.57429 0
M  V30 13975 H 1330.89 -1.07647 -5.41402 0
M  V30 13976 H 1331.37 0.270944 -4.38363 0
M  V30 13977 H 1331.97 -1.36314 -4.02863 0
M  V30 13978 N 1330.29 1.35952 -0.797165 0
M  V30 13979 C 1331.25 2.28266 -0.206748 0
M  V30 13980 C 1332.25 1.49169 0.60043 0
M  V30 13981 O 1333.44 1.69054 0.42029 0
M  V30 13982 C 1330.58 3.33363 0.712884 0
M  V30 13983 H 1331.77 2.81992 -1.02082 0
M  V30 13984 H 1329.32 1.45648 -0.567138 0
M  V30 13985 H 1330.06 2.84806 1.551 0
M  V30 13986 H 1329.84 3.91864 0.135926 0
M  V30 13987 H 1331.33 4.02284 1.1206 0
M  V30 13988 N 1331.77 0.549846 1.47697 0
M  V30 13989 C 1332.7 -0.190364 2.32723 0
M  V30 13990 C 1333.68 -0.915933 1.43334 0
M  V30 13991 O 1334.86 -0.897838 1.72199 0
M  V30 13992 C 1331.99 -1.22545 3.24961 0
M  V30 13993 C 1330.95 -0.616805 4.23532 0
M  V30 13994 C 1330.27 -1.75599 5.05044 0
M  V30 13995 C 1331.57 0.424595 5.20571 0
M  V30 13996 H 1333.27 0.519461 2.94859 0
M  V30 13997 H 1330.81 0.251259 1.41791 0
M  V30 13998 H 1332.77 -1.75139 3.83281 0
M  V30 13999 H 1331.49 -1.96512 2.60865 0
M  V30 14000 H 1330.15 -0.112224 3.66428 0
M  V30 14001 H 1329.8 -2.48453 4.37356 0
M  V30 14002 H 1329.5 -1.35456 5.71774 0
M  V30 14003 H 1331.02 -2.28533 5.6622 0
M  V30 14004 H 1332.44 -0.0150025 5.73298 0
M  V30 14005 H 1330.83 0.7445 5.95464 0
M  V30 14006 H 1331.9 1.32318 4.66497 0
M  V30 14007 N 1333.25 -1.54984 0.285932 0
M  V30 14008 C 1334.18 -2.25916 -0.590259 0
M  V30 14009 C 1335.16 -1.25319 -1.15018 0
M  V30 14010 O 1336.34 -1.54062 -1.18231 0
M  V30 14011 C 1333.47 -2.98849 -1.76936 0
M  V30 14012 C 1332.43 -4.06466 -1.3405 0
M  V30 14013 C 1331.75 -4.67032 -2.60356 0
M  V30 14014 C 1333.05 -5.20064 -0.482754 0
M  V30 14015 H 1334.75 -2.994 0.00131571 0
M  V30 14016 H 1332.29 -1.44 0.00207281 0
M  V30 14017 H 1334.25 -3.47186 -2.3883 0
M  V30 14018 H 1332.97 -2.22918 -2.38694 0
M  V30 14019 H 1331.63 -3.58957 -0.7447 0
M  V30 14020 H 1331.28 -3.87757 -3.20396 0
M  V30 14021 H 1330.98 -5.39703 -2.32368 0
M  V30 14022 H 1332.5 -5.18124 -3.23079 0
M  V30 14023 H 1333.91 -5.64387 -1.00697 0
M  V30 14024 H 1332.31 -5.99363 -0.297291 0
M  V30 14025 H 1333.38 -4.82358 0.495861 0
M  V30 14026 N 1334.72 -0.0133892 -1.57594 0
M  V30 14027 C 1336 0.706416 -1.82398 0
M  V30 14028 C 1336.38 1.91236 -0.893983 0
M  V30 14029 O 1335.73 2.28436 0.0541675 0
M  V30 14030 C 1335.94 1.09951 -3.31228 0
M  V30 14031 C 1337.29 1.49776 -3.97306 0
M  V30 14032 O 1338.31 1.19293 -3.3563 0
M  V30 14033 O 1337.17 2.06511 -5.0598 0
M  V30 14034 H 1334.26 0.345131 -0.751541 0
M  V30 14035 H 1336.81 -0.0398687 -1.69653 0
M  V30 14036 H 1335.58 0.240514 -3.9056 0
M  V30 14037 H 1335.21 1.90447 -3.49021 0
M  V30 14038 N 1336.2 1.55448 0.259558 0
M  V30 14039 C 1337.61 1.67256 0.8296 0
M  V30 14040 C 1337.96 0.60851 1.86525 0
M  V30 14041 O 1337.09 -0.247563 2.14979 0
M  V30 14042 C 1337.68 3.03213 1.51152 0
M  V30 14043 C 1336.24 3.17004 2.02943 0
M  V30 14044 C 1335.39 2.63096 0.876103 0
M  V30 14045 H 1338.34 1.5866 0.0356218 0
M  V30 14046 H 1338.36 2.96952 2.37906 0
M  V30 14047 H 1337.87 3.80635 0.75752 0
M  V30 14048 H 1335.98 2.44381 2.81263 0
M  V30 14049 H 1336.09 4.23748 2.2355 0
M  V30 14050 H 1334.45 2.20596 1.27317 0
M  V30 14051 H 1335.24 3.43033 0.13539 0
M  V30 14052 N 1337.68 -0.524672 1.4861 0
M  V30 14053 C 1338.91 -1.30958 1.60825 0
M  V30 14054 C 1339.33 -1.86142 0.270682 0
M  V30 14055 O 1338.69 -1.64675 -0.758415 0
M  V30 14056 C 1338.74 -2.43252 2.66197 0
M  V30 14057 O 1337.84 -3.4644 2.23725 0
M  V30 14058 H 1337.18 -0.387638 0.539104 0
M  V30 14059 H 1339.71 -0.630755 1.94635 0
M  V30 14060 H 1339.72 -2.89362 2.87635 0
M  V30 14061 H 1338.4 -2.02449 3.63301 0
M  V30 14062 H 1336.97 -3.06413 2.12522 0
M  V30 14063 N 1339.16 -1.37287 -0.77395 0
M  V30 14064 C 1340.38 -1.35734 -1.56815 0
M  V30 14065 C 1340.81 0.0555546 -1.88018 0
M  V30 14066 O 1340.17 1.03197 -1.49064 0
M  V30 14067 C 1340.21 -2.2008 -2.85652 0
M  V30 14068 O 1339.32 -1.60391 -3.79932 0
M  V30 14069 H 1338.66 -0.463881 -0.47509 0
M  V30 14070 H 1341.19 -1.80781 -0.958087 0
M  V30 14071 H 1341.2 -2.33215 -3.34776 0
M  V30 14072 H 1339.87 -3.22781 -2.6227 0
M  V30 14073 H 1338.45 -1.56285 -3.3857 0
M  V30 14074 N 1340.64 0.999871 -1.21821 0
M  V30 14075 C 1342.05 1.5529 -1.03642 0
M  V30 14076 C 1342.4 1.92032 0.402246 0
M  V30 14077 O 1341.52 1.74027 1.28622 0
M  V30 14078 C 1342.12 2.82177 -1.87514 0
M  V30 14079 C 1340.68 3.33949 -1.73653 0
M  V30 14080 C 1339.82 2.07095 -1.84409 0
M  V30 14081 H 1342.78 0.821751 -1.35768 0
M  V30 14082 H 1342.8 3.54264 -1.38842 0
M  V30 14083 H 1342.31 2.55405 -2.92216 0
M  V30 14084 H 1340.41 3.65645 -0.716554 0
M  V30 14085 H 1340.52 4.05022 -2.55918 0
M  V30 14086 H 1338.89 2.20332 -1.27773 0
M  V30 14087 H 1339.67 1.82728 -2.90629 0
M  V30 14088 N 1342.11 1.02678 1.19562 0
M  V30 14089 C 1343.02 0.615738 2.26375 0
M  V30 14090 C 1344.04 -0.351525 1.70412 0
M  V30 14091 O 1345.22 -0.209932 2.00303 0
M  V30 14092 C 1342.28 -0.0292135 3.46688 0
M  V30 14093 C 1341.34 0.985284 4.1784 0
M  V30 14094 C 1340.58 0.371016 5.32409 0
M  V30 14095 O 1340.8 -0.826591 5.64379 0
M  V30 14096 O 1339.73 1.09282 5.91896 0
M  V30 14097 H 1343.56 1.50526 2.63772 0
M  V30 14098 H 1341.14 0.796847 1.26375 0
M  V30 14099 H 1343.03 -0.38893 4.19601 0
M  V30 14100 H 1341.7 -0.892778 3.11145 0
M  V30 14101 H 1340.61 1.39655 3.47055 0
M  V30 14102 H 1341.94 1.81915 4.57349 0
M  V30 14103 N 1343.59 -1.35528 0.804364 0
M  V30 14104 C 1344.84 -1.98832 0.383692 0
M  V30 14105 C 1345.17 -1.63816 -1.04855 0
M  V30 14106 O 1344.42 -0.892272 -1.74175 0
M  V30 14107 C 1344.72 -3.5372 0.511571 0
M  V30 14108 C 1344.39 -4.08597 1.9068 0
M  V30 14109 C 1343.05 -4.23297 2.28852 0
M  V30 14110 C 1345.4 -4.3834 2.81971 0
M  V30 14111 C 1342.73 -4.65056 3.57687 0
M  V30 14112 C 1345.08 -4.81537 4.1025 0
M  V30 14113 C 1343.75 -4.94442 4.48423 0
M  V30 14114 H 1343.02 -0.727577 0.140403 0
M  V30 14115 H 1345.66 -1.61777 1.02472 0
M  V30 14116 H 1343.97 -3.91221 -0.212916 0
M  V30 14117 H 1345.66 -4.00653 0.166888 0
M  V30 14118 H 1342.25 -3.97606 1.60023 0
M  V30 14119 H 1346.44 -4.26538 2.5373 0
M  V30 14120 H 1341.69 -4.73236 3.87115 0
M  V30 14121 H 1345.87 -5.03512 4.81091 0
M  V30 14122 H 1343.5 -5.26558 5.48307 0
M  V30 14123 N 1345.07 -0.557671 -1.47404 0
M  V30 14124 C 1346.3 -0.0366797 -2.07368 0
M  V30 14125 C 1346.72 1.2478 -1.40754 0
M  V30 14126 O 1346.08 1.74757 -0.48268 0
M  V30 14127 C 1346.13 0.141728 -3.60321 0
M  V30 14128 O 1345.23 1.20419 -3.94427 0
M  V30 14129 H 1344.57 -0.0515319 -0.661997 0
M  V30 14130 H 1347.1 -0.773485 -1.89416 0
M  V30 14131 H 1347.11 0.355787 -4.06446 0
M  V30 14132 H 1345.79 -0.796433 -4.08203 0
M  V30 14133 H 1344.36 0.970589 -3.60047 0
M  V30 14134 N 1346.55 1.54831 -0.294147 0
M  V30 14135 C 1347.51 2.21946 0.572061 0
M  V30 14136 C 1348.51 1.20331 1.06663 0
M  V30 14137 O 1349.7 1.45112 0.963757 0
M  V30 14138 C 1346.83 2.90044 1.7913 0
M  V30 14139 H 1348.03 2.99897 -0.0142234 0
M  V30 14140 H 1345.58 1.56235 -0.0449187 0
M  V30 14141 H 1346.32 2.16154 2.4176 0
M  V30 14142 H 1346.1 3.64527 1.44439 0
M  V30 14143 H 1347.59 3.41263 2.40684 0
M  V30 14144 N 1348.03 0.0217466 1.57585 0
M  V30 14145 C 1349.27 -0.659463 1.91778 0
M  V30 14146 C 1349.61 -1.72201 0.897801 0
M  V30 14147 O 1348.88 -1.94333 -0.080509 0
M  V30 14148 C 1349.16 -1.28269 3.36481 0
M  V30 14149 C 1349.02 -0.230201 4.49211 0
M  V30 14150 C 1350.34 -2.20279 3.81005 0
M  V30 14151 H 1347.46 -0.238263 0.697424 0
M  V30 14152 H 1350.1 0.0774967 1.89842 0
M  V30 14153 H 1348.25 -1.9108 3.38262 0
M  V30 14154 H 1349.92 0.399901 4.59563 0
M  V30 14155 H 1348.16 0.445157 4.3151 0
M  V30 14156 H 1348.83 -0.705732 5.4747 0
M  V30 14157 H 1351.31 -1.67463 3.80914 0
M  V30 14158 H 1350.19 -2.60842 4.82962 0
M  V30 14159 H 1350.45 -3.09092 3.16093 0
M  V30 14160 N 1349.51 -1.55583 -0.251311 0
M  V30 14161 C 1350.75 -1.77471 -0.981418 0
M  V30 14162 C 1351.08 -0.586228 -1.85141 0
M  V30 14163 O 1350.36 0.415623 -1.90007 0
M  V30 14164 C 1350.64 -3.09204 -1.84567 0
M  V30 14165 C 1350.5 -4.38448 -1.00417 0
M  V30 14166 C 1351.81 -3.37133 -2.82895 0
M  V30 14167 H 1348.93 -0.645664 -0.355369 0
M  V30 14168 H 1351.58 -1.88318 -0.252228 0
M  V30 14169 H 1349.73 -3.00087 -2.46738 0
M  V30 14170 H 1351.4 -4.5955 -0.40149 0
M  V30 14171 H 1349.64 -4.32703 -0.308365 0
M  V30 14172 H 1350.31 -5.26995 -1.64258 0
M  V30 14173 H 1352.79 -3.46183 -2.3086 0
M  V30 14174 H 1351.66 -4.30531 -3.40491 0
M  V30 14175 H 1351.92 -2.57829 -3.59133 0
M  V30 14176 N 1350.98 0.516783 -1.48886 0
M  V30 14177 C 1352.21 1.30103 -1.61518 0
M  V30 14178 C 1352.63 1.85996 -0.28055 0
M  V30 14179 O 1351.99 1.65075 0.749671 0
M  V30 14180 C 1352.04 2.41837 -2.67483 0
M  V30 14181 O 1351.14 3.45249 -2.25559 0
M  V30 14182 H 1350.48 0.384774 -0.541152 0
M  V30 14183 H 1353.01 0.620424 -1.94966 0
M  V30 14184 H 1353.02 2.87832 -2.89165 0
M  V30 14185 H 1351.7 2.00519 -3.64369 0
M  V30 14186 H 1350.28 3.05281 -2.14144 0
M  V30 14187 N 1352.46 1.37696 0.766659 0
M  V30 14188 C 1353.71 1.33382 1.52765 0
M  V30 14189 C 1354.04 -0.0800569 1.94035 0
M  V30 14190 O 1353.32 -1.03848 1.64456 0
M  V30 14191 C 1353.6 2.2776 2.78922 0
M  V30 14192 C 1353.45 3.77949 2.43874 0
M  V30 14193 C 1354.77 2.20494 3.80881 0
M  V30 14194 H 1351.89 0.485836 0.554195 0
M  V30 14195 H 1354.53 1.68438 0.879119 0
M  V30 14196 H 1352.68 1.97994 3.34261 0
M  V30 14197 H 1354.35 4.18333 1.9441 0
M  V30 14198 H 1352.6 3.96269 1.76503 0
M  V30 14199 H 1353.27 4.39428 3.34077 0
M  V30 14200 H 1355.74 2.46742 3.35048 0
M  V30 14201 H 1354.62 2.88663 4.66867 0
M  V30 14202 H 1354.88 1.19951 4.25516 0
M  V30 14203 N 1353.94 -0.993397 1.22349 0
M  V30 14204 C 1355.19 -1.72945 1.04568 0
M  V30 14205 C 1355.51 -1.90419 -0.420178 0
M  V30 14206 O 1354.78 -1.46348 -1.30227 0
M  V30 14207 H 1353.36 -0.640777 0.383945 0
M  V30 14208 H 1356.02 -1.19647 1.53853 0
M  V30 14209 H 1355.12 -2.72411 1.52311 0
M  V30 14210 N 1355.42 -1.03311 -1.19015 0
M  V30 14211 C 1356.69 -0.646539 -1.84606 0
M  V30 14212 C 1357.07 0.87449 -1.92135 0
M  V30 14213 O 1356.42 1.77291 -1.44154 0
M  V30 14214 C 1356.63 -1.31354 -3.23338 0
M  V30 14215 C 1357.98 -1.43949 -3.99455 0
M  V30 14216 O 1359 -1.27104 -3.32751 0
M  V30 14217 O 1357.86 -1.71328 -5.1895 0
M  V30 14218 H 1354.96 -0.225267 -0.795728 0
M  V30 14219 H 1357.5 -1.13152 -1.2647 0
M  V30 14220 H 1356.28 -2.3521 -3.12717 0
M  V30 14221 H 1355.9 -0.816688 -3.89122 0
M  V30 14222 N 1356.9 1.35099 -0.81154 0
M  V30 14223 C 1358.14 1.99348 -0.403961 0
M  V30 14224 C 1358.5 1.63209 1.01885 0
M  V30 14225 O 1357.79 0.887707 1.69795 0
M  V30 14226 C 1357.98 3.53444 -0.530322 0
M  V30 14227 C 1357.81 4.04552 -1.96387 0
M  V30 14228 C 1356.58 4.33677 -2.5933 0
M  V30 14229 C 1358.78 4.2274 -2.92909 0
M  V30 14230 N 1356.76 4.70747 -3.94043 0
M  V30 14231 C 1358.13 4.62862 -4.12503 0
M  V30 14232 C 1360.19 4.0496 -2.89675 0
M  V30 14233 C 1358.89 4.87064 -5.29303 0
M  V30 14234 C 1360.92 4.30321 -4.05682 0
M  V30 14235 C 1360.28 4.7072 -5.24025 0
M  V30 14236 H 1356.38 0.757119 -0.195692 0
M  V30 14237 H 1358.96 1.63715 -1.05383 0
M  V30 14238 H 1357.13 3.88297 0.089583 0
M  V30 14239 H 1358.87 4.04584 -0.0968489 0
M  V30 14240 H 1355.62 4.24174 -2.1065 0
M  V30 14241 H 1356.04 4.93534 -4.63414 0
M  V30 14242 H 1360.69 3.72864 -1.99329 0
M  V30 14243 H 1358.4 5.18031 -6.20217 0
M  V30 14244 H 1361.99 4.18112 -4.04566 0
M  V30 14245 H 1360.87 4.89961 -6.12298 0
M  V30 14246 N 1358.37 0.56548 1.47106 0
M  V30 14247 C 1359.3 -0.16567 2.32912 0
M  V30 14248 C 1360.28 -0.900678 1.44298 0
M  V30 14249 O 1361.47 -0.879523 1.73142 0
M  V30 14250 C 1358.6 -1.19092 3.26243 0
M  V30 14251 C 1357.55 -0.571849 4.24163 0
M  V30 14252 C 1356.88 -1.70233 5.06878 0
M  V30 14253 C 1358.18 0.479785 5.20092 0
M  V30 14254 H 1359.87 0.550705 2.94292 0
M  V30 14255 H 1357.42 0.266284 1.41517 0
M  V30 14256 H 1359.37 -1.71064 3.85117 0
M  V30 14257 H 1358.1 -1.93734 2.62934 0
M  V30 14258 H 1356.76 -0.073353 3.66527 0
M  V30 14259 H 1356.4 -2.438 4.39967 0
M  V30 14260 H 1356.1 -1.29384 5.73178 0
M  V30 14261 H 1357.63 -2.22515 5.68612 0
M  V30 14262 H 1359.04 0.0458042 5.73282 0
M  V30 14263 H 1357.44 0.807615 5.94641 0
M  V30 14264 H 1358.51 1.37259 4.65068 0
M  V30 14265 N 1359.85 -1.54672 0.302354 0
M  V30 14266 C 1360.78 -2.21021 -0.606828 0
M  V30 14267 C 1361.8 -1.20337 -1.09648 0
M  V30 14268 O 1362.99 -1.46923 -1.0137 0
M  V30 14269 C 1360.09 -2.84411 -1.84293 0
M  V30 14270 C 1359.26 -4.11038 -1.49554 0
M  V30 14271 C 1358.32 -4.58219 -2.58693 0
M  V30 14272 O 1357.34 -5.23387 -2.23728 0
M  V30 14273 N 1358.55 -4.30651 -3.89256 0
M  V30 14274 H 1361.31 -2.99675 -0.0388221 0
M  V30 14275 H 1358.87 -1.6142 0.124614 0
M  V30 14276 H 1360.86 -3.12906 -2.56655 0
M  V30 14277 H 1359.43 -2.09589 -2.31929 0
M  V30 14278 H 1358.65 -3.89538 -0.604492 0
M  V30 14279 H 1359.94 -4.93488 -1.23884 0
M  V30 14280 H 1359.34 -3.78445 -4.20471 0
M  V30 14281 H 1357.9 -4.63853 -4.57913 0
M  V30 14282 N 1361.33 -0.0301034 -1.57571 0
M  V30 14283 C 1362.29 0.936465 -2.09196 0
M  V30 14284 C 1363.29 1.25347 -1.00722 0
M  V30 14285 O 1364.48 1.19364 -1.26877 0
M  V30 14286 C 1361.62 2.2527 -2.55864 0
M  V30 14287 H 1362.81 0.489332 -2.95881 0
M  V30 14288 H 1360.36 0.217948 -1.54773 0
M  V30 14289 H 1361.1 2.7461 -1.72511 0
M  V30 14290 H 1360.88 2.03573 -3.35113 0
M  V30 14291 H 1362.37 2.94549 -2.96025 0
M  V30 14292 N 1362.81 1.55714 0.243056 0
M  V30 14293 C 1364.06 1.76927 0.96849 0
M  V30 14294 C 1364.37 0.594748 1.86339 0
M  V30 14295 O 1365.58 0.689981 2.62586 0
M  V30 14296 C 1364.03 3.13246 1.77214 0
M  V30 14297 C 1363.64 4.38358 0.92444 0
M  V30 14298 C 1365.38 3.43796 2.49007 0
M  V30 14299 C 1363.29 5.65708 1.7242 0
M  V30 14300 H 1362.22 0.659574 0.365346 0
M  V30 14301 H 1364.87 1.8214 0.223026 0
M  V30 14302 H 1363.25 3.02151 2.5597 0
M  V30 14303 H 1364.43 4.60452 0.178936 0
M  V30 14304 H 1362.74 4.15171 0.319653 0
M  V30 14305 H 1365.34 4.3616 3.09303 0
M  V30 14306 H 1365.68 2.65297 3.20817 0
M  V30 14307 H 1366.22 3.56124 1.77259 0
M  V30 14308 H 1362.96 6.47039 1.04978 0
M  V30 14309 H 1362.48 5.4771 2.44488 0
M  V30 14310 H 1364.15 6.05105 2.29036 0
M  V30 14311 N 1364.29 -0.50888 1.49158 0
M  V30 14312 C 1365.23 -1.61129 1.65246 0
M  V30 14313 C 1366.2 -1.58582 0.49405 0
M  V30 14314 O 1367.39 -1.76689 0.720122 0
M  V30 14315 C 1364.53 -2.99311 1.71776 0
M  V30 14316 C 1363.64 -3.11933 2.98868 0
M  V30 14317 C 1362.78 -4.408 2.96426 0
M  V30 14318 C 1361.82 -4.47027 4.18131 0
M  V30 14319 N 1360.95 -5.67311 4.13645 0
M  V30 14320 H 1365.79 -1.4672 2.59379 0
M  V30 14321 H 1363.33 -0.713978 1.28611 0
M  V30 14322 H 1365.29 -3.79392 1.73543 0
M  V30 14323 H 1363.92 -3.12442 0.811159 0
M  V30 14324 H 1362.97 -2.24966 3.06748 0
M  V30 14325 H 1364.28 -3.12393 3.8886 0
M  V30 14326 H 1363.44 -5.29194 2.96712 0
M  V30 14327 H 1362.17 -4.42893 2.04199 0
M  V30 14328 H 1361.18 -3.57036 4.18097 0
M  V30 14329 H 1362.4 -4.46656 5.11542 0
M  V30 14330 H 1360.35 -5.70261 3.2425 0
M  V30 14331 H 1360.27 -5.69355 4.97364 0
M  V30 14332 H 1361.54 -6.57934 4.18022 0
M  V30 14333 N 1365.76 -1.381 -0.759346 0
M  V30 14334 C 1366.7 -1.29241 -1.88075 0
M  V30 14335 C 1367.68 -0.170526 -1.61703 0
M  V30 14336 O 1368.86 -0.346865 -1.85281 0
M  V30 14337 C 1365.99 -1.00115 -3.23566 0
M  V30 14338 C 1365.03 -2.14161 -3.68832 0
M  V30 14339 S 1365.87 -3.76251 -3.81045 0
M  V30 14340 C 1367.02 -3.49301 -5.19365 0
M  V30 14341 H 1367.25 -2.24152 -1.95303 0
M  V30 14342 H 1364.79 -1.23869 -0.921734 0
M  V30 14343 H 1366.75 -0.839934 -4.01815 0
M  V30 14344 H 1365.41 -0.0693088 -3.14024 0
M  V30 14345 H 1364.6 -1.89313 -4.67094 0
M  V30 14346 H 1364.2 -2.2636 -2.9772 0
M  V30 14347 H 1366.49 -3.05058 -6.04935 0
M  V30 14348 H 1367.44 -4.46935 -5.49231 0
M  V30 14349 H 1367.84 -2.83944 -4.87889 0
M  V30 14350 N 1367.24 0.986894 -1.22875 0
M  V30 14351 C 1368.52 1.70121 -0.965311 0
M  V30 14352 C 1368.9 2.04648 0.517924 0
M  V30 14353 O 1368.25 1.73453 1.48749 0
M  V30 14354 C 1368.46 2.94738 -1.86897 0
M  V30 14355 C 1369.81 3.6739 -2.12861 0
M  V30 14356 O 1370.83 3.04758 -1.84394 0
M  V30 14357 O 1369.69 4.8009 -2.61106 0
M  V30 14358 H 1366.78 0.742817 -0.363527 0
M  V30 14359 H 1369.33 1.0427 -1.33887 0
M  V30 14360 H 1368.1 2.65771 -2.87196 0
M  V30 14361 H 1367.72 3.68327 -1.49736 0
M  V30 14362 N 1368.72 1.0394 1.18466 0
M  V30 14363 C 1370.14 0.758404 1.40429 0
M  V30 14364 C 1370.34 -0.652603 1.90639 0
M  V30 14365 O 1369.39 -1.417 2.08991 0
M  V30 14366 C 1370.71 1.80343 2.40618 0
M  V30 14367 C 1372.25 1.82419 2.54347 0
M  V30 14368 C 1372.73 2.8591 3.57798 0
M  V30 14369 N 1374.22 2.84793 3.65304 0
M  V30 14370 C 1374.95 3.61521 4.45073 0
M  V30 14371 N 1374.45 4.47997 5.28461 0
M  V30 14372 N 1376.24 3.50016 4.39824 0
M  V30 14373 H 1368.39 1.94998 0.842 0
M  V30 14374 H 1370.66 0.843649 0.43239 0
M  V30 14375 H 1370.36 2.81547 2.10771 0
M  V30 14376 H 1370.24 1.63451 3.39947 0
M  V30 14377 H 1372.62 0.818872 2.83511 0
M  V30 14378 H 1372.71 2.03388 1.55136 0
M  V30 14379 H 1372.35 3.8662 3.29375 0
M  V30 14380 H 1372.28 2.62196 4.56684 0
M  V30 14381 H 1374.77 2.22082 3.05758 0
M  V30 14382 H 1375.08 5.03257 5.86475 0
M  V30 14383 H 1373.43 4.52065 5.27885 0
M  V30 14384 H 1376.62 2.81862 3.73726 0
M  V30 14385 H 1376.79 4.10063 5.0175 0
M  V30 14386 N 1370.2 -1.34667 0.818693 0
M  V30 14387 C 1371.43 -2.02348 0.417002 0
M  V30 14388 C 1371.84 -1.61813 -0.980464 0
M  V30 14389 O 1371.18 -0.817232 -1.64521 0
M  V30 14390 C 1371.24 -3.56861 0.434779 0
M  V30 14391 C 1370.91 -4.20704 1.78485 0
M  V30 14392 C 1371.9 -4.41524 2.74504 0
M  V30 14393 C 1369.59 -4.57566 2.07217 0
M  V30 14394 C 1371.58 -4.98324 3.97431 0
M  V30 14395 C 1369.27 -5.14078 3.30405 0
M  V30 14396 C 1370.27 -5.344 4.2533 0
M  V30 14397 O 1369.95 -5.89717 5.46342 0
M  V30 14398 H 1369.69 -0.655279 0.16609 0
M  V30 14399 H 1372.24 -1.73011 1.10708 0
M  V30 14400 H 1370.47 -3.8544 -0.311973 0
M  V30 14401 H 1372.16 -4.05864 0.0537258 0
M  V30 14402 H 1372.93 -4.13414 2.53601 0
M  V30 14403 H 1368.8 -4.41054 1.34135 0
M  V30 14404 H 1372.35 -5.14102 4.71534 0
M  V30 14405 H 1368.25 -5.41616 3.51174 0
M  V30 14406 H 1369.01 -6.08155 5.47804 0
M  V30 14407 N 1371.68 -0.573274 -1.46804 0
M  V30 14408 C 1372.62 0.165358 -2.30207 0
M  V30 14409 C 1373.59 0.89312 -1.40045 0
M  V30 14410 O 1374.78 0.885653 -1.68999 0
M  V30 14411 C 1371.92 1.17915 -3.2433 0
M  V30 14412 C 1371.03 0.455805 -4.29589 0
M  V30 14413 C 1370.17 1.45629 -5.10848 0
M  V30 14414 C 1369.21 0.718822 -6.07865 0
M  V30 14415 N 1368.34 1.66691 -6.82025 0
M  V30 14416 H 1373.18 -0.551947 -2.92844 0
M  V30 14417 H 1370.72 -0.28401 -1.44332 0
M  V30 14418 H 1372.68 1.77969 -3.77337 0
M  V30 14419 H 1371.31 1.86429 -2.63523 0
M  V30 14420 H 1370.36 -0.259584 -3.79513 0
M  V30 14421 H 1371.67 -0.121161 -4.98653 0
M  V30 14422 H 1370.83 2.1299 -5.68084 0
M  V30 14423 H 1369.56 2.06718 -4.41723 0
M  V30 14424 H 1368.57 0.0313773 -5.49791 0
M  V30 14425 H 1369.79 0.113452 -6.79005 0
M  V30 14426 H 1367.74 2.26608 -6.15617 0
M  V30 14427 H 1367.66 1.14251 -7.47317 0
M  V30 14428 H 1368.93 2.33117 -7.43826 0
M  V30 14429 N 1373.15 1.5451 -0.310553 0
M  V30 14430 C 1374.43 1.92452 0.34951 0
M  V30 14431 C 1374.81 1.23881 1.70929 0
M  V30 14432 O 1374.16 0.377898 2.25353 0
M  V30 14433 C 1374.37 3.46026 0.454675 0
M  V30 14434 C 1375.72 4.18432 0.721071 0
M  V30 14435 O 1376.74 3.52112 0.538112 0
M  V30 14436 O 1375.6 5.3586 1.07314 0
M  V30 14437 H 1372.69 0.803168 0.197103 0
M  V30 14438 H 1375.24 1.65852 -0.359313 0
M  V30 14439 H 1374.01 3.88081 -0.500853 0
M  V30 14440 H 1373.64 3.7869 1.21159 0
M  V30 14441 N 1374.63 0.0384594 1.57553 0
M  V30 14442 C 1375.58 -0.958199 2.11946 0
M  V30 14443 C 1376.58 -1.33073 1.04823 0
M  V30 14444 O 1377.78 -1.31187 1.23247 0
M  V30 14445 H 1374.16 -0.326819 0.677269 0
M  V30 14446 H 1376.13 -0.474211 2.94608 0
M  V30 14447 C 1374.88 -2.22821 2.6692 0
M  V30 14448 H 1374.2 -1.95032 3.49002 0
M  V30 14449 H 1375.64 -2.90746 3.08614 0
M  V30 14450 C 1374.1 -2.96429 1.60098 0
M  V30 14451 O 1374.63 -3.88892 1.00628 0
M  V30 14452 N 1372.83 -2.58931 1.3192 0
M  V30 14453 H 1372.38 -1.83818 1.80468 0
M  V30 14454 H 1372.34 -3.0849 0.60674 0
M  V30 14455 N 1376.11 -1.55841 -0.234795 0
M  V30 14456 C 1377.36 -1.78238 -0.961116 0
M  V30 14457 C 1377.69 -0.604919 -1.84854 0
M  V30 14458 O 1376.94 0.411289 -1.91329 0
M  V30 14459 C 1377.24 -3.06262 -1.84223 0
M  V30 14460 C 1376.91 -4.37045 -1.10916 0
M  V30 14461 C 1375.57 -4.72582 -0.906606 0
M  V30 14462 C 1377.92 -5.17844 -0.59049 0
M  V30 14463 C 1375.25 -5.86444 -0.173275 0
M  V30 14464 C 1377.6 -6.32468 0.129433 0
M  V30 14465 C 1376.26 -6.66616 0.343357 0
M  V30 14466 H 1375.53 -0.652219 -0.351697 0
M  V30 14467 H 1378.18 -1.9011 -0.230272 0
M  V30 14468 H 1376.49 -2.89454 -2.64052 0
M  V30 14469 H 1378.18 -3.20791 -2.40612 0
M  V30 14470 H 1374.77 -4.09134 -1.27699 0
M  V30 14471 H 1378.96 -4.90835 -0.734487 0
M  V30 14472 H 1374.21 -6.114 0.00282409 0
M  V30 14473 H 1378.39 -6.94312 0.538905 0
M  V30 14474 H 1376.01 -7.54691 0.913538 0
M  V30 14475 N 1377.59 0.500963 -1.49426 0
M  V30 14476 C 1378.82 1.27911 -1.62624 0
M  V30 14477 C 1379.23 1.86439 -0.297651 0
M  V30 14478 O 1378.59 1.67831 0.716879 0
M  V30 14479 C 1378.64 2.40934 -2.69505 0
M  V30 14480 O 1378.36 1.84811 -3.97211 0
M  V30 14481 C 1379.86 3.32305 -2.93408 0
M  V30 14482 H 1377.08 0.387951 -0.547481 0
M  V30 14483 H 1379.63 0.601372 -1.95458 0
M  V30 14484 H 1377.78 3.04537 -2.39449 0
M  V30 14485 H 1378.2 2.59011 -4.56085 0
M  V30 14486 H 1379.67 4.0789 -3.71927 0
M  V30 14487 H 1380.15 3.89301 -2.03325 0
M  V30 14488 H 1380.75 2.74467 -3.24881 0
M  V30 14489 N 1379.07 1.38501 0.752011 0
M  V30 14490 C 1380.03 1.35655 1.84744 0
M  V30 14491 C 1381.03 0.256772 1.58737 0
M  V30 14492 O 1382.22 0.513749 1.66452 0
M  V30 14493 C 1379.35 1.11231 3.22243 0
M  V30 14494 H 1380.55 2.33114 1.88674 0
M  V30 14495 H 1378.1 1.23818 0.953882 0
M  V30 14496 H 1378.83 0.143848 3.23981 0
M  V30 14497 H 1378.62 1.90857 3.42515 0
M  V30 14498 H 1380.11 1.11939 4.02318 0
M  V30 14499 N 1380.55 -0.980364 1.23396 0
M  V30 14500 C 1381.51 -2.05433 1.01635 0
M  V30 14501 C 1382.51 -1.60785 -0.0218244 0
M  V30 14502 O 1383.7 -1.72832 0.217922 0
M  V30 14503 C 1380.83 -3.36631 0.537822 0
M  V30 14504 H 1382.02 -2.26172 1.96943 0
M  V30 14505 H 1379.58 -1.15378 1.05441 0
M  V30 14506 H 1380.31 -3.21581 -0.41903 0
M  V30 14507 H 1380.1 -3.70377 1.28698 0
M  V30 14508 H 1381.59 -4.1562 0.406213 0
M  V30 14509 N 1382.02 -1.04567 -1.17913 0
M  V30 14510 C 1383.27 -0.750538 -1.87647 0
M  V30 14511 C 1383.59 0.72423 -1.81052 0
M  V30 14512 O 1382.86 1.52292 -1.23223 0
M  V30 14513 H 1381.44 -0.274636 -0.694683 0
M  V30 14514 H 1384.1 -1.32349 -1.43072 0
M  V30 14515 H 1383.2 -1.05987 -2.93553 0
M  V30 14516 N 1383.5 1.34231 -0.825823 0
M  V30 14517 C 1384.73 2.02124 -0.427727 0
M  V30 14518 C 1385.14 1.62331 0.971869 0
M  V30 14519 O 1384.48 0.825946 1.64085 0
M  V30 14520 C 1384.54 3.56626 -0.453698 0
M  V30 14521 C 1384.21 4.19752 -1.80713 0
M  V30 14522 C 1385.21 4.40062 -2.76842 0
M  V30 14523 C 1382.89 4.5646 -2.09641 0
M  V30 14524 C 1384.88 4.9621 -4.00069 0
M  V30 14525 C 1382.57 5.12318 -3.33127 0
M  V30 14526 C 1383.57 5.32137 -4.28158 0
M  V30 14527 O 1383.26 5.86811 -5.49462 0
M  V30 14528 H 1382.99 0.654389 -0.169563 0
M  V30 14529 H 1385.54 1.72421 -1.11624 0
M  V30 14530 H 1383.77 3.856 0.291527 0
M  V30 14531 H 1385.46 4.0583 -0.075249 0
M  V30 14532 H 1386.23 4.12064 -2.5579 0
M  V30 14533 H 1382.11 4.40337 -1.36473 0
M  V30 14534 H 1385.65 5.11594 -4.74254 0
M  V30 14535 H 1381.55 5.39746 -3.54041 0
M  V30 14536 H 1382.32 6.05242 -5.51022 0
M  V30 14537 N 1384.98 0.581051 1.46498 0
M  V30 14538 C 1386.21 0.0715652 2.06776 0
M  V30 14539 C 1386.62 -1.23267 1.43006 0
M  V30 14540 O 1385.98 -1.74489 0.534776 0
M  V30 14541 C 1386.03 -0.102666 3.61354 0
M  V30 14542 O 1385.75 1.14995 4.22739 0
M  V30 14543 C 1387.25 -0.646692 4.38558 0
M  V30 14544 H 1384.47 0.0566964 0.6686 0
M  V30 14545 H 1387.02 0.801248 1.8815 0
M  V30 14546 H 1385.17 -0.782564 3.79414 0
M  V30 14547 H 1385.59 0.962718 5.15589 0
M  V30 14548 H 1387.06 -0.717791 5.47313 0
M  V30 14549 H 1387.54 -1.6633 4.06486 0
M  V30 14550 H 1388.14 -0.00171739 4.253 0
M  V30 14551 N 1386.46 -1.54343 0.318742 0
M  V30 14552 C 1387.69 -2.04894 -0.287378 0
M  V30 14553 C 1388.1 -1.19514 -1.46157 0
M  V30 14554 O 1387.46 -0.224722 -1.81111 0
M  V30 14555 C 1387.51 -3.54124 -0.726505 0
M  V30 14556 O 1387.23 -4.36261 0.400968 0
M  V30 14557 C 1388.73 -4.20748 -1.39594 0
M  V30 14558 H 1385.95 -0.668323 -0.0598724 0
M  V30 14559 H 1388.49 -1.99177 0.463531 0
M  V30 14560 H 1386.65 -3.60145 -1.4274 0
M  V30 14561 H 1387.06 -5.2447 0.0558714 0
M  V30 14562 H 1388.54 -5.26632 -1.65418 0
M  V30 14563 H 1389.01 -3.71566 -2.3417 0
M  V30 14564 H 1389.62 -4.18852 -0.737749 0
M  V30 14565 N 1387.94 -0.0468143 -1.5753 0
M  V30 14566 C 1388.87 0.927092 -2.14306 0
M  V30 14567 C 1389.85 1.32745 -1.06362 0
M  V30 14568 O 1391.03 1.40293 -1.34281 0
M  V30 14569 C 1388.16 2.20343 -2.68452 0
M  V30 14570 C 1387.12 1.94328 -3.81341 0
M  V30 14571 C 1386.44 3.28379 -4.21985 0
M  V30 14572 C 1387.74 1.26835 -5.06666 0
M  V30 14573 H 1389.44 0.454199 -2.95935 0
M  V30 14574 H 1386.98 0.217029 -1.42355 0
M  V30 14575 H 1388.93 2.8887 -3.0681 0
M  V30 14576 H 1387.66 2.6983 -1.84009 0
M  V30 14577 H 1386.32 1.28214 -3.43448 0
M  V30 14578 H 1385.97 3.75658 -3.34499 0
M  V30 14579 H 1385.67 3.11772 -4.98068 0
M  V30 14580 H 1387.19 3.98145 -4.6294 0
M  V30 14581 H 1388.6 1.85389 -5.42498 0
M  V30 14582 H 1387 1.20569 -5.87863 0
M  V30 14583 H 1388.07 0.243759 -4.84287 0
M  V30 14584 N 1389.41 1.55964 0.226527 0
M  V30 14585 C 1390.32 1.95169 1.30178 0
M  V30 14586 C 1391.34 0.854831 1.51554 0
M  V30 14587 O 1392.52 1.15798 1.64781 0
M  V30 14588 C 1389.58 2.25612 2.63249 0
M  V30 14589 C 1388.64 3.4884 2.50219 0
M  V30 14590 C 1387.88 3.77822 3.76944 0
M  V30 14591 O 1388.1 3.08556 4.79739 0
M  V30 14592 O 1387.03 4.7132 3.74354 0
M  V30 14593 H 1390.86 2.86794 0.999145 0
M  V30 14594 H 1388.44 1.43109 0.42898 0
M  V30 14595 H 1390.33 2.4641 3.41848 0
M  V30 14596 H 1389 1.37162 2.93203 0
M  V30 14597 H 1387.91 3.33326 1.69836 0
M  V30 14598 H 1389.24 4.37657 2.25205 0
M  V30 14599 N 1390.89 -0.493031 1.4969 0
M  V30 14600 C 1391.86 -1.57598 1.6642 0
M  V30 14601 C 1392.86 -1.51615 0.535668 0
M  V30 14602 O 1394.05 -1.54626 0.802283 0
M  V30 14603 C 1391.18 -2.97249 1.66901 0
M  V30 14604 H 1392.37 -1.4409 2.63017 0
M  V30 14605 H 1389.92 -0.717846 1.3884 0
M  V30 14606 H 1390.66 -3.16225 0.719164 0
M  V30 14607 H 1390.44 -3.02999 2.48865 0
M  V30 14608 H 1391.93 -3.75914 1.81874 0
M  V30 14609 N 1392.37 -1.38898 -0.744656 0
M  V30 14610 C 1393.62 -1.35795 -1.50623 0
M  V30 14611 C 1393.95 0.0491775 -1.94138 0
M  V30 14612 O 1393.22 1.01219 -1.66087 0
M  V30 14613 C 1393.51 -2.32168 -2.75263 0
M  V30 14614 C 1393.36 -3.81781 -2.3783 0
M  V30 14615 C 1394.68 -2.26526 -3.77325 0
M  V30 14616 H 1391.8 -0.494591 -0.546396 0
M  V30 14617 H 1394.44 -1.69816 -0.852211 0
M  V30 14618 H 1392.59 -2.03287 -3.31069 0
M  V30 14619 H 1394.26 -4.21373 -1.8773 0
M  V30 14620 H 1392.51 -3.99027 -1.70176 0
M  V30 14621 H 1393.18 -4.44687 -3.27044 0
M  V30 14622 H 1395.65 -2.52041 -3.31081 0
M  V30 14623 H 1394.53 -2.96053 -4.62216 0
M  V30 14624 H 1394.79 -1.26705 -4.23554 0
M  V30 14625 N 1393.85 0.973806 -1.23914 0
M  V30 14626 C 1395.09 1.71852 -1.07678 0
M  V30 14627 C 1395.43 1.90357 0.384425 0
M  V30 14628 O 1394.7 1.46063 1.28436 0
M  V30 14629 C 1394.99 3.1129 -1.81026 0
M  V30 14630 C 1394.84 3.00315 -3.3486 0
M  V30 14631 C 1396.16 4.10835 -1.57805 0
M  V30 14632 H 1393.28 0.623749 -0.392564 0
M  V30 14633 H 1395.92 1.13325 -1.52504 0
M  V30 14634 H 1394.07 3.61255 -1.42922 0
M  V30 14635 H 1395.74 2.57823 -3.82524 0
M  V30 14636 H 1393.98 2.36667 -3.63553 0
M  V30 14637 H 1394.65 3.9907 -3.81376 0
M  V30 14638 H 1397.13 3.69705 -1.90939 0
M  V30 14639 H 1396.01 5.06478 -2.11591 0
M  V30 14640 H 1396.27 4.39091 -0.514894 0
M  V30 14641 N 1395.33 1.05191 1.17357 0
M  V30 14642 C 1396.28 0.623047 2.19322 0
M  V30 14643 C 1397.26 -0.340467 1.57257 0
M  V30 14644 O 1398.45 -0.157698 1.76296 0
M  V30 14645 C 1395.58 -0.000731889 3.433 0
M  V30 14646 C 1394.67 0.986608 4.12464 0
M  V30 14647 N 1395.06 2.158 4.57454 0
M  V30 14648 C 1393.36 0.815082 4.38489 0
M  V30 14649 C 1394.06 2.78262 5.10828 0
M  V30 14650 N 1393.03 2.0606 5.03031 0
M  V30 14651 H 1396.84 1.51555 2.5181 0
M  V30 14652 H 1394.35 0.922048 1.33686 0
M  V30 14653 H 1396.35 -0.325738 4.15625 0
M  V30 14654 H 1395.01 -0.888627 3.12304 0
M  V30 14655 H 1396.02 2.53634 4.51542 0
M  V30 14656 H 1392.69 -0.021765 4.17494 0
M  V30 14657 H 1394.08 3.77599 5.55759 0
M  V30 14658 N 1396.8 -1.33791 0.83293 0
M  V30 14659 C 1398.05 -1.98266 0.426412 0
M  V30 14660 C 1398.38 -1.65848 -1.01035 0
M  V30 14661 O 1397.66 -0.93528 -1.70537 0
M  V30 14662 C 1397.94 -3.54356 0.640586 0
M  V30 14663 C 1397.79 -3.96482 2.12419 0
M  V30 14664 C 1399.11 -4.40022 0.0829237 0
M  V30 14665 H 1396.23 -0.720213 0.156404 0
M  V30 14666 H 1398.87 -1.58527 1.04735 0
M  V30 14667 H 1397.02 -3.88338 0.11204 0
M  V30 14668 H 1398.7 -3.72786 2.71714 0
M  V30 14669 H 1396.94 -3.46429 2.61092 0
M  V30 14670 H 1397.61 -5.05179 2.22482 0
M  V30 14671 H 1400.09 -4.12651 0.534634 0
M  V30 14672 H 1398.96 -5.48272 0.262511 0
M  V30 14673 H 1399.22 -4.30341 -1.01287 0
M  V30 14674 N 1398.28 -0.588812 -1.46187 0
M  V30 14675 C 1399.23 0.153638 -2.32092 0
M  V30 14676 C 1400.22 0.878346 -1.4485 0
M  V30 14677 O 1401.43 0.796042 -1.61441 0
M  V30 14678 H 1397.81 0.0684129 -0.748882 0
M  V30 14679 H 1399.78 -0.58961 -2.92517 0
M  V30 14680 C 1398.53 1.15003 -3.28131 0
M  V30 14681 H 1397.85 0.601804 -3.95245 0
M  V30 14682 H 1399.29 1.6398 -3.91007 0
M  V30 14683 C 1397.75 2.21411 -2.53926 0
M  V30 14684 O 1398.28 3.28862 -2.30679 0
M  V30 14685 N 1396.48 1.96184 -2.14383 0
M  V30 14686 H 1396.03 1.08812 -2.3349 0
M  V30 14687 H 1395.99 2.6759 -1.65055 0
M  V30 14688 N 1399.76 1.54172 -0.326923 0
M  V30 14689 C 1400.69 2.21958 0.571588 0
M  V30 14690 C 1401.71 1.22067 1.0772 0
M  V30 14691 O 1402.89 1.48517 0.990202 0
M  V30 14692 C 1399.99 2.87307 1.79744 0
M  V30 14693 C 1399.17 4.13366 1.42995 0
M  V30 14694 C 1398.23 4.62276 2.5137 0
M  V30 14695 O 1397.25 5.2688 2.15373 0
M  V30 14696 N 1398.45 4.36789 3.82355 0
M  V30 14697 H 1401.22 2.99699 -0.00885848 0
M  V30 14698 H 1398.78 1.61201 -0.150279 0
M  V30 14699 H 1400.77 3.1695 2.51644 0
M  V30 14700 H 1399.34 2.13252 2.28566 0
M  V30 14701 H 1398.56 3.9045 0.542444 0
M  V30 14702 H 1399.85 4.95396 1.16017 0
M  V30 14703 H 1399.25 3.85086 4.14397 0
M  V30 14704 H 1397.81 4.71079 4.50475 0
M  V30 14705 N 1401.24 0.0551678 1.57503 0
M  V30 14706 C 1402.15 -0.932959 2.15251 0
M  V30 14707 C 1403.16 -1.33885 1.11134 0
M  V30 14708 O 1404.34 -1.41495 1.43321 0
M  V30 14709 C 1401.41 -2.18807 2.68932 0
M  V30 14710 C 1400.47 -1.84016 3.87862 0
M  V30 14711 C 1399.7 -3.03543 4.38973 0
M  V30 14712 O 1399.92 -4.17041 3.89144 0
M  V30 14713 O 1398.86 -2.84325 5.30512 0
M  V30 14714 H 1402.68 -0.471816 3.00013 0
M  V30 14715 H 1400.27 -0.16696 1.48464 0
M  V30 14716 H 1402.15 -2.92439 3.0341 0
M  V30 14717 H 1400.82 -2.64051 1.87239 0
M  V30 14718 H 1399.73 -1.07687 3.58266 0
M  V30 14719 H 1401.06 -1.43567 4.70796 0
M  V30 14720 N 1402.72 -1.56081 -0.218252 0
M  V30 14721 C 1403.99 -1.70043 -0.966684 0
M  V30 14722 C 1404.37 -0.603372 -2.02293 0
M  V30 14723 O 1403.72 0.389138 -2.25162 0
M  V30 14724 C 1403.93 -3.11484 -1.57413 0
M  V30 14725 C 1405.28 -3.70995 -2.06513 0
M  V30 14726 O 1406.3 -3.14466 -1.67301 0
M  V30 14727 O 1405.16 -4.70156 -2.78596 0
M  V30 14728 H 1402.26 -0.692691 -0.451784 0
M  V30 14729 H 1404.8 -1.68398 -0.209774 0
M  V30 14730 H 1403.57 -3.8279 -0.811614 0
M  V30 14731 H 1403.2 -3.1726 -2.3965 0
M  V30 14732 N 1404.2 0.485086 -1.49949 0
M  V30 14733 C 1405.13 1.59312 -1.7071 0
M  V30 14734 C 1406.11 1.6076 -0.555896 0
M  V30 14735 O 1407.29 1.77249 -0.793504 0
M  V30 14736 C 1404.42 2.97718 -1.78834 0
M  V30 14737 C 1403.38 3.11136 -2.93902 0
M  V30 14738 C 1402.7 4.51051 -2.87154 0
M  V30 14739 C 1404 2.89665 -4.34617 0
M  V30 14740 H 1405.7 1.42192 -2.6348 0
M  V30 14741 H 1403.24 0.68262 -1.26792 0
M  V30 14742 H 1405.19 3.75148 -1.91943 0
M  V30 14743 H 1403.92 3.15963 -0.826744 0
M  V30 14744 H 1402.58 2.36135 -2.80421 0
M  V30 14745 H 1402.23 4.66195 -1.88869 0
M  V30 14746 H 1401.93 4.60967 -3.64394 0
M  V30 14747 H 1403.45 5.3052 -3.02293 0
M  V30 14748 H 1404.86 3.56853 -4.48697 0
M  V30 14749 H 1403.26 3.11039 -5.13201 0
M  V30 14750 H 1404.33 1.85642 -4.47956 0
M  V30 14751 N 1405.67 1.39291 0.737279 0
M  V30 14752 C 1406.64 1.37607 1.83294 0
M  V30 14753 C 1407.64 0.273594 1.58455 0
M  V30 14754 O 1408.83 0.531375 1.65898 0
M  V30 14755 C 1405.96 1.14642 3.21045 0
M  V30 14756 H 1407.15 2.35102 1.86191 0
M  V30 14757 H 1404.7 1.24822 0.940696 0
M  V30 14758 H 1405.44 0.178202 3.2381 0
M  V30 14759 H 1405.22 1.94479 3.40471 0
M  V30 14760 H 1406.71 1.162 4.01108 0
M  V30 14761 N 1407.15 -0.967221 1.24429 0
M  V30 14762 C 1408.57 -1.23594 1.00979 0
M  V30 14763 C 1408.77 -1.99529 -0.281112 0
M  V30 14764 O 1407.82 -2.31977 -0.997139 0
M  V30 14765 C 1409.14 -2.02261 2.22511 0
M  V30 14766 C 1410.68 -2.15352 2.2714 0
M  V30 14767 C 1411.16 -2.97414 3.48294 0
M  V30 14768 N 1412.65 -3.04996 3.48614 0
M  V30 14769 C 1413.39 -3.68851 4.39017 0
M  V30 14770 N 1412.88 -4.34421 5.39676 0
M  V30 14771 N 1414.67 -3.65868 4.26728 0
M  V30 14772 H 1406.83 -0.458881 2.07384 0
M  V30 14773 H 1409.09 -0.265411 0.910088 0
M  V30 14774 H 1408.79 -1.53852 3.16263 0
M  V30 14775 H 1408.67 -3.02993 2.24667 0
M  V30 14776 H 1411.06 -2.62964 1.33919 0
M  V30 14777 H 1411.14 -1.13966 2.2901 0
M  V30 14778 H 1410.78 -2.50495 4.41831 0
M  V30 14779 H 1410.71 -3.98998 3.43668 0
M  V30 14780 H 1413.2 -2.58354 2.75793 0
M  V30 14781 H 1413.51 -4.80965 6.04891 0
M  V30 14782 H 1411.86 -4.33089 5.43562 0
M  V30 14783 H 1415.05 -3.13819 3.47325 0
M  V30 14784 H 1415.22 -4.15349 4.97382 0
M  V30 14785 N 1408.63 -1.05812 -1.16797 0
M  V30 14786 C 1409.88 -0.767008 -1.86547 0
M  V30 14787 C 1410.19 0.708979 -1.82299 0
M  V30 14788 O 1411.4 1.11428 -2.4758 0
M  V30 14789 C 1409.85 -1.32186 -3.34746 0
M  V30 14790 C 1409.46 -2.82774 -3.4748 0
M  V30 14791 C 1411.21 -1.10808 -4.09783 0
M  V30 14792 C 1409.11 -3.31529 -4.89737 0
M  V30 14793 H 1408.04 -0.283235 -0.698781 0
M  V30 14794 H 1410.69 -1.27621 -1.31853 0
M  V30 14795 H 1409.08 -0.740453 -3.89016 0
M  V30 14796 H 1410.25 -3.46825 -3.03396 0
M  V30 14797 H 1408.56 -3.02765 -2.85871 0
M  V30 14798 H 1411.16 -1.44728 -5.14741 0
M  V30 14799 H 1411.5 -0.046167 -4.16274 0
M  V30 14800 H 1412.04 -1.65502 -3.61737 0
M  V30 14801 H 1408.78 -4.37177 -4.88422 0
M  V30 14802 H 1408.3 -2.72224 -5.34466 0
M  V30 14803 H 1409.98 -3.26572 -5.58534 0
M  V30 14804 N 1410.11 1.33347 -0.840014 0
M  V30 14805 C 1411.36 1.97354 -0.435412 0
M  V30 14806 C 1411.68 1.66866 1.009 0
M  V30 14807 O 1410.95 0.968186 1.70303 0
M  V30 14808 H 1409.53 0.730096 -0.158017 0
M  V30 14809 H 1412.19 1.6269 -1.07322 0
M  V30 14810 H 1411.28 3.0688 -0.56841 0
M  V30 14811 N 1411.59 0.596556 1.45873 0
M  V30 14812 C 1412.83 0.0850976 2.0152 0
M  V30 14813 C 1413.15 -1.28799 1.47208 0
M  V30 14814 O 1414.35 -1.89156 1.94762 0
M  V30 14815 C 1412.81 0.101488 3.59757 0
M  V30 14816 C 1412.42 1.47374 4.23066 0
M  V30 14817 C 1414.16 -0.355303 4.2301 0
M  V30 14818 C 1412.07 1.44711 5.73422 0
M  V30 14819 H 1411 0.0280444 0.753478 0
M  V30 14820 H 1413.65 0.750255 1.67462 0
M  V30 14821 H 1412.03 -0.630108 3.90955 0
M  V30 14822 H 1413.21 2.22617 4.03458 0
M  V30 14823 H 1411.52 1.87171 3.71962 0
M  V30 14824 H 1414.12 -0.394236 5.33245 0
M  V30 14825 H 1414.46 -1.37573 3.92911 0
M  V30 14826 H 1414.99 0.32267 3.96489 0
M  V30 14827 H 1411.73 2.44479 6.08203 0
M  V30 14828 H 1411.25 0.737102 5.95254 0
M  V30 14829 H 1412.93 1.16598 6.36407 0
M  V30 14830 N 1413.06 -1.53996 0.335095 0
M  V30 14831 C 1414.29 -2.05188 -0.26563 0
M  V30 14832 C 1414.71 -1.21058 -1.44881 0
M  V30 14833 O 1414.06 -0.243919 -1.80863 0
M  V30 14834 C 1414.11 -3.54875 -0.688904 0
M  V30 14835 O 1413.84 -4.35811 0.447217 0
M  V30 14836 C 1415.34 -4.22204 -1.35123 0
M  V30 14837 H 1412.56 -0.668921 -0.0527806 0
M  V30 14838 H 1415.1 -1.98675 0.48463 0
M  V30 14839 H 1413.26 -3.61638 -1.38912 0
M  V30 14840 H 1413.67 -5.24381 0.111495 0
M  V30 14841 H 1415.14 -5.28356 -1.59823 0
M  V30 14842 H 1415.62 -3.74029 -2.30216 0
M  V30 14843 H 1416.23 -4.19611 -0.693283 0
M  V30 14844 N 1414.54 -0.0635198 -1.57472 0
M  V30 14845 C 1415.5 0.891881 -2.11135 0
M  V30 14846 C 1416.5 1.23182 -1.03358 0
M  V30 14847 O 1417.69 1.16646 -1.2938 0
M  V30 14848 C 1414.83 2.19792 -2.60584 0
M  V30 14849 H 1416.02 0.426461 -2.96852 0
M  V30 14850 H 1413.57 0.185069 -1.552 0
M  V30 14851 H 1414.31 2.70889 -1.78297 0
M  V30 14852 H 1414.09 1.96419 -3.39355 0
M  V30 14853 H 1415.58 2.88203 -3.02206 0
M  V30 14854 N 1416.02 1.56195 0.209972 0
M  V30 14855 C 1417.27 1.78941 0.930744 0
M  V30 14856 C 1417.58 0.634139 1.85035 0
M  V30 14857 O 1418.79 0.745524 2.61064 0
M  V30 14858 C 1417.24 3.16935 1.70529 0
M  V30 14859 C 1416.85 4.40221 0.83125 0
M  V30 14860 C 1418.6 3.49 2.41659 0
M  V30 14861 C 1416.5 5.69238 1.60381 0
M  V30 14862 H 1415.43 0.667176 0.351273 0
M  V30 14863 H 1418.08 1.82572 0.184341 0
M  V30 14864 H 1416.47 3.07513 2.49503 0
M  V30 14865 H 1417.64 4.60728 0.081227 0
M  V30 14866 H 1415.95 4.15756 0.231517 0
M  V30 14867 H 1418.55 4.42623 2.99982 0
M  V30 14868 H 1418.89 2.72042 3.15117 0
M  V30 14869 H 1419.43 3.59804 1.69665 0
M  V30 14870 H 1416.17 6.49121 0.912292 0
M  V30 14871 H 1415.69 5.52772 2.32815 0
M  V30 14872 H 1417.37 6.09827 2.16149 0
M  V30 14873 N 1417.5 -0.477127 1.50204 0
M  V30 14874 C 1418.73 -1.25307 1.64638 0
M  V30 14875 C 1419.14 -1.85942 0.327274 0
M  V30 14876 O 1418.5 -1.6895 -0.690088 0
M  V30 14877 C 1418.55 -2.36616 2.73304 0
M  V30 14878 O 1418.27 -1.78469 4.00101 0
M  V30 14879 C 1419.77 -3.27595 2.98658 0
M  V30 14880 H 1416.99 -0.379192 0.553583 0
M  V30 14881 H 1419.53 -0.5702 1.9639 0
M  V30 14882 H 1417.69 -3.00689 2.44264 0
M  V30 14883 H 1418.1 -2.51722 4.60148 0
M  V30 14884 H 1419.58 -4.01921 3.7837 0
M  V30 14885 H 1420.05 -3.86017 2.09493 0
M  V30 14886 H 1420.66 -2.69264 3.29206 0
M  V30 14887 N 1418.98 -1.3968 -0.729882 0
M  V30 14888 C 1419.93 -1.35296 -1.83518 0
M  V30 14889 C 1420.91 -0.232935 -1.59205 0
M  V30 14890 O 1422.1 -0.470887 -1.70621 0
M  V30 14891 C 1419.23 -1.20383 -3.21501 0
M  V30 14892 C 1418.32 -2.37108 -3.51626 0
M  V30 14893 N 1418.71 -3.62585 -3.52655 0
M  V30 14894 C 1417.01 -2.30177 -3.82014 0
M  V30 14895 C 1417.71 -4.39803 -3.8072 0
M  V30 14896 N 1416.68 -3.69456 -3.98752 0
M  V30 14897 H 1420.49 -2.30271 -1.82627 0
M  V30 14898 H 1418 -1.33249 -0.92836 0
M  V30 14899 H 1420 -1.15325 -4.00632 0
M  V30 14900 H 1418.66 -0.263628 -3.23628 0
M  V30 14901 H 1419.67 -3.9594 -3.33845 0
M  V30 14902 H 1416.34 -1.44446 -3.91716 0
M  V30 14903 H 1417.73 -5.4859 -3.87941 0
M  V30 14904 N 1420.45 0.960609 -1.2494 0
M  V30 14905 C 1421.39 2.05948 -1.00588 0
M  V30 14906 C 1422.4 1.62777 0.0271261 0
M  V30 14907 O 1423.59 1.77252 -0.210739 0
M  V30 14908 C 1420.69 3.35228 -0.497521 0
M  V30 14909 C 1419.86 4.0727 -1.59531 0
M  V30 14910 C 1418.92 5.14822 -1.08836 0
M  V30 14911 O 1417.95 5.40602 -1.78153 0
M  V30 14912 N 1419.15 5.80453 0.0735067 0
M  V30 14913 H 1421.91 2.27411 -1.95204 0
M  V30 14914 H 1419.47 1.12874 -1.16065 0
M  V30 14915 H 1421.47 4.04447 -0.142979 0
M  V30 14916 H 1420.04 3.10583 0.354546 0
M  V30 14917 H 1419.26 3.32231 -2.12171 0
M  V30 14918 H 1420.54 4.52161 -2.33299 0
M  V30 14919 H 1419.94 5.6192 0.652848 0
M  V30 14920 H 1418.5 6.50754 0.369132 0
M  V30 14921 N 1421.93 1.0643 1.16234 0
M  V30 14922 C 1422.88 0.670457 2.22728 0
M  V30 14923 C 1423.87 -0.31428 1.66459 0
M  V30 14924 O 1425.08 -0.178996 1.79108 0
M  V30 14925 H 1421.46 0.198692 0.725276 0
M  V30 14926 H 1423.43 1.57846 2.53233 0
M  V30 14927 C 1422.18 0.074379 3.4762 0
M  V30 14928 H 1421.5 0.823227 3.91233 0
M  V30 14929 H 1422.94 -0.163652 4.23684 0
M  V30 14930 C 1421.4 -1.18242 3.15469 0
M  V30 14931 O 1421.93 -2.27018 3.314 0
M  V30 14932 N 1420.13 -1.08493 2.69588 0
M  V30 14933 H 1419.68 -0.199714 2.56825 0
M  V30 14934 H 1419.64 -1.92666 2.48449 0
M  V30 14935 N 1423.41 -1.329 0.847073 0
M  V30 14936 C 1424.36 -2.29044 0.284199 0
M  V30 14937 C 1425.33 -1.54706 -0.604591 0
M  V30 14938 O 1426.51 -1.82966 -0.541116 0
M  V30 14939 C 1423.65 -3.4104 -0.527822 0
M  V30 14940 C 1422.77 -4.30273 0.385907 0
M  V30 14941 C 1421.9 -5.29391 -0.438009 0
M  V30 14942 C 1420.94 -6.10265 0.473596 0
M  V30 14943 N 1420.08 -7.01403 -0.312684 0
M  V30 14944 H 1424.92 -2.76582 1.10935 0
M  V30 14945 H 1422.45 -1.36085 0.558508 0
M  V30 14946 H 1424.41 -4.04686 -1.01417 0
M  V30 14947 H 1423.04 -2.94673 -1.31787 0
M  V30 14948 H 1422.09 -3.67275 0.99061 0
M  V30 14949 H 1423.41 -4.86837 1.08585 0
M  V30 14950 H 1422.56 -5.98604 -0.987842 0
M  V30 14951 H 1421.3 -4.73424 -1.17135 0
M  V30 14952 H 1420.3 -5.39963 1.03537 0
M  V30 14953 H 1421.53 -6.68316 1.20543 0
M  V30 14954 H 1419.47 -6.47875 -1.02926 0
M  V30 14955 H 1419.39 -7.55286 0.328376 0
M  V30 14956 H 1420.66 -7.74912 -0.844489 0
M  V30 14957 N 1424.89 -0.604284 -1.45555 0
M  V30 14958 C 1426.14 -0.0957836 -2.01472 0
M  V30 14959 C 1426.45 1.28016 -1.47889 0
M  V30 14960 O 1427.66 1.88121 -1.95762 0
M  V30 14961 C 1426.11 -0.120566 -3.59698 0
M  V30 14962 C 1425.72 -1.49616 -4.22278 0
M  V30 14963 C 1427.46 0.332865 -4.23193 0
M  V30 14964 C 1425.37 -1.4775 -5.72646 0
M  V30 14965 H 1424.3 -0.0320399 -0.753319 0
M  V30 14966 H 1426.95 -0.759125 -1.67061 0
M  V30 14967 H 1425.33 0.609365 -3.91283 0
M  V30 14968 H 1426.51 -2.24753 -4.02272 0
M  V30 14969 H 1424.82 -1.89141 -3.70965 0
M  V30 14970 H 1427.42 0.365951 -5.33446 0
M  V30 14971 H 1427.76 1.35487 -3.93635 0
M  V30 14972 H 1428.3 -0.343692 -3.96313 0
M  V30 14973 H 1425.04 -2.47701 -6.06898 0
M  V30 14974 H 1424.56 -0.768659 -5.94854 0
M  V30 14975 H 1426.23 -1.19971 -6.3578 0
M  V30 14976 N 1426.37 1.53816 -0.343257 0
M  V30 14977 C 1427.3 2.27951 0.506005 0
M  V30 14978 C 1428.28 1.29502 1.10287 0
M  V30 14979 O 1429.46 1.58344 1.12432 0
M  V30 14980 C 1426.59 3.0521 1.65723 0
M  V30 14981 C 1425.55 4.11161 1.18871 0
M  V30 14982 C 1424.87 4.76373 2.42843 0
M  V30 14983 C 1426.17 5.21498 0.289403 0
M  V30 14984 H 1427.87 2.99189 -0.112435 0
M  V30 14985 H 1425.41 1.43893 -0.055516 0
M  V30 14986 H 1427.37 3.55811 2.2578 0
M  V30 14987 H 1426.09 2.31624 2.30256 0
M  V30 14988 H 1424.75 3.61473 0.610962 0
M  V30 14989 H 1424.4 3.99381 3.05784 0
M  V30 14990 H 1424.1 5.47955 2.12177 0
M  V30 14991 H 1425.62 5.29758 3.03627 0
M  V30 14992 H 1427.03 5.67736 0.796808 0
M  V30 14993 H 1425.43 6.00054 0.0746366 0
M  V30 14994 H 1426.5 4.80185 -0.674543 0
M  V30 14995 N 1427.84 0.0718701 1.57436 0
M  V30 14996 C 1429.07 -0.609701 1.98236 0
M  V30 14997 C 1429.49 -1.6235 0.949959 0
M  V30 14998 O 1428.85 -1.81103 -0.0844281 0
M  V30 14999 C 1428.9 -1.2547 3.38068 0
M  V30 15000 O 1428 -2.37055 3.37459 0
M  V30 15001 H 1427.35 -0.15679 0.645223 0
M  V30 15002 H 1429.88 0.146407 2.04076 0
M  V30 15003 H 1429.89 -1.60152 3.75254 0
M  V30 15004 H 1428.56 -0.511842 4.12738 0
M  V30 15005 H 1427.14 -2.04165 3.12043 0
M  V30 15006 N 1429.32 -1.56304 -0.201686 0
M  V30 15007 C 1430.55 -1.84692 -0.943583 0
M  V30 15008 C 1430.97 -0.654649 -1.7634 0
M  V30 15009 O 1430.33 0.396586 -1.76909 0
M  V30 15010 C 1430.38 -3.11251 -1.82085 0
M  V30 15011 O 1429.48 -2.9134 -2.91881 0
M  V30 15012 H 1428.82 -0.608351 -0.266092 0
M  V30 15013 H 1431.35 -2.0353 -0.208992 0
M  V30 15014 H 1431.36 -3.41874 -2.2268 0
M  V30 15015 H 1430.04 -3.97652 -1.21844 0
M  V30 15016 H 1428.62 -2.72 -2.55089 0
M  V30 15017 N 1430.8 0.469154 -1.50455 0
M  V30 15018 C 1432.05 1.2229 -1.6178 0
M  V30 15019 C 1432.38 1.91577 -0.318073 0
M  V30 15020 O 1431.65 1.82205 0.68057 0
M  V30 15021 C 1431.94 2.26504 -2.79943 0
M  V30 15022 C 1431.79 1.61509 -4.19804 0
M  V30 15023 C 1433.11 3.27796 -2.93662 0
M  V30 15024 H 1430.23 0.443241 -0.588817 0
M  V30 15025 H 1432.87 0.516431 -1.82847 0
M  V30 15026 H 1431.02 2.86757 -2.62112 0
M  V30 15027 H 1432.69 1.04838 -4.49229 0
M  V30 15028 H 1430.94 0.918162 -4.23972 0
M  V30 15029 H 1431.61 2.37248 -4.98415 0
M  V30 15030 H 1434.08 2.77568 -3.09992 0
M  V30 15031 H 1432.96 3.98041 -3.77961 0
M  V30 15032 H 1433.22 3.92033 -2.04359 0
M  V30 15033 N 1432.28 1.40065 0.722464 0
M  V30 15034 C 1433.21 1.35695 1.84715 0
M  V30 15035 C 1434.22 0.263522 1.60653 0
M  V30 15036 O 1435.41 0.523382 1.70655 0
M  V30 15037 C 1432.51 1.08722 3.20987 0
M  V30 15038 C 1431.69 2.29586 3.72302 0
M  V30 15039 C 1430.74 1.98879 4.87169 0
M  V30 15040 O 1429.77 2.71681 5.00178 0
M  V30 15041 N 1430.97 0.962554 5.72464 0
M  V30 15042 H 1433.74 2.32621 1.88964 0
M  V30 15043 H 1431.3 1.3433 0.903723 0
M  V30 15044 H 1433.29 0.861772 3.95418 0
M  V30 15045 H 1431.86 0.204869 3.11928 0
M  V30 15046 H 1431.08 2.68004 2.8908 0
M  V30 15047 H 1432.37 3.10176 4.03322 0
M  V30 15048 H 1431.77 0.359452 5.64557 0
M  V30 15049 H 1430.32 0.797003 6.46909 0
M  V30 15050 N 1433.76 -0.95397 1.25448 0
M  V30 15051 C 1434.72 -2.03231 1.0597 0
M  V30 15052 C 1435.72 -1.60795 0.0122855 0
M  V30 15053 O 1436.91 -1.7233 0.254533 0
M  V30 15054 C 1434.04 -3.35414 0.609105 0
M  V30 15055 H 1435.24 -2.21943 2.01696 0
M  V30 15056 H 1432.79 -1.13115 1.07864 0
M  V30 15057 H 1433.52 -3.22398 -0.350723 0
M  V30 15058 H 1433.31 -3.67564 1.36526 0
M  V30 15059 H 1434.8 -4.14664 0.49428 0
M  V30 15060 N 1435.24 -1.07045 -1.15668 0
M  V30 15061 C 1436.17 -0.632171 -2.19269 0
M  V30 15062 C 1437.15 0.348973 -1.58811 0
M  V30 15063 O 1438.33 0.256137 -1.86752 0
M  V30 15064 C 1435.46 0.0721491 -3.38623 0
M  V30 15065 C 1434.5 -0.866947 -4.17596 0
M  V30 15066 S 1435.34 -2.36628 -4.80382 0
M  V30 15067 C 1436.49 -1.67367 -6.03108 0
M  V30 15068 H 1436.73 -1.50986 -2.56106 0
M  V30 15069 H 1434.26 -0.884123 -1.2658 0
M  V30 15070 H 1436.22 0.472272 -4.07774 0
M  V30 15071 H 1434.88 0.926138 -3.00136 0
M  V30 15072 H 1434.07 -0.320814 -5.02978 0
M  V30 15073 H 1433.67 -1.20731 -3.53977 0
M  V30 15074 H 1435.96 -0.983606 -6.70322 0
M  V30 15075 H 1436.91 -2.50569 -6.62284 0
M  V30 15076 H 1437.32 -1.15299 -5.526 0
M  V30 15077 N 1436.71 1.32449 -0.85411 0
M  V30 15078 C 1438.13 1.50046 -0.543895 0
M  V30 15079 C 1438.33 1.78985 0.925561 0
M  V30 15080 O 1437.39 1.85909 1.70862 0
M  V30 15081 C 1438.7 2.64499 -1.43041 0
M  V30 15082 C 1440.25 2.78384 -1.43078 0
M  V30 15083 C 1440.72 3.95915 -2.3025 0
M  V30 15084 N 1442.21 4.03176 -2.28043 0
M  V30 15085 C 1442.95 4.9335 -2.92221 0
M  V30 15086 N 1442.44 5.88536 -3.6551 0
M  V30 15087 N 1444.24 4.86468 -2.81612 0
M  V30 15088 H 1436.39 1.11931 -1.80514 0
M  V30 15089 H 1438.65 0.551626 -0.770982 0
M  V30 15090 H 1438.36 2.49842 -2.47532 0
M  V30 15091 H 1438.23 3.60269 -1.11742 0
M  V30 15092 H 1440.62 2.92464 -0.393529 0
M  V30 15093 H 1440.7 1.83329 -1.78393 0
M  V30 15094 H 1440.34 3.82594 -3.34043 0
M  V30 15095 H 1440.27 4.90245 -1.92268 0
M  V30 15096 H 1442.76 3.35064 -1.74759 0
M  V30 15097 H 1443.08 6.54038 -4.11648 0
M  V30 15098 H 1441.42 5.88564 -3.69618 0
M  V30 15099 H 1444.61 4.11076 -2.23907 0
M  V30 15100 H 1444.79 5.56542 -3.3191 0
M  V30 15101 N 1438.19 0.611994 1.45232 0
M  V30 15102 C 1439.42 0.115409 2.06578 0
M  V30 15103 C 1439.83 -1.20206 1.45588 0
M  V30 15104 O 1439.19 -1.73315 0.571668 0
M  V30 15105 C 1439.24 -0.0259943 3.61491 0
M  V30 15106 O 1438.96 1.23936 4.20204 0
M  V30 15107 C 1440.46 -0.553522 4.39831 0
M  V30 15108 H 1437.68 0.0708656 0.667247 0
M  V30 15109 H 1440.23 0.840977 1.86408 0
M  V30 15110 H 1438.38 -0.701909 3.80988 0
M  V30 15111 H 1438.8 1.07187 5.13431 0
M  V30 15112 H 1440.27 -0.601536 5.48713 0
M  V30 15113 H 1440.75 -1.57671 4.09923 0
M  V30 15114 H 1441.35 0.0884954 4.25208 0
M  V30 15115 N 1439.67 -1.53632 0.351409 0
M  V30 15116 C 1440.6 -2.2284 -0.536204 0
M  V30 15117 C 1441.61 -1.23765 -1.05764 0
M  V30 15118 O 1442.8 -1.50073 -0.966449 0
M  V30 15119 C 1439.9 -2.9013 -1.75151 0
M  V30 15120 C 1439.08 -4.15588 -1.36401 0
M  V30 15121 C 1438.14 -4.66217 -2.43984 0
M  V30 15122 O 1437.16 -5.3024 -2.06964 0
M  V30 15123 N 1438.36 -4.42817 -3.75358 0
M  V30 15124 H 1441.13 -2.99647 0.0565368 0
M  V30 15125 H 1438.69 -1.60942 0.175905 0
M  V30 15126 H 1440.68 -3.20913 -2.4657 0
M  V30 15127 H 1439.25 -2.16862 -2.25144 0
M  V30 15128 H 1438.47 -3.91264 -0.480258 0
M  V30 15129 H 1439.76 -4.97179 -1.08121 0
M  V30 15130 H 1439.16 -3.9163 -4.08218 0
M  V30 15131 H 1437.71 -4.78186 -4.42924 0
M  V30 15132 N 1441.15 -0.0802183 -1.57396 0
M  V30 15133 C 1442.08 0.920242 -2.08822 0
M  V30 15134 C 1443.06 1.2858 -0.995281 0
M  V30 15135 O 1444.24 1.39364 -1.26925 0
M  V30 15136 C 1441.37 2.22589 -2.55288 0
M  V30 15137 C 1440.42 2.01128 -3.76098 0
M  V30 15138 S 1441.25 1.2629 -5.20395 0
M  V30 15139 C 1442.4 2.58116 -5.70199 0
M  V30 15140 H 1442.64 0.482685 -2.93355 0
M  V30 15141 H 1440.17 0.13274 -1.53828 0
M  V30 15142 H 1442.13 2.97625 -2.82718 0
M  V30 15143 H 1440.79 2.63468 -1.71008 0
M  V30 15144 H 1439.98 2.97775 -4.06628 0
M  V30 15145 H 1439.58 1.34225 -3.49084 0
M  V30 15146 H 1441.88 3.54166 -5.77558 0
M  V30 15147 H 1442.82 2.32185 -6.68951 0
M  V30 15148 H 1443.23 2.65707 -4.98056 0
M  V30 15149 N 1442.63 1.56409 0.193394 0
M  V30 15150 C 1443.56 1.91211 1.26377 0
M  V30 15151 C 1444.57 0.802944 1.41622 0
M  V30 15152 O 1445.76 1.08136 1.42017 0
M  V30 15153 C 1442.86 2.13039 2.63567 0
M  V30 15154 C 1442.03 3.44192 2.69909 0
M  V30 15155 C 1441.09 3.55111 3.88307 0
M  V30 15156 O 1440.12 4.2792 3.75331 0
M  V30 15157 N 1441.32 2.88325 5.03834 0
M  V30 15158 H 1444.08 2.83624 0.968383 0
M  V30 15159 H 1441.65 1.57297 0.383302 0
M  V30 15160 H 1443.64 2.1763 3.41202 0
M  V30 15161 H 1442.21 1.27116 2.85588 0
M  V30 15162 H 1441.43 3.51452 1.78535 0
M  V30 15163 H 1442.72 4.30536 2.71139 0
M  V30 15164 H 1442.11 2.29003 5.17276 0
M  V30 15165 H 1440.67 2.98542 5.7941 0
M  V30 15166 N 1444.1 -0.461169 1.50702 0
M  V30 15167 C 1445.04 -1.57562 1.66453 0
M  V30 15168 C 1446.05 -1.53381 0.545726 0
M  V30 15169 O 1447.24 -1.58589 0.819254 0
M  V30 15170 C 1444.34 -2.9646 1.64209 0
M  V30 15171 C 1443.51 -3.25405 2.92285 0
M  V30 15172 C 1442.57 -4.43906 2.82549 0
M  V30 15173 O 1441.6 -4.43726 3.56505 0
M  V30 15174 N 1442.8 -5.46131 1.96777 0
M  V30 15175 H 1445.56 -1.44463 2.62584 0
M  V30 15176 H 1443.12 -0.649749 1.4829 0
M  V30 15177 H 1445.12 -3.73719 1.55295 0
M  V30 15178 H 1443.69 -3.03278 0.757718 0
M  V30 15179 H 1442.91 -2.36666 3.1525 0
M  V30 15180 H 1444.19 -3.41559 3.77114 0
M  V30 15181 H 1443.59 -5.49103 1.36023 0
M  V30 15182 H 1442.15 -6.22335 1.9376 0
M  V30 15183 N 1445.58 -1.40446 -0.715026 0
M  V30 15184 C 1446.51 -1.35159 -1.83868 0
M  V30 15185 C 1447.49 -0.221884 -1.61079 0
M  V30 15186 O 1448.68 -0.405635 -1.84084 0
M  V30 15187 C 1445.8 -1.10358 -3.20217 0
M  V30 15188 C 1444.85 -2.25787 -3.61832 0
M  V30 15189 S 1445.68 -3.88183 -3.68882 0
M  V30 15190 C 1446.84 -3.65647 -5.07989 0
M  V30 15191 H 1447.07 -2.30252 -1.88073 0
M  V30 15192 H 1444.6 -1.26738 -0.881859 0
M  V30 15193 H 1446.56 -0.967343 -3.9894 0
M  V30 15194 H 1445.22 -0.169178 -3.13644 0
M  V30 15195 H 1444.42 -2.04078 -4.60834 0
M  V30 15196 H 1444.02 -2.35717 -2.90368 0
M  V30 15197 H 1446.31 -3.24149 -5.94923 0
M  V30 15198 H 1447.25 -4.64182 -5.34734 0
M  V30 15199 H 1447.66 -2.99322 -4.78609 0
M  V30 15200 N 1447.06 0.947303 -1.25952 0
M  V30 15201 C 1448.01 2.03076 -1.03653 0
M  V30 15202 C 1448.99 1.60874 0.0290512 0
M  V30 15203 O 1450.19 1.76008 -0.187169 0
M  V30 15204 C 1447.31 3.36797 -0.66501 0
M  V30 15205 C 1446.4 3.85502 -1.76773 0
M  V30 15206 N 1446.79 4.06922 -3.00413 0
M  V30 15207 C 1445.09 4.14359 -1.64993 0
M  V30 15208 C 1445.79 4.4717 -3.7204 0
M  V30 15209 N 1444.77 4.53523 -2.99697 0
M  V30 15210 H 1448.57 2.17641 -1.97509 0
M  V30 15211 H 1446.08 1.13268 -1.16379 0
M  V30 15212 H 1448.08 4.14053 -0.486427 0
M  V30 15213 H 1446.74 3.23607 0.266138 0
M  V30 15214 H 1447.75 3.93786 -3.36383 0
M  V30 15215 H 1444.43 4.09991 -0.788254 0
M  V30 15216 H 1445.82 4.71985 -4.78205 0
M  V30 15217 N 1448.54 1.07657 1.15099 0
M  V30 15218 C 1449.79 0.800025 1.85591 0
M  V30 15219 C 1450.11 -0.675973 1.82909 0
M  V30 15220 O 1449.38 -1.48971 1.27218 0
M  V30 15221 H 1447.96 0.292958 0.687157 0
M  V30 15222 H 1450.62 1.36096 1.39513 0
M  V30 15223 H 1449.72 1.13733 2.90639 0
M  V30 15224 N 1450.02 -1.31994 0.861122 0
M  V30 15225 C 1451.43 -1.49756 0.551844 0
M  V30 15226 C 1451.63 -1.79473 -0.916056 0
M  V30 15227 O 1450.69 -1.86813 -1.69874 0
M  V30 15228 C 1452 -2.63737 1.44442 0
M  V30 15229 C 1453.55 -2.77621 1.44552 0
M  V30 15230 C 1454.02 -3.94689 2.32346 0
M  V30 15231 N 1455.52 -4.01961 2.30177 0
M  V30 15232 C 1456.25 -4.91794 2.94833 0
M  V30 15233 N 1455.75 -5.86589 3.68626 0
M  V30 15234 N 1457.54 -4.84968 2.84188 0
M  V30 15235 H 1449.69 -1.10972 1.81105 0
M  V30 15236 H 1451.95 -0.54753 0.773896 0
M  V30 15237 H 1451.66 -2.48526 2.48853 0
M  V30 15238 H 1451.53 -3.59671 1.13651 0
M  V30 15239 H 1453.92 -2.92251 0.409034 0
M  V30 15240 H 1454 -1.8238 1.79363 0
M  V30 15241 H 1453.65 -3.80817 3.36067 0
M  V30 15242 H 1453.58 -4.89219 1.94865 0
M  V30 15243 H 1456.07 -3.34132 1.76533 0
M  V30 15244 H 1456.38 -6.51846 4.15111 0
M  V30 15245 H 1454.72 -5.86596 3.72734 0
M  V30 15246 H 1457.92 -4.09883 2.26084 0
M  V30 15247 H 1458.09 -5.54774 3.34857 0
M  V30 15248 N 1451.49 -0.619688 -1.44906 0
M  V30 15249 C 1452.43 0.141137 -2.27763 0
M  V30 15250 C 1453.41 0.862176 -1.3786 0
M  V30 15251 O 1454.59 0.868593 -1.67295 0
M  V30 15252 C 1451.72 1.20547 -3.16522 0
M  V30 15253 C 1450.76 0.586228 -4.22452 0
M  V30 15254 S 1451.6 -0.615067 -5.31956 0
M  V30 15255 C 1452.75 0.449556 -6.24283 0
M  V30 15256 H 1452.98 -0.561806 -2.91944 0
M  V30 15257 H 1450.52 -0.407535 -1.48925 0
M  V30 15258 H 1452.48 1.81463 -3.68214 0
M  V30 15259 H 1451.14 1.88054 -2.51584 0
M  V30 15260 H 1450.33 1.38744 -4.84527 0
M  V30 15261 H 1449.93 0.0519375 -3.73964 0
M  V30 15262 H 1452.22 1.32531 -6.64411 0
M  V30 15263 H 1453.17 -0.135328 -7.07971 0
M  V30 15264 H 1453.57 0.770319 -5.59219 0
M  V30 15265 N 1452.97 1.53444 -0.359552 0
M  V30 15266 C 1454.22 2.01464 0.232366 0
M  V30 15267 C 1454.55 1.24656 1.48911 0
M  V30 15268 O 1453.83 0.338574 1.9153 0
M  V30 15269 C 1454.11 3.56172 0.530403 0
M  V30 15270 C 1453.96 4.43678 -0.739556 0
M  V30 15271 C 1455.28 4.19412 1.33347 0
M  V30 15272 H 1452.4 0.732314 0.0829802 0
M  V30 15273 H 1455.04 1.83752 -0.483253 0
M  V30 15274 H 1453.19 3.71396 1.14004 0
M  V30 15275 H 1454.86 4.40263 -1.37719 0
M  V30 15276 H 1453.11 4.11892 -1.36117 0
M  V30 15277 H 1453.78 5.49856 -0.486062 0
M  V30 15278 H 1456.25 4.07984 0.817816 0
M  V30 15279 H 1455.13 5.277 1.51075 0
M  V30 15280 H 1455.39 3.7508 2.34024 0
M  V30 15281 N 1454.45 0.0885642 1.57351 0
M  V30 15282 C 1455.86 -0.441569 1.81403 0
M  V30 15283 C 1456.21 -1.68582 1.00372 0
M  V30 15284 O 1455.34 -2.15162 0.231153 0
M  V30 15285 C 1455.93 -0.807886 3.29027 0
M  V30 15286 C 1454.49 -1.2828 3.53866 0
M  V30 15287 C 1453.64 -0.276217 2.75921 0
M  V30 15288 H 1456.59 0.314083 1.55561 0
M  V30 15289 H 1456.61 -1.66797 3.41993 0
M  V30 15290 H 1456.12 0.0978886 3.87977 0
M  V30 15291 H 1454.22 -2.2065 3.0024 0
M  V30 15292 H 1454.34 -1.24914 4.62529 0
M  V30 15293 H 1452.7 -0.757007 2.4319 0
M  V30 15294 H 1453.48 0.622123 3.37616 0
M  V30 15295 N 1455.93 -1.56509 -0.185096 0
M  V30 15296 C 1457.17 -1.81474 -0.905263 0
M  V30 15297 C 1457.51 -0.664225 -1.82488 0
M  V30 15298 O 1456.78 0.33466 -1.91599 0
M  V30 15299 C 1457.07 -3.16754 -1.71287 0
M  V30 15300 C 1456.92 -4.42312 -0.817302 0
M  V30 15301 C 1458.24 -3.48828 -2.68342 0
M  V30 15302 H 1455.36 -0.660155 -0.327664 0
M  V30 15303 H 1458 -1.89219 -0.172129 0
M  V30 15304 H 1456.15 -3.10282 -2.33789 0
M  V30 15305 H 1457.82 -4.60839 -0.206218 0
M  V30 15306 H 1456.06 -4.33621 -0.124564 0
M  V30 15307 H 1456.73 -5.33487 -1.41758 0
M  V30 15308 H 1459.21 -3.55663 -2.15969 0
M  V30 15309 H 1458.09 -4.44585 -3.21924 0
M  V30 15310 H 1458.35 -2.72829 -3.47875 0
M  V30 15311 O 1457.45 0.330219 -1.58088 0
M  V30 15312 H 1458.14 0.979088 -1.67133 0
M  V30 END ATOM
M  V30 BEGIN BOND
M  V30 END BOND
M  V30 END CTAB
M  END
$$$$
