drugbank_target|P06715 Glutathione reductase (DB00336; DB03147)
 OpenBabel12092119283D

  0  0  0     0  0            999 V3000
M  V30 BEGIN CTAB
M  V30 COUNTS 6824 6894 0 0 0
M  V30 BEGIN ATOM
M  V30 1 H -0.908 1.98254 -0.117106 0
M  V30 2 N 0 1.576 0 0
M  V30 3 C 0.933 2.03868 1.02534 0
M  V30 4 C 1.911 0.928543 1.3348 0
M  V30 5 O 3.095 1.19667 1.45644 0
M  V30 6 C 0.222 2.43627 2.35294 0
M  V30 7 C -0.732 3.65373 2.2001 0
M  V30 8 S 0.101 5.13292 1.52614 0
M  V30 9 C 1.257 5.56322 2.86805 0
M  V30 10 H 1.49 2.90518 0.631377 0
M  V30 11 H -0.977 1.52953 0.210867 0
M  V30 12 H 0.981 2.67203 3.11629 0
M  V30 13 H -0.358 1.57376 2.7183 0
M  V30 14 H -1.165 3.90944 3.18086 0
M  V30 15 H -1.563 3.418 1.51819 0
M  V30 16 H 0.729 5.58782 3.83104 0
M  V30 17 H 1.672 6.56266 2.65933 0
M  V30 18 H 2.08 4.83886 2.90714 0
M  V30 19 N 1.4781 -0.272755 1.55222 0
M  V30 20 C 2.7061 -1.02255 1.79865 0
M  V30 21 C 3.1211 -1.79924 0.572088 0
M  V30 22 O 2.4781 -1.76638 -0.458842 0
M  V30 23 C 2.5291 -1.98094 3.02392 0
M  V30 24 O 2.2501 -1.23572 4.20311 0
M  V30 25 C 3.7511 -2.84884 3.39641 0
M  V30 26 H 0.9711 -0.302057 0.599168 0
M  V30 27 H 3.5151 -0.303465 2.02236 0
M  V30 28 H 1.6701 -2.65465 2.82147 0
M  V30 29 H 2.0841 -1.88172 4.89583 0
M  V30 30 H 3.5581 -3.47927 4.28545 0
M  V30 31 H 4.0351 -3.54665 2.59055 0
M  V30 32 H 4.6411 -2.23003 3.62146 0
M  V30 33 N 2.9562 -1.48159 -0.537278 0
M  V30 34 C 3.9032 -1.62138 -1.64256 0
M  V30 35 C 4.8732 -0.463668 -1.59497 0
M  V30 36 O 6.0582 -0.686241 -1.78032 0
M  V30 37 C 3.1982 -1.66028 -3.02537 0
M  V30 38 C 2.3112 -2.92855 -3.17585 0
M  V30 39 C 1.4462 -2.87952 -4.46382 0
M  V30 40 C 0.4852 -4.09516 -4.54932 0
M  V30 41 N -0.3778 -4.02733 -5.75109 0
M  V30 42 H 4.4622 -2.56529 -1.51647 0
M  V30 43 H 1.9992 -1.27224 -0.738414 0
M  V30 44 H 3.9572 -1.66265 -3.82638 0
M  V30 45 H 2.5872 -0.751331 -3.13934 0
M  V30 46 H 1.6392 -3.02395 -2.30784 0
M  V30 47 H 2.9512 -3.82822 -3.19764 0
M  V30 48 H 2.1052 -2.8655 -5.34765 0
M  V30 49 H 0.8442 -1.95702 -4.46712 0
M  V30 50 H -0.1508 -4.11201 -3.64957 0
M  V30 51 H 1.0742 -5.02917 -4.56346 0
M  V30 52 H -0.9798 -3.13299 -5.76351 0
M  V30 53 H -1.0628 -4.86397 -5.78752 0
M  V30 54 H 0.2052 -4.05379 -6.65799 0
M  V30 55 N 4.4343 0.785586 -1.36625 0
M  V30 56 C 5.3843 1.88822 -1.27789 0
M  V30 57 C 6.3683 1.60014 -0.168579 0
M  V30 58 O 7.5603 1.72381 -0.401737 0
M  V30 59 C 4.6893 3.26092 -1.07327 0
M  V30 60 C 3.7753 3.60897 -2.22743 0
M  V30 61 N 4.1663 3.66982 -3.48077 0
M  V30 62 C 2.4643 3.90981 -2.14593 0
M  V30 63 C 3.1653 3.98137 -4.24101 0
M  V30 64 N 2.1413 4.13319 -3.53084 0
M  V30 65 H 5.9433 1.91759 -2.22723 0
M  V30 66 H 3.4573 0.981311 -1.29399 0
M  V30 67 H 5.4543 4.04954 -0.990842 0
M  V30 68 H 4.1143 3.24428 -0.132977 0
M  V30 69 H 5.1253 3.49531 -3.82163 0
M  V30 70 H 1.8023 3.9722 -1.2854 0
M  V30 71 H 3.1923 4.09737 -5.32509 0
M  V30 72 N 5.9124 1.20967 1.01018 0
M  V30 73 C 7.1424 1.04803 1.78044 0
M  V30 74 C 7.5504 -0.405462 1.84804 0
M  V30 75 O 6.8934 -1.2932 1.30468 0
M  V30 76 C 6.9554 1.56377 3.23707 0
M  V30 77 C 6.6194 3.04767 3.40538 0
M  V30 78 C 7.6164 4.02366 3.29239 0
M  V30 79 C 5.3014 3.43862 3.66147 0
M  V30 80 C 7.2954 5.37049 3.43304 0
M  V30 81 C 4.9824 4.78699 3.79855 0
M  V30 82 C 5.9804 5.75101 3.68439 0
M  V30 83 O 5.6684 7.07493 3.81719 0
M  V30 84 H 5.4004 0.368778 0.56655 0
M  V30 85 H 7.9544 1.60642 1.27997 0
M  V30 86 H 6.1844 0.949297 3.74867 0
M  V30 87 H 7.8734 1.36136 3.8239 0
M  V30 88 H 8.6394 3.73506 3.09384 0
M  V30 89 H 4.5184 2.69364 3.74118 0
M  V30 90 H 8.0624 6.12277 3.34309 0
M  V30 91 H 3.9594 5.07247 3.99213 0
M  V30 92 H 4.7274 7.1483 3.98697 0
M  V30 93 N 7.3905 -1.2043 1.01659 0
M  V30 94 C 8.6675 -1.8548 0.621004 0
M  V30 95 C 9.0475 -1.9091 -0.900919 0
M  V30 96 O 8.3955 -1.41694 -1.79263 0
M  V30 97 C 8.6055 -3.25119 1.2688 0
M  V30 98 C 9.9535 -4.01403 1.38423 0
M  V30 99 O 10.9775 -3.34473 1.22501 0
M  V30 100 O 9.8365 -5.21265 1.64151 0
M  V30 101 H 6.9305 -0.798761 0.214266 0
M  V30 102 H 9.4765 -1.28019 1.11396 0
M  V30 103 H 8.2485 -3.15932 2.30873 0
M  V30 104 H 7.8715 -3.90212 0.762917 0
M  V30 105 N 8.8686 -0.792821 -1.36206 0
M  V30 106 C 10.0986 -0.378275 -2.03107 0
M  V30 107 C 10.5066 1.01119 -1.59911 0
M  V30 108 O 9.8496 1.66052 -0.785658 0
M  V30 109 C 9.9116 -0.366535 -3.57627 0
M  V30 110 C 9.5756 -1.70416 -4.24037 0
M  V30 111 C 10.5726 -2.6602 -4.46687 0
M  V30 112 C 8.2576 -1.98439 -4.6144 0
M  V30 113 C 10.2516 -3.8784 -5.05825 0
M  V30 114 C 7.9386 -3.20525 -5.20295 0
M  V30 115 C 8.9366 -4.15044 -5.42427 0
M  V30 116 O 8.6246 -5.34978 -6.00045 0
M  V30 117 H 8.3566 -0.153543 -0.658332 0
M  V30 118 H 10.9106 -1.07383 -1.75094 0
M  V30 119 H 9.1406 0.385539 -3.84773 0
M  V30 120 H 10.8296 0.0238088 -4.05893 0
M  V30 121 H 11.5956 -2.45658 -4.18183 0
M  V30 122 H 7.4746 -1.25686 -4.43536 0
M  V30 123 H 11.0186 -4.61628 -5.23015 0
M  V30 124 H 6.9156 -3.40764 -5.48225 0
M  V30 125 H 7.6836 -5.36088 -6.18508 0
M  V30 126 N 10.3467 1.47872 -0.545128 0
M  V30 127 C 11.5957 2.01695 -0.0145033 0
M  V30 128 C 11.9087 1.42609 1.33873 0
M  V30 129 O 13.1147 1.88021 1.95858 0
M  V30 130 C 11.5707 3.59892 0.0245068 0
M  V30 131 C 11.1787 4.27966 -1.32475 0
M  V30 132 C 12.9227 4.21507 0.50316 0
M  V30 133 C 10.8297 5.78136 -1.2455 0
M  V30 134 H 9.7597 0.753998 -0.00165172 0
M  V30 135 H 12.4107 1.69985 -0.691175 0
M  V30 136 H 10.7927 3.88509 0.766575 0
M  V30 137 H 11.9667 4.11003 -2.08357 0
M  V30 138 H 10.2817 3.78286 -1.74036 0
M  V30 139 H 12.8787 5.31538 0.580656 0
M  V30 140 H 13.2217 3.87855 1.51243 0
M  V30 141 H 13.7547 3.97376 -0.183681 0
M  V30 142 H 10.4937 6.16388 -2.23039 0
M  V30 143 H 10.0137 5.97469 -0.528282 0
M  V30 144 H 11.6927 6.40099 -0.942488 0
M  V30 145 N 11.8248 0.280983 1.55075 0
M  V30 146 C 12.7878 -0.590896 2.21452 0
M  V30 147 C 13.7878 -1.07682 1.19421 0
M  V30 148 O 14.9778 -0.97605 1.44288 0
M  V30 149 C 12.1098 -1.81587 2.88511 0
M  V30 150 H 13.3028 -0.0112554 2.99898 0
M  V30 151 H 10.8558 0.0316438 1.56268 0
M  V30 152 H 11.5908 -2.43587 2.14093 0
M  V30 153 H 11.3758 -1.4753 3.63287 0
M  V30 154 H 12.8658 -2.43575 3.39206 0
M  V30 155 N 13.3029 -1.57598 0.00835791 0
M  V30 156 C 14.5519 -1.90107 -0.673968 0
M  V30 157 C 14.8649 -0.884275 -1.7447 0
M  V30 158 O 16.0709 -1.09987 -2.48224 0
M  V30 159 C 14.5269 -3.37497 -1.24995 0
M  V30 160 C 14.1349 -4.47491 -0.2136 0
M  V30 161 C 15.8789 -3.79104 -1.90999 0
M  V30 162 C 13.7859 -5.85963 -0.80005 0
M  V30 163 H 12.7159 -0.709393 -0.255495 0
M  V30 164 H 15.3669 -1.83365 0.0702693 0
M  V30 165 H 13.7489 -3.39102 -2.04513 0
M  V30 166 H 14.9229 -4.57414 0.557596 0
M  V30 167 H 13.2379 -4.14956 0.346474 0
M  V30 168 H 15.8349 -4.79901 -2.35795 0
M  V30 169 H 16.1779 -3.1306 -2.74407 0
M  V30 170 H 16.7109 -3.79833 -1.18203 0
M  V30 171 H 13.4499 -6.555 -0.00456708 0
M  V30 172 H 12.9699 -5.79687 -1.54021 0
M  V30 173 H 14.6489 -6.33884 -1.29615 0
M  V30 174 N 14.781 0.264519 -1.55364 0
M  V30 175 C 16.029 0.993021 -1.76021 0
M  V30 176 C 16.35 1.86511 -0.569099 0
M  V30 177 O 15.62 1.91438 0.415735 0
M  V30 178 H 14.2 0.369639 -0.649135 0
M  V30 179 H 16.862 0.286707 -1.9278 0
M  V30 180 H 15.958 1.62502 -2.66457 0
M  V30 181 N 16.2591 1.48442 0.529413 0
M  V30 182 C 17.5071 1.56179 1.28267 0
M  V30 183 C 17.8281 0.237721 1.93546 0
M  V30 184 O 17.0981 -0.740779 1.81354 0
M  V30 185 H 15.6781 0.575367 0.476405 0
M  V30 186 H 18.3401 1.84909 0.61602 0
M  V30 187 H 17.4361 2.34312 2.06165 0
M  V30 188 N 17.7372 -0.778329 1.37039 0
M  V30 189 C 18.9852 -1.53361 1.31623 0
M  V30 190 C 19.3062 -1.94739 -0.100831 0
M  V30 191 O 18.5762 -1.65797 -1.04347 0
M  V30 192 H 17.1562 -0.568794 0.484234 0
M  V30 193 H 19.8182 -0.926742 1.71457 0
M  V30 194 H 18.9142 -2.43606 1.95096 0
M  V30 195 N 19.2153 -1.21501 -1.00376 0
M  V30 196 C 20.4403 -1.05977 -1.78279 0
M  V30 197 C 20.8653 0.385994 -1.84097 0
M  V30 198 O 20.2233 1.27849 -1.28547 0
M  V30 199 C 20.2713 -1.66302 -3.19963 0
M  V30 200 O 19.3753 -0.909333 -4.0225 0
M  V30 201 H 18.7163 -0.372906 -0.549397 0
M  V30 202 H 21.2463 -1.6107 -1.26165 0
M  V30 203 H 21.2563 -1.70574 -3.70632 0
M  V30 204 H 19.9313 -2.71515 -3.15043 0
M  V30 205 H 18.5083 -0.941795 -3.60811 0
M  V30 206 N 20.6934 1.19889 -1.02296 0
M  V30 207 C 21.9414 1.89046 -0.714558 0
M  V30 208 C 22.2624 1.79636 0.758681 0
M  V30 209 O 21.5324 1.20292 1.54618 0
M  V30 210 H 20.1124 0.699802 -0.261317 0
M  V30 211 H 22.7744 1.45574 -1.29592 0
M  V30 212 H 21.8704 2.95524 -1.0036 0
M  V30 213 N 22.1715 0.800033 1.35784 0
M  V30 214 C 23.4195 0.376597 1.9856 0
M  V30 215 C 23.7405 -1.05812 1.63795 0
M  V30 216 O 23.0105 -1.73103 0.917171 0
M  V30 217 H 21.5905 0.136261 0.734467 0
M  V30 218 H 24.2525 1.02442 1.65806 0
M  V30 219 H 23.3485 0.477002 3.08433 0
M  V30 220 N 23.6496 -1.47581 0.552962 0
M  V30 221 C 24.8986 -2.01684 0.0251995 0
M  V30 222 C 25.2116 -1.43317 -1.33115 0
M  V30 223 O 26.4176 -1.89057 -1.94858 0
M  V30 224 C 24.8736 -3.599 -0.00542052 0
M  V30 225 C 24.4816 -4.27257 1.34742 0
M  V30 226 C 26.2256 -4.21768 -0.4808 0
M  V30 227 C 24.1326 -5.77467 1.27614 0
M  V30 228 H 23.0626 -0.753979 0.00565033 0
M  V30 229 H 25.7136 -1.69616 0.70018 0
M  V30 230 H 24.0956 -3.88911 -0.745961 0
M  V30 231 H 25.2696 -4.09893 2.10534 0
M  V30 232 H 23.5846 -3.77358 1.76039 0
M  V30 233 H 26.1816 -5.31838 -0.55246 0
M  V30 234 H 26.5246 -3.88651 -1.49184 0
M  V30 235 H 27.0576 -3.97273 0.204752 0
M  V30 236 H 23.7966 -6.15196 2.26304 0
M  V30 237 H 23.3166 -5.9718 0.55996 0
M  V30 238 H 24.9956 -6.3959 0.976421 0
M  V30 239 N 25.1277 -0.289203 -1.54924 0
M  V30 240 C 26.0907 0.579144 -2.21762 0
M  V30 241 C 27.0907 1.07047 -1.1999 0
M  V30 242 O 28.2807 0.968384 -1.44803 0
M  V30 243 C 25.4127 1.80055 -2.8947 0
M  V30 244 H 26.6057 -0.00464908 -2.999 0
M  V30 245 H 24.1587 -0.0399306 -1.56249 0
M  V30 246 H 24.8937 2.42449 -2.15381 0
M  V30 247 H 24.6787 1.45602 -3.64064 0
M  V30 248 H 26.1687 2.41773 -3.40493 0
M  V30 249 N 26.6058 1.57591 -0.0167156 0
M  V30 250 C 27.8308 1.9598 0.67872 0
M  V30 251 C 28.2558 0.892546 1.65575 0
M  V30 252 O 27.6138 -0.147772 1.80697 0
M  V30 253 C 27.6618 3.33468 1.37227 0
M  V30 254 O 26.7658 3.28954 2.48722 0
M  V30 255 H 26.1068 0.639339 0.17928 0
M  V30 256 H 28.6368 2.04463 -0.0748802 0
M  V30 257 H 28.6468 3.69417 1.7319 0
M  V30 258 H 27.3218 4.10694 0.656007 0
M  V30 259 H 25.8988 3.04705 2.14963 0
M  V30 260 N 28.0839 -0.256276 1.55502 0
M  V30 261 C 29.3329 -0.983486 1.76098 0
M  V30 262 C 29.6459 -1.86837 0.578896 0
M  V30 263 O 30.8519 -2.63163 0.667648 0
M  V30 264 C 29.3079 -1.79868 3.1173 0
M  V30 265 C 28.9159 -0.961648 4.37557 0
M  V30 266 C 30.6599 -2.51919 3.41668 0
M  V30 267 C 28.5669 -1.77219 5.64223 0
M  V30 268 H 27.4969 -0.370936 0.656447 0
M  V30 269 H 30.1479 -0.238492 1.81944 0
M  V30 270 H 28.5299 -2.58527 2.99966 0
M  V30 271 H 29.7039 -0.218048 4.60284 0
M  V30 272 H 28.0189 -0.354913 4.14885 0
M  V30 273 H 30.6159 -3.12998 4.33516 0
M  V30 274 H 30.9589 -3.23059 2.62562 0
M  V30 275 H 31.4919 -1.80278 3.54605 0
M  V30 276 H 28.2309 -1.10471 6.46124 0
M  V30 277 H 27.7509 -2.49132 5.45613 0
M  V30 278 H 29.4299 -2.34169 6.03137 0
M  V30 279 N 29.562 -1.4872 -0.521534 0
M  V30 280 C 30.51 -1.64328 -1.64618 0
M  V30 281 C 31.504 -0.50953 -1.61555 0
M  V30 282 O 32.71 -0.688525 -1.66311 0
M  V30 283 H 29.085 -0.517805 -0.545328 0
M  V30 284 H 31.056 -2.58767 -1.48601 0
M  V30 285 C 29.805 -1.70805 -3.02855 0
M  V30 286 H 29.128 -2.5741 -3.05909 0
M  V30 287 H 30.568 -1.85766 -3.81139 0
M  V30 288 C 29.027 -0.448479 -3.33902 0
M  V30 289 O 29.557 0.434928 -3.99339 0
M  V30 290 N 27.763 -0.317616 -2.88859 0
M  V30 291 H 27.31 -1.03748 -2.35784 0
M  V30 292 H 27.268 0.524113 -3.10001 0
M  V30 293 N 31.0401 0.771051 -1.3745 0
M  V30 294 C 32.4561 1.07171 -1.18265 0
M  V30 295 C 32.6561 2.01491 -0.019287 0
M  V30 296 O 31.7121 2.44244 0.640408 0
M  V30 297 C 33.0251 1.66854 -2.50161 0
M  V30 298 C 34.5731 1.79109 -2.56689 0
M  V30 299 C 35.0481 2.42205 -3.88717 0
M  V30 300 N 36.5391 2.49655 -3.90162 0
M  V30 301 C 37.2741 2.9933 -4.8907 0
M  V30 302 N 36.7701 3.49172 -5.98374 0
M  V30 303 N 38.5631 2.9821 -4.76474 0
M  V30 304 H 30.7141 0.144796 -2.11906 0
M  V30 305 H 32.9771 0.126863 -0.939473 0
M  V30 306 H 32.6831 1.05017 -3.35655 0
M  V30 307 H 32.5571 2.6614 -2.673 0
M  V30 308 H 34.9441 2.40077 -1.71601 0
M  V30 309 H 35.0251 0.785757 -2.43433 0
M  V30 310 H 34.6691 1.81875 -4.74219 0
M  V30 311 H 34.5991 3.43345 -3.99276 0
M  V30 312 H 37.0901 2.14383 -3.11205 0
M  V30 313 H 37.4031 3.8548 -6.69795 0
M  V30 314 H 35.7481 3.47275 -6.02018 0
M  V30 315 H 38.9391 2.58572 -3.90203 0
M  V30 316 H 39.1121 3.36613 -5.53711 0
M  V30 317 N 32.5182 1.22032 0.997298 0
M  V30 318 C 33.4812 0.987909 2.06816 0
M  V30 319 C 34.4812 -0.0440084 1.6074 0
M  V30 320 O 35.6712 0.194053 1.73116 0
M  V30 321 C 32.8032 0.49132 3.37341 0
M  V30 322 H 33.9962 1.93803 2.28868 0
M  V30 323 H 31.5492 1.03838 1.16822 0
M  V30 324 H 32.2842 -0.463364 3.20973 0
M  V30 325 H 32.0692 1.23575 3.72118 0
M  V30 326 H 33.5592 0.348824 4.16141 0
M  V30 327 N 33.9963 -1.19345 1.0293 0
M  V30 328 C 34.9593 -2.20793 0.615069 0
M  V30 329 C 35.9593 -1.57553 -0.321533 0
M  V30 330 O 37.1493 -1.73862 -0.108483 0
M  V30 331 C 34.2813 -3.40754 -0.0999222 0
M  V30 332 H 35.4743 -2.58955 1.51269 0
M  V30 333 H 33.0273 -1.3303 0.820534 0
M  V30 334 H 33.7623 -3.0811 -1.01187 0
M  V30 335 H 33.5473 -3.87889 0.57309 0
M  V30 336 H 35.0373 -4.15898 -0.376645 0
M  V30 337 N 35.4744 -0.807222 -1.35358 0
M  V30 338 C 36.4074 -0.163572 -2.27613 0
M  V30 339 C 37.3854 0.670817 -1.48118 0
M  V30 340 O 38.5694 0.63796 -1.77376 0
M  V30 341 C 35.6964 0.773015 -3.29761 0
M  V30 342 C 34.7424 0.0181653 -4.26496 0
M  V30 343 S 35.5754 -1.31831 -5.19019 0
M  V30 344 C 36.7314 -0.38619 -6.24707 0
M  V30 345 H 36.9644 -0.945757 -2.81856 0
M  V30 346 H 34.4974 -0.602315 -1.42167 0
M  V30 347 H 36.4554 1.30788 -3.89108 0
M  V30 348 H 35.1164 1.52859 -2.74396 0
M  V30 349 H 34.3094 0.729534 -4.98692 0
M  V30 350 H 33.9114 -0.446761 -3.71322 0
M  V30 351 H 36.2034 0.428295 -6.76145 0
M  V30 352 H 37.1464 -1.07736 -6.99856 0
M  V30 353 H 37.5544 0.018398 -5.64497 0
M  V30 354 N 36.9525 1.47285 -0.560781 0
M  V30 355 C 38.1825 2.06555 -0.0429638 0
M  V30 356 C 38.5905 1.41339 1.25777 0
M  V30 357 O 37.9335 0.505182 1.76617 0
M  V30 358 C 37.9955 3.58827 0.219887 0
M  V30 359 C 37.6595 4.46105 -0.991944 0
M  V30 360 C 38.6565 4.84 -1.89843 0
M  V30 361 C 36.3415 4.87567 -1.20762 0
M  V30 362 C 38.3355 5.6216 -3.00425 0
M  V30 363 C 36.0225 5.65491 -2.31653 0
M  V30 364 C 37.0205 6.02699 -3.21315 0
M  V30 365 O 36.7085 6.79052 -4.30283 0
M  V30 366 H 36.4405 0.674537 -0.0444468 0
M  V30 367 H 38.9945 1.90225 -0.774818 0
M  V30 368 H 37.2245 3.73383 1.00609 0
M  V30 369 H 38.9135 4.00103 0.683522 0
M  V30 370 H 39.6795 4.52564 -1.74387 0
M  V30 371 H 35.5585 4.5807 -0.518893 0
M  V30 372 H 39.1025 5.9112 -3.70436 0
M  V30 373 H 34.9995 5.9634 -2.47081 0
M  V30 374 H 35.7675 6.9745 -4.28376 0
M  V30 375 N 38.4306 0.297415 1.54768 0
M  V30 376 C 39.6786 -0.312295 1.99673 0
M  V30 377 C 39.9996 -1.54686 1.18732 0
M  V30 378 O 39.2696 -1.93854 0.282382 0
M  V30 379 H 37.8496 -0.118381 0.73756 0
M  V30 380 H 40.5116 0.407915 1.90583 0
M  V30 381 H 39.6076 -0.586813 3.06534 0
M  V30 382 N 39.9087 -1.5758 0.0250728 0
M  V30 383 C 40.8407 -2.06869 -0.986796 0
M  V30 384 C 41.8537 -0.991332 -1.29137 0
M  V30 385 O 43.0427 -1.26761 -1.25674 0
M  V30 386 C 40.1427 -2.47486 -2.31525 0
M  V30 387 C 39.3157 -3.78253 -2.19643 0
M  V30 388 C 38.3747 -4.05464 -3.35388 0
M  V30 389 O 37.4007 -4.75774 -3.12454 0
M  V30 390 N 38.6027 -3.55321 -4.59051 0
M  V30 391 H 41.3677 -2.94302 -0.566276 0
M  V30 392 H 38.9287 -1.6109 -0.161776 0
M  V30 393 H 40.9207 -2.62785 -3.07776 0
M  V30 394 H 39.4907 -1.65441 -2.65232 0
M  V30 395 H 38.7107 -3.7279 -1.28144 0
M  V30 396 H 39.9987 -4.63936 -2.08903 0
M  V30 397 H 39.3967 -2.98431 -4.80578 0
M  V30 398 H 37.9537 -3.75905 -5.32483 0
M  V30 399 N 41.3868 0.248026 -1.55636 0
M  V30 400 C 42.3338 1.30707 -1.90222 0
M  V30 401 C 43.3038 1.47881 -0.756332 0
M  V30 402 O 44.4888 1.61883 -1.00988 0
M  V30 403 C 41.6288 2.65769 -2.20138 0
M  V30 404 C 40.7418 2.56612 -3.47526 0
M  V30 405 C 39.8768 3.8402 -3.67017 0
M  V30 406 C 38.9158 3.69476 -4.8801 0
M  V30 407 N 38.0528 4.88774 -5.04029 0
M  V30 408 H 42.8928 1.00512 -2.80538 0
M  V30 409 H 40.4298 0.485055 -1.38873 0
M  V30 410 H 42.3878 3.44386 -2.35487 0
M  V30 411 H 41.0178 2.94115 -1.33027 0
M  V30 412 H 40.0698 1.69571 -3.40514 0
M  V30 413 H 41.3818 2.41774 -4.36287 0
M  V30 414 H 40.5358 4.7108 -3.8232 0
M  V30 415 H 39.2748 4.01754 -2.76487 0
M  V30 416 H 38.2798 2.80799 -4.72686 0
M  V30 417 H 39.5048 3.53238 -5.8 0
M  V30 418 H 37.4508 5.0687 -4.16435 0
M  V30 419 H 37.3678 4.76562 -5.86877 0
M  V30 420 H 38.6358 5.77335 -5.23741 0
M  V30 421 N 42.8649 1.48995 0.513639 0
M  V30 422 C 44.1049 1.59452 1.27885 0
M  V30 423 C 44.4689 0.269479 1.90099 0
M  V30 424 O 45.6699 0.249139 2.67643 0
M  V30 425 C 43.9409 2.71277 2.32688 0
M  V30 426 S 45.4999 3.01604 3.18717 0
M  V30 427 H 42.3179 0.562565 0.434789 0
M  V30 428 H 44.9199 1.86595 0.583301 0
M  V30 429 H 43.6239 3.66089 1.8549 0
M  V30 430 H 43.1549 2.46086 3.06929 0
M  V30 431 H 45.1699 2.42155 4.331 0
M  V30 432 N 44.343 -0.763751 1.37857 0
M  V30 433 C 45.306 -1.85889 1.34081 0
M  V30 434 C 46.306 -1.58949 0.243277 0
M  V30 435 O 47.496 -1.66882 0.499589 0
M  V30 436 C 44.628 -3.23176 1.08489 0
M  V30 437 H 45.821 -1.90648 2.31502 0
M  V30 438 H 43.374 -0.964367 1.23003 0
M  V30 439 H 44.109 -3.24091 0.116318 0
M  V30 440 H 43.894 -3.44124 1.8794 0
M  V30 441 H 45.384 -4.03254 1.08517 0
M  V30 442 N 45.8211 -1.22559 -0.990812 0
M  V30 443 C 46.7511 -1.0218 -2.09956 0
M  V30 444 C 47.7321 0.0579394 -1.70001 0
M  V30 445 O 48.9171 -0.104684 -1.93918 0
M  V30 446 C 46.0471 -0.601023 -3.4206 0
M  V30 447 C 45.0011 -1.62694 -3.95872 0
M  V30 448 C 44.3271 -1.06193 -5.24049 0
M  V30 449 C 45.6271 -3.01743 -4.2632 0
M  V30 450 H 47.3211 -1.94916 -2.27262 0
M  V30 451 H 44.8671 -0.938566 -1.09211 0
M  V30 452 H 46.8201 -0.445561 -4.19038 0
M  V30 453 H 45.5441 0.362005 -3.24588 0
M  V30 454 H 44.2031 -1.77021 -3.21028 0
M  V30 455 H 43.8511 -0.0901903 -5.02919 0
M  V30 456 H 43.5511 -1.74732 -5.61019 0
M  V30 457 H 45.0751 -0.918092 -6.03658 0
M  V30 458 H 46.4891 -2.90777 -4.94087 0
M  V30 459 H 44.8861 -3.67425 -4.74467 0
M  V30 460 H 45.9561 -3.51518 -3.34011 0
M  V30 461 N 47.2992 1.18797 -1.03562 0
M  V30 462 C 48.5482 1.87978 -0.731235 0
M  V30 463 C 48.8612 1.80911 0.743671 0
M  V30 464 O 50.0672 2.45407 1.16137 0
M  V30 465 C 48.5232 3.3721 -1.25768 0
M  V30 466 C 48.1312 3.52818 -2.76085 0
M  V30 467 C 49.8752 4.11825 -1.0296 0
M  V30 468 C 47.7822 4.9598 -3.22114 0
M  V30 469 H 46.7122 0.704063 -0.269835 0
M  V30 470 H 49.3632 1.34266 -1.25079 0
M  V30 471 H 47.7452 3.90359 -0.666011 0
M  V30 472 H 48.9192 3.09965 -3.40966 0
M  V30 473 H 47.2342 2.91602 -2.97249 0
M  V30 474 H 49.8312 5.17411 -1.34869 0
M  V30 475 H 50.1742 4.16287 0.0333546 0
M  V30 476 H 50.7072 3.64833 -1.58562 0
M  V30 477 H 47.4462 4.96684 -4.27768 0
M  V30 478 H 46.9662 5.39569 -2.61965 0
M  V30 479 H 48.6452 5.6467 -3.15844 0
M  V30 480 N 48.7773 0.814389 1.34928 0
M  V30 481 C 49.6873 0.231978 2.3345 0
M  V30 482 C 50.7033 -0.629139 1.62228 0
M  V30 483 O 51.8793 -0.539052 1.94052 0
M  V30 484 C 48.9443 -0.603482 3.41407 0
M  V30 485 C 48.0053 0.279037 4.28392 0
M  V30 486 C 47.2383 -0.516643 5.31193 0
M  V30 487 O 47.4613 -1.75068 5.4287 0
M  V30 488 O 46.3953 0.0965652 6.01823 0
M  V30 489 H 50.2213 1.04721 2.85074 0
M  V30 490 H 47.8063 0.576343 1.37836 0
M  V30 491 H 49.6883 -1.07908 4.0735 0
M  V30 492 H 48.3633 -1.39618 2.92042 0
M  V30 493 H 47.2703 0.801948 3.65403 0
M  V30 494 H 48.6033 1.03588 4.81176 0
M  V30 495 N 50.2554 -1.46986 0.568584 0
M  V30 496 C 51.2184 -2.28624 -0.162366 0
M  V30 497 C 52.2184 -1.37596 -0.832103 0
M  V30 498 O 53.4084 -1.60115 -0.68622 0
M  V30 499 C 50.5404 -3.17596 -1.23878 0
M  V30 500 H 51.7334 -2.94722 0.554899 0
M  V30 501 H 49.2864 -1.52863 0.325976 0
M  V30 502 H 50.0214 -2.56214 -1.98808 0
M  V30 503 H 49.8064 -3.846 -0.763219 0
M  V30 504 H 51.2964 -3.79078 -1.75185 0
M  V30 505 N 51.7335 -0.305618 -1.54608 0
M  V30 506 C 52.6805 0.568421 -2.23691 0
M  V30 507 C 53.6505 1.12592 -1.22116 0
M  V30 508 O 54.8355 1.16959 -1.50749 0
M  V30 509 C 51.9755 1.7322 -2.98477 0
M  V30 510 C 51.0885 1.20566 -4.14835 0
M  V30 511 C 50.2235 2.33368 -4.77193 0
M  V30 512 C 49.2625 1.7787 -5.85686 0
M  V30 513 N 48.3995 2.84263 -6.4198 0
M  V30 514 H 53.2395 -0.0272867 -2.97988 0
M  V30 515 H 50.7765 -0.0252363 -1.47078 0
M  V30 516 H 52.7345 2.41675 -3.40072 0
M  V30 517 H 51.3645 2.29947 -2.26548 0
M  V30 518 H 50.4165 0.413223 -3.78149 0
M  V30 519 H 51.7285 0.759417 -4.92985 0
M  V30 520 H 50.8825 3.09761 -5.21664 0
M  V30 521 H 49.6215 2.8132 -3.98385 0
M  V30 522 H 48.6265 0.99968 -5.40635 0
M  V30 523 H 49.8515 1.30816 -6.66381 0
M  V30 524 H 47.7975 3.31541 -5.66053 0
M  V30 525 H 47.7145 2.44149 -7.15491 0
M  V30 526 H 48.9825 3.6054 -6.91109 0
M  V30 527 N 53.2116 1.57565 -0.0334293 0
M  V30 528 C 54.1216 2.13943 0.962572 0
M  V30 529 C 55.1376 1.09276 1.35406 0
M  V30 530 O 56.3136 1.41355 1.4346 0
M  V30 531 C 53.3786 2.65887 2.22497 0
M  V30 532 C 52.4396 3.85286 1.8935 0
M  V30 533 C 51.6726 4.34743 3.09571 0
M  V30 534 O 51.8956 3.83352 4.22371 0
M  V30 535 O 50.8296 5.26538 2.91618 0
M  V30 536 H 54.6556 2.99333 0.513169 0
M  V30 537 H 52.2406 1.4822 0.18743 0
M  V30 538 H 54.1226 2.99346 2.96598 0
M  V30 539 H 52.7976 1.83578 2.6661 0
M  V30 540 H 51.7046 3.56746 1.1262 0
M  V30 541 H 53.0376 4.68771 1.5005 0
M  V30 542 N 54.6897 -0.239769 1.55765 0
M  V30 543 C 55.6197 -1.30052 1.9393 0
M  V30 544 C 56.6007 -1.49839 0.805132 0
M  V30 545 O 57.7857 -1.62328 1.06599 0
M  V30 546 C 54.9157 -2.65391 2.2402 0
M  V30 547 C 53.8697 -2.60289 3.39755 0
M  V30 548 C 53.1957 -3.99489 3.55405 0
M  V30 549 C 54.4957 -2.16654 4.75246 0
M  V30 550 H 56.1897 -0.983573 2.82783 0
M  V30 551 H 53.7357 -0.471701 1.36055 0
M  V30 552 H 55.6887 -3.3974 2.49308 0
M  V30 553 H 54.4127 -2.98736 1.32 0
M  V30 554 H 53.0717 -1.88398 3.14487 0
M  V30 555 H 52.7197 -4.30112 2.60793 0
M  V30 556 H 52.4197 -3.96962 4.33238 0
M  V30 557 H 53.9437 -4.75528 3.83022 0
M  V30 558 H 55.3577 -2.80737 4.99859 0
M  V30 559 H 53.7547 -2.25223 5.56232 0
M  V30 560 H 54.8247 -1.11835 4.71827 0
M  V30 561 N 56.1678 -1.49265 -0.50573 0
M  V30 562 C 57.4158 -1.582 -1.25766 0
M  V30 563 C 57.7368 -0.268482 -1.93143 0
M  V30 564 O 57.0068 0.711833 -1.8251 0
M  V30 565 H 55.5868 -0.582873 -0.467191 0
M  V30 566 H 58.2488 -1.85865 -0.586525 0
M  V30 567 H 57.3448 -2.37563 -2.02412 0
M  V30 568 N 57.6459 0.756429 -1.3826 0
M  V30 569 C 58.8939 1.51248 -1.34047 0
M  V30 570 C 59.2149 1.94875 0.0698372 0
M  V30 571 O 58.4849 1.67436 1.01696 0
M  V30 572 H 57.0649 0.561018 -0.493222 0
M  V30 573 H 59.7269 0.899347 -1.7291 0
M  V30 574 H 58.8229 2.40472 -1.98947 0
M  V30 575 N 59.124 1.23083 0.984299 0
M  V30 576 C 60.352 1.08714 1.76037 0
M  V30 577 C 60.767 -0.361691 1.85303 0
M  V30 578 O 60.124 -1.25034 1.32939 0
M  V30 579 C 60.175 1.70206 3.18923 0
M  V30 580 O 59.896 3.09423 3.10144 0
M  V30 581 C 61.397 1.61227 4.12941 0
M  V30 582 H 58.617 0.380664 0.552572 0
M  V30 583 H 61.161 1.62853 1.23689 0
M  V30 584 H 59.316 1.20109 3.6831 0
M  V30 585 H 59.73 3.39188 4.00065 0
M  V30 586 H 61.204 2.08962 5.10919 0
M  V30 587 H 61.681 0.570375 4.35481 0
M  V30 588 H 62.287 2.10671 3.69456 0
M  V30 589 N 60.6021 -1.18246 1.0419 0
M  V30 590 C 61.8421 -1.89948 0.754916 0
M  V30 591 C 62.2061 -1.78608 -0.70451 0
M  V30 592 O 63.4071 -2.4503 -1.10516 0
M  V30 593 C 61.6781 -3.36305 1.20969 0
M  V30 594 S 63.2371 -4.26088 1.04854 0
M  V30 595 H 60.0551 -0.655897 0.274446 0
M  V30 596 H 62.6571 -1.42873 1.33445 0
M  V30 597 H 61.3611 -3.42089 2.26722 0
M  V30 598 H 60.8921 -3.8842 0.624004 0
M  V30 599 H 62.9071 -4.96189 -0.0332896 0
M  V30 600 N 62.0802 -0.821533 -1.34494 0
M  V30 601 C 63.3262 -0.409552 -1.98622 0
M  V30 602 C 63.6592 1.0244 -1.64984 0
M  V30 603 O 62.9342 1.71325 -0.920758 0
M  V30 604 C 63.2172 -0.610458 -3.54888 0
M  V30 605 C 63.0702 -2.09043 -3.98273 0
M  V30 606 C 64.3892 -0.0455379 -4.40076 0
M  V30 607 H 61.5082 -0.15028 -0.721516 0
M  V30 608 H 64.1502 -1.03384 -1.59411 0
M  V30 609 H 62.3002 -0.079044 -3.8842 0
M  V30 610 H 63.9722 -2.68537 -3.75081 0
M  V30 611 H 62.2152 -2.58139 -3.48635 0
M  V30 612 H 62.8862 -2.18182 -5.07051 0
M  V30 613 H 65.3622 -0.499557 -4.1309 0
M  V30 614 H 64.2382 -0.215922 -5.48475 0
M  V30 615 H 64.4992 1.04939 -4.29465 0
M  V30 616 N 63.5583 1.46682 -0.576371 0
M  V30 617 C 64.5063 2.31953 0.17335 0
M  V30 618 C 65.5003 1.44098 0.89062 0
M  V30 619 O 66.7063 1.60759 0.809728 0
M  V30 620 H 63.0813 0.748273 0.0747727 0
M  V30 621 H 65.0523 2.93007 -0.564738 0
M  V30 622 C 63.8013 3.27142 1.17786 0
M  V30 623 H 63.1243 3.94719 0.635361 0
M  V30 624 H 64.5643 3.896 1.67296 0
M  V30 625 C 63.0233 2.52036 2.23561 0
M  V30 626 O 63.5533 2.27877 3.3081 0
M  V30 627 N 61.7593 2.12709 1.97998 0
M  V30 628 H 61.3063 2.32557 1.10792 0
M  V30 629 H 61.2643 1.62776 2.68982 0
M  V30 630 N 65.0364 0.313813 1.54444 0
M  V30 631 C 66.2824 -0.292108 2.00685 0
M  V30 632 C 66.6154 -1.52548 1.20177 0
M  V30 633 O 65.8904 -1.92452 0.281531 0
M  V30 634 C 66.1734 -0.635968 3.5444 0
M  V30 635 C 66.0264 0.607437 4.4568 0
M  V30 636 C 67.3454 -1.45747 4.15266 0
M  V30 637 H 64.4644 -0.104697 0.729526 0
M  V30 638 H 67.1064 0.428457 1.85106 0
M  V30 639 H 65.2564 -1.24986 3.67846 0
M  V30 640 H 66.9284 1.24581 4.44159 0
M  V30 641 H 65.1714 1.23822 4.15753 0
M  V30 642 H 65.8424 0.322515 5.51057 0
M  V30 643 H 68.3184 -0.938645 4.05375 0
M  V30 644 H 67.1944 -1.66683 5.2298 0
M  V30 645 H 67.4554 -2.45063 3.67963 0
M  V30 646 N 66.5145 -1.57545 0.0417849 0
M  V30 647 C 67.7625 -1.91937 -0.632829 0
M  V30 648 C 68.0835 -0.919978 -1.71934 0
M  V30 649 O 67.3535 0.0366064 -1.95866 0
M  V30 650 H 65.9335 -0.708493 -0.236742 0
M  V30 651 H 68.5955 -1.9468 0.0925745 0
M  V30 652 H 67.6915 -2.92912 -1.07746 0
M  V30 653 N 67.9926 0.231505 -1.5589 0
M  V30 654 C 69.2326 0.964533 -1.80211 0
M  V30 655 C 69.5966 1.81926 -0.613744 0
M  V30 656 O 70.7976 2.58526 -0.736045 0
M  V30 657 C 69.0686 1.78956 -3.09369 0
M  V30 658 S 70.6276 2.57959 -3.54969 0
M  V30 659 H 67.4456 0.324173 -0.632798 0
M  V30 660 H 70.0476 0.230985 -1.94131 0
M  V30 661 H 68.7516 1.15161 -3.93911 0
M  V30 662 H 68.2826 2.56559 -2.9823 0
M  V30 663 H 70.2976 3.81309 -3.17519 0
M  V30 664 N 69.4707 1.49531 0.497807 0
M  V30 665 C 70.7167 1.59415 1.25358 0
M  V30 666 C 71.0497 0.281422 1.9215 0
M  V30 667 O 70.3247 -0.715249 1.80871 0
M  V30 668 C 70.6077 2.75566 2.3181 0
M  V30 669 C 70.4607 4.16642 1.69498 0
M  V30 670 C 71.7797 2.87347 3.33346 0
M  V30 671 H 68.8987 0.580244 0.454408 0
M  V30 672 H 71.5407 1.81827 0.551262 0
M  V30 673 H 69.6907 2.56587 2.91711 0
M  V30 674 H 71.3627 4.47145 1.13399 0
M  V30 675 H 69.6057 4.22141 0.998978 0
M  V30 676 H 70.2767 4.93792 2.46725 0
M  V30 677 H 72.7527 3.04634 2.83438 0
M  V30 678 H 71.6287 3.70289 4.05188 0
M  V30 679 H 71.8897 1.96834 3.95865 0
M  V30 680 N 70.9488 -0.749086 1.3866 0
M  V30 681 C 72.3598 -1.32664 1.31366 0
M  V30 682 C 72.7108 -1.96179 -0.028484 0
M  V30 683 O 71.8358 -1.9537 -0.93057 0
M  V30 684 C 72.4308 -2.41219 2.37905 0
M  V30 685 C 70.9898 -2.94684 2.34176 0
M  V30 686 C 70.1368 -1.68108 2.20533 0
M  V30 687 H 73.0878 -0.547628 1.48952 0
M  V30 688 H 73.1088 -3.21268 2.0388 0
M  V30 689 H 72.6208 -1.94962 3.35576 0
M  V30 690 H 70.7218 -3.45258 1.401 0
M  V30 691 H 70.8348 -3.48757 3.2849 0
M  V30 692 H 69.1988 -1.91907 1.67463 0
M  V30 693 H 69.9818 -1.23923 3.20153 0
M  V30 694 N 72.4269 -1.23603 -0.977757 0
M  V30 695 C 73.3739 -1.01954 -2.07061 0
M  V30 696 C 74.3439 0.0638697 -1.65977 0
M  V30 697 O 75.5289 -0.0887624 -1.90593 0
M  V30 698 C 72.6689 -0.619658 -3.39491 0
M  V30 699 C 71.7819 -1.77547 -3.93829 0
M  V30 700 C 70.9169 -1.32212 -5.14484 0
M  V30 701 C 69.9559 -2.44852 -5.60994 0
M  V30 702 N 69.0929 -2.00456 -6.72876 0
M  V30 703 H 73.9329 -1.95495 -2.24913 0
M  V30 704 H 71.4699 -0.973861 -1.10247 0
M  V30 705 H 73.4279 -0.368898 -4.15566 0
M  V30 706 H 72.0579 0.278752 -3.21594 0
M  V30 707 H 71.1099 -2.14016 -3.14486 0
M  V30 708 H 72.4219 -2.62219 -4.24314 0
M  V30 709 H 71.5759 -1.02965 -5.97899 0
M  V30 710 H 70.3149 -0.445808 -4.85658 0
M  V30 711 H 69.3199 -2.74871 -4.76157 0
M  V30 712 H 70.5449 -3.33024 -5.91837 0
M  V30 713 H 68.4909 -1.15208 -6.45804 0
M  V30 714 H 68.4079 -2.78687 -7.02759 0
M  V30 715 H 69.6759 -1.7432 -7.59758 0
M  V30 716 N 73.905 1.17692 -1.04816 0
M  V30 717 C 74.852 2.21581 -0.645797 0
M  V30 718 C 75.822 1.62367 0.350159 0
M  V30 719 O 77.007 1.89254 0.242433 0
M  V30 720 C 74.147 3.45092 -0.0227568 0
M  V30 721 C 73.26 4.18613 -1.06709 0
M  V30 722 C 72.395 5.29602 -0.411767 0
M  V30 723 C 71.434 5.94904 -1.44067 0
M  V30 724 N 70.571 6.97414 -0.809781 0
M  V30 725 H 75.411 2.55353 -1.5362 0
M  V30 726 H 72.948 1.25438 -0.768364 0
M  V30 727 H 74.906 4.15679 0.35588 0
M  V30 728 H 73.536 3.11917 0.831122 0
M  V30 729 H 72.588 3.46779 -1.5636 0
M  V30 730 H 73.9 4.63293 -1.84827 0
M  V30 731 H 73.054 6.06696 0.0206623 0
M  V30 732 H 71.793 4.86045 0.401438 0
M  V30 733 H 70.798 5.16544 -1.88316 0
M  V30 734 H 72.023 6.40542 -2.25571 0
M  V30 735 H 69.969 6.55998 -0.0170186 0
M  V30 736 H 69.886 7.40386 -1.52856 0
M  V30 737 H 71.154 7.78463 -0.401999 0
M  V30 738 N 75.3831 0.828654 1.34056 0
M  V30 739 C 76.6291 0.42008 1.98402 0
M  V30 740 C 76.9621 -1.01564 1.65525 0
M  V30 741 O 76.2371 -1.70834 0.929831 0
M  V30 742 C 76.5201 0.62927 3.54559 0
M  V30 743 C 76.3731 2.11152 3.97159 0
M  V30 744 C 77.6921 0.0688756 4.40046 0
M  V30 745 H 74.8111 0.154104 0.720709 0
M  V30 746 H 77.4531 1.04228 1.5886 0
M  V30 747 H 75.6031 0.0996418 3.88372 0
M  V30 748 H 77.2751 2.70522 3.73651 0
M  V30 749 H 75.5181 2.59985 3.47261 0
M  V30 750 H 76.1891 2.20868 5.05887 0
M  V30 751 H 78.6651 0.521458 4.1282 0
M  V30 752 H 77.5411 0.245006 5.48353 0
M  V30 753 H 77.8021 -1.0266 4.30015 0
M  V30 754 N 76.8612 -1.46375 0.584142 0
M  V30 755 C 77.7942 -2.27351 -0.196676 0
M  V30 756 C 78.7722 -1.35715 -0.895561 0
M  V30 757 O 79.9562 -1.65126 -0.90916 0
M  V30 758 C 77.0832 -3.13486 -1.28235 0
M  V30 759 C 76.1292 -4.20896 -0.689145 0
M  V30 760 S 76.9622 -5.33299 0.48507 0
M  V30 761 C 78.1182 -6.23 -0.601767 0
M  V30 762 H 78.3512 -2.93228 0.490395 0
M  V30 763 H 75.8842 -1.49875 0.371071 0
M  V30 764 H 77.8422 -3.63676 -1.90395 0
M  V30 765 H 76.5032 -2.4692 -1.94138 0
M  V30 766 H 75.6962 -4.80997 -1.50527 0
M  V30 767 H 75.2982 -3.73726 -0.143181 0
M  V30 768 H 77.5902 -6.60979 -1.48705 0
M  V30 769 H 78.5332 -7.0809 -0.0374799 0
M  V30 770 H 78.9412 -5.57173 -0.906557 0
M  V30 771 N 78.3393 -0.321999 -1.54275 0
M  V30 772 C 79.5853 0.274234 -2.01543 0
M  V30 773 C 79.9403 1.499 -1.20614 0
M  V30 774 O 79.2333 1.89546 -0.279804 0
M  V30 775 C 79.4273 0.661769 -3.5122 0
M  V30 776 C 79.2563 -0.523892 -4.46638 0
M  V30 777 C 78.0263 -1.02251 -4.94846 0
M  V30 778 C 80.2243 -1.37558 -4.95563 0
M  V30 779 N 78.2063 -2.17274 -5.74165 0
M  V30 780 C 79.5773 -2.37301 -5.7279 0
M  V30 781 C 81.6323 -1.40353 -4.77709 0
M  V30 782 C 80.3353 -3.3964 -6.34064 0
M  V30 783 C 82.3613 -2.41562 -5.39817 0
M  V30 784 C 81.7233 -3.40031 -6.16894 0
M  V30 785 H 77.8223 0.0642367 -0.779357 0
M  V30 786 H 80.4063 -0.456683 -1.89268 0
M  V30 787 H 78.5773 1.36182 -3.63743 0
M  V30 788 H 80.3093 1.23934 -3.85256 0
M  V30 789 H 77.0643 -0.594046 -4.6986 0
M  V30 790 H 77.4883 -2.75289 -6.18502 0
M  V30 791 H 82.1303 -0.655907 -4.17681 0
M  V30 792 H 79.8483 -4.15309 -6.93213 0
M  V30 793 H 83.4343 -2.44524 -5.2792 0
M  V30 794 H 82.3143 -4.17063 -6.64099 0
M  V30 795 N 79.8174 1.5752 -0.0501392 0
M  V30 796 C 80.7674 2.07981 0.934231 0
M  V30 797 C 81.7514 0.984745 1.27246 0
M  V30 798 O 82.9434 1.24809 1.25506 0
M  V30 799 C 80.0724 2.62751 2.20945 0
M  V30 800 C 79.1584 3.79225 1.89865 0
M  V30 801 N 79.5494 4.89036 1.29142 0
M  V30 802 C 77.8474 3.88111 2.19741 0
M  V30 803 C 78.5484 5.70084 1.15669 0
M  V30 804 N 77.5244 5.17659 1.65923 0
M  V30 805 H 81.3264 2.90277 0.460053 0
M  V30 806 H 78.8404 1.61665 0.15434 0
M  V30 807 H 80.8374 2.97205 2.9236 0
M  V30 808 H 79.4974 1.81894 2.6897 0
M  V30 809 H 80.5084 5.08854 0.963756 0
M  V30 810 H 77.1854 3.18194 2.70293 0
M  V30 811 H 78.5754 6.68395 0.685356 0
M  V30 812 N 81.2955 -0.223234 1.56011 0
M  V30 813 C 82.2585 -1.26014 1.9145 0
M  V30 814 C 83.2585 -1.3989 0.792937 0
M  V30 815 O 84.4485 -1.38184 1.0607 0
M  V30 816 C 81.5805 -2.63422 2.16383 0
M  V30 817 H 82.7735 -0.95796 2.84189 0
M  V30 818 H 80.3265 -0.463576 1.49267 0
M  V30 819 H 81.0615 -2.98741 1.2619 0
M  V30 820 H 80.8465 -2.54728 2.98088 0
M  V30 821 H 82.3365 -3.38249 2.44903 0
M  V30 822 N 82.7736 -1.49793 -0.48987 0
M  V30 823 C 83.7366 -1.66752 -1.57246 0
M  V30 824 C 84.7366 -0.538867 -1.51502 0
M  V30 825 O 85.9266 -0.805545 -1.54456 0
M  V30 826 C 83.0586 -1.67528 -2.96896 0
M  V30 827 H 84.2516 -2.63321 -1.43534 0
M  V30 828 H 81.8046 -1.38992 -0.714914 0
M  V30 829 H 82.5396 -0.725837 -3.16073 0
M  V30 830 H 82.3246 -2.49504 -3.02473 0
M  V30 831 H 83.8146 -1.82667 -3.7553 0
M  V30 832 N 84.2517 0.741722 -1.39055 0
M  V30 833 C 85.1837 1.8657 -1.33133 0
M  V30 834 C 86.1967 1.61001 -0.241329 0
M  V30 835 O 87.3857 1.7136 -0.499784 0
M  V30 836 C 84.4857 3.22457 -1.04283 0
M  V30 837 C 83.6587 3.75435 -2.24427 0
M  V30 838 C 82.7177 4.89867 -1.92138 0
M  V30 839 O 81.7437 5.03879 -2.64754 0
M  V30 840 N 82.9457 5.73738 -0.88347 0
M  V30 841 H 85.7107 1.92156 -2.29991 0
M  V30 842 H 83.2717 0.922172 -1.3307 0
M  V30 843 H 85.2637 3.9657 -0.807128 0
M  V30 844 H 83.8337 3.12181 -0.161807 0
M  V30 845 H 83.0537 2.92751 -2.6399 0
M  V30 846 H 84.3417 4.07563 -3.04581 0
M  V30 847 H 83.7397 5.64999 -0.281517 0
M  V30 848 H 82.2967 6.47947 -0.707662 0
M  V30 849 N 85.7298 1.2412 0.971189 0
M  V30 850 C 86.9788 1.07284 1.70801 0
M  V30 851 C 87.2918 -0.388902 1.91695 0
M  V30 852 O 88.4978 -0.677379 2.62914 0
M  V30 853 C 86.9538 1.87145 3.07416 0
M  V30 854 C 86.5618 3.37707 2.94377 0
M  V30 855 C 88.3058 1.78828 3.84995 0
M  V30 856 C 86.2128 4.09925 4.26281 0
M  V30 857 H 85.1428 0.397854 0.64049 0
M  V30 858 H 87.7938 1.4817 1.0825 0
M  V30 859 H 86.1758 1.39071 3.70777 0
M  V30 860 H 87.3498 3.93335 2.4005 0
M  V30 861 H 85.6648 3.46938 2.30267 0
M  V30 862 H 88.2618 2.30089 4.82662 0
M  V30 863 H 88.6048 0.75284 4.09436 0
M  V30 864 H 89.1378 2.24563 3.28354 0
M  V30 865 H 85.8768 5.13813 4.07033 0
M  V30 866 H 85.3968 3.59083 4.80437 0
M  V30 867 H 87.0758 4.1673 4.94919 0
M  V30 868 N 87.2079 -1.17134 1.05439 0
M  V30 869 C 88.6239 -1.39454 0.776201 0
M  V30 870 C 88.8239 -1.91454 -0.628307 0
M  V30 871 O 87.8799 -2.10777 -1.39031 0
M  V30 872 C 89.1929 -2.38305 1.83388 0
M  V30 873 C 90.7409 -2.52006 1.85639 0
M  V30 874 C 91.2159 -3.54133 2.90437 0
M  V30 875 N 92.7069 -3.61653 2.89415 0
M  V30 876 C 93.4419 -4.4044 3.67152 0
M  V30 877 N 92.9379 -5.22721 4.54681 0
M  V30 878 N 94.7309 -4.35337 3.55581 0
M  V30 879 H 86.8819 -0.817134 1.96053 0
M  V30 880 H 89.1449 -0.421626 0.849079 0
M  V30 881 H 88.8509 -2.07173 2.84204 0
M  V30 882 H 88.7249 -3.37841 1.67761 0
M  V30 883 H 91.1119 -2.82447 0.85486 0
M  V30 884 H 91.1929 -1.52537 2.05344 0
M  V30 885 H 90.8369 -3.24431 3.90777 0
M  V30 886 H 90.7669 -4.53313 2.67983 0
M  V30 887 H 93.2579 -3.02909 2.25952 0
M  V30 888 H 93.5709 -5.80027 5.10674 0
M  V30 889 H 91.9159 -5.22093 4.58741 0
M  V30 890 H 95.1069 -3.70112 2.86592 0
M  V30 891 H 95.2799 -4.96494 4.1641 0
M  V30 892 N 88.686 -0.835752 -1.33615 0
M  V30 893 C 89.596 -0.269088 -2.33052 0
M  V30 894 C 90.612 0.603251 -1.63208 0
M  V30 895 O 91.788 0.508112 -1.94885 0
M  V30 896 C 88.853 0.549091 -3.42324 0
M  V30 897 C 87.914 -0.347156 -4.27894 0
M  V30 898 C 87.147 0.43207 -5.31948 0
M  V30 899 O 87.37 1.66409 -5.45586 0
M  V30 900 O 86.304 -0.192298 -6.01593 0
M  V30 901 H 90.13 -1.09243 -2.83372 0
M  V30 902 H 87.715 -0.598198 -1.36901 0
M  V30 903 H 89.597 1.01414 -4.09015 0
M  V30 904 H 88.272 1.34955 -2.94226 0
M  V30 905 H 87.179 -0.859979 -3.64081 0
M  V30 906 H 88.512 -1.1123 -4.79467 0
M  V30 907 N 90.1641 1.46063 -0.591896 0
M  V30 908 C 91.1271 2.28854 0.125973 0
M  V30 909 C 92.1271 1.38903 0.810107 0
M  V30 910 O 93.3171 1.61186 0.66066 0
M  V30 911 C 90.4491 3.19526 1.1881 0
M  V30 912 H 91.6421 2.93802 -0.601717 0
M  V30 913 H 89.1951 1.52325 -0.350254 0
M  V30 914 H 89.9301 2.59345 1.94707 0
M  V30 915 H 89.7151 3.85766 0.701936 0
M  V30 916 H 91.2051 3.81817 1.69132 0
M  V30 917 N 91.6422 0.330177 1.54103 0
M  V30 918 C 92.8912 -0.271336 1.99867 0
M  V30 919 C 93.2042 -1.52723 1.22209 0
M  V30 920 O 94.4102 -2.20515 1.58383 0
M  V30 921 C 92.8662 -0.534032 3.55916 0
M  V30 922 C 92.4742 0.705193 4.42415 0
M  V30 923 C 94.2182 -1.09514 4.1013 0
M  V30 924 C 92.1252 0.414035 5.89949 0
M  V30 925 H 91.0552 -0.105166 0.74663 0
M  V30 926 H 93.7062 0.443429 1.78062 0
M  V30 927 H 92.0882 -1.30915 3.73734 0
M  V30 928 H 93.2622 1.4804 4.36372 0
M  V30 929 H 91.5772 1.18698 3.99124 0
M  V30 930 H 94.1742 -1.3277 5.17954 0
M  V30 931 H 94.5172 -2.04656 3.62521 0
M  V30 932 H 95.0502 -0.381038 3.95971 0
M  V30 933 H 91.7892 1.33481 6.41766 0
M  V30 934 H 91.3092 -0.323336 5.98928 0
M  V30 935 H 92.9882 0.0263105 6.46995 0
M  V30 936 N 93.1203 -1.57491 0.0584922 0
M  V30 937 C 94.0703 -2.08474 -0.923188 0
M  V30 938 C 95.0543 -0.991479 -1.26722 0
M  V30 939 O 96.2463 -1.25473 -1.24842 0
M  V30 940 C 93.3753 -2.6392 -2.19548 0
M  V30 941 C 92.4613 -3.80227 -1.87852 0
M  V30 942 N 92.8523 -4.89714 -1.26546 0
M  V30 943 C 91.1503 -3.89271 -2.17679 0
M  V30 944 C 91.8513 -5.70689 -1.12644 0
M  V30 945 N 90.8273 -5.18531 -1.63176 0
M  V30 946 H 94.6293 -2.90517 -0.444653 0
M  V30 947 H 92.1433 -1.61745 -0.145764 0
M  V30 948 H 94.1403 -2.98752 -2.9078 0
M  V30 949 H 92.8003 -1.83318 -2.68001 0
M  V30 950 H 93.8113 -5.09358 -0.936757 0
M  V30 951 H 90.4883 -3.19623 -2.68602 0
M  V30 952 H 91.8783 -6.6875 -0.6499 0
M  V30 953 N 94.5984 0.214957 -1.56127 0
M  V30 954 C 95.5314 1.29382 -1.87977 0
M  V30 955 C 96.5094 1.44897 -0.737807 0
M  V30 956 O 97.6934 1.60605 -0.986833 0
M  V30 957 C 94.8204 2.66325 -2.09258 0
M  V30 958 C 93.8664 2.67789 -3.31951 0
M  V30 959 S 94.6994 2.21198 -4.8768 0
M  V30 960 C 95.8554 3.60003 -5.12004 0
M  V30 961 H 96.0884 1.02173 -2.79192 0
M  V30 962 H 93.6214 0.417516 -1.48648 0
M  V30 963 H 95.5794 3.45162 -2.22201 0
M  V30 964 H 94.2404 2.90755 -1.18829 0
M  V30 965 H 93.4334 3.68436 -3.43906 0
M  V30 966 H 93.0354 1.9702 -3.17898 0
M  V30 967 H 95.3274 4.55739 -5.01307 0
M  V30 968 H 96.2704 3.52959 -6.13861 0
M  V30 969 H 96.6784 3.53996 -4.39712 0
M  V30 970 N 96.0765 1.50051 0.48192 0
M  V30 971 C 97.3065 1.63999 1.2565 0
M  V30 972 C 97.7145 0.318288 1.86504 0
M  V30 973 O 97.0575 -0.708534 1.69486 0
M  V30 974 C 97.1195 2.66504 2.4128 0
M  V30 975 C 96.7835 4.10352 2.01148 0
M  V30 976 C 97.7805 4.96562 1.54021 0
M  V30 977 C 95.4655 4.56203 2.10199 0
M  V30 978 C 97.4595 6.26668 1.16473 0
M  V30 979 C 95.1465 5.86318 1.72264 0
M  V30 980 C 96.1445 6.71375 1.25477 0
M  V30 981 O 95.8325 7.99062 0.880626 0
M  V30 982 H 95.5645 0.55456 0.386574 0
M  V30 983 H 98.1185 1.96954 0.582944 0
M  V30 984 H 96.3485 2.28769 3.11772 0
M  V30 985 H 98.0375 2.69783 3.03268 0
M  V30 986 H 98.8035 4.62358 1.46458 0
M  V30 987 H 94.6825 3.90152 2.45566 0
M  V30 988 H 98.2265 6.93011 0.798841 0
M  V30 989 H 94.1235 6.20046 1.79482 0
M  V30 990 H 94.8915 8.12239 1.01043 0
M  V30 991 N 97.5546 -0.734337 1.39446 0
M  V30 992 C 98.8026 -1.49096 1.36436 0
M  V30 993 C 99.1236 -1.94961 -0.0388255 0
M  V30 994 O 98.3936 -1.69033 -0.990191 0
M  V30 995 H 96.9736 -0.5531 0.502085 0
M  V30 996 H 99.6356 -0.871725 1.74319 0
M  V30 997 H 98.7316 -2.37276 2.02747 0
M  V30 998 N 99.0327 -1.24633 -0.964593 0
M  V30 999 C 100.444 -1.08045 -1.5226 0
M  V30 1000 C 100.795 0.347116 -1.93105 0
M  V30 1001 O 99.9197 1.23588 -1.77637 0
M  V30 1002 C 100.515 -1.95514 -2.76695 0
M  V30 1003 C 99.0737 -1.8314 -3.28841 0
M  V30 1004 C 98.2207 -1.90262 -2.01732 0
M  V30 1005 H 101.172 -1.38064 -0.782553 0
M  V30 1006 H 101.193 -1.48925 -3.50145 0
M  V30 1007 H 100.705 -2.99407 -2.46936 0
M  V30 1008 H 98.8057 -0.82092 -3.63444 0
M  V30 1009 H 98.9187 -2.67406 -3.97531 0
M  V30 1010 H 97.2827 -1.34027 -2.16584 0
M  V30 1011 H 98.0657 -2.9574 -1.74334 0
M  V30 1012 N 100.511 1.16574 -1.06058 0
M  V30 1013 C 101.788 1.83048 -0.689416 0
M  V30 1014 C 102.168 1.94122 0.829443 0
M  V30 1015 O 101.516 1.48249 1.7388 0
M  V30 1016 C 101.726 3.20186 -1.38859 0
M  V30 1017 C 103.074 3.95989 -1.53226 0
M  V30 1018 O 104.098 3.29696 -1.3483 0
M  V30 1019 O 102.957 5.14813 -1.83384 0
M  V30 1020 H 100.051 0.790258 -0.243764 0
M  V30 1021 H 102.597 1.23797 -1.16071 0
M  V30 1022 H 101.369 3.07146 -2.4244 0
M  V30 1023 H 100.992 3.87112 -0.907216 0
M  V30 1024 N 101.989 0.842826 1.3317 0
M  V30 1025 C 103.219 0.453397 2.01564 0
M  V30 1026 C 103.627 -0.951147 1.63554 0
M  V30 1027 O 102.97 -1.63021 0.846746 0
M  V30 1028 C 103.032 0.499013 3.5602 0
M  V30 1029 C 102.696 1.86037 4.1742 0
M  V30 1030 C 103.693 2.82416 4.36506 0
M  V30 1031 C 101.378 2.15428 4.53757 0
M  V30 1032 C 103.372 4.06346 4.91082 0
M  V30 1033 C 101.059 3.39615 5.0804 0
M  V30 1034 C 102.057 4.3489 5.26649 0
M  V30 1035 O 101.745 5.5688 5.79776 0
M  V30 1036 H 101.477 0.177871 0.652179 0
M  V30 1037 H 104.031 1.13808 1.70988 0
M  V30 1038 H 102.261 -0.242467 3.85939 0
M  V30 1039 H 103.95 0.126852 4.05702 0
M  V30 1040 H 104.716 2.6101 4.08777 0
M  V30 1041 H 100.595 1.42061 4.38565 0
M  V30 1042 H 104.139 4.80722 5.05522 0
M  V30 1043 H 100.036 3.60876 5.352 0
M  V30 1044 H 100.804 5.58674 5.98185 0
M  V30 1045 N 103.467 -1.45747 0.599634 0
M  V30 1046 C 104.715 -2.01893 0.0915472 0
M  V30 1047 C 105.036 -1.47155 -1.27946 0
M  V30 1048 O 104.306 -0.66273 -1.84349 0
M  V30 1049 H 102.886 -0.746363 0.0308524 0
M  V30 1050 H 105.548 -1.78645 0.779237 0
M  V30 1051 H 104.644 -3.1208 0.0353086 0
M  V30 1052 N 104.945 -0.338344 -1.53925 0
M  V30 1053 C 106.192 0.259758 -2.00827 0
M  V30 1054 C 106.52 1.50973 -1.22628 0
M  V30 1055 O 105.775 1.93379 -0.300509 0
M  V30 1056 C 106.074 0.62448 -3.51902 0
M  V30 1057 C 105.74 -0.528006 -4.47798 0
M  V30 1058 C 104.402 -0.844298 -4.73735 0
M  V30 1059 C 106.754 -1.30143 -5.0469 0
M  V30 1060 C 104.082 -1.93648 -5.53821 0
M  V30 1061 C 106.434 -2.38382 -5.85967 0
M  V30 1062 C 105.098 -2.70576 -6.10201 0
M  V30 1063 H 104.368 0.0950523 -0.734878 0
M  V30 1064 H 107.015 -0.465182 -1.85764 0
M  V30 1065 H 105.32 1.43006 -3.64769 0
M  V30 1066 H 107.017 1.09905 -3.85645 0
M  V30 1067 H 103.607 -0.271421 -4.2774 0
M  V30 1068 H 107.791 -1.07033 -4.84621 0
M  V30 1069 H 103.047 -2.19021 -5.70824 0
M  V30 1070 H 107.221 -2.98746 -6.29066 0
M  V30 1071 H 104.848 -3.55333 -6.72044 0
M  V30 1072 N 106.423 1.57458 -0.0668435 0
M  V30 1073 C 107.7 1.8469 0.644132 0
M  V30 1074 C 108.08 0.958343 1.88093 0
M  V30 1075 O 107.428 0.0233579 2.28488 0
M  V30 1076 C 107.638 3.34767 0.986509 0
M  V30 1077 C 108.986 4.02159 1.36212 0
M  V30 1078 O 110.01 3.39484 1.07839 0
M  V30 1079 O 108.869 5.12694 1.89227 0
M  V30 1080 H 105.963 0.762816 0.319437 0
M  V30 1081 H 108.509 1.6942 -0.0973986 0
M  V30 1082 H 107.281 3.91151 0.107883 0
M  V30 1083 H 106.904 3.55281 1.78497 0
M  V30 1084 N 107.901 -0.206675 1.56239 0
M  V30 1085 C 109.129 -0.945345 1.8404 0
M  V30 1086 C 109.544 -1.77336 0.647885 0
M  V30 1087 O 108.901 -1.78425 -0.383511 0
M  V30 1088 C 108.952 -1.8509 3.10522 0
M  V30 1089 O 108.673 -1.05634 4.25174 0
M  V30 1090 C 110.174 -2.70222 3.51418 0
M  V30 1091 H 107.394 -0.276372 0.61144 0
M  V30 1092 H 109.938 -0.217417 2.03341 0
M  V30 1093 H 108.093 -2.53259 2.93153 0
M  V30 1094 H 108.507 -1.67238 4.97124 0
M  V30 1095 H 109.981 -3.29438 4.42916 0
M  V30 1096 H 110.458 -3.43358 2.73864 0
M  V30 1097 H 111.064 -2.07443 3.71278 0
M  V30 1098 N 109.379 -1.50304 -0.473955 0
M  V30 1099 C 110.607 -1.64902 -1.24959 0
M  V30 1100 C 111.022 -0.331198 -1.85872 0
M  V30 1101 O 110.379 0.68652 -1.69095 0
M  V30 1102 C 110.43 -2.73803 -2.36038 0
M  V30 1103 O 110.151 -4.00477 -1.77624 0
M  V30 1104 C 111.652 -2.99349 -3.26964 0
M  V30 1105 H 108.872 -0.554383 -0.378022 0
M  V30 1106 H 111.416 -1.9651 -0.566054 0
M  V30 1107 H 109.571 -2.44898 -3.00173 0
M  V30 1108 H 109.985 -4.60678 -2.5075 0
M  V30 1109 H 111.459 -3.79217 -4.01121 0
M  V30 1110 H 111.936 -2.10307 -3.85574 0
M  V30 1111 H 112.542 -3.29774 -2.68569 0
M  V30 1112 N 110.857 0.726932 -1.39834 0
M  V30 1113 C 112.106 1.48214 -1.36805 0
M  V30 1114 C 112.419 1.95576 0.0305291 0
M  V30 1115 O 113.625 2.7088 0.183417 0
M  V30 1116 C 112.081 2.67854 -2.40379 0
M  V30 1117 C 111.689 2.27408 -3.85992 0
M  V30 1118 C 113.433 3.45641 -2.46439 0
M  V30 1119 C 111.34 3.43819 -4.81189 0
M  V30 1120 H 110.27 0.556606 -0.508631 0
M  V30 1121 H 112.921 0.792216 -1.65518 0
M  V30 1122 H 111.303 3.3896 -2.04749 0
M  V30 1123 H 112.477 1.63795 -4.30706 0
M  V30 1124 H 110.792 1.62692 -3.83302 0
M  V30 1125 H 113.389 4.32244 -3.14753 0
M  V30 1126 H 113.732 3.88669 -1.49139 0
M  V30 1127 H 114.265 2.8157 -2.81004 0
M  V30 1128 H 111.004 3.05834 -5.79781 0
M  V30 1129 H 110.524 4.06385 -4.41148 0
M  V30 1130 H 112.203 4.10043 -5.00474 0
M  V30 1131 N 112.336 1.25143 0.95797 0
M  V30 1132 C 113.284 1.05019 2.07542 0
M  V30 1133 C 114.278 -0.0178751 1.69391 0
M  V30 1134 O 115.484 0.137472 1.79474 0
M  V30 1135 H 111.859 0.32265 0.679265 0
M  V30 1136 H 113.83 1.99759 2.21673 0
M  V30 1137 C 112.579 0.682074 3.40944 0
M  V30 1138 H 111.902 1.49573 3.70767 0
M  V30 1139 H 113.342 0.580945 4.20001 0
M  V30 1140 C 111.801 -0.611608 3.31302 0
M  V30 1141 O 112.331 -1.65465 3.66038 0
M  V30 1142 N 110.537 -0.595982 2.84423 0
M  V30 1143 H 110.084 0.253192 2.56353 0
M  V30 1144 H 110.042 -1.46173 2.78354 0
M  V30 1145 N 113.814 -1.1601 1.06675 0
M  V30 1146 C 114.761 -2.20525 0.680967 0
M  V30 1147 C 115.731 -1.62904 -0.324283 0
M  V30 1148 O 116.916 -1.89615 -0.212294 0
M  V30 1149 C 114.056 -3.45013 0.0776551 0
M  V30 1150 C 113.169 -4.16863 1.13355 0
M  V30 1151 C 112.304 -5.2888 0.49597 0
M  V30 1152 C 111.343 -5.92537 1.53513 0
M  V30 1153 N 110.48 -6.96038 0.920631 0
M  V30 1154 H 115.32 -2.52876 1.57663 0
M  V30 1155 H 112.857 -1.24199 0.788223 0
M  V30 1156 H 114.815 -4.16193 -0.289704 0
M  V30 1157 H 113.445 -3.132 -0.781393 0
M  V30 1158 H 112.497 -3.44248 1.61857 0
M  V30 1159 H 113.809 -4.60294 1.92174 0
M  V30 1160 H 112.963 -6.06653 0.0758604 0
M  V30 1161 H 111.702 -4.86622 -0.324062 0
M  V30 1162 H 110.707 -5.13482 1.9651 0
M  V30 1163 H 111.932 -6.36873 2.35733 0
M  V30 1164 H 109.878 -6.55888 0.12138 0
M  V30 1165 H 109.795 -7.3786 1.64616 0
M  V30 1166 H 111.063 -7.77725 0.525795 0
M  V30 1167 N 115.292 -0.849877 -1.32721 0
M  V30 1168 C 116.539 -0.450923 -1.97416 0
M  V30 1169 C 116.867 0.992376 -1.67279 0
M  V30 1170 O 116.122 1.71048 -0.950845 0
M  V30 1171 C 116.421 -0.631272 -3.51781 0
M  V30 1172 C 116.087 -2.04432 -4.01894 0
M  V30 1173 C 114.749 -2.4308 -4.1529 0
M  V30 1174 C 117.101 -2.96679 -4.28522 0
M  V30 1175 C 114.429 -3.73257 -4.52654 0
M  V30 1176 C 116.781 -4.26349 -4.67343 0
M  V30 1177 C 115.445 -4.64939 -4.78945 0
M  V30 1178 H 114.715 -0.165004 -0.722395 0
M  V30 1179 H 117.362 -1.07901 -1.58207 0
M  V30 1180 H 115.667 0.0800767 -3.91718 0
M  V30 1181 H 117.364 -0.302709 -3.99856 0
M  V30 1182 H 113.954 -1.73419 -3.91949 0
M  V30 1183 H 118.138 -2.68054 -4.17685 0
M  V30 1184 H 113.394 -4.02946 -4.59831 0
M  V30 1185 H 117.568 -4.97895 -4.86902 0
M  V30 1186 H 115.195 -5.65855 -5.07654 0
M  V30 1187 N 116.77 1.45427 -0.607355 0
M  V30 1188 C 117.718 2.32269 0.12411 0
M  V30 1189 C 118.712 1.45955 0.859854 0
M  V30 1190 O 119.918 1.6244 0.775447 0
M  V30 1191 H 116.293 0.749691 0.0588839 0
M  V30 1192 H 118.264 2.91743 -0.626762 0
M  V30 1193 C 117.013 3.29567 1.1082 0
M  V30 1194 H 116.336 3.95978 0.551492 0
M  V30 1195 H 117.776 3.93061 1.58995 0
M  V30 1196 C 116.235 2.56722 2.18164 0
M  V30 1197 O 116.765 2.34842 3.25902 0
M  V30 1198 N 114.971 2.16861 1.93442 0
M  V30 1199 H 114.518 2.34855 1.05834 0
M  V30 1200 H 114.476 1.68444 2.65469 0
M  V30 1201 N 118.248 0.346503 1.53744 0
M  V30 1202 C 119.494 -0.242135 2.01954 0
M  V30 1203 C 119.849 -1.47962 1.22984 0
M  V30 1204 O 119.142 -1.89077 0.309924 0
M  V30 1205 C 119.336 -0.605809 3.52228 0
M  V30 1206 C 119.165 0.594882 4.45748 0
M  V30 1207 C 117.935 1.1011 4.93157 0
M  V30 1208 C 120.133 1.45425 4.93311 0
M  V30 1209 N 118.115 2.26381 5.70636 0
M  V30 1210 C 119.486 2.46383 5.68942 0
M  V30 1211 C 121.541 1.47935 4.75415 0
M  V30 1212 C 120.244 3.49684 6.28581 0
M  V30 1213 C 122.27 2.50119 5.35905 0
M  V30 1214 C 121.632 3.49803 6.11406 0
M  V30 1215 H 117.731 -0.0518296 0.780281 0
M  V30 1216 H 120.315 0.486736 1.88518 0
M  V30 1217 H 118.486 -1.30378 3.65864 0
M  V30 1218 H 120.218 -1.17789 3.87179 0
M  V30 1219 H 116.973 0.668721 4.68855 0
M  V30 1220 H 117.397 2.85094 6.14044 0
M  V30 1221 H 122.039 0.722274 4.16585 0
M  V30 1222 H 119.757 4.26285 6.86518 0
M  V30 1223 H 123.343 2.52892 5.23963 0
M  V30 1224 H 122.223 4.27576 6.5738 0
M  V30 1225 N 119.726 -1.57421 0.075193 0
M  V30 1226 C 120.636 -2.1642 -0.905511 0
M  V30 1227 C 121.652 -1.12828 -1.32461 0
M  V30 1228 O 122.828 -1.45109 -1.39661 0
M  V30 1229 C 119.893 -2.71693 -2.15369 0
M  V30 1230 C 118.954 -3.90171 -1.79068 0
M  V30 1231 C 118.187 -4.42798 -2.97936 0
M  V30 1232 O 118.41 -3.94416 -4.12058 0
M  V30 1233 O 117.344 -5.34085 -2.77555 0
M  V30 1234 H 121.17 -3.00588 -0.433626 0
M  V30 1235 H 118.755 -1.48664 -0.148067 0
M  V30 1236 H 120.637 -3.07104 -2.88557 0
M  V30 1237 H 119.312 -1.90582 -2.61649 0
M  V30 1238 H 118.219 -3.59606 -1.03122 0
M  V30 1239 H 119.552 -4.72584 -1.37569 0
M  V30 1240 N 121.204 0.198386 -1.56346 0
M  V30 1241 C 122.432 0.935572 -1.84539 0
M  V30 1242 C 122.847 1.76989 -0.657281 0
M  V30 1243 O 122.204 1.78626 0.374043 0
M  V30 1244 C 122.255 1.8344 -3.11499 0
M  V30 1245 O 121.976 1.03377 -4.25728 0
M  V30 1246 C 123.477 2.68355 -3.52846 0
M  V30 1247 H 120.697 0.273126 -0.612897 0
M  V30 1248 H 123.241 0.20663 -2.03453 0
M  V30 1249 H 121.396 2.51701 -2.94492 0
M  V30 1250 H 121.81 1.64599 -4.98003 0
M  V30 1251 H 123.284 3.27085 -4.44657 0
M  V30 1252 H 123.761 3.41901 -2.75681 0
M  V30 1253 H 124.367 2.05471 -3.72373 0
M  V30 1254 N 122.682 1.50554 0.465978 0
M  V30 1255 C 123.612 1.72722 1.57128 0
M  V30 1256 C 124.593 0.576294 1.6004 0
M  V30 1257 O 125.778 0.81598 1.76225 0
M  V30 1258 C 122.908 1.82605 2.95419 0
M  V30 1259 C 121.862 2.97835 3.07373 0
M  V30 1260 C 121.188 2.92867 4.47363 0
M  V30 1261 C 122.488 4.38265 2.84114 0
M  V30 1262 H 124.182 2.65267 1.38829 0
M  V30 1263 H 121.728 1.2765 0.666441 0
M  V30 1264 H 123.681 1.96698 3.72677 0
M  V30 1265 H 122.405 0.866858 3.14886 0
M  V30 1266 H 121.064 2.83401 2.3255 0
M  V30 1267 H 120.712 1.94783 4.63755 0
M  V30 1268 H 120.412 3.70227 4.56296 0
M  V30 1269 H 121.936 3.09015 5.26633 0
M  V30 1270 H 123.35 4.53198 3.51118 0
M  V30 1271 H 121.747 5.17115 3.04487 0
M  V30 1272 H 122.817 4.50281 1.7993 0
M  V30 1273 N 124.16 -0.719506 1.40217 0
M  V30 1274 C 125.409 -1.47486 1.37589 0
M  V30 1275 C 125.722 -1.9559 -0.0201568 0
M  V30 1276 O 126.928 -2.70973 -0.169049 0
M  V30 1277 C 125.384 -2.66575 2.41796 0
M  V30 1278 C 124.992 -2.25358 3.87192 0
M  V30 1279 C 126.736 -3.4433 2.48269 0
M  V30 1280 C 124.643 -3.41262 4.83005 0
M  V30 1281 H 123.573 -0.553901 0.511576 0
M  V30 1282 H 126.224 -0.783427 1.65936 0
M  V30 1283 H 124.606 -3.3787 2.06543 0
M  V30 1284 H 125.78 -1.61509 4.31569 0
M  V30 1285 H 124.095 -1.60657 3.84159 0
M  V30 1286 H 126.692 -4.30569 3.17041 0
M  V30 1287 H 127.035 -3.87872 1.51198 0
M  V30 1288 H 127.568 -2.80076 2.82493 0
M  V30 1289 H 124.307 -3.02755 5.81394 0
M  V30 1290 H 123.827 -4.0404 4.43297 0
M  V30 1291 H 125.506 -4.07383 5.02641 0
M  V30 1292 N 125.638 -1.25649 -0.95132 0
M  V30 1293 C 126.601 -1.06399 -2.03007 0
M  V30 1294 C 127.601 -0.0156794 -1.60792 0
M  V30 1295 O 128.791 -0.25817 -1.72276 0
M  V30 1296 C 125.923 -0.616184 -3.35285 0
M  V30 1297 H 127.116 -2.02164 -2.21517 0
M  V30 1298 H 124.669 -1.08103 -1.12887 0
M  V30 1299 H 125.404 0.343917 -3.22471 0
M  V30 1300 H 125.189 -1.37301 -3.67275 0
M  V30 1301 H 126.679 -0.503032 -4.14559 0
M  V30 1302 N 127.117 1.15442 -1.07289 0
M  V30 1303 C 128.342 1.90638 -0.816828 0
M  V30 1304 C 128.767 1.77445 0.624083 0
M  V30 1305 O 128.125 1.10671 1.43602 0
M  V30 1306 C 128.173 3.39008 -1.22906 0
M  V30 1307 O 127.277 4.10701 -0.373975 0
M  V30 1308 H 126.618 0.593555 -0.297638 0
M  V30 1309 H 129.148 1.46198 -1.43134 0
M  V30 1310 H 129.158 3.89801 -1.20497 0
M  V30 1311 H 127.833 3.47929 -2.27856 0
M  V30 1312 H 126.41 3.70046 -0.460499 0
M  V30 1313 N 128.595 0.856903 1.32268 0
M  V30 1314 C 130.011 0.547061 1.49931 0
M  V30 1315 C 130.211 -0.921781 1.7918 0
M  V30 1316 O 129.267 -1.70469 1.8627 0
M  V30 1317 C 130.58 1.43599 2.64196 0
M  V30 1318 C 132.128 1.43665 2.78081 0
M  V30 1319 C 132.603 2.31085 3.95428 0
M  V30 1320 N 134.094 2.28893 4.02694 0
M  V30 1321 C 134.829 2.93262 4.92732 0
M  V30 1322 N 134.325 3.66751 5.87763 0
M  V30 1323 N 136.118 2.82638 4.85873 0
M  V30 1324 H 128.269 1.8075 1.11549 0
M  V30 1325 H 130.532 0.772144 0.549997 0
M  V30 1326 H 130.238 2.48058 2.49319 0
M  V30 1327 H 130.112 1.12502 3.60032 0
M  V30 1328 H 132.499 0.399701 2.92381 0
M  V30 1329 H 132.58 1.7878 1.82952 0
M  V30 1330 H 132.224 3.34849 3.81888 0
M  V30 1331 H 132.154 1.93302 4.89839 0
M  V30 1332 H 134.645 1.75466 3.34694 0
M  V30 1333 H 134.958 4.13027 6.53168 0
M  V30 1334 H 133.303 3.70859 5.87783 0
M  V30 1335 H 136.494 2.24774 4.10602 0
M  V30 1336 H 136.667 3.33084 5.55841 0
M  V30 1337 N 130.073 -1.45103 0.615059 0
M  V30 1338 C 131.301 -2.06553 0.11977 0
M  V30 1339 C 131.716 -1.45842 -1.19898 0
M  V30 1340 O 131.073 -0.575325 -1.73194 0
M  V30 1341 C 131.124 -3.61495 -0.018364 0
M  V30 1342 O 130.845 -4.19942 1.24822 0
M  V30 1343 C 132.346 -4.39947 -0.544237 0
M  V30 1344 H 129.566 -0.667096 0.0722739 0
M  V30 1345 H 132.11 -1.8623 0.84491 0
M  V30 1346 H 130.265 -3.81135 -0.693865 0
M  V30 1347 H 130.679 -5.13204 1.0827 0
M  V30 1348 H 132.153 -5.48838 -0.589953 0
M  V30 1349 H 132.63 -4.10255 -1.56805 0
M  V30 1350 H 133.236 -4.25188 0.0974703 0
M  V30 1351 N 131.551 -0.354651 -1.53558 0
M  V30 1352 C 132.514 0.484566 -2.24019 0
M  V30 1353 C 133.514 1.01861 -1.24422 0
M  V30 1354 O 134.704 0.906097 -1.4878 0
M  V30 1355 C 131.836 1.67615 -2.96847 0
M  V30 1356 H 133.029 -0.131843 -2.9961 0
M  V30 1357 H 130.582 -0.106165 -1.55939 0
M  V30 1358 H 131.317 2.33095 -2.25471 0
M  V30 1359 H 131.102 1.30029 -3.69912 0
M  V30 1360 H 132.592 2.27114 -3.50441 0
M  V30 1361 N 133.029 1.57378 -0.0835403 0
M  V30 1362 C 134.259 1.97975 0.590713 0
M  V30 1363 C 134.667 0.961083 1.62972 0
M  V30 1364 O 134.01 -0.0590879 1.83605 0
M  V30 1365 C 134.072 3.34915 1.3066 0
M  V30 1366 C 133.736 4.55069 0.419698 0
M  V30 1367 C 134.733 5.18868 -0.32749 0
M  V30 1368 C 132.418 5.0114 0.341137 0
M  V30 1369 C 134.412 6.27098 -1.14134 0
M  V30 1370 C 132.099 6.0924 -0.476374 0
M  V30 1371 C 133.097 6.72083 -1.21627 0
M  V30 1372 O 132.785 7.781 -2.02028 0
M  V30 1373 H 132.517 0.655818 0.163947 0
M  V30 1374 H 135.071 2.04807 -0.156021 0
M  V30 1375 H 133.301 3.24733 2.09966 0
M  V30 1376 H 134.99 3.60037 1.87424 0
M  V30 1377 H 135.756 4.84211 -0.276459 0
M  V30 1378 H 131.635 4.51996 0.90668 0
M  V30 1379 H 135.179 6.7608 -1.71935 0
M  V30 1380 H 131.076 6.43329 -0.528927 0
M  V30 1381 H 131.844 7.95034 -1.94586 0
M  V30 1382 N 134.507 -0.190092 1.56449 0
M  V30 1383 C 135.756 -0.907912 1.80111 0
M  V30 1384 C 136.069 -1.84214 0.657619 0
M  V30 1385 O 137.275 -2.60094 0.778663 0
M  V30 1386 C 135.731 -1.66485 3.19078 0
M  V30 1387 C 135.339 -0.7752 4.41242 0
M  V30 1388 C 137.083 -2.37201 3.52045 0
M  V30 1389 C 134.99 -1.53129 5.71231 0
M  V30 1390 H 133.92 -0.34276 0.671589 0
M  V30 1391 H 136.571 -0.161109 1.82791 0
M  V30 1392 H 134.953 -2.45572 3.10661 0
M  V30 1393 H 136.127 -0.0226298 4.60794 0
M  V30 1394 H 134.442 -0.178627 4.16017 0
M  V30 1395 H 137.039 -2.94329 4.46402 0
M  V30 1396 H 137.382 -3.11632 2.76028 0
M  V30 1397 H 137.915 -1.65075 3.61932 0
M  V30 1398 H 134.654 -0.82967 6.50228 0
M  V30 1399 H 134.174 -2.25767 5.55688 0
M  V30 1400 H 135.853 -2.08377 6.12526 0
M  V30 1401 N 135.985 -1.50799 -0.457987 0
M  V30 1402 C 137.262 -1.52968 -1.21902 0
M  V30 1403 C 137.642 -0.281906 -2.09209 0
M  V30 1404 O 136.99 0.734076 -2.16388 0
M  V30 1405 C 137.2 -2.8326 -2.03875 0
M  V30 1406 C 138.548 -3.34425 -2.6162 0
M  V30 1407 O 139.572 -2.8467 -2.14106 0
M  V30 1408 O 138.431 -4.21188 -3.48228 0
M  V30 1409 H 135.525 -0.614129 -0.553873 0
M  V30 1410 H 138.071 -1.63098 -0.468739 0
M  V30 1411 H 136.843 -3.65543 -1.39621 0
M  V30 1412 H 136.466 -2.76195 -2.8601 0
M  V30 1413 N 137.463 0.71206 -1.40597 0
M  V30 1414 C 138.879 1.02058 -1.22704 0
M  V30 1415 C 139.079 2.01228 -0.104729 0
M  V30 1416 O 138.135 2.4674 0.53624 0
M  V30 1417 C 139.448 1.56094 -2.57012 0
M  V30 1418 C 140.996 1.6806 -2.64054 0
M  V30 1419 C 141.471 2.25501 -3.9864 0
M  V30 1420 N 142.962 2.32882 -4.004 0
M  V30 1421 C 143.697 2.78317 -5.01325 0
M  V30 1422 N 143.193 3.23478 -6.12645 0
M  V30 1423 N 144.986 2.77733 -4.88693 0
M  V30 1424 H 137.137 0.0547896 -2.12329 0
M  V30 1425 H 139.4 0.0869027 -0.944008 0
M  V30 1426 H 139.106 0.906865 -3.39807 0
M  V30 1427 H 138.98 2.54564 -2.78347 0
M  V30 1428 H 141.367 2.32583 -1.81629 0
M  V30 1429 H 141.448 0.681802 -2.46546 0
M  V30 1430 H 141.092 1.61598 -4.81506 0
M  V30 1431 H 141.022 3.26102 -4.13479 0
M  V30 1432 H 143.513 2.00991 -3.20017 0
M  V30 1433 H 143.826 3.56725 -6.85542 0
M  V30 1434 H 142.171 3.21429 -6.16205 0
M  V30 1435 H 145.362 2.4179 -4.00818 0
M  V30 1436 H 145.535 3.12826 -5.67489 0
M  V30 1437 N 138.941 1.26152 0.944643 0
M  V30 1438 C 140.19 1.10883 1.68487 0
M  V30 1439 C 140.503 -0.348153 1.92477 0
M  V30 1440 O 141.709 -0.621459 2.64292 0
M  V30 1441 C 140.165 1.93624 3.03377 0
M  V30 1442 C 139.773 3.43875 2.87148 0
M  V30 1443 C 141.517 1.86954 3.81115 0
M  V30 1444 C 139.424 4.18875 4.1749 0
M  V30 1445 H 138.354 0.41135 0.631907 0
M  V30 1446 H 141.005 1.50433 1.05082 0
M  V30 1447 H 139.387 1.46904 3.67743 0
M  V30 1448 H 140.561 3.98338 2.31653 0
M  V30 1449 H 138.876 3.51744 2.22856 0
M  V30 1450 H 141.473 2.40275 4.77673 0
M  V30 1451 H 141.816 0.839518 4.07747 0
M  V30 1452 H 142.349 2.31477 3.23517 0
M  V30 1453 H 139.088 5.22332 3.96043 0
M  V30 1454 H 138.608 3.69193 4.72712 0
M  V30 1455 H 140.287 4.27134 4.85968 0
M  V30 1456 N 140.419 -1.14872 1.07899 0
M  V30 1457 C 141.369 -2.17809 0.674027 0
M  V30 1458 C 142.353 -1.58008 -0.303699 0
M  V30 1459 O 143.545 -1.76616 -0.11654 0
M  V30 1460 C 140.674 -3.43208 0.0793318 0
M  V30 1461 C 139.76 -4.10051 1.08253 0
M  V30 1462 N 140.151 -4.52296 2.2641 0
M  V30 1463 C 138.449 -4.36469 0.917124 0
M  V30 1464 C 139.15 -5.04199 2.901 0
M  V30 1465 N 138.126 -4.98088 2.17736 0
M  V30 1466 H 141.928 -2.48207 1.57386 0
M  V30 1467 H 139.442 -1.315 0.952976 0
M  V30 1468 H 141.439 -4.16272 -0.228719 0
M  V30 1469 H 140.099 -3.14291 -0.815551 0
M  V30 1470 H 141.11 -4.45504 2.64096 0
M  V30 1471 H 137.787 -4.17432 0.0756078 0
M  V30 1472 H 139.177 -5.46802 3.90458 0
M  V30 1473 N 141.898 -0.863906 -1.31812 0
M  V30 1474 C 143.126 -0.486111 -2.01108 0
M  V30 1475 C 143.541 0.919755 -1.64882 0
M  V30 1476 O 142.898 1.60162 -0.874893 0
M  V30 1477 C 142.949 -0.626435 -3.56031 0
M  V30 1478 O 142.67 -1.97693 -3.90959 0
M  V30 1479 C 144.171 -0.248857 -4.42601 0
M  V30 1480 H 141.391 -0.190052 -0.643523 0
M  V30 1481 H 143.935 -1.1634 -1.68182 0
M  V30 1482 H 142.09 0.00322717 -3.874 0
M  V30 1483 H 142.504 -1.98034 -4.85678 0
M  V30 1484 H 143.978 -0.398016 -5.50563 0
M  V30 1485 H 144.455 0.811489 -4.31638 0
M  V30 1486 H 145.061 -0.853971 -4.16638 0
M  V30 1487 N 143.376 1.44774 -0.622745 0
M  V30 1488 C 144.601 2.06999 -0.128968 0
M  V30 1489 C 145.026 1.4617 1.1839 0
M  V30 1490 O 144.384 0.560007 1.72434 0
M  V30 1491 C 144.432 3.60595 -0.0188351 0
M  V30 1492 O 143.536 3.99398 1.02739 0
M  V30 1493 H 142.877 0.659047 -0.0809544 0
M  V30 1494 H 145.407 1.85784 -0.85705 0
M  V30 1495 H 145.417 4.07627 0.174476 0
M  V30 1496 H 144.092 4.04252 -0.977384 0
M  V30 1497 H 142.669 3.64011 0.809326 0
M  V30 1498 N 144.854 0.36279 1.53368 0
M  V30 1499 C 146.084 -0.228281 2.05335 0
M  V30 1500 C 146.492 -1.43226 1.23625 0
M  V30 1501 O 145.835 -1.81717 0.269206 0
M  V30 1502 C 145.897 -0.688549 3.52845 0
M  V30 1503 C 145.561 0.398362 4.5526 0
M  V30 1504 C 146.558 1.24732 5.04716 0
M  V30 1505 C 144.243 0.557805 4.99193 0
M  V30 1506 C 146.237 2.2411 5.96702 0
M  V30 1507 C 143.924 1.55495 5.90986 0
M  V30 1508 C 144.922 2.39503 6.39631 0
M  V30 1509 O 144.61 3.37517 7.29615 0
M  V30 1510 H 144.342 -0.044395 0.674541 0
M  V30 1511 H 146.896 0.518668 1.98744 0
M  V30 1512 H 145.126 -1.48706 3.56964 0
M  V30 1513 H 146.815 -1.20231 3.87685 0
M  V30 1514 H 147.581 1.13532 4.71525 0
M  V30 1515 H 143.46 -0.0862959 4.60919 0
M  V30 1516 H 147.004 2.89718 6.34594 0
M  V30 1517 H 142.901 1.66744 6.23592 0
M  V30 1518 H 143.669 3.33213 7.47604 0
M  V30 1519 N 146.332 -1.57332 0.0918853 0
M  V30 1520 C 147.242 -2.17368 -0.882505 0
M  V30 1521 C 148.258 -1.14226 -1.31257 0
M  V30 1522 O 149.434 -1.46582 -1.38115 0
M  V30 1523 C 146.499 -2.73962 -2.12476 0
M  V30 1524 C 145.56 -3.92048 -1.7492 0
M  V30 1525 C 144.793 -4.45933 -2.93223 0
M  V30 1526 O 145.016 -3.98764 -4.07852 0
M  V30 1527 O 143.95 -5.36999 -2.71875 0
M  V30 1528 H 147.776 -3.01031 -0.40172 0
M  V30 1529 H 145.361 -1.48813 -0.132291 0
M  V30 1530 H 147.243 -3.10147 -2.85283 0
M  V30 1531 H 145.918 -1.93347 -2.59613 0
M  V30 1532 H 144.825 -3.6068 -0.993025 0
M  V30 1533 H 146.158 -4.74017 -1.32548 0
M  V30 1534 N 147.81 0.181792 -1.56548 0
M  V30 1535 C 148.758 1.24461 -1.965 0
M  V30 1536 C 149.752 1.464 -0.852261 0
M  V30 1537 O 150.958 1.47103 -1.03733 0
M  V30 1538 H 147.333 0.418138 -0.625031 0
M  V30 1539 H 149.304 0.880714 -2.85107 0
M  V30 1540 C 148.053 2.57891 -2.33212 0
M  V30 1541 H 147.376 2.41829 -3.18369 0
M  V30 1542 H 148.816 3.3097 -2.65019 0
M  V30 1543 C 147.275 3.15871 -1.17163 0
M  V30 1544 O 147.805 3.9913 -0.453708 0
M  V30 1545 N 146.011 2.74808 -0.944936 0
M  V30 1546 H 145.558 2.07205 -1.53049 0
M  V30 1547 H 145.516 3.13939 -0.170286 0
M  V30 1548 N 149.288 1.51039 0.449983 0
M  V30 1549 C 150.534 1.63322 1.20223 0
M  V30 1550 C 150.867 0.34241 1.91158 0
M  V30 1551 O 150.142 -0.657344 1.83055 0
M  V30 1552 C 150.425 2.82801 2.22925 0
M  V30 1553 C 150.278 4.21823 1.56157 0
M  V30 1554 C 151.597 2.97807 3.24035 0
M  V30 1555 H 148.716 0.594407 0.435718 0
M  V30 1556 H 151.358 1.83489 0.493136 0
M  V30 1557 H 149.508 2.65738 2.834 0
M  V30 1558 H 151.18 4.50526 0.991162 0
M  V30 1559 H 149.423 4.25105 0.864172 0
M  V30 1560 H 150.094 5.01391 2.30891 0
M  V30 1561 H 152.57 3.13497 2.73603 0
M  V30 1562 H 151.446 3.82992 3.93202 0
M  V30 1563 H 151.707 2.09328 3.89402 0
M  V30 1564 N 150.766 -0.704594 1.40972 0
M  V30 1565 C 151.696 -1.83124 1.44872 0
M  V30 1566 C 152.677 -1.67281 0.30838 0
M  V30 1567 O 153.862 -1.87149 0.518556 0
M  V30 1568 C 150.992 -3.21181 1.32136 0
M  V30 1569 C 149.946 -3.51714 2.43888 0
M  V30 1570 C 149.272 -4.89032 2.16222 0
M  V30 1571 C 150.572 -3.516 3.86232 0
M  V30 1572 H 152.266 -1.80117 2.39161 0
M  V30 1573 H 149.812 -0.865145 1.15114 0
M  V30 1574 H 151.765 -3.99702 1.33479 0
M  V30 1575 H 150.489 -3.24791 0.343279 0
M  V30 1576 H 149.148 -2.75539 2.41813 0
M  V30 1577 H 148.796 -4.89256 1.16778 0
M  V30 1578 H 148.496 -5.10426 2.911 0
M  V30 1579 H 150.02 -5.69873 2.19265 0
M  V30 1580 H 151.434 -4.2014 3.9007 0
M  V30 1581 H 149.831 -3.84523 4.60719 0
M  V30 1582 H 150.901 -2.50757 4.15029 0
M  V30 1583 N 152.244 -1.26651 -0.937939 0
M  V30 1584 C 153.492 -1.12165 -1.68118 0
M  V30 1585 C 153.813 0.334983 -1.92101 0
M  V30 1586 O 153.083 1.23583 -1.52 0
M  V30 1587 H 151.663 -0.412093 -0.623048 0
M  V30 1588 H 154.325 -1.59027 -1.12678 0
M  V30 1589 H 153.421 -1.64289 -2.6536 0
M  V30 1590 N 153.722 1.14298 -1.08507 0
M  V30 1591 C 154.669 2.19414 -0.715965 0
M  V30 1592 C 155.639 1.63399 0.298326 0
M  V30 1593 O 156.824 1.89929 0.182101 0
M  V30 1594 C 153.964 3.44845 -0.132534 0
M  V30 1595 C 153.077 4.15007 -1.19973 0
M  V30 1596 C 152.212 5.28024 -0.580048 0
M  V30 1597 C 151.251 5.9002 -1.62921 0
M  V30 1598 N 150.388 6.94485 -1.03125 0
M  V30 1599 H 155.228 2.50336 -1.61666 0
M  V30 1600 H 152.765 1.2293 -0.807882 0
M  V30 1601 H 154.723 4.16601 0.223454 0
M  V30 1602 H 153.353 3.14403 0.731467 0
M  V30 1603 H 152.405 3.41629 -1.67313 0
M  V30 1604 H 153.717 4.57178 -1.99473 0
M  V30 1605 H 152.871 6.06455 -0.172364 0
M  V30 1606 H 151.61 4.87076 0.246603 0
M  V30 1607 H 150.615 5.10291 -2.04654 0
M  V30 1608 H 151.84 6.33042 -2.45835 0
M  V30 1609 H 149.786 6.55612 -0.225711 0
M  V30 1610 H 149.703 7.35148 -1.76334 0
M  V30 1611 H 150.971 7.7679 -0.649458 0
M  V30 1612 N 155.201 0.870884 1.31352 0
M  V30 1613 C 156.149 0.316445 2.30437 0
M  V30 1614 C 157.143 -0.568965 1.59559 0
M  V30 1615 O 158.349 -0.454964 1.74155 0
M  V30 1616 H 154.724 0.0836521 0.747333 0
M  V30 1617 H 156.695 1.16606 2.74673 0
M  V30 1618 C 155.444 -0.46635 3.44558 0
M  V30 1619 H 154.767 0.205687 3.99271 0
M  V30 1620 H 156.207 -0.819614 4.16003 0
M  V30 1621 C 154.666 -1.65797 2.9328 0
M  V30 1622 O 155.196 -2.75728 2.92125 0
M  V30 1623 N 153.402 -1.49041 2.4947 0
M  V30 1624 H 152.949 -0.59612 2.50608 0
M  V30 1625 H 152.907 -2.28911 2.15516 0
M  V30 1626 N 156.679 -1.44442 0.630414 0
M  V30 1627 C 157.627 -2.32437 -0.0871428 0
M  V30 1628 C 158.621 -1.47304 -0.836525 0
M  V30 1629 O 159.827 -1.63653 -0.749506 0
M  V30 1630 H 156.202 -0.750533 -0.0469495 0
M  V30 1631 H 158.173 -2.90709 0.673096 0
M  V30 1632 C 156.922 -3.31288 -1.05563 0
M  V30 1633 H 156.245 -3.96805 -0.488426 0
M  V30 1634 H 157.685 -3.9554 -1.52721 0
M  V30 1635 C 156.144 -2.6016 -2.14052 0
M  V30 1636 O 156.674 -2.39997 -3.22124 0
M  V30 1637 N 154.88 -2.19911 -1.89967 0
M  V30 1638 H 154.427 -2.36509 -1.02085 0
M  V30 1639 H 154.385 -1.72646 -2.62756 0
M  V30 1640 N 158.157 -0.370918 -1.53173 0
M  V30 1641 C 159.403 0.217423 -2.01631 0
M  V30 1642 C 159.736 1.47983 -1.25756 0
M  V30 1643 O 159.011 1.91274 -0.352764 0
M  V30 1644 C 159.294 0.503982 -3.56556 0
M  V30 1645 C 159.147 -0.77243 -4.43118 0
M  V30 1646 C 160.466 1.30234 -4.20389 0
M  V30 1647 H 157.585 0.0775486 -0.732909 0
M  V30 1648 H 160.227 -0.496863 -1.83388 0
M  V30 1649 H 158.377 1.11248 -3.72231 0
M  V30 1650 H 160.049 -1.4098 -4.39229 0
M  V30 1651 H 158.292 -1.39167 -4.10871 0
M  V30 1652 H 158.963 -0.526815 -5.4948 0
M  V30 1653 H 161.439 0.787546 -4.08579 0
M  V30 1654 H 160.315 1.47158 -5.28806 0
M  V30 1655 H 160.576 2.31237 -3.76805 0
M  V30 1656 N 159.635 1.57281 -0.100228 0
M  V30 1657 C 160.912 1.86014 0.604812 0
M  V30 1658 C 161.292 0.998025 1.86018 0
M  V30 1659 O 160.64 0.0718184 2.28387 0
M  V30 1660 C 160.85 3.36784 0.915278 0
M  V30 1661 C 162.198 4.04957 1.27651 0
M  V30 1662 O 163.222 3.41695 1.00613 0
M  V30 1663 O 162.081 5.16593 1.7831 0
M  V30 1664 H 159.175 0.76942 0.303185 0
M  V30 1665 H 161.721 1.69176 -0.133313 0
M  V30 1666 H 160.493 3.91292 0.0248896 0
M  V30 1667 H 160.116 3.58987 1.70921 0
M  V30 1668 N 161.113 -0.173488 1.56642 0
M  V30 1669 C 162.359 -0.891784 1.8214 0
M  V30 1670 C 162.692 -1.8199 0.677736 0
M  V30 1671 O 161.967 -1.91842 -0.320446 0
M  V30 1672 C 162.25 -1.68933 3.18015 0
M  V30 1673 C 162.103 -0.784487 4.42906 0
M  V30 1674 C 163.422 -2.65748 3.50808 0
M  V30 1675 H 160.541 -0.322761 0.662567 0
M  V30 1676 H 163.183 -0.158095 1.89341 0
M  V30 1677 H 161.333 -2.31482 3.12007 0
M  V30 1678 H 163.005 -0.172046 4.60979 0
M  V30 1679 H 161.248 -0.0924117 4.33702 0
M  V30 1680 H 161.919 -1.37799 5.34524 0
M  V30 1681 H 164.395 -2.13327 3.57255 0
M  V30 1682 H 163.271 -3.18619 4.4696 0
M  V30 1683 H 163.532 -3.45842 2.75401 0
M  V30 1684 N 162.591 -1.51276 -0.441967 0
M  V30 1685 C 163.84 -1.6295 -1.18871 0
M  V30 1686 C 164.153 -0.349312 -1.92456 0
M  V30 1687 O 165.359 -0.345355 -2.69295 0
M  V30 1688 C 163.815 -2.87759 -2.16155 0
M  V30 1689 C 163.423 -4.22764 -1.48239 0
M  V30 1690 C 165.167 -3.08788 -2.91291 0
M  V30 1691 C 163.074 -5.38728 -2.4398 0
M  V30 1692 H 162.004 -0.606913 -0.447406 0
M  V30 1693 H 164.655 -1.77739 -0.456205 0
M  V30 1694 H 163.037 -2.66593 -2.92821 0
M  V30 1695 H 164.211 -4.54293 -0.771635 0
M  V30 1696 H 162.526 -4.07575 -0.852741 0
M  V30 1697 H 165.123 -3.92599 -3.63002 0
M  V30 1698 H 165.466 -2.21679 -3.5237 0
M  V30 1699 H 165.999 -3.30272 -2.21733 0
M  V30 1700 H 162.738 -6.28082 -1.87598 0
M  V30 1701 H 162.258 -5.1158 -3.13123 0
M  V30 1702 H 163.937 -5.70489 -3.05207 0
M  V30 1703 N 164.069 0.697108 -1.41344 0
M  V30 1704 C 165.016 1.81106 -1.43071 0
M  V30 1705 C 165.986 1.63632 -0.285275 0
M  V30 1706 O 167.171 1.84504 -0.486091 0
M  V30 1707 C 164.311 3.18975 -1.31715 0
M  V30 1708 C 163.424 3.47892 -2.56115 0
M  V30 1709 C 162.559 4.75367 -2.37064 0
M  V30 1710 C 161.598 4.97247 -3.56948 0
M  V30 1711 N 160.735 6.15947 -3.36977 0
M  V30 1712 H 165.575 1.78965 -2.38276 0
M  V30 1713 H 163.112 0.873975 -1.18322 0
M  V30 1714 H 165.07 3.98615 -1.23133 0
M  V30 1715 H 163.7 3.20297 -0.401183 0
M  V30 1716 H 162.752 2.62669 -2.75153 0
M  V30 1717 H 164.064 3.59962 -3.45295 0
M  V30 1718 H 163.218 5.63059 -2.25941 0
M  V30 1719 H 161.957 4.65541 -1.45338 0
M  V30 1720 H 160.962 4.08004 -3.68527 0
M  V30 1721 H 162.187 5.08934 -4.49626 0
M  V30 1722 H 160.133 6.07336 -2.47949 0
M  V30 1723 H 160.05 6.28777 -4.19732 0
M  V30 1724 H 161.318 7.06377 -3.29623 0
M  V30 1725 N 165.547 1.27147 0.931209 0
M  V30 1726 C 166.795 1.13055 1.6752 0
M  V30 1727 C 167.116 -0.324791 1.92276 0
M  V30 1728 O 166.386 -1.22775 1.52654 0
M  V30 1729 H 164.966 0.415391 0.620854 0
M  V30 1730 H 167.628 1.59623 1.11833 0
M  V30 1731 H 166.724 1.65694 2.64485 0
M  V30 1732 N 167.025 -1.13721 1.09112 0
M  V30 1733 C 168.272 -1.84924 0.825192 0
M  V30 1734 C 168.6 -1.83347 -0.649151 0
M  V30 1735 O 167.855 -1.26449 -1.49362 0
M  V30 1736 C 168.154 -3.32861 1.30146 0
M  V30 1737 C 167.82 -3.54621 2.78486 0
M  V30 1738 C 166.482 -3.60268 3.18999 0
M  V30 1739 C 168.834 -3.62855 3.74146 0
M  V30 1740 C 166.162 -3.71679 4.53951 0
M  V30 1741 C 168.514 -3.75793 5.08883 0
M  V30 1742 C 167.178 -3.79692 5.4899 0
M  V30 1743 H 166.448 -0.676684 0.301959 0
M  V30 1744 H 169.095 -1.3428 1.36533 0
M  V30 1745 H 167.4 -3.85835 0.681064 0
M  V30 1746 H 169.097 -3.86395 1.07236 0
M  V30 1747 H 165.687 -3.50879 2.46134 0
M  V30 1748 H 169.871 -3.57775 3.43963 0
M  V30 1749 H 165.127 -3.72963 4.84467 0
M  V30 1750 H 169.301 -3.81107 5.82864 0
M  V30 1751 H 166.928 -3.88287 6.53558 0
M  V30 1752 N 168.503 -0.877838 -1.30888 0
M  V30 1753 C 169.466 -0.344265 -2.266 0
M  V30 1754 C 170.466 0.50922 -1.52524 0
M  V30 1755 O 171.656 0.317398 -1.71284 0
M  V30 1756 C 168.788 0.510198 -3.37061 0
M  V30 1757 H 169.981 -1.1893 -2.7531 0
M  V30 1758 H 167.534 -0.654088 -1.41956 0
M  V30 1759 H 168.269 1.37612 -2.93655 0
M  V30 1760 H 168.054 -0.101047 -3.9197 0
M  V30 1761 H 169.544 0.875537 -4.08319 0
M  V30 1762 N 169.982 1.44106 -0.638065 0
M  V30 1763 C 171.398 1.56672 -0.304286 0
M  V30 1764 C 171.598 1.6244 1.19228 0
M  V30 1765 O 170.654 1.57121 1.9766 0
M  V30 1766 C 171.967 2.83503 -1.00231 0
M  V30 1767 C 173.515 2.97226 -0.981116 0
M  V30 1768 C 173.99 4.26868 -1.65974 0
M  V30 1769 N 175.481 4.33698 -1.62666 0
M  V30 1770 C 176.216 5.32745 -2.12063 0
M  V30 1771 N 175.712 6.38157 -2.6968 0
M  V30 1772 N 177.505 5.24299 -2.02651 0
M  V30 1773 H 169.656 1.38605 -1.60942 0
M  V30 1774 H 171.919 0.664661 -0.675965 0
M  V30 1775 H 171.625 2.85251 -2.0573 0
M  V30 1776 H 171.499 3.73251 -0.54439 0
M  V30 1777 H 173.886 2.95027 0.0654188 0
M  V30 1778 H 173.967 2.08808 -1.47759 0
M  V30 1779 H 173.611 4.29826 -2.70576 0
M  V30 1780 H 173.541 5.14156 -1.13804 0
M  V30 1781 H 176.032 3.58138 -1.20606 0
M  V30 1782 H 176.345 7.10029 -3.05087 0
M  V30 1783 H 174.69 6.38823 -2.73734 0
M  V30 1784 H 177.881 4.4086 -1.57353 0
M  V30 1785 H 178.054 6.01334 -2.41457 0
M  V30 1786 N 171.46 0.379036 1.52974 0
M  V30 1787 C 172.707 -0.206421 2.01445 0
M  V30 1788 C 173.035 -1.47668 1.26587 0
M  V30 1789 O 172.29 -1.92514 0.351675 0
M  V30 1790 C 172.589 -0.53096 3.53434 0
M  V30 1791 C 172.255 0.646546 4.46241 0
M  V30 1792 C 170.917 0.969604 4.7133 0
M  V30 1793 C 173.269 1.43479 5.01062 0
M  V30 1794 C 170.597 2.08263 5.48492 0
M  V30 1795 C 172.949 2.53834 5.7944 0
M  V30 1796 C 171.613 2.86659 6.02812 0
M  V30 1797 H 170.883 -0.0755349 0.73714 0
M  V30 1798 H 173.53 0.514271 1.84465 0
M  V30 1799 H 171.835 -1.33285 3.68432 0
M  V30 1800 H 173.532 -0.996417 3.88423 0
M  V30 1801 H 170.122 0.384734 4.2687 0
M  V30 1802 H 174.306 1.19844 4.81613 0
M  V30 1803 H 169.562 2.34078 5.64816 0
M  V30 1804 H 173.736 3.15319 6.20924 0
M  V30 1805 H 171.363 3.73026 6.62387 0
M  V30 1806 N 172.938 -1.57226 0.108567 0
M  V30 1807 C 174.184 -1.95121 -0.552761 0
M  V30 1808 C 174.517 -0.991345 -1.66991 0
M  V30 1809 O 173.792 -0.0267211 -1.94482 0
M  V30 1810 C 174.075 -3.43039 -1.09528 0
M  V30 1811 C 173.928 -4.49797 0.0177332 0
M  V30 1812 C 175.247 -3.92567 -1.98945 0
M  V30 1813 H 172.366 -0.709496 -0.199461 0
M  V30 1814 H 175.008 -1.89126 0.182011 0
M  V30 1815 H 173.158 -3.48279 -1.72146 0
M  V30 1816 H 174.83 -4.56661 0.652584 0
M  V30 1817 H 173.073 -4.284 0.682309 0
M  V30 1818 H 173.744 -5.50528 -0.402919 0
M  V30 1819 H 176.22 -3.89565 -1.46214 0
M  V30 1820 H 175.096 -4.96605 -2.33827 0
M  V30 1821 H 175.357 -3.32648 -2.91201 0
M  V30 1822 N 174.416 0.165178 -1.56732 0
M  V30 1823 C 175.693 0.908443 -1.73224 0
M  V30 1824 C 176.073 2.0013 -0.67165 0
M  V30 1825 O 175.421 2.26353 0.31253 0
M  V30 1826 C 175.631 1.46756 -3.16644 0
M  V30 1827 C 176.979 1.93809 -3.77787 0
M  V30 1828 O 178.003 1.56537 -3.1996 0
M  V30 1829 O 176.862 2.62486 -4.79336 0
M  V30 1830 H 173.956 0.428025 -0.707618 0
M  V30 1831 H 176.502 0.152526 -1.69013 0
M  V30 1832 H 175.274 0.68129 -3.85323 0
M  V30 1833 H 174.897 2.28749 -3.25207 0
M  V30 1834 N 175.894 1.51508 0.433938 0
M  V30 1835 C 176.857 1.72473 1.50949 0
M  V30 1836 C 177.857 0.594725 1.49398 0
M  V30 1837 O 179.047 0.862315 1.5136 0
M  V30 1838 C 176.179 1.78431 2.90474 0
M  V30 1839 H 177.372 2.68467 1.33662 0
M  V30 1840 H 174.925 1.41549 0.662836 0
M  V30 1841 H 175.66 0.842645 3.13161 0
M  V30 1842 H 175.445 2.60558 2.93005 0
M  V30 1843 H 176.935 1.96479 3.68491 0
M  V30 1844 N 177.372 -0.689602 1.41712 0
M  V30 1845 C 178.319 -1.80345 1.44029 0
M  V30 1846 C 179.289 -1.63478 0.293948 0
M  V30 1847 O 180.474 -1.84244 0.495869 0
M  V30 1848 C 177.614 -3.18272 1.33405 0
M  V30 1849 C 176.727 -3.46529 2.57956 0
M  V30 1850 C 175.862 -4.74103 2.39582 0
M  V30 1851 C 174.901 -4.95347 3.5958 0
M  V30 1852 N 174.038 -6.14151 3.40239 0
M  V30 1853 H 178.878 -1.77698 2.39222 0
M  V30 1854 H 176.415 -0.867688 1.18784 0
M  V30 1855 H 178.373 -3.97956 1.25246 0
M  V30 1856 H 177.003 -3.2008 0.418164 0
M  V30 1857 H 176.055 -2.61207 2.76542 0
M  V30 1858 H 177.367 -3.58126 3.47199 0
M  V30 1859 H 176.521 -5.61853 2.28924 0
M  V30 1860 H 175.26 -4.64763 1.47805 0
M  V30 1861 H 174.265 -4.06044 3.70686 0
M  V30 1862 H 175.49 -5.06542 4.52318 0
M  V30 1863 H 173.436 -6.06013 2.51167 0
M  V30 1864 H 173.353 -6.26543 4.23061 0
M  V30 1865 H 174.621 -7.04619 3.33365 0
M  V30 1866 N 178.85 -1.27639 -0.924453 0
M  V30 1867 C 180.078 -1.16989 -1.70649 0
M  V30 1868 C 180.493 0.272869 -1.86818 0
M  V30 1869 O 179.85 1.18549 -1.38753 0
M  V30 1870 C 179.901 -1.85229 -3.10439 0
M  V30 1871 O 179.622 -3.23868 -2.95028 0
M  V30 1872 C 181.123 -1.80746 -4.04779 0
M  V30 1873 H 178.343 -0.406595 -0.53378 0
M  V30 1874 H 180.887 -1.68569 -1.15778 0
M  V30 1875 H 179.042 -1.37545 -3.6216 0
M  V30 1876 H 179.456 -3.57889 -3.83426 0
M  V30 1877 H 180.93 -2.33101 -5.00368 0
M  V30 1878 H 181.407 -0.777499 -4.32263 0
M  V30 1879 H 182.013 -2.28059 -3.58984 0
M  V30 1880 N 180.328 1.1314 -1.09713 0
M  V30 1881 C 181.258 2.20748 -0.761102 0
M  V30 1882 C 182.239 1.68061 0.262566 0
M  V30 1883 O 183.424 1.93765 0.129977 0
M  V30 1884 C 180.554 3.46812 -0.184054 0
M  V30 1885 C 179.508 4.12606 -1.13757 0
M  V30 1886 C 178.834 5.33031 -0.422083 0
M  V30 1887 C 180.134 4.59603 -2.48118 0
M  V30 1888 H 181.828 2.49113 -1.66082 0
M  V30 1889 H 179.374 1.19734 -0.799987 0
M  V30 1890 H 181.327 4.21353 0.0631215 0
M  V30 1891 H 180.051 3.17851 0.750868 0
M  V30 1892 H 178.71 3.40036 -1.37007 0
M  V30 1893 H 178.358 5.00335 0.517072 0
M  V30 1894 H 178.058 5.77999 -1.05788 0
M  V30 1895 H 179.582 6.10325 -0.183277 0
M  V30 1896 H 180.996 5.25552 -2.29059 0
M  V30 1897 H 179.393 5.15321 -3.07514 0
M  V30 1898 H 180.463 3.73971 -3.08665 0
M  V30 1899 N 181.806 0.884767 1.30421 0
M  V30 1900 C 182.716 0.355398 2.31892 0
M  V30 1901 C 183.732 -0.542261 1.65335 0
M  V30 1902 O 184.908 -0.435432 1.96637 0
M  V30 1903 C 181.973 -0.421661 3.44126 0
M  V30 1904 C 181.034 0.505727 4.26311 0
M  V30 1905 C 180.267 -0.234343 5.33185 0
M  V30 1906 O 180.49 -1.46045 5.51386 0
M  V30 1907 O 179.424 0.415443 6.00465 0
M  V30 1908 H 183.25 1.19685 2.79122 0
M  V30 1909 H 180.835 0.648596 1.34587 0
M  V30 1910 H 182.717 -0.861641 4.12497 0
M  V30 1911 H 181.392 -1.23942 2.99032 0
M  V30 1912 H 180.299 0.994513 3.60639 0
M  V30 1913 H 181.632 1.28948 4.75009 0
M  V30 1914 N 183.284 -1.43765 0.645699 0
M  V30 1915 C 184.53 -2.02197 0.156271 0
M  V30 1916 C 184.863 -1.50776 -1.22393 0
M  V30 1917 O 184.138 -0.697771 -1.81553 0
M  V30 1918 C 184.421 -3.59749 0.158872 0
M  V30 1919 C 184.274 -4.21419 1.57245 0
M  V30 1920 C 185.593 -4.37149 -0.50879 0
M  V30 1921 H 182.712 -0.734694 0.0582602 0
M  V30 1922 H 185.354 -1.71157 0.824951 0
M  V30 1923 H 183.504 -3.86325 -0.410525 0
M  V30 1924 H 185.176 -4.059 2.19186 0
M  V30 1925 H 183.419 -3.78356 2.122 0
M  V30 1926 H 184.09 -5.30482 1.52619 0
M  V30 1927 H 186.566 -4.16093 -0.024412 0
M  V30 1928 H 185.442 -5.4683 -0.476213 0
M  V30 1929 H 185.703 -4.12839 -1.58165 0
M  V30 1930 N 184.763 -0.387143 -1.52771 0
M  V30 1931 C 185.711 0.463953 -2.27926 0
M  V30 1932 C 186.705 1.06493 -1.31741 0
M  V30 1933 O 187.911 1.00565 -1.49287 0
M  V30 1934 H 184.286 0.16837 -0.732909 0
M  V30 1935 H 186.257 -0.19141 -2.97785 0
M  V30 1936 C 185.006 1.5803 -3.09713 0
M  V30 1937 H 184.329 1.12718 -3.83581 0
M  V30 1938 H 185.769 2.15008 -3.65442 0
M  V30 1939 C 184.228 2.53509 -2.2189 0
M  V30 1940 O 184.758 3.56863 -1.84422 0
M  V30 1941 N 182.964 2.23199 -1.86093 0
M  V30 1942 H 182.511 1.39185 -2.16761 0
M  V30 1943 H 182.469 2.87333 -1.27621 0
M  V30 1944 N 186.241 1.57166 -0.116904 0
M  V30 1945 C 187.489 1.94737 0.540533 0
M  V30 1946 C 187.81 1.00096 1.67349 0
M  V30 1947 O 187.08 0.0568854 1.95817 0
M  V30 1948 H 185.66 0.718981 0.202669 0
M  V30 1949 H 188.322 1.94017 -0.185353 0
M  V30 1950 H 187.418 2.97719 0.936483 0
M  V30 1951 N 187.719 -0.156864 1.56817 0
M  V30 1952 C 188.629 -1.2136 2.00771 0
M  V30 1953 C 189.645 -1.47598 0.921459 0
M  V30 1954 O 190.821 -1.59462 1.2302 0
M  V30 1955 C 187.886 -2.52943 2.37109 0
M  V30 1956 C 186.947 -2.34439 3.59634 0
M  V30 1957 C 186.18 -3.59748 3.94229 0
M  V30 1958 O 186.403 -4.65526 3.29609 0
M  V30 1959 O 185.337 -3.52998 4.8752 0
M  V30 1960 H 189.163 -0.870468 2.90958 0
M  V30 1961 H 186.748 -0.36484 1.44877 0
M  V30 1962 H 188.63 -3.30538 2.61386 0
M  V30 1963 H 187.305 -2.86806 1.5008 0
M  V30 1964 H 186.212 -1.54828 3.40557 0
M  V30 1965 H 187.545 -2.05496 4.4725 0
M  V30 1966 N 189.197 -1.51736 -0.425897 0
M  V30 1967 C 190.425 -1.68794 -1.1965 0
M  V30 1968 C 190.84 -0.390164 -1.84725 0
M  V30 1969 O 190.197 0.632376 -1.71194 0
M  V30 1970 C 190.248 -2.81174 -2.27208 0
M  V30 1971 O 189.969 -4.05925 -1.64793 0
M  V30 1972 C 191.47 -3.09599 -3.17275 0
M  V30 1973 H 188.69 -0.566128 -0.360194 0
M  V30 1974 H 191.234 -1.98211 -0.503249 0
M  V30 1975 H 189.389 -2.54324 -2.9223 0
M  V30 1976 H 189.803 -4.68423 -2.35967 0
M  V30 1977 H 191.277 -3.91786 -3.88854 0
M  V30 1978 H 191.754 -2.22468 -3.78688 0
M  V30 1979 H 192.36 -3.38151 -2.57941 0
M  V30 1980 N 190.675 0.682077 -1.42076 0
M  V30 1981 C 191.924 1.43786 -1.41451 0
M  V30 1982 C 192.237 1.95574 -0.0317074 0
M  V30 1983 O 193.443 2.71326 0.0971462 0
M  V30 1984 C 191.899 2.60071 -2.48779 0
M  V30 1985 C 191.507 2.15013 -3.93031 0
M  V30 1986 C 193.251 3.37626 -2.57311 0
M  V30 1987 C 191.158 3.28336 -4.91883 0
M  V30 1988 H 190.088 0.540143 -0.526082 0
M  V30 1989 H 192.739 0.739157 -1.67955 0
M  V30 1990 H 191.121 3.32275 -2.15429 0
M  V30 1991 H 192.295 1.5001 -4.35699 0
M  V30 1992 H 190.61 1.50416 -3.88284 0
M  V30 1993 H 193.207 4.22012 -3.28345 0
M  V30 1994 H 193.55 3.83727 -1.61429 0
M  V30 1995 H 194.083 2.72488 -2.89819 0
M  V30 1996 H 190.822 2.87234 -5.89217 0
M  V30 1997 H 190.342 3.92145 -4.53853 0
M  V30 1998 H 192.021 3.93913 -5.13265 0
M  V30 1999 N 192.153 1.28127 0.917671 0
M  V30 2000 C 193.381 1.17892 1.70026 0
M  V30 2001 C 193.796 -0.262958 1.8696 0
M  V30 2002 O 193.153 -1.17811 1.3938 0
M  V30 2003 C 193.204 1.86872 3.09453 0
M  V30 2004 O 192.925 3.25428 2.93306 0
M  V30 2005 C 194.426 1.8289 4.03815 0
M  V30 2006 H 191.646 0.40942 0.531617 0
M  V30 2007 H 194.19 1.69181 1.14883 0
M  V30 2008 H 192.345 1.39464 3.61426 0
M  V30 2009 H 192.759 3.59918 3.81523 0
M  V30 2010 H 194.233 2.35751 4.99125 0
M  V30 2011 H 194.71 0.800412 4.31845 0
M  V30 2012 H 195.316 2.29959 3.57769 0
M  V30 2013 N 193.631 -1.12557 1.10312 0
M  V30 2014 C 194.594 -2.16434 0.75424 0
M  V30 2015 C 195.594 -1.59278 -0.220685 0
M  V30 2016 O 196.784 -1.742 0.00230591 0
M  V30 2017 C 193.916 -3.40699 0.116987 0
M  V30 2018 H 195.109 -2.48811 1.67431 0
M  V30 2019 H 192.662 -1.27542 0.903475 0
M  V30 2020 H 193.397 -3.13921 -0.813877 0
M  V30 2021 H 193.182 -3.83459 0.818613 0
M  V30 2022 H 194.672 -4.17451 -0.111387 0
M  V30 2023 N 195.109 -0.891671 -1.2995 0
M  V30 2024 C 196.386 -0.433307 -1.9074 0
M  V30 2025 C 196.766 1.08646 -1.80995 0
M  V30 2026 O 196.114 1.92476 -1.23147 0
M  V30 2027 C 196.324 -0.938895 -3.36134 0
M  V30 2028 C 197.672 -0.977829 -4.13187 0
M  V30 2029 O 198.696 -0.886015 -3.45005 0
M  V30 2030 O 197.555 -1.11453 -5.35015 0
M  V30 2031 H 194.649 -0.133699 -0.816121 0
M  V30 2032 H 197.195 -0.981011 -1.38471 0
M  V30 2033 H 195.967 -1.98281 -3.37343 0
M  V30 2034 H 195.59 -0.37074 -3.95868 0
M  V30 2035 N 196.587 1.43421 -0.653314 0
M  V30 2036 C 197.537 2.2792 0.060558 0
M  V30 2037 C 198.521 1.39906 0.794677 0
M  V30 2038 O 199.713 1.63536 0.677128 0
M  V30 2039 C 196.842 3.27603 1.0262 0
M  V30 2040 C 195.928 4.23104 0.290551 0
M  V30 2041 N 196.319 5.01031 -0.692967 0
M  V30 2042 C 194.617 4.42816 0.531984 0
M  V30 2043 C 195.318 5.70626 -1.12963 0
M  V30 2044 N 194.294 5.41617 -0.463867 0
M  V30 2045 H 198.096 2.85585 -0.694143 0
M  V30 2046 H 195.61 1.55126 -0.480602 0
M  V30 2047 H 197.607 3.86918 1.55242 0
M  V30 2048 H 196.267 2.71499 1.78096 0
M  V30 2049 H 197.278 5.0669 -1.07169 0
M  V30 2050 H 193.955 3.97782 1.26791 0
M  V30 2051 H 195.345 6.4318 -1.94343 0
M  V30 2052 N 198.065 0.39524 1.52563 0
M  V30 2053 C 199.314 -0.186321 2.00838 0
M  V30 2054 C 199.627 -1.47402 1.28577 0
M  V30 2055 O 200.833 -2.13599 1.67593 0
M  V30 2056 C 199.289 -0.382595 3.57861 0
M  V30 2057 C 198.897 0.892202 4.39026 0
M  V30 2058 C 200.641 -0.9202 4.14406 0
M  V30 2059 C 198.548 0.66388 5.87662 0
M  V30 2060 H 197.478 -0.0734041 0.750418 0
M  V30 2061 H 200.129 0.518552 1.76021 0
M  V30 2062 H 198.511 -1.14946 3.7895 0
M  V30 2063 H 199.685 1.66414 4.29701 0
M  V30 2064 H 198 1.35519 3.9373 0
M  V30 2065 H 200.597 -1.10683 5.23119 0
M  V30 2066 H 200.94 -1.89096 3.70875 0
M  V30 2067 H 201.473 -0.212751 3.97231 0
M  V30 2068 H 198.212 1.6058 6.35527 0
M  V30 2069 H 197.732 -0.0690193 5.9976 0
M  V30 2070 H 199.411 0.300699 6.46301 0
M  V30 2071 N 199.544 -1.57102 0.125237 0
M  V30 2072 C 200.474 -2.18659 -0.819174 0
M  V30 2073 C 201.455 -1.12843 -1.27281 0
M  V30 2074 O 202.64 -1.41104 -1.33429 0
M  V30 2075 C 199.77 -2.79096 -2.06695 0
M  V30 2076 C 198.724 -3.90548 -1.75088 0
M  V30 2077 C 198.05 -4.37821 -3.06948 0
M  V30 2078 C 199.35 -5.12356 -1.01435 0
M  V30 2079 H 201.044 -2.9783 -0.306202 0
M  V30 2080 H 198.59 -1.4326 -0.145839 0
M  V30 2081 H 200.543 -3.2082 -2.73226 0
M  V30 2082 H 199.267 -1.97223 -2.60328 0
M  V30 2083 H 197.926 -3.49409 -1.10944 0
M  V30 2084 H 197.574 -3.52799 -3.58527 0
M  V30 2085 H 197.274 -5.12982 -2.86571 0
M  V30 2086 H 198.798 -4.822 -3.74587 0
M  V30 2087 H 200.212 -5.5106 -1.58132 0
M  V30 2088 H 198.609 -5.9314 -0.911319 0
M  V30 2089 H 199.679 -4.849 -0.00218681 0
M  V30 2090 N 201.022 0.148545 -1.56898 0
M  V30 2091 C 202.271 0.85984 -1.82454 0
M  V30 2092 C 202.584 1.82406 -0.706229 0
M  V30 2093 O 203.79 2.57938 -0.847349 0
M  V30 2094 C 202.246 1.57967 -3.2338 0
M  V30 2095 C 201.854 0.65794 -4.43142 0
M  V30 2096 C 203.598 2.27784 -3.58211 0
M  V30 2097 C 201.505 1.3793 -5.75091 0
M  V30 2098 H 200.435 0.324834 -0.68044 0
M  V30 2099 H 203.086 0.112588 -1.83154 0
M  V30 2100 H 201.468 2.37249 -3.17063 0
M  V30 2101 H 202.642 -0.0995497 -4.60692 0
M  V30 2102 H 200.957 0.0682643 -4.16344 0
M  V30 2103 H 203.554 2.8239 -4.54048 0
M  V30 2104 H 203.897 3.04204 -2.84193 0
M  V30 2105 H 204.43 1.55421 -3.66182 0
M  V30 2106 H 201.169 0.656982 -6.52199 0
M  V30 2107 H 200.689 2.10954 -5.61479 0
M  V30 2108 H 202.368 1.92063 -6.17835 0
M  V30 2109 N 202.5 1.5196 0.417844 0
M  V30 2110 C 203.463 1.74065 1.49111 0
M  V30 2111 C 204.463 0.610537 1.48758 0
M  V30 2112 O 205.653 0.87832 1.50437 0
M  V30 2113 C 202.785 1.81502 2.88565 0
M  V30 2114 H 203.978 2.69869 1.30807 0
M  V30 2115 H 201.531 1.42244 0.647785 0
M  V30 2116 H 202.266 0.875813 3.1225 0
M  V30 2117 H 202.051 2.63651 2.90225 0
M  V30 2118 H 203.541 2.00376 3.66387 0
M  V30 2119 N 203.978 -0.674533 1.42435 0
M  V30 2120 C 205.206 -1.46283 1.46317 0
M  V30 2121 C 205.621 -1.88653 0.0745836 0
M  V30 2122 O 204.978 -1.58151 -0.91074 0
M  V30 2123 C 205.029 -2.71178 2.3905 0
M  V30 2124 O 204.75 -2.30586 3.72507 0
M  V30 2125 C 206.251 -3.64738 2.51955 0
M  V30 2126 H 203.471 -0.450104 0.497642 0
M  V30 2127 H 206.015 -0.828792 1.86953 0
M  V30 2128 H 204.17 -3.3077 2.01667 0
M  V30 2129 H 204.584 -3.11241 4.22172 0
M  V30 2130 H 206.058 -4.49096 3.20962 0
M  V30 2131 H 206.535 -4.10656 1.55752 0
M  V30 2132 H 207.141 -3.11038 2.90061 0
M  V30 2133 N 205.456 -1.28612 -0.910864 0
M  V30 2134 C 206.704 -1.15705 -1.65701 0
M  V30 2135 C 207.025 0.29416 -1.92769 0
M  V30 2136 O 206.295 1.20331 -1.54588 0
M  V30 2137 H 204.875 -0.425216 -0.614167 0
M  V30 2138 H 207.537 -1.61381 -1.0928 0
M  V30 2139 H 206.633 -1.6988 -2.61815 0
M  V30 2140 N 206.934 1.1197 -1.10907 0
M  V30 2141 C 208.182 1.83225 -0.852819 0
M  V30 2142 C 208.503 1.84769 0.623341 0
M  V30 2143 O 207.773 1.3143 1.45269 0
M  V30 2144 H 206.353 0.67849 -0.312507 0
M  V30 2145 H 209.015 1.3556 -1.40033 0
M  V30 2146 H 208.111 2.87265 -1.22005 0
M  V30 2147 N 208.412 0.89855 1.29475 0
M  V30 2148 C 209.828 0.594483 1.48115 0
M  V30 2149 C 210.028 -0.86431 1.82022 0
M  V30 2150 O 209.084 -1.64457 1.91599 0
M  V30 2151 C 210.397 1.51932 2.59494 0
M  V30 2152 C 211.945 1.5244 2.7337 0
M  V30 2153 C 212.42 2.43548 3.87877 0
M  V30 2154 N 213.911 2.41589 3.95208 0
M  V30 2155 C 214.646 3.08789 4.83153 0
M  V30 2156 N 214.142 3.85265 5.75798 0
M  V30 2157 N 215.935 2.97952 4.76635 0
M  V30 2158 H 208.086 1.84207 1.05742 0
M  V30 2159 H 210.349 0.789251 0.525154 0
M  V30 2160 H 210.055 2.55865 2.41301 0
M  V30 2161 H 209.929 1.23899 3.56271 0
M  V30 2162 H 212.316 0.492518 2.90961 0
M  V30 2163 H 212.397 1.8451 1.77172 0
M  V30 2164 H 212.041 3.46829 3.71041 0
M  V30 2165 H 211.971 2.08788 4.83441 0
M  V30 2166 H 214.462 1.86025 3.28943 0
M  V30 2167 H 214.775 4.33598 6.39697 0
M  V30 2168 H 213.12 3.89371 5.75687 0
M  V30 2169 H 216.311 2.37723 4.03244 0
M  V30 2170 H 216.484 3.50599 5.44962 0
M  V30 2171 N 209.89 -1.43072 0.660911 0
M  V30 2172 C 211.301 -1.84932 0.256348 0
M  V30 2173 C 211.652 -1.55325 -1.19868 0
M  V30 2174 O 210.777 -1.00607 -1.91591 0
M  V30 2175 C 211.372 -3.35684 0.458475 0
M  V30 2176 C 209.931 -3.76245 0.108161 0
M  V30 2177 C 209.078 -2.66749 0.757641 0
M  V30 2178 H 212.029 -1.33116 0.864051 0
M  V30 2179 H 212.05 -3.79365 -0.293683 0
M  V30 2180 H 211.562 -3.572 1.51755 0
M  V30 2181 H 209.663 -3.60338 -0.948014 0
M  V30 2182 H 209.776 -4.76058 0.538992 0
M  V30 2183 H 208.14 -2.53989 0.190185 0
M  V30 2184 H 208.923 -2.91092 1.81989 0
M  V30 2185 N 211.368 -0.403325 -1.52352 0
M  V30 2186 C 212.593 0.176499 -2.06648 0
M  V30 2187 C 213.018 1.38577 -1.27193 0
M  V30 2188 O 212.376 1.7879 -0.300637 0
M  V30 2189 C 212.424 0.511061 -3.5696 0
M  V30 2190 O 211.528 1.60294 -3.79973 0
M  V30 2191 H 210.869 0.0167337 -0.663789 0
M  V30 2192 H 213.399 -0.574848 -1.96359 0
M  V30 2193 H 213.409 0.771362 -4.00642 0
M  V30 2194 H 212.084 -0.37296 -4.14224 0
M  V30 2195 H 210.661 1.33526 -3.48174 0
M  V30 2196 N 212.846 1.57033 -0.133567 0
M  V30 2197 C 213.796 2.12641 0.822671 0
M  V30 2198 C 214.78 1.05081 1.21847 0
M  V30 2199 O 215.972 1.31287 1.18713 0
M  V30 2200 C 213.101 2.74094 2.06706 0
M  V30 2201 C 212.187 3.88757 1.69497 0
M  V30 2202 N 212.578 4.95194 1.03037 0
M  V30 2203 C 210.876 3.99213 1.98859 0
M  V30 2204 C 211.577 5.75414 0.852873 0
M  V30 2205 N 210.553 5.25726 1.3825 0
M  V30 2206 H 214.355 2.92308 0.305537 0
M  V30 2207 H 211.869 1.62256 0.0684276 0
M  V30 2208 H 213.866 3.12285 2.76195 0
M  V30 2209 H 212.526 1.95896 2.5895 0
M  V30 2210 H 213.537 5.13247 0.692669 0
M  V30 2211 H 210.214 3.32075 2.53047 0
M  V30 2212 H 211.604 6.71089 0.330091 0
M  V30 2213 N 214.325 -0.140222 1.56975 0
M  V30 2214 C 215.736 -0.699596 1.73097 0
M  V30 2215 C 216.087 -1.8134 0.749022 0
M  V30 2216 O 215.212 -2.16241 -0.0828503 0
M  V30 2217 C 215.807 -1.27582 3.1386 0
M  V30 2218 C 214.366 -1.78169 3.31561 0
M  V30 2219 C 213.513 -0.672855 2.69013 0
M  V30 2220 H 216.464 0.0855115 1.58469 0
M  V30 2221 H 216.485 -2.14561 3.14235 0
M  V30 2222 H 215.997 -0.464955 3.85305 0
M  V30 2223 H 214.098 -2.61801 2.65124 0
M  V30 2224 H 214.211 -1.90574 4.39566 0
M  V30 2225 H 212.575 -1.10118 2.29665 0
M  V30 2226 H 213.358 0.126679 3.43066 0
M  V30 2227 N 215.803 -1.52179 -0.40978 0
M  V30 2228 C 217.08 -1.56769 -1.16974 0
M  V30 2229 C 217.46 -0.348322 -2.08206 0
M  V30 2230 O 216.808 0.664862 -2.18613 0
M  V30 2231 C 217.018 -2.89603 -1.9476 0
M  V30 2232 C 218.366 -3.42579 -2.50849 0
M  V30 2233 O 219.39 -2.91338 -2.04941 0
M  V30 2234 O 218.249 -4.32054 -3.34652 0
M  V30 2235 H 215.343 -0.631439 -0.534054 0
M  V30 2236 H 217.889 -1.64507 -0.416613 0
M  V30 2237 H 216.661 -3.698 -1.27921 0
M  V30 2238 H 216.284 -2.85155 -2.77079 0
M  V30 2239 N 217.281 0.66697 -1.42791 0
M  V30 2240 C 218.53 1.42278 -1.42968 0
M  V30 2241 C 218.843 1.9553 -0.0524489 0
M  V30 2242 O 220.049 2.71414 0.068363 0
M  V30 2243 C 218.505 2.57418 -2.51524 0
M  V30 2244 C 218.113 2.10832 -3.9529 0
M  V30 2245 C 219.857 3.34878 -2.60877 0
M  V30 2246 C 217.764 3.23101 -4.95338 0
M  V30 2247 H 216.694 0.534533 -0.531781 0
M  V30 2248 H 219.345 0.721302 -1.68729 0
M  V30 2249 H 217.727 3.29971 -2.18941 0
M  V30 2250 H 218.901 1.4538 -4.37266 0
M  V30 2251 H 217.216 1.46289 -3.89857 0
M  V30 2252 H 219.813 4.18505 -3.32802 0
M  V30 2253 H 220.156 3.81993 -1.6549 0
M  V30 2254 H 220.689 2.69398 -2.92693 0
M  V30 2255 H 217.428 2.80969 -5.9223 0
M  V30 2256 H 216.948 3.87309 -4.57987 0
M  V30 2257 H 218.627 3.88447 -5.17415 0
M  V30 2258 N 218.759 1.29093 0.90403 0
M  V30 2259 C 220.17 1.15186 1.46932 0
M  V30 2260 C 220.521 -0.254587 1.94541 0
M  V30 2261 O 219.646 -1.14972 1.83332 0
M  V30 2262 C 220.241 2.08492 2.67051 0
M  V30 2263 C 218.8 1.98621 3.19729 0
M  V30 2264 C 217.947 1.9967 1.92425 0
M  V30 2265 H 220.898 1.41641 0.715789 0
M  V30 2266 H 220.919 1.65461 3.42641 0
M  V30 2267 H 220.431 3.10847 2.3237 0
M  V30 2268 H 218.532 0.993389 3.59114 0
M  V30 2269 H 218.645 2.86068 3.8432 0
M  V30 2270 H 217.009 1.44208 2.09943 0
M  V30 2271 H 217.792 3.03721 1.60026 0
M  V30 2272 N 220.237 -1.11381 1.11499 0
M  V30 2273 C 221.485 -1.8277 0.862524 0
M  V30 2274 C 221.806 -1.85097 -0.613534 0
M  V30 2275 O 221.076 -1.32198 -1.4457 0
M  V30 2276 H 219.656 -0.676823 0.316101 0
M  V30 2277 H 222.318 -1.34816 1.4075 0
M  V30 2278 H 221.414 -2.86614 1.23527 0
M  V30 2279 N 221.715 -0.905404 -1.28997 0
M  V30 2280 C 222.961 -0.535039 -1.95615 0
M  V30 2281 C 223.294 0.917404 -1.71165 0
M  V30 2282 O 222.569 1.65123 -1.02785 0
M  V30 2283 C 222.852 -0.834918 -3.50287 0
M  V30 2284 C 222.705 -2.33948 -3.84172 0
M  V30 2285 C 224.024 -0.325318 -4.38896 0
M  V30 2286 H 221.143 -0.195861 -0.710498 0
M  V30 2287 H 223.785 -1.13313 -1.52513 0
M  V30 2288 H 221.935 -0.325904 -3.87131 0
M  V30 2289 H 223.607 -2.91847 -3.57243 0
M  V30 2290 H 221.85 -2.79789 -3.31513 0
M  V30 2291 H 222.521 -2.49987 -4.92149 0
M  V30 2292 H 224.997 -0.761256 -4.09077 0
M  V30 2293 H 223.873 -0.564295 -5.45992 0
M  V30 2294 H 224.134 0.774144 -4.35269 0
M  V30 2295 N 223.193 1.4272 -0.668489 0
M  V30 2296 C 224.103 2.34596 0.0139753 0
M  V30 2297 C 225.119 1.5474 0.795703 0
M  V30 2298 O 226.295 1.87334 0.739466 0
M  V30 2299 C 223.36 3.33202 0.957982 0
M  V30 2300 C 222.421 4.28957 0.17149 0
M  V30 2301 C 221.654 5.22853 1.07053 0
M  V30 2302 O 221.877 5.21531 2.31001 0
M  V30 2303 O 220.811 5.9952 0.534727 0
M  V30 2304 H 224.637 2.9448 -0.742661 0
M  V30 2305 H 222.222 1.43117 -0.428705 0
M  V30 2306 H 224.104 3.93796 1.50008 0
M  V30 2307 H 222.779 2.758 1.69458 0
M  V30 2308 H 221.686 3.71796 -0.414558 0
M  V30 2309 H 223.019 4.89383 -0.52586 0
M  V30 2310 N 224.671 0.411399 1.52136 0
M  V30 2311 C 225.901 -0.16284 2.05957 0
M  V30 2312 C 226.309 -1.3922 1.28119 0
M  V30 2313 O 225.652 -1.80768 0.326881 0
M  V30 2314 C 225.714 -0.575946 3.54856 0
M  V30 2315 C 225.378 0.542998 4.53763 0
M  V30 2316 C 226.375 1.40726 5.00492 0
M  V30 2317 C 224.06 0.716337 4.97166 0
M  V30 2318 C 226.054 2.4298 5.8927 0
M  V30 2319 C 223.741 1.74218 5.8574 0
M  V30 2320 C 224.739 2.59731 6.31687 0
M  V30 2321 O 224.427 3.60558 7.18507 0
M  V30 2322 H 224.159 -0.0229125 0.675612 0
M  V30 2323 H 226.713 0.581634 1.96993 0
M  V30 2324 H 224.943 -1.37274 3.61515 0
M  V30 2325 H 226.632 -1.07836 3.91313 0
M  V30 2326 H 227.398 1.28476 4.67674 0
M  V30 2327 H 223.277 0.0603857 4.6096 0
M  V30 2328 H 226.821 3.0976 6.25055 0
M  V30 2329 H 222.718 1.86498 6.17971 0
M  V30 2330 H 223.486 3.56829 7.36624 0
M  V30 2331 N 226.149 -1.5696 0.141893 0
M  V30 2332 C 227.397 -1.95573 -0.509484 0
M  V30 2333 C 227.718 -1.02746 -1.65736 0
M  V30 2334 O 226.988 -0.0880311 -1.95702 0
M  V30 2335 H 225.568 -0.722115 -0.191205 0
M  V30 2336 H 228.23 -1.93697 0.216196 0
M  V30 2337 H 227.326 -2.99171 -0.889 0
M  V30 2338 N 227.627 0.131896 -1.57047 0
M  V30 2339 C 228.876 0.84044 -1.83356 0
M  V30 2340 C 229.189 1.81646 -0.725535 0
M  V30 2341 O 230.395 2.57025 -0.874659 0
M  V30 2342 C 228.851 1.54528 -3.25037 0
M  V30 2343 C 228.459 0.610902 -4.43815 0
M  V30 2344 C 230.203 2.23972 -3.60606 0
M  V30 2345 C 228.11 1.31823 -5.76521 0
M  V30 2346 H 227.04 0.317599 -0.683847 0
M  V30 2347 H 229.691 0.0931561 -1.83263 0
M  V30 2348 H 228.073 2.33873 -3.19561 0
M  V30 2349 H 229.247 -0.148407 -4.60561 0
M  V30 2350 H 227.562 0.0241016 -4.16393 0
M  V30 2351 H 230.159 2.77558 -4.57018 0
M  V30 2352 H 230.502 3.01173 -2.87403 0
M  V30 2353 H 231.035 1.51529 -3.6781 0
M  V30 2354 H 227.774 0.587771 -6.52859 0
M  V30 2355 H 227.294 2.04987 -5.63685 0
M  V30 2356 H 228.973 1.855 -6.19838 0
M  V30 2357 N 229.106 1.52395 0.401703 0
M  V30 2358 C 230.383 1.57387 1.16141 0
M  V30 2359 C 230.763 0.359359 2.08019 0
M  V30 2360 O 230.111 -0.65326 2.18963 0
M  V30 2361 C 230.321 2.90631 1.93221 0
M  V30 2362 C 231.669 3.43904 2.49028 0
M  V30 2363 O 232.693 2.92421 2.03393 0
M  V30 2364 O 231.552 4.33823 3.32356 0
M  V30 2365 H 228.646 0.634262 0.530698 0
M  V30 2366 H 231.192 1.64725 0.407883 0
M  V30 2367 H 229.964 3.70473 1.25958 0
M  V30 2368 H 229.587 2.8662 2.75563 0
M  V30 2369 N 230.584 -0.659388 1.43143 0
M  V30 2370 C 231.809 -1.45221 1.48073 0
M  V30 2371 C 232.234 -1.87845 0.097995 0
M  V30 2372 O 231.592 -1.56985 -0.90694 0
M  V30 2373 C 231.64 -2.66748 2.42647 0
M  V30 2374 O 230.744 -3.65583 1.90848 0
M  V30 2375 H 230.085 -0.435669 0.501088 0
M  V30 2376 H 232.615 -0.807432 1.87994 0
M  V30 2377 H 232.625 -3.14637 2.59745 0
M  V30 2378 H 231.3 -2.35067 3.43098 0
M  V30 2379 H 229.877 -3.24693 1.83381 0
M  V30 2380 N 232.062 -1.29571 -0.897171 0
M  V30 2381 C 233.339 -1.08365 -1.62839 0
M  V30 2382 C 233.719 0.371331 -2.07808 0
M  V30 2383 O 233.067 1.3606 -1.83576 0
M  V30 2384 C 233.277 -2.0735 -2.80726 0
M  V30 2385 C 234.625 -2.38406 -3.51351 0
M  V30 2386 O 235.649 -2.05564 -2.90898 0
M  V30 2387 O 234.508 -2.9453 -4.60341 0
M  V30 2388 H 231.602 -0.415345 -0.715134 0
M  V30 2389 H 234.148 -1.40952 -0.945018 0
M  V30 2390 H 232.92 -3.05339 -2.44711 0
M  V30 2391 H 232.543 -1.75507 -3.56767 0
M  V30 2392 N 233.54 1.10788 -1.12088 0
M  V30 2393 C 234.788 1.8231 -0.872205 0
M  V30 2394 C 235.109 1.85419 0.603709 0
M  V30 2395 O 234.379 1.32963 1.43867 0
M  V30 2396 H 232.959 0.675137 -0.319686 0
M  V30 2397 H 235.621 1.34068 -1.41463 0
M  V30 2398 H 234.717 2.85955 -1.25045 0
M  V30 2399 N 235.018 0.912232 1.28515 0
M  V30 2400 C 236.265 0.544599 1.95039 0
M  V30 2401 C 236.593 -0.911435 1.71823 0
M  V30 2402 O 235.848 -1.66317 1.03137 0
M  V30 2403 C 236.147 0.798392 3.48368 0
M  V30 2404 C 235.813 2.23374 3.91682 0
M  V30 2405 C 234.475 2.62617 4.03219 0
M  V30 2406 C 236.827 3.16786 4.13879 0
M  V30 2407 C 234.155 3.94429 4.3433 0
M  V30 2408 C 236.507 4.48161 4.46469 0
M  V30 2409 C 235.171 4.8726 4.56217 0
M  V30 2410 H 234.441 0.199283 0.7137 0
M  V30 2411 H 237.088 1.15327 1.52879 0
M  V30 2412 H 235.393 0.106908 3.91654 0
M  V30 2413 H 237.09 0.493141 3.97956 0
M  V30 2414 H 233.68 1.91922 3.83228 0
M  V30 2415 H 237.864 2.87677 4.0442 0
M  V30 2416 H 233.12 4.24426 4.40082 0
M  V30 2417 H 237.294 5.20559 4.62592 0
M  V30 2418 H 234.921 5.89431 4.80078 0
M  V30 2419 N 236.496 -1.42363 0.676048 0
M  V30 2420 C 237.743 -2.01522 0.19883 0
M  V30 2421 C 238.071 -1.53456 -1.19505 0
M  V30 2422 O 237.326 -0.727967 -1.81657 0
M  V30 2423 C 237.625 -3.56929 0.183431 0
M  V30 2424 C 237.291 -4.24431 1.52215 0
M  V30 2425 C 235.953 -4.42585 1.8887 0
M  V30 2426 C 238.305 -4.62459 2.40377 0
M  V30 2427 C 235.633 -4.96039 3.13309 0
M  V30 2428 C 237.985 -5.17294 3.64129 0
M  V30 2429 C 236.649 -5.33661 4.00951 0
M  V30 2430 H 235.919 -0.737419 0.0727571 0
M  V30 2431 H 238.566 -1.70531 0.871281 0
M  V30 2432 H 236.871 -3.87594 -0.572532 0
M  V30 2433 H 238.568 -4.00486 -0.203035 0
M  V30 2434 H 235.158 -4.10661 1.22701 0
M  V30 2435 H 239.342 -4.48105 2.13343 0
M  V30 2436 H 234.598 -5.06896 3.41857 0
M  V30 2437 H 238.772 -5.45704 4.32644 0
M  V30 2438 H 236.399 -5.74845 4.9745 0
M  V30 2439 N 237.974 -0.419461 -1.51915 0
M  V30 2440 C 238.937 0.389116 -2.25873 0
M  V30 2441 C 239.937 0.964924 -1.28631 0
M  V30 2442 O 241.127 0.842179 -1.52489 0
M  V30 2443 C 238.259 1.54874 -3.03689 0
M  V30 2444 H 239.452 -0.258799 -2.98781 0
M  V30 2445 H 237.005 -0.172209 -1.55348 0
M  V30 2446 H 237.74 2.23323 -2.35154 0
M  V30 2447 H 237.525 1.14223 -3.75094 0
M  V30 2448 H 239.015 2.12046 -3.59759 0
M  V30 2449 N 239.452 1.56882 -0.150215 0
M  V30 2450 C 240.382 2.19935 0.784284 0
M  V30 2451 C 241.363 1.14854 1.25469 0
M  V30 2452 O 242.548 1.43209 1.31168 0
M  V30 2453 C 239.678 2.82349 2.02229 0
M  V30 2454 C 238.632 3.93285 1.68853 0
M  V30 2455 C 237.958 4.42649 2.99944 0
M  V30 2456 C 239.258 5.13904 0.932714 0
M  V30 2457 H 240.952 2.9828 0.258781 0
M  V30 2458 H 238.498 1.43473 0.123029 0
M  V30 2459 H 240.451 3.25126 2.68088 0
M  V30 2460 H 239.175 2.0134 2.57157 0
M  V30 2461 H 237.834 3.5113 1.05371 0
M  V30 2462 H 237.482 3.58458 3.52869 0
M  V30 2463 H 237.182 5.17476 2.78374 0
M  V30 2464 H 238.706 4.88099 3.66868 0
M  V30 2465 H 240.12 5.53506 1.49345 0
M  V30 2466 H 238.517 5.94515 0.81684 0
M  V30 2467 H 239.587 4.84842 -0.0749568 0
M  V30 2468 N 240.93 -0.123565 1.57115 0
M  V30 2469 C 242.341 -0.681198 1.73829 0
M  V30 2470 C 242.692 -1.80535 0.768214 0
M  V30 2471 O 241.817 -2.16317 -0.0599103 0
M  V30 2472 C 242.412 -1.24246 3.15196 0
M  V30 2473 C 240.971 -1.74643 3.33432 0
M  V30 2474 C 240.118 -0.644284 2.69711 0
M  V30 2475 H 243.069 0.102315 1.5837 0
M  V30 2476 H 243.09 -2.11216 3.16493 0
M  V30 2477 H 242.602 -0.424062 3.85776 0
M  V30 2478 H 240.703 -2.58974 2.67886 0
M  V30 2479 H 240.816 -1.85902 4.41562 0
M  V30 2480 H 239.18 -1.07676 2.3082 0
M  V30 2481 H 239.963 0.163058 3.42913 0
M  V30 2482 N 242.408 -1.52605 -0.393616 0
M  V30 2483 C 243.371 -1.76415 -1.46323 0
M  V30 2484 C 244.371 -0.634126 -1.47768 0
M  V30 2485 O 245.561 -0.902142 -1.4902 0
M  V30 2486 C 242.693 -1.8607 -2.85641 0
M  V30 2487 H 243.886 -2.71916 -1.26498 0
M  V30 2488 H 241.439 -1.43257 -0.625073 0
M  V30 2489 H 242.174 -0.925378 -3.10817 0
M  V30 2490 H 241.959 -2.68235 -2.85993 0
M  V30 2491 H 243.449 -2.06179 -3.63153 0
M  V30 2492 N 243.887 0.651787 -1.4349 0
M  V30 2493 C 244.817 1.77621 -1.51569 0
M  V30 2494 C 245.798 1.66022 -0.370253 0
M  V30 2495 O 246.983 1.85095 -0.587658 0
M  V30 2496 C 244.113 3.16056 -1.43966 0
M  V30 2497 C 243.067 3.4242 -2.56774 0
M  V30 2498 C 242.393 4.8067 -2.34223 0
M  V30 2499 C 243.693 3.37023 -3.99015 0
M  V30 2500 H 245.387 1.71117 -2.45681 0
M  V30 2501 H 242.933 0.821825 -1.18246 0
M  V30 2502 H 244.886 3.94472 -1.48221 0
M  V30 2503 H 243.61 3.23293 -0.463586 0
M  V30 2504 H 242.269 2.66375 -2.51873 0
M  V30 2505 H 241.917 4.84585 -1.34856 0
M  V30 2506 H 241.617 4.9927 -3.09844 0
M  V30 2507 H 243.141 5.61342 -2.40265 0
M  V30 2508 H 244.555 4.05374 -4.05395 0
M  V30 2509 H 242.952 3.67159 -4.74673 0
M  V30 2510 H 244.022 2.3518 -4.2405 0
M  V30 2511 N 245.365 1.30045 0.890287 0
M  V30 2512 C 246.776 1.16738 1.45702 0
M  V30 2513 C 247.127 -0.233939 1.948 0
M  V30 2514 O 246.252 -1.13021 1.84541 0
M  V30 2515 C 246.847 2.11313 2.64825 0
M  V30 2516 C 245.406 2.02001 3.17604 0
M  V30 2517 C 244.553 2.01699 1.90296 0
M  V30 2518 H 247.504 1.42392 0.700726 0
M  V30 2519 H 247.525 1.69086 3.40867 0
M  V30 2520 H 247.037 3.13294 2.2906 0
M  V30 2521 H 245.138 1.03142 3.5804 0
M  V30 2522 H 245.251 2.90128 3.81264 0
M  V30 2523 H 243.615 1.46427 2.08402 0
M  V30 2524 H 244.398 3.05402 1.56795 0
M  V30 2525 N 246.843 -1.10192 1.12674 0
M  V30 2526 C 247.753 -2.20172 0.810026 0
M  V30 2527 C 248.769 -1.72821 -0.202188 0
M  V30 2528 O 249.945 -2.01369 -0.0351691 0
M  V30 2529 C 247.01 -3.45631 0.272007 0
M  V30 2530 C 246.071 -4.07704 1.34447 0
M  V30 2531 C 245.304 -5.27175 0.832029 0
M  V30 2532 O 245.527 -5.69425 -0.333284 0
M  V30 2533 O 244.461 -5.80168 1.60277 0
M  V30 2534 H 248.287 -2.49701 1.72867 0
M  V30 2535 H 245.872 -1.18977 0.903597 0
M  V30 2536 H 247.754 -4.21394 -0.0230219 0
M  V30 2537 H 246.429 -3.17723 -0.619164 0
M  V30 2538 H 245.336 -3.33614 1.6927 0
M  V30 2539 H 246.669 -4.3982 2.2095 0
M  V30 2540 N 248.321 -0.919034 -1.28029 0
M  V30 2541 C 249.737 -0.617972 -1.4715 0
M  V30 2542 C 249.937 0.835242 -1.83374 0
M  V30 2543 O 248.993 1.61388 -1.94191 0
M  V30 2544 C 250.306 -1.56041 -2.57044 0
M  V30 2545 C 251.854 -1.56769 -2.7091 0
M  V30 2546 C 252.329 -2.49688 -3.83953 0
M  V30 2547 N 253.82 -2.47845 -3.91314 0
M  V30 2548 C 254.555 -3.16437 -4.78179 0
M  V30 2549 N 254.051 -3.94376 -5.69596 0
M  V30 2550 N 255.844 -3.05498 -4.71834 0
M  V30 2551 H 247.995 -1.85866 -1.02798 0
M  V30 2552 H 250.258 -0.797506 -0.512531 0
M  V30 2553 H 249.964 -2.59671 -2.372 0
M  V30 2554 H 249.838 -1.29551 -3.54255 0
M  V30 2555 H 252.225 -0.538745 -2.90141 0
M  V30 2556 H 252.306 -1.87305 -1.74214 0
M  V30 2557 H 251.95 -3.52688 -3.65477 0
M  V30 2558 H 251.88 -2.16453 -4.80058 0
M  V30 2559 H 254.371 -1.91234 -3.25941 0
M  V30 2560 H 254.684 -4.43721 -6.32718 0
M  V30 2561 H 253.029 -3.98481 -5.69419 0
M  V30 2562 H 256.22 -2.44108 -3.99411 0
M  V30 2563 H 256.393 -3.59225 -5.39316 0
M  V30 2564 N 249.799 1.42003 -0.683588 0
M  V30 2565 C 251.045 2.01712 -0.209825 0
M  V30 2566 C 251.378 1.53968 1.18353 0
M  V30 2567 O 250.653 0.745661 1.79639 0
M  V30 2568 C 250.936 3.59202 -0.254197 0
M  V30 2569 C 250.789 4.17102 -1.68363 0
M  V30 2570 C 252.108 4.38344 0.392709 0
M  V30 2571 H 249.227 0.732891 -0.0777189 0
M  V30 2572 H 251.869 1.68909 -0.87004 0
M  V30 2573 H 250.019 3.87278 0.307954 0
M  V30 2574 H 251.691 3.99946 -2.29871 0
M  V30 2575 H 249.934 3.72597 -2.22157 0
M  V30 2576 H 250.605 5.26249 -1.6663 0
M  V30 2577 H 253.081 4.16011 -0.0859162 0
M  V30 2578 H 251.957 5.47901 0.331063 0
M  V30 2579 H 252.218 4.16887 1.47164 0
M  V30 2580 N 251.277 0.427512 1.51691 0
M  V30 2581 C 252.24 -0.377132 2.26076 0
M  V30 2582 C 253.24 -0.958089 1.29141 0
M  V30 2583 O 254.43 -0.83408 1.52934 0
M  V30 2584 C 251.562 -1.53262 3.04506 0
M  V30 2585 H 252.755 0.27464 2.9864 0
M  V30 2586 H 250.308 0.180445 1.55255 0
M  V30 2587 H 251.043 -2.22072 2.36335 0
M  V30 2588 H 250.828 -1.12232 3.75694 0
M  V30 2589 H 252.318 -2.10135 3.60878 0
M  V30 2590 N 252.755 -1.56801 0.158532 0
M  V30 2591 C 254.001 -1.96781 -0.490405 0
M  V30 2592 C 254.334 -1.04397 -1.63753 0
M  V30 2593 O 253.609 -0.0885805 -1.94298 0
M  V30 2594 C 253.892 -3.4635 -0.985594 0
M  V30 2595 C 253.745 -4.49512 0.160824 0
M  V30 2596 C 255.064 -3.98697 -1.86355 0
M  V30 2597 H 252.183 -0.715482 -0.176788 0
M  V30 2598 H 254.825 -1.88451 0.242088 0
M  V30 2599 H 252.975 -3.53579 -1.60978 0
M  V30 2600 H 254.647 -4.54353 0.797537 0
M  V30 2601 H 252.89 -4.26013 0.818256 0
M  V30 2602 H 253.561 -5.51531 -0.227569 0
M  V30 2603 H 256.037 -3.94019 -1.33746 0
M  V30 2604 H 254.913 -5.03792 -2.17909 0
M  V30 2605 H 255.174 -3.41744 -2.8047 0
M  V30 2606 N 254.233 0.115231 -1.57178 0
M  V30 2607 C 255.479 0.82357 -1.85325 0
M  V30 2608 C 255.812 1.79349 -0.744814 0
M  V30 2609 O 255.087 1.92899 0.249024 0
M  V30 2610 C 255.37 1.57014 -3.24066 0
M  V30 2611 C 255.223 0.619565 -4.45513 0
M  V30 2612 C 256.542 2.52545 -3.60429 0
M  V30 2613 H 253.661 0.297948 -0.674089 0
M  V30 2614 H 256.303 0.0877138 -1.89797 0
M  V30 2615 H 254.453 2.19742 -3.20383 0
M  V30 2616 H 256.125 0.000837639 -4.613 0
M  V30 2617 H 254.368 -0.0686174 -4.33746 0
M  V30 2618 H 255.039 1.17866 -5.3927 0
M  V30 2619 H 257.515 1.9992 -3.64926 0
M  V30 2620 H 256.391 3.01811 -4.58477 0
M  V30 2621 H 256.652 3.35383 -2.88047 0
M  V30 2622 N 255.711 1.52812 0.385517 0
M  V30 2623 C 256.959 1.67694 1.12797 0
M  V30 2624 C 257.28 0.421115 1.90399 0
M  V30 2625 O 256.55 -0.564551 1.87589 0
M  V30 2626 H 255.13 0.618155 0.419396 0
M  V30 2627 H 257.792 1.89938 0.436972 0
M  V30 2628 H 256.888 2.52896 1.82894 0
M  V30 2629 N 257.189 -0.644168 1.43834 0
M  V30 2630 C 258.152 -1.73857 1.49353 0
M  V30 2631 C 259.152 -1.56315 0.377112 0
M  V30 2632 O 260.342 -1.62048 0.639226 0
M  V30 2633 C 257.474 -3.12819 1.35488 0
M  V30 2634 H 258.667 -1.70342 2.46827 0
M  V30 2635 H 256.22 -0.856652 1.30733 0
M  V30 2636 H 256.955 -3.2194 0.390569 0
M  V30 2637 H 256.74 -3.26958 2.16428 0
M  V30 2638 H 258.23 -3.92606 1.42302 0
M  V30 2639 N 258.668 -1.30515 -0.883378 0
M  V30 2640 C 259.916 -1.19194 -1.63209 0
M  V30 2641 C 260.237 0.253205 -1.93349 0
M  V30 2642 O 259.507 1.17025 -1.57105 0
M  V30 2643 H 258.087 -0.438148 -0.605009 0
M  V30 2644 H 260.749 -1.63663 -1.05832 0
M  V30 2645 H 259.845 -1.75396 -2.58153 0
M  V30 2646 N 260.146 1.09593 -1.13257 0
M  V30 2647 C 261.376 1.85231 -0.915049 0
M  V30 2648 C 261.784 1.81345 0.539498 0
M  V30 2649 O 261.127 1.20664 1.38513 0
M  V30 2650 C 261.189 3.34275 -1.3229 0
M  V30 2651 C 260.853 3.6191 -2.79052 0
M  V30 2652 C 261.85 3.57777 -3.77216 0
M  V30 2653 C 259.535 3.90309 -3.16171 0
M  V30 2654 C 261.529 3.81652 -5.1051 0
M  V30 2655 C 259.216 4.13839 -4.49644 0
M  V30 2656 C 260.214 4.09502 -5.46623 0
M  V30 2657 O 259.902 4.32426 -6.77689 0
M  V30 2658 H 259.634 0.591997 -0.326367 0
M  V30 2659 H 262.188 1.394 -1.50854 0
M  V30 2660 H 260.418 3.80805 -0.672667 0
M  V30 2661 H 262.107 3.9132 -1.07812 0
M  V30 2662 H 262.873 3.35865 -3.49885 0
M  V30 2663 H 258.752 3.92811 -2.41289 0
M  V30 2664 H 262.296 3.78182 -5.86195 0
M  V30 2665 H 258.193 4.35232 -4.767 0
M  V30 2666 H 258.961 4.49896 -6.83766 0
M  V30 2667 N 261.624 0.925811 1.2754 0
M  V30 2668 C 262.873 0.561084 1.93739 0
M  V30 2669 C 263.186 -0.901685 1.73577 0
M  V30 2670 O 264.392 -1.37511 2.34101 0
M  V30 2671 C 262.848 0.952668 3.47062 0
M  V30 2672 C 262.456 2.43599 3.75983 0
M  V30 2673 C 264.2 0.659103 4.19352 0
M  V30 2674 C 262.107 2.76707 5.22673 0
M  V30 2675 H 261.037 0.206122 0.725279 0
M  V30 2676 H 263.688 1.12637 1.44863 0
M  V30 2677 H 262.07 0.316053 3.94737 0
M  V30 2678 H 263.244 3.12035 3.39073 0
M  V30 2679 H 261.559 2.70125 3.16893 0
M  V30 2680 H 264.156 0.882985 5.27359 0
M  V30 2681 H 264.499 -0.403607 4.14339 0
M  V30 2682 H 265.032 1.25473 3.77494 0
M  V30 2683 H 261.771 3.8188 5.32774 0
M  V30 2684 H 261.291 2.12919 5.60737 0
M  V30 2685 H 262.97 2.6435 5.90532 0
M  V30 2686 N 263.102 -1.41638 0.69111 0
M  V30 2687 C 264.065 -2.29178 0.0319786 0
M  V30 2688 C 265.065 -1.44153 -0.712496 0
M  V30 2689 O 266.255 -1.65354 -0.548053 0
M  V30 2690 C 263.387 -3.26952 -0.965161 0
M  V30 2691 H 264.58 -2.88959 0.802681 0
M  V30 2692 H 262.133 -1.4955 0.454356 0
M  V30 2693 H 262.868 -2.72142 -1.76378 0
M  V30 2694 H 262.653 -3.89685 -0.434522 0
M  V30 2695 H 264.143 -3.92561 -1.42428 0
M  V30 2696 N 264.58 -0.43555 -1.51462 0
M  V30 2697 C 265.826 0.131709 -2.02372 0
M  V30 2698 C 266.159 1.42516 -1.3192 0
M  V30 2699 O 265.434 1.89606 -0.433573 0
M  V30 2700 C 265.717 0.352301 -3.58373 0
M  V30 2701 C 265.57 -0.959676 -4.39443 0
M  V30 2702 C 266.889 1.12286 -4.25535 0
M  V30 2703 H 264.008 0.0463936 -0.735538 0
M  V30 2704 H 266.65 -0.574197 -1.81116 0
M  V30 2705 H 264.8 0.9536 -3.76615 0
M  V30 2706 H 266.472 -1.59482 -4.32855 0
M  V30 2707 H 264.715 -1.56468 -4.04599 0
M  V30 2708 H 265.386 -0.759394 -5.46752 0
M  V30 2709 H 267.862 0.613545 -4.11552 0
M  V30 2710 H 266.738 1.24598 -5.34571 0
M  V30 2711 H 266.999 2.15048 -3.86273 0
M  V30 2712 N 266.058 1.56714 -0.166846 0
M  V30 2713 C 266.968 2.21331 0.777791 0
M  V30 2714 C 267.984 1.20358 1.25658 0
M  V30 2715 O 269.16 1.53005 1.30964 0
M  V30 2716 C 266.225 2.83787 1.99163 0
M  V30 2717 C 265.286 3.99947 1.56016 0
M  V30 2718 C 264.519 4.59415 2.71613 0
M  V30 2719 O 264.742 4.17769 3.88362 0
M  V30 2720 O 263.676 5.49359 2.45945 0
M  V30 2721 H 267.502 3.02605 0.257636 0
M  V30 2722 H 265.087 1.49275 0.0611393 0
M  V30 2723 H 266.969 3.23405 2.70161 0
M  V30 2724 H 265.644 2.05513 2.50092 0
M  V30 2725 H 264.551 3.65007 0.819809 0
M  V30 2726 H 265.884 4.79801 1.09782 0
M  V30 2727 N 267.536 -0.106894 1.57237 0
M  V30 2728 C 268.466 -1.13148 2.04254 0
M  V30 2729 C 269.447 -1.42476 0.929224 0
M  V30 2730 O 270.632 -1.52709 1.19973 0
M  V30 2731 C 267.762 -2.4545 2.45706 0
M  V30 2732 C 266.716 -2.30558 3.60592 0
M  V30 2733 C 266.042 -3.67931 3.87983 0
M  V30 2734 C 267.342 -1.75597 4.91897 0
M  V30 2735 H 269.036 -0.740374 2.90101 0
M  V30 2736 H 266.582 -0.354696 1.39563 0
M  V30 2737 H 268.535 -3.17389 2.77205 0
M  V30 2738 H 267.259 -2.86475 1.56843 0
M  V30 2739 H 265.918 -1.61067 3.29322 0
M  V30 2740 H 265.566 -4.06462 2.96306 0
M  V30 2741 H 265.266 -3.58817 4.65322 0
M  V30 2742 H 266.79 -4.41356 4.21945 0
M  V30 2743 H 268.204 -2.37364 5.21854 0
M  V30 2744 H 266.601 -1.77272 5.73319 0
M  V30 2745 H 267.671 -0.714451 4.79608 0
M  V30 2746 N 269.014 -1.53014 -0.377408 0
M  V30 2747 C 269.977 -1.77957 -1.44444 0
M  V30 2748 C 270.977 -0.649763 -1.47087 0
M  V30 2749 O 272.167 -0.917897 -1.48055 0
M  V30 2750 C 269.299 -1.89089 -2.83651 0
M  V30 2751 H 270.492 -2.73243 -1.23606 0
M  V30 2752 H 268.045 -1.43912 -0.609844 0
M  V30 2753 H 268.78 -0.958293 -3.09818 0
M  V30 2754 H 268.565 -2.71254 -2.83132 0
M  V30 2755 H 270.055 -2.1002 -3.60945 0
M  V30 2756 N 270.492 0.636531 -1.44174 0
M  V30 2757 C 271.74 1.39343 -1.46383 0
M  V30 2758 C 272.061 1.94766 -0.0955715 0
M  V30 2759 O 271.331 1.75452 0.871395 0
M  V30 2760 H 269.911 0.517199 -0.538994 0
M  V30 2761 H 272.573 0.74957 -1.7991 0
M  V30 2762 H 271.669 2.22746 -2.18611 0
M  V30 2763 N 271.97 1.30982 0.876444 0
M  V30 2764 C 273.216 1.20474 1.63138 0
M  V30 2765 C 273.549 -0.238096 1.92735 0
M  V30 2766 O 272.824 -1.1692 1.55435 0
M  V30 2767 C 273.107 2.04244 2.96574 0
M  V30 2768 C 272.96 3.56793 2.73896 0
M  V30 2769 C 274.279 1.88684 3.97601 0
M  V30 2770 H 271.398 0.439001 0.591985 0
M  V30 2771 H 274.04 1.60704 1.01361 0
M  V30 2772 H 272.19 1.70063 3.493 0
M  V30 2773 H 273.862 4.01077 2.27892 0
M  V30 2774 H 272.105 3.80548 2.08245 0
M  V30 2775 H 272.776 4.10706 3.68815 0
M  V30 2776 H 275.252 2.18584 3.54062 0
M  V30 2777 H 274.128 2.4961 4.88862 0
M  V30 2778 H 274.389 0.848343 4.33884 0
M  V30 2779 N 273.449 -1.08991 1.13837 0
M  V30 2780 C 274.698 -1.80631 0.897509 0
M  V30 2781 C 275.011 -1.86872 -0.57777 0
M  V30 2782 O 276.217 -2.54866 -0.935701 0
M  V30 2783 C 274.673 -3.24517 1.55618 0
M  V30 2784 C 274.281 -3.26529 3.0673 0
M  V30 2785 C 276.025 -4.00882 1.3962 0
M  V30 2786 C 273.932 -4.64965 3.65461 0
M  V30 2787 H 272.862 -0.67691 0.332129 0
M  V30 2788 H 275.513 -1.2246 1.3666 0
M  V30 2789 H 273.895 -3.82778 1.01476 0
M  V30 2790 H 275.069 -2.78008 3.67489 0
M  V30 2791 H 273.384 -2.63656 3.22296 0
M  V30 2792 H 275.981 -5.03167 1.80906 0
M  V30 2793 H 276.324 -4.14896 0.341578 0
M  V30 2794 H 276.857 -3.49075 1.90766 0
M  V30 2795 H 273.596 -4.56153 4.70749 0
M  V30 2796 H 273.116 -5.13792 3.09481 0
M  V30 2797 H 274.795 -5.3394 3.654 0
M  V30 2798 N 274.927 -0.932562 -1.27047 0
M  V30 2799 C 275.875 -0.42603 -2.28665 0
M  V30 2800 C 276.869 0.49219 -1.62092 0
M  V30 2801 O 278.075 0.371355 -1.76128 0
M  V30 2802 H 274.45 -0.119213 -0.742491 0
M  V30 2803 H 276.421 -1.29579 -2.68797 0
M  V30 2804 C 275.17 0.301426 -3.46391 0
M  V30 2805 H 274.493 -0.39595 -3.97834 0
M  V30 2806 H 275.933 0.6202 -4.1944 0
M  V30 2807 C 274.392 1.51616 -3.00856 0
M  V30 2808 O 274.922 2.61476 -3.04948 0
M  V30 2809 N 273.128 1.36969 -2.56296 0
M  V30 2810 H 272.675 0.475873 -2.53166 0
M  V30 2811 H 272.633 2.18368 -2.26192 0
M  V30 2812 N 276.405 1.4127 -0.698611 0
M  V30 2813 C 277.653 2.00782 -0.230409 0
M  V30 2814 C 277.974 1.5562 1.17505 0
M  V30 2815 O 277.244 0.78815 1.79346 0
M  V30 2816 H 275.824 0.742464 -0.0821944 0
M  V30 2817 H 278.486 1.72852 -0.90045 0
M  V30 2818 H 277.582 3.11095 -0.25021 0
M  V30 2819 N 277.883 0.443576 1.51229 0
M  V30 2820 C 278.813 -0.355142 2.30783 0
M  V30 2821 C 279.794 -1.0154 1.36468 0
M  V30 2822 O 280.979 -1.01785 1.65389 0
M  V30 2823 C 278.109 -1.45312 3.15439 0
M  V30 2824 C 277.063 -0.916002 4.18083 0
M  V30 2825 C 276.389 -2.1102 4.91299 0
M  V30 2826 C 277.689 0.0538602 5.22272 0
M  V30 2827 H 279.383 0.308767 2.97804 0
M  V30 2828 H 276.929 0.149937 1.43217 0
M  V30 2829 H 278.882 -2.01914 3.69876 0
M  V30 2830 H 277.606 -2.14541 2.46252 0
M  V30 2831 H 276.265 -0.372145 3.64706 0
M  V30 2832 H 275.913 -2.78882 4.18609 0
M  V30 2833 H 275.613 -1.75717 5.60712 0
M  V30 2834 H 277.137 -2.68164 5.48562 0
M  V30 2835 H 278.551 -0.422069 5.71744 0
M  V30 2836 H 276.948 0.319776 5.99247 0
M  V30 2837 H 278.018 0.98858 4.74716 0
M  V30 2838 N 279.361 -1.56624 0.175154 0
M  V30 2839 C 280.609 -1.96609 -0.467885 0
M  V30 2840 C 280.93 -1.06238 -1.63519 0
M  V30 2841 O 280.2 -0.129523 -1.95471 0
M  V30 2842 H 278.78 -0.726008 -0.175845 0
M  V30 2843 H 281.442 -1.93195 0.257234 0
M  V30 2844 H 280.538 -3.00989 -0.825342 0
M  V30 2845 N 280.839 0.0985539 -1.57292 0
M  V30 2846 C 281.802 1.10402 -2.00858 0
M  V30 2847 C 282.802 1.33146 -0.901593 0
M  V30 2848 O 283.992 1.29318 -1.16716 0
M  V30 2849 C 281.124 2.45394 -2.36632 0
M  V30 2850 H 282.317 0.729099 -2.90902 0
M  V30 2851 H 279.87 0.343495 -1.52479 0
M  V30 2852 H 280.605 2.87769 -1.49531 0
M  V30 2853 H 280.39 2.30235 -3.17387 0
M  V30 2854 H 281.88 3.17718 -2.71007 0
M  V30 2855 N 282.317 1.53212 0.369288 0
M  V30 2856 C 283.264 1.79388 1.45219 0
M  V30 2857 C 284.234 0.638059 1.53356 0
M  V30 2858 O 285.419 0.879852 1.69302 0
M  V30 2859 C 282.559 1.98623 2.82211 0
M  V30 2860 C 281.672 3.26337 2.8307 0
M  V30 2861 C 280.807 3.35779 4.11614 0
M  V30 2862 C 279.846 4.5754 4.06601 0
M  V30 2863 N 278.983 4.64155 5.26787 0
M  V30 2864 H 283.823 2.71794 1.22198 0
M  V30 2865 H 281.36 1.34642 0.592444 0
M  V30 2866 H 283.318 2.07761 3.61789 0
M  V30 2867 H 281.948 1.09558 3.03639 0
M  V30 2868 H 281 3.26171 1.95747 0
M  V30 2869 H 282.312 4.15988 2.75237 0
M  V30 2870 H 281.466 3.44208 4.99606 0
M  V30 2871 H 280.205 2.44137 4.22195 0
M  V30 2872 H 279.21 4.49215 3.16996 0
M  V30 2873 H 280.435 5.50519 3.97625 0
M  V30 2874 H 278.381 3.75413 5.3796 0
M  V30 2875 H 278.298 5.47706 5.21109 0
M  V30 2876 H 279.566 4.76863 6.16621 0
M  V30 2877 N 283.795 -0.628877 1.44509 0
M  V30 2878 C 285.023 -1.41554 1.50897 0
M  V30 2879 C 285.438 -1.8832 0.134564 0
M  V30 2880 O 284.795 -1.60969 -0.859965 0
M  V30 2881 C 284.846 -2.63435 2.47556 0
M  V30 2882 O 284.567 -2.18619 3.79654 0
M  V30 2883 C 286.068 -3.56537 2.63431 0
M  V30 2884 H 283.288 -0.434044 0.511709 0
M  V30 2885 H 285.832 -0.768895 1.89495 0
M  V30 2886 H 283.987 -3.24187 2.12089 0
M  V30 2887 H 284.401 -2.97652 4.31861 0
M  V30 2888 H 285.875 -4.38657 3.35088 0
M  V30 2889 H 286.352 -4.05493 1.68738 0
M  V30 2890 H 286.958 -3.01653 2.9981 0
M  V30 2891 N 285.273 -1.31445 -0.869486 0
M  V30 2892 C 286.223 -1.15731 -1.96444 0
M  V30 2893 C 287.207 -0.0681855 -1.60755 0
M  V30 2894 O 288.399 -0.293154 -1.74555 0
M  V30 2895 C 285.528 -0.867255 -3.32165 0
M  V30 2896 C 284.614 -1.99738 -3.74119 0
M  V30 2897 N 285.005 -3.24447 -3.88031 0
M  V30 2898 C 283.303 -1.89723 -4.03635 0
M  V30 2899 C 284.004 -3.98374 -4.23879 0
M  V30 2900 N 282.98 -3.26547 -4.3459 0
M  V30 2901 H 286.782 -2.10296 -2.05312 0
M  V30 2902 H 284.296 -1.23009 -1.06031 0
M  V30 2903 H 286.293 -0.735668 -4.10358 0
M  V30 2904 H 284.953 0.0701614 -3.24624 0
M  V30 2905 H 285.964 -3.59557 -3.72746 0
M  V30 2906 H 282.641 -1.03449 -4.04481 0
M  V30 2907 H 284.031 -5.05844 -4.42235 0
M  V30 2908 N 286.751 1.08385 -1.14413 0
M  V30 2909 C 287.681 2.17321 -0.854044 0
M  V30 2910 C 288.662 1.69024 0.191049 0
M  V30 2911 O 289.847 1.94141 0.0476779 0
M  V30 2912 C 286.977 3.45719 -0.330983 0
M  V30 2913 C 285.931 4.07409 -1.31155 0
M  V30 2914 C 285.257 5.30762 -0.64778 0
M  V30 2915 C 286.557 4.48665 -2.67388 0
M  V30 2916 H 288.251 2.41845 -1.76498 0
M  V30 2917 H 285.797 1.16233 -0.850051 0
M  V30 2918 H 287.75 4.21241 -0.115645 0
M  V30 2919 H 286.474 3.2075 0.615381 0
M  V30 2920 H 285.133 3.33919 -1.51306 0
M  V30 2921 H 284.781 5.02078 0.304398 0
M  V30 2922 H 284.481 5.72992 -1.30207 0
M  V30 2923 H 286.005 6.08998 -0.441972 0
M  V30 2924 H 287.419 5.15364 -2.51143 0
M  V30 2925 H 285.816 5.01814 -3.29093 0
M  V30 2926 H 286.886 3.60543 -3.24248 0
M  V30 2927 N 288.23 0.939286 1.26551 0
M  V30 2928 C 289.477 0.585847 1.9384 0
M  V30 2929 C 289.805 -0.874784 1.73718 0
M  V30 2930 O 289.06 -1.64092 1.06642 0
M  V30 2931 C 289.359 0.872106 3.46596 0
M  V30 2932 C 289.025 2.31632 3.86856 0
M  V30 2933 C 287.687 2.71111 3.97558 0
M  V30 2934 C 290.039 3.25494 4.07066 0
M  V30 2935 C 287.367 4.03553 4.25866 0
M  V30 2936 C 289.719 4.57531 4.36862 0
M  V30 2937 C 288.383 4.96828 4.45778 0
M  V30 2938 H 287.653 0.214377 0.709312 0
M  V30 2939 H 290.3 1.18544 1.50398 0
M  V30 2940 H 288.605 0.18996 3.91339 0
M  V30 2941 H 290.302 0.577442 3.96821 0
M  V30 2942 H 286.892 2.00008 3.79071 0
M  V30 2943 H 291.076 2.9619 3.98227 0
M  V30 2944 H 286.332 4.33665 4.30981 0
M  V30 2945 H 290.506 5.30254 4.51446 0
M  V30 2946 H 288.133 5.99482 4.67468 0
M  V30 2947 N 289.708 -1.40897 0.706093 0
M  V30 2948 C 290.954 -2.01352 0.241889 0
M  V30 2949 C 291.287 -1.55832 -1.15888 0
M  V30 2950 O 290.562 -0.774145 -1.7843 0
M  V30 2951 C 290.845 -3.58752 0.311311 0
M  V30 2952 C 290.698 -4.1437 1.74978 0
M  V30 2953 C 292.017 -4.38914 -0.322922 0
M  V30 2954 H 289.136 -0.731562 0.0893687 0
M  V30 2955 H 291.778 -1.67504 0.896802 0
M  V30 2956 H 289.928 -3.87718 -0.246302 0
M  V30 2957 H 291.6 -3.96239 2.36205 0
M  V30 2958 H 289.843 -3.69016 2.28057 0
M  V30 2959 H 290.514 -5.23532 1.74981 0
M  V30 2960 H 292.99 -4.15822 0.152089 0
M  V30 2961 H 291.866 -5.48358 -0.243855 0
M  V30 2962 H 292.127 -4.19176 -1.40513 0
M  V30 2963 N 291.186 -0.45159 -1.50991 0
M  V30 2964 C 292.602 -0.104647 -1.59257 0
M  V30 2965 C 292.802 1.38728 -1.4614 0
M  V30 2966 O 291.858 2.15866 -1.30989 0
M  V30 2967 C 293.171 -0.637468 -2.93865 0
M  V30 2968 C 294.719 -0.599166 -3.07212 0
M  V30 2969 C 295.194 -1.1092 -4.44366 0
M  V30 2970 N 296.685 -1.06778 -4.50725 0
M  V30 2971 C 297.42 -1.43314 -5.55201 0
M  V30 2972 N 296.916 -1.87204 -6.67028 0
M  V30 2973 N 298.709 -1.3504 -5.45638 0
M  V30 2974 H 290.86 -1.42214 -1.57762 0
M  V30 2975 H 293.123 -0.586921 -0.744465 0
M  V30 2976 H 292.829 -1.68187 -3.08879 0
M  V30 2977 H 292.703 -0.0702139 -3.77135 0
M  V30 2978 H 295.09 0.436277 -2.91857 0
M  V30 2979 H 295.171 -1.20299 -2.25747 0
M  V30 2980 H 294.815 -2.14318 -4.60467 0
M  V30 2981 H 294.745 -0.481773 -5.24392 0
M  V30 2982 H 297.236 -0.745643 -3.70471 0
M  V30 2983 H 297.549 -2.13282 -7.42786 0
M  V30 2984 H 295.894 -1.91142 -6.68199 0
M  V30 2985 H 299.085 -1.00607 -4.57161 0
M  V30 2986 H 299.258 -1.63841 -6.26945 0
M  V30 2987 N 292.664 1.56529 -0.183458 0
M  V30 2988 C 293.611 2.18546 0.742055 0
M  V30 2989 C 294.581 1.12912 1.2182 0
M  V30 2990 O 295.766 1.41115 1.28418 0
M  V30 2991 C 292.906 2.83977 1.96089 0
M  V30 2992 C 292.019 4.04105 1.52719 0
M  V30 2993 C 291.154 4.57427 2.70063 0
M  V30 2994 C 290.193 5.69938 2.23243 0
M  V30 2995 N 289.33 6.17717 3.33722 0
M  V30 2996 H 294.17 2.97284 0.206432 0
M  V30 2997 H 291.707 1.46823 0.0901571 0
M  V30 2998 H 293.665 3.20077 2.67594 0
M  V30 2999 H 292.295 2.07822 2.47002 0
M  V30 3000 H 291.347 3.73745 0.708436 0
M  V30 3001 H 292.659 4.85513 1.1436 0
M  V30 3002 H 291.813 4.95772 3.49708 0
M  V30 3003 H 290.552 3.75101 3.11689 0
M  V30 3004 H 289.557 5.31133 1.42048 0
M  V30 3005 H 290.782 6.54073 1.82661 0
M  V30 3006 H 288.728 5.38317 3.74902 0
M  V30 3007 H 288.645 6.94146 2.99495 0
M  V30 3008 H 289.913 6.60713 4.13616 0
M  V30 3009 N 294.142 -0.090211 1.57342 0
M  V30 3010 C 295.092 -1.11557 1.98844 0
M  V30 3011 C 296.076 -1.35503 0.867624 0
M  V30 3012 O 297.268 -1.36113 1.13148 0
M  V30 3013 C 294.397 -2.43446 2.42051 0
M  V30 3014 C 293.483 -2.22853 3.60828 0
M  V30 3015 N 293.874 -1.72141 4.75606 0
M  V30 3016 C 292.172 -2.53401 3.67021 0
M  V30 3017 C 292.873 -1.65932 5.57531 0
M  V30 3018 N 291.849 -2.11323 5.00843 0
M  V30 3019 H 295.651 -0.716499 2.85032 0
M  V30 3020 H 293.165 -0.297567 1.59651 0
M  V30 3021 H 295.162 -3.17644 2.70014 0
M  V30 3022 H 293.822 -2.84087 1.57241 0
M  V30 3023 H 294.833 -1.41268 4.98261 0
M  V30 3024 H 291.51 -2.97532 2.92884 0
M  V30 3025 H 292.9 -1.27733 6.59647 0
M  V30 3026 N 295.62 -1.53406 -0.361157 0
M  V30 3027 C 296.583 -1.79479 -1.42548 0
M  V30 3028 C 297.583 -0.665327 -1.4639 0
M  V30 3029 O 298.773 -0.933549 -1.47073 0
M  V30 3030 C 295.905 -1.92087 -2.8163 0
M  V30 3031 H 297.098 -2.74538 -1.20701 0
M  V30 3032 H 294.651 -1.4455 -0.594546 0
M  V30 3033 H 295.386 -0.991099 -3.08784 0
M  V30 3034 H 295.171 -2.74241 -2.80239 0
M  V30 3035 H 296.661 -2.13836 -3.58697 0
M  V30 3036 N 297.098 0.621204 -1.44841 0
M  V30 3037 C 298.509 1.20298 -1.42777 0
M  V30 3038 C 298.86 1.95639 -0.148259 0
M  V30 3039 O 297.985 2.02955 0.750892 0
M  V30 3040 C 298.58 2.1882 -2.58657 0
M  V30 3041 C 297.139 2.72403 -2.59756 0
M  V30 3042 C 296.286 1.4757 -2.34773 0
M  V30 3043 H 299.237 0.411297 -1.53278 0
M  V30 3044 H 299.258 3.01607 -2.31977 0
M  V30 3045 H 298.77 1.63957 -3.51766 0
M  V30 3046 H 296.871 3.31242 -1.70615 0
M  V30 3047 H 296.984 3.17765 -3.58556 0
M  V30 3048 H 295.348 1.76051 -1.8406 0
M  V30 3049 H 296.131 0.945954 -3.3001 0
M  V30 3050 N 298.576 1.31904 0.862503 0
M  V30 3051 C 299.506 1.22782 1.98612 0
M  V30 3052 C 300.487 0.113362 1.69722 0
M  V30 3053 O 301.672 0.299218 1.91881 0
M  V30 3054 C 298.802 0.942058 3.34279 0
M  V30 3055 C 297.756 2.0169 3.77499 0
M  V30 3056 C 297.082 1.58369 5.10709 0
M  V30 3057 C 298.382 3.43096 3.93805 0
M  V30 3058 H 300.076 2.16788 2.06502 0
M  V30 3059 H 297.622 1.04366 0.992154 0
M  V30 3060 H 299.575 0.864818 4.1243 0
M  V30 3061 H 298.299 -0.0336603 3.26583 0
M  V30 3062 H 296.958 2.08416 3.01593 0
M  V30 3063 H 296.606 0.595628 4.99461 0
M  V30 3064 H 296.306 2.30279 5.40597 0
M  V30 3065 H 297.83 1.52067 5.91361 0
M  V30 3066 H 299.244 3.39003 4.62331 0
M  V30 3067 H 297.641 4.13288 4.35101 0
M  V30 3068 H 298.711 3.83334 2.96957 0
M  V30 3069 N 300.054 -1.07777 1.14986 0
M  V30 3070 C 301.47 -1.32373 0.891596 0
M  V30 3071 C 301.67 -1.9609 -0.463788 0
M  V30 3072 O 300.726 -2.21801 -1.20667 0
M  V30 3073 C 302.039 -2.21905 2.02925 0
M  V30 3074 C 303.587 -2.35367 2.06329 0
M  V30 3075 C 304.062 -3.28245 3.19405 0
M  V30 3076 N 305.553 -3.35824 3.19024 0
M  V30 3077 C 306.288 -4.07739 4.03158 0
M  V30 3078 N 305.784 -4.82306 4.97346 0
M  V30 3079 N 307.577 -4.03635 3.91197 0
M  V30 3080 H 299.728 -0.648039 2.02273 0
M  V30 3081 H 301.991 -0.348149 0.881757 0
M  V30 3082 H 301.697 -1.82342 3.0074 0
M  V30 3083 H 301.571 -3.22407 1.95789 0
M  V30 3084 H 303.958 -2.74186 1.09116 0
M  V30 3085 H 304.039 -1.34585 2.17533 0
M  V30 3086 H 303.683 -2.90146 4.16867 0
M  V30 3087 H 303.613 -4.28971 3.05437 0
M  V30 3088 H 306.104 -2.8267 2.50811 0
M  V30 3089 H 306.417 -5.34661 5.57994 0
M  V30 3090 H 304.762 -4.81337 5.01338 0
M  V30 3091 H 307.953 -3.44491 3.16928 0
M  V30 3092 H 308.126 -4.59417 4.5699 0
M  V30 3093 N 301.532 -0.945985 -1.26051 0
M  V30 3094 C 302.757 -0.612525 -1.98149 0
M  V30 3095 C 303.182 0.806623 -1.69927 0
M  V30 3096 O 302.54 1.54411 -0.950108 0
M  V30 3097 C 302.588 -0.866981 -3.50023 0
M  V30 3098 O 301.692 0.0585333 -4.12358 0
M  V30 3099 H 301.033 -0.23379 -0.621481 0
M  V30 3100 H 303.563 -1.27023 -1.60395 0
M  V30 3101 H 303.573 -0.789792 -4.00283 0
M  V30 3102 H 302.248 -1.90135 -3.69894 0
M  V30 3103 H 300.825 -0.0701241 -3.72834 0
M  V30 3104 N 303.011 1.40521 -0.713556 0
M  V30 3105 C 304.258 2.00923 -0.25219 0
M  V30 3106 C 304.586 1.56571 1.15395 0
M  V30 3107 O 303.841 0.775874 1.79663 0
M  V30 3108 C 304.14 3.56317 -0.278 0
M  V30 3109 C 303.806 4.20246 -1.63415 0
M  V30 3110 C 302.468 4.37422 -2.00538 0
M  V30 3111 C 304.82 4.55923 -2.52554 0
M  V30 3112 C 302.148 4.87558 -3.2635 0
M  V30 3113 C 304.5 5.07458 -3.77716 0
M  V30 3114 C 303.164 5.22843 -4.14959 0
M  V30 3115 H 302.434 0.735231 -0.0922829 0
M  V30 3116 H 305.081 1.68161 -0.916188 0
M  V30 3117 H 303.386 3.88976 0.469567 0
M  V30 3118 H 305.083 4.00883 0.0967819 0
M  V30 3119 H 301.673 4.07263 -1.33546 0
M  V30 3120 H 305.857 4.42291 -2.25149 0
M  V30 3121 H 301.113 4.97654 -3.55176 0
M  V30 3122 H 305.287 5.34041 -4.4696 0
M  V30 3123 H 302.914 5.61454 -5.12516 0
M  V30 3124 N 304.489 0.459591 1.5075 0
M  V30 3125 C 305.766 -0.160371 1.94941 0
M  V30 3126 C 306.146 -1.58048 1.39943 0
M  V30 3127 O 305.494 -2.206 0.595629 0
M  V30 3128 C 305.704 -0.115432 3.48809 0
M  V30 3129 C 307.052 -0.310026 4.23467 0
M  V30 3130 O 308.076 -0.192543 3.55679 0
M  V30 3131 O 306.935 -0.546031 5.43765 0
M  V30 3132 H 304.029 -0.117925 0.818549 0
M  V30 3133 H 306.575 0.519169 1.61563 0
M  V30 3134 H 305.347 0.87652 3.81357 0
M  V30 3135 H 304.97 -0.836928 3.88692 0
M  V30 3136 N 305.967 -1.56429 0.191757 0
M  V30 3137 C 307.378 -1.83912 -0.321428 0
M  V30 3138 C 307.729 -1.11231 -1.61623 0
M  V30 3139 O 306.854 -0.37202 -2.13178 0
M  V30 3140 C 307.449 -3.33624 -0.589961 0
M  V30 3141 C 306.008 -3.6153 -1.04753 0
M  V30 3142 C 305.155 -2.7714 -0.0943327 0
M  V30 3143 H 308.106 -1.53161 0.415612 0
M  V30 3144 H 308.127 -3.52213 -1.43966 0
M  V30 3145 H 307.639 -3.86495 0.352588 0
M  V30 3146 H 305.74 -3.14089 -2.00447 0
M  V30 3147 H 305.853 -4.69737 -0.942549 0
M  V30 3148 H 304.217 -2.47638 -0.595589 0
M  V30 3149 H 305 -3.32799 0.842601 0
M  V30 3150 N 307.445 0.0818655 -1.57387 0
M  V30 3151 C 308.378 1.12986 -1.98266 0
M  V30 3152 C 309.356 1.38123 -0.857954 0
M  V30 3153 O 310.54 1.51663 -1.1194 0
M  V30 3154 C 307.667 2.47632 -2.31076 0
M  V30 3155 C 306.713 2.38693 -3.53452 0
M  V30 3156 S 307.546 1.79071 -5.04672 0
M  V30 3157 C 308.702 3.15316 -5.40673 0
M  V30 3158 H 308.935 0.781435 -2.86846 0
M  V30 3159 H 306.468 0.290034 -1.51651 0
M  V30 3160 H 308.426 3.25089 -2.50654 0
M  V30 3161 H 307.087 2.79638 -1.43043 0
M  V30 3162 H 306.28 3.37964 -3.73893 0
M  V30 3163 H 305.882 1.69369 -3.33452 0
M  V30 3164 H 308.174 4.11613 -5.38127 0
M  V30 3165 H 309.117 2.99664 -6.41566 0
M  V30 3166 H 309.525 3.15457 -4.68132 0
M  V30 3167 N 308.923 1.53595 0.353017 0
M  V30 3168 C 310.172 1.69603 1.09168 0
M  V30 3169 C 310.485 0.460925 1.90092 0
M  V30 3170 O 311.691 0.501774 2.66823 0
M  V30 3171 C 310.147 2.99872 1.9901 0
M  V30 3172 C 309.755 4.30687 1.23339 0
M  V30 3173 C 311.499 3.25246 2.72792 0
M  V30 3174 C 309.406 5.52036 2.12156 0
M  V30 3175 H 308.336 0.631966 0.411261 0
M  V30 3176 H 310.987 1.80096 0.351802 0
M  V30 3177 H 309.369 2.83212 2.7678 0
M  V30 3178 H 310.543 4.58019 0.505456 0
M  V30 3179 H 308.858 4.11853 0.613663 0
M  V30 3180 H 311.455 4.13095 3.39495 0
M  V30 3181 H 311.798 2.41846 3.38846 0
M  V30 3182 H 312.331 3.42638 2.021 0
M  V30 3183 H 309.07 6.37951 1.50659 0
M  V30 3184 H 308.59 5.28966 2.82764 0
M  V30 3185 H 310.269 5.87313 2.71427 0
M  V30 3186 N 310.401 -0.613514 1.45168 0
M  V30 3187 C 311.626 -1.40437 1.52618 0
M  V30 3188 C 312.051 -1.87438 0.157707 0
M  V30 3189 O 311.409 -1.59791 -0.856537 0
M  V30 3190 C 311.457 -2.58894 2.51011 0
M  V30 3191 O 310.561 -3.59326 2.02382 0
M  V30 3192 H 309.902 -0.419506 0.514695 0
M  V30 3193 H 312.432 -0.747215 1.90467 0
M  V30 3194 H 312.442 -3.06214 2.69624 0
M  V30 3195 H 311.117 -2.24032 3.50403 0
M  V30 3196 H 309.694 -3.18695 1.93618 0
M  V30 3197 N 311.879 -1.3236 -0.855495 0
M  V30 3198 C 312.789 -1.23221 -1.99634 0
M  V30 3199 C 313.805 -0.145983 -1.73387 0
M  V30 3200 O 314.981 -0.366502 -1.98037 0
M  V30 3201 C 312.046 -0.954782 -3.33294 0
M  V30 3202 C 311.107 -2.12937 -3.72769 0
M  V30 3203 C 310.34 -1.86508 -5.00051 0
M  V30 3204 O 310.563 -0.807231 -5.64659 0
M  V30 3205 O 309.497 -2.72591 -5.36636 0
M  V30 3206 H 313.323 -2.19126 -2.1028 0
M  V30 3207 H 310.908 -1.12241 -0.986018 0
M  V30 3208 H 312.79 -0.816519 -4.13414 0
M  V30 3209 H 311.465 -0.0258854 -3.2369 0
M  V30 3210 H 310.372 -2.3231 -2.93228 0
M  V30 3211 H 311.705 -3.04102 -3.87018 0
M  V30 3212 N 313.357 1.07166 -1.15556 0
M  V30 3213 C 314.585 1.83514 -0.955519 0
M  V30 3214 C 315 1.82163 0.49621 0
M  V30 3215 O 314.357 1.23441 1.34419 0
M  V30 3216 C 314.408 3.30515 -1.46432 0
M  V30 3217 O 314.129 3.31937 -2.85918 0
M  V30 3218 C 315.63 4.23625 -1.30603 0
M  V30 3219 H 312.85 0.578926 -0.339244 0
M  V30 3220 H 315.394 1.35265 -1.53374 0
M  V30 3221 H 313.549 3.76106 -0.928584 0
M  V30 3222 H 313.963 4.23794 -3.09029 0
M  V30 3223 H 315.437 5.24831 -1.71047 0
M  V30 3224 H 315.914 4.38485 -0.250441 0
M  V30 3225 H 316.52 3.83871 -1.83094 0
M  V30 3226 N 314.835 0.952656 1.25548 0
M  V30 3227 C 315.765 0.489287 2.28316 0
M  V30 3228 C 316.746 -0.463359 1.63667 0
M  V30 3229 O 317.931 -0.36274 1.90782 0
M  V30 3230 C 315.061 -0.235603 3.465 0
M  V30 3231 C 314.015 0.631593 4.23314 0
M  V30 3232 C 313.341 -0.223923 5.34231 0
M  V30 3233 C 314.641 1.90871 4.86174 0
M  V30 3234 H 316.335 1.34822 2.67326 0
M  V30 3235 H 313.881 0.649728 1.28509 0
M  V30 3236 H 315.834 -0.570882 4.17515 0
M  V30 3237 H 314.558 -1.12877 3.06474 0
M  V30 3238 H 313.217 0.949929 3.54079 0
M  V30 3239 H 312.865 -1.11678 4.90446 0
M  V30 3240 H 312.565 0.35299 5.86539 0
M  V30 3241 H 314.089 -0.554214 6.0808 0
M  V30 3242 H 315.503 1.63997 5.49343 0
M  V30 3243 H 313.9 2.43112 5.4865 0
M  V30 3244 H 314.97 2.61304 4.08471 0
M  V30 3245 N 316.313 -1.40141 0.720998 0
M  V30 3246 C 317.559 -2.01084 0.263231 0
M  V30 3247 C 317.892 -1.57052 -1.14229 0
M  V30 3248 O 317.167 -0.793027 -1.77599 0
M  V30 3249 C 317.45 -3.58401 0.349344 0
M  V30 3250 C 317.303 -4.12491 1.79363 0
M  V30 3251 C 318.622 -4.39231 -0.276351 0
M  V30 3252 H 315.741 -0.730572 0.0971228 0
M  V30 3253 H 318.383 -1.66543 0.914518 0
M  V30 3254 H 316.533 -3.87958 -0.205165 0
M  V30 3255 H 318.205 -3.93711 2.40394 0
M  V30 3256 H 316.448 -3.66576 2.31958 0
M  V30 3257 H 317.119 -5.21646 1.80524 0
M  V30 3258 H 319.595 -4.15637 0.196184 0
M  V30 3259 H 318.471 -5.48586 -0.185681 0
M  V30 3260 H 318.732 -4.20643 -1.36059 0
M  V30 3261 N 317.792 -0.46758 -1.50504 0
M  V30 3262 C 318.702 0.33382 -2.32213 0
M  V30 3263 C 319.718 0.999323 -1.42441 0
M  V30 3264 O 320.894 0.988068 -1.75497 0
M  V30 3265 C 317.959 1.4035 -3.17022 0
M  V30 3266 C 317.02 0.754961 -4.2261 0
M  V30 3267 C 316.253 1.77367 -5.03365 0
M  V30 3268 O 316.476 2.99976 -4.8515 0
M  V30 3269 O 315.41 1.34744 -5.86624 0
M  V30 3270 H 319.236 -0.334067 -3.01857 0
M  V30 3271 H 316.821 -0.229496 -1.47627 0
M  V30 3272 H 318.703 2.02318 -3.69656 0
M  V30 3273 H 317.378 2.05492 -2.5011 0
M  V30 3274 H 316.285 0.0964244 -3.73976 0
M  V30 3275 H 317.618 0.146545 -4.91982 0
M  V30 3276 N 319.27 1.56325 -0.20005 0
M  V30 3277 C 320.516 1.98012 0.438059 0
M  V30 3278 C 320.849 1.08702 1.60927 0
M  V30 3279 O 320.124 0.140064 1.93995 0
M  V30 3280 C 320.407 3.48841 0.893419 0
M  V30 3281 C 320.26 4.48928 -0.279947 0
M  V30 3282 C 321.579 4.03498 1.75719 0
M  V30 3283 H 318.698 0.719918 0.157757 0
M  V30 3284 H 321.34 1.87743 -0.291968 0
M  V30 3285 H 319.49 3.57723 1.51547 0
M  V30 3286 H 321.162 4.52079 -0.91772 0
M  V30 3287 H 319.405 4.23694 -0.930919 0
M  V30 3288 H 320.076 5.5194 0.0812601 0
M  V30 3289 H 322.552 3.97427 1.23253 0
M  V30 3290 H 321.428 5.09393 2.04476 0
M  V30 3291 H 321.689 3.4906 2.71311 0
M  V30 3292 N 320.748 -0.0735177 1.57428 0
M  V30 3293 C 321.681 -1.11932 1.98863 0
M  V30 3294 C 322.659 -1.37666 0.865266 0
M  V30 3295 O 323.843 -1.51068 1.12742 0
M  V30 3296 C 320.97 -2.46403 2.32386 0
M  V30 3297 C 320.016 -2.36815 3.54713 0
M  V30 3298 S 320.849 -1.76392 5.05614 0
M  V30 3299 C 322.005 -3.12444 5.42337 0
M  V30 3300 H 322.238 -0.766212 2.87257 0
M  V30 3301 H 319.771 -0.281987 1.51803 0
M  V30 3302 H 321.729 -3.23755 2.52375 0
M  V30 3303 H 320.39 -2.78876 1.44524 0
M  V30 3304 H 319.583 -3.35977 3.7568 0
M  V30 3305 H 319.185 -1.67598 3.34345 0
M  V30 3306 H 321.477 -4.08753 5.40303 0
M  V30 3307 H 322.42 -2.96258 6.43146 0
M  V30 3308 H 322.828 -3.1297 4.69798 0
M  V30 3309 N 322.226 -1.5378 -0.344866 0
M  V30 3310 C 323.174 -1.82373 -1.4437 0
M  V30 3311 C 324.168 -0.694128 -1.54526 0
M  V30 3312 O 325.374 -0.877442 -1.57165 0
M  V30 3313 H 321.749 -0.577765 -0.481344 0
M  V30 3314 H 323.72 -2.74306 -1.17468 0
M  V30 3315 C 322.469 -2.04898 -2.80913 0
M  V30 3316 H 321.792 -2.9127 -2.73865 0
M  V30 3317 H 323.232 -2.28871 -3.56923 0
M  V30 3318 C 321.691 -0.834116 -3.26411 0
M  V30 3319 O 322.221 -0.0328885 -4.01687 0
M  V30 3320 N 320.427 -0.65171 -2.83198 0
M  V30 3321 H 319.974 -1.30489 -2.22104 0
M  V30 3322 H 319.932 0.159686 -3.13994 0
M  V30 3323 N 323.704 0.605807 -1.45491 0
M  V30 3324 C 324.667 1.69836 -1.5391 0
M  V30 3325 C 325.667 1.55261 -0.418424 0
M  V30 3326 O 326.857 1.60296 -0.681965 0
M  V30 3327 C 323.989 3.09117 -1.43734 0
M  V30 3328 H 325.182 1.63738 -2.51257 0
M  V30 3329 H 322.735 0.821689 -1.32959 0
M  V30 3330 H 323.47 3.20791 -0.475788 0
M  V30 3331 H 323.255 3.21104 -2.25021 0
M  V30 3332 H 324.745 3.88696 -1.52661 0
M  V30 3333 N 325.182 1.32811 0.848464 0
M  V30 3334 C 326.092 1.24278 1.98978 0
M  V30 3335 C 327.108 0.155176 1.73307 0
M  V30 3336 O 328.284 0.376999 1.9784 0
M  V30 3337 C 325.349 0.972444 3.32783 0
M  V30 3338 C 324.41 2.14911 3.71634 0
M  V30 3339 C 323.643 1.89157 4.99054 0
M  V30 3340 O 323.866 0.837165 5.64223 0
M  V30 3341 O 322.8 2.75433 5.35183 0
M  V30 3342 H 326.626 2.20238 2.09115 0
M  V30 3343 H 324.211 1.12762 0.980052 0
M  V30 3344 H 326.093 0.838432 4.12975 0
M  V30 3345 H 324.768 0.043051 3.23671 0
M  V30 3346 H 323.675 2.33862 2.91992 0
M  V30 3347 H 325.008 3.06151 3.85399 0
M  V30 3348 N 326.66 -1.06551 1.16123 0
M  V30 3349 C 327.908 -1.78947 0.939267 0
M  V30 3350 C 328.229 -1.87532 -0.534476 0
M  V30 3351 O 327.499 -1.38211 -1.38833 0
M  V30 3352 H 326.079 -0.662807 0.344523 0
M  V30 3353 H 328.741 -1.28725 1.46342 0
M  V30 3354 H 327.837 -2.81117 1.35572 0
M  V30 3355 N 328.138 -0.959301 -1.25041 0
M  V30 3356 C 329.549 -0.65667 -1.74771 0
M  V30 3357 C 329.9 0.827852 -1.77879 0
M  V30 3358 O 329.025 1.64783 -1.40269 0
M  V30 3359 C 329.62 -1.1853 -3.1739 0
M  V30 3360 C 328.179 -0.932734 -3.6466 0
M  V30 3361 C 327.326 -1.32558 -2.43564 0
M  V30 3362 H 330.277 -1.13558 -1.10862 0
M  V30 3363 H 330.298 -0.547582 -3.76539 0
M  V30 3364 H 329.81 -2.26576 -3.15095 0
M  V30 3365 H 327.911 0.13257 -3.72364 0
M  V30 3366 H 328.024 -1.57248 -4.52559 0
M  V30 3367 H 326.388 -0.743956 -2.43593 0
M  V30 3368 H 327.171 -2.41537 -2.43957 0
M  V30 3369 N 329.616 1.39756 -0.72842 0
M  V30 3370 C 330.548 2.29157 -0.0446202 0
M  V30 3371 C 331.561 1.46484 0.710367 0
M  V30 3372 O 332.75 1.69632 0.55562 0
M  V30 3373 C 329.85 3.24987 0.961071 0
M  V30 3374 C 329.023 4.36572 0.268967 0
M  V30 3375 C 328.082 5.12756 1.18184 0
M  V30 3376 O 327.108 5.6534 0.661794 0
M  V30 3377 N 328.31 5.23331 2.51206 0
M  V30 3378 H 331.075 2.88482 -0.812295 0
M  V30 3379 H 328.636 1.51265 -0.577098 0
M  V30 3380 H 330.628 3.72827 1.57423 0
M  V30 3381 H 329.198 2.66739 1.63 0
M  V30 3382 H 328.418 3.90694 -0.524574 0
M  V30 3383 H 329.706 5.08363 -0.210934 0
M  V30 3384 H 329.104 4.82116 2.9594 0
M  V30 3385 H 327.661 5.74634 3.07634 0
M  V30 3386 N 331.094 0.475555 1.50254 0
M  V30 3387 C 332.024 -0.30611 2.31485 0
M  V30 3388 C 333.005 -0.986228 1.38591 0
M  V30 3389 O 334.19 -0.982541 1.67511 0
M  V30 3390 C 331.32 -1.38588 3.1845 0
M  V30 3391 C 330.274 -0.827115 4.19932 0
M  V30 3392 C 329.6 -2.00551 4.95665 0
M  V30 3393 C 330.9 0.16463 5.2204 0
M  V30 3394 H 332.594 0.371866 2.97082 0
M  V30 3395 H 330.14 0.180282 1.42867 0
M  V30 3396 H 332.093 -1.94023 3.74076 0
M  V30 3397 H 330.817 -2.09269 2.50747 0
M  V30 3398 H 329.476 -0.294702 3.65414 0
M  V30 3399 H 329.124 -2.6994 4.2443 0
M  V30 3400 H 328.824 -1.63784 5.64313 0
M  V30 3401 H 330.348 -2.56468 5.54127 0
M  V30 3402 H 331.762 -0.300699 5.72511 0
M  V30 3403 H 330.159 0.446813 5.98434 0
M  V30 3404 H 331.229 1.08905 4.72512 0
M  V30 3405 N 332.573 -1.56217 0.208337 0
M  V30 3406 C 333.523 -2.16324 -0.720281 0
M  V30 3407 C 334.507 -1.10775 -1.16695 0
M  V30 3408 O 335.699 -1.36801 -1.12314 0
M  V30 3409 C 332.828 -2.83644 -1.93393 0
M  V30 3410 C 331.914 -3.96401 -1.50755 0
M  V30 3411 N 332.305 -4.99546 -0.792937 0
M  V30 3412 C 330.603 -4.08246 -1.79585 0
M  V30 3413 C 331.304 -5.78828 -0.577364 0
M  V30 3414 N 330.28 -5.31723 -1.1301 0
M  V30 3415 H 334.082 -2.93432 -0.165725 0
M  V30 3416 H 331.596 -1.62397 0.00906463 0
M  V30 3417 H 333.593 -3.25107 -2.60981 0
M  V30 3418 H 332.253 -2.08027 -2.49308 0
M  V30 3419 H 333.264 -5.15967 -0.447004 0
M  V30 3420 H 329.941 -3.4377 -2.36915 0
M  V30 3421 H 331.331 -6.71899 -0.00952956 0
M  V30 3422 N 334.051 0.0651679 -1.57465 0
M  V30 3423 C 335.279 0.775808 -1.91804 0
M  V30 3424 C 335.694 1.70782 -0.804916 0
M  V30 3425 O 335.051 1.81153 0.221311 0
M  V30 3426 C 335.102 1.56381 -3.25925 0
M  V30 3427 O 334.823 0.669248 -4.32958 0
M  V30 3428 C 336.324 2.37485 -3.7432 0
M  V30 3429 H 333.544 0.2202 -0.63384 0
M  V30 3430 H 336.088 0.0334587 -2.04473 0
M  V30 3431 H 334.243 2.25837 -3.14764 0
M  V30 3432 H 334.657 1.21801 -5.10162 0
M  V30 3433 H 336.131 2.88223 -4.70778 0
M  V30 3434 H 336.608 3.17307 -3.03666 0
M  V30 3435 H 337.214 1.73173 -3.88447 0
M  V30 3436 N 335.529 1.53961 0.336706 0
M  V30 3437 C 336.477 1.83136 1.43401 0
M  V30 3438 C 337.471 0.702313 1.54156 0
M  V30 3439 O 338.677 0.885765 1.56698 0
M  V30 3440 H 335.052 0.580309 0.478273 0
M  V30 3441 H 337.023 2.74925 1.16012 0
M  V30 3442 C 335.772 2.06385 2.79822 0
M  V30 3443 H 335.095 2.92718 2.72316 0
M  V30 3444 H 336.535 2.30761 3.55704 0
M  V30 3445 C 334.994 0.851414 3.25964 0
M  V30 3446 O 335.524 0.0541904 4.01663 0
M  V30 3447 N 333.73 0.66672 2.82848 0
M  V30 3448 H 333.277 1.31665 2.21409 0
M  V30 3449 H 333.235 -0.143032 3.14074 0
M  V30 3450 N 337.007 -0.598083 1.45811 0
M  V30 3451 C 337.97 -1.69018 1.54808 0
M  V30 3452 C 338.97 -1.55037 0.426652 0
M  V30 3453 O 340.16 -1.59932 0.690456 0
M  V30 3454 C 337.292 -3.0835 1.45371 0
M  V30 3455 H 338.485 -1.62403 2.52121 0
M  V30 3456 H 336.038 -0.814626 1.33392 0
M  V30 3457 H 336.773 -3.20534 0.492793 0
M  V30 3458 H 336.558 -3.19907 2.26721 0
M  V30 3459 H 338.048 -3.8788 1.54721 0
M  V30 3460 N 338.485 -1.33259 -0.841409 0
M  V30 3461 C 339.734 -1.23921 -1.59143 0
M  V30 3462 C 340.047 0.1941 -1.94635 0
M  V30 3463 O 341.253 0.409474 -2.68394 0
M  V30 3464 C 339.709 -2.17119 -2.87032 0
M  V30 3465 C 339.317 -3.65606 -2.58914 0
M  V30 3466 C 341.061 -2.16648 -3.65053 0
M  V30 3467 C 338.968 -4.50726 -3.82884 0
M  V30 3468 H 337.898 -0.460264 -0.597221 0
M  V30 3469 H 340.549 -1.58307 -0.927959 0
M  V30 3470 H 338.931 -1.75663 -3.54906 0
M  V30 3471 H 340.105 -4.15487 -1.99267 0
M  V30 3472 H 338.42 -3.68341 -1.942 0
M  V30 3473 H 341.017 -2.77474 -4.57069 0
M  V30 3474 H 341.36 -1.16088 -3.99787 0
M  V30 3475 H 341.893 -2.56453 -3.041 0
M  V30 3476 H 338.632 -5.52151 -3.53283 0
M  V30 3477 H 338.152 -4.0559 -4.41879 0
M  V30 3478 H 339.831 -4.64401 -4.50489 0
M  V30 3479 N 339.963 1.05934 -1.16686 0
M  V30 3480 C 341.374 1.60263 -0.957745 0
M  V30 3481 C 341.725 1.89789 0.49745 0
M  V30 3482 O 340.85 1.67401 1.37135 0
M  V30 3483 C 341.445 2.91172 -1.73218 0
M  V30 3484 C 340.004 3.42188 -1.56794 0
M  V30 3485 C 339.151 2.16028 -1.73859 0
M  V30 3486 H 342.102 0.888392 -1.31504 0
M  V30 3487 H 342.123 3.60744 -1.21014 0
M  V30 3488 H 341.635 2.6965 -2.79124 0
M  V30 3489 H 339.736 3.68762 -0.533437 0
M  V30 3490 H 339.849 4.17273 -2.35414 0
M  V30 3491 H 338.213 2.26426 -1.16633 0
M  V30 3492 H 338.996 1.96985 -2.81161 0
M  V30 3493 N 341.441 0.965919 1.2453 0
M  V30 3494 C 342.388 0.49402 2.25451 0
M  V30 3495 C 343.358 -0.45948 1.59618 0
M  V30 3496 O 344.543 -0.370238 1.87173 0
M  V30 3497 C 341.683 -0.211359 3.44452 0
M  V30 3498 C 340.796 0.7807 4.24887 0
M  V30 3499 C 339.931 0.0516105 5.31175 0
M  V30 3500 C 338.97 1.03385 6.03306 0
M  V30 3501 N 338.107 0.334887 7.01301 0
M  V30 3502 H 342.947 1.35946 2.65184 0
M  V30 3503 H 340.484 0.681515 1.3036 0
M  V30 3504 H 342.442 -0.637 4.12308 0
M  V30 3505 H 341.072 -1.04077 3.05562 0
M  V30 3506 H 340.124 1.32479 3.56586 0
M  V30 3507 H 341.436 1.52978 4.74762 0
M  V30 3508 H 340.59 -0.432114 6.05159 0
M  V30 3509 H 339.329 -0.730179 4.82203 0
M  V30 3510 H 338.334 1.52847 5.28127 0
M  V30 3511 H 339.559 1.81606 6.54367 0
M  V30 3512 H 337.505 -0.427959 6.54603 0
M  V30 3513 H 337.422 1.02287 7.49048 0
M  V30 3514 H 338.69 -0.126928 7.79397 0
M  V30 3515 N 342.919 -1.39368 0.735821 0
M  V30 3516 C 343.882 -2.2896 0.104874 0
M  V30 3517 C 344.882 -1.46347 -0.666274 0
M  V30 3518 O 346.072 -1.67014 -0.49517 0
M  V30 3519 C 343.204 -3.29857 -0.860656 0
M  V30 3520 H 344.397 -2.86259 0.894205 0
M  V30 3521 H 341.95 -1.48029 0.501704 0
M  V30 3522 H 342.685 -2.77615 -1.67631 0
M  V30 3523 H 342.47 -3.9087 -0.310327 0
M  V30 3524 H 343.96 -3.96893 -1.29867 0
M  V30 3525 N 344.397 -0.483516 -1.5 0
M  V30 3526 C 345.643 0.0672592 -2.02688 0
M  V30 3527 C 345.976 1.38247 -1.36387 0
M  V30 3528 O 345.251 1.88131 -0.493675 0
M  V30 3529 C 345.534 0.238109 -3.59312 0
M  V30 3530 C 345.387 -1.099 -4.36168 0
M  V30 3531 C 346.706 0.986916 -4.28892 0
M  V30 3532 H 343.825 0.0229696 -0.736642 0
M  V30 3533 H 346.467 -0.631527 -1.79197 0
M  V30 3534 H 344.617 0.8333 -3.79458 0
M  V30 3535 H 346.289 -1.73172 -4.27562 0
M  V30 3536 H 344.532 -1.69261 -3.99416 0
M  V30 3537 H 345.203 -0.932954 -5.44059 0
M  V30 3538 H 347.679 0.482302 -4.13295 0
M  V30 3539 H 346.555 1.07527 -5.38265 0
M  V30 3540 H 346.816 2.0265 -3.92919 0
M  V30 3541 N 345.875 1.56104 -0.216619 0
M  V30 3542 C 347.121 1.98466 0.417033 0
M  V30 3543 C 347.454 1.10403 1.59765 0
M  V30 3544 O 346.729 0.160632 1.93836 0
M  V30 3545 C 347.012 3.49769 0.85637 0
M  V30 3546 C 346.865 4.48606 -0.327546 0
M  V30 3547 C 348.184 4.05339 1.7143 0
M  V30 3548 H 345.303 0.721551 0.150112 0
M  V30 3549 H 347.945 1.87423 -0.311864 0
M  V30 3550 H 346.095 3.5931 1.47745 0
M  V30 3551 H 347.767 4.5108 -0.965618 0
M  V30 3552 H 346.01 4.22682 -0.975805 0
M  V30 3553 H 346.681 5.51995 0.0227149 0
M  V30 3554 H 349.157 3.98712 1.19031 0
M  V30 3555 H 348.033 5.11533 1.99061 0
M  V30 3556 H 348.294 3.51918 2.67593 0
M  V30 3557 N 347.353 -0.0568162 1.57498 0
M  V30 3558 C 348.3 -1.06591 2.04712 0
M  V30 3559 C 349.27 -1.3758 0.930644 0
M  V30 3560 O 350.455 -1.48392 1.19935 0
M  V30 3561 C 347.595 -2.3701 2.50839 0
M  V30 3562 C 346.708 -2.12421 3.76167 0
M  V30 3563 C 345.843 -3.36511 4.11015 0
M  V30 3564 C 344.882 -3.07353 5.2934 0
M  V30 3565 N 344.019 -4.23816 5.59754 0
M  V30 3566 H 348.859 -0.65631 2.90683 0
M  V30 3567 H 346.396 -0.312481 1.43743 0
M  V30 3568 H 348.354 -3.13175 2.7564 0
M  V30 3569 H 346.984 -2.75744 1.67825 0
M  V30 3570 H 346.036 -1.2688 3.58616 0
M  V30 3571 H 347.348 -1.86894 4.62463 0
M  V30 3572 H 346.502 -4.21062 4.36797 0
M  V30 3573 H 345.241 -3.65128 3.23315 0
M  V30 3574 H 344.246 -2.212 5.03339 0
M  V30 3575 H 345.471 -2.80043 6.1867 0
M  V30 3576 H 343.417 -4.52436 4.75014 0
M  V30 3577 H 343.334 -4.01614 6.40501 0
M  V30 3578 H 344.602 -5.0932 5.90096 0
M  V30 3579 N 348.832 -1.54138 -0.328536 0
M  V30 3580 C 349.78 -1.83894 -1.42428 0
M  V30 3581 C 350.774 -0.710478 -1.53781 0
M  V30 3582 O 351.98 -0.894062 -1.56226 0
M  V30 3583 H 348.355 -0.582837 -0.475189 0
M  V30 3584 H 350.326 -2.75537 -1.14552 0
M  V30 3585 C 349.075 -2.07866 -2.78724 0
M  V30 3586 H 348.398 -2.94158 -2.7076 0
M  V30 3587 H 349.838 -2.32644 -3.54476 0
M  V30 3588 C 348.297 -0.868689 -3.25508 0
M  V30 3589 O 348.827 -0.0754908 -4.01629 0
M  V30 3590 N 347.033 -0.681711 -2.82491 0
M  V30 3591 H 346.58 -1.32838 -2.20708 0
M  V30 3592 H 346.538 0.126374 -3.14146 0
M  V30 3593 N 350.31 0.590341 -1.46126 0
M  V30 3594 C 351.538 1.37504 -1.54597 0
M  V30 3595 C 351.953 1.87897 -0.184447 0
M  V30 3596 O 351.31 1.63192 0.816984 0
M  V30 3597 C 351.361 2.56779 -2.54454 0
M  V30 3598 O 351.082 2.08476 -3.85317 0
M  V30 3599 C 352.583 3.49427 -2.72792 0
M  V30 3600 H 349.803 0.420325 -0.523037 0
M  V30 3601 H 352.347 0.718383 -1.91467 0
M  V30 3602 H 350.502 3.1845 -2.20609 0
M  V30 3603 H 350.916 2.86097 -4.396 0
M  V30 3604 H 352.39 4.29619 -3.466 0
M  V30 3605 H 352.867 4.00876 -1.79429 0
M  V30 3606 H 353.473 2.93598 -3.07702 0
M  V30 3607 N 351.788 1.33704 0.83433 0
M  V30 3608 C 353.065 1.16011 1.57483 0
M  V30 3609 C 353.445 -0.27176 2.09343 0
M  V30 3610 O 352.793 -1.27146 1.89858 0
M  V30 3611 C 353.003 2.20507 2.70514 0
M  V30 3612 C 354.351 2.54898 3.39577 0
M  V30 3613 O 355.375 2.19209 2.80759 0
M  V30 3614 O 354.234 3.16158 4.45765 0
M  V30 3615 H 351.328 0.448992 0.694503 0
M  V30 3616 H 353.874 1.453 0.876691 0
M  V30 3617 H 352.646 3.16667 2.29865 0
M  V30 3618 H 352.269 1.92329 3.47987 0
M  V30 3619 N 353.266 -1.05314 1.17247 0
M  V30 3620 C 354.514 -1.77941 0.958194 0
M  V30 3621 C 354.835 -1.88089 -0.514556 0
M  V30 3622 O 354.105 -1.39676 -1.37359 0
M  V30 3623 H 352.685 -0.659116 0.351533 0
M  V30 3624 H 355.347 -1.27166 1.47699 0
M  V30 3625 H 354.443 -2.79663 1.38546 0
M  V30 3626 N 354.744 -0.972509 -1.24016 0
M  V30 3627 C 355.969 -0.654417 -1.96805 0
M  V30 3628 C 356.394 0.770398 -1.716 0
M  V30 3629 O 355.752 1.52361 -0.982647 0
M  V30 3630 C 355.8 -0.941031 -3.48105 0
M  V30 3631 O 354.904 -0.0289472 -4.1239 0
M  V30 3632 H 354.245 -0.24692 -0.616382 0
M  V30 3633 H 356.775 -1.30396 -1.57664 0
M  V30 3634 H 356.785 -0.87452 -3.98517 0
M  V30 3635 H 355.46 -1.97939 -3.65777 0
M  V30 3636 H 354.037 -0.149192 -3.72601 0
M  V30 3637 N 356.222 1.38976 -0.743202 0
M  V30 3638 C 357.152 2.33171 -0.123873 0
M  V30 3639 C 358.133 1.54336 0.71516 0
M  V30 3640 O 359.318 1.82696 0.658467 0
M  V30 3641 C 356.448 3.38474 0.777978 0
M  V30 3642 C 355.402 4.27979 0.0424758 0
M  V30 3643 C 354.728 5.2405 1.06189 0
M  V30 3644 C 356.028 5.10155 -1.1198 0
M  V30 3645 H 357.722 2.85213 -0.910709 0
M  V30 3646 H 355.268 1.37133 -0.439388 0
M  V30 3647 H 357.221 4.03328 1.22084 0
M  V30 3648 H 355.945 2.84891 1.59702 0
M  V30 3649 H 354.604 3.64616 -0.380853 0
M  V30 3650 H 354.252 4.66758 1.87472 0
M  V30 3651 H 353.952 5.84785 0.574485 0
M  V30 3652 H 355.476 5.9178 1.50428 0
M  V30 3653 H 356.89 5.68307 -0.75499 0
M  V30 3654 H 355.287 5.80073 -1.53738 0
M  V30 3655 H 356.357 4.44504 -1.93764 0
M  V30 3656 N 357.7 0.491464 1.49741 0
M  V30 3657 C 358.928 -0.0535151 2.06831 0
M  V30 3658 C 359.343 -1.31683 1.35296 0
M  V30 3659 O 358.7 -1.77402 0.42836 0
M  V30 3660 C 358.751 -0.320835 3.60073 0
M  V30 3661 O 358.472 0.892394 4.28915 0
M  V30 3662 C 359.973 -0.910519 4.33848 0
M  V30 3663 H 357.193 0.0161909 0.670805 0
M  V30 3664 H 359.737 0.68609 1.92647 0
M  V30 3665 H 357.892 -1.0104 3.73991 0
M  V30 3666 H 358.306 0.649401 5.20464 0
M  V30 3667 H 359.78 -1.04721 5.41976 0
M  V30 3668 H 360.257 -1.90589 3.95692 0
M  V30 3669 H 360.863 -0.258712 4.24512 0
M  V30 3670 N 359.178 -1.55987 0.224894 0
M  V30 3671 C 360.108 -2.23426 -0.678457 0
M  V30 3672 C 361.089 -1.20709 -1.19847 0
M  V30 3673 O 362.274 -1.49304 -1.24186 0
M  V30 3674 C 359.404 -2.91676 -1.88527 0
M  V30 3675 C 358.358 -4.00893 -1.49896 0
M  V30 3676 C 357.684 -4.56455 -2.78483 0
M  V30 3677 C 358.984 -5.17769 -0.686461 0
M  V30 3678 H 360.678 -2.99175 -0.116173 0
M  V30 3679 H 358.224 -1.43897 -0.054436 0
M  V30 3680 H 360.177 -3.37547 -2.5227 0
M  V30 3681 H 358.901 -2.1338 -2.47258 0
M  V30 3682 H 357.56 -3.55758 -0.884985 0
M  V30 3683 H 357.208 -3.74886 -3.35365 0
M  V30 3684 H 356.908 -5.30169 -2.53368 0
M  V30 3685 H 358.432 -5.05047 -3.43162 0
M  V30 3686 H 359.846 -5.60001 -1.22767 0
M  V30 3687 H 358.243 -5.97735 -0.532259 0
M  V30 3688 H 359.313 -4.83932 0.306196 0
M  V30 3689 N 360.656 0.0484629 -1.57525 0
M  V30 3690 C 361.566 1.07241 -2.08654 0
M  V30 3691 C 362.582 1.409 -1.02095 0
M  V30 3692 O 363.758 1.50609 -1.33712 0
M  V30 3693 C 360.823 2.36008 -2.5397 0
M  V30 3694 C 359.884 2.09108 -3.7493 0
M  V30 3695 C 359.117 3.31736 -4.18075 0
M  V30 3696 O 359.34 4.41714 -3.60895 0
M  V30 3697 O 358.274 3.18576 -5.10679 0
M  V30 3698 H 362.1 0.667965 -2.96263 0
M  V30 3699 H 359.685 0.26417 -1.47046 0
M  V30 3700 H 361.567 3.11747 -2.83535 0
M  V30 3701 H 360.242 2.75786 -1.69481 0
M  V30 3702 H 359.149 1.31 -3.50414 0
M  V30 3703 H 360.482 1.74198 -4.60343 0
M  V30 3704 N 362.134 1.5431 0.320358 0
M  V30 3705 C 363.064 1.86912 1.3995 0
M  V30 3706 C 364.045 0.726211 1.53819 0
M  V30 3707 O 365.23 0.980233 1.67646 0
M  V30 3708 C 362.36 2.09932 2.7667 0
M  V30 3709 C 361.314 3.25776 2.77586 0
M  V30 3710 C 360.64 3.34173 4.17412 0
M  V30 3711 C 361.94 4.6335 2.41048 0
M  V30 3712 H 363.634 2.77292 1.12914 0
M  V30 3713 H 361.18 1.33421 0.541738 0
M  V30 3714 H 363.133 2.31324 3.52232 0
M  V30 3715 H 361.857 1.16304 3.0519 0
M  V30 3716 H 360.516 3.04276 2.04479 0
M  V30 3717 H 360.164 2.38098 4.43078 0
M  V30 3718 H 359.864 4.12033 4.18931 0
M  V30 3719 H 361.388 3.57803 4.94782 0
M  V30 3720 H 362.802 4.84602 3.06324 0
M  V30 3721 H 361.199 5.43782 2.53813 0
M  V30 3722 H 362.269 4.65381 1.36193 0
M  V30 3723 N 363.613 -0.582584 1.46437 0
M  V30 3724 C 364.523 -1.71949 1.59595 0
M  V30 3725 C 365.539 -1.67264 0.479443 0
M  V30 3726 O 366.715 -1.87171 0.743579 0
M  V30 3727 C 363.78 -3.08452 1.58298 0
M  V30 3728 C 362.841 -3.244 2.81182 0
M  V30 3729 C 362.074 -4.54391 2.79937 0
M  V30 3730 O 362.297 -5.38287 1.8869 0
M  V30 3731 O 361.231 -4.73588 3.71481 0
M  V30 3732 H 365.057 -1.63795 2.55744 0
M  V30 3733 H 362.642 -0.749643 1.29231 0
M  V30 3734 H 364.524 -3.89732 1.60271 0
M  V30 3735 H 363.199 -3.17043 0.653094 0
M  V30 3736 H 362.106 -2.42613 2.84763 0
M  V30 3737 H 363.439 -3.20699 3.7338 0
M  V30 3738 N 365.091 -1.34144 -0.827227 0
M  V30 3739 C 366.368 -1.16844 -1.56865 0
M  V30 3740 C 366.748 0.260654 -2.09485 0
M  V30 3741 O 366.096 1.26138 -1.9053 0
M  V30 3742 C 366.306 -2.21939 -2.6934 0
M  V30 3743 C 367.654 -2.56695 -3.3822 0
M  V30 3744 O 368.678 -2.20695 -2.79593 0
M  V30 3745 O 367.537 -3.18518 -4.44082 0
M  V30 3746 H 364.631 -0.452669 -0.692112 0
M  V30 3747 H 367.177 -1.45763 -0.868973 0
M  V30 3748 H 365.949 -3.17882 -2.28182 0
M  V30 3749 H 365.572 -1.94172 -3.46962 0
M  V30 3750 N 366.569 1.04691 -1.17803 0
M  V30 3751 C 367.817 1.7743 -0.967617 0
M  V30 3752 C 368.138 1.88359 0.504574 0
M  V30 3753 O 367.408 1.40402 1.36617 0
M  V30 3754 H 365.988 0.657242 -0.355024 0
M  V30 3755 H 368.65 1.2638 -1.48371 0
M  V30 3756 H 367.746 2.78924 -1.40027 0
M  V30 3757 N 368.047 0.979072 1.23499 0
M  V30 3758 C 369.463 0.687475 1.44034 0
M  V30 3759 C 369.663 -0.746801 1.8715 0
M  V30 3760 O 368.719 -1.51939 2.0167 0
M  V30 3761 C 370.032 1.68127 2.49307 0
M  V30 3762 C 371.58 1.69516 2.63122 0
M  V30 3763 C 372.055 2.67723 3.71603 0
M  V30 3764 N 373.546 2.66233 3.79044 0
M  V30 3765 C 374.281 3.38891 4.62537 0
M  V30 3766 N 373.777 4.21103 5.50131 0
M  V30 3767 N 375.57 3.27661 4.56721 0
M  V30 3768 H 367.721 1.90559 0.938135 0
M  V30 3769 H 369.984 0.821051 0.473897 0
M  V30 3770 H 369.69 2.70693 2.2454 0
M  V30 3771 H 369.564 1.46306 3.4767 0
M  V30 3772 H 371.951 0.676561 2.8724 0
M  V30 3773 H 372.032 1.95404 1.65079 0
M  V30 3774 H 371.676 3.69724 3.48233 0
M  V30 3775 H 371.606 2.39111 4.69184 0
M  V30 3776 H 374.097 2.06568 3.16446 0
M  V30 3777 H 374.41 4.73403 6.10827 0
M  V30 3778 H 372.755 4.25195 5.49759 0
M  V30 3779 H 375.946 2.62887 3.87309 0
M  V30 3780 H 376.119 3.84547 5.21562 0
M  V30 3781 N 369.525 -1.3858 0.750561 0
M  V30 3782 C 370.75 -2.04997 0.314812 0
M  V30 3783 C 371.175 -1.56235 -1.04749 0
M  V30 3784 O 370.533 -0.712981 -1.66692 0
M  V30 3785 C 370.581 -3.58961 0.343415 0
M  V30 3786 O 369.685 -4.07025 -0.663628 0
M  V30 3787 H 369.026 -0.649081 0.139962 0
M  V30 3788 H 371.556 -1.77313 1.02084 0
M  V30 3789 H 371.566 -4.07542 0.193233 0
M  V30 3790 H 370.241 -3.93811 1.33738 0
M  V30 3791 H 368.818 -3.6982 -0.478307 0
M  V30 3792 N 371.003 -0.499398 -1.49478 0
M  V30 3793 C 371.913 0.284489 -2.32869 0
M  V30 3794 C 372.929 0.968885 -1.44529 0
M  V30 3795 O 374.105 0.95062 -1.77553 0
M  V30 3796 C 371.17 1.33594 -3.19928 0
M  V30 3797 C 370.231 0.665149 -4.24116 0
M  V30 3798 C 369.464 1.6665 -5.07014 0
M  V30 3799 O 369.687 2.89618 -4.91404 0
M  V30 3800 O 368.621 1.22271 -5.8935 0
M  V30 3801 H 372.447 -0.39802 -3.01081 0
M  V30 3802 H 370.032 -0.260758 -1.47107 0
M  V30 3803 H 371.914 1.94431 -3.73864 0
M  V30 3804 H 370.589 2.0014 -2.54412 0
M  V30 3805 H 369.496 0.0170769 -3.74096 0
M  V30 3806 H 370.829 0.0421555 -4.92182 0
M  V30 3807 N 372.481 1.55866 -0.233164 0
M  V30 3808 C 373.709 2.02998 0.399905 0
M  V30 3809 C 374.124 1.11274 1.52524 0
M  V30 3810 O 373.481 0.124528 1.82075 0
M  V30 3811 C 373.532 3.4958 0.920639 0
M  V30 3812 O 373.253 4.37808 -0.159834 0
M  V30 3813 C 374.754 4.12411 1.62578 0
M  V30 3814 H 371.974 0.664006 0.0966281 0
M  V30 3815 H 374.518 2.0143 -0.353013 0
M  V30 3816 H 372.673 3.51727 1.62379 0
M  V30 3817 H 373.087 5.23981 0.23337 0
M  V30 3818 H 374.561 5.16711 1.94201 0
M  V30 3819 H 375.038 3.5809 2.54299 0
M  V30 3820 H 375.644 4.14148 0.967553 0
M  V30 3821 N 373.959 -0.0401083 1.57549 0
M  V30 3822 C 375.205 -0.734211 1.89043 0
M  V30 3823 C 375.538 -1.75591 0.829535 0
M  V30 3824 O 374.813 -1.93868 -0.156706 0
M  V30 3825 C 375.096 -1.41374 3.31188 0
M  V30 3826 C 374.949 -0.406299 4.47961 0
M  V30 3827 C 376.268 -2.35061 3.72068 0
M  V30 3828 H 373.387 -0.265447 0.687537 0
M  V30 3829 H 376.029 0.00294087 1.9 0
M  V30 3830 H 374.179 -2.04206 3.30503 0
M  V30 3831 H 375.851 0.219255 4.60779 0
M  V30 3832 H 374.094 0.275485 4.32924 0
M  V30 3833 H 374.765 -0.920022 5.44279 0
M  V30 3834 H 377.241 -1.82282 3.74049 0
M  V30 3835 H 376.117 -2.79593 4.72355 0
M  V30 3836 H 376.378 -3.21258 3.0372 0
M  V30 3837 N 375.437 -1.54477 -0.31217 0
M  V30 3838 C 376.714 -1.63891 -1.06767 0
M  V30 3839 C 377.094 -0.480028 -2.0557 0
M  V30 3840 O 376.442 0.524487 -2.22399 0
M  V30 3841 C 376.652 -3.01402 -1.75948 0
M  V30 3842 C 378 -3.57838 -2.28554 0
M  V30 3843 O 379.024 -3.03782 -1.85998 0
M  V30 3844 O 377.883 -4.52462 -3.06497 0
M  V30 3845 H 374.977 -0.664125 -0.492816 0
M  V30 3846 H 377.523 -1.66823 -0.311149 0
M  V30 3847 H 376.295 -3.77187 -1.04144 0
M  V30 3848 H 375.918 -3.02199 -2.58383 0
M  V30 3849 N 376.915 0.57481 -1.46744 0
M  V30 3850 C 378.155 1.34369 -1.54027 0
M  V30 3851 C 378.519 1.91051 -0.190642 0
M  V30 3852 O 379.72 2.68444 -0.138255 0
M  V30 3853 C 377.991 2.43706 -2.61423 0
M  V30 3854 S 379.55 3.30915 -2.88167 0
M  V30 3855 H 376.368 0.45768 -0.544105 0
M  V30 3856 H 378.97 0.659959 -1.84024 0
M  V30 3857 H 377.674 2.0047 -3.58106 0
M  V30 3858 H 377.205 3.16842 -2.33184 0
M  V30 3859 H 379.22 4.42742 -2.24039 0
M  V30 3860 N 378.394 1.34581 0.820102 0
M  V30 3861 C 379.324 1.29038 1.94606 0
M  V30 3862 C 380.305 0.1673 1.69275 0
M  V30 3863 O 381.49 0.360112 1.90832 0
M  V30 3864 C 378.62 1.04793 3.31113 0
M  V30 3865 C 377.574 2.13597 3.70891 0
M  V30 3866 C 376.9 1.74537 5.05412 0
M  V30 3867 C 378.2 3.55451 3.8269 0
M  V30 3868 H 379.894 2.23248 1.99501 0
M  V30 3869 H 377.44 1.0747 0.958449 0
M  V30 3870 H 379.393 0.995592 4.0947 0
M  V30 3871 H 378.117 0.0702565 3.26524 0
M  V30 3872 H 376.776 2.17905 2.9481 0
M  V30 3873 H 376.424 0.754226 4.97313 0
M  V30 3874 H 376.124 2.47361 5.32997 0
M  V30 3875 H 377.648 1.70803 5.86224 0
M  V30 3876 H 379.062 3.5354 4.51312 0
M  V30 3877 H 377.459 4.26922 4.21732 0
M  V30 3878 H 378.529 3.92587 2.84611 0
M  V30 3879 N 379.872 -1.04064 1.18357 0
M  V30 3880 C 381.121 -1.76662 0.973313 0
M  V30 3881 C 381.434 -1.89154 -0.497991 0
M  V30 3882 O 382.64 -2.58606 -0.826762 0
M  V30 3883 C 381.096 -3.17624 1.69242 0
M  V30 3884 C 380.704 -3.13225 3.20303 0
M  V30 3885 C 382.448 -3.946 1.56497 0
M  V30 3886 C 380.355 -4.49046 3.84853 0
M  V30 3887 H 379.285 -0.662214 0.36054 0
M  V30 3888 H 381.936 -1.16553 1.41731 0
M  V30 3889 H 380.318 -3.78129 1.1762 0
M  V30 3890 H 381.492 -2.62172 3.78949 0
M  V30 3891 H 379.807 -2.49749 3.33189 0
M  V30 3892 H 382.404 -4.95042 2.02084 0
M  V30 3893 H 382.747 -4.13074 0.517243 0
M  V30 3894 H 383.28 -3.4067 2.05399 0
M  V30 3895 H 380.019 -4.35777 4.89672 0
M  V30 3896 H 379.539 -5.00203 3.30994 0
M  V30 3897 H 381.218 -5.17961 3.87718 0
M  V30 3898 N 381.35 -0.985608 -1.22978 0
M  V30 3899 C 382.596 -0.667998 -1.92118 0
M  V30 3900 C 382.951 0.790454 -1.75413 0
M  V30 3901 O 382.244 1.56336 -1.10768 0
M  V30 3902 C 382.438 -1.00014 -3.43121 0
M  V30 3903 C 382.267 -2.48933 -3.74516 0
M  V30 3904 C 381.037 -3.15218 -3.94925 0
M  V30 3905 C 383.235 -3.47024 -3.79577 0
M  V30 3906 N 381.217 -4.53689 -4.13569 0
M  V30 3907 C 382.588 -4.70923 -4.03276 0
M  V30 3908 C 384.643 -3.41432 -3.62393 0
M  V30 3909 C 383.346 -5.89914 -4.11574 0
M  V30 3910 C 385.372 -4.59793 -3.71947 0
M  V30 3911 C 384.734 -5.82489 -3.96088 0
M  V30 3912 H 380.833 -0.295589 -0.723983 0
M  V30 3913 H 383.417 -1.26413 -1.4808 0
M  V30 3914 H 381.588 -0.432655 -3.85983 0
M  V30 3915 H 383.32 -0.63927 -3.99619 0
M  V30 3916 H 380.075 -2.65702 -3.92045 0
M  V30 3917 H 380.499 -5.25492 -4.26834 0
M  V30 3918 H 385.141 -2.47594 -3.4272 0
M  V30 3919 H 382.859 -6.84164 -4.30053 0
M  V30 3920 H 386.445 -4.57048 -3.59998 0
M  V30 3921 H 385.325 -6.72546 -4.033 0
M  V30 3922 N 382.828 1.3818 -0.7579 0
M  V30 3923 C 383.791 2.28764 -0.141286 0
M  V30 3924 C 384.791 1.47388 0.642907 0
M  V30 3925 O 385.981 1.67781 0.468536 0
M  V30 3926 C 383.113 3.31184 0.808069 0
M  V30 3927 H 384.306 2.848 -0.939633 0
M  V30 3928 H 381.859 1.47212 -0.525191 0
M  V30 3929 H 382.594 2.80247 1.63193 0
M  V30 3930 H 382.379 3.91314 0.248104 0
M  V30 3931 H 383.869 3.98909 1.23536 0
M  V30 3932 N 384.306 0.507319 1.49211 0
M  V30 3933 C 385.555 -0.0368315 2.01666 0
M  V30 3934 C 385.868 -1.37459 1.39156 0
M  V30 3935 O 387.074 -2.00579 1.82976 0
M  V30 3936 C 385.53 -0.116089 3.59713 0
M  V30 3937 C 385.138 1.2154 4.31198 0
M  V30 3938 C 386.882 -0.610268 4.2009 0
M  V30 3939 C 384.789 1.09796 5.81119 0
M  V30 3940 H 383.719 -0.0175376 0.753796 0
M  V30 3941 H 386.37 0.647691 1.71689 0
M  V30 3942 H 384.752 -0.8652 3.86433 0
M  V30 3943 H 385.926 1.9783 4.16173 0
M  V30 3944 H 384.241 1.64352 3.82593 0
M  V30 3945 H 386.838 -0.715742 5.29888 0
M  V30 3946 H 387.181 -1.61064 3.8388 0
M  V30 3947 H 387.714 0.0824916 3.97714 0
M  V30 3948 H 384.453 2.0728 6.21864 0
M  V30 3949 H 383.973 0.376058 5.9862 0
M  V30 3950 H 385.652 0.779281 6.4229 0
M  V30 3951 N 385.784 -1.5574 0.241426 0
M  V30 3952 C 387.032 -1.98417 -0.384075 0
M  V30 3953 C 387.353 -1.13078 -1.58866 0
M  V30 3954 O 386.623 -0.212312 -1.94746 0
M  V30 3955 H 385.203 -0.732813 -0.144894 0
M  V30 3956 H 387.865 -1.9193 0.338943 0
M  V30 3957 H 386.961 -3.04219 -0.696939 0
M  V30 3958 N 387.262 0.0317525 -1.57568 0
M  V30 3959 C 388.678 0.38735 -1.54828 0
M  V30 3960 C 388.878 1.7677 -0.967187 0
M  V30 3961 O 387.934 2.45581 -0.587063 0
M  V30 3962 C 389.247 0.291667 -2.99282 0
M  V30 3963 C 390.795 0.368946 -3.10818 0
M  V30 3964 C 391.27 0.302741 -4.56998 0
M  V30 3965 N 392.761 0.361617 -4.61786 0
M  V30 3966 C 393.496 0.333238 -5.72431 0
M  V30 3967 N 392.992 0.257308 -6.92322 0
M  V30 3968 N 394.785 0.382769 -5.60795 0
M  V30 3969 H 386.936 -0.871609 -1.93692 0
M  V30 3970 H 389.199 -0.331161 -0.888277 0
M  V30 3971 H 388.905 -0.656794 -3.45513 0
M  V30 3972 H 388.779 1.08638 -3.61217 0
M  V30 3973 H 391.166 1.30784 -2.64536 0
M  V30 3974 H 391.247 -0.455066 -2.5172 0
M  V30 3975 H 390.891 -0.632473 -5.03947 0
M  V30 3976 H 390.821 1.14482 -5.14005 0
M  V30 3977 H 393.312 0.422923 -3.75526 0
M  V30 3978 H 393.625 0.24068 -7.72425 0
M  V30 3979 H 391.97 0.223396 -6.94641 0
M  V30 3980 H 395.161 0.44006 -4.66027 0
M  V30 3981 H 395.334 0.357184 -6.47015 0
M  V30 3982 N 388.74 1.54641 0.303973 0
M  V30 3983 C 389.65 1.88439 1.39743 0
M  V30 3984 C 390.666 0.778239 1.55626 0
M  V30 3985 O 391.842 1.07442 1.70347 0
M  V30 3986 C 388.907 2.12212 2.74166 0
M  V30 3987 C 387.968 3.35936 2.67293 0
M  V30 3988 C 387.201 3.58566 3.95305 0
M  V30 3989 O 387.424 2.84263 4.9452 0
M  V30 3990 O 386.358 4.52078 3.97378 0
M  V30 3991 H 390.184 2.81458 1.14083 0
M  V30 3992 H 387.769 1.40793 0.499768 0
M  V30 3993 H 389.651 2.29067 3.53704 0
M  V30 3994 H 388.326 1.22379 2.99675 0
M  V30 3995 H 387.233 3.24448 1.86237 0
M  V30 3996 H 388.566 4.2589 2.46736 0
M  V30 3997 N 390.218 -0.567019 1.47046 0
M  V30 3998 C 391.629 -1.14916 1.47143 0
M  V30 3999 C 391.98 -1.94954 0.220767 0
M  V30 4000 O 391.105 -2.05602 -0.67505 0
M  V30 4001 C 391.7 -2.09069 2.666 0
M  V30 4002 C 390.259 -2.62575 2.69687 0
M  V30 4003 C 389.406 -1.38755 2.40088 0
M  V30 4004 H 392.357 -0.354126 1.54699 0
M  V30 4005 H 392.378 -2.92789 2.43011 0
M  V30 4006 H 391.89 -1.50789 3.57609 0
M  V30 4007 H 389.991 -3.24681 1.82792 0
M  V30 4008 H 390.104 -3.04239 3.70102 0
M  V30 4009 H 388.468 -1.69098 1.90468 0
M  V30 4010 H 389.251 -0.822822 3.33293 0
M  V30 4011 N 391.696 -1.35014 -0.812953 0
M  V30 4012 C 392.659 -1.27292 -1.90602 0
M  V30 4013 C 393.659 -0.185817 -1.59723 0
M  V30 4014 O 394.849 -0.439102 -1.68575 0
M  V30 4015 C 391.981 -0.967676 -3.26877 0
M  V30 4016 H 393.174 -2.24479 -1.9887 0
M  V30 4017 H 390.727 -1.19446 -1.00808 0
M  V30 4018 H 391.462 0.0005954 -3.243 0
M  V30 4019 H 391.247 -1.75412 -3.50675 0
M  V30 4020 H 392.737 -0.939085 -4.06904 0
M  V30 4021 N 393.175 1.03435 -1.18907 0
M  V30 4022 C 394.123 2.13703 -0.918353 0
M  V30 4023 C 395.117 1.68947 0.123767 0
M  V30 4024 O 396.323 1.79983 -0.0249701 0
M  V30 4025 H 392.698 0.698112 -0.279542 0
M  V30 4026 H 394.669 2.33731 -1.85506 0
M  V30 4027 C 393.418 3.44542 -0.467532 0
M  V30 4028 H 392.741 3.79394 -1.26095 0
M  V30 4029 H 394.181 4.22812 -0.317164 0
M  V30 4030 C 392.64 3.26829 0.817588 0
M  V30 4031 O 393.17 3.54975 1.88031 0
M  V30 4032 N 391.376 2.80139 0.772677 0
M  V30 4033 H 390.923 2.57434 -0.0923883 0
M  V30 4034 H 390.881 2.68668 1.63294 0
M  V30 4035 N 394.653 0.992116 1.22453 0
M  V30 4036 C 395.93 0.583508 1.86694 0
M  V30 4037 C 396.31 -0.9392 1.89056 0
M  V30 4038 O 395.658 -1.82081 1.38053 0
M  V30 4039 C 395.868 1.20304 3.2761 0
M  V30 4040 C 397.216 1.30308 4.0411 0
M  V30 4041 O 398.24 1.15737 3.36873 0
M  V30 4042 O 397.099 1.53615 5.24466 0
M  V30 4043 H 394.193 0.198129 0.802916 0
M  V30 4044 H 396.739 1.08794 1.30238 0
M  V30 4045 H 395.511 2.24461 3.2052 0
M  V30 4046 H 395.134 0.684144 3.9167 0
M  V30 4047 N 396.131 -1.37776 0.765217 0
M  V30 4048 C 397.079 -2.32209 0.134798 0
M  V30 4049 C 398.073 -1.54607 -0.692315 0
M  V30 4050 O 399.279 -1.70052 -0.590109 0
M  V30 4051 H 395.654 -0.751591 0.0248005 0
M  V30 4052 H 397.625 -2.8297 0.947119 0
M  V30 4053 C 396.374 -3.39841 -0.735063 0
M  V30 4054 H 395.697 -3.99654 -0.107991 0
M  V30 4055 H 397.137 -4.08296 -1.14326 0
M  V30 4056 C 395.596 -2.79378 -1.88281 0
M  V30 4057 O 396.126 -2.69608 -2.97783 0
M  V30 4058 N 394.332 -2.37016 -1.68142 0
M  V30 4059 H 393.879 -2.45162 -0.790772 0
M  V30 4060 H 393.837 -1.96905 -2.45104 0
M  V30 4061 N 397.609 -0.515225 -1.4894 0
M  V30 4062 C 398.858 0.0261361 -2.01683 0
M  V30 4063 C 399.171 1.36719 -1.39883 0
M  V30 4064 O 400.377 1.99606 -1.84037 0
M  V30 4065 C 398.833 0.0970111 -3.59769 0
M  V30 4066 C 398.441 -1.23825 -4.30548 0
M  V30 4067 C 400.185 0.587981 -4.20408 0
M  V30 4068 C 398.092 -1.12877 -5.80528 0
M  V30 4069 H 397.022 0.0135398 -0.753878 0
M  V30 4070 H 399.673 -0.656787 -1.71343 0
M  V30 4071 H 398.055 0.844694 -3.86886 0
M  V30 4072 H 399.229 -2.00034 -4.15118 0
M  V30 4073 H 397.544 -1.66379 -3.81716 0
M  V30 4074 H 400.141 0.68763 -5.3026 0
M  V30 4075 H 400.484 1.59026 -3.84729 0
M  V30 4076 H 401.017 -0.103582 -3.97665 0
M  V30 4077 H 397.756 -2.10575 -6.20756 0
M  V30 4078 H 397.276 -0.407799 -5.98412 0
M  V30 4079 H 398.955 -0.813332 -6.41868 0
M  V30 4080 N 399.087 1.5561 -0.249682 0
M  V30 4081 C 400.035 2.22894 0.664906 0
M  V30 4082 C 401.029 1.21743 1.17792 0
M  V30 4083 O 402.235 1.39748 1.13449 0
M  V30 4084 H 398.61 0.715022 0.232912 0
M  V30 4085 H 400.581 2.98307 0.0742998 0
M  V30 4086 C 399.33 2.94424 1.84959 0
M  V30 4087 H 398.653 3.72031 1.46399 0
M  V30 4088 H 400.093 3.44862 2.4667 0
M  V30 4089 C 398.552 1.98454 2.72245 0
M  V30 4090 O 399.082 1.51939 3.71857 0
M  V30 4091 N 397.288 1.65496 2.38871 0
M  V30 4092 H 396.835 2.03517 1.57919 0
M  V30 4093 H 396.793 1.0155 2.97548 0
M  V30 4094 N 400.565 -0.0233959 1.57583 0
M  V30 4095 C 401.495 -1.02162 2.09965 0
M  V30 4096 C 402.476 -1.3735 1.00344 0
M  V30 4097 O 403.661 -1.46135 1.27899 0
M  V30 4098 C 400.791 -2.32081 2.58371 0
M  V30 4099 C 399.745 -2.1112 3.72307 0
M  V30 4100 C 399.071 -3.46848 4.06941 0
M  V30 4101 C 400.371 -1.49276 5.00514 0
M  V30 4102 H 402.065 -0.585557 2.93618 0
M  V30 4103 H 399.611 -0.280218 1.41247 0
M  V30 4104 H 401.564 -3.02249 2.93639 0
M  V30 4105 H 400.288 -2.77758 1.71808 0
M  V30 4106 H 398.947 -1.43384 3.37397 0
M  V30 4107 H 398.595 -3.90184 3.17436 0
M  V30 4108 H 398.295 -3.33646 4.83688 0
M  V30 4109 H 399.819 -4.18369 4.44747 0
M  V30 4110 H 401.233 -2.09368 5.33702 0
M  V30 4111 H 399.63 -1.46632 5.8191 0
M  V30 4112 H 400.7 -0.459217 4.82721 0
M  V30 4113 N 402.043 -1.548 -0.295768 0
M  V30 4114 C 402.953 -1.89177 -1.38742 0
M  V30 4115 C 403.969 -0.786481 -1.55211 0
M  V30 4116 O 405.145 -1.08344 -1.69775 0
M  V30 4117 C 402.21 -2.13663 -2.73036 0
M  V30 4118 C 401.271 -3.37349 -2.65508 0
M  V30 4119 C 400.504 -3.60658 -3.93398 0
M  V30 4120 O 400.727 -2.86882 -4.93006 0
M  V30 4121 O 399.661 -4.54179 -3.94975 0
M  V30 4122 H 403.487 -2.82059 -1.12589 0
M  V30 4123 H 401.072 -1.41056 -0.492295 0
M  V30 4124 H 402.954 -2.3094 -3.52484 0
M  V30 4125 H 401.629 -1.23967 -2.99022 0
M  V30 4126 H 400.536 -3.25431 -1.84514 0
M  V30 4127 H 401.869 -4.27192 -2.44474 0
M  V30 4128 N 403.521 0.559213 -1.47345 0
M  V30 4129 C 404.484 1.64854 -1.59235 0
M  V30 4130 C 405.484 1.53851 -0.467607 0
M  V30 4131 O 406.674 1.58045 -0.732617 0
M  V30 4132 C 403.806 3.04388 -1.53496 0
M  V30 4133 H 404.999 1.55662 -2.56339 0
M  V30 4134 H 402.552 0.778973 -1.35505 0
M  V30 4135 H 403.287 3.19115 -0.577604 0
M  V30 4136 H 403.072 3.13783 -2.35123 0
M  V30 4137 H 404.562 3.83642 -1.6495 0
M  V30 4138 N 404.999 1.35443 0.805782 0
M  V30 4139 C 405.962 1.28301 1.89925 0
M  V30 4140 C 406.962 0.194285 1.59622 0
M  V30 4141 O 408.152 0.448036 1.6834 0
M  V30 4142 C 405.284 0.984997 3.2636 0
M  V30 4143 H 406.477 2.2553 1.97677 0
M  V30 4144 H 404.03 1.19979 1.00173 0
M  V30 4145 H 404.765 0.016603 3.24296 0
M  V30 4146 H 404.55 1.77269 3.4974 0
M  V30 4147 H 406.04 0.960651 4.064 0
M  V30 4148 N 406.477 -1.02803 1.19454 0
M  V30 4149 C 407.725 -1.75869 0.995722 0
M  V30 4150 C 408.046 -1.89138 -0.474543 0
M  V30 4151 O 407.316 -1.42558 -1.34366 0
M  V30 4152 H 405.896 -0.651511 0.365435 0
M  V30 4153 H 408.558 -1.24004 1.50363 0
M  V30 4154 H 407.654 -2.76661 1.44447 0
M  V30 4155 N 407.956 -0.998596 -1.21925 0
M  V30 4156 C 409.202 -0.678667 -1.91107 0
M  V30 4157 C 409.535 0.78791 -1.77498 0
M  V30 4158 O 408.81 1.57043 -1.1475 0
M  V30 4159 C 409.093 -1.09245 -3.43129 0
M  V30 4160 C 408.946 -2.61801 -3.6576 0
M  V30 4161 C 410.265 -0.649984 -4.35274 0
M  V30 4162 H 407.384 -0.248025 -0.694012 0
M  V30 4163 H 410.026 -1.24314 -1.43688 0
M  V30 4164 H 408.176 -0.612171 -3.83647 0
M  V30 4165 H 409.848 -3.17543 -3.34611 0
M  V30 4166 H 408.091 -3.03609 -3.09845 0
M  V30 4167 H 408.762 -2.85804 -4.7225 0
M  V30 4168 H 411.238 -1.0626 -4.02303 0
M  V30 4169 H 410.114 -0.967743 -5.40302 0
M  V30 4170 H 410.375 0.449139 -4.39813 0
M  V30 4171 N 409.434 1.37368 -0.772513 0
M  V30 4172 C 410.381 2.30262 -0.157488 0
M  V30 4173 C 411.351 1.51137 0.688965 0
M  V30 4174 O 412.536 1.79704 0.641168 0
M  V30 4175 C 409.676 3.37611 0.715045 0
M  V30 4176 C 408.789 4.31746 -0.148098 0
M  V30 4177 C 407.924 5.26171 0.729213 0
M  V30 4178 C 406.963 6.11948 -0.136418 0
M  V30 4179 N 406.1 6.98613 0.698914 0
M  V30 4180 H 410.94 2.82277 -0.955179 0
M  V30 4181 H 408.477 1.38957 -0.482631 0
M  V30 4182 H 410.435 3.98479 1.23575 0
M  V30 4183 H 409.065 2.86959 1.47833 0
M  V30 4184 H 408.117 3.72178 -0.786613 0
M  V30 4185 H 409.429 4.92084 -0.81579 0
M  V30 4186 H 408.583 5.92247 1.31637 0
M  V30 4187 H 407.322 4.66246 1.43059 0
M  V30 4188 H 406.327 5.4485 -0.736102 0
M  V30 4189 H 407.552 6.73945 -0.835134 0
M  V30 4190 H 405.498 6.41215 1.38489 0
M  V30 4191 H 405.415 7.55948 0.0885358 0
M  V30 4192 H 406.683 7.69077 1.27044 0
M  V30 4193 N 410.912 0.523116 1.48665 0
M  V30 4194 C 412.14 -0.0096312 2.06898 0
M  V30 4195 C 412.555 -1.28784 1.38059 0
M  V30 4196 O 411.912 -1.76453 0.465893 0
M  V30 4197 C 411.963 -0.244386 3.60673 0
M  V30 4198 O 411.684 0.983172 4.26925 0
M  V30 4199 C 413.185 -0.818289 4.35682 0
M  V30 4200 H 410.405 0.0304161 0.67031 0
M  V30 4201 H 412.949 0.726799 1.91149 0
M  V30 4202 H 411.104 -0.930847 3.76051 0
M  V30 4203 H 411.518 0.759653 5.1897 0
M  V30 4204 H 412.992 -0.93201 5.44075 0
M  V30 4205 H 413.469 -1.82153 3.99646 0
M  V30 4206 H 414.075 -0.168609 4.24966 0
M  V30 4207 N 412.39 -1.55475 0.257931 0
M  V30 4208 C 413.338 -2.23244 -0.653076 0
M  V30 4209 C 414.332 -1.22366 -1.17144 0
M  V30 4210 O 415.538 -1.40347 -1.12706 0
M  V30 4211 H 411.913 -0.716247 -0.229117 0
M  V30 4212 H 413.884 -2.98343 -0.0584788 0
M  V30 4213 C 412.633 -2.95401 -1.83395 0
M  V30 4214 H 411.956 -3.72802 -1.44424 0
M  V30 4215 H 413.396 -3.46165 -2.44838 0
M  V30 4216 C 411.855 -1.99895 -2.71189 0
M  V30 4217 O 412.385 -1.53909 -3.71046 0
M  V30 4218 N 410.591 -1.6676 -2.3799 0
M  V30 4219 H 410.138 -2.04352 -1.56837 0
M  V30 4220 H 410.096 -1.03127 -2.97005 0
M  V30 4221 N 413.868 0.0150385 -1.57593 0
M  V30 4222 C 414.778 1.02791 -2.10882 0
M  V30 4223 C 415.794 1.38702 -1.0506 0
M  V30 4224 O 416.97 1.47739 -1.36877 0
M  V30 4225 C 414.035 2.30568 -2.58919 0
M  V30 4226 C 413.096 2.01108 -3.79281 0
M  V30 4227 C 412.329 3.22794 -4.25018 0
M  V30 4228 O 412.552 4.33959 -3.70183 0
M  V30 4229 O 411.486 3.07672 -5.17322 0
M  V30 4230 H 415.312 0.604973 -2.97613 0
M  V30 4231 H 412.897 0.23292 -1.47573 0
M  V30 4232 H 414.779 3.05662 -2.90084 0
M  V30 4233 H 413.454 2.72129 -1.75293 0
M  V30 4234 H 412.361 1.23537 -3.53114 0
M  V30 4235 H 413.694 1.64394 -4.63935 0
M  V30 4236 N 415.346 1.54954 0.287554 0
M  V30 4237 C 416.293 1.86834 1.35505 0
M  V30 4238 C 417.263 0.718452 1.49758 0
M  V30 4239 O 418.448 0.968358 1.644 0
M  V30 4240 C 415.588 2.13303 2.71286 0
M  V30 4241 C 414.701 3.40883 2.65373 0
M  V30 4242 C 413.836 3.57125 3.93236 0
M  V30 4243 C 412.875 4.78449 3.81776 0
M  V30 4244 N 412.012 4.91426 5.01443 0
M  V30 4245 H 416.852 2.77889 1.07619 0
M  V30 4246 H 414.389 1.37593 0.520241 0
M  V30 4247 H 416.347 2.26646 3.50267 0
M  V30 4248 H 414.977 1.25499 2.97405 0
M  V30 4249 H 414.029 3.36088 1.78182 0
M  V30 4250 H 415.341 4.29993 2.52799 0
M  V30 4251 H 414.495 3.70207 4.80658 0
M  V30 4252 H 413.234 2.66173 4.0866 0
M  V30 4253 H 412.239 4.65386 2.92738 0
M  V30 4254 H 413.464 5.70822 3.67884 0
M  V30 4255 H 411.41 4.03401 5.17304 0
M  V30 4256 H 411.327 5.74559 4.91343 0
M  V30 4257 H 412.595 5.08879 5.90477 0
M  V30 4258 N 416.824 -0.551391 1.4764 0
M  V30 4259 C 418.072 -1.30572 1.54258 0
M  V30 4260 C 418.393 -1.93877 0.208963 0
M  V30 4261 O 417.663 -1.80234 -0.767619 0
M  V30 4262 H 416.243 -0.484894 0.568231 0
M  V30 4263 H 418.905 -0.643402 1.83974 0
M  V30 4264 H 418.001 -2.09621 2.31226 0
M  V30 4265 N 418.302 -1.35869 -0.798587 0
M  V30 4266 C 419.532 -1.32529 -1.58491 0
M  V30 4267 C 419.94 0.0975405 -1.88948 0
M  V30 4268 O 419.283 1.06224 -1.49874 0
M  V30 4269 C 419.345 -2.07247 -2.9375 0
M  V30 4270 C 419.009 -3.56391 -2.86068 0
M  V30 4271 C 420.006 -4.50824 -2.58947 0
M  V30 4272 C 417.691 -3.9915 -3.04933 0
M  V30 4273 C 419.685 -5.85993 -2.5078 0
M  V30 4274 C 417.372 -5.34413 -2.96389 0
M  V30 4275 C 418.37 -6.27646 -2.69349 0
M  V30 4276 O 418.058 -7.60426 -2.60782 0
M  V30 4277 H 417.79 -0.456529 -0.498556 0
M  V30 4278 H 420.344 -1.79425 -0.999799 0
M  V30 4279 H 418.574 -1.55001 -3.54276 0
M  V30 4280 H 420.263 -1.96883 -3.54954 0
M  V30 4281 H 421.029 -4.19104 -2.44084 0
M  V30 4282 H 416.908 -3.26961 -3.24989 0
M  V30 4283 H 420.452 -6.58735 -2.29595 0
M  V30 4284 H 416.349 -5.65743 -3.10813 0
M  V30 4285 H 417.117 -7.70444 -2.76331 0
M  V30 4286 N 419.78 1.02168 -1.19998 0
M  V30 4287 C 421.029 1.75091 -1.0013 0
M  V30 4288 C 421.342 1.89923 0.467835 0
M  V30 4289 O 422.548 2.59888 0.785515 0
M  V30 4290 C 421.004 3.14892 -1.74273 0
M  V30 4291 C 420.612 3.0809 -3.25245 0
M  V30 4292 C 422.356 3.9206 -1.62755 0
M  V30 4293 C 420.263 4.42867 -3.91948 0
M  V30 4294 H 419.193 0.656394 -0.37103 0
M  V30 4295 H 421.844 1.14284 -1.43567 0
M  V30 4296 H 420.226 3.7621 -1.2362 0
M  V30 4297 H 421.4 2.5611 -3.83072 0
M  V30 4298 H 419.715 2.44416 -3.3712 0
M  V30 4299 H 422.312 4.91764 -2.09934 0
M  V30 4300 H 422.655 4.12199 -0.582894 0
M  V30 4301 H 423.188 3.37359 -2.10793 0
M  V30 4302 H 419.927 4.27931 -4.96543 0
M  V30 4303 H 419.447 4.94874 -3.3891 0
M  V30 4304 H 421.126 5.11728 -3.95909 0
M  V30 4305 N 421.258 1.00505 1.21394 0
M  V30 4306 C 422.504 0.688793 1.90745 0
M  V30 4307 C 422.837 -0.778486 1.77914 0
M  V30 4308 O 422.112 -1.56433 1.15581 0
M  V30 4309 C 422.395 1.11063 3.42545 0
M  V30 4310 C 422.248 2.63737 3.64367 0
M  V30 4311 C 423.567 0.673059 4.34923 0
M  V30 4312 H 420.686 0.251702 0.692687 0
M  V30 4313 H 423.328 1.25074 1.43026 0
M  V30 4314 H 421.478 0.632508 3.83317 0
M  V30 4315 H 423.15 3.19313 3.32922 0
M  V30 4316 H 421.393 3.05248 3.08231 0
M  V30 4317 H 422.064 2.88305 4.70727 0
M  V30 4318 H 424.54 1.08392 4.01734 0
M  V30 4319 H 423.416 0.996383 5.39781 0
M  V30 4320 H 423.677 -0.425808 4.40045 0
M  V30 4321 N 422.737 -1.36956 0.779787 0
M  V30 4322 C 423.983 -1.99787 0.348281 0
M  V30 4323 C 424.316 -1.61756 -1.07465 0
M  V30 4324 O 423.591 -0.867639 -1.74075 0
M  V30 4325 C 423.874 -3.56597 0.50104 0
M  V30 4326 C 423.727 -4.04513 1.96697 0
M  V30 4327 C 425.046 -4.40008 -0.0898097 0
M  V30 4328 H 422.165 -0.725796 0.128022 0
M  V30 4329 H 424.807 -1.62514 0.984331 0
M  V30 4330 H 422.957 -3.88479 -0.0404347 0
M  V30 4331 H 424.629 -3.83161 2.56876 0
M  V30 4332 H 422.872 -3.56408 2.47297 0
M  V30 4333 H 423.543 -5.1352 2.02486 0
M  V30 4334 H 426.019 -4.14431 0.372293 0
M  V30 4335 H 424.895 -5.4888 0.0471605 0
M  V30 4336 H 425.156 -4.26035 -1.18096 0
M  V30 4337 N 424.215 -0.530993 -1.48385 0
M  V30 4338 C 425.492 0.0671788 -1.95485 0
M  V30 4339 C 425.872 1.51191 -1.47324 0
M  V30 4340 O 425.22 2.17507 -0.700202 0
M  V30 4341 C 425.43 -0.0511206 -3.48963 0
M  V30 4342 C 426.778 0.107632 -4.24464 0
M  V30 4343 O 427.802 0.0226248 -3.56193 0
M  V30 4344 O 426.661 0.285972 -5.45751 0
M  V30 4345 H 423.755 0.0787365 -0.823243 0
M  V30 4346 H 426.301 -0.595662 -1.58902 0
M  V30 4347 H 425.073 -1.05747 -3.7674 0
M  V30 4348 H 424.696 0.650525 -3.92242 0
M  V30 4349 N 425.693 1.55336 -0.266172 0
M  V30 4350 C 426.64 2.22172 0.625165 0
M  V30 4351 C 427.61 1.19211 1.15663 0
M  V30 4352 O 428.795 1.47723 1.20758 0
M  V30 4353 C 425.935 2.93972 1.8076 0
M  V30 4354 C 425.048 4.11632 1.31084 0
M  V30 4355 C 424.183 4.71099 2.45436 0
M  V30 4356 C 423.222 5.8097 1.92718 0
M  V30 4357 N 422.359 6.34538 3.00509 0
M  V30 4358 H 427.199 2.9796 0.0485582 0
M  V30 4359 H 424.736 1.47095 0.0122024 0
M  V30 4360 H 426.694 3.33811 2.50251 0
M  V30 4361 H 425.324 2.20623 2.35638 0
M  V30 4362 H 424.376 3.76975 0.509326 0
M  V30 4363 H 425.688 4.90893 0.884633 0
M  V30 4364 H 424.842 5.13612 3.22936 0
M  V30 4365 H 423.581 3.91096 2.91368 0
M  V30 4366 H 422.586 5.37916 1.13695 0
M  V30 4367 H 423.811 6.62836 1.47733 0
M  V30 4368 H 421.757 5.57433 3.45839 0
M  V30 4369 H 421.674 7.09046 2.62279 0
M  V30 4370 H 422.942 6.81709 3.78011 0
M  V30 4371 N 427.171 -0.0066808 1.57599 0
M  V30 4372 C 428.401 -0.703066 1.94269 0
M  V30 4373 C 428.809 -1.68206 0.866222 0
M  V30 4374 O 428.152 -1.82966 -0.164087 0
M  V30 4375 C 428.214 -1.49616 3.26887 0
M  V30 4376 C 427.878 -0.679494 4.5192 0
M  V30 4377 C 428.875 0.0299508 5.19891 0
M  V30 4378 C 426.56 -0.627433 4.98366 0
M  V30 4379 C 428.554 0.780514 6.32603 0
M  V30 4380 C 426.241 0.126861 6.10968 0
M  V30 4381 C 427.239 0.829574 6.77943 0
M  V30 4382 O 426.927 1.57157 7.88389 0
M  V30 4383 H 426.659 -0.201217 0.645359 0
M  V30 4384 H 429.213 0.0385326 2.05364 0
M  V30 4385 H 427.443 -2.28209 3.12182 0
M  V30 4386 H 429.132 -2.07726 3.48719 0
M  V30 4387 H 429.898 -0.00115963 4.85 0
M  V30 4388 H 425.777 -1.16392 4.46065 0
M  V30 4389 H 429.321 1.32954 6.84813 0
M  V30 4390 H 425.218 0.159815 6.45302 0
M  V30 4391 H 425.986 1.48758 8.04868 0
M  V30 4392 N 428.649 -1.55105 -0.279332 0
M  V30 4393 C 429.581 -1.83952 -1.36727 0
M  V30 4394 C 430.594 -0.723642 -1.45833 0
M  V30 4395 O 431.783 -1.00141 -1.47763 0
M  V30 4396 C 428.883 -1.98183 -2.74912 0
M  V30 4397 C 428.056 -3.28787 -2.88475 0
M  V30 4398 C 427.115 -3.33162 -4.07295 0
M  V30 4399 O 426.141 -4.06576 -3.98353 0
M  V30 4400 N 427.343 -2.60109 -5.18964 0
M  V30 4401 H 430.108 -2.77853 -1.12328 0
M  V30 4402 H 427.669 -1.54945 -0.469442 0
M  V30 4403 H 429.661 -1.98488 -3.52682 0
M  V30 4404 H 428.231 -1.11177 -2.92162 0
M  V30 4405 H 427.451 -3.41075 -1.97641 0
M  V30 4406 H 428.739 -4.14933 -2.94463 0
M  V30 4407 H 428.137 -2.00136 -5.29115 0
M  V30 4408 H 426.694 -2.66143 -5.94988 0
M  V30 4409 N 430.127 0.543554 -1.4793 0
M  V30 4410 C 431.075 1.67039 -1.61866 0
M  V30 4411 C 432.069 1.62294 -0.48549 0
M  V30 4412 O 433.275 1.67315 -0.66376 0
M  V30 4413 H 429.65 0.552954 -0.509652 0
M  V30 4414 H 431.621 1.52426 -2.56533 0
M  V30 4415 C 430.37 3.05357 -1.6629 0
M  V30 4416 H 429.693 3.09696 -2.5284 0
M  V30 4417 H 431.133 3.83855 -1.80088 0
M  V30 4418 C 429.592 3.34531 -0.398861 0
M  V30 4419 O 430.122 3.98649 0.494162 0
M  V30 4420 N 428.328 2.89299 -0.2747 0
M  V30 4421 H 427.875 2.37298 -1.00236 0
M  V30 4422 H 427.833 3.09188 0.570075 0
M  V30 4423 N 431.605 1.3629 0.791371 0
M  V30 4424 C 432.833 1.33562 1.58016 0
M  V30 4425 C 433.248 -0.0835616 1.88615 0
M  V30 4426 O 432.605 -1.0399 1.49974 0
M  V30 4427 C 432.656 2.15517 2.90232 0
M  V30 4428 O 432.377 3.51902 2.60953 0
M  V30 4429 C 433.878 2.20546 3.84544 0
M  V30 4430 H 431.098 0.458226 0.490173 0
M  V30 4431 H 433.642 1.79361 0.982345 0
M  V30 4432 H 431.797 1.73278 3.46487 0
M  V30 4433 H 432.211 3.94644 3.4548 0
M  V30 4434 H 433.685 2.82252 4.74382 0
M  V30 4435 H 434.162 1.20838 4.2225 0
M  V30 4436 H 434.768 2.63013 3.34222 0
M  V30 4437 N 433.083 -1.0153 1.20538 0
M  V30 4438 C 434.031 -2.12215 0.952235 0
M  V30 4439 C 435.025 -1.69123 -0.0968735 0
M  V30 4440 O 436.231 -1.7992 0.0536006 0
M  V30 4441 H 432.606 -0.693576 0.290613 0
M  V30 4442 H 434.577 -2.3075 1.89201 0
M  V30 4443 C 433.326 -3.43755 0.522287 0
M  V30 4444 H 432.649 -3.7734 1.32115 0
M  V30 4445 H 434.089 -4.22254 0.384389 0
M  V30 4446 C 432.548 -3.28088 -0.765489 0
M  V30 4447 O 433.078 -3.57921 -1.8236 0
M  V30 4448 N 431.284 -2.81333 -0.728011 0
M  V30 4449 H 430.831 -2.57255 0.133332 0
M  V30 4450 H 430.789 -2.71232 -1.58999 0
M  V30 4451 N 434.561 -1.01147 -1.20859 0
M  V30 4452 C 435.81 -0.693214 -1.89413 0
M  V30 4453 C 436.123 0.779969 -1.79376 0
M  V30 4454 O 437.329 1.21057 -2.43017 0
M  V30 4455 C 435.785 -1.18949 -3.39675 0
M  V30 4456 C 435.393 -2.68921 -3.58309 0
M  V30 4457 C 437.137 -0.94642 -4.13815 0
M  V30 4458 C 435.044 -3.12056 -5.0237 0
M  V30 4459 H 433.974 -0.255595 -0.709357 0
M  V30 4460 H 436.625 -1.22349 -1.36759 0
M  V30 4461 H 435.007 -0.587228 -3.91622 0
M  V30 4462 H 436.181 -3.34652 -3.16772 0
M  V30 4463 H 434.496 -2.91314 -2.97532 0
M  V30 4464 H 437.093 -1.24417 -5.20023 0
M  V30 4465 H 437.436 0.117219 -4.16135 0
M  V30 4466 H 437.969 -1.5118 -3.67953 0
M  V30 4467 H 434.708 -4.17674 -5.05202 0
M  V30 4468 H 434.228 -2.51041 -5.44737 0
M  V30 4469 H 435.907 -3.04403 -5.70918 0
M  V30 4470 N 436.039 1.36541 -0.78704 0
M  V30 4471 C 436.949 2.3387 -0.184896 0
M  V30 4472 C 437.965 1.60927 0.661697 0
M  V30 4473 O 439.141 1.92927 0.57804 0
M  V30 4474 C 436.206 3.40122 0.672145 0
M  V30 4475 C 435.267 4.28867 -0.19267 0
M  V30 4476 C 434.5 5.30045 0.623561 0
M  V30 4477 O 434.723 5.39232 1.8597 0
M  V30 4478 O 433.657 6.01895 0.0247068 0
M  V30 4479 H 437.483 2.87126 -0.989562 0
M  V30 4480 H 435.068 1.38969 -0.548455 0
M  V30 4481 H 436.95 4.05093 1.16094 0
M  V30 4482 H 435.625 2.89169 1.45474 0
M  V30 4483 H 434.532 3.66945 -0.728166 0
M  V30 4484 H 435.865 4.83165 -0.938722 0
M  V30 4485 N 437.518 0.538854 1.48102 0
M  V30 4486 C 438.766 0.00798599 2.02098 0
M  V30 4487 C 439.087 -1.33922 1.41739 0
M  V30 4488 O 438.357 -1.86932 0.585934 0
M  V30 4489 H 436.937 -3.62179e-05 0.747 0
M  V30 4490 H 439.599 0.7047 1.81714 0
M  V30 4491 H 438.695 -0.0937672 3.11959 0
M  V30 4492 N 438.996 -1.55193 0.274407 0
M  V30 4493 C 440.245 -1.98758 -0.343213 0
M  V30 4494 C 440.558 -1.16624 -1.5703 0
M  V30 4495 O 441.764 -1.5033 -2.26082 0
M  V30 4496 C 440.22 -3.53759 -0.661996 0
M  V30 4497 C 439.828 -4.4467 0.54524 0
M  V30 4498 C 441.572 -4.05916 -1.24228 0
M  V30 4499 C 439.479 -5.91058 0.201084 0
M  V30 4500 H 438.409 -0.742353 -0.132014 0
M  V30 4501 H 441.06 -1.79545 0.378948 0
M  V30 4502 H 439.442 -3.68772 -1.44304 0
M  V30 4503 H 440.616 -4.41426 1.32212 0
M  V30 4504 H 438.931 -4.03143 1.04232 0
M  V30 4505 H 441.528 -5.12831 -1.51357 0
M  V30 4506 H 441.871 -3.54908 -2.17592 0
M  V30 4507 H 442.404 -3.9434 -0.523542 0
M  V30 4508 H 439.143 -6.46161 1.10258 0
M  V30 4509 H 438.663 -5.97373 -0.539045 0
M  V30 4510 H 440.342 -6.46669 -0.206954 0
M  V30 4511 N 440.474 -0.00167713 -1.576 0
M  V30 4512 C 441.704 0.692754 -1.94639 0
M  V30 4513 C 442.112 1.67744 -0.87513 0
M  V30 4514 O 441.455 1.8305 0.154382 0
M  V30 4515 C 441.517 1.47881 -3.27676 0
M  V30 4516 C 441.181 0.655518 -4.52274 0
M  V30 4517 C 442.178 -0.0575214 -5.19868 0
M  V30 4518 C 439.863 0.600994 -4.98692 0
M  V30 4519 C 441.857 -0.814052 -6.3218 0
M  V30 4520 C 439.544 -0.15926 -6.10892 0
M  V30 4521 C 440.542 -0.865515 -6.77494 0
M  V30 4522 O 440.23 -1.61336 -7.87544 0
M  V30 4523 H 439.962 0.197792 -0.646417 0
M  V30 4524 H 442.516 -0.049423 -2.05341 0
M  V30 4525 H 440.746 2.2655 -3.13388 0
M  V30 4526 H 442.435 2.05874 -3.49816 0
M  V30 4527 H 443.201 -0.0245611 -4.84994 0
M  V30 4528 H 439.08 1.14025 -4.46676 0
M  V30 4529 H 442.624 -1.36584 -6.84098 0
M  V30 4530 H 438.521 -0.194035 -6.45208 0
M  V30 4531 H 439.289 -1.53025 -8.04068 0
M  V30 4532 N 441.952 1.55251 0.271103 0
M  V30 4533 C 442.915 1.87484 1.31842 0
M  V30 4534 C 443.915 0.749545 1.42262 0
M  V30 4535 O 445.105 1.01771 1.4138 0
M  V30 4536 C 442.237 2.0818 2.69951 0
M  V30 4537 H 443.43 2.81108 1.0449 0
M  V30 4538 H 440.983 1.47771 0.509258 0
M  V30 4539 H 441.718 1.16944 3.02481 0
M  V30 4540 H 441.503 2.90114 2.63774 0
M  V30 4541 H 442.993 2.34385 3.4562 0
M  V30 4542 N 443.43 -0.535701 1.48216 0
M  V30 4543 C 444.676 -1.29375 1.56173 0
M  V30 4544 C 445.009 -1.92804 0.232429 0
M  V30 4545 O 444.284 -1.78992 -0.761048 0
M  V30 4546 C 444.567 -2.38747 2.69577 0
M  V30 4547 C 444.42 -1.80046 4.12193 0
M  V30 4548 C 445.739 -3.40551 2.78771 0
M  V30 4549 H 442.858 -0.469027 0.568491 0
M  V30 4550 H 445.5 -0.597358 1.80365 0
M  V30 4551 H 443.65 -2.98147 2.4908 0
M  V30 4552 H 445.322 -1.24742 4.44114 0
M  V30 4553 H 443.565 -1.10609 4.19462 0
M  V30 4554 H 444.236 -2.59212 4.87353 0
M  V30 4555 H 446.712 -2.91099 2.97322 0
M  V30 4556 H 445.588 -4.1448 3.59857 0
M  V30 4557 H 445.849 -4.00746 1.86696 0
M  V30 4558 N 444.908 -1.36708 -0.784132 0
M  V30 4559 C 446.156 -1.30972 -1.53918 0
M  V30 4560 C 446.477 0.109086 -1.94695 0
M  V30 4561 O 445.747 1.05048 -1.65353 0
M  V30 4562 H 444.327 -0.481819 -0.570841 0
M  V30 4563 H 446.989 -1.71063 -0.934002 0
M  V30 4564 H 446.085 -1.94061 -2.44431 0
M  V30 4565 N 446.386 1.0089 -1.21074 0
M  V30 4566 C 447.663 1.71834 -0.934469 0
M  V30 4567 C 448.043 2.0368 0.554753 0
M  V30 4568 O 447.391 1.70742 1.51854 0
M  V30 4569 C 447.601 2.98061 -1.8155 0
M  V30 4570 C 448.949 3.7117 -2.06199 0
M  V30 4571 O 449.973 3.08034 -1.78867 0
M  V30 4572 O 448.832 4.84721 -2.52404 0
M  V30 4573 H 445.926 0.749253 -0.35007 0
M  V30 4574 H 448.472 1.06668 -1.31985 0
M  V30 4575 H 447.244 2.70908 -2.82355 0
M  V30 4576 H 446.867 3.70968 -1.43068 0
M  V30 4577 N 447.864 1.01787 1.20321 0
M  V30 4578 C 448.812 0.58254 2.25187 0
M  V30 4579 C 449.806 -0.379359 1.65098 0
M  V30 4580 O 451.012 -0.249142 1.78267 0
M  V30 4581 H 447.387 0.170078 0.732514 0
M  V30 4582 H 449.358 1.47788 2.59232 0
M  V30 4583 C 448.107 -0.0620885 3.47645 0
M  V30 4584 H 447.43 0.669069 3.94162 0
M  V30 4585 H 448.87 -0.329784 4.22716 0
M  V30 4586 C 447.329 -1.3053 3.10586 0
M  V30 4587 O 447.859 -2.39848 3.22236 0
M  V30 4588 N 446.065 -1.18988 2.65123 0
M  V30 4589 H 445.612 -0.300341 2.55843 0
M  V30 4590 H 445.57 -2.02267 2.40698 0
M  V30 4591 N 449.342 -1.36122 0.79427 0
M  V30 4592 C 450.57 -2.03362 0.380989 0
M  V30 4593 C 450.985 -1.59881 -1.00416 0
M  V30 4594 O 450.342 -0.790515 -1.6449 0
M  V30 4595 C 450.393 -3.58804 0.440649 0
M  V30 4596 O 450.114 -4.007 1.77118 0
M  V30 4597 C 451.615 -4.43296 0.0186117 0
M  V30 4598 H 448.835 -0.652526 0.156367 0
M  V30 4599 H 451.379 -1.73998 1.07447 0
M  V30 4600 H 449.534 -3.8686 -0.204458 0
M  V30 4601 H 449.948 -4.95309 1.72538 0
M  V30 4602 H 451.422 -5.51887 0.111488 0
M  V30 4603 H 451.899 -4.2684 -1.03461 0
M  V30 4604 H 452.505 -4.20512 0.636395 0
M  V30 4605 N 450.82 -0.546701 -1.47814 0
M  V30 4606 C 452.068 -0.0187037 -2.02091 0
M  V30 4607 C 452.389 1.33168 -1.42447 0
M  V30 4608 O 451.659 1.86619 -0.595839 0
M  V30 4609 H 450.239 -0.00392531 -0.74699 0
M  V30 4610 H 452.901 -0.714327 -1.81338 0
M  V30 4611 H 451.997 0.0772219 -3.12004 0
M  V30 4612 N 452.299 1.55045 -0.282633 0
M  V30 4613 C 453.262 2.21515 0.588539 0
M  V30 4614 C 454.262 1.19535 1.07554 0
M  V30 4615 O 455.452 1.44391 0.974514 0
M  V30 4616 C 452.584 2.88704 1.8128 0
M  V30 4617 H 453.777 2.99899 0.00806397 0
M  V30 4618 H 451.33 1.56265 -0.0333067 0
M  V30 4619 H 452.065 2.14352 2.43359 0
M  V30 4620 H 451.85 3.63443 1.47144 0
M  V30 4621 H 453.34 3.39465 2.43214 0
M  V30 4622 N 453.777 0.010035 1.57597 0
M  V30 4623 C 455.023 -0.673697 1.91283 0
M  V30 4624 C 455.356 -1.72863 0.884979 0
M  V30 4625 O 454.631 -1.94268 -0.0949487 0
M  V30 4626 C 454.914 -1.30766 3.35518 0
M  V30 4627 C 454.767 -0.263578 4.49027 0
M  V30 4628 C 456.086 -2.23105 3.79358 0
M  V30 4629 H 453.205 -0.243439 0.695634 0
M  V30 4630 H 455.847 0.0633864 1.89894 0
M  V30 4631 H 453.997 -1.93588 3.36832 0
M  V30 4632 H 455.669 0.365738 4.59848 0
M  V30 4633 H 453.912 0.413077 4.31829 0
M  V30 4634 H 454.583 -0.746398 5.4693 0
M  V30 4635 H 457.059 -1.70289 3.79659 0
M  V30 4636 H 455.935 -2.64424 4.81011 0
M  V30 4637 H 456.196 -3.11433 3.13787 0
M  V30 4638 N 455.255 -1.55392 -0.262866 0
M  V30 4639 C 456.165 -1.92077 -1.34698 0
M  V30 4640 C 457.181 -0.819227 -1.53508 0
M  V30 4641 O 458.357 -1.11921 -1.67439 0
M  V30 4642 C 455.422 -2.19407 -2.68443 0
M  V30 4643 C 454.483 -3.42905 -2.58292 0
M  V30 4644 C 453.716 -3.68921 -3.85659 0
M  V30 4645 O 453.939 -2.97275 -4.8681 0
M  V30 4646 O 452.873 -4.62455 -3.85252 0
M  V30 4647 H 456.699 -2.84384 -1.06581 0
M  V30 4648 H 454.284 -1.42069 -0.462264 0
M  V30 4649 H 456.166 -2.38365 -3.47506 0
M  V30 4650 H 454.841 -1.30282 -2.96325 0
M  V30 4651 H 453.748 -3.29272 -1.7757 0
M  V30 4652 H 455.081 -4.32282 -2.35358 0
M  V30 4653 N 456.733 0.527833 -1.48498 0
M  V30 4654 C 457.663 1.64136 -1.66077 0
M  V30 4655 C 458.644 1.62286 -0.509625 0
M  V30 4656 O 459.829 1.79449 -0.742413 0
M  V30 4657 C 456.959 3.02717 -1.70234 0
M  V30 4658 C 455.913 3.19426 -2.8487 0
M  V30 4659 C 455.239 4.5909 -2.74118 0
M  V30 4660 C 456.539 3.01993 -4.26142 0
M  V30 4661 H 458.233 1.4968 -2.593 0
M  V30 4662 H 455.779 0.718654 -1.24785 0
M  V30 4663 H 457.732 3.80491 -1.8112 0
M  V30 4664 H 456.456 3.18201 -0.735911 0
M  V30 4665 H 455.115 2.4407 -2.73542 0
M  V30 4666 H 454.763 4.71413 -1.7544 0
M  V30 4667 H 454.463 4.71214 -3.51042 0
M  V30 4668 H 455.987 5.3896 -2.86974 0
M  V30 4669 H 457.401 3.69558 -4.38292 0
M  V30 4670 H 455.798 3.2561 -5.04082 0
M  V30 4671 H 456.868 1.98396 -4.42456 0
M  V30 4672 N 458.211 1.37122 0.776871 0
M  V30 4673 C 459.439 1.3523 1.5659 0
M  V30 4674 C 459.854 -0.0635518 1.88693 0
M  V30 4675 O 459.211 -1.02394 1.51069 0
M  V30 4676 C 459.262 2.18583 2.8793 0
M  V30 4677 O 458.983 3.5465 2.57206 0
M  V30 4678 C 460.484 2.24612 3.82183 0
M  V30 4679 H 457.704 0.4634 0.485285 0
M  V30 4680 H 460.248 1.80392 0.963266 0
M  V30 4681 H 458.403 1.76943 3.4463 0
M  V30 4682 H 458.817 3.98286 3.41275 0
M  V30 4683 H 460.291 2.87267 4.71361 0
M  V30 4684 H 460.768 1.25309 4.20944 0
M  V30 4685 H 461.374 2.66543 3.31414 0
M  V30 4686 N 459.689 -1.00246 1.21608 0
M  V30 4687 C 461.1 -1.55511 1.03312 0
M  V30 4688 C 461.451 -1.91946 -0.406332 0
M  V30 4689 O 460.576 -1.73753 -1.28992 0
M  V30 4690 C 461.171 -2.82576 1.86913 0
M  V30 4691 C 459.73 -3.34318 1.72941 0
M  V30 4692 C 458.877 -2.07487 1.83968 0
M  V30 4693 H 461.828 -0.824638 1.35593 0
M  V30 4694 H 461.849 -3.54559 1.38087 0
M  V30 4695 H 461.361 -2.56026 2.91672 0
M  V30 4696 H 459.462 -3.65797 0.70877 0
M  V30 4697 H 459.575 -4.05566 2.55055 0
M  V30 4698 H 457.939 -2.20603 1.27304 0
M  V30 4699 H 458.722 -1.83346 2.9024 0
M  V30 4700 N 461.167 -1.02423 -1.1978 0
M  V30 4701 C 462.413 -0.719051 -1.89625 0
M  V30 4702 C 462.746 0.750083 -1.7913 0
M  V30 4703 O 462.021 1.54574 -1.18056 0
M  V30 4704 C 462.304 -1.16499 -3.40735 0
M  V30 4705 C 462.157 -2.695 -3.60125 0
M  V30 4706 C 463.476 -0.742166 -4.33797 0
M  V30 4707 H 460.595 -0.26269 -0.688595 0
M  V30 4708 H 463.237 -1.27333 -1.41018 0
M  V30 4709 H 461.387 -0.69341 -3.82262 0
M  V30 4710 H 463.059 -3.24569 -3.278 0
M  V30 4711 H 461.302 -3.10113 -3.03336 0
M  V30 4712 H 461.973 -2.95757 -4.66081 0
M  V30 4713 H 464.449 -1.1477 -3.99959 0
M  V30 4714 H 463.325 -1.08213 -5.38127 0
M  V30 4715 H 463.586 0.355747 -4.40666 0
M  V30 4716 N 462.645 1.35699 -0.801477 0
M  V30 4717 C 463.608 2.28199 -0.213994 0
M  V30 4718 C 464.608 1.49359 0.595691 0
M  V30 4719 O 465.798 1.69186 0.414921 0
M  V30 4720 C 462.93 3.33587 0.702297 0
M  V30 4721 H 464.123 2.81666 -1.02976 0
M  V30 4722 H 461.676 1.45467 -0.571759 0
M  V30 4723 H 462.411 2.85297 1.54195 0
M  V30 4724 H 462.196 3.91906 0.123484 0
M  V30 4725 H 463.686 4.02638 1.10783 0
M  V30 4726 N 464.123 0.554532 1.47522 0
M  V30 4727 C 465.369 0.0295227 2.02779 0
M  V30 4728 C 465.702 -1.31582 1.42828 0
M  V30 4729 O 464.977 -1.85561 0.582872 0
M  V30 4730 C 465.26 -0.0664057 3.60039 0
M  V30 4731 C 465.113 1.30585 4.30427 0
M  V30 4732 C 466.432 -0.781162 4.33112 0
M  V30 4733 H 463.551 0.0122027 0.736899 0
M  V30 4734 H 466.193 0.716305 1.7598 0
M  V30 4735 H 464.343 -0.651307 3.83002 0
M  V30 4736 H 466.015 1.93374 4.18813 0
M  V30 4737 H 464.258 1.88125 3.90886 0
M  V30 4738 H 464.929 1.19147 5.38988 0
M  V30 4739 H 467.405 -0.284565 4.15126 0
M  V30 4740 H 466.281 -0.817237 5.42782 0
M  V30 4741 H 466.542 -1.83672 4.0214 0
M  V30 4742 N 465.601 -1.54893 0.290851 0
M  V30 4743 C 466.564 -2.21824 -0.576784 0
M  V30 4744 C 467.564 -1.20104 -1.06919 0
M  V30 4745 O 468.754 -1.44906 -0.966843 0
M  V30 4746 C 465.886 -2.89662 -1.79747 0
M  V30 4747 H 467.079 -2.99899 0.00784051 0
M  V30 4748 H 464.632 -1.56245 0.0415934 0
M  V30 4749 H 465.367 -2.15639 -2.42219 0
M  V30 4750 H 465.152 -3.64219 -1.45214 0
M  V30 4751 H 466.642 -3.4075 -2.4141 0
M  V30 4752 N 467.08 -0.0183926 -1.57589 0
M  V30 4753 C 468.043 0.951986 -2.08494 0
M  V30 4754 C 469.043 1.26092 -0.997874 0
M  V30 4755 O 470.233 1.20304 -1.25987 0
M  V30 4756 C 467.365 2.27165 -2.54182 0
M  V30 4757 H 468.558 0.511307 -2.95509 0
M  V30 4758 H 466.111 0.229444 -1.54607 0
M  V30 4759 H 466.846 2.75884 -1.70465 0
M  V30 4760 H 466.631 2.06057 -3.33591 0
M  V30 4761 H 468.121 2.9674 -2.93828 0
M  V30 4762 N 468.558 1.5553 0.254621 0
M  V30 4763 C 469.806 1.7665 0.981793 0
M  V30 4764 C 470.127 0.580963 1.86145 0
M  V30 4765 O 469.397 -0.403537 1.91699 0
M  V30 4766 H 467.977 0.651475 0.365498 0
M  V30 4767 H 470.639 1.92958 0.274426 0
M  V30 4768 H 469.735 2.67486 1.60802 0
M  V30 4769 N 470.036 -0.519951 1.48776 0
M  V30 4770 C 471.452 -0.849418 1.35119 0
M  V30 4771 C 471.652 -1.98077 0.36982 0
M  V30 4772 O 470.708 -2.51664 -0.205359 0
M  V30 4773 C 472.021 -1.20748 2.75391 0
M  V30 4774 C 473.569 -1.31679 2.83954 0
M  V30 4775 C 474.044 -1.70824 4.24951 0
M  V30 4776 N 475.535 -1.77908 4.27672 0
M  V30 4777 C 476.27 -2.09603 5.33717 0
M  V30 4778 N 475.766 -2.39652 6.5003 0
M  V30 4779 N 477.559 -2.10694 5.21119 0
M  V30 4780 H 469.71 0.226377 2.1119 0
M  V30 4781 H 471.973 0.0386519 0.947212 0
M  V30 4782 H 471.679 -0.449703 3.48813 0
M  V30 4783 H 471.553 -2.15534 3.09556 0
M  V30 4784 H 473.94 -2.06532 2.10781 0
M  V30 4785 H 474.021 -0.3499 2.53396 0
M  V30 4786 H 473.665 -0.965282 4.98643 0
M  V30 4787 H 473.595 -2.6858 4.52959 0
M  V30 4788 H 476.086 -1.56923 3.43779 0
M  V30 4789 H 476.399 -2.6297 7.26682 0
M  V30 4790 H 474.744 -2.37149 6.53288 0
M  V30 4791 H 477.935 -1.86682 4.29264 0
M  V30 4792 H 478.108 -2.35062 6.03863 0
M  V30 4793 N 471.514 -1.37532 -0.769588 0
M  V30 4794 C 472.93 -1.18379 -1.07045 0
M  V30 4795 C 473.13 -0.0214312 -2.01489 0
M  V30 4796 O 472.186 0.637809 -2.44312 0
M  V30 4797 C 473.499 -2.50338 -1.66588 0
M  V30 4798 C 475.047 -2.56879 -1.78835 0
M  V30 4799 C 475.522 -3.88974 -2.41792 0
M  V30 4800 N 477.013 -3.90428 -2.4924 0
M  V30 4801 C 477.748 -4.89388 -2.98809 0
M  V30 4802 N 477.244 -5.98745 -3.48535 0
M  V30 4803 N 479.037 -4.76791 -2.97703 0
M  V30 4804 H 471.188 -2.11921 -0.142541 0
M  V30 4805 H 473.451 -0.939608 -0.125863 0
M  V30 4806 H 473.157 -3.35767 -1.0466 0
M  V30 4807 H 473.031 -2.67583 -2.65856 0
M  V30 4808 H 475.418 -1.71856 -2.39895 0
M  V30 4809 H 475.499 -2.43516 -0.783166 0
M  V30 4810 H 475.143 -4.74412 -1.81371 0
M  V30 4811 H 475.073 -3.99641 -3.4292 0
M  V30 4812 H 477.564 -3.11433 -2.14052 0
M  V30 4813 H 477.877 -6.70205 -3.84767 0
M  V30 4814 H 476.222 -6.02387 -3.46634 0
M  V30 4815 H 479.413 -3.90478 -2.58157 0
M  V30 4816 H 479.586 -5.54069 -3.36024 0
M  V30 4817 N 472.992 0.995999 -1.22138 0
M  V30 4818 C 473.922 2.10387 -1.01289 0
M  V30 4819 C 474.903 1.69975 0.0651454 0
M  V30 4820 O 476.088 1.9396 -0.0964628 0
M  V30 4821 C 473.218 3.42312 -0.586517 0
M  V30 4822 C 472.172 3.96558 -1.61014 0
M  V30 4823 C 471.498 5.24494 -1.0397 0
M  V30 4824 C 472.798 4.27595 -2.99933 0
M  V30 4825 H 474.492 2.28086 -1.93951 0
M  V30 4826 H 472.038 1.09607 -0.933928 0
M  V30 4827 H 473.991 4.19223 -0.427793 0
M  V30 4828 H 472.715 3.24431 0.375761 0
M  V30 4829 H 471.374 3.21776 -1.75658 0
M  V30 4830 H 471.022 5.02953 -0.0688703 0
M  V30 4831 H 470.722 5.61755 -1.72352 0
M  V30 4832 H 472.246 6.04042 -0.892494 0
M  V30 4833 H 473.66 4.95315 -2.8868 0
M  V30 4834 H 472.057 4.76021 -3.6541 0
M  V30 4835 H 473.127 3.35498 -3.50099 0
M  V30 4836 N 474.47 1.03057 1.19235 0
M  V30 4837 C 475.695 0.74757 1.93458 0
M  V30 4838 C 476.12 -0.687648 1.7508 0
M  V30 4839 O 475.478 -1.47499 1.05422 0
M  V30 4840 C 475.526 1.10604 3.43219 0
M  V30 4841 O 474.63 0.225671 4.11782 0
M  V30 4842 H 473.971 0.276047 0.603899 0
M  V30 4843 H 476.501 1.3777 1.51263 0
M  V30 4844 H 476.511 1.06366 3.93891 0
M  V30 4845 H 475.186 2.15165 3.55917 0
M  V30 4846 H 473.763 0.326795 3.71465 0
M  V30 4847 N 475.948 -1.35272 0.808662 0
M  V30 4848 C 476.858 -2.33546 0.222079 0
M  V30 4849 C 477.874 -1.6196 -0.636011 0
M  V30 4850 O 479.05 -1.93822 -0.547274 0
M  V30 4851 C 476.115 -3.41148 -0.61795 0
M  V30 4852 C 475.176 -4.28507 0.260875 0
M  V30 4853 C 474.409 -5.3097 -0.539156 0
M  V30 4854 O 474.632 -5.42123 -1.77367 0
M  V30 4855 O 473.566 -6.01858 0.0710526 0
M  V30 4856 H 477.392 -2.85515 1.03512 0
M  V30 4857 H 474.977 -1.38079 0.570495 0
M  V30 4858 H 476.859 -4.06889 -1.09634 0
M  V30 4859 H 475.534 -2.91447 -1.40855 0
M  V30 4860 H 474.441 -3.6574 0.786451 0
M  V30 4861 H 475.774 -4.81611 1.01547 0
M  V30 4862 N 477.426 -0.562348 -1.47226 0
M  V30 4863 C 478.842 -0.222492 -1.58042 0
M  V30 4864 C 479.042 1.27505 -1.56028 0
M  V30 4865 O 478.098 2.05555 -1.46641 0
M  V30 4866 C 479.411 -0.853694 -2.88327 0
M  V30 4867 C 480.959 -0.825397 -3.01921 0
M  V30 4868 C 481.434 -1.43576 -4.34914 0
M  V30 4869 N 482.925 -1.39918 -4.41562 0
M  V30 4870 C 483.66 -1.84103 -5.43041 0
M  V30 4871 N 483.156 -2.36167 -6.51304 0
M  V30 4872 N 484.949 -1.75142 -5.34118 0
M  V30 4873 H 477.1 -1.53525 -1.46778 0
M  V30 4874 H 479.363 -0.640527 -0.698877 0
M  V30 4875 H 479.069 -1.90635 -2.95552 0
M  V30 4876 H 478.943 -0.34977 -3.75575 0
M  V30 4877 H 481.33 0.218583 -2.94289 0
M  V30 4878 H 481.411 -1.36713 -2.16202 0
M  V30 4879 H 481.055 -2.47884 -4.43301 0
M  V30 4880 H 480.985 -0.869427 -5.19373 0
M  V30 4881 H 483.476 -1.0184 -3.63919 0
M  V30 4882 H 483.789 -2.67793 -7.24919 0
M  V30 4883 H 482.134 -2.40181 -6.52179 0
M  V30 4884 H 485.325 -1.34241 -4.48439 0
M  V30 4885 H 485.498 -2.09895 -6.13065 0
M  V30 4886 N 478.904 1.54736 -0.299062 0
M  V30 4887 C 479.834 2.26409 0.571085 0
M  V30 4888 C 480.815 1.2629 1.13951 0
M  V30 4889 O 482 1.55059 1.16921 0
M  V30 4890 C 479.13 3.00338 1.74396 0
M  V30 4891 C 478.084 4.07588 1.30599 0
M  V30 4892 C 477.41 4.69222 2.56387 0
M  V30 4893 C 478.71 5.20455 0.438645 0
M  V30 4894 H 480.404 2.99388 -0.0266991 0
M  V30 4895 H 477.95 1.43993 -0.0142812 0
M  V30 4896 H 479.903 3.49198 2.35878 0
M  V30 4897 H 478.627 2.24934 2.36796 0
M  V30 4898 H 477.286 3.59575 0.71424 0
M  V30 4899 H 476.934 3.9046 3.17097 0
M  V30 4900 H 476.634 5.41653 2.27784 0
M  V30 4901 H 478.158 5.20844 3.18675 0
M  V30 4902 H 479.572 5.65221 0.959085 0
M  V30 4903 H 477.969 5.99594 0.246466 0
M  V30 4904 H 479.039 4.8192 -0.536738 0
M  V30 4905 N 480.382 0.0267497 1.57577 0
M  V30 4906 C 481.629 -0.652404 1.91703 0
M  V30 4907 C 481.957 -1.72271 0.902936 0
M  V30 4908 O 481.212 -1.955 -0.0884843 0
M  V30 4909 C 481.511 -1.30914 3.3256 0
M  V30 4910 C 481.177 -0.369441 4.49384 0
M  V30 4911 C 479.839 -0.110791 4.81072 0
M  V30 4912 C 482.191 0.275971 5.20469 0
M  V30 4913 C 479.519 0.801116 5.81205 0
M  V30 4914 C 481.871 1.17592 6.21575 0
M  V30 4915 C 480.535 1.44348 6.51705 0
M  V30 4916 H 479.805 -0.238732 0.70149 0
M  V30 4917 H 482.452 0.0880091 1.91298 0
M  V30 4918 H 480.757 -2.12425 3.29216 0
M  V30 4919 H 482.454 -1.84115 3.56234 0
M  V30 4920 H 479.044 -0.581211 4.24641 0
M  V30 4921 H 483.228 0.0892 4.9622 0
M  V30 4922 H 478.484 1.01614 6.02897 0
M  V30 4923 H 482.658 1.68223 6.75777 0
M  V30 4924 H 480.285 2.15176 7.29111 0
M  V30 4925 N 481.861 -1.55662 -0.24637 0
M  V30 4926 C 482.809 -1.91186 -1.3248 0
M  V30 4927 C 483.803 -0.790996 -1.49799 0
M  V30 4928 O 485.009 -0.975617 -1.51267 0
M  V30 4929 H 481.384 -0.607207 -0.443626 0
M  V30 4930 H 483.355 -2.81221 -0.997853 0
M  V30 4931 C 482.104 -2.22349 -2.67313 0
M  V30 4932 H 481.427 -3.08097 -2.54786 0
M  V30 4933 H 482.867 -2.51107 -3.41645 0
M  V30 4934 C 481.326 -1.04001 -3.20446 0
M  V30 4935 O 481.856 -0.28828 -4.00664 0
M  V30 4936 N 480.062 -0.830494 -2.7848 0
M  V30 4937 H 479.609 -1.4435 -2.13356 0
M  V30 4938 H 479.567 -0.0403258 -3.14374 0
M  V30 4939 N 483.339 0.512053 -1.4905 0
M  V30 4940 C 484.287 1.63568 -1.65373 0
M  V30 4941 C 485.281 1.61228 -0.519806 0
M  V30 4942 O 486.487 1.65869 -0.699101 0
M  V30 4943 H 482.862 0.542019 -0.521267 0
M  V30 4944 H 484.833 1.4695 -2.59708 0
M  V30 4945 C 483.582 3.01761 -1.7273 0
M  V30 4946 H 482.905 3.04263 -2.59353 0
M  V30 4947 H 484.345 3.79948 -1.8819 0
M  V30 4948 C 482.804 3.33609 -0.46973 0
M  V30 4949 O 483.334 3.99607 0.409492 0
M  V30 4950 N 481.54 2.88651 -0.336003 0
M  V30 4951 H 481.087 2.35119 -1.05247 0
M  V30 4952 H 481.045 3.10328 0.504363 0
M  V30 4953 N 484.817 1.37938 0.762283 0
M  V30 4954 C 485.764 1.34467 1.87583 0
M  V30 4955 C 486.734 0.208633 1.64785 0
M  V30 4956 O 487.919 0.399494 1.86571 0
M  V30 4957 C 485.059 1.16692 3.24772 0
M  V30 4958 C 484.172 2.39608 3.59461 0
M  V30 4959 C 483.307 2.14631 4.85908 0
M  V30 4960 C 482.346 3.33364 5.13357 0
M  V30 4961 N 481.483 3.07877 6.30996 0
M  V30 4962 H 486.323 2.29669 1.89885 0
M  V30 4963 H 483.86 1.14116 0.928219 0
M  V30 4964 H 485.818 1.04405 4.03925 0
M  V30 4965 H 484.448 0.251333 3.2182 0
M  V30 4966 H 483.5 2.626 2.75219 0
M  V30 4967 H 484.812 3.28128 3.75678 0
M  V30 4968 H 483.966 1.99429 5.72986 0
M  V30 4969 H 482.705 1.23463 4.71814 0
M  V30 4970 H 481.71 3.49094 4.24751 0
M  V30 4971 H 482.935 4.25395 5.29354 0
M  V30 4972 H 480.881 2.19348 6.18241 0
M  V30 4973 H 480.798 3.89944 6.47673 0
M  V30 4974 H 482.066 2.96313 7.20985 0
M  V30 4975 N 486.295 -0.989507 1.22664 0
M  V30 4976 C 487.706 -1.54406 1.04955 0
M  V30 4977 C 488.057 -1.92366 -0.385951 0
M  V30 4978 O 487.182 -1.75111 -1.27142 0
M  V30 4979 C 487.777 -2.80578 1.89899 0
M  V30 4980 C 486.336 -3.32464 1.76478 0
M  V30 4981 C 485.483 -2.05524 1.86159 0
M  V30 4982 H 488.434 -0.810211 1.3646 0
M  V30 4983 H 488.455 -3.53075 1.4184 0
M  V30 4984 H 487.967 -2.52918 2.94371 0
M  V30 4985 H 486.068 -3.65024 0.747528 0
M  V30 4986 H 486.181 -4.02838 2.59342 0
M  V30 4987 H 484.545 -2.19241 1.29636 0
M  V30 4988 H 485.328 -1.80258 2.92168 0
M  V30 4989 N 487.773 -1.03688 -1.18687 0
M  V30 4990 C 489.05 -0.652397 -1.84399 0
M  V30 4991 C 489.43 0.868386 -1.92412 0
M  V30 4992 O 488.778 1.76832 -1.44716 0
M  V30 4993 C 488.988 -1.3238 -3.22919 0
M  V30 4994 C 490.336 -1.45216 -3.98996 0
M  V30 4995 O 491.36 -1.2816 -3.32345 0
M  V30 4996 O 490.219 -1.72975 -5.18403 0
M  V30 4997 H 487.313 -0.227793 -0.795009 0
M  V30 4998 H 489.859 -1.13553 -1.2611 0
M  V30 4999 H 488.631 -2.36202 -3.11968 0
M  V30 5000 H 488.254 -0.829039 -3.88861 0
M  V30 5001 N 489.251 1.34841 -0.815825 0
M  V30 5002 C 490.161 2.33425 -0.234462 0
M  V30 5003 C 491.177 1.62295 0.627413 0
M  V30 5004 O 492.353 1.94109 0.536987 0
M  V30 5005 C 489.418 3.41471 0.599849 0
M  V30 5006 C 488.479 4.28362 -0.283596 0
M  V30 5007 C 487.712 5.31248 0.51099 0
M  V30 5008 O 487.935 5.43056 1.7449 0
M  V30 5009 O 486.869 6.01812 -0.10297 0
M  V30 5010 H 490.695 2.84962 -1.05024 0
M  V30 5011 H 488.28 1.37774 -0.577809 0
M  V30 5012 H 490.162 4.07464 1.07475 0
M  V30 5013 H 488.837 2.9219 1.39308 0
M  V30 5014 H 487.744 3.65318 -0.805836 0
M  V30 5015 H 489.077 4.81066 -1.041 0
M  V30 5016 N 490.729 0.570148 1.46925 0
M  V30 5017 C 491.679 -0.190921 2.27199 0
M  V30 5018 C 492.663 -0.873457 1.35128 0
M  V30 5019 O 493.855 -0.769627 1.59392 0
M  V30 5020 C 490.984 -1.21204 3.21192 0
M  V30 5021 C 490.07 -0.532261 4.20747 0
M  V30 5022 N 490.461 0.405038 5.04176 0
M  V30 5023 C 488.759 -0.784582 4.39045 0
M  V30 5024 C 489.46 0.801149 5.76157 0
M  V30 5025 N 488.436 0.153082 5.43384 0
M  V30 5026 H 492.238 0.529535 2.8909 0
M  V30 5027 H 489.752 0.391019 1.57622 0
M  V30 5028 H 491.749 -1.77135 3.77398 0
M  V30 5029 H 490.409 -1.93345 2.6086 0
M  V30 5030 H 491.42 0.779903 5.11994 0
M  V30 5031 H 488.097 -1.49352 3.89872 0
M  V30 5032 H 489.487 1.57208 6.5325 0
M  V30 5033 N 492.207 -1.54576 0.307264 0
M  V30 5034 C 493.137 -2.26708 -0.55907 0
M  V30 5035 C 494.118 -1.26893 -1.1328 0
M  V30 5036 O 495.303 -1.55677 -1.16097 0
M  V30 5037 C 492.433 -3.01259 -1.72801 0
M  V30 5038 C 491.387 -4.08275 -1.28435 0
M  V30 5039 C 490.713 -4.70575 -2.53895 0
M  V30 5040 C 492.013 -5.2068 -0.411038 0
M  V30 5041 H 493.707 -2.9937 0.042576 0
M  V30 5042 H 491.253 -1.43983 0.0219173 0
M  V30 5043 H 493.206 -3.50444 -2.34023 0
M  V30 5044 H 491.93 -2.26187 -2.356 0
M  V30 5045 H 490.589 -3.59949 -0.695161 0
M  V30 5046 H 490.237 -3.92136 -3.15021 0
M  V30 5047 H 489.937 -5.42854 -2.24908 0
M  V30 5048 H 491.461 -5.22527 -3.15908 0
M  V30 5049 H 492.875 -5.65721 -0.929097 0
M  V30 5050 H 491.272 -5.99716 -0.214664 0
M  V30 5051 H 492.342 -4.81629 0.562287 0
M  V30 5052 N 493.685 -0.035106 -1.57561 0
M  V30 5053 C 494.962 0.681212 -1.83354 0
M  V30 5054 C 495.342 1.89986 -0.920252 0
M  V30 5055 O 494.69 2.28489 0.0226815 0
M  V30 5056 C 494.9 1.05376 -3.32712 0
M  V30 5057 C 496.248 1.44286 -3.99333 0
M  V30 5058 O 497.272 1.14656 -3.37242 0
M  V30 5059 O 496.131 1.99518 -5.08778 0
M  V30 5060 H 493.225 0.334741 -0.756226 0
M  V30 5061 H 495.771 -0.0632448 -1.69582 0
M  V30 5062 H 494.543 0.186668 -3.90854 0
M  V30 5063 H 494.166 1.85619 -3.51613 0
M  V30 5064 N 495.163 1.55791 0.238111 0
M  V30 5065 C 496.393 1.81834 0.980809 0
M  V30 5066 C 496.801 0.609741 1.79106 0
M  V30 5067 O 496.144 -0.431073 1.78571 0
M  V30 5068 C 496.206 3.01363 1.96011 0
M  V30 5069 C 495.87 4.37037 1.33597 0
M  V30 5070 C 496.867 5.14692 0.734063 0
M  V30 5071 C 494.552 4.83743 1.3527 0
M  V30 5072 C 496.546 6.37206 0.157208 0
M  V30 5073 C 494.233 6.06204 0.77199 0
M  V30 5074 C 495.231 6.82775 0.175282 0
M  V30 5075 O 494.919 8.02922 -0.396432 0
M  V30 5076 H 494.651 0.6088 0.293834 0
M  V30 5077 H 497.205 2.03702 0.263552 0
M  V30 5078 H 495.435 2.75273 2.71591 0
M  V30 5079 H 497.124 3.14422 2.56697 0
M  V30 5080 H 497.89 4.79722 0.713582 0
M  V30 5081 H 493.769 4.24129 1.80653 0
M  V30 5082 H 497.313 6.96915 -0.30917 0
M  V30 5083 H 493.21 6.4065 0.789828 0
M  V30 5084 H 493.978 8.17989 -0.289145 0
M  V30 5085 N 496.642 -0.504142 1.49319 0
M  V30 5086 C 497.867 -1.28729 1.62615 0
M  V30 5087 C 498.292 -1.85752 0.296309 0
M  V30 5088 O 497.65 -1.65704 -0.735649 0
M  V30 5089 C 497.698 -2.39561 2.69524 0
M  V30 5090 O 496.802 -3.43324 2.28478 0
M  V30 5091 H 496.143 -0.380172 0.544395 0
M  V30 5092 H 498.673 -0.603872 1.95485 0
M  V30 5093 H 498.683 -2.8537 2.91595 0
M  V30 5094 H 497.358 -1.97423 3.66056 0
M  V30 5095 H 495.935 -3.03455 2.16725 0
M  V30 5096 N 498.12 -1.38341 -0.754957 0
M  V30 5097 C 499.068 -1.35573 -1.89005 0
M  V30 5098 C 500.062 -0.241824 -1.67665 0
M  V30 5099 O 501.268 -0.410785 -1.7525 0
M  V30 5100 H 497.643 -0.422898 -0.621821 0
M  V30 5101 H 499.614 -2.31359 -1.88455 0
M  V30 5102 C 498.363 -1.19631 -3.26471 0
M  V30 5103 H 497.686 -2.04605 -3.43477 0
M  V30 5104 H 499.126 -1.21748 -4.06144 0
M  V30 5105 C 497.585 0.0968705 -3.36761 0
M  V30 5106 O 498.115 1.07439 -3.87066 0
M  V30 5107 N 496.321 0.153242 -2.90196 0
M  V30 5108 H 495.868 -0.642908 -2.49448 0
M  V30 5109 H 495.826 1.01807 -2.9746 0
M  V30 5110 N 499.598 0.982988 -1.23187 0
M  V30 5111 C 500.847 1.71817 -1.05649 0
M  V30 5112 C 501.16 1.91315 0.407176 0
M  V30 5113 O 502.366 2.62256 0.702436 0
M  V30 5114 C 500.822 3.09188 -1.84203 0
M  V30 5115 C 500.43 2.97586 -3.34882 0
M  V30 5116 C 502.174 3.86684 -1.75146 0
M  V30 5117 C 500.081 4.30173 -4.05839 0
M  V30 5118 H 499.011 0.644258 -0.391724 0
M  V30 5119 H 501.662 1.09659 -1.4713 0
M  V30 5120 H 500.044 3.72087 -1.35527 0
M  V30 5121 H 501.218 2.43793 -3.91026 0
M  V30 5122 H 499.533 2.33567 -3.44725 0
M  V30 5123 H 502.13 4.84836 -2.25473 0
M  V30 5124 H 502.473 4.10136 -0.713737 0
M  V30 5125 H 503.006 3.30482 -2.21419 0
M  V30 5126 H 499.745 4.11918 -5.09906 0
M  V30 5127 H 499.265 4.83841 -3.54482 0
M  V30 5128 H 500.944 4.98873 -4.11989 0
M  V30 5129 N 501.076 1.04316 1.18135 0
M  V30 5130 C 502.487 0.775505 1.69832 0
M  V30 5131 C 502.838 -0.703348 1.8316 0
M  V30 5132 O 501.963 -1.54729 1.51287 0
M  V30 5133 C 502.558 1.40112 3.0847 0
M  V30 5134 C 501.117 1.18172 3.57368 0
M  V30 5135 C 500.264 1.49022 2.33854 0
M  V30 5136 H 503.215 1.20925 1.02775 0
M  V30 5137 H 503.236 0.805672 3.71873 0
M  V30 5138 H 502.748 2.47744 2.98738 0
M  V30 5139 H 500.849 0.124258 3.72393 0
M  V30 5140 H 500.962 1.8805 4.40652 0
M  V30 5141 H 499.326 0.909995 2.37889 0
M  V30 5142 H 500.109 2.57768 2.26738 0
M  V30 5143 N 502.554 -1.34406 0.822964 0
M  V30 5144 C 503.782 -2.02508 0.424039 0
M  V30 5145 C 504.197 -1.61975 -0.970022 0
M  V30 5146 O 503.554 -0.825228 -1.62777 0
M  V30 5147 C 503.605 -3.57789 0.516657 0
M  V30 5148 O 503.326 -3.96853 1.85577 0
M  V30 5149 C 504.827 -4.43157 0.112637 0
M  V30 5150 H 502.047 -0.649063 0.170173 0
M  V30 5151 H 504.591 -1.7168 1.11113 0
M  V30 5152 H 502.746 -3.87207 -0.122353 0
M  V30 5153 H 503.16 -4.91538 1.83005 0
M  V30 5154 H 504.634 -5.51527 0.228526 0
M  V30 5155 H 505.111 -4.28939 -0.943837 0
M  V30 5156 H 505.717 -4.19067 0.725449 0
M  V30 5157 N 504.032 -0.577932 -1.46621 0
M  V30 5158 C 505.278 -0.0617793 -2.02706 0
M  V30 5159 C 505.611 1.29294 -1.44903 0
M  V30 5160 O 504.886 1.8461 -0.61232 0
M  V30 5161 C 505.169 0.00911824 -3.60099 0
M  V30 5162 C 505.022 -1.37416 -4.28295 0
M  V30 5163 C 506.341 0.712159 -4.343 0
M  V30 5164 H 503.46 -0.0239246 -0.736612 0
M  V30 5165 H 506.102 -0.744211 -1.74818 0
M  V30 5166 H 504.252 0.590292 -3.83989 0
M  V30 5167 H 505.924 -2.00013 -4.15683 0
M  V30 5168 H 504.167 -1.94319 -3.87843 0
M  V30 5169 H 504.838 -1.27707 -5.37024 0
M  V30 5170 H 507.314 0.218486 -4.15526 0
M  V30 5171 H 506.19 0.730782 -5.44014 0
M  V30 5172 H 506.451 1.77251 -4.05012 0
M  V30 5173 N 505.51 1.54411 -0.315457 0
M  V30 5174 C 506.756 2.00716 0.289972 0
M  V30 5175 C 507.089 1.2034 1.5242 0
M  V30 5176 O 506.364 0.283579 1.92422 0
M  V30 5177 C 506.647 3.54507 0.632196 0
M  V30 5178 C 506.5 4.45615 -0.61218 0
M  V30 5179 C 507.819 4.15421 1.45305 0
M  V30 5180 H 504.938 0.729637 0.10392 0
M  V30 5181 H 507.58 1.8506 -0.430427 0
M  V30 5182 H 505.73 3.67979 1.24595 0
M  V30 5183 H 507.402 4.44026 -1.25053 0
M  V30 5184 H 505.645 4.15621 -1.24264 0
M  V30 5185 H 506.316 5.51022 -0.328379 0
M  V30 5186 H 508.792 4.05474 0.934331 0
M  V30 5187 H 507.668 5.23157 1.66127 0
M  V30 5188 H 507.929 3.68223 2.44671 0
M  V30 5189 N 506.988 0.0434614 1.5754 0
M  V30 5190 C 508.235 -0.632035 1.92384 0
M  V30 5191 C 508.563 -1.71304 0.921157 0
M  V30 5192 O 507.818 -1.95583 -0.067744 0
M  V30 5193 C 508.117 -1.2738 3.3393 0
M  V30 5194 C 507.783 -0.321757 4.49751 0
M  V30 5195 C 506.445 -0.0597611 4.81163 0
M  V30 5196 C 508.797 0.331158 5.20147 0
M  V30 5197 C 506.125 0.862715 5.80322 0
M  V30 5198 C 508.477 1.24178 6.20292 0
M  V30 5199 C 507.141 1.51252 6.50138 0
M  V30 5200 H 506.411 -0.231278 0.703983 0
M  V30 5201 H 509.058 0.108294 1.91194 0
M  V30 5202 H 507.363 -2.08921 3.3145 0
M  V30 5203 H 509.06 -1.80326 3.58167 0
M  V30 5204 H 505.65 -0.53614 4.25233 0
M  V30 5205 H 509.834 0.141826 4.96097 0
M  V30 5206 H 505.09 1.08003 6.01785 0
M  V30 5207 H 509.264 1.75381 6.73954 0
M  V30 5208 H 506.891 2.22897 7.26788 0
M  V30 5209 N 508.466 -1.55915 -0.229846 0
M  V30 5210 C 509.691 -1.8296 -0.976743 0
M  V30 5211 C 510.116 -0.622735 -1.77493 0
M  V30 5212 O 509.474 0.428431 -1.76165 0
M  V30 5213 C 509.522 -3.07916 -1.8767 0
M  V30 5214 O 508.626 -2.86028 -2.97088 0
M  V30 5215 H 507.967 -0.603453 -0.277021 0
M  V30 5216 H 510.497 -2.0312 -0.245669 0
M  V30 5217 H 510.507 -3.37802 -2.2881 0
M  V30 5218 H 509.182 -3.95389 -1.28996 0
M  V30 5219 H 507.759 -2.67355 -2.59954 0
M  V30 5220 N 509.944 0.496216 -1.49584 0
M  V30 5221 C 510.894 1.59422 -1.62999 0
M  V30 5222 C 511.878 1.53402 -0.485457 0
M  V30 5223 O 513.07 1.60851 -0.738649 0
M  V30 5224 C 510.199 2.98009 -1.70427 0
M  V30 5225 C 509.285 3.09008 -2.90473 0
M  V30 5226 N 509.676 2.89884 -4.14489 0
M  V30 5227 C 507.974 3.40115 -2.8851 0
M  V30 5228 C 508.675 3.0519 -4.95211 0
M  V30 5229 N 507.651 3.3428 -4.2867 0
M  V30 5230 H 511.453 1.43297 -2.56599 0
M  V30 5231 H 508.967 0.702443 -1.46422 0
M  V30 5232 H 510.964 3.76926 -1.78136 0
M  V30 5233 H 509.624 3.152 -0.77967 0
M  V30 5234 H 510.635 2.65963 -4.44392 0
M  V30 5235 H 507.312 3.63452 -2.05448 0
M  V30 5236 H 508.702 2.94856 -6.03746 0
M  V30 5237 N 511.423 1.38739 0.74761 0
M  V30 5238 C 512.834 1.31507 1.32524 0
M  V30 5239 C 513.185 -0.0263963 1.96182 0
M  V30 5240 O 512.31 -0.92849 1.95469 0
M  V30 5241 C 512.905 2.38162 2.40966 0
M  V30 5242 C 511.464 2.34489 2.94434 0
M  V30 5243 C 510.611 2.20712 1.67873 0
M  V30 5244 H 513.562 1.4901 0.546043 0
M  V30 5245 H 513.583 2.04222 3.21051 0
M  V30 5246 H 513.095 3.35783 1.94605 0
M  V30 5247 H 511.196 1.40467 3.45108 0
M  V30 5248 H 511.309 3.28861 3.48407 0
M  V30 5249 H 509.673 1.67667 1.91729 0
M  V30 5250 H 510.456 3.20285 1.23582 0
M  V30 5251 N 512.901 -0.976442 1.23707 0
M  V30 5252 C 514.312 -1.53284 1.06587 0
M  V30 5253 C 514.663 -1.92765 -0.365526 0
M  V30 5254 O 513.788 -1.7645 -1.25277 0
M  V30 5255 C 514.383 -2.78548 1.92864 0
M  V30 5256 C 512.942 -3.30574 1.79994 0
M  V30 5257 C 512.089 -2.03538 1.88328 0
M  V30 5258 H 515.04 -0.795692 1.37311 0
M  V30 5259 H 515.061 -3.5155 1.45577 0
M  V30 5260 H 514.573 -2.49782 2.97037 0
M  V30 5261 H 512.674 -3.64211 0.786202 0
M  V30 5262 H 512.787 -4.00065 2.636 0
M  V30 5263 H 511.151 -2.17853 1.31954 0
M  V30 5264 H 511.934 -1.77149 2.94063 0
M  V30 5265 N 514.379 -1.04941 -1.1758 0
M  V30 5266 C 515.628 -0.753124 -1.87112 0
M  V30 5267 C 515.941 0.722507 -1.81767 0
M  V30 5268 O 517.147 1.13265 -2.46746 0
M  V30 5269 C 515.603 -1.29695 -3.35719 0
M  V30 5270 C 515.211 -2.80184 -3.49572 0
M  V30 5271 C 516.955 -1.07759 -4.10595 0
M  V30 5272 C 514.862 -3.2788 -4.92187 0
M  V30 5273 H 513.792 -0.278034 -0.700866 0
M  V30 5274 H 516.443 -1.26637 -1.32798 0
M  V30 5275 H 514.825 -0.711522 -3.89555 0
M  V30 5276 H 515.999 -3.44561 -3.05965 0
M  V30 5277 H 514.314 -3.00632 -2.88113 0
M  V30 5278 H 516.911 -1.40899 -5.15802 0
M  V30 5279 H 517.254 -0.0152302 -4.16297 0
M  V30 5280 H 517.787 -1.62809 -3.62957 0
M  V30 5281 H 514.526 -4.33535 -4.91658 0
M  V30 5282 H 514.046 -2.68245 -5.36475 0
M  V30 5283 H 515.725 -3.22412 -5.60945 0
M  V30 5284 N 515.857 1.33968 -0.830081 0
M  V30 5285 C 517.105 1.97672 -0.420734 0
M  V30 5286 C 517.426 1.66111 1.02138 0
M  V30 5287 O 516.696 0.955503 1.71017 0
M  V30 5288 H 515.276 0.73125 -0.152587 0
M  V30 5289 H 517.938 1.63483 -1.0611 0
M  V30 5290 H 517.034 3.07294 -0.545588 0
M  V30 5291 N 517.335 0.585699 1.46312 0
M  V30 5292 C 518.563 0.0781299 2.06752 0
M  V30 5293 C 518.978 -1.22812 1.43396 0
M  V30 5294 O 518.335 -1.74318 0.540314 0
M  V30 5295 C 518.386 -0.0911927 3.61385 0
M  V30 5296 O 518.107 1.16336 4.22371 0
M  V30 5297 C 519.608 -0.632765 4.38761 0
M  V30 5298 H 516.828 0.0588188 0.668417 0
M  V30 5299 H 519.372 0.807218 1.87894 0
M  V30 5300 H 517.527 -0.770514 3.7966 0
M  V30 5301 H 517.941 0.979082 5.15281 0
M  V30 5302 H 519.415 -0.70041 5.47538 0
M  V30 5303 H 519.892 -1.65039 4.07012 0
M  V30 5304 H 520.498 0.0117856 4.25298 0
M  V30 5305 N 518.813 -1.54241 0.323641 0
M  V30 5306 C 520.059 -2.00867 -0.279323 0
M  V30 5307 C 520.392 -1.21146 -1.5178 0
M  V30 5308 O 519.667 -0.29378 -1.92269 0
M  V30 5309 C 519.95 -3.54837 -0.613387 0
M  V30 5310 C 519.803 -4.45284 0.635803 0
M  V30 5311 C 521.122 -4.16186 -1.43099 0
M  V30 5312 H 518.241 -0.730177 -0.100049 0
M  V30 5313 H 520.883 -1.84829 0.440235 0
M  V30 5314 H 519.033 -3.68634 -1.22641 0
M  V30 5315 H 520.705 -4.43357 1.27406 0
M  V30 5316 H 518.948 -4.14956 1.26466 0
M  V30 5317 H 519.619 -5.5084 0.357597 0
M  V30 5318 H 522.095 -4.05964 -0.912814 0
M  V30 5319 H 520.971 -5.24031 -1.6335 0
M  V30 5320 H 521.232 -3.69516 -2.42715 0
M  V30 5321 N 520.291 -0.0518155 -1.57515 0
M  V30 5322 C 521.539 0.620595 -1.92336 0
M  V30 5323 C 521.86 1.71345 -0.930907 0
M  V30 5324 O 521.13 1.95885 0.0241341 0
M  V30 5325 H 519.71 0.232226 -0.709986 0
M  V30 5326 H 522.372 -0.104969 -1.94617 0
M  V30 5327 H 521.468 1.05879 -2.93592 0
M  V30 5328 N 521.769 1.56035 0.221574 0
M  V30 5329 C 522.699 1.95434 1.2778 0
M  V30 5330 C 523.68 0.822564 1.48889 0
M  V30 5331 O 524.865 1.08486 1.61072 0
M  V30 5332 C 521.995 2.27102 2.62759 0
M  V30 5333 C 520.949 3.4277 2.56306 0
M  V30 5334 C 520.275 3.60043 3.95314 0
M  V30 5335 C 521.575 4.77742 2.11093 0
M  V30 5336 H 523.269 2.83912 0.950504 0
M  V30 5337 H 520.815 1.36596 0.455791 0
M  V30 5338 H 522.768 2.53256 3.36807 0
M  V30 5339 H 521.492 1.35478 2.97176 0
M  V30 5340 H 520.151 3.16664 1.84715 0
M  V30 5341 H 519.799 2.65794 4.27039 0
M  V30 5342 H 519.499 4.37841 3.91879 0
M  V30 5343 H 521.023 3.88545 4.71025 0
M  V30 5344 H 522.437 5.03102 2.74885 0
M  V30 5345 H 520.834 5.58823 2.18716 0
M  V30 5346 H 521.904 4.731 1.06321 0
M  V30 5347 N 523.247 -0.488276 1.49845 0
M  V30 5348 C 524.475 -1.26527 1.63702 0
M  V30 5349 C 524.89 -1.8618 0.313447 0
M  V30 5350 O 524.247 -1.68432 -0.702624 0
M  V30 5351 C 524.298 -2.3864 2.71538 0
M  V30 5352 O 524.019 -1.81437 3.98763 0
M  V30 5353 C 525.52 -3.29805 2.96215 0
M  V30 5354 H 522.74 -0.383295 0.55075 0
M  V30 5355 H 525.284 -0.584779 1.95961 0
M  V30 5356 H 523.439 -3.02496 2.42023 0
M  V30 5357 H 523.853 -2.55135 4.58265 0
M  V30 5358 H 525.327 -4.04722 3.75372 0
M  V30 5359 H 525.804 -3.87563 2.06619 0
M  V30 5360 H 526.41 -2.71703 3.27196 0
M  V30 5361 N 524.725 -1.39134 -0.740242 0
M  V30 5362 C 525.635 -1.39697 -1.88473 0
M  V30 5363 C 526.651 -0.292403 -1.71526 0
M  V30 5364 O 527.827 -0.533021 -1.94219 0
M  V30 5365 C 524.892 -1.23382 -3.24003 0
M  V30 5366 C 523.953 -2.43763 -3.53381 0
M  V30 5367 C 523.186 -2.28216 -4.82445 0
M  V30 5368 O 523.409 -1.28288 -5.55786 0
M  V30 5369 O 522.343 -3.1709 -5.11603 0
M  V30 5370 H 526.169 -2.36159 -1.90952 0
M  V30 5371 H 523.754 -1.20194 -0.887346 0
M  V30 5372 H 525.636 -1.16395 -4.05006 0
M  V30 5373 H 524.311 -0.300121 -3.22306 0
M  V30 5374 H 523.218 -2.56325 -2.72485 0
M  V30 5375 H 524.551 -3.35808 -3.59852 0
M  V30 5376 N 526.204 0.969867 -1.24223 0
M  V30 5377 C 527.615 1.52717 -1.07399 0
M  V30 5378 C 527.966 1.92956 0.355298 0
M  V30 5379 O 527.091 1.77112 1.2434 0
M  V30 5380 C 527.686 2.77521 -1.94339 0
M  V30 5381 C 526.245 3.29615 -1.81744 0
M  V30 5382 C 525.392 2.02537 -1.89405 0
M  V30 5383 H 528.343 0.788399 -1.37732 0
M  V30 5384 H 528.364 3.50773 -1.47439 0
M  V30 5385 H 527.876 2.48203 -2.98357 0
M  V30 5386 H 525.977 3.63789 -0.805505 0
M  V30 5387 H 526.09 3.98661 -2.65718 0
M  V30 5388 H 524.454 2.17151 -1.33108 0
M  V30 5389 H 525.237 1.75587 -2.94999 0
M  V30 5390 N 527.682 1.05563 1.17022 0
M  V30 5391 C 528.614 0.617888 2.20714 0
M  V30 5392 C 529.627 -0.320303 1.59618 0
M  V30 5393 O 530.816 -0.112449 1.78145 0
M  V30 5394 C 527.916 -0.115333 3.38704 0
M  V30 5395 C 527.089 0.834493 4.29366 0
M  V30 5396 C 526.148 0.141855 5.26009 0
M  V30 5397 O 525.174 0.777151 5.6387 0
M  V30 5398 N 526.376 -1.11934 5.69606 0
M  V30 5399 H 529.141 1.50981 2.58892 0
M  V30 5400 H 526.702 0.938008 1.31958 0
M  V30 5401 H 528.694 -0.588918 4.00392 0
M  V30 5402 H 527.264 -0.908967 2.99093 0
M  V30 5403 H 526.484 1.48762 3.65053 0
M  V30 5404 H 527.772 1.4791 4.86827 0
M  V30 5405 H 527.17 -1.65574 5.40927 0
M  V30 5406 H 525.727 -1.53692 6.33421 0
M  V30 5407 N 529.16 -1.33526 0.837174 0
M  V30 5408 C 530.123 -2.27551 0.274421 0
M  V30 5409 C 531.123 -1.50886 -0.555881 0
M  V30 5410 O 532.313 -1.70227 -0.369918 0
M  V30 5411 C 529.445 -3.35332 -0.613605 0
M  V30 5412 H 530.638 -2.78837 1.10408 0
M  V30 5413 H 528.191 -1.439 0.610126 0
M  V30 5414 H 528.926 -2.89285 -1.46577 0
M  V30 5415 H 528.711 -3.92095 -0.0195341 0
M  V30 5416 H 530.201 -4.05433 -1.00068 0
M  V30 5417 N 530.638 -0.59345 -1.46 0
M  V30 5418 C 532.054 -0.255965 -1.57534 0
M  V30 5419 C 532.254 1.24167 -1.58697 0
M  V30 5420 O 531.31 2.02398 -1.50968 0
M  V30 5421 C 532.623 -0.91466 -2.86451 0
M  V30 5422 C 534.171 -0.889253 -3.00102 0
M  V30 5423 C 534.646 -1.52769 -4.3177 0
M  V30 5424 N 536.137 -1.49253 -4.38495 0
M  V30 5425 C 536.872 -1.9558 -5.39014 0
M  V30 5426 N 536.368 -2.49929 -6.46148 0
M  V30 5427 N 538.161 -1.86432 -5.30282 0
M  V30 5428 H 530.312 -1.56604 -1.43489 0
M  V30 5429 H 532.575 -0.655207 -0.685133 0
M  V30 5430 H 532.281 -1.96861 -2.91442 0
M  V30 5431 H 532.155 -0.429356 -3.74748 0
M  V30 5432 H 534.542 0.156111 -2.94687 0
M  V30 5433 H 534.623 -1.41268 -2.13253 0
M  V30 5434 H 534.267 -2.57231 -4.37944 0
M  V30 5435 H 534.197 -0.979398 -5.17412 0
M  V30 5436 H 536.688 -1.09536 -3.61677 0
M  V30 5437 H 537.001 -2.83109 -7.19075 0
M  V30 5438 H 535.346 -2.53961 -6.46938 0
M  V30 5439 H 538.537 -1.43722 -4.4549 0
M  V30 5440 H 538.71 -2.22852 -6.08474 0
M  V30 5441 N 532.116 1.54067 -0.331816 0
M  V30 5442 C 533.026 2.28322 0.539104 0
M  V30 5443 C 534.042 1.32985 1.1221 0
M  V30 5444 O 535.218 1.6601 1.1403 0
M  V30 5445 C 532.283 3.03277 1.68 0
M  V30 5446 C 531.344 4.14216 1.12798 0
M  V30 5447 C 530.577 4.85588 2.2145 0
M  V30 5448 O 530.8 4.56536 3.41952 0
M  V30 5449 O 529.734 5.72309 1.86404 0
M  V30 5450 H 533.56 3.03632 -0.0641692 0
M  V30 5451 H 531.145 1.49083 -0.0972365 0
M  V30 5452 H 533.027 3.50189 2.34405 0
M  V30 5453 H 531.702 2.30834 2.2693 0
M  V30 5454 H 530.609 3.71635 0.428782 0
M  V30 5455 H 531.942 4.88727 0.583698 0
M  V30 5456 N 533.594 0.0601682 1.57485 0
M  V30 5457 C 534.526 -0.94047 2.09016 0
M  V30 5458 C 535.539 -1.26897 1.01985 0
M  V30 5459 O 536.728 -1.22819 1.29529 0
M  V30 5460 C 533.828 -2.25955 2.52582 0
M  V30 5461 C 533.001 -2.11163 3.83052 0
M  V30 5462 C 532.06 -3.26273 4.12835 0
M  V30 5463 O 531.086 -3.01779 4.82616 0
M  V30 5464 N 532.288 -4.51022 3.65458 0
M  V30 5465 H 535.053 -0.500578 2.9549 0
M  V30 5466 H 532.614 -0.125852 1.6141 0
M  V30 5467 H 534.606 -3.01846 2.69575 0
M  V30 5468 H 533.176 -2.61481 1.71308 0
M  V30 5469 H 532.396 -1.19808 3.75552 0
M  V30 5470 H 533.684 -1.98517 4.68475 0
M  V30 5471 H 533.082 -4.73811 3.09062 0
M  V30 5472 H 531.639 -5.23978 3.87673 0
M  V30 5473 N 535.072 -1.5615 -0.213296 0
M  V30 5474 C 536.302 -1.83372 -0.951757 0
M  V30 5475 C 536.71 -0.638158 -1.78113 0
M  V30 5476 O 536.053 0.402609 -1.79234 0
M  V30 5477 C 536.115 -3.04444 -1.91192 0
M  V30 5478 C 535.779 -4.39107 -1.26627 0
M  V30 5479 C 536.776 -5.15794 -0.652087 0
M  V30 5480 C 534.461 -4.85834 -1.27556 0
M  V30 5481 C 536.455 -6.37376 -0.055814 0
M  V30 5482 C 534.142 -6.07356 -0.675451 0
M  V30 5483 C 535.14 -6.82967 -0.0666367 0
M  V30 5484 O 534.828 -8.0219 0.524119 0
M  V30 5485 H 534.56 -0.613398 -0.284111 0
M  V30 5486 H 537.114 -2.04096 -0.231112 0
M  V30 5487 H 535.344 -2.79559 -2.67178 0
M  V30 5488 H 537.033 -3.18466 -2.51662 0
M  V30 5489 H 537.799 -4.80796 -0.637172 0
M  V30 5490 H 533.678 -4.26949 -1.73883 0
M  V30 5491 H 537.222 -6.96334 0.420004 0
M  V30 5492 H 533.119 -6.41825 -0.687806 0
M  V30 5493 H 533.887 -8.17426 0.419243 0
M  V30 5494 N 536.55 0.480323 -1.50102 0
M  V30 5495 C 537.798 1.23063 -1.60312 0
M  V30 5496 C 538.119 1.92659 -0.301226 0
M  V30 5497 O 537.389 1.83691 0.680753 0
M  V30 5498 H 535.969 0.457231 -0.590719 0
M  V30 5499 H 538.631 0.554893 -1.86834 0
M  V30 5500 H 537.727 1.9835 -2.40964 0
M  V30 5501 N 538.028 1.39524 0.732853 0
M  V30 5502 C 539.305 1.27373 1.48444 0
M  V30 5503 C 539.685 -0.115725 2.10783 0
M  V30 5504 O 539.033 -1.12713 1.98766 0
M  V30 5505 C 539.243 2.39966 2.53412 0
M  V30 5506 C 540.591 2.79384 3.19733 0
M  V30 5507 O 541.615 2.39431 2.63725 0
M  V30 5508 O 540.474 3.48353 4.21085 0
M  V30 5509 H 537.568 0.499272 0.659285 0
M  V30 5510 H 540.114 1.51403 0.766496 0
M  V30 5511 H 538.886 3.32845 2.05742 0
M  V30 5512 H 538.509 2.17612 3.32762 0
M  V30 5513 N 539.506 -0.963266 1.24736 0
M  V30 5514 C 540.783 -1.68248 0.9976 0
M  V30 5515 C 541.163 -2.05599 -0.478776 0
M  V30 5516 O 540.511 -1.7626 -1.45412 0
M  V30 5517 C 540.721 -2.91118 1.92487 0
M  V30 5518 C 542.069 -3.63261 2.19833 0
M  V30 5519 O 543.093 -3.01184 1.90176 0
M  V30 5520 O 541.952 -4.75019 2.7022 0
M  V30 5521 H 539.046 -0.735744 0.377637 0
M  V30 5522 H 541.592 -1.01696 1.35853 0
M  V30 5523 H 540.364 -2.60242 2.92215 0
M  V30 5524 H 539.987 -3.65402 1.56738 0
M  V30 5525 N 540.985 -1.06182 -1.16461 0
M  V30 5526 C 541.917 -0.629584 -2.20383 0
M  V30 5527 C 542.93 0.311834 -1.59786 0
M  V30 5528 O 544.119 0.103 -1.78203 0
M  V30 5529 C 541.219 0.0973695 -3.3876 0
M  V30 5530 C 540.392 -0.857252 -4.28917 0
M  V30 5531 C 539.451 -0.169749 -5.25926 0
M  V30 5532 O 538.477 -0.807044 -5.6345 0
M  V30 5533 N 539.679 1.08911 -5.70192 0
M  V30 5534 H 542.444 -1.52352 -2.58087 0
M  V30 5535 H 540.005 -0.944993 -1.31459 0
M  V30 5536 H 541.997 0.567676 -4.00699 0
M  V30 5537 H 540.567 0.893093 -2.99571 0
M  V30 5538 H 539.787 -1.50696 -3.64259 0
M  V30 5539 H 541.075 -1.50489 -4.86035 0
M  V30 5540 H 540.473 1.62703 -5.41797 0
M  V30 5541 H 539.03 1.50331 -6.34227 0
M  V30 5542 N 542.463 1.3308 -0.844243 0
M  V30 5543 C 543.709 1.97898 -0.443206 0
M  V30 5544 C 544.042 1.66699 0.99625 0
M  V30 5545 O 543.317 0.949704 1.69738 0
M  V30 5546 C 543.6 3.53801 -0.670606 0
M  V30 5547 C 543.453 3.94667 -2.15772 0
M  V30 5548 C 544.772 4.39936 -0.120226 0
M  V30 5549 H 541.891 0.718861 -0.162504 0
M  V30 5550 H 544.533 1.57633 -1.06075 0
M  V30 5551 H 542.683 3.88229 -0.14496 0
M  V30 5552 H 544.355 3.70469 -2.74865 0
M  V30 5553 H 542.598 3.44203 -2.6402 0
M  V30 5554 H 543.269 5.03275 -2.26757 0
M  V30 5555 H 545.745 4.12183 -0.5696 0
M  V30 5556 H 544.621 5.4803 -0.308984 0
M  V30 5557 H 544.882 4.31184 0.976347 0
M  V30 5558 N 543.941 0.601185 1.45683 0
M  V30 5559 C 544.888 -0.121396 2.30481 0
M  V30 5560 C 545.858 -0.866232 1.41724 0
M  V30 5561 O 547.043 -0.85324 1.70659 0
M  V30 5562 C 544.183 -1.11704 3.26521 0
M  V30 5563 C 543.296 -0.373741 4.3038 0
M  V30 5564 C 542.431 -1.35854 5.13534 0
M  V30 5565 C 541.47 -0.602689 6.09126 0
M  V30 5566 N 540.607 -1.53645 6.85082 0
M  V30 5567 H 545.447 0.607732 2.91737 0
M  V30 5568 H 542.984 0.311502 1.43764 0
M  V30 5569 H 544.942 -1.70735 3.80664 0
M  V30 5570 H 543.572 -1.81366 2.67032 0
M  V30 5571 H 542.624 0.331962 3.78949 0
M  V30 5572 H 543.936 0.2163 4.98331 0
M  V30 5573 H 543.09 -2.02111 5.72046 0
M  V30 5574 H 541.829 -1.98251 4.45587 0
M  V30 5575 H 540.834 0.0735482 5.49751 0
M  V30 5576 H 542.059 0.0161467 6.79098 0
M  V30 5577 H 540.005 -2.14819 6.1983 0
M  V30 5578 H 539.922 -0.999688 7.49361 0
M  V30 5579 H 541.19 -2.1888 7.48139 0
M  V30 5580 N 545.419 -1.53889 0.339982 0
M  V30 5581 C 546.665 -2.01152 -0.258003 0
M  V30 5582 C 546.998 -1.22749 -1.50487 0
M  V30 5583 O 546.273 -0.314156 -1.91946 0
M  V30 5584 C 546.556 -3.55468 -0.575717 0
M  V30 5585 C 546.409 -4.44584 0.682996 0
M  V30 5586 C 547.728 -4.1768 -1.38677 0
M  V30 5587 H 544.847 -0.731198 -0.0922992 0
M  V30 5588 H 547.489 -1.84352 0.459814 0
M  V30 5589 H 545.639 -3.69914 -1.18725 0
M  V30 5590 H 547.311 -4.41981 1.32102 0
M  V30 5591 H 545.554 -4.13592 1.3086 0
M  V30 5592 H 546.225 -5.5043 0.416001 0
M  V30 5593 H 548.701 -4.0691 -0.869705 0
M  V30 5594 H 547.577 -5.25734 -1.57783 0
M  V30 5595 H 547.838 -3.72069 -2.38782 0
M  V30 5596 N 546.897 -0.0685191 -1.57451 0
M  V30 5597 C 548.127 0.609577 -1.97402 0
M  V30 5598 C 548.535 1.63882 -0.945489 0
M  V30 5599 O 547.878 1.8354 0.0766052 0
M  V30 5600 C 547.94 1.3385 -3.33653 0
M  V30 5601 C 547.604 0.463103 -4.54648 0
M  V30 5602 C 548.601 -0.277964 -5.19156 0
M  V30 5603 C 546.286 0.388941 -5.00792 0
M  V30 5604 C 548.28 -1.08145 -6.28159 0
M  V30 5605 C 545.967 -0.418217 -6.09667 0
M  V30 5606 C 546.965 -1.15208 -6.73213 0
M  V30 5607 O 546.653 -1.94594 -7.79993 0
M  V30 5608 H 546.385 0.170197 -0.654224 0
M  V30 5609 H 548.939 -0.13647 -2.04946 0
M  V30 5610 H 547.169 2.13055 -3.22714 0
M  V30 5611 H 548.858 1.90851 -3.58233 0
M  V30 5612 H 549.624 -0.230241 -4.84453 0
M  V30 5613 H 545.503 0.949769 -4.5111 0
M  V30 5614 H 549.047 -1.65476 -6.7769 0
M  V30 5615 H 544.944 -0.467515 -6.43805 0
M  V30 5616 H 545.712 -1.8699 -7.96854 0
M  V30 5617 N 548.375 1.56261 0.205012 0
M  V30 5618 C 549.322 1.93754 1.25411 0
M  V30 5619 C 550.292 0.796826 1.45739 0
M  V30 5620 O 551.477 1.05414 1.59036 0
M  V30 5621 C 548.617 2.27383 2.59598 0
M  V30 5622 C 547.73 3.5447 2.46931 0
M  V30 5623 C 546.865 3.77468 3.73753 0
M  V30 5624 C 545.904 4.98014 3.55877 0
M  V30 5625 N 545.041 5.17316 4.74688 0
M  V30 5626 H 549.881 2.83203 0.92737 0
M  V30 5627 H 547.418 1.40158 0.446574 0
M  V30 5628 H 549.376 2.44895 3.37761 0
M  V30 5629 H 548.006 1.41088 2.90335 0
M  V30 5630 H 547.058 3.45061 1.60116 0
M  V30 5631 H 548.37 4.42789 2.29651 0
M  V30 5632 H 547.524 3.95165 4.60358 0
M  V30 5633 H 546.263 2.87461 3.93976 0
M  V30 5634 H 545.268 4.80249 2.67657 0
M  V30 5635 H 546.493 5.8952 3.37109 0
M  V30 5636 H 544.439 4.30255 4.95194 0
M  V30 5637 H 544.356 5.99796 4.60197 0
M  V30 5638 H 545.624 5.39463 5.62672 0
M  V30 5639 N 549.853 -0.472356 1.50355 0
M  V30 5640 C 551.078 -1.25251 1.65309 0
M  V30 5641 C 551.503 -1.85081 0.335643 0
M  V30 5642 O 550.861 -1.67227 -0.700335 0
M  V30 5643 C 550.909 -2.3379 2.74544 0
M  V30 5644 O 550.013 -3.38401 2.35709 0
M  V30 5645 H 549.354 -0.368539 0.552336 0
M  V30 5646 H 551.884 -0.562271 1.96722 0
M  V30 5647 H 551.894 -2.79121 2.97583 0
M  V30 5648 H 550.569 -1.89614 3.70161 0
M  V30 5649 H 549.146 -2.9879 2.23112 0
M  V30 5650 N 551.331 -1.39911 -0.725443 0
M  V30 5651 C 552.556 -1.41137 -1.5197 0
M  V30 5652 C 552.981 -0.010262 -1.88097 0
M  V30 5653 O 552.339 0.979184 -1.52583 0
M  V30 5654 C 552.387 -2.2994 -2.77777 0
M  V30 5655 O 551.491 -1.73586 -3.74088 0
M  V30 5656 H 550.832 -0.480219 -0.458569 0
M  V30 5657 H 553.362 -1.84023 -0.894249 0
M  V30 5658 H 553.372 -2.44785 -3.26411 0
M  V30 5659 H 552.047 -3.31759 -2.50816 0
M  V30 5660 H 550.624 -1.68035 -3.32894 0
M  V30 5661 N 552.809 0.956637 -1.25245 0
M  V30 5662 C 554.056 1.701 -1.09874 0
M  V30 5663 C 554.384 1.91128 0.36062 0
M  V30 5664 O 553.639 1.47837 1.28229 0
M  V30 5665 C 553.938 3.08996 -1.79601 0
M  V30 5666 C 553.604 3.07774 -3.29523 0
M  V30 5667 C 552.266 3.07149 -3.70423 0
M  V30 5668 C 554.618 3.01257 -4.25316 0
M  V30 5669 C 551.946 2.97752 -5.0553 0
M  V30 5670 C 554.298 2.93403 -5.60444 0
M  V30 5671 C 552.962 2.91111 -6.00675 0
M  V30 5672 H 552.232 0.62244 -0.402056 0
M  V30 5673 H 554.879 1.1178 -1.55491 0
M  V30 5674 H 553.184 3.70848 -1.26408 0
M  V30 5675 H 554.881 3.65407 -1.65162 0
M  V30 5676 H 551.471 3.09032 -2.9698 0
M  V30 5677 H 555.655 3.00861 -3.9471 0
M  V30 5678 H 550.911 2.94346 -5.35883 0
M  V30 5679 H 555.085 2.87321 -6.34366 0
M  V30 5680 H 552.712 2.83586 -7.05325 0
M  V30 5681 N 554.287 1.06798 1.15896 0
M  V30 5682 C 555.515 0.808694 1.90441 0
M  V30 5683 C 555.93 -0.637506 1.77711 0
M  V30 5684 O 555.287 -1.43684 1.12522 0
M  V30 5685 C 555.338 1.20068 3.40978 0
M  V30 5686 O 555.059 2.59013 3.53333 0
M  V30 5687 C 556.56 0.96987 4.3256 0
M  V30 5688 H 553.78 0.292809 0.603742 0
M  V30 5689 H 556.324 1.42296 1.46874 0
M  V30 5690 H 554.479 0.630842 3.82229 0
M  V30 5691 H 554.893 2.7485 4.46719 0
M  V30 5692 H 556.367 1.29371 5.36626 0
M  V30 5693 H 556.844 -0.0941209 4.39099 0
M  V30 5694 H 557.45 1.52433 3.97044 0
M  V30 5695 N 555.766 -1.3263 0.851289 0
M  V30 5696 C 556.729 -2.27247 0.298541 0
M  V30 5697 C 557.729 -1.51467 -0.539847 0
M  V30 5698 O 558.919 -1.7061 -0.351843 0
M  V30 5699 C 556.051 -3.35964 -0.578004 0
M  V30 5700 H 557.244 -2.7765 1.13359 0
M  V30 5701 H 554.797 -1.43245 0.625354 0
M  V30 5702 H 555.532 -2.90823 -1.435 0
M  V30 5703 H 555.317 -3.92094 0.0220539 0
M  V30 5704 H 556.807 -4.06472 -0.957626 0
M  V30 5705 N 557.244 -0.608902 -1.45362 0
M  V30 5706 C 558.177 0.158059 -2.27652 0
M  V30 5707 C 559.155 0.872397 -1.37215 0
M  V30 5708 O 560.339 0.881002 -1.66645 0
M  V30 5709 C 557.466 1.22896 -3.15617 0
M  V30 5710 C 556.512 0.617607 -4.22005 0
M  V30 5711 S 557.345 -0.575518 -5.32398 0
M  V30 5712 C 558.501 0.495938 -6.23932 0
M  V30 5713 H 558.734 -0.540095 -2.92353 0
M  V30 5714 H 556.267 -0.396456 -1.49223 0
M  V30 5715 H 558.225 1.84195 -3.66855 0
M  V30 5716 H 556.886 1.89919 -2.50179 0
M  V30 5717 H 556.079 1.42341 -4.83482 0
M  V30 5718 H 555.681 0.0797273 -3.73915 0
M  V30 5719 H 557.973 1.37465 -6.63408 0
M  V30 5720 H 558.916 -0.0827108 -7.08052 0
M  V30 5721 H 559.324 0.811856 -5.58631 0
M  V30 5722 N 558.722 1.53707 -0.348139 0
M  V30 5723 C 559.952 2.05108 0.247864 0
M  V30 5724 C 560.36 1.22252 1.44399 0
M  V30 5725 O 559.703 0.251853 1.81965 0
M  V30 5726 C 559.765 3.52171 0.722187 0
M  V30 5727 C 559.429 4.5562 -0.354902 0
M  V30 5728 C 560.426 5.05883 -1.19911 0
M  V30 5729 C 558.111 4.99703 -0.510145 0
M  V30 5730 C 560.105 5.98814 -2.18406 0
M  V30 5731 C 557.792 5.92443 -1.49848 0
M  V30 5732 C 558.79 6.41887 -2.33389 0
M  V30 5733 O 558.478 7.32802 -3.3054 0
M  V30 5734 H 558.21 0.674086 0.0508296 0
M  V30 5735 H 560.764 1.99229 -0.49968 0
M  V30 5736 H 558.994 3.55529 1.52105 0
M  V30 5737 H 560.683 3.8652 1.23925 0
M  V30 5738 H 561.449 4.72586 -1.09028 0
M  V30 5739 H 557.328 4.60816 0.130274 0
M  V30 5740 H 560.872 6.3733 -2.83649 0
M  V30 5741 H 556.769 6.25155 -1.60786 0
M  V30 5742 H 557.537 7.50749 -3.26064 0
M  V30 5743 N 560.2 0.0768682 1.57412 0
M  V30 5744 C 561.428 -0.59997 1.9801 0
M  V30 5745 C 561.843 -1.62842 0.955408 0
M  V30 5746 O 561.2 -1.8241 -0.057314 0
M  V30 5747 C 561.251 -1.26401 3.38681 0
M  V30 5748 O 560.972 -0.276723 4.37225 0
M  V30 5749 C 562.473 -2.0282 3.94182 0
M  V30 5750 H 559.693 -0.162239 0.651091 0
M  V30 5751 H 562.237 0.150771 2.03943 0
M  V30 5752 H 560.392 -1.96581 3.33819 0
M  V30 5753 H 560.806 -0.753744 5.19056 0
M  V30 5754 H 562.28 -2.44667 4.94815 0
M  V30 5755 H 562.757 -2.88678 3.31001 0
M  V30 5756 H 563.363 -1.37496 4.02461 0
M  V30 5757 N 561.678 -1.56367 -0.196722 0
M  V30 5758 C 562.641 -1.93561 -1.22746 0
M  V30 5759 C 563.641 -0.816566 -1.38524 0
M  V30 5760 O 564.831 -1.084 -1.36363 0
M  V30 5761 C 561.963 -2.20823 -2.59712 0
M  V30 5762 H 563.156 -2.85774 -0.909586 0
M  V30 5763 H 560.709 -1.50032 -0.438174 0
M  V30 5764 H 561.444 -1.31243 -2.96557 0
M  V30 5765 H 561.229 -3.02368 -2.49632 0
M  V30 5766 H 562.719 -2.50608 -3.34044 0
M  V30 5767 N 563.156 0.464375 -1.50603 0
M  V30 5768 C 564.402 1.21776 -1.62168 0
M  V30 5769 C 564.735 1.91476 -0.324154 0
M  V30 5770 O 564.01 1.8242 0.674782 0
M  V30 5771 C 564.293 2.25614 -2.80661 0
M  V30 5772 C 564.146 1.60175 -4.20314 0
M  V30 5773 C 565.465 3.26862 -2.94702 0
M  V30 5774 H 562.584 0.44137 -0.590222 0
M  V30 5775 H 565.226 0.510623 -1.8301 0
M  V30 5776 H 563.376 2.85923 -2.63021 0
M  V30 5777 H 565.048 1.03411 -4.4956 0
M  V30 5778 H 563.291 0.904697 -4.24261 0
M  V30 5779 H 563.962 2.35665 -4.99165 0
M  V30 5780 H 566.438 2.76582 -3.10872 0
M  V30 5781 H 565.314 3.96839 -3.79223 0
M  V30 5782 H 565.575 3.91382 -2.05603 0
M  V30 5783 N 564.634 1.40294 0.718013 0
M  V30 5784 C 565.862 1.4175 1.50714 0
M  V30 5785 C 566.277 0.0165366 1.88793 0
M  V30 5786 O 565.634 -0.958942 1.55276 0
M  V30 5787 C 565.685 2.30598 2.784 0
M  V30 5788 O 565.406 3.6524 2.41932 0
M  V30 5789 C 566.907 2.4062 3.72313 0
M  V30 5790 H 564.127 0.483565 0.465194 0
M  V30 5791 H 566.671 1.84316 0.885889 0
M  V30 5792 H 564.826 1.91401 3.36815 0
M  V30 5793 H 565.24 4.12402 3.24076 0
M  V30 5794 H 566.714 3.07001 4.58753 0
M  V30 5795 H 567.191 1.4305 4.15251 0
M  V30 5796 H 567.797 2.80359 3.19811 0
M  V30 5797 N 566.112 -0.949982 1.2575 0
M  V30 5798 C 567.34 -1.72972 1.13527 0
M  V30 5799 C 567.755 -1.8623 -0.310453 0
M  V30 5800 O 567.112 -1.36336 -1.2132 0
M  V30 5801 C 567.163 -3.14108 1.78936 0
M  V30 5802 O 566.884 -3.01493 3.17858 0
M  V30 5803 C 568.385 -4.08338 1.72554 0
M  V30 5804 H 565.605 -0.541864 0.395758 0
M  V30 5805 H 568.149 -1.19151 1.66202 0
M  V30 5806 H 566.304 -3.64858 1.30221 0
M  V30 5807 H 566.718 -3.90559 3.50092 0
M  V30 5808 H 568.192 -5.04963 2.22973 0
M  V30 5809 H 568.669 -4.33742 0.690251 0
M  V30 5810 H 569.275 -3.63506 2.2078 0
M  V30 5811 N 567.59 -1.07411 -1.15328 0
M  V30 5812 C 568.54 -0.664788 -2.18093 0
M  V30 5813 C 569.524 0.310395 -1.57878 0
M  V30 5814 O 570.716 0.124026 -1.76565 0
M  V30 5815 C 567.845 -0.0647822 -3.43239 0
M  V30 5816 C 566.931 -1.06514 -4.10506 0
M  V30 5817 N 567.322 -2.24491 -4.53252 0
M  V30 5818 C 565.62 -0.898613 -4.36853 0
M  V30 5819 C 566.321 -2.8796 -5.05424 0
M  V30 5820 N 565.297 -2.15622 -4.99007 0
M  V30 5821 H 569.099 -1.56333 -2.48872 0
M  V30 5822 H 566.613 -0.947393 -1.31902 0
M  V30 5823 H 568.61 0.246363 -4.16171 0
M  V30 5824 H 567.27 0.828866 -3.13943 0
M  V30 5825 H 568.281 -2.62205 -4.46619 0
M  V30 5826 H 564.958 -0.0579118 -4.1746 0
M  V30 5827 H 566.348 -3.88137 -5.48452 0
M  V30 5828 N 569.068 1.32177 -0.85831 0
M  V30 5829 C 570.484 1.49873 -0.548656 0
M  V30 5830 C 570.684 1.79278 0.919874 0
M  V30 5831 O 569.74 1.86451 1.70271 0
M  V30 5832 C 571.053 2.64043 -1.4388 0
M  V30 5833 C 572.601 2.77928 -1.43961 0
M  V30 5834 C 573.076 3.95182 -2.31506 0
M  V30 5835 N 574.567 4.0245 -2.29321 0
M  V30 5836 C 575.302 4.9242 -2.93786 0
M  V30 5837 N 574.798 5.87373 -3.67376 0
M  V30 5838 N 576.591 4.85572 -2.83155 0
M  V30 5839 H 568.742 1.11357 -1.80868 0
M  V30 5840 H 571.005 0.549175 -0.772729 0
M  V30 5841 H 570.711 2.49055 -2.48324 0
M  V30 5842 H 570.585 3.59912 -1.12885 0
M  V30 5843 H 572.972 2.92338 -0.402813 0
M  V30 5844 H 573.053 1.82762 -1.78974 0
M  V30 5845 H 572.697 3.81531 -3.35256 0
M  V30 5846 H 572.627 4.89633 -1.93823 0
M  V30 5847 H 575.118 3.34507 -1.75822 0
M  V30 5848 H 575.431 6.52728 -4.13722 0
M  V30 5849 H 573.776 5.87388 -3.71484 0
M  V30 5850 H 576.967 4.10363 -2.25211 0
M  V30 5851 H 577.14 5.55486 -3.33676 0
M  V30 5852 N 570.547 0.616602 1.45037 0
M  V30 5853 C 571.479 -0.135186 2.28801 0
M  V30 5854 C 572.492 -0.82303 1.40464 0
M  V30 5855 O 573.681 -0.686909 1.64754 0
M  V30 5856 C 570.781 -1.21292 3.16451 0
M  V30 5857 C 569.954 -0.61043 4.3312 0
M  V30 5858 C 569.013 -1.58022 5.01912 0
M  V30 5859 O 568.039 -1.10301 5.58411 0
M  V30 5860 N 569.241 -2.91464 5.02025 0
M  V30 5861 H 572.006 0.583612 2.93963 0
M  V30 5862 H 569.567 0.456723 1.55324 0
M  V30 5863 H 571.559 -1.86169 3.59337 0
M  V30 5864 H 570.129 -1.83412 2.53138 0
M  V30 5865 H 569.349 0.216638 3.93604 0
M  V30 5866 H 570.637 -0.188293 5.08451 0
M  V30 5867 H 570.035 -3.32829 4.57429 0
M  V30 5868 H 568.592 -3.51741 5.48745 0
M  V30 5869 N 572.025 -1.5352 0.356285 0
M  V30 5870 C 573.436 -1.86282 -0.12492 0
M  V30 5871 C 573.787 -1.27717 -1.48939 0
M  V30 5872 O 572.912 -0.595614 -2.08042 0
M  V30 5873 C 573.507 -3.37995 -0.23345 0
M  V30 5874 C 572.066 -3.70588 -0.658899 0
M  V30 5875 C 571.213 -2.76581 0.199596 0
M  V30 5876 H 574.164 -1.47901 0.575423 0
M  V30 5877 H 574.185 -3.65475 -1.0587 0
M  V30 5878 H 573.697 -3.8059 0.759776 0
M  V30 5879 H 571.798 -3.33544 -1.66069 0
M  V30 5880 H 571.911 -4.77076 -0.439957 0
M  V30 5881 H 570.275 -2.52552 -0.330076 0
M  V30 5882 H 571.058 -3.22008 1.19019 0
M  V30 5883 N 573.503 -0.0852151 -1.57369 0
M  V30 5884 C 574.743 0.584297 -1.95871 0
M  V30 5885 C 575.107 1.6596 -0.965473 0
M  V30 5886 O 576.308 2.38561 -1.23862 0
M  V30 5887 C 574.579 1.13411 -3.38929 0
M  V30 5888 S 576.138 1.81687 -3.99419 0
M  V30 5889 H 572.956 0.19095 -0.684879 0
M  V30 5890 H 575.558 -0.162267 -1.94825 0
M  V30 5891 H 574.262 0.339845 -4.0899 0
M  V30 5892 H 573.793 1.91672 -3.43548 0
M  V30 5893 H 575.808 3.10037 -3.87417 0
M  V30 5894 N 574.981 1.5647 0.188427 0
M  V30 5895 C 576.397 1.50204 0.539532 0
M  V30 5896 C 576.597 0.78644 1.85519 0
M  V30 5897 O 575.653 0.339714 2.50204 0
M  V30 5898 C 576.966 2.94893 0.588103 0
M  V30 5899 C 578.514 3.05602 0.67648 0
M  V30 5900 C 578.989 4.51716 0.756101 0
M  V30 5901 N 580.48 4.55894 0.819451 0
M  V30 5902 C 581.215 5.66272 0.90134 0
M  V30 5903 N 580.711 6.86323 0.945118 0
M  V30 5904 N 582.504 5.54201 0.939043 0
M  V30 5905 H 574.655 2.01406 -0.674493 0
M  V30 5906 H 576.918 0.916828 -0.241103 0
M  V30 5907 H 576.624 3.50334 -0.309633 0
M  V30 5908 H 576.498 3.4861 1.44051 0
M  V30 5909 H 578.885 2.50206 1.56465 0
M  V30 5910 H 578.966 2.54999 -0.202262 0
M  V30 5911 H 578.61 5.07739 -0.12774 0
M  V30 5912 H 578.54 5.00058 1.65074 0
M  V30 5913 H 581.031 3.69452 0.794594 0
M  V30 5914 H 581.344 7.66194 1.0083 0
M  V30 5915 H 579.689 6.88968 0.913683 0
M  V30 5916 H 582.88 4.59333 0.901725 0
M  V30 5917 H 583.053 6.40247 0.999402 0
M  V30 5918 N 576.459 -0.456382 1.50847 0
M  V30 5919 C 577.392 -1.57177 1.65441 0
M  V30 5920 C 578.37 -1.54649 0.502224 0
M  V30 5921 O 579.554 -1.74057 0.723633 0
M  V30 5922 C 576.681 -2.95763 1.65052 0
M  V30 5923 C 575.727 -3.16389 2.86007 0
M  V30 5924 S 576.56 -2.94716 4.47105 0
M  V30 5925 C 577.716 -4.35617 4.49432 0
M  V30 5926 H 577.949 -1.44561 2.59787 0
M  V30 5927 H 575.482 -0.644758 1.40293 0
M  V30 5928 H 577.44 -3.75654 1.65512 0
M  V30 5929 H 576.101 -3.05756 0.719153 0
M  V30 5930 H 575.294 -4.17667 2.82081 0
M  V30 5931 H 574.896 -2.44293 2.8319 0
M  V30 5932 H 577.188 -5.28503 4.239 0
M  V30 5933 H 578.131 -4.44582 5.51137 0
M  V30 5934 H 578.539 -4.18382 3.78967 0
M  V30 5935 N 577.937 -1.40673 -0.710563 0
M  V30 5936 C 578.884 -1.41336 -1.82463 0
M  V30 5937 C 579.854 -0.269648 -1.63897 0
M  V30 5938 O 581.039 -0.468463 -1.8496 0
M  V30 5939 C 578.179 -1.28665 -3.20218 0
M  V30 5940 C 577.292 -2.52784 -3.5032 0
M  V30 5941 C 576.427 -2.32517 -4.77608 0
M  V30 5942 C 575.466 -3.52187 -5.0063 0
M  V30 5943 N 574.603 -3.31084 -6.19135 0
M  V30 5944 H 579.443 -2.36558 -1.8123 0
M  V30 5945 H 576.98 -1.17483 -0.885226 0
M  V30 5946 H 578.938 -1.19324 -3.99772 0
M  V30 5947 H 577.568 -0.370602 -3.20666 0
M  V30 5948 H 576.62 -2.72634 -2.65283 0
M  V30 5949 H 577.932 -3.41845 -3.63241 0
M  V30 5950 H 577.086 -2.20558 -5.65189 0
M  V30 5951 H 575.825 -1.40889 -4.66906 0
M  V30 5952 H 574.83 -3.64617 -4.11502 0
M  V30 5953 H 576.055 -4.44749 -5.13201 0
M  V30 5954 H 574.001 -2.42143 -6.09674 0
M  V30 5955 H 573.918 -4.13713 -6.32754 0
M  V30 5956 H 575.186 -3.22868 -7.0949 0
M  V30 5957 N 579.415 0.9433 -1.26252 0
M  V30 5958 C 580.345 2.05902 -1.10122 0
M  V30 5959 C 581.326 1.70099 -0.00700552 0
M  V30 5960 O 582.511 1.93377 -0.178641 0
M  V30 5961 C 579.641 3.39516 -0.731175 0
M  V30 5962 C 578.595 3.89372 -1.77688 0
M  V30 5963 C 577.921 5.19613 -1.26122 0
M  V30 5964 C 579.221 4.14489 -3.17799 0
M  V30 5965 H 580.915 2.19655 -2.03451 0
M  V30 5966 H 578.461 1.05548 -0.979576 0
M  V30 5967 H 580.414 4.17031 -0.605215 0
M  V30 5968 H 579.138 3.25733 0.23782 0
M  V30 5969 H 577.797 3.14036 -1.89148 0
M  V30 5970 H 577.445 5.02208 -0.282128 0
M  V30 5971 H 577.145 5.53939 -1.96023 0
M  V30 5972 H 578.669 5.99713 -1.14789 0
M  V30 5973 H 580.083 4.82625 -3.09428 0
M  V30 5974 H 578.48 4.60094 -3.85271 0
M  V30 5975 H 579.55 3.20347 -3.64014 0
M  V30 5976 N 580.893 1.08022 1.14757 0
M  V30 5977 C 582.139 0.808705 1.85978 0
M  V30 5978 C 582.472 -0.663764 1.82504 0
M  V30 5979 O 581.747 -1.48765 1.25296 0
M  V30 5980 C 582.03 1.32623 3.34788 0
M  V30 5981 C 581.883 2.86375 3.46856 0
M  V30 5982 C 583.202 0.948291 4.29762 0
M  V30 5983 H 580.321 0.295244 0.675278 0
M  V30 5984 H 582.963 1.33917 1.34783 0
M  V30 5985 H 581.113 0.875002 3.78518 0
M  V30 5986 H 582.785 3.39839 3.11941 0
M  V30 5987 H 581.028 3.24232 2.88194 0
M  V30 5988 H 581.699 3.17658 4.51439 0
M  V30 5989 H 584.175 1.33722 3.94028 0
M  V30 5990 H 583.051 1.33765 5.32352 0
M  V30 5991 H 583.312 -0.145094 4.41862 0
M  V30 5992 N 582.371 -1.3172 0.865308 0
M  V30 5993 C 583.611 -1.98675 0.480365 0
M  V30 5994 C 583.975 -1.66929 -0.948621 0
M  V30 5995 O 585.176 -2.27059 -1.43867 0
M  V30 5996 C 583.447 -3.49972 0.724858 0
M  V30 5997 S 585.006 -4.36598 0.439078 0
M  V30 5998 H 581.824 -0.687967 0.179506 0
M  V30 5999 H 584.426 -1.60215 1.12033 0
M  V30 6000 H 583.13 -3.70567 1.76375 0
M  V30 6001 H 582.661 -3.93335 0.0717173 0
M  V30 6002 H 584.676 -4.90792 -0.730564 0
M  V30 6003 N 583.85 -0.624285 -1.44708 0
M  V30 6004 C 585.096 -0.126237 -2.02407 0
M  V30 6005 C 585.428 1.24618 -1.48943 0
M  V30 6006 O 584.704 1.82569 -0.670742 0
M  V30 6007 C 584.986 -0.105449 -3.59946 0
M  V30 6008 C 584.84 -1.50972 -4.23707 0
M  V30 6009 C 586.159 0.573629 -4.36346 0
M  V30 6010 H 583.278 -0.0473472 -0.735478 0
M  V30 6011 H 585.92 -0.799452 -1.72362 0
M  V30 6012 H 584.07 0.46783 -3.85673 0
M  V30 6013 H 585.742 -2.13136 -4.0911 0
M  V30 6014 H 583.985 -2.0656 -3.81465 0
M  V30 6015 H 584.656 -1.44727 -5.32689 0
M  V30 6016 H 587.132 0.0861787 -4.16011 0
M  V30 6017 H 586.008 0.557338 -5.46063 0
M  V30 6018 H 586.269 1.64276 -4.10446 0
M  V30 6019 N 585.328 1.53329 -0.364422 0
M  V30 6020 C 586.576 2.00842 0.225189 0
M  V30 6021 C 586.897 1.25345 1.49378 0
M  V30 6022 O 586.167 0.366396 1.92443 0
M  V30 6023 H 584.747 0.742009 0.0862027 0
M  V30 6024 H 587.409 1.8863 -0.490389 0
M  V30 6025 H 586.505 3.08795 0.452987 0
M  V30 6026 N 586.806 0.0935595 1.57322 0
M  V30 6027 C 588.031 -0.582324 1.99057 0
M  V30 6028 C 588.456 -1.61025 0.972242 0
M  V30 6029 O 587.814 -1.81202 -0.0594622 0
M  V30 6030 C 587.862 -1.20799 3.39765 0
M  V30 6031 O 586.966 -2.32382 3.40694 0
M  V30 6032 H 586.307 -0.147884 0.647323 0
M  V30 6033 H 588.837 0.174516 2.03854 0
M  V30 6034 H 588.847 -1.54966 3.77425 0
M  V30 6035 H 587.522 -0.454914 4.13405 0
M  V30 6036 H 586.099 -1.99845 3.14827 0
M  V30 6037 N 588.284 -1.56567 -0.180126 0
M  V30 6038 C 589.194 -1.98947 -1.24327 0
M  V30 6039 C 590.21 -0.899446 -1.4895 0
M  V30 6040 O 591.386 -1.20639 -1.61271 0
M  V30 6041 C 588.451 -2.33328 -2.56435 0
M  V30 6042 C 587.512 -3.56114 -2.39752 0
M  V30 6043 C 586.745 -3.88845 -3.65561 0
M  V30 6044 O 586.968 -3.22662 -4.70368 0
M  V30 6045 O 585.902 -4.82226 -3.60197 0
M  V30 6046 H 589.728 -2.89634 -0.913565 0
M  V30 6047 H 587.313 -1.44319 -0.386306 0
M  V30 6048 H 589.195 -2.5645 -3.34382 0
M  V30 6049 H 587.87 -1.45806 -2.89002 0
M  V30 6050 H 586.777 -3.38221 -1.59866 0
M  V30 6051 H 588.11 -4.4415 -2.12113 0
M  V30 6052 N 589.762 0.448376 -1.51087 0
M  V30 6053 C 590.672 1.56882 -1.74428 0
M  V30 6054 C 591.688 1.62268 -0.62809 0
M  V30 6055 O 592.864 1.79716 -0.909075 0
M  V30 6056 C 589.929 2.92947 -1.85426 0
M  V30 6057 C 588.99 2.97766 -3.09247 0
M  V30 6058 C 588.223 4.27341 -3.19711 0
M  V30 6059 O 588.446 5.19112 -2.36387 0
M  V30 6060 O 587.38 4.38219 -4.12611 0
M  V30 6061 H 591.206 1.40104 -2.69452 0
M  V30 6062 H 588.791 0.630247 -1.35456 0
M  V30 6063 H 590.673 3.73719 -1.94709 0
M  V30 6064 H 589.348 3.09876 -0.935887 0
M  V30 6065 H 588.255 2.15989 -3.0545 0
M  V30 6066 H 589.588 2.8578 -4.00738 0
M  V30 6067 N 591.24 1.41047 0.703093 0
M  V30 6068 C 592.187 1.42302 1.81711 0
M  V30 6069 C 593.157 0.278336 1.63751 0
M  V30 6070 O 594.342 0.478266 1.84709 0
M  V30 6071 C 591.482 1.30362 3.19531 0
M  V30 6072 C 590.595 2.54638 3.48975 0
M  V30 6073 C 589.73 2.35047 4.76368 0
M  V30 6074 C 588.769 3.54837 4.98756 0
M  V30 6075 N 587.906 3.34363 6.1737 0
M  V30 6076 H 592.746 2.37516 1.79973 0
M  V30 6077 H 590.283 1.1795 0.878983 0
M  V30 6078 H 592.241 1.21443 3.99134 0
M  V30 6079 H 590.871 0.387602 3.20464 0
M  V30 6080 H 589.923 2.74037 2.63833 0
M  V30 6081 H 591.235 3.43766 3.61423 0
M  V30 6082 H 590.389 2.23552 5.64012 0
M  V30 6083 H 589.128 1.43363 4.66153 0
M  V30 6084 H 588.133 3.66795 4.09563 0
M  V30 6085 H 589.358 4.47464 5.10835 0
M  V30 6086 H 587.304 2.45373 6.08382 0
M  V30 6087 H 587.221 4.17063 6.30551 0
M  V30 6088 H 588.489 3.26626 7.07768 0
M  V30 6089 N 592.718 -0.936591 1.26751 0
M  V30 6090 C 593.967 -1.67778 1.11953 0
M  V30 6091 C 594.28 -1.92694 -0.33589 0
M  V30 6092 O 595.486 -2.64682 -0.604618 0
M  V30 6093 C 593.942 -3.02138 1.95551 0
M  V30 6094 C 593.55 -2.84953 3.45696 0
M  V30 6095 C 595.294 -3.79917 1.89377 0
M  V30 6096 C 593.201 -4.14814 4.21525 0
M  V30 6097 H 592.131 -0.629275 0.415366 0
M  V30 6098 H 594.782 -1.04122 1.51099 0
M  V30 6099 H 593.164 -3.668 1.49243 0
M  V30 6100 H 594.338 -2.29112 3.99805 0
M  V30 6101 H 592.653 -2.20612 3.53156 0
M  V30 6102 H 595.25 -4.76134 2.43312 0
M  V30 6103 H 595.593 -4.07204 0.865464 0
M  V30 6104 H 596.126 -3.22037 2.33532 0
M  V30 6105 H 592.865 -3.92709 5.24843 0
M  V30 6106 H 592.385 -4.70352 3.72195 0
M  V30 6107 H 594.064 -4.83239 4.3022 0
M  V30 6108 N 594.196 -1.08629 -1.14182 0
M  V30 6109 C 595.442 -0.818556 -1.85546 0
M  V30 6110 C 595.775 0.654076 -1.82854 0
M  V30 6111 O 595.05 1.48099 -1.26083 0
M  V30 6112 C 595.333 -1.34397 -3.3408 0
M  V30 6113 C 595.186 -2.8821 -3.45333 0
M  V30 6114 C 596.505 -0.971069 -4.29253 0
M  V30 6115 H 593.624 -0.298821 -0.673702 0
M  V30 6116 H 596.266 -1.34629 -1.34071 0
M  V30 6117 H 594.416 -0.895064 -3.78049 0
M  V30 6118 H 596.088 -3.41488 -3.10134 0
M  V30 6119 H 594.331 -3.25756 -2.86471 0
M  V30 6120 H 595.002 -3.20047 -4.49749 0
M  V30 6121 H 597.478 -1.35809 -3.93313 0
M  V30 6122 H 596.354 -1.36586 -5.31635 0
M  V30 6123 H 596.615 0.121659 -4.41933 0
M  V30 6124 N 595.674 1.31259 -0.872281 0
M  V30 6125 C 596.922 1.96233 -0.483409 0
M  V30 6126 C 597.243 1.69276 0.968012 0
M  V30 6127 O 596.513 1.00943 1.67891 0
M  V30 6128 H 595.093 0.726025 -0.175774 0
M  V30 6129 H 597.755 1.60024 -1.11258 0
M  V30 6130 H 596.851 3.05403 -0.643075 0
M  V30 6131 N 597.152 0.631951 1.44375 0
M  V30 6132 C 598.401 0.134214 2.01253 0
M  V30 6133 C 598.714 -1.25171 1.50305 0
M  V30 6134 O 599.92 -1.8435 1.99317 0
M  V30 6135 C 598.376 0.189187 3.59402 0
M  V30 6136 C 597.984 1.57647 4.19346 0
M  V30 6137 C 599.728 -0.252044 4.23751 0
M  V30 6138 C 597.635 1.58651 5.69722 0
M  V30 6139 H 596.565 0.0464101 0.75257 0
M  V30 6140 H 599.216 0.790868 1.65582 0
M  V30 6141 H 597.598 -0.534584 3.92375 0
M  V30 6142 H 598.772 2.32389 3.97909 0
M  V30 6143 H 597.087 1.96186 3.67288 0
M  V30 6144 H 599.684 -0.264084 5.34047 0
M  V30 6145 H 600.027 -1.27951 3.96149 0
M  V30 6146 H 600.56 0.41926 3.95584 0
M  V30 6147 H 597.299 2.59237 6.0206 0
M  V30 6148 H 596.819 0.882039 5.93279 0
M  V30 6149 H 598.498 1.32082 6.33375 0
M  V30 6150 N 598.631 -1.53133 0.372548 0
M  V30 6151 C 599.581 -2.22733 -0.487218 0
M  V30 6152 C 600.565 -1.22506 -1.04312 0
M  V30 6153 O 601.757 -1.47923 -0.972005 0
M  V30 6154 C 598.886 -3.02524 -1.62278 0
M  V30 6155 C 597.972 -4.10133 -1.07943 0
M  V30 6156 N 598.363 -5.05133 -0.259629 0
M  V30 6157 C 596.661 -4.24964 -1.35356 0
M  V30 6158 C 597.362 -5.81687 0.0386656 0
M  V30 6159 N 596.338 -5.40699 -0.560827 0
M  V30 6160 H 600.14 -2.93538 0.145853 0
M  V30 6161 H 597.654 -1.61389 0.180938 0
M  V30 6162 H 599.651 -3.50909 -2.25096 0
M  V30 6163 H 598.311 -2.33252 -2.25884 0
M  V30 6164 H 599.322 -5.178 0.101746 0
M  V30 6165 H 595.999 -3.66919 -1.9919 0
M  V30 6166 H 597.389 -6.68224 0.701841 0
M  V30 6167 N 600.109 -0.101901 -1.5727 0
M  V30 6168 C 601.357 0.559091 -1.94213 0
M  V30 6169 C 601.678 1.68297 -0.984948 0
M  V30 6170 O 600.948 1.95863 -0.0381975 0
M  V30 6171 H 599.528 0.20952 -0.717015 0
M  V30 6172 H 602.19 -0.166831 -1.94185 0
M  V30 6173 H 601.286 0.96485 -2.96811 0
M  V30 6174 N 601.587 1.56661 0.17182 0
M  V30 6175 C 602.836 1.81158 0.886831 0
M  V30 6176 C 603.149 0.679072 1.83434 0
M  V30 6177 O 604.355 0.808964 2.59168 0
M  V30 6178 C 602.811 3.20999 1.6275 0
M  V30 6179 C 602.419 4.42117 0.723652 0
M  V30 6180 C 604.163 3.5479 2.33076 0
M  V30 6181 C 602.07 5.7298 1.46452 0
M  V30 6182 H 601 0.675543 0.334899 0
M  V30 6183 H 603.651 1.82967 0.139765 0
M  V30 6184 H 602.033 3.13506 2.4193 0
M  V30 6185 H 603.207 4.60789 -0.0311485 0
M  V30 6186 H 601.522 4.16197 0.130063 0
M  V30 6187 H 604.119 4.49806 2.89099 0
M  V30 6188 H 604.462 2.79646 3.08389 0
M  V30 6189 H 604.995 3.63834 1.6084 0
M  V30 6190 H 601.734 6.51152 0.753729 0
M  V30 6191 H 601.254 5.58285 2.19266 0
M  V30 6192 H 602.933 6.14916 2.01214 0
M  V30 6193 N 603.065 -0.440357 1.51323 0
M  V30 6194 C 604.313 -1.18769 1.63518 0
M  V30 6195 C 604.634 -1.91793 0.352201 0
M  V30 6196 O 603.904 -1.85432 -0.631811 0
M  V30 6197 H 602.484 -0.441408 0.602634 0
M  V30 6198 H 605.146 -0.505162 1.8824 0
M  V30 6199 H 604.242 -1.91892 2.46138 0
M  V30 6200 N 604.543 -1.41418 -0.695603 0
M  V30 6201 C 605.79 -1.40774 -1.45564 0
M  V30 6202 C 606.118 -0.0168604 -1.94493 0
M  V30 6203 O 605.373 0.971259 -1.69897 0
M  V30 6204 C 605.672 -2.36112 -2.68302 0
M  V30 6205 C 605.338 -3.82952 -2.38031 0
M  V30 6206 C 604 -4.22954 -2.29486 0
M  V30 6207 C 606.352 -4.75662 -2.13061 0
M  V30 6208 C 603.68 -5.53674 -1.94067 0
M  V30 6209 C 606.032 -6.06702 -1.79151 0
M  V30 6210 C 604.696 -6.45725 -1.69102 0
M  V30 6211 H 603.966 -0.515128 -0.532658 0
M  V30 6212 H 606.613 -1.74216 -0.795047 0
M  V30 6213 H 604.918 -1.95924 -3.39295 0
M  V30 6214 H 606.615 -2.32887 -3.26442 0
M  V30 6215 H 603.205 -3.5127 -2.45576 0
M  V30 6216 H 607.389 -4.45561 -2.18608 0
M  V30 6217 H 602.645 -5.8279 -1.8484 0
M  V30 6218 H 606.819 -6.78041 -1.5885 0
M  V30 6219 H 604.446 -7.46929 -1.41426 0
M  V30 6220 N 606.021 0.929856 -1.27246 0
M  V30 6221 C 607.269 1.674 -1.13233 0
M  V30 6222 C 607.59 1.92311 0.322744 0
M  V30 6223 O 606.86 1.52784 1.22612 0
M  V30 6224 H 605.44 0.620411 -0.416052 0
M  V30 6225 H 608.102 1.11663 -1.59741 0
M  V30 6226 H 607.198 2.64308 -1.65975 0
M  V30 6227 N 607.499 1.09233 1.13605 0
M  V30 6228 C 608.432 0.6739 2.18023 0
M  V30 6229 C 609.41 -0.318603 1.59448 0
M  V30 6230 O 610.594 -0.220452 1.87206 0
M  V30 6231 C 607.721 -0.00751458 3.38699 0
M  V30 6232 C 606.767 0.946481 4.15865 0
M  V30 6233 S 607.6 2.45753 4.75779 0
M  V30 6234 C 608.756 1.78846 5.99804 0
M  V30 6235 H 608.989 1.55846 2.53178 0
M  V30 6236 H 606.522 0.908118 1.2487 0
M  V30 6237 H 608.48 -0.394368 4.08601 0
M  V30 6238 H 607.141 -0.868693 3.01849 0
M  V30 6239 H 606.334 0.416742 5.02274 0
M  V30 6240 H 605.936 1.27464 3.51609 0
M  V30 6241 H 608.228 1.11135 6.68323 0
M  V30 6242 H 609.171 2.63163 6.57382 0
M  V30 6243 H 609.579 1.25823 5.50299 0
M  V30 6244 N 608.977 -1.30795 0.87923 0
M  V30 6245 C 610.254 -1.91145 0.415086 0
M  V30 6246 C 610.634 -1.7995 -1.10368 0
M  V30 6247 O 609.982 -1.21305 -1.93642 0
M  V30 6248 C 610.192 -3.37014 0.906778 0
M  V30 6249 C 611.54 -4.14101 0.938358 0
M  V30 6250 O 612.564 -3.45834 0.853053 0
M  V30 6251 O 611.423 -5.36054 1.06342 0
M  V30 6252 H 608.517 -0.81736 0.125905 0
M  V30 6253 H 611.063 -1.39401 0.967753 0
M  V30 6254 H 609.835 -3.3922 1.95053 0
M  V30 6255 H 609.458 -3.96204 0.332948 0
M  V30 6256 N 610.455 -0.639598 -1.44038 0
M  V30 6257 C 611.365 0.0612377 -2.3452 0
M  V30 6258 C 612.381 0.826717 -1.53106 0
M  V30 6259 O 613.557 0.777059 -1.85806 0
M  V30 6260 C 610.622 1.02492 -3.31204 0
M  V30 6261 C 609.683 0.25788 -4.28525 0
M  V30 6262 C 608.916 1.17566 -5.2059 0
M  V30 6263 O 609.139 2.41461 -5.16771 0
M  V30 6264 O 608.073 0.655407 -5.98321 0
M  V30 6265 H 611.899 -0.68318 -2.95916 0
M  V30 6266 H 609.484 -0.399784 -1.43952 0
M  V30 6267 H 611.366 1.57911 -3.90694 0
M  V30 6268 H 610.041 1.7498 -2.7233 0
M  V30 6269 H 608.948 -0.339566 -3.72556 0
M  V30 6270 H 610.281 -0.427154 -4.90343 0
M  V30 6271 N 611.933 1.52934 -0.380664 0
M  V30 6272 C 612.866 2.22597 0.502564 0
M  V30 6273 C 613.844 1.22345 1.071 0
M  V30 6274 O 615.028 1.51302 1.12428 0
M  V30 6275 C 612.155 2.93246 1.69482 0
M  V30 6276 C 611.201 4.07696 1.25244 0
M  V30 6277 S 612.034 5.34957 0.241159 0
M  V30 6278 C 613.19 6.09124 1.4394 0
M  V30 6279 H 613.423 2.97167 -0.089029 0
M  V30 6280 H 610.956 1.53518 -0.164817 0
M  V30 6281 H 612.914 3.34562 2.37863 0
M  V30 6282 H 611.575 2.18373 2.2577 0
M  V30 6283 H 610.768 4.56199 2.1424 0
M  V30 6284 H 610.37 3.68349 0.647664 0
M  V30 6285 H 612.662 6.34771 2.36794 0
M  V30 6286 H 613.605 7.01068 0.995464 0
M  V30 6287 H 614.013 5.39777 1.65229 0
M  V30 6288 N 613.412 0.11024 1.57214 0
M  V30 6289 C 614.342 -0.840002 2.17867 0
M  V30 6290 C 615.323 -1.28352 1.11624 0
M  V30 6291 O 616.508 -1.3477 1.39824 0
M  V30 6292 C 613.638 -2.09349 2.77111 0
M  V30 6293 C 612.592 -1.78807 3.8886 0
M  V30 6294 C 611.918 -3.11112 4.34872 0
M  V30 6295 C 613.218 -1.0632 5.11364 0
M  V30 6296 H 614.912 -0.334608 2.97524 0
M  V30 6297 H 612.458 -0.159502 1.43114 0
M  V30 6298 H 614.411 -2.76275 3.18198 0
M  V30 6299 H 613.135 -2.62198 1.9473 0
M  V30 6300 H 611.794 -1.14273 3.48335 0
M  V30 6301 H 611.442 -3.61877 3.49362 0
M  V30 6302 H 611.142 -2.91453 5.10224 0
M  V30 6303 H 612.666 -3.79171 4.78604 0
M  V30 6304 H 614.08 -1.63383 5.49526 0
M  V30 6305 H 612.477 -0.967876 5.92243 0
M  V30 6306 H 613.547 -0.0484569 4.84876 0
M  V30 6307 N 614.89 -1.56749 -0.16351 0
M  V30 6308 C 615.822 -1.93587 -1.22705 0
M  V30 6309 C 616.835 -0.829824 -1.40063 0
M  V30 6310 O 618.024 -1.10826 -1.39928 0
M  V30 6311 C 615.124 -2.1803 -2.59454 0
M  V30 6312 C 614.297 -3.4928 -2.63292 0
M  V30 6313 C 613.356 -3.62457 -3.8146 0
M  V30 6314 O 612.382 -4.35004 -3.67096 0
M  V30 6315 N 613.584 -2.97888 -4.9824 0
M  V30 6316 H 616.349 -2.8542 -0.914081 0
M  V30 6317 H 613.91 -1.58 -0.353214 0
M  V30 6318 H 615.902 -2.24102 -3.36987 0
M  V30 6319 H 614.472 -1.32543 -2.8311 0
M  V30 6320 H 613.692 -3.54795 -1.71796 0
M  V30 6321 H 614.98 -4.35632 -2.62873 0
M  V30 6322 H 614.378 -2.38833 -5.12811 0
M  V30 6323 H 612.935 -3.09545 -5.73607 0
M  V30 6324 N 616.368 0.432326 -1.51554 0
M  V30 6325 C 617.616 1.17901 -1.64146 0
M  V30 6326 C 617.937 1.91604 -0.362367 0
M  V30 6327 O 617.207 1.85764 0.621968 0
M  V30 6328 H 615.787 0.438206 -0.604966 0
M  V30 6329 H 618.449 0.495172 -1.88505 0
M  V30 6330 H 617.545 1.90584 -2.47152 0
M  V30 6331 N 617.846 1.41785 0.688094 0
M  V30 6332 C 619.093 1.41544 1.44816 0
M  V30 6333 C 619.421 0.0271746 1.94481 0
M  V30 6334 O 618.676 -0.962235 1.7041 0
M  V30 6335 C 618.975 2.37532 2.67046 0
M  V30 6336 C 618.641 3.84209 2.35996 0
M  V30 6337 C 617.303 4.24165 2.27239 0
M  V30 6338 C 619.655 4.76785 2.10536 0
M  V30 6339 C 616.983 5.54695 1.91128 0
M  V30 6340 C 619.335 6.07644 1.75931 0
M  V30 6341 C 617.999 6.46613 1.65675 0
M  V30 6342 H 617.269 0.517945 0.529919 0
M  V30 6343 H 619.916 1.74635 0.785797 0
M  V30 6344 H 618.221 1.9772 3.38251 0
M  V30 6345 H 619.918 2.34615 3.25203 0
M  V30 6346 H 616.508 3.52567 2.4371 0
M  V30 6347 H 620.692 4.46714 2.16242 0
M  V30 6348 H 615.948 5.83762 1.81746 0
M  V30 6349 H 620.122 6.78874 1.55252 0
M  V30 6350 H 617.749 7.47668 1.37463 0
M  V30 6351 N 619.324 -0.923095 1.27737 0
M  V30 6352 C 620.287 -2.00587 1.10894 0
M  V30 6353 C 621.287 -1.60718 0.0514927 0
M  V30 6354 O 622.477 -1.71658 0.296481 0
M  V30 6355 C 619.609 -3.33829 0.690717 0
M  V30 6356 H 620.802 -2.16959 2.07048 0
M  V30 6357 H 618.355 -1.10451 1.1059 0
M  V30 6358 H 619.09 -3.23157 -0.272 0
M  V30 6359 H 618.875 -3.64125 1.45448 0
M  V30 6360 H 620.365 -4.13336 0.595252 0
M  V30 6361 N 620.802 -1.09834 -1.13024 0
M  V30 6362 C 622.048 -0.83819 -1.84668 0
M  V30 6363 C 622.381 0.634645 -1.83537 0
M  V30 6364 O 621.656 1.46753 -1.27647 0
M  V30 6365 C 621.939 -1.37933 -3.32636 0
M  V30 6366 C 621.792 -2.91857 -3.42257 0
M  V30 6367 C 623.111 -1.01654 -4.28199 0
M  V30 6368 H 620.23 -0.30595 -0.670495 0
M  V30 6369 H 622.872 -1.36044 -1.32635 0
M  V30 6370 H 621.022 -0.935111 -3.77078 0
M  V30 6371 H 622.694 -3.44759 -3.06495 0
M  V30 6372 H 620.937 -3.28776 -2.83 0
M  V30 6373 H 621.608 -3.24799 -4.46329 0
M  V30 6374 H 624.084 -1.39973 -3.9185 0
M  V30 6375 H 622.96 -1.42217 -5.30156 0
M  V30 6376 H 623.221 0.0747794 -4.42037 0
M  V30 6377 N 622.28 1.30327 -0.886154 0
M  V30 6378 C 623.243 2.26376 -0.358687 0
M  V30 6379 C 624.243 1.52845 0.499498 0
M  V30 6380 O 625.433 1.71483 0.306485 0
M  V30 6381 C 622.565 3.37379 0.488726 0
M  V30 6382 H 623.758 2.74547 -1.20681 0
M  V30 6383 H 621.311 1.41536 -0.663113 0
M  V30 6384 H 622.046 2.94526 1.35739 0
M  V30 6385 H 621.831 3.91897 -0.126003 0
M  V30 6386 H 623.321 4.08868 0.84952 0
M  V30 6387 N 623.758 0.647228 1.43697 0
M  V30 6388 C 624.688 -0.0345631 2.33474 0
M  V30 6389 C 625.669 -0.818193 1.4913 0
M  V30 6390 O 626.854 -0.780867 1.77809 0
M  V30 6391 C 623.984 -1.00576 3.32418 0
M  V30 6392 C 622.938 -0.33266 4.26705 0
M  V30 6393 C 622.264 -1.41489 5.1564 0
M  V30 6394 C 623.564 0.771204 5.16575 0
M  V30 6395 H 625.258 0.715163 2.90733 0
M  V30 6396 H 622.804 0.345364 1.39797 0
M  V30 6397 H 624.757 -1.49159 3.94119 0
M  V30 6398 H 623.481 -1.78657 2.73403 0
M  V30 6399 H 622.14 0.13267 3.6636 0
M  V30 6400 H 621.788 -2.18698 4.52968 0
M  V30 6401 H 621.488 -0.969799 5.79542 0
M  V30 6402 H 623.012 -1.9022 5.80214 0
M  V30 6403 H 624.426 0.36779 5.72119 0
M  V30 6404 H 622.823 1.1404 5.89165 0
M  V30 6405 H 623.893 1.63169 4.56622 0
M  V30 6406 N 625.236 -1.5273 0.388769 0
M  V30 6407 C 626.183 -2.26437 -0.446639 0
M  V30 6408 C 627.153 -1.28025 -1.05824 0
M  V30 6409 O 628.338 -1.56852 -1.08637 0
M  V30 6410 C 625.478 -3.07407 -1.56828 0
M  V30 6411 C 624.591 -4.20747 -0.979589 0
M  V30 6412 C 623.726 -4.89113 -2.07224 0
M  V30 6413 C 622.765 -5.94447 -1.45942 0
M  V30 6414 N 621.902 -6.56411 -2.49135 0
M  V30 6415 H 626.742 -2.97404 0.18837 0
M  V30 6416 H 624.279 -1.46727 0.104725 0
M  V30 6417 H 626.237 -3.52642 -2.22934 0
M  V30 6418 H 624.867 -2.3865 -2.17361 0
M  V30 6419 H 623.919 -3.7983 -0.208151 0
M  V30 6420 H 625.231 -4.9637 -0.491747 0
M  V30 6421 H 624.385 -5.3765 -2.81101 0
M  V30 6422 H 623.124 -4.13013 -2.59368 0
M  V30 6423 H 622.129 -5.4525 -0.705894 0
M  V30 6424 H 623.354 -6.7248 -0.945932 0
M  V30 6425 H 621.3 -5.83152 -3.00449 0
M  V30 6426 H 621.217 -7.27645 -2.05105 0
M  V30 6427 H 622.485 -7.09592 -3.22644 0
M  V30 6428 N 626.714 -0.118576 -1.57153 0
M  V30 6429 C 627.647 0.869046 -2.11004 0
M  V30 6430 C 628.625 1.26115 -1.02634 0
M  V30 6431 O 629.809 1.36228 -1.30285 0
M  V30 6432 C 626.936 2.16297 -2.6064 0
M  V30 6433 C 625.982 1.91896 -3.80891 0
M  V30 6434 S 626.815 1.13562 -5.2332 0
M  V30 6435 C 627.971 2.44135 -5.76324 0
M  V30 6436 H 628.204 0.411005 -2.94445 0
M  V30 6437 H 625.737 0.0951891 -1.54106 0
M  V30 6438 H 627.695 2.90642 -2.89892 0
M  V30 6439 H 626.356 2.59219 -1.77382 0
M  V30 6440 H 625.549 2.8777 -4.13768 0
M  V30 6441 H 625.151 1.25672 -3.52253 0
M  V30 6442 H 627.443 3.39976 -5.86022 0
M  V30 6443 H 628.386 2.15803 -6.74414 0
M  V30 6444 H 628.794 2.53483 -5.04387 0
M  V30 6445 N 628.193 1.56834 0.155195 0
M  V30 6446 C 629.441 1.82536 0.867462 0
M  V30 6447 C 629.762 0.698168 1.82073 0
M  V30 6448 O 629.032 -0.280807 1.93877 0
M  V30 6449 H 627.612 0.673401 0.323327 0
M  V30 6450 H 630.274 1.94313 0.151156 0
M  V30 6451 H 629.37 2.77171 1.43466 0
M  V30 6452 N 629.671 -0.424282 1.51781 0
M  V30 6453 C 630.634 -1.49848 1.73431 0
M  V30 6454 C 631.634 -1.49016 0.604225 0
M  V30 6455 O 632.824 -1.50808 0.871935 0
M  V30 6456 C 629.956 -2.89332 1.80277 0
M  V30 6457 H 631.149 -1.3195 2.69312 0
M  V30 6458 H 628.702 -0.653809 1.41968 0
M  V30 6459 H 629.437 -3.12618 0.862568 0
M  V30 6460 H 629.222 -2.9134 2.62419 0
M  V30 6461 H 630.712 -3.67233 1.98821 0
M  V30 6462 N 631.149 -1.42148 -0.680565 0
M  V30 6463 C 632.377 -1.45696 -1.46902 0
M  V30 6464 C 632.792 -0.0665858 -1.88683 0
M  V30 6465 O 632.149 0.917436 -1.57764 0
M  V30 6466 C 632.2 -2.37898 -2.72188 0
M  V30 6467 O 631.921 -3.71526 -2.32163 0
M  V30 6468 C 633.422 -2.50407 -3.65802 0
M  V30 6469 H 630.642 -0.495729 -0.45221 0
M  V30 6470 H 633.186 -1.866 -0.836709 0
M  V30 6471 H 631.341 -2.00263 -3.31622 0
M  V30 6472 H 631.755 -4.20849 -3.13027 0
M  V30 6473 H 633.229 -3.19056 -4.50452 0
M  V30 6474 H 633.706 -1.5401 -4.11312 0
M  V30 6475 H 634.312 -2.8874 -3.12265 0
M  V30 6476 N 632.627 0.916307 -1.28225 0
M  V30 6477 C 633.574 2.01841 -1.11932 0
M  V30 6478 C 634.544 1.66091 -0.0171604 0
M  V30 6479 O 635.729 1.89934 -0.181617 0
M  V30 6480 C 632.869 3.36065 -0.784504 0
M  V30 6481 C 631.982 3.847 -1.96544 0
M  V30 6482 C 631.117 5.07423 -1.57149 0
M  V30 6483 C 630.156 5.48384 -2.71922 0
M  V30 6484 N 629.293 6.62298 -2.33037 0
M  V30 6485 H 634.133 2.1511 -2.06232 0
M  V30 6486 H 631.67 1.05366 -1.02647 0
M  V30 6487 H 633.628 4.13272 -0.571148 0
M  V30 6488 H 632.258 3.22571 0.121565 0
M  V30 6489 H 631.31 3.03673 -2.291 0
M  V30 6490 H 632.622 4.1102 -2.82603 0
M  V30 6491 H 631.776 5.92165 -1.32004 0
M  V30 6492 H 630.515 4.82906 -0.682153 0
M  V30 6493 H 629.52 4.62184 -2.97768 0
M  V30 6494 H 630.745 5.7489 -3.61494 0
M  V30 6495 H 628.691 6.39416 -1.4657 0
M  V30 6496 H 628.608 6.8833 -3.12631 0
M  V30 6497 H 629.876 7.50352 -2.11169 0
M  V30 6498 N 634.105 1.10431 1.1244 0
M  V30 6499 C 635.052 0.753103 2.18167 0
M  V30 6500 C 636.022 -0.270549 1.63882 0
M  V30 6501 O 637.207 -0.149837 1.90211 0
M  V30 6502 C 634.347 0.191046 3.44571 0
M  V30 6503 C 633.46 1.26999 4.12911 0
M  V30 6504 C 632.595 0.669586 5.26963 0
M  V30 6505 C 631.634 1.72912 5.87169 0
M  V30 6506 N 630.771 1.14898 6.92635 0
M  V30 6507 H 635.611 1.65892 2.47556 0
M  V30 6508 H 633.148 0.828631 1.21541 0
M  V30 6509 H 635.106 -0.152712 4.1692 0
M  V30 6510 H 633.736 -0.677997 3.15599 0
M  V30 6511 H 632.788 1.73087 3.3874 0
M  V30 6512 H 634.1 2.07204 4.53727 0
M  V30 6513 H 633.254 0.275274 6.06075 0
M  V30 6514 H 631.993 -0.163895 4.87425 0
M  V30 6515 H 630.998 2.13286 5.06744 0
M  V30 6516 H 632.223 2.56544 6.28778 0
M  V30 6517 H 630.169 0.336956 6.55134 0
M  V30 6518 H 630.086 1.88786 7.32049 0
M  V30 6519 H 631.354 0.78121 7.75576 0
M  V30 6520 N 635.583 -1.29855 0.893053 0
M  V30 6521 C 636.86 -1.90694 0.435336 0
M  V30 6522 C 637.24 -1.8111 -1.08454 0
M  V30 6523 O 636.588 -1.23352 -1.92345 0
M  V30 6524 C 636.798 -3.36033 0.942472 0
M  V30 6525 C 638.146 -4.13083 0.982226 0
M  V30 6526 O 639.17 -3.4491 0.889686 0
M  V30 6527 O 638.029 -5.34896 1.12022 0
M  V30 6528 H 635.123 -0.815978 0.134567 0
M  V30 6529 H 637.669 -1.38367 0.982484 0
M  V30 6530 H 636.441 -3.37132 1.9864 0
M  V30 6531 H 636.064 -3.95828 0.374952 0
M  V30 6532 N 637.061 -0.65484 -1.43351 0
M  V30 6533 C 638.308 -0.168892 -2.01794 0
M  V30 6534 C 638.636 1.2177 -1.51665 0
M  V30 6535 O 637.891 1.82717 -0.70092 0
M  V30 6536 C 638.19 -0.130424 -3.57162 0
M  V30 6537 C 637.856 -1.45898 -4.26643 0
M  V30 6538 C 636.518 -1.82279 -4.4534 0
M  V30 6539 C 638.87 -2.33485 -4.65976 0
M  V30 6540 C 636.198 -3.0591 -5.00635 0
M  V30 6541 C 638.55 -3.5641 -5.22642 0
M  V30 6542 C 637.214 -3.92985 -5.39555 0
M  V30 6543 H 636.484 -0.061802 -0.738418 0
M  V30 6544 H 639.131 -0.845869 -1.71806 0
M  V30 6545 H 637.436 0.630008 -3.86702 0
M  V30 6546 H 639.133 0.262465 -4.0014 0
M  V30 6547 H 635.723 -1.16591 -4.12437 0
M  V30 6548 H 639.907 -2.06668 -4.51223 0
M  V30 6549 H 635.163 -3.34295 -5.11915 0
M  V30 6550 H 639.337 -4.24495 -5.52066 0
M  V30 6551 H 636.964 -4.88862 -5.82167 0
M  V30 6552 N 638.539 1.52521 -0.396863 0
M  V30 6553 C 639.816 1.94112 0.240842 0
M  V30 6554 C 640.196 1.33288 1.637 0
M  V30 6555 O 639.544 0.503901 2.22875 0
M  V30 6556 C 639.754 3.48033 0.259567 0
M  V30 6557 C 641.102 4.21822 0.484866 0
M  V30 6558 O 642.126 3.54579 0.339453 0
M  V30 6559 O 640.985 5.41042 0.770412 0
M  V30 6560 H 638.079 0.812973 0.151671 0
M  V30 6561 H 640.625 1.63572 -0.451918 0
M  V30 6562 H 639.397 3.84655 -0.718078 0
M  V30 6563 H 639.02 3.84899 0.996937 0
M  V30 6564 N 640.017 0.126909 1.57088 0
M  V30 6565 C 640.965 -0.837618 2.16995 0
M  V30 6566 C 641.959 -1.26974 1.12133 0
M  V30 6567 O 643.165 -1.24056 1.30423 0
M  V30 6568 H 639.54 -0.288256 0.694559 0
M  V30 6569 H 641.511 -0.307957 2.96807 0
M  V30 6570 C 640.26 -2.07474 2.79016 0
M  V30 6571 H 639.583 -1.75117 3.59408 0
M  V30 6572 H 641.023 -2.72949 3.24461 0
M  V30 6573 C 639.482 -2.86967 1.76498 0
M  V30 6574 O 640.012 -3.82625 1.22316 0
M  V30 6575 N 638.218 -2.51111 1.46258 0
M  V30 6576 H 637.765 -1.73389 1.90509 0
M  V30 6577 H 637.723 -3.04594 0.779085 0
M  V30 6578 N 641.495 -1.56914 -0.146875 0
M  V30 6579 C 642.723 -1.87515 -0.874394 0
M  V30 6580 C 643.138 -0.715116 -1.74733 0
M  V30 6581 O 642.495 0.315113 -1.79759 0
M  V30 6582 C 642.546 -3.17362 -1.731 0
M  V30 6583 O 642.267 -4.28897 -0.893245 0
M  V30 6584 C 643.768 -3.61479 -2.56609 0
M  V30 6585 H 640.988 -0.621546 -0.252827 0
M  V30 6586 H 643.532 -2.04023 -0.139627 0
M  V30 6587 H 641.687 -3.02608 -2.41883 0
M  V30 6588 H 642.101 -5.03146 -1.48137 0
M  V30 6589 H 643.575 -4.5517 -3.12289 0
M  V30 6590 H 644.052 -2.86773 -3.32653 0
M  V30 6591 H 644.658 -3.78927 -1.93117 0
M  V30 6592 N 642.974 0.416227 -1.52004 0
M  V30 6593 C 644.22 1.16555 -1.6596 0
M  V30 6594 C 644.553 1.90347 -0.384906 0
M  V30 6595 O 643.828 1.84474 0.616405 0
M  V30 6596 C 644.111 2.1657 -2.87696 0
M  V30 6597 C 643.964 1.46722 -4.25197 0
M  V30 6598 C 645.283 3.17321 -3.04951 0
M  V30 6599 H 642.402 0.422369 -0.603965 0
M  V30 6600 H 645.044 0.452141 -1.84542 0
M  V30 6601 H 643.194 2.77411 -2.71985 0
M  V30 6602 H 644.866 0.89056 -4.52622 0
M  V30 6603 H 643.109 0.769263 -4.26925 0
M  V30 6604 H 643.78 2.19665 -5.0641 0
M  V30 6605 H 646.256 2.66552 -3.19514 0
M  V30 6606 H 645.132 3.84573 -3.91656 0
M  V30 6607 H 645.393 3.84643 -2.17951 0
M  V30 6608 N 644.452 1.42507 0.673017 0
M  V30 6609 C 645.415 1.4582 1.76831 0
M  V30 6610 C 646.415 0.345542 1.57043 0
M  V30 6611 O 647.605 0.606447 1.63303 0
M  V30 6612 C 644.737 1.29158 3.15485 0
M  V30 6613 H 645.93 2.43345 1.7528 0
M  V30 6614 H 643.483 1.28981 0.882817 0
M  V30 6615 H 644.218 0.325626 3.22661 0
M  V30 6616 H 644.003 2.09797 3.31252 0
M  V30 6617 H 645.493 1.34363 3.95394 0
M  V30 6618 N 645.93 -0.909495 1.28709 0
M  V30 6619 C 647.179 -1.65365 1.15487 0
M  V30 6620 C 647.492 -1.93364 -0.294941 0
M  V30 6621 O 648.698 -2.65905 -0.548338 0
M  V30 6622 C 647.154 -2.97923 2.01916 0
M  V30 6623 C 646.762 -2.77556 3.51663 0
M  V30 6624 C 648.506 -3.75814 1.97393 0
M  V30 6625 C 646.413 -4.0578 4.30229 0
M  V30 6626 H 645.343 -0.620323 0.42862 0
M  V30 6627 H 647.994 -1.00894 1.53273 0
M  V30 6628 H 646.376 -3.63552 1.5699 0
M  V30 6629 H 647.55 -2.2058 4.04575 0
M  V30 6630 H 645.865 -2.13072 3.57756 0
M  V30 6631 H 648.462 -4.70866 2.53357 0
M  V30 6632 H 648.805 -4.05277 0.951643 0
M  V30 6633 H 649.338 -3.1701 2.40311 0
M  V30 6634 H 646.077 -3.81488 5.33055 0
M  V30 6635 H 645.597 -4.62351 3.82089 0
M  V30 6636 H 647.276 -4.74004 4.40374 0
M  V30 6637 N 647.408 -1.11026 -1.11852 0
M  V30 6638 C 648.358 -0.733836 -2.15868 0
M  V30 6639 C 649.342 0.26001 -1.58785 0
M  V30 6640 O 650.534 0.0677901 -1.7687 0
M  V30 6641 C 647.663 -0.173948 -3.42859 0
M  V30 6642 C 646.749 -1.1952 -4.0691 0
M  V30 6643 N 647.14 -2.38797 -4.45881 0
M  V30 6644 C 645.438 -1.03714 -4.33773 0
M  V30 6645 C 646.139 -3.03894 -4.96007 0
M  V30 6646 N 645.115 -2.31389 -4.91894 0
M  V30 6647 H 648.917 -1.64171 -2.43773 0
M  V30 6648 H 646.431 -0.988877 -1.28822 0
M  V30 6649 H 648.428 0.113836 -4.16745 0
M  V30 6650 H 647.088 0.728568 -3.16421 0
M  V30 6651 H 648.099 -2.76281 -4.38051 0
M  V30 6652 H 644.776 -0.190694 -4.17064 0
M  V30 6653 H 646.166 -4.05389 -5.35826 0
M  V30 6654 N 648.886 1.2938 -0.899927 0
M  V30 6655 C 650.297 1.77644 -0.574427 0
M  V30 6656 C 650.648 1.73824 0.909928 0
M  V30 6657 O 649.773 1.32429 1.71147 0
M  V30 6658 C 650.368 3.22573 -1.03595 0
M  V30 6659 C 648.927 3.68614 -0.76161 0
M  V30 6660 C 648.074 2.49483 -1.21052 0
M  V30 6661 H 651.025 1.16038 -1.08263 0
M  V30 6662 H 651.046 3.78684 -0.371337 0
M  V30 6663 H 650.558 3.25321 -2.11631 0
M  V30 6664 H 648.659 3.7134 0.306127 0
M  V30 6665 H 648.772 4.59402 -1.35965 0
M  V30 6666 H 647.136 2.46798 -0.629515 0
M  V30 6667 H 647.919 2.54959 -2.29893 0
M  V30 6668 N 650.364 0.662433 1.43002 0
M  V30 6669 C 651.592 0.187615 2.06048 0
M  V30 6670 C 652.007 -1.15039 1.49705 0
M  V30 6671 O 651.364 -1.71209 0.631956 0
M  V30 6672 C 651.415 0.100498 3.6136 0
M  V30 6673 O 651.136 1.38562 4.15611 0
M  V30 6674 C 652.637 -0.399298 4.41498 0
M  V30 6675 H 649.857 0.0941675 0.664359 0
M  V30 6676 H 652.401 0.905681 1.83351 0
M  V30 6677 H 650.556 -0.568181 3.83211 0
M  V30 6678 H 650.97 1.25084 5.09366 0
M  V30 6679 H 652.444 -0.409187 5.50481 0
M  V30 6680 H 652.921 -1.43232 4.15188 0
M  V30 6681 H 653.527 0.23721 4.24638 0
M  V30 6682 N 651.842 -1.52309 0.404946 0
M  V30 6683 C 652.805 -2.25491 -0.410651 0
M  V30 6684 C 653.805 -1.27704 -0.977154 0
M  V30 6685 O 654.995 -1.51679 -0.856691 0
M  V30 6686 C 652.127 -3.02197 -1.57765 0
M  V30 6687 H 653.32 -2.99015 0.230277 0
M  V30 6688 H 650.873 -1.55506 0.157377 0
M  V30 6689 H 651.608 -2.33013 -2.25556 0
M  V30 6690 H 651.393 -3.73987 -1.17797 0
M  V30 6691 H 652.883 -3.57719 -2.15469 0
M  V30 6692 N 653.32 -0.135238 -1.57019 0
M  V30 6693 C 654.283 0.794707 -2.14981 0
M  V30 6694 C 655.283 1.18342 -1.08866 0
M  V30 6695 O 656.473 1.10627 -1.34563 0
M  V30 6696 C 653.605 2.07685 -2.70333 0
M  V30 6697 H 654.798 0.290696 -2.98488 0
M  V30 6698 H 652.351 0.114128 -1.55883 0
M  V30 6699 H 653.086 2.6248 -1.9046 0
M  V30 6700 H 652.871 1.80745 -3.47957 0
M  V30 6701 H 654.361 2.74127 -3.1503 0
M  V30 6702 N 654.798 1.5699 0.138552 0
M  V30 6703 C 655.708 2.02174 1.19008 0
M  V30 6704 C 656.724 0.938622 1.46512 0
M  V30 6705 O 657.9 1.24872 1.58016 0
M  V30 6706 C 654.965 2.40045 2.50159 0
M  V30 6707 C 654.026 3.62346 2.30226 0
M  V30 6708 C 653.259 3.98401 3.55123 0
M  V30 6709 O 653.482 3.35019 4.61647 0
M  V30 6710 O 652.416 4.91606 3.47285 0
M  V30 6711 H 656.242 2.91954 0.836452 0
M  V30 6712 H 653.827 1.45293 0.347907 0
M  V30 6713 H 655.709 2.65225 3.27465 0
M  V30 6714 H 654.384 1.53417 2.85035 0
M  V30 6715 H 653.291 3.42341 1.50843 0
M  V30 6716 H 654.624 4.49617 2.00262 0
M  V30 6717 N 656.276 -0.40816 1.52223 0
M  V30 6718 C 657.186 -1.52202 1.78526 0
M  V30 6719 C 658.202 -1.60546 0.670892 0
M  V30 6720 O 659.378 -1.77242 0.956404 0
M  V30 6721 C 656.443 -2.87928 1.93128 0
M  V30 6722 C 655.504 -2.89463 3.17033 0
M  V30 6723 C 654.737 -4.18715 3.30929 0
M  V30 6724 O 654.96 -5.12662 2.50067 0
M  V30 6725 O 653.894 -4.27125 4.24084 0
M  V30 6726 H 657.72 -1.32911 2.73072 0
M  V30 6727 H 655.305 -0.594112 1.37079 0
M  V30 6728 H 657.187 -3.68426 2.04549 0
M  V30 6729 H 655.862 -3.07285 1.01772 0
M  V30 6730 H 654.769 -2.07815 3.11069 0
M  V30 6731 H 656.102 -2.75055 4.08174 0
M  V30 6732 N 657.755 -1.42862 -0.66545 0
M  V30 6733 C 659.002 -1.4383 -1.42546 0
M  V30 6734 C 659.33 -0.0581114 -1.94413 0
M  V30 6735 O 658.585 0.935002 -1.71919 0
M  V30 6736 C 658.884 -2.4175 -2.63233 0
M  V30 6737 C 658.55 -3.87915 -2.29854 0
M  V30 6738 C 657.212 -4.27726 -2.20463 0
M  V30 6739 C 659.564 -4.80074 -2.02924 0
M  V30 6740 C 656.892 -5.57666 -1.82279 0
M  V30 6741 C 659.244 -6.10366 -1.66242 0
M  V30 6742 C 657.908 -6.49167 -1.55367 0
M  V30 6743 H 657.178 -0.52631 -0.521612 0
M  V30 6744 H 659.825 -1.75863 -0.757914 0
M  V30 6745 H 658.13 -2.03077 -3.35063 0
M  V30 6746 H 659.827 -2.39759 -3.21429 0
M  V30 6747 H 656.417 -3.564 -2.3807 0
M  V30 6748 H 660.601 -4.50097 -2.09108 0
M  V30 6749 H 655.857 -5.8658 -1.72436 0
M  V30 6750 H 660.031 -6.81258 -1.44432 0
M  V30 6751 H 657.658 -7.49761 -1.2555 0
M  V30 6752 N 659.233 0.902656 -1.29189 0
M  V30 6753 C 660.479 1.65532 -1.17163 0
M  V30 6754 C 660.812 1.92216 0.276879 0
M  V30 6755 O 660.087 1.53048 1.20027 0
M  V30 6756 C 660.37 3.00629 -1.98228 0
M  V30 6757 C 660.223 2.81029 -3.51202 0
M  V30 6758 C 661.542 4.01321 -1.80635 0
M  V30 6759 H 658.661 0.60071 -0.426985 0
M  V30 6760 H 661.303 1.04578 -1.5863 0
M  V30 6761 H 659.453 3.52656 -1.62991 0
M  V30 6762 H 661.125 2.35927 -3.96404 0
M  V30 6763 H 659.368 2.1587 -3.76275 0
M  V30 6764 H 660.039 3.77014 -4.03192 0
M  V30 6765 H 662.515 3.58394 -2.11406 0
M  V30 6766 H 661.391 4.93792 -2.3971 0
M  V30 6767 H 661.652 4.35505 -0.760754 0
M  V30 6768 N 660.711 1.11618 1.11262 0
M  V30 6769 C 661.939 0.888739 1.8684 0
M  V30 6770 C 662.354 -0.561558 1.80255 0
M  V30 6771 O 661.711 -1.38782 1.18515 0
M  V30 6772 C 661.762 1.34422 3.35579 0
M  V30 6773 O 661.483 2.73766 3.42029 0
M  V30 6774 C 662.984 1.15246 4.28058 0
M  V30 6775 H 660.204 0.318152 0.590779 0
M  V30 6776 H 662.748 1.48398 1.40707 0
M  V30 6777 H 660.903 0.79239 3.7921 0
M  V30 6778 H 661.317 2.9355 4.34659 0
M  V30 6779 H 662.791 1.52015 5.30656 0
M  V30 6780 H 663.268 0.0922007 4.39103 0
M  V30 6781 H 663.874 1.69136 3.90222 0
M  V30 6782 N 662.189 -1.289 0.906776 0
M  V30 6783 C 663.122 -2.25737 0.334362 0
M  V30 6784 C 664.1 -1.52745 -0.557474 0
M  V30 6785 O 665.284 -1.81673 -0.502697 0
M  V30 6786 C 662.411 -3.34642 -0.522716 0
M  V30 6787 C 661.457 -4.25424 0.302777 0
M  V30 6788 S 662.29 -5.07629 1.70508 0
M  V30 6789 C 663.446 -6.20031 0.855118 0
M  V30 6790 H 663.679 -2.73941 1.15514 0
M  V30 6791 H 661.212 -1.37233 0.707573 0
M  V30 6792 H 663.17 -3.97845 -1.01141 0
M  V30 6793 H 661.831 -2.85119 -1.31781 0
M  V30 6794 H 661.024 -5.02767 -0.352257 0
M  V30 6795 H 660.626 -3.66908 0.724873 0
M  V30 6796 H 662.918 -6.77451 0.0816418 0
M  V30 6797 H 663.861 -6.89767 1.60087 0
M  V30 6798 H 664.269 -5.63035 0.406375 0
M  V30 6799 N 663.667 -0.670007 -1.42649 0
M  V30 6800 C 665.083 -0.33911 -1.55956 0
M  V30 6801 C 665.283 1.1558 -1.65056 0
M  V30 6802 O 664.339 1.94111 -1.61485 0
M  V30 6803 C 665.652 -1.06522 -2.812 0
M  V30 6804 C 667.2 -1.04708 -2.94966 0
M  V30 6805 C 667.675 -1.75442 -4.23065 0
M  V30 6806 N 669.166 -1.72286 -4.29967 0
M  V30 6807 C 669.901 -2.23877 -5.27889 0
M  V30 6808 N 669.397 -2.83829 -6.31991 0
M  V30 6809 N 671.19 -2.14279 -5.19654 0
M  V30 6810 H 663.341 -1.6399 -1.34986 0
M  V30 6811 H 665.604 -0.690603 -0.649439 0
M  V30 6812 H 665.31 -2.12033 -2.80597 0
M  V30 6813 H 665.184 -0.627398 -3.71946 0
M  V30 6814 H 667.571 -0.000315966 -2.951 0
M  V30 6815 H 667.652 -1.52374 -2.05465 0
M  V30 6816 H 667.296 -2.80084 -4.23693 0
M  V30 6817 H 667.226 -1.25229 -5.11493 0
M  V30 6818 H 669.717 -1.28554 -3.55362 0
M  V30 6819 H 670.03 -3.20827 -7.03057 0
M  V30 6820 H 668.375 -2.87896 -6.32567 0
M  V30 6821 H 671.566 -1.67135 -4.37245 0
M  V30 6822 H 671.739 -2.54792 -5.95806 0
M  V30 6823 O 665.184 1.51659 -0.55515 0
M  V30 6824 H 665.875 1.9363 -0.0521056 0
M  V30 END ATOM
M  V30 BEGIN BOND
M  V30 END BOND
M  V30 END CTAB
M  END
$$$$
