drugbank_target|P17948 Vascular endothelial growth factor receptor 1 (DB00398; DB01268; DB04879; DB05075; DB05913; DB05932; DB06080; DB06101; DB06589; DB06626; DB07288; DB08896; DB09078; DB09079; DB09221; DB10770; DB12010; DB15685)
 OpenBabel12092119223D

  0  0  0     0  0            999 V3000
M  V30 BEGIN CTAB
M  V30 COUNTS 21206 21427 0 0 0
M  V30 BEGIN ATOM
M  V30 1 H -0.908 1.98254 -0.117106 0
M  V30 2 N 0 1.576 0 0
M  V30 3 C 0.933 2.03868 1.02534 0
M  V30 4 C 1.911 0.928543 1.3348 0
M  V30 5 O 3.095 1.19667 1.45644 0
M  V30 6 C 0.222 2.43627 2.35294 0
M  V30 7 C -0.732 3.65373 2.2001 0
M  V30 8 S 0.101 5.13292 1.52614 0
M  V30 9 C 1.257 5.56322 2.86805 0
M  V30 10 H 1.49 2.90518 0.631377 0
M  V30 11 H -0.977 1.52953 0.210867 0
M  V30 12 H 0.981 2.67203 3.11629 0
M  V30 13 H -0.358 1.57376 2.7183 0
M  V30 14 H -1.165 3.90944 3.18086 0
M  V30 15 H -1.563 3.418 1.51819 0
M  V30 16 H 0.729 5.58782 3.83104 0
M  V30 17 H 1.672 6.56266 2.65933 0
M  V30 18 H 2.08 4.83886 2.90714 0
M  V30 19 N 1.4781 -0.272755 1.55222 0
M  V30 20 C 2.7241 -1.00581 1.761 0
M  V30 21 C 3.0571 -1.85932 0.560625 0
M  V30 22 O 2.3321 -1.89416 -0.441801 0
M  V30 23 C 2.6151 -1.88816 3.06628 0
M  V30 24 C 2.4681 -1.06457 4.37021 0
M  V30 25 C 3.7871 -2.8752 3.33197 0
M  V30 26 H 0.9061 -0.364244 0.640699 0
M  V30 27 H 3.5481 -0.278189 1.87952 0
M  V30 28 H 1.6981 -2.50856 2.96654 0
M  V30 29 H 3.3701 -0.464863 4.58952 0
M  V30 30 H 1.6131 -0.368043 4.32236 0
M  V30 31 H 2.2841 -1.71514 5.24678 0
M  V30 32 H 4.7601 -2.35615 3.42965 0
M  V30 33 H 3.6361 -3.46399 4.25792 0
M  V30 34 H 3.8971 -3.62657 2.52849 0
M  V30 35 N 2.9562 -1.48159 -0.537278 0
M  V30 36 C 4.1812 -1.59707 -1.32319 0
M  V30 37 C 4.6062 -0.254859 -1.86365 0
M  V30 38 O 3.9642 0.772378 -1.64024 0
M  V30 39 C 4.0122 -2.6412 -2.45505 0
M  V30 40 O 3.1162 -2.20774 -3.48328 0
M  V30 41 H 2.4572 -0.535791 -0.392204 0
M  V30 42 H 4.9872 -1.94092 -0.647268 0
M  V30 43 H 4.9972 -2.85166 -2.91795 0
M  V30 44 H 3.6722 -3.61567 -2.05528 0
M  V30 45 H 2.2492 -2.09911 -3.08207 0
M  V30 46 N 4.4343 0.785586 -1.36625 0
M  V30 47 C 5.6643 1.5722 -1.34036 0
M  V30 48 C 6.0723 1.89033 0.0795062 0
M  V30 49 O 5.4153 1.50881 1.04789 0
M  V30 50 C 5.4773 2.91759 -2.10041 0
M  V30 51 C 5.1413 2.82654 -3.59104 0
M  V30 52 C 6.1383 2.54634 -4.53274 0
M  V30 53 C 3.8233 3.01111 -4.02042 0
M  V30 54 C 5.8173 2.45177 -5.88359 0
M  V30 55 C 3.5043 2.91276 -5.37216 0
M  V30 56 C 4.5023 2.63348 -6.30188 0
M  V30 57 O 4.1903 2.53514 -7.6288 0
M  V30 58 H 3.9223 0.494177 -0.461265 0
M  V30 59 H 6.4763 0.982632 -1.8037 0
M  V30 60 H 4.7063 3.52781 -1.58375 0
M  V30 61 H 6.3953 3.53059 -2.00261 0
M  V30 62 H 7.1613 2.40073 -4.21414 0
M  V30 63 H 3.0403 3.21854 -3.30047 0
M  V30 64 H 6.5843 2.23299 -6.60896 0
M  V30 65 H 2.4813 3.054 -5.68684 0
M  V30 66 H 3.2493 2.68967 -7.73045 0
M  V30 67 N 5.9124 1.20967 1.01018 0
M  V30 68 C 7.1584 1.0353 1.7508 0
M  V30 69 C 7.5134 -0.42734 1.87594 0
M  V30 70 O 6.8064 -1.31298 1.3954 0
M  V30 71 C 7.0004 1.65997 3.16512 0
M  V30 72 C 6.8294 3.18184 3.17788 0
M  V30 73 C 5.5994 3.87198 3.24662 0
M  V30 74 C 7.7974 4.15334 3.03319 0
M  V30 75 N 5.7794 5.26618 3.15509 0
M  V30 76 C 7.1504 5.41472 3.02007 0
M  V30 77 C 9.2054 4.06449 2.87583 0
M  V30 78 C 7.9084 6.5975 2.86571 0
M  V30 79 C 9.9344 5.24357 2.73503 0
M  V30 80 C 9.2964 6.49404 2.72862 0
M  V30 81 H 5.3954 0.433137 0.651089 0
M  V30 82 H 7.9794 1.5324 1.20107 0
M  V30 83 H 6.1504 1.18863 3.69765 0
M  V30 84 H 7.8824 1.41816 3.79039 0
M  V30 85 H 4.6374 3.38093 3.31648 0
M  V30 86 H 5.0614 5.99626 3.14289 0
M  V30 87 H 9.7034 3.10573 2.86887 0
M  V30 88 H 7.4214 7.55792 2.86015 0
M  V30 89 H 11.0074 5.19299 2.62334 0
M  V30 90 H 9.8874 7.39105 2.62093 0
M  V30 91 N 7.3905 -1.2043 1.01659 0
M  V30 92 C 8.6675 -1.8548 0.621004 0
M  V30 93 C 9.0475 -1.9091 -0.900919 0
M  V30 94 O 8.3955 -1.41694 -1.79263 0
M  V30 95 C 8.6055 -3.25119 1.2688 0
M  V30 96 C 9.9535 -4.01403 1.38423 0
M  V30 97 O 10.9775 -3.34473 1.22501 0
M  V30 98 O 9.8365 -5.21265 1.64151 0
M  V30 99 H 6.9305 -0.798761 0.214266 0
M  V30 100 H 9.4765 -1.28019 1.11396 0
M  V30 101 H 8.2485 -3.15932 2.30873 0
M  V30 102 H 7.8715 -3.90212 0.762917 0
M  V30 103 N 8.8686 -0.792821 -1.36206 0
M  V30 104 C 10.0966 -0.378825 -2.03402 0
M  V30 105 C 10.5116 1.00586 -1.59774 0
M  V30 106 O 9.8686 1.64574 -0.788764 0
M  V30 107 C 9.9196 -0.43683 -3.58851 0
M  V30 108 O 9.6406 -1.76691 -4.00889 0
M  V30 109 C 11.1416 -0.0138943 -4.43298 0
M  V30 110 H 8.3616 -0.155673 -0.652692 0
M  V30 111 H 10.9056 -1.07261 -1.74113 0
M  V30 112 H 9.0606 0.208575 -3.86838 0
M  V30 113 H 9.4746 -1.72011 -4.95492 0
M  V30 114 H 10.9486 -0.105615 -5.51899 0
M  V30 115 H 11.4256 1.03915 -4.2673 0
M  V30 116 H 12.0316 -0.63192 -4.20579 0
M  V30 117 N 10.3467 1.47872 -0.545128 0
M  V30 118 C 11.5947 2.02093 -0.016553 0
M  V30 119 C 11.9157 1.42305 1.3332 0
M  V30 120 O 11.1857 0.593853 1.86682 0
M  V30 121 H 9.7657 0.746993 -0.00313038 0
M  V30 122 H 12.4277 1.81414 -0.712397 0
M  V30 123 H 11.5237 3.11996 0.0805422 0
M  V30 124 N 11.8248 0.280983 1.55075 0
M  V30 125 C 13.0708 -0.33461 2.00021 0
M  V30 126 C 13.4038 -1.55063 1.16915 0
M  V30 127 O 12.6788 -1.93006 0.240646 0
M  V30 128 C 12.9618 -0.711007 3.53011 0
M  V30 129 C 12.8148 0.512766 4.46868 0
M  V30 130 C 14.1338 -1.54522 4.12081 0
M  V30 131 H 11.2528 -0.120147 0.727141 0
M  V30 132 H 13.8948 0.389097 1.85973 0
M  V30 133 H 12.0448 -1.32761 3.65112 0
M  V30 134 H 13.7168 1.15131 4.46702 0
M  V30 135 H 11.9598 1.14975 4.18286 0
M  V30 136 H 12.6308 0.205556 5.51617 0
M  V30 137 H 15.1068 -1.02442 4.03293 0
M  V30 138 H 13.9828 -1.77739 5.19327 0
M  V30 139 H 14.2438 -2.52813 3.62682 0
M  V30 140 N 13.3029 -1.57598 0.00835791 0
M  V30 141 C 14.2329 -2.1198 -0.979113 0
M  V30 142 C 15.2139 -1.03091 -1.35301 0
M  V30 143 O 16.3989 -1.30818 -1.43528 0
M  V30 144 C 13.5289 -2.62995 -2.26828 0
M  V30 145 C 12.4829 -3.76485 -2.03576 0
M  V30 146 C 11.8089 -4.13846 -3.38579 0
M  V30 147 C 13.1089 -5.0342 -1.39161 0
M  V30 148 H 14.8029 -2.94738 -0.526281 0
M  V30 149 H 12.3489 -1.41783 -0.251704 0
M  V30 150 H 14.3019 -2.99669 -2.96271 0
M  V30 151 H 13.0259 -1.7737 -2.7424 0
M  V30 152 H 11.6849 -3.40217 -1.36557 0
M  V30 153 H 11.3329 -3.25232 -3.83709 0
M  V30 154 H 11.0329 -4.90312 -3.23834 0
M  V30 155 H 12.5569 -4.53086 -4.09323 0
M  V30 156 H 13.9709 -5.37812 -1.98573 0
M  V30 157 H 12.3679 -5.84746 -1.34878 0
M  V30 158 H 13.4379 -4.83548 -0.361868 0
M  V30 159 N 14.781 0.264519 -1.55364 0
M  V30 160 C 15.711 1.33121 -1.91836 0
M  V30 161 C 16.692 1.51101 -0.781192 0
M  V30 162 O 17.877 1.64003 -1.04003 0
M  V30 163 C 15.007 2.68921 -2.19769 0
M  V30 164 C 13.961 2.65661 -3.35571 0
M  V30 165 C 13.287 4.05093 -3.49004 0
M  V30 166 C 14.587 2.24187 -4.71739 0
M  V30 167 H 16.281 1.02844 -2.81182 0
M  V30 168 H 13.827 0.493286 -1.35287 0
M  V30 169 H 15.78 3.43663 -2.43872 0
M  V30 170 H 14.504 3.00799 -1.27231 0
M  V30 171 H 13.163 1.93377 -3.1145 0
M  V30 172 H 12.811 4.34206 -2.53917 0
M  V30 173 H 12.511 4.03804 -4.26868 0
M  V30 174 H 14.035 4.81561 -3.75408 0
M  V30 175 H 15.449 2.88654 -4.9533 0
M  V30 176 H 13.846 2.34044 -5.52579 0
M  V30 177 H 14.916 1.19327 -4.69988 0
M  V30 178 N 16.2591 1.48442 0.529413 0
M  V30 179 C 17.4991 1.58086 1.29569 0
M  V30 180 C 17.8631 0.249302 1.90375 0
M  V30 181 O 19.0641 0.220738 2.67892 0
M  V30 182 C 17.3351 2.68793 2.35552 0
M  V30 183 S 18.8941 2.98207 3.21898 0
M  V30 184 H 15.7121 0.557922 0.440732 0
M  V30 185 H 18.3141 1.85966 0.603059 0
M  V30 186 H 17.0181 3.64102 1.89363 0
M  V30 187 H 16.5491 2.42817 3.09522 0
M  V30 188 H 18.5641 2.37548 4.35644 0
M  V30 189 N 17.7372 -0.778329 1.37039 0
M  V30 190 C 18.7002 -1.87301 1.32102 0
M  V30 191 C 19.7002 -1.59198 0.226405 0
M  V30 192 O 20.8902 -1.67403 0.481861 0
M  V30 193 C 18.0222 -3.24309 1.05055 0
M  V30 194 H 19.2152 -1.93093 2.29467 0
M  V30 195 H 16.7682 -0.977358 1.21973 0
M  V30 196 H 17.5032 -3.24196 0.0819373 0
M  V30 197 H 17.2882 -3.46098 1.84279 0
M  V30 198 H 18.7782 -4.04382 1.04234 0
M  V30 199 N 19.2153 -1.21501 -1.00376 0
M  V30 200 C 20.1453 -0.999478 -2.11028 0
M  V30 201 C 21.1263 0.0759671 -1.6993 0
M  V30 202 O 22.3113 -0.0841106 -1.94018 0
M  V30 203 C 19.4413 -0.564709 -3.42678 0
M  V30 204 C 18.3953 -1.58486 -3.97576 0
M  V30 205 C 17.7213 -1.00628 -5.25146 0
M  V30 206 C 19.0213 -2.97204 -4.29496 0
M  V30 207 H 20.7153 -1.92495 -2.29317 0
M  V30 208 H 18.2613 -0.92693 -1.102 0
M  V30 209 H 20.2143 -0.401091 -4.19487 0
M  V30 210 H 18.9383 0.396411 -3.24185 0
M  V30 211 H 17.5973 -1.73606 -3.22888 0
M  V30 212 H 17.2453 -0.0368439 -5.02987 0
M  V30 213 H 16.9453 -1.68771 -5.62841 0
M  V30 214 H 18.4693 -0.854015 -6.04598 0
M  V30 215 H 19.8833 -2.8552 -4.97143 0
M  V30 216 H 18.2803 -3.62372 -4.78338 0
M  V30 217 H 19.3503 -3.47956 -3.3772 0
M  V30 218 N 20.6934 1.19889 -1.02296 0
M  V30 219 C 21.6234 2.25141 -0.619174 0
M  V30 220 C 22.6044 1.66051 0.368915 0
M  V30 221 O 23.7894 1.92546 0.252941 0
M  V30 222 C 20.9194 3.4728 0.0368783 0
M  V30 223 C 19.8734 4.19005 -0.872865 0
M  V30 224 C 19.1994 5.34637 -0.0822402 0
M  V30 225 C 20.4994 4.74452 -2.18387 0
M  V30 226 H 22.1934 2.59171 -1.49903 0
M  V30 227 H 19.7394 1.24579 -0.722222 0
M  V30 228 H 21.6924 4.20098 0.330958 0
M  V30 229 H 20.4164 3.12433 0.95149 0
M  V30 230 H 19.0754 3.48061 -1.15105 0
M  V30 231 H 18.7234 4.96034 0.83422 0
M  V30 232 H 18.4234 5.83557 -0.688149 0
M  V30 233 H 19.9474 6.10255 0.205238 0
M  V30 234 H 21.3614 5.39055 -1.95172 0
M  V30 235 H 19.7584 5.33834 -2.74119 0
M  V30 236 H 20.8284 3.92844 -2.84257 0
M  V30 237 N 22.1715 0.800033 1.35784 0
M  V30 238 C 23.3965 0.388511 2.03729 0
M  V30 239 C 23.8215 -0.990481 1.5991 0
M  V30 240 O 23.1795 -1.64013 0.772612 0
M  V30 241 C 23.2275 0.4726 3.5749 0
M  V30 242 O 22.3315 -0.51646 4.09153 0
M  V30 243 H 21.6725 0.163271 0.643614 0
M  V30 244 H 24.2025 1.0841 1.73518 0
M  V30 245 H 24.2125 0.34003 4.06581 0
M  V30 246 H 22.8875 1.47848 3.88734 0
M  V30 247 H 21.4645 -0.344673 3.71304 0
M  V30 248 N 23.6496 -1.47581 0.552962 0
M  V30 249 C 24.8896 -2.04379 0.0296245 0
M  V30 250 C 25.2536 -1.4185 -1.29393 0
M  V30 251 O 26.4546 -1.89669 -1.90471 0
M  V30 252 C 24.7256 -3.57339 -0.0661371 0
M  V30 253 S 26.2846 -4.35511 -0.536213 0
M  V30 254 H 23.1026 -0.710625 0.0230991 0
M  V30 255 H 25.7046 -1.81005 0.738734 0
M  V30 256 H 24.4086 -4.00374 0.901596 0
M  V30 257 H 23.9396 -3.85202 -0.798931 0
M  V30 258 H 25.9546 -4.6253 -1.79668 0
M  V30 259 N 25.1277 -0.289203 -1.54924 0
M  V30 260 C 26.0577 0.58549 -2.2604 0
M  V30 261 C 27.0387 1.14753 -1.25562 0
M  V30 262 O 28.2237 1.17906 -1.54311 0
M  V30 263 C 25.3537 1.76305 -2.99222 0
M  V30 264 C 24.3077 1.33191 -4.06748 0
M  V30 265 C 23.6337 2.5937 -4.6758 0
M  V30 266 C 24.9337 0.471775 -5.20165 0
M  V30 267 H 26.6277 -0.00763532 -2.99399 0
M  V30 268 H 24.1737 -0.00511229 -1.43999 0
M  V30 269 H 26.1267 2.38097 -3.47689 0
M  V30 270 H 24.8507 2.38223 -2.23422 0
M  V30 271 H 23.5097 0.737121 -3.59113 0
M  V30 272 H 23.1577 3.19576 -3.88433 0
M  V30 273 H 22.8577 2.31228 -5.40192 0
M  V30 274 H 24.3817 3.21985 -5.18804 0
M  V30 275 H 25.7957 0.995056 -5.64599 0
M  V30 276 H 24.1927 0.284639 -5.99425 0
M  V30 277 H 25.2627 -0.506041 -4.82252 0
M  V30 278 N 26.6058 1.57591 -0.0167156 0
M  V30 279 C 27.5358 2.12496 0.967858 0
M  V30 280 C 28.5168 1.03807 1.34752 0
M  V30 281 O 29.7018 1.31577 1.42833 0
M  V30 282 C 26.8318 2.64194 2.25431 0
M  V30 283 C 25.7858 3.77559 2.01576 0
M  V30 284 C 25.1118 4.15636 3.36379 0
M  V30 285 C 26.4118 5.04151 1.36489 0
M  V30 286 H 28.1058 2.95013 0.510643 0
M  V30 287 H 25.6518 1.41915 0.244181 0
M  V30 288 H 27.6048 3.01236 2.94678 0
M  V30 289 H 26.3288 1.78821 2.73296 0
M  V30 290 H 24.9878 3.40937 1.34751 0
M  V30 291 H 24.6358 3.27263 3.81979 0
M  V30 292 H 24.3358 4.92022 3.21229 0
M  V30 293 H 25.8598 4.5525 4.06915 0
M  V30 294 H 27.2738 5.38857 1.95718 0
M  V30 295 H 25.6708 5.85453 1.31776 0
M  V30 296 H 26.7408 4.83733 0.336219 0
M  V30 297 N 28.0839 -0.256276 1.55502 0
M  V30 298 C 29.0139 -1.32102 1.92539 0
M  V30 299 C 29.9949 -1.50684 0.789194 0
M  V30 300 O 31.1799 -1.63449 1.04872 0
M  V30 301 C 28.3099 -2.67752 2.21192 0
M  V30 302 C 27.2639 -2.63878 3.36975 0
M  V30 303 C 26.5899 -4.03236 3.51147 0
M  V30 304 C 27.8899 -2.21682 4.72921 0
M  V30 305 H 29.5839 -1.01351 2.81724 0
M  V30 306 H 27.1299 -0.486105 1.35547 0
M  V30 307 H 29.0829 -3.42365 2.45691 0
M  V30 308 H 27.8069 -3.0012 1.28824 0
M  V30 309 H 26.4659 -1.91722 3.12471 0
M  V30 310 H 26.1139 -4.32854 2.56216 0
M  V30 311 H 25.8139 -4.01535 4.29003 0
M  V30 312 H 27.3379 -4.79563 3.77957 0
M  V30 313 H 28.7519 -2.86023 4.96854 0
M  V30 314 H 27.1489 -2.3111 5.53812 0
M  V30 315 H 28.2189 -1.16833 4.70615 0
M  V30 316 N 29.562 -1.4872 -0.521534 0
M  V30 317 C 30.79 -1.60843 -1.30142 0
M  V30 318 C 31.205 -0.271897 -1.86832 0
M  V30 319 O 30.562 0.739969 -1.66825 0
M  V30 320 C 30.613 -2.66155 -2.4463 0
M  V30 321 O 30.334 -3.94623 -1.90275 0
M  V30 322 C 31.835 -2.88795 -3.36322 0
M  V30 323 H 29.055 -0.542075 -0.395468 0
M  V30 324 H 31.599 -1.94609 -0.628285 0
M  V30 325 H 29.754 -2.35224 -3.07812 0
M  V30 326 H 30.168 -4.52468 -2.65279 0
M  V30 327 H 31.642 -3.66264 -4.12983 0
M  V30 328 H 32.119 -1.97934 -3.9207 0
M  V30 329 H 32.725 -3.21063 -2.78924 0
M  V30 330 N 31.0401 0.771051 -1.3745 0
M  V30 331 C 32.2881 1.52661 -1.32435 0
M  V30 332 C 32.6091 1.9479 0.0905024 0
M  V30 333 O 31.8791 1.66348 1.03466 0
M  V30 334 H 30.4591 0.566218 -0.487244 0
M  V30 335 H 33.1211 0.917636 -1.71946 0
M  V30 336 H 32.2171 2.42568 -1.96385 0
M  V30 337 N 32.5182 1.22032 0.997298 0
M  V30 338 C 33.7432 1.06921 1.77715 0
M  V30 339 C 34.1682 -0.376226 1.84299 0
M  V30 340 O 33.5262 -1.27165 1.29223 0
M  V30 341 C 33.5742 1.67996 3.19076 0
M  V30 342 O 32.6782 0.930653 4.01762 0
M  V30 343 H 32.0192 0.375814 0.547412 0
M  V30 344 H 34.5492 1.61737 1.25309 0
M  V30 345 H 34.5592 1.72538 3.69723 0
M  V30 346 H 33.2342 2.73182 3.13599 0
M  V30 347 H 31.8112 0.960917 3.60307 0
M  V30 348 N 33.9963 -1.19345 1.0293 0
M  V30 349 C 35.2213 -1.93538 0.745511 0
M  V30 350 C 35.6463 -1.75007 -0.689511 0
M  V30 351 O 35.0043 -1.05265 -1.47611 0
M  V30 352 C 35.0523 -3.43336 1.10239 0
M  V30 353 O 34.1563 -4.11806 0.221289 0
M  V30 354 H 33.4973 -0.604193 0.275404 0
M  V30 355 H 36.0273 -1.5141 1.37609 0
M  V30 356 H 36.0373 -3.94004 1.05947 0
M  V30 357 H 34.7123 -3.56146 2.14786 0
M  V30 358 H 33.2893 -3.715 0.322842 0
M  V30 359 N 35.4744 -0.807222 -1.35358 0
M  V30 360 C 36.6994 -0.399309 -2.0352 0
M  V30 361 C 37.1244 0.981986 -1.60433 0
M  V30 362 O 36.4824 1.63601 -0.781299 0
M  V30 363 C 36.5304 -0.491552 -3.57234 0
M  V30 364 O 35.6344 0.494754 -4.09421 0
M  V30 365 H 34.9754 -0.166682 -0.642739 0
M  V30 366 H 37.5054 -1.09328 -1.72941 0
M  V30 367 H 37.5154 -0.361588 -4.06395 0
M  V30 368 H 36.1904 -1.49907 -3.87944 0
M  V30 369 H 34.7674 0.324977 -3.71481 0
M  V30 370 N 36.9525 1.47285 -0.560781 0
M  V30 371 C 38.2005 2.02064 -0.0379868 0
M  V30 372 C 38.5215 1.43711 1.31803 0
M  V30 373 O 37.7915 0.61362 1.86042 0
M  V30 374 H 36.3715 0.746918 -0.0110531 0
M  V30 375 H 39.0335 1.80648 -0.731598 0
M  V30 376 H 38.1295 3.12064 0.0474463 0
M  V30 377 N 38.4306 0.297415 1.54768 0
M  V30 378 C 39.6556 -0.318435 2.04941 0
M  V30 379 C 40.0806 -1.4701 1.17345 0
M  V30 380 O 39.4386 -1.80436 0.176758 0
M  V30 381 C 39.4866 -0.755749 3.52592 0
M  V30 382 O 38.5906 -1.86088 3.68028 0
M  V30 383 H 37.9316 -0.062421 0.661059 0
M  V30 384 H 40.4616 0.438215 1.99852 0
M  V30 385 H 40.4716 -1.04552 3.94376 0
M  V30 386 H 39.1466 0.0867233 4.1581 0
M  V30 387 H 37.7236 -1.57193 3.38149 0
M  V30 388 N 39.9087 -1.5758 0.0250728 0
M  V30 389 C 40.8557 -2.09973 -0.958129 0
M  V30 390 C 41.8257 -1.00085 -1.3256 0
M  V30 391 O 43.0107 -1.27481 -1.41962 0
M  V30 392 C 40.1507 -2.62812 -2.2366 0
M  V30 393 C 39.2637 -3.86693 -1.92594 0
M  V30 394 C 38.3987 -4.27941 -3.14707 0
M  V30 395 C 37.4377 -5.44591 -2.79442 0
M  V30 396 N 36.5747 -5.81014 -3.94167 0
M  V30 397 H 41.4147 -2.937 -0.504428 0
M  V30 398 H 38.9517 -1.45172 -0.237392 0
M  V30 399 H 40.9097 -2.91536 -2.98434 0
M  V30 400 H 39.5397 -1.81922 -2.66654 0
M  V30 401 H 38.5917 -3.64723 -1.0808 0
M  V30 402 H 39.9037 -4.71547 -1.62619 0
M  V30 403 H 39.0577 -4.58079 -3.97804 0
M  V30 404 H 37.7967 -3.41845 -3.4784 0
M  V30 405 H 36.8017 -5.1415 -1.94755 0
M  V30 406 H 38.0267 -6.32382 -2.47528 0
M  V30 407 H 35.9727 -4.97874 -4.2715 0
M  V30 408 H 35.8897 -6.60498 -3.67801 0
M  V30 409 H 37.1577 -6.15756 -4.7798 0
M  V30 410 N 41.3868 0.248026 -1.55636 0
M  V30 411 C 42.3168 1.31079 -1.93237 0
M  V30 412 C 43.2978 1.50264 -0.797174 0
M  V30 413 O 44.4828 1.62891 -1.05737 0
M  V30 414 C 41.6128 2.66575 -2.22609 0
M  V30 415 C 40.5668 2.62087 -3.3837 0
M  V30 416 C 39.8928 4.01369 -3.53281 0
M  V30 417 C 41.1928 2.19171 -4.7409 0
M  V30 418 H 42.8868 0.998556 -2.82257 0
M  V30 419 H 40.4328 0.47891 -1.35803 0
M  V30 420 H 42.3858 3.41057 -2.47503 0
M  V30 421 H 41.1098 2.99432 -1.30414 0
M  V30 422 H 39.7688 1.90063 -3.13483 0
M  V30 423 H 39.4168 4.31489 -2.58508 0
M  V30 424 H 39.1168 3.99254 -4.31127 0
M  V30 425 H 40.6408 4.77552 -3.80495 0
M  V30 426 H 42.0548 2.83384 -4.98363 0
M  V30 427 H 40.4518 2.2817 -5.5503 0
M  V30 428 H 41.5218 1.14336 -4.71227 0
M  V30 429 N 42.8649 1.48995 0.513639 0
M  V30 430 C 43.8119 1.6473 1.61656 0
M  V30 431 C 44.7819 0.488984 1.58739 0
M  V30 432 O 45.9669 0.714478 1.76918 0
M  V30 433 C 43.1069 1.7082 2.99858 0
M  V30 434 C 42.2199 2.9787 3.12885 0
M  V30 435 C 41.3549 2.95017 4.41744 0
M  V30 436 C 40.3939 4.16702 4.48359 0
M  V30 437 N 39.5309 4.11832 5.68629 0
M  V30 438 H 44.3709 2.58909 1.47547 0
M  V30 439 H 41.9079 1.28382 0.71808 0
M  V30 440 H 43.8659 1.72331 3.79944 0
M  V30 441 H 42.4959 0.801181 3.12699 0
M  V30 442 H 41.5479 3.06029 2.25944 0
M  V30 443 H 42.8599 3.8786 3.13633 0
M  V30 444 H 42.0139 2.95021 5.30139 0
M  V30 445 H 40.7529 2.02784 4.43542 0
M  V30 446 H 39.7579 4.16955 3.58369 0
M  V30 447 H 40.9829 5.10113 4.48287 0
M  V30 448 H 38.9289 3.22428 5.71293 0
M  V30 449 H 38.8459 4.95543 5.7094 0
M  V30 450 H 40.1139 4.1592 6.59266 0
M  V30 451 N 44.343 -0.763751 1.37857 0
M  V30 452 C 45.62 -1.51244 1.24035 0
M  V30 453 C 46 -2.10472 -0.162649 0
M  V30 454 O 45.348 -1.96206 -1.17112 0
M  V30 455 C 45.558 -2.58694 2.34261 0
M  V30 456 C 46.906 -3.25878 2.72193 0
M  V30 457 O 47.93 -2.68993 2.33497 0
M  V30 458 O 46.789 -4.2874 3.38887 0
M  V30 459 H 43.883 -0.670243 0.484462 0
M  V30 460 H 46.429 -0.800031 1.49658 0
M  V30 461 H 45.201 -2.13105 3.2818 0
M  V30 462 H 44.824 -3.37527 2.10146 0
M  V30 463 N 45.8211 -1.22559 -0.990812 0
M  V30 464 C 47.2321 -1.04791 -1.54518 0
M  V30 465 C 47.5831 0.387998 -1.92325 0
M  V30 466 O 46.7081 1.27328 -1.74976 0
M  V30 467 C 47.3031 -1.896 -2.80779 0
M  V30 468 C 45.8621 -1.76124 -3.32652 0
M  V30 469 C 45.0091 -1.8594 -2.05722 0
M  V30 470 H 47.9601 -1.36374 -0.811662 0
M  V30 471 H 47.9811 -1.41464 -3.53225 0
M  V30 472 H 47.4931 -2.94101 -2.53231 0
M  V30 473 H 45.5941 -0.743643 -3.65104 0
M  V30 474 H 45.7071 -2.58913 -4.03114 0
M  V30 475 H 44.0711 -1.29403 -2.19379 0
M  V30 476 H 44.8541 -2.91976 -1.80568 0
M  V30 477 N 47.2992 1.18797 -1.03562 0
M  V30 478 C 48.2092 2.25913 -0.632505 0
M  V30 479 C 49.2252 1.70668 0.338882 0
M  V30 480 O 50.4012 2.00453 0.195076 0
M  V30 481 C 47.4662 3.467 0.00350942 0
M  V30 482 C 46.5272 4.17098 -1.01624 0
M  V30 483 C 45.7602 5.32119 -0.410478 0
M  V30 484 O 45.9832 5.64976 0.784725 0
M  V30 485 O 44.9172 5.9107 -1.13667 0
M  V30 486 H 48.7432 2.62648 -1.52478 0
M  V30 487 H 46.3282 1.25781 -0.806195 0
M  V30 488 H 48.2102 4.19878 0.35781 0
M  V30 489 H 46.8852 3.11798 0.869686 0
M  V30 490 H 45.7922 3.4601 -1.42224 0
M  V30 491 H 47.1252 4.55987 -1.85301 0
M  V30 492 N 48.7773 0.814389 1.34928 0
M  V30 493 C 49.7073 0.244827 2.32213 0
M  V30 494 C 50.6883 -0.634024 1.57842 0
M  V30 495 O 51.8733 -0.562676 1.8587 0
M  V30 496 C 49.0033 -0.601106 3.42058 0
M  V30 497 C 47.9573 0.179896 4.27622 0
M  V30 498 C 47.2833 -0.788237 5.28858 0
M  V30 499 C 48.5833 1.38329 5.03649 0
M  V30 500 H 50.2773 1.05763 2.80097 0
M  V30 501 H 47.8233 0.510029 1.34665 0
M  V30 502 H 49.7763 -1.00968 4.09125 0
M  V30 503 H 48.5003 -1.44688 2.92802 0
M  V30 504 H 47.1593 0.569739 3.62146 0
M  V30 505 H 46.8073 -1.62973 4.75866 0
M  V30 506 H 46.5073 -0.269942 5.8698 0
M  V30 507 H 48.0313 -1.19485 5.98795 0
M  V30 508 H 49.4453 1.04918 5.63618 0
M  V30 509 H 47.8423 1.83662 5.71304 0
M  V30 510 H 48.9123 2.16592 4.33839 0
M  V30 511 N 50.2554 -1.46986 0.568584 0
M  V30 512 C 51.4804 -2.07335 0.0520528 0
M  V30 513 C 51.9054 -1.41675 -1.23733 0
M  V30 514 O 51.2634 -0.495623 -1.74394 0
M  V30 515 C 51.3114 -3.60417 -0.11501 0
M  V30 516 O 50.4154 -3.95309 -1.17492 0
M  V30 517 H 49.7564 -0.661597 0.0564385 0
M  V30 518 H 52.2864 -1.88837 0.787507 0
M  V30 519 H 52.2964 -4.06698 -0.325644 0
M  V30 520 H 50.9714 -4.07601 0.826675 0
M  V30 521 H 49.5484 -3.60757 -0.943869 0
M  V30 522 N 51.7335 -0.305618 -1.54608 0
M  V30 523 C 52.6635 0.561482 -2.26649 0
M  V30 524 C 53.6445 1.13415 -1.26772 0
M  V30 525 O 54.8295 1.16262 -1.55553 0
M  V30 526 C 51.9595 1.73122 -3.01075 0
M  V30 527 C 50.9135 1.2887 -4.08138 0
M  V30 528 C 50.2395 2.54396 -4.70305 0
M  V30 529 C 51.5395 0.416578 -5.20636 0
M  V30 530 H 53.2335 -0.0393902 -2.99374 0
M  V30 531 H 50.7795 -0.020385 -1.43986 0
M  V30 532 H 52.7325 2.34396 -3.50195 0
M  V30 533 H 51.4565 2.3584 -2.25936 0
M  V30 534 H 50.1155 0.698991 -3.59875 0
M  V30 535 H 49.7635 3.15439 -3.918 0
M  V30 536 H 49.4635 2.25486 -5.42614 0
M  V30 537 H 50.9875 3.16464 -5.2219 0
M  V30 538 H 52.4015 0.935116 -5.65622 0
M  V30 539 H 50.7985 0.221046 -5.99693 0
M  V30 540 H 51.8685 -0.557162 -4.81688 0
M  V30 541 N 53.2116 1.57565 -0.0334293 0
M  V30 542 C 54.1586 2.10478 0.946981 0
M  V30 543 C 55.1286 1.00787 1.32027 0
M  V30 544 O 56.3136 1.28232 1.41284 0
M  V30 545 C 53.4536 2.63994 2.22263 0
M  V30 546 C 52.5666 3.87709 1.90541 0
M  V30 547 C 51.7016 4.29604 3.12433 0
M  V30 548 C 50.7406 5.46065 2.76549 0
M  V30 549 N 49.8776 5.83096 3.9108 0
M  V30 550 H 54.7176 2.93963 0.488846 0
M  V30 551 H 52.2546 1.45296 0.22969 0
M  V30 552 H 54.2126 2.93114 2.96884 0
M  V30 553 H 52.8426 1.83333 2.65685 0
M  V30 554 H 51.8946 3.65291 1.06144 0
M  V30 555 H 53.2066 4.72403 1.60116 0
M  V30 556 H 52.3606 4.60182 3.9537 0
M  V30 557 H 51.0996 3.43685 3.46023 0
M  V30 558 H 50.1046 5.15176 1.92026 0
M  V30 559 H 51.3296 6.33685 2.44171 0
M  V30 560 H 49.2756 5.00132 4.24504 0
M  V30 561 H 49.1926 6.6244 3.64293 0
M  V30 562 H 50.4606 6.18282 4.74708 0
M  V30 563 N 54.6897 -0.239769 1.55765 0
M  V30 564 C 55.9377 -0.964892 1.77579 0
M  V30 565 C 56.2587 -1.85582 0.598699 0
M  V30 566 O 55.5287 -1.92075 -0.385226 0
M  V30 567 H 54.1087 -0.359265 0.654933 0
M  V30 568 H 56.7707 -0.256001 1.93211 0
M  V30 569 H 55.8667 -1.58243 2.69009 0
M  V30 570 N 56.1678 -1.49265 -0.50573 0
M  V30 571 C 57.3958 -1.62215 -1.28429 0
M  V30 572 C 57.8108 -0.291697 -1.86533 0
M  V30 573 O 57.1678 0.722233 -1.67601 0
M  V30 574 C 57.2188 -2.68735 -2.41793 0
M  V30 575 O 56.9398 -3.96619 -1.86078 0
M  V30 576 C 58.4408 -2.92346 -3.3324 0
M  V30 577 H 55.6608 -0.546239 -0.389697 0
M  V30 578 H 58.2048 -1.95265 -0.607609 0
M  V30 579 H 56.3598 -2.38476 -3.053 0
M  V30 580 H 56.7738 -4.55256 -2.60465 0
M  V30 581 H 58.2478 -3.70623 -4.09075 0
M  V30 582 H 58.7248 -2.02081 -3.89948 0
M  V30 583 H 59.3308 -3.24003 -2.75503 0
M  V30 584 N 57.6459 0.756429 -1.3826 0
M  V30 585 C 58.5779 1.87971 -1.31147 0
M  V30 586 C 59.5909 1.61248 -0.224239 0
M  V30 587 O 60.7799 1.71881 -0.481581 0
M  V30 588 C 57.8799 3.23545 -1.00857 0
M  V30 589 C 57.0529 3.77794 -2.20432 0
M  V30 590 C 56.1119 4.91877 -1.86931 0
M  V30 591 O 55.1379 5.06659 -2.59395 0
M  V30 592 N 56.3399 5.74643 -0.822568 0
M  V30 593 H 59.1049 1.94585 -2.2794 0
M  V30 594 H 56.6659 0.936234 -1.32084 0
M  V30 595 H 58.6579 3.97403 -0.765021 0
M  V30 596 H 57.2279 3.12335 -0.128687 0
M  V30 597 H 56.4479 2.95534 -2.6087 0
M  V30 598 H 57.7359 4.10771 -3.00241 0
M  V30 599 H 57.1339 5.65266 -0.221575 0
M  V30 600 H 55.6909 6.48661 -0.638899 0
M  V30 601 N 59.124 1.23083 0.984299 0
M  V30 602 C 60.074 0.975749 2.06066 0
M  V30 603 C 61.058 -0.0768251 1.60716 0
M  V30 604 O 62.25 0.134805 1.76486 0
M  V30 605 C 59.379 0.564673 3.38624 0
M  V30 606 C 58.465 1.65244 3.90583 0
M  V30 607 N 58.856 2.88193 4.15666 0
M  V30 608 C 57.154 1.52612 4.19077 0
M  V30 609 C 57.855 3.58593 4.58024 0
M  V30 610 N 56.831 2.86093 4.62225 0
M  V30 611 H 60.633 1.90957 2.23411 0
M  V30 612 H 58.147 1.12963 1.16675 0
M  V30 613 H 60.144 0.36322 4.15315 0
M  V30 614 H 58.804 -0.362147 3.22674 0
M  V30 615 H 59.815 3.24537 4.03604 0
M  V30 616 H 56.492 0.666121 4.12152 0
M  V30 617 H 57.882 4.63974 4.85982 0
M  V30 618 N 60.6021 -1.18246 1.0419 0
M  V30 619 C 61.8511 -1.87588 0.741194 0
M  V30 620 C 62.1641 -1.81303 -0.734066 0
M  V30 621 O 63.3701 -2.46019 -1.14834 0
M  V30 622 C 61.8261 -3.36538 1.27555 0
M  V30 623 C 61.4341 -3.51349 2.77953 0
M  V30 624 C 63.1781 -4.11273 1.05143 0
M  V30 625 C 61.0851 -4.94265 3.2474 0
M  V30 626 H 60.0151 -0.702622 0.273565 0
M  V30 627 H 62.6661 -1.33601 1.25789 0
M  V30 628 H 61.0481 -3.9 0.686703 0
M  V30 629 H 62.2221 -3.08153 3.42605 0
M  V30 630 H 60.5371 -2.90022 2.98791 0
M  V30 631 H 63.1341 -5.16689 1.37611 0
M  V30 632 H 63.4771 -4.16298 -0.0112774 0
M  V30 633 H 64.0101 -3.63987 1.60495 0
M  V30 634 H 60.7491 -4.94408 4.30396 0
M  V30 635 H 60.2691 -5.38172 2.64823 0
M  V30 636 H 61.9481 -5.62987 3.18834 0
M  V30 637 N 62.0802 -0.821533 -1.34494 0
M  V30 638 C 63.0132 -0.187704 -2.27427 0
M  V30 639 C 63.9912 0.65507 -1.48821 0
M  V30 640 O 65.1752 0.619111 -1.78043 0
M  V30 641 C 62.3022 0.737996 -3.30562 0
M  V30 642 C 61.3482 -0.0270713 -4.26491 0
M  V30 643 S 62.1812 -1.37329 -5.17592 0
M  V30 644 C 63.3372 -0.452427 -6.24263 0
M  V30 645 H 63.5702 -0.975598 -2.80837 0
M  V30 646 H 61.1032 -0.61736 -1.4152 0
M  V30 647 H 63.0612 1.26654 -3.90473 0
M  V30 648 H 61.7222 1.4994 -2.76001 0
M  V30 649 H 60.9152 0.6766 -4.99438 0
M  V30 650 H 60.5172 -0.48612 -3.70827 0
M  V30 651 H 62.8092 0.356557 -6.76561 0
M  V30 652 H 63.7522 -1.15153 -6.98674 0
M  V30 653 H 64.1602 -0.0414755 -5.64485 0
M  V30 654 N 63.5583 1.46682 -0.576371 0
M  V30 655 C 64.4903 2.28341 0.198231 0
M  V30 656 C 65.5033 1.38141 0.861453 0
M  V30 657 O 66.6923 1.62797 0.732082 0
M  V30 658 C 63.7923 3.12986 1.29972 0
M  V30 659 C 62.9653 4.31271 0.729639 0
M  V30 660 C 62.0243 4.97363 1.71803 0
M  V30 661 O 61.0503 5.55156 1.25658 0
M  V30 662 N 62.2523 4.93796 3.05198 0
M  V30 663 H 65.0173 2.9546 -0.502324 0
M  V30 664 H 62.5783 1.56525 -0.413715 0
M  V30 665 H 64.5703 3.54066 1.96008 0
M  V30 666 H 63.1403 2.47984 1.90323 0
M  V30 667 H 62.3603 3.94052 -0.108012 0
M  V30 668 H 63.6483 5.07739 0.328438 0
M  V30 669 H 63.0463 4.48077 3.45317 0
M  V30 670 H 61.6033 5.38837 3.6674 0
M  V30 671 N 65.0364 0.313813 1.54444 0
M  V30 672 C 65.9994 -0.54379 2.22656 0
M  V30 673 C 66.9994 -1.05124 1.21678 0
M  V30 674 O 68.1894 -0.945225 1.46325 0
M  V30 675 C 65.3214 -1.75427 2.92298 0
M  V30 676 H 66.5144 0.0523599 2.99854 0
M  V30 677 H 64.0674 0.0647834 1.56166 0
M  V30 678 H 64.8024 -2.38991 2.19211 0
M  V30 679 H 64.5874 -1.39791 3.66334 0
M  V30 680 H 66.0774 -2.36325 3.44297 0
M  V30 681 N 66.5145 -1.57545 0.0417849 0
M  V30 682 C 67.7625 -1.91937 -0.632829 0
M  V30 683 C 68.0835 -0.919978 -1.71934 0
M  V30 684 O 67.3535 0.0366064 -1.95866 0
M  V30 685 H 65.9335 -0.708493 -0.236742 0
M  V30 686 H 68.5955 -1.9468 0.0925745 0
M  V30 687 H 67.6915 -2.92912 -1.07746 0
M  V30 688 N 67.9926 0.231505 -1.5589 0
M  V30 689 C 68.9246 1.31006 -1.8807 0
M  V30 690 C 69.9376 1.43539 -0.768145 0
M  V30 691 O 71.1266 1.44614 -1.04638 0
M  V30 692 C 68.2266 2.68688 -2.06543 0
M  V30 693 C 67.3996 2.78228 -3.37502 0
M  V30 694 C 66.4586 3.96857 -3.4553 0
M  V30 695 O 65.4846 3.85662 -4.18633 0
M  V30 696 N 66.6866 5.1072 -2.75944 0
M  V30 697 H 69.4516 1.03731 -2.81176 0
M  V30 698 H 67.0126 0.421573 -1.56315 0
M  V30 699 H 69.0046 3.46412 -2.09239 0
M  V30 700 H 67.5746 2.88605 -1.20109 0
M  V30 701 H 66.7946 1.87059 -3.46991 0
M  V30 702 H 68.0826 2.81564 -4.23791 0
M  V30 703 H 67.4806 5.2271 -2.16311 0
M  V30 704 H 66.0376 5.86523 -2.84314 0
M  V30 705 N 69.4707 1.49531 0.497807 0
M  V30 706 C 70.6987 1.62893 1.27567 0
M  V30 707 C 71.1137 0.301585 1.86376 0
M  V30 708 O 70.4707 -0.713335 1.67982 0
M  V30 709 C 70.5217 2.70013 2.40364 0
M  V30 710 O 70.2427 3.976 1.83972 0
M  V30 711 C 71.7437 2.94109 3.31685 0
M  V30 712 H 68.9637 0.548298 0.386794 0
M  V30 713 H 71.5077 1.95584 0.597245 0
M  V30 714 H 69.6627 2.40092 3.04031 0
M  V30 715 H 70.0767 4.56631 2.58047 0
M  V30 716 H 71.5507 3.72788 4.07104 0
M  V30 717 H 72.0277 2.04147 3.88871 0
M  V30 718 H 72.6337 3.2546 2.73781 0
M  V30 719 N 70.9488 -0.749086 1.3866 0
M  V30 720 C 71.8788 -1.8764 1.38973 0
M  V30 721 C 72.8598 -1.68178 0.255004 0
M  V30 722 O 74.0448 -1.88704 0.458754 0
M  V30 723 C 71.1748 -3.25222 1.21851 0
M  V30 724 C 70.1288 -3.59295 2.32575 0
M  V30 725 C 69.4548 -4.95663 2.00555 0
M  V30 726 C 70.7548 -3.63709 3.7485 0
M  V30 727 H 72.4488 -1.87635 2.3331 0
M  V30 728 H 69.9948 -0.901329 1.12303 0
M  V30 729 H 71.9478 -4.03746 1.20695 0
M  V30 730 H 70.6718 -3.25719 0.239775 0
M  V30 731 H 69.3308 -2.83093 2.32925 0
M  V30 732 H 68.9788 -4.92724 1.01154 0
M  V30 733 H 68.6788 -5.19429 2.74714 0
M  V30 734 H 70.2028 -5.7656 2.01024 0
M  V30 735 H 71.6168 -4.32338 3.76506 0
M  V30 736 H 70.0138 -3.98986 4.48252 0
M  V30 737 H 71.0838 -2.63834 4.06841 0
M  V30 738 N 72.4269 -1.23603 -0.977757 0
M  V30 739 C 73.3769 -0.986664 -2.05545 0
M  V30 740 C 74.3609 0.0683009 -1.60755 0
M  V30 741 O 75.5529 -0.144162 -1.76412 0
M  V30 742 C 72.6819 -0.582623 -3.3832 0
M  V30 743 C 71.7679 -1.67313 -3.89701 0
M  V30 744 N 72.1589 -2.90394 -4.14132 0
M  V30 745 C 70.4569 -1.54832 -4.18262 0
M  V30 746 C 71.1579 -3.61017 -4.56116 0
M  V30 747 N 70.1339 -2.8854 -4.60701 0
M  V30 748 H 73.9359 -1.92139 -2.22396 0
M  V30 749 H 71.4499 -1.1358 -1.16074 0
M  V30 750 H 73.4469 -0.38524 -4.15116 0
M  V30 751 H 72.1069 0.34503 -3.22862 0
M  V30 752 H 73.1179 -3.26673 -4.01877 0
M  V30 753 H 69.7949 -0.687969 -4.11793 0
M  V30 754 H 71.1849 -4.66544 -4.83514 0
M  V30 755 N 73.905 1.17692 -1.04816 0
M  V30 756 C 74.835 2.23777 -0.666791 0
M  V30 757 C 75.816 1.66796 0.33361 0
M  V30 758 O 77.001 1.93039 0.212042 0
M  V30 759 C 74.131 3.47281 -0.0367933 0
M  V30 760 C 73.085 4.17059 -0.961546 0
M  V30 761 C 72.411 5.34342 -0.195626 0
M  V30 762 C 73.711 4.69713 -2.28402 0
M  V30 763 H 75.405 2.55933 -1.55367 0
M  V30 764 H 72.951 1.23019 -0.748484 0
M  V30 765 H 74.904 4.20706 0.241775 0
M  V30 766 H 73.628 3.14381 0.885004 0
M  V30 767 H 72.287 3.45541 -1.22462 0
M  V30 768 H 71.935 4.97692 0.728816 0
M  V30 769 H 71.635 5.81966 -0.811775 0
M  V30 770 H 73.159 6.10553 0.0757473 0
M  V30 771 H 74.573 5.34794 -2.06563 0
M  V30 772 H 72.97 5.279 -2.8538 0
M  V30 773 H 74.04 3.86726 -2.92525 0
M  V30 774 N 75.3831 0.828654 1.34056 0
M  V30 775 C 76.3151 0.212052 2.28217 0
M  V30 776 C 77.3281 -0.601362 1.51286 0
M  V30 777 O 78.5171 -0.430104 1.73241 0
M  V30 778 C 75.6171 -0.72088 3.31144 0
M  V30 779 C 74.7901 0.0509587 4.3737 0
M  V30 780 C 73.8491 -0.803766 5.20025 0
M  V30 781 O 72.8751 -0.246667 5.68665 0
M  V30 782 N 74.0771 -2.1227 5.40298 0
M  V30 783 H 76.8421 1.02105 2.81771 0
M  V30 784 H 74.4031 0.686153 1.46641 0
M  V30 785 H 76.3951 -1.29742 3.8334 0
M  V30 786 H 74.9651 -1.43061 2.77943 0
M  V30 787 H 74.1851 0.808831 3.85813 0
M  V30 788 H 75.4731 0.582065 5.0546 0
M  V30 789 H 74.8711 -2.59898 5.02464 0
M  V30 790 H 73.4281 -2.64796 5.95589 0
M  V30 791 N 76.8612 -1.46375 0.584142 0
M  V30 792 C 78.1012 -2.0427 0.0729695 0
M  V30 793 C 78.4652 -1.44563 -1.26355 0
M  V30 794 O 79.6662 -1.93667 -1.86405 0
M  V30 795 C 77.9372 -3.57399 0.00967464 0
M  V30 796 S 79.4962 -4.36551 -0.443714 0
M  V30 797 H 76.3142 -0.709975 0.0381673 0
M  V30 798 H 78.9162 -1.79398 0.776962 0
M  V30 799 H 77.6202 -3.98372 0.986319 0
M  V30 800 H 77.1512 -3.8681 -0.717044 0
M  V30 801 H 79.1662 -4.66237 -1.69816 0
M  V30 802 N 78.3393 -0.321999 -1.54275 0
M  V30 803 C 79.7553 0.0306999 -1.5957 0
M  V30 804 C 79.9553 1.50614 -1.33857 0
M  V30 805 O 79.0113 2.2619 -1.12223 0
M  V30 806 C 80.3243 -0.386122 -2.98211 0
M  V30 807 C 81.8723 -0.336647 -3.11184 0
M  V30 808 C 82.3473 -0.728607 -4.52167 0
M  V30 809 N 83.8383 -0.681952 -4.58152 0
M  V30 810 C 84.5733 -0.957449 -5.6535 0
M  V30 811 N 84.0693 -1.3 -6.80494 0
M  V30 812 N 85.8623 -0.883113 -5.55119 0
M  V30 813 H 78.0133 -1.28332 -1.69247 0
M  V30 814 H 80.2763 -0.521716 -0.791528 0
M  V30 815 H 79.9823 -1.41404 -3.22022 0
M  V30 816 H 79.8563 0.249662 -3.76373 0
M  V30 817 H 82.2433 0.682058 -2.8711 0
M  V30 818 H 82.3243 -1.00734 -2.3513 0
M  V30 819 H 81.9683 -1.74522 -4.76974 0
M  V30 820 H 81.8983 -0.0356152 -5.26588 0
M  V30 821 H 84.3893 -0.428985 -3.75457 0
M  V30 822 H 84.7023 -1.49563 -7.58189 0
M  V30 823 H 83.0473 -1.33824 -6.81994 0
M  V30 824 H 86.2383 -0.615001 -4.64042 0
M  V30 825 H 86.4113 -1.10118 -6.38575 0
M  V30 826 N 79.8174 1.5752 -0.0501392 0
M  V30 827 C 81.0654 1.9227 0.622642 0
M  V30 828 C 81.3864 0.929083 1.71444 0
M  V30 829 O 80.6564 -0.0262186 1.95882 0
M  V30 830 H 79.2364 0.709739 0.232981 0
M  V30 831 H 81.8984 1.94628 -0.102898 0
M  V30 832 H 80.9944 2.93479 1.06191 0
M  V30 833 N 81.2955 -0.223234 1.56011 0
M  V30 834 C 82.2055 -1.29766 1.95443 0
M  V30 835 C 83.2215 -1.51373 0.858028 0
M  V30 836 O 84.3975 -1.64536 1.16146 0
M  V30 837 C 81.4625 -2.62772 2.26167 0
M  V30 838 C 80.5235 -2.49482 3.49367 0
M  V30 839 C 79.7565 -3.76145 3.78616 0
M  V30 840 O 79.9795 -4.79087 3.09568 0
M  V30 841 O 78.9135 -3.73358 4.72109 0
M  V30 842 H 82.7395 -0.99309 2.87004 0
M  V30 843 H 80.3245 -0.425958 1.43199 0
M  V30 844 H 82.2065 -3.41327 2.47131 0
M  V30 845 H 80.8815 -2.92913 1.37781 0
M  V30 846 H 79.7885 -1.69133 3.33684 0
M  V30 847 H 81.1215 -2.2428 4.38131 0
M  V30 848 N 82.7736 -1.49793 -0.48987 0
M  V30 849 C 83.7366 -1.66752 -1.57246 0
M  V30 850 C 84.7366 -0.538867 -1.51502 0
M  V30 851 O 85.9266 -0.805545 -1.54456 0
M  V30 852 C 83.0586 -1.67528 -2.96896 0
M  V30 853 H 84.2516 -2.63321 -1.43534 0
M  V30 854 H 81.8046 -1.38992 -0.714914 0
M  V30 855 H 82.5396 -0.725837 -3.16073 0
M  V30 856 H 82.3246 -2.49504 -3.02473 0
M  V30 857 H 83.8146 -1.82667 -3.7553 0
M  V30 858 N 84.2517 0.741722 -1.39055 0
M  V30 859 C 85.2147 1.83733 -1.37021 0
M  V30 860 C 86.2147 1.58542 -0.268534 0
M  V30 861 O 87.4047 1.66067 -0.526076 0
M  V30 862 C 84.5367 3.2141 -1.13617 0
M  V30 863 H 85.7297 1.86941 -2.34506 0
M  V30 864 H 83.2827 0.944676 -1.24521 0
M  V30 865 H 84.0177 3.23865 -0.167863 0
M  V30 866 H 83.8027 3.4109 -1.93391 0
M  V30 867 H 85.2927 4.01477 -1.14918 0
M  V30 868 N 85.7298 1.2412 0.971189 0
M  V30 869 C 86.6798 0.997551 2.05019 0
M  V30 870 C 87.6638 -0.0597747 1.60789 0
M  V30 871 O 88.8558 0.153516 1.76333 0
M  V30 872 C 85.9848 0.600557 3.38006 0
M  V30 873 C 85.0708 1.69377 3.88809 0
M  V30 874 N 85.4618 2.92586 4.12586 0
M  V30 875 C 83.7598 1.57048 4.17435 0
M  V30 876 C 84.4608 3.63431 4.54195 0
M  V30 877 N 83.4368 2.90979 4.59165 0
M  V30 878 H 87.2388 1.93316 2.21374 0
M  V30 879 H 84.7528 1.14194 1.1547 0
M  V30 880 H 86.7498 0.40725 4.14906 0
M  V30 881 H 85.4098 -0.327903 3.2304 0
M  V30 882 H 86.4208 3.288 4.00139 0
M  V30 883 H 83.0978 0.709798 4.11422 0
M  V30 884 H 84.4878 4.69102 4.81033 0
M  V30 885 N 87.2079 -1.17134 1.05439 0
M  V30 886 C 88.1549 -2.21235 0.657539 0
M  V30 887 C 89.1249 -1.62551 -0.341543 0
M  V30 888 O 90.3099 -1.89379 -0.232393 0
M  V30 889 C 87.4499 -3.45076 0.0410575 0
M  V30 890 C 86.5629 -4.18042 1.08927 0
M  V30 891 C 85.6979 -5.29376 0.439848 0
M  V30 892 C 84.7369 -5.94132 1.4722 0
M  V30 893 N 83.8739 -6.96975 0.846756 0
M  V30 894 H 88.7139 -2.54534 1.54972 0
M  V30 895 H 86.2509 -1.25028 0.775006 0
M  V30 896 H 88.2089 -4.15862 -0.33383 0
M  V30 897 H 86.8389 -3.12353 -0.814568 0
M  V30 898 H 85.8909 -3.45945 1.58196 0
M  V30 899 H 87.2029 -4.62306 1.87282 0
M  V30 900 H 86.3569 -6.06699 0.0115125 0
M  V30 901 H 85.0959 -4.86251 -0.375656 0
M  V30 902 H 84.1009 -5.15538 1.91052 0
M  V30 903 H 85.3259 -6.39337 2.28965 0
M  V30 904 H 83.2719 -6.5598 0.0518075 0
M  V30 905 H 83.1889 -7.39565 1.5678 0
M  V30 906 H 84.4569 -7.78239 0.443277 0
M  V30 907 N 88.686 -0.835752 -1.33615 0
M  V30 908 C 89.932 -0.439817 -1.98588 0
M  V30 909 C 90.287 0.989274 -1.65019 0
M  V30 910 O 89.58 1.68168 -0.918159 0
M  V30 911 C 89.774 -0.593925 -3.52431 0
M  V30 912 C 89.603 -2.03644 -4.00948 0
M  V30 913 C 88.373 -2.67103 -4.28934 0
M  V30 914 C 90.571 -3.00479 -4.17393 0
M  V30 915 N 88.553 -4.02462 -4.6357 0
M  V30 916 C 89.924 -4.20777 -4.55353 0
M  V30 917 C 91.979 -2.96926 -3.99674 0
M  V30 918 C 90.682 -5.37994 -4.77447 0
M  V30 919 C 92.708 -4.1337 -4.22941 0
M  V30 920 C 92.07 -5.32422 -4.61201 0
M  V30 921 H 88.169 -0.209303 -0.75347 0
M  V30 922 H 90.753 -1.08316 -1.61789 0
M  V30 923 H 88.924 0.019599 -3.88395 0
M  V30 924 H 90.656 -0.169738 -4.04344 0
M  V30 925 H 87.411 -2.18259 -4.20309 0
M  V30 926 H 87.835 -4.72232 -4.85104 0
M  V30 927 H 92.477 -2.06015 -3.69212 0
M  V30 928 H 90.195 -6.29451 -5.06771 0
M  V30 929 H 93.781 -4.12034 -4.10754 0
M  V30 930 H 92.661 -6.21027 -4.78848 0
M  V30 931 N 90.1641 1.46063 -0.591896 0
M  V30 932 C 91.3891 2.07226 -0.0850314 0
M  V30 933 C 91.8141 1.43625 1.21463 0
M  V30 934 O 91.1721 0.523305 1.73583 0
M  V30 935 C 91.2201 3.60554 0.0576567 0
M  V30 936 O 90.3241 3.97128 1.11188 0
M  V30 937 H 89.6651 0.660615 -0.0669568 0
M  V30 938 H 92.1951 1.8756 -0.81745 0
M  V30 939 H 92.2051 4.07165 0.2609 0
M  V30 940 H 90.8801 4.06235 -0.891416 0
M  V30 941 H 89.4571 3.62213 0.886356 0
M  V30 942 N 91.6422 0.330177 1.54103 0
M  V30 943 C 92.5722 -0.525353 2.27513 0
M  V30 944 C 93.5532 -1.11383 1.2856 0
M  V30 945 O 94.7382 -1.13773 1.57383 0
M  V30 946 C 91.8682 -1.6831 3.03791 0
M  V30 947 C 90.8222 -1.2236 4.10137 0
M  V30 948 C 90.1482 -2.46882 4.74293 0
M  V30 949 C 91.4482 -0.333697 5.21233 0
M  V30 950 H 93.1422 0.087013 2.99274 0
M  V30 951 H 90.6882 0.0432893 1.43935 0
M  V30 952 H 92.6412 -2.28795 3.5388 0
M  V30 953 H 91.3652 -2.32216 2.29659 0
M  V30 954 H 90.0242 -0.64165 3.60941 0
M  V30 955 H 89.6722 -3.09165 3.96769 0
M  V30 956 H 89.3722 -2.16825 5.46133 0
M  V30 957 H 90.8962 -3.08117 5.27159 0
M  V30 958 H 92.3102 -0.845013 5.67038 0
M  V30 959 H 90.7072 -0.125612 5.99969 0
M  V30 960 H 91.7772 0.633724 4.80741 0
M  V30 961 N 93.1203 -1.57491 0.0584922 0
M  V30 962 C 94.5313 -1.80526 -0.476138 0
M  V30 963 C 94.8823 -0.971334 -1.70469 0
M  V30 964 O 94.0073 -0.190012 -2.15564 0
M  V30 965 C 94.6023 -3.27424 -0.870587 0
M  V30 966 C 93.1613 -3.51351 -1.35015 0
M  V30 967 C 92.3083 -2.75343 -0.32887 0
M  V30 968 H 95.2593 -1.56133 0.284312 0
M  V30 969 H 95.2803 -3.38745 -1.73299 0
M  V30 970 H 94.7923 -3.88093 0.0237627 0
M  V30 971 H 92.8933 -2.95971 -2.26345 0
M  V30 972 H 93.0063 -4.60059 -1.33726 0
M  V30 973 H 91.3703 -2.417 -0.803321 0
M  V30 974 H 92.1533 -3.38743 0.557521 0
M  V30 975 N 94.5984 0.214957 -1.56127 0
M  V30 976 C 95.5084 1.28727 -1.96129 0
M  V30 977 C 96.5244 1.50916 -0.866044 0
M  V30 978 O 97.7004 1.63918 -1.17016 0
M  V30 979 C 94.7654 2.61569 -2.27558 0
M  V30 980 C 93.8264 2.47625 -3.50685 0
M  V30 981 C 93.0594 3.74132 -3.80606 0
M  V30 982 O 93.2824 4.77438 -3.12104 0
M  V30 983 O 92.2164 3.70849 -4.74083 0
M  V30 984 H 96.0424 0.977855 -2.87527 0
M  V30 985 H 93.6274 0.418358 -1.43423 0
M  V30 986 H 95.5094 3.40012 -2.48938 0
M  V30 987 H 94.1844 2.92178 -1.39332 0
M  V30 988 H 93.0914 1.67361 -3.34576 0
M  V30 989 H 94.4244 2.21954 -4.39315 0
M  V30 990 N 96.0765 1.50051 0.48192 0
M  V30 991 C 97.0095 1.62749 1.59963 0
M  V30 992 C 97.9875 0.475903 1.5548 0
M  V30 993 O 99.1715 0.693986 1.7526 0
M  V30 994 C 96.2985 1.60008 2.98522 0
M  V30 995 C 95.3445 2.80596 3.21198 0
M  V30 996 S 96.1775 4.42038 3.02262 0
M  V30 997 C 97.3335 4.41973 4.43182 0
M  V30 998 H 97.5665 2.57296 1.4895 0
M  V30 999 H 95.0995 1.39179 0.668477 0
M  V30 1000 H 97.0575 1.59112 3.78409 0
M  V30 1001 H 95.7185 0.667153 3.06933 0
M  V30 1002 H 94.9115 2.74952 4.22395 0
M  V30 1003 H 94.5135 2.79003 2.49065 0
M  V30 1004 H 96.8055 4.14868 5.35622 0
M  V30 1005 H 97.7485 5.43512 4.53873 0
M  V30 1006 H 98.1565 3.71812 4.24755 0
M  V30 1007 N 97.5546 -0.734337 1.39446 0
M  V30 1008 C 98.8006 -1.49613 1.36908 0
M  V30 1009 C 99.1336 -1.94169 -0.0347829 0
M  V30 1010 O 98.4086 -1.66833 -0.999847 0
M  V30 1011 C 98.6916 -2.73534 2.34203 0
M  V30 1012 C 98.5446 -2.34993 3.83534 0
M  V30 1013 C 99.8636 -3.75635 2.29317 0
M  V30 1014 H 96.9826 -0.542714 0.498629 0
M  V30 1015 H 99.6246 -0.839597 1.70443 0
M  V30 1016 H 97.7746 -3.29553 2.05736 0
M  V30 1017 H 99.4466 -1.84601 4.22753 0
M  V30 1018 H 97.6896 -1.67213 4.00278 0
M  V30 1019 H 98.3606 -3.23738 4.47099 0
M  V30 1020 H 100.837 -3.29203 2.54489 0
M  V30 1021 H 99.7126 -4.60008 2.99472 0
M  V30 1022 H 99.9736 -4.22603 1.29842 0
M  V30 1023 N 99.0327 -1.24633 -0.964593 0
M  V30 1024 C 100.258 -1.11596 -1.74818 0
M  V30 1025 C 100.683 0.32723 -1.85232 0
M  V30 1026 O 100.041 1.23695 -1.32549 0
M  V30 1027 C 100.089 -1.76397 -3.1451 0
M  V30 1028 O 99.1927 -1.03685 -3.99153 0
M  V30 1029 H 98.5337 -0.390196 -0.537255 0
M  V30 1030 H 101.064 -1.65002 -1.20977 0
M  V30 1031 H 101.074 -1.8228 -3.65018 0
M  V30 1032 H 99.7487 -2.81401 -3.06246 0
M  V30 1033 H 98.3257 -1.05611 -3.57632 0
M  V30 1034 N 100.511 1.16574 -1.06058 0
M  V30 1035 C 101.458 2.20883 -0.669263 0
M  V30 1036 C 102.428 1.62729 0.332918 0
M  V30 1037 O 103.613 1.895 0.222346 0
M  V30 1038 C 100.753 3.45049 -0.0593572 0
M  V30 1039 C 99.8658 4.17458 -1.11143 0
M  V30 1040 C 99.0008 5.29135 -0.467916 0
M  V30 1041 C 98.0398 5.93343 -1.50369 0
M  V30 1042 N 97.1768 6.96516 -0.883706 0
M  V30 1043 H 102.017 2.53709 -1.5632 0
M  V30 1044 H 99.5538 1.24616 -0.781625 0
M  V30 1045 H 101.512 4.16033 0.311771 0
M  V30 1046 H 100.142 3.12781 0.797992 0
M  V30 1047 H 99.1938 3.45101 -1.60029 0
M  V30 1048 H 100.506 4.61307 -1.89731 0
M  V30 1049 H 99.6598 6.06684 -0.0436871 0
M  V30 1050 H 98.3988 4.86443 0.349864 0
M  V30 1051 H 97.4038 5.14517 -1.93784 0
M  V30 1052 H 98.6288 6.38114 -2.32352 0
M  V30 1053 H 96.5748 6.55943 -0.086595 0
M  V30 1054 H 96.4918 7.38723 -1.607 0
M  V30 1055 H 97.7598 7.77993 -0.484543 0
M  V30 1056 N 101.989 0.842826 1.3317 0
M  V30 1057 C 102.899 0.281444 2.32906 0
M  V30 1058 C 103.915 -0.594587 1.63526 0
M  V30 1059 O 105.091 -0.49777 1.95152 0
M  V30 1060 C 102.156 -0.530929 3.42611 0
M  V30 1061 C 101.217 0.369843 4.27704 0
M  V30 1062 C 100.45 -0.403853 5.3217 0
M  V30 1063 O 100.673 -1.63513 5.46461 0
M  V30 1064 O 99.6069 0.224199 6.01482 0
M  V30 1065 H 103.433 1.10744 2.82789 0
M  V30 1066 H 101.018 0.60545 1.36582 0
M  V30 1067 H 102.9 -0.992437 4.09547 0
M  V30 1068 H 101.575 -1.33392 2.94938 0
M  V30 1069 H 100.482 0.879275 3.6362 0
M  V30 1070 H 101.815 1.13771 4.78871 0
M  V30 1071 N 103.467 -1.45747 0.599634 0
M  V30 1072 C 104.692 -2.07178 0.0960198 0
M  V30 1073 C 105.117 -1.44268 -1.207 0
M  V30 1074 O 104.475 -0.532503 -1.73303 0
M  V30 1075 C 104.523 -3.60579 -0.0385348 0
M  V30 1076 O 103.627 -3.97713 -1.0908 0
M  V30 1077 H 102.968 -0.660251 0.0704593 0
M  V30 1078 H 105.498 -1.87124 0.827385 0
M  V30 1079 H 105.508 -4.07298 -0.239304 0
M  V30 1080 H 104.183 -4.05756 0.912947 0
M  V30 1081 H 102.76 -3.62678 -0.867135 0
M  V30 1082 N 104.945 -0.338344 -1.53925 0
M  V30 1083 C 105.855 0.529421 -2.28548 0
M  V30 1084 C 106.871 1.11645 -1.3346 0
M  V30 1085 O 108.047 1.13325 -1.66492 0
M  V30 1086 C 105.112 1.66713 -3.03987 0
M  V30 1087 C 104.173 1.11041 -4.14691 0
M  V30 1088 C 103.406 2.19389 -4.86522 0
M  V30 1089 O 103.629 3.40013 -4.57982 0
M  V30 1090 O 102.563 1.83976 -5.73094 0
M  V30 1091 H 106.389 -0.0770399 -3.03602 0
M  V30 1092 H 103.974 -0.103555 -1.49041 0
M  V30 1093 H 105.856 2.32918 -3.5118 0
M  V30 1094 H 104.531 2.25949 -2.31794 0
M  V30 1095 H 103.438 0.413024 -3.71813 0
M  V30 1096 H 104.771 0.562975 -4.8897 0
M  V30 1097 N 106.423 1.57458 -0.0668435 0
M  V30 1098 C 107.839 1.56947 0.289772 0
M  V30 1099 C 108.039 1.07584 1.70376 0
M  V30 1100 O 107.095 0.739486 2.41429 0
M  V30 1101 C 108.408 3.0052 0.103943 0
M  V30 1102 C 109.956 3.12517 0.173857 0
M  V30 1103 C 110.431 4.57997 0.0163682 0
M  V30 1104 N 111.922 4.63144 0.0721352 0
M  V30 1105 C 112.657 5.73394 -0.0253794 0
M  V30 1106 N 112.153 6.92576 -0.176133 0
M  V30 1107 N 113.946 5.62091 0.0313305 0
M  V30 1108 H 106.097 1.87863 -0.991027 0
M  V30 1109 H 108.36 0.86583 -0.38606 0
M  V30 1110 H 108.066 3.40729 -0.871572 0
M  V30 1111 H 107.94 3.67304 0.858366 0
M  V30 1112 H 110.327 2.72197 1.13985 0
M  V30 1113 H 110.408 2.48381 -0.611586 0
M  V30 1114 H 110.052 4.99005 -0.946374 0
M  V30 1115 H 109.982 5.20158 0.821153 0
M  V30 1116 H 112.473 3.77436 0.187263 0
M  V30 1117 H 112.786 7.72418 -0.242821 0
M  V30 1118 H 111.131 6.94678 -0.211429 0
M  V30 1119 H 114.322 4.67867 0.147773 0
M  V30 1120 H 114.495 6.47982 -0.048121 0
M  V30 1121 N 107.901 -0.206675 1.56239 0
M  V30 1122 C 108.831 -1.25909 1.96645 0
M  V30 1123 C 109.812 -1.48097 0.836734 0
M  V30 1124 O 110.997 -1.6003 1.10019 0
M  V30 1125 C 108.127 -2.6058 2.29599 0
M  V30 1126 C 107.081 -2.53024 3.452 0
M  V30 1127 C 106.407 -3.91861 3.63798 0
M  V30 1128 C 107.707 -2.06524 4.79734 0
M  V30 1129 H 109.401 -0.923369 2.84806 0
M  V30 1130 H 106.947 -0.442735 1.37025 0
M  V30 1131 H 108.9 -3.34375 2.56459 0
M  V30 1132 H 107.624 -2.95869 1.38307 0
M  V30 1133 H 106.283 -1.81684 3.18412 0
M  V30 1134 H 105.931 -4.24483 2.69857 0
M  V30 1135 H 105.631 -3.87683 4.4156 0
M  V30 1136 H 107.155 -4.67296 3.93022 0
M  V30 1137 H 108.569 -2.70072 5.05702 0
M  V30 1138 H 106.966 -2.13374 5.60885 0
M  V30 1139 H 108.036 -1.01802 4.74093 0
M  V30 1140 N 109.379 -1.50304 -0.473955 0
M  V30 1141 C 110.604 -1.65175 -1.25427 0
M  V30 1142 C 111.029 -0.333673 -1.85117 0
M  V30 1143 O 110.387 0.702114 -1.67153 0
M  V30 1144 C 110.435 -2.74295 -2.34082 0
M  V30 1145 O 109.539 -2.35349 -3.38651 0
M  V30 1146 H 108.88 -0.551944 -0.369126 0
M  V30 1147 H 111.41 -1.96662 -0.564364 0
M  V30 1148 H 111.42 -2.97285 -2.79438 0
M  V30 1149 H 110.095 -3.69959 -1.90008 0
M  V30 1150 H 108.672 -2.22794 -2.99027 0
M  V30 1151 N 110.857 0.726932 -1.39834 0
M  V30 1152 C 112.106 1.48214 -1.36805 0
M  V30 1153 C 112.419 1.95576 0.0305291 0
M  V30 1154 O 113.625 2.7088 0.183417 0
M  V30 1155 C 112.081 2.67854 -2.40379 0
M  V30 1156 C 111.689 2.27408 -3.85992 0
M  V30 1157 C 113.433 3.45641 -2.46439 0
M  V30 1158 C 111.34 3.43819 -4.81189 0
M  V30 1159 H 110.27 0.556606 -0.508631 0
M  V30 1160 H 112.921 0.792216 -1.65518 0
M  V30 1161 H 111.303 3.3896 -2.04749 0
M  V30 1162 H 112.477 1.63795 -4.30706 0
M  V30 1163 H 110.792 1.62692 -3.83302 0
M  V30 1164 H 113.389 4.32244 -3.14753 0
M  V30 1165 H 113.732 3.88669 -1.49139 0
M  V30 1166 H 114.265 2.8157 -2.81004 0
M  V30 1167 H 111.004 3.05834 -5.79781 0
M  V30 1168 H 110.524 4.06385 -4.41148 0
M  V30 1169 H 112.203 4.10043 -5.00474 0
M  V30 1170 N 112.336 1.25143 0.95797 0
M  V30 1171 C 113.564 1.12424 1.73691 0
M  V30 1172 C 113.979 -0.322304 1.86029 0
M  V30 1173 O 113.336 -1.22186 1.35561 0
M  V30 1174 C 113.387 1.76933 3.15241 0
M  V30 1175 O 113.108 3.15932 3.03511 0
M  V30 1176 C 114.609 1.6995 4.09429 0
M  V30 1177 H 111.829 0.3923 0.544373 0
M  V30 1178 H 114.373 1.6544 1.20207 0
M  V30 1179 H 112.528 1.27895 3.6568 0
M  V30 1180 H 112.942 3.47598 3.9278 0
M  V30 1181 H 114.416 2.19753 5.06372 0
M  V30 1182 H 114.893 0.662619 4.34173 0
M  V30 1183 H 115.499 2.18461 3.64904 0
M  V30 1184 N 113.814 -1.1601 1.06675 0
M  V30 1185 C 114.761 -2.20525 0.680967 0
M  V30 1186 C 115.731 -1.62904 -0.324283 0
M  V30 1187 O 116.916 -1.89615 -0.212294 0
M  V30 1188 C 114.056 -3.45013 0.0776551 0
M  V30 1189 C 113.169 -4.16863 1.13355 0
M  V30 1190 C 112.304 -5.2888 0.49597 0
M  V30 1191 C 111.343 -5.92537 1.53513 0
M  V30 1192 N 110.48 -6.96038 0.920631 0
M  V30 1193 H 115.32 -2.52876 1.57663 0
M  V30 1194 H 112.857 -1.24199 0.788223 0
M  V30 1195 H 114.815 -4.16193 -0.289704 0
M  V30 1196 H 113.445 -3.132 -0.781393 0
M  V30 1197 H 112.497 -3.44248 1.61857 0
M  V30 1198 H 113.809 -4.60294 1.92174 0
M  V30 1199 H 112.963 -6.06653 0.0758604 0
M  V30 1200 H 111.702 -4.86622 -0.324062 0
M  V30 1201 H 110.707 -5.13482 1.9651 0
M  V30 1202 H 111.932 -6.36873 2.35733 0
M  V30 1203 H 109.878 -6.55888 0.12138 0
M  V30 1204 H 109.795 -7.3786 1.64616 0
M  V30 1205 H 111.063 -7.77725 0.525795 0
M  V30 1206 N 115.292 -0.849877 -1.32721 0
M  V30 1207 C 116.517 -0.463856 -2.02146 0
M  V30 1208 C 116.942 0.930449 -1.63476 0
M  V30 1209 O 116.3 1.61033 -0.832952 0
M  V30 1210 C 116.348 -0.604955 -3.55489 0
M  V30 1211 O 115.452 0.36425 -4.10788 0
M  V30 1212 H 114.793 -0.187046 -0.637111 0
M  V30 1213 H 117.323 -1.14775 -1.69375 0
M  V30 1214 H 117.333 -0.490696 -4.05038 0
M  V30 1215 H 116.008 -1.62174 -3.82978 0
M  V30 1216 H 114.585 0.206628 -3.72327 0
M  V30 1217 N 116.77 1.45427 -0.607355 0
M  V30 1218 C 117.733 2.28974 0.101693 0
M  V30 1219 C 118.733 1.39754 0.795329 0
M  V30 1220 O 119.923 1.61878 0.643527 0
M  V30 1221 C 117.055 3.20768 1.15414 0
M  V30 1222 H 118.248 2.93147 -0.632844 0
M  V30 1223 H 115.801 1.51945 -0.366391 0
M  V30 1224 H 116.536 2.61395 1.91945 0
M  V30 1225 H 116.321 3.86489 0.66098 0
M  V30 1226 H 117.811 3.83589 1.65073 0
M  V30 1227 N 118.248 0.346503 1.53744 0
M  V30 1228 C 119.488 -0.249413 2.02873 0
M  V30 1229 C 119.852 -1.47532 1.22876 0
M  V30 1230 O 121.053 -2.1456 1.61918 0
M  V30 1231 C 119.324 -0.552909 3.53097 0
M  V30 1232 S 120.883 -1.12521 4.24128 0
M  V30 1233 H 117.701 -0.074042 0.707134 0
M  V30 1234 H 120.303 0.48495 1.8939 0
M  V30 1235 H 119.007 0.347083 4.0893 0
M  V30 1236 H 118.538 -1.31686 3.70705 0
M  V30 1237 H 120.553 -2.41075 4.33702 0
M  V30 1238 N 119.726 -1.57421 0.075193 0
M  V30 1239 C 120.974 -1.93236 -0.591974 0
M  V30 1240 C 121.295 -0.956241 -1.69944 0
M  V30 1241 O 120.565 -0.00494792 -1.95899 0
M  V30 1242 H 119.145 -0.713355 -0.22166 0
M  V30 1243 H 121.807 -1.9444 0.133848 0
M  V30 1244 H 120.903 -2.95131 -1.01509 0
M  V30 1245 N 121.204 0.198386 -1.56346 0
M  V30 1246 C 122.62 0.549085 -1.49857 0
M  V30 1247 C 122.82 1.86016 -0.774611 0
M  V30 1248 O 121.876 2.50416 -0.323776 0
M  V30 1249 C 123.189 0.606868 -2.94512 0
M  V30 1250 C 124.737 0.695925 -3.05165 0
M  V30 1251 C 125.212 0.784848 -4.51225 0
M  V30 1252 N 126.703 0.848463 -4.55363 0
M  V30 1253 C 127.438 0.937378 -5.65686 0
M  V30 1254 N 126.934 0.9888 -6.85707 0
M  V30 1255 N 128.727 0.974312 -5.53592 0
M  V30 1256 H 120.878 -0.661655 -2.01831 0
M  V30 1257 H 123.141 -0.235261 -0.918344 0
M  V30 1258 H 122.847 -0.28732 -3.50524 0
M  V30 1259 H 122.721 1.46268 -3.47686 0
M  V30 1260 H 125.108 1.58055 -2.49204 0
M  V30 1261 H 125.189 -0.186022 -2.55123 0
M  V30 1262 H 124.833 -0.0954072 -5.0781 0
M  V30 1263 H 124.763 1.68255 -4.98997 0
M  V30 1264 H 127.254 0.818103 -3.68938 0
M  V30 1265 H 127.567 1.05707 -7.65536 0
M  V30 1266 H 125.912 0.957534 -6.88372 0
M  V30 1267 H 129.103 0.930954 -4.58749 0
M  V30 1268 H 129.276 1.04015 -6.39597 0
M  V30 1269 N 122.682 1.50554 0.465978 0
M  V30 1270 C 123.63 1.70324 1.58406 0
M  V30 1271 C 124.624 0.569139 1.59553 0
M  V30 1272 O 125.83 0.749776 1.63641 0
M  V30 1273 H 122.205 0.537688 0.525734 0
M  V30 1274 H 124.176 2.64104 1.38894 0
M  V30 1275 C 122.925 1.81928 2.96307 0
M  V30 1276 H 122.248 2.68586 2.96144 0
M  V30 1277 H 123.688 1.99784 3.73982 0
M  V30 1278 C 122.147 0.572095 3.32007 0
M  V30 1279 O 122.677 -0.286416 4.00678 0
M  V30 1280 N 120.883 0.424606 2.87481 0
M  V30 1281 H 120.43 1.12427 2.31771 0
M  V30 1282 H 120.388 -0.408697 3.11732 0
M  V30 1283 N 124.16 -0.719506 1.40217 0
M  V30 1284 C 125.408 -1.47641 1.3801 0
M  V30 1285 C 125.729 -1.94992 -0.018145 0
M  V30 1286 O 124.999 -1.70073 -0.972207 0
M  V30 1287 H 123.579 -0.547744 0.507923 0
M  V30 1288 H 126.241 -0.853187 1.75233 0
M  V30 1289 H 125.337 -2.35112 2.05253 0
M  V30 1290 N 125.638 -1.25649 -0.95132 0
M  V30 1291 C 126.585 -1.06323 -2.04851 0
M  V30 1292 C 127.555 0.0286491 -1.66075 0
M  V30 1293 O 128.74 -0.12917 -1.90362 0
M  V30 1294 C 125.88 -0.691529 -3.381 0
M  V30 1295 C 124.993 -1.85861 -3.89974 0
M  V30 1296 C 124.128 -1.43096 -5.11563 0
M  V30 1297 C 123.167 -2.56696 -5.55674 0
M  V30 1298 N 122.304 -2.14684 -6.68472 0
M  V30 1299 H 127.144 -2.00222 -2.20715 0
M  V30 1300 H 124.681 -0.997027 -1.08156 0
M  V30 1301 H 126.639 -0.456963 -4.1469 0
M  V30 1302 H 125.269 0.210474 -3.22113 0
M  V30 1303 H 124.321 -2.20639 -3.09875 0
M  V30 1304 H 125.633 -2.71161 -4.18657 0
M  V30 1305 H 124.787 -1.15624 -5.9558 0
M  V30 1306 H 123.526 -0.548722 -4.84603 0
M  V30 1307 H 122.531 -2.84909 -4.7022 0
M  V30 1308 H 123.756 -3.45503 -5.8464 0
M  V30 1309 H 121.702 -1.28881 -6.43215 0
M  V30 1310 H 121.619 -2.9353 -6.96689 0
M  V30 1311 H 122.887 -1.90397 -7.5589 0
M  V30 1312 N 127.117 1.15442 -1.07289 0
M  V30 1313 C 128.049 2.19773 -0.650585 0
M  V30 1314 C 129.062 1.60076 0.296572 0
M  V30 1315 O 130.251 1.78293 0.0859905 0
M  V30 1316 C 127.351 3.38838 0.0650398 0
M  V30 1317 C 126.524 4.2808 -0.898141 0
M  V30 1318 C 125.583 5.2574 -0.219926 0
M  V30 1319 O 124.609 5.62654 -0.860773 0
M  V30 1320 N 125.811 5.71205 1.03466 0
M  V30 1321 H 128.576 2.56622 -1.54808 0
M  V30 1322 H 126.137 1.30551 -0.957494 0
M  V30 1323 H 128.129 4.01222 0.529415 0
M  V30 1324 H 126.699 3.00409 0.864466 0
M  V30 1325 H 125.919 3.62804 -1.54165 0
M  V30 1326 H 127.207 4.84577 -1.5512 0
M  V30 1327 H 126.605 5.43325 1.57526 0
M  V30 1328 H 125.162 6.35633 1.44272 0
M  V30 1329 N 128.595 0.856903 1.32268 0
M  V30 1330 C 129.842 0.461386 1.97174 0
M  V30 1331 C 130.17 -0.983491 1.67803 0
M  V30 1332 O 129.425 -1.70541 0.959903 0
M  V30 1333 C 129.724 0.649919 3.51441 0
M  V30 1334 C 129.39 2.0656 4.00804 0
M  V30 1335 C 128.052 2.45279 4.13995 0
M  V30 1336 C 130.404 2.98947 4.26943 0
M  V30 1337 C 127.732 3.75653 4.50668 0
M  V30 1338 C 130.084 4.28822 4.65075 0
M  V30 1339 C 128.748 4.67472 4.76472 0
M  V30 1340 H 128.018 0.168833 0.72151 0
M  V30 1341 H 130.665 1.08739 1.57633 0
M  V30 1342 H 128.97 -0.0593018 3.91755 0
M  V30 1343 H 130.667 0.32391 3.9969 0
M  V30 1344 H 127.257 1.75495 3.91024 0
M  V30 1345 H 131.441 2.70265 4.16258 0
M  V30 1346 H 126.697 4.05379 4.57688 0
M  V30 1347 H 130.871 5.0047 4.84255 0
M  V30 1348 H 128.498 5.68539 5.04646 0
M  V30 1349 N 130.073 -1.45103 0.615059 0
M  V30 1350 C 131.313 -2.04069 0.116282 0
M  V30 1351 C 131.677 -1.4721 -1.2326 0
M  V30 1352 O 132.878 -1.97577 -1.82255 0
M  V30 1353 C 131.149 -3.57298 0.085482 0
M  V30 1354 S 132.708 -4.37394 -0.351015 0
M  V30 1355 H 129.526 -0.709006 0.0532183 0
M  V30 1356 H 132.128 -1.77709 0.81484 0
M  V30 1357 H 130.832 -3.9619 1.0706 0
M  V30 1358 H 130.363 -3.88244 -0.634835 0
M  V30 1359 H 132.378 -4.69734 -1.59889 0
M  V30 1360 N 131.551 -0.354651 -1.53558 0
M  V30 1361 C 132.776 0.242153 -2.05981 0
M  V30 1362 C 133.201 1.42553 -1.2272 0
M  V30 1363 O 132.559 1.79656 -0.243604 0
M  V30 1364 C 132.607 0.624367 -3.55154 0
M  V30 1365 O 131.711 1.72301 -3.74681 0
M  V30 1366 H 131.052 0.0378432 -0.662921 0
M  V30 1367 H 133.582 -0.512087 -1.98088 0
M  V30 1368 H 133.592 0.898433 -3.97985 0
M  V30 1369 H 132.267 -0.240989 -4.15201 0
M  V30 1370 H 130.844 1.44535 -3.4375 0
M  V30 1371 N 133.029 1.57378 -0.0835403 0
M  V30 1372 C 134.257 1.98263 0.59157 0
M  V30 1373 C 134.672 0.962302 1.62435 0
M  V30 1374 O 134.029 -0.049581 1.82433 0
M  V30 1375 C 134.08 3.39214 1.24965 0
M  V30 1376 O 133.801 4.37339 0.258186 0
M  V30 1377 C 135.302 3.95038 2.01147 0
M  V30 1378 H 132.522 0.651773 0.159477 0
M  V30 1379 H 135.066 2.03878 -0.159415 0
M  V30 1380 H 133.221 3.34649 1.95164 0
M  V30 1381 H 133.635 5.19371 0.731734 0
M  V30 1382 H 135.109 4.95848 2.42567 0
M  V30 1383 H 135.586 3.32222 2.87272 0
M  V30 1384 H 136.192 4.0304 1.35789 0
M  V30 1385 N 134.507 -0.190092 1.56449 0
M  V30 1386 C 135.437 -1.23816 1.97969 0
M  V30 1387 C 136.418 -1.47201 0.852395 0
M  V30 1388 O 137.603 -1.58854 1.1171 0
M  V30 1389 C 134.733 -2.5813 2.3235 0
M  V30 1390 C 133.687 -2.49348 3.47864 0
M  V30 1391 C 133.013 -3.8798 3.67934 0
M  V30 1392 C 134.313 -2.01424 4.81898 0
M  V30 1393 H 136.007 -0.89311 2.85769 0
M  V30 1394 H 133.553 -0.428177 1.37487 0
M  V30 1395 H 135.506 -3.31637 2.59991 0
M  V30 1396 H 134.23 -2.94386 1.41438 0
M  V30 1397 H 132.889 -1.78297 3.20321 0
M  V30 1398 H 132.537 -4.21597 2.74344 0
M  V30 1399 H 132.237 -3.82978 4.45648 0
M  V30 1400 H 133.761 -4.63101 3.97957 0
M  V30 1401 H 135.175 -2.64693 5.08538 0
M  V30 1402 H 133.572 -2.07413 5.63116 0
M  V30 1403 H 134.642 -0.967677 4.75146 0
M  V30 1404 N 135.985 -1.50799 -0.457987 0
M  V30 1405 C 137.213 -1.66218 -1.23203 0
M  V30 1406 C 137.628 -0.350894 -1.85511 0
M  V30 1407 O 136.985 0.668546 -1.69814 0
M  V30 1408 C 137.036 -2.76291 -2.33121 0
M  V30 1409 O 136.757 -4.02338 -1.73366 0
M  V30 1410 C 138.258 -3.028 -3.2377 0
M  V30 1411 H 135.478 -0.558361 -0.372121 0
M  V30 1412 H 138.022 -1.97099 -0.545179 0
M  V30 1413 H 136.177 -2.48068 -2.97558 0
M  V30 1414 H 136.591 -4.63312 -2.4585 0
M  V30 1415 H 138.065 -3.8345 -3.97077 0
M  V30 1416 H 138.542 -2.14385 -3.83322 0
M  V30 1417 H 139.148 -3.32604 -2.65056 0
M  V30 1418 N 137.463 0.71206 -1.40597 0
M  V30 1419 C 138.393 1.83889 -1.43899 0
M  V30 1420 C 139.374 1.67442 -0.299504 0
M  V30 1421 O 140.559 1.87421 -0.508624 0
M  V30 1422 C 137.689 3.21877 -1.30431 0
M  V30 1423 C 136.643 3.53002 -2.42019 0
M  V30 1424 C 135.969 4.90172 -2.13626 0
M  V30 1425 C 137.269 3.53643 -3.84362 0
M  V30 1426 H 138.963 1.81383 -2.38203 0
M  V30 1427 H 136.509 0.871237 -1.14654 0
M  V30 1428 H 138.462 4.00404 -1.31357 0
M  V30 1429 H 137.186 3.24968 -0.326049 0
M  V30 1430 H 135.845 2.76818 -2.40349 0
M  V30 1431 H 135.493 4.89869 -1.14182 0
M  V30 1432 H 135.193 5.11962 -2.88389 0
M  V30 1433 H 136.717 5.71028 -2.1624 0
M  V30 1434 H 138.131 4.22203 -3.87837 0
M  V30 1435 H 136.528 3.86961 -4.58673 0
M  V30 1436 H 137.598 2.52954 -4.13693 0
M  V30 1437 N 138.941 1.26152 0.944643 0
M  V30 1438 C 139.889 1.07215 2.06417 0
M  V30 1439 C 140.883 9.2007e-05 1.694 0
M  V30 1440 O 142.089 0.1565 1.79318 0
M  V30 1441 H 138.464 0.329837 0.675805 0
M  V30 1442 H 140.435 2.02099 2.19541 0
M  V30 1443 C 139.184 0.718197 3.40202 0
M  V30 1444 H 138.507 1.53497 3.69159 0
M  V30 1445 H 139.947 0.625459 4.19361 0
M  V30 1446 C 138.406 -0.576435 3.31932 0
M  V30 1447 O 138.936 -1.61574 3.67773 0
M  V30 1448 N 137.142 -0.565781 2.85039 0
M  V30 1449 H 136.689 0.280367 2.5607 0
M  V30 1450 H 136.647 -1.43213 2.79888 0
M  V30 1451 N 140.419 -1.14872 1.07899 0
M  V30 1452 C 141.647 -1.89661 0.82683 0
M  V30 1453 C 142.062 -1.78312 -0.620519 0
M  V30 1454 O 141.419 -1.13888 -1.42604 0
M  V30 1455 C 141.47 -3.39817 1.23316 0
M  V30 1456 O 141.191 -3.50845 2.62372 0
M  V30 1457 C 142.692 -4.31615 1.0111 0
M  V30 1458 H 139.912 -0.60092 0.298557 0
M  V30 1459 H 142.456 -1.4551 1.43691 0
M  V30 1460 H 140.611 -3.8161 0.667286 0
M  V30 1461 H 141.025 -4.44076 2.79101 0
M  V30 1462 H 142.499 -5.35367 1.34486 0
M  V30 1463 H 142.976 -4.39169 -0.0522168 0
M  V30 1464 H 143.582 -3.95572 1.56215 0
M  V30 1465 N 141.898 -0.863906 -1.31812 0
M  V30 1466 C 142.861 -0.320212 -2.26952 0
M  V30 1467 C 143.861 0.525369 -1.51975 0
M  V30 1468 O 145.051 0.335547 -1.70938 0
M  V30 1469 C 142.183 0.545919 -3.365 0
M  V30 1470 H 143.376 -1.16004 -2.76556 0
M  V30 1471 H 140.929 -0.638995 -1.42641 0
M  V30 1472 H 141.664 1.40718 -2.92179 0
M  V30 1473 H 141.449 -0.0594674 -3.92055 0
M  V30 1474 H 142.939 0.918796 -4.07367 0
M  V30 1475 N 143.376 1.44774 -0.622745 0
M  V30 1476 C 144.308 2.28856 0.125485 0
M  V30 1477 C 145.321 1.40811 0.817069 0
M  V30 1478 O 146.51 1.65044 0.679918 0
M  V30 1479 C 143.61 3.16963 1.19949 0
M  V30 1480 C 142.783 4.33374 0.592064 0
M  V30 1481 C 141.842 5.02577 1.55893 0
M  V30 1482 O 140.868 5.58873 1.07933 0
M  V30 1483 N 142.07 5.03256 2.89334 0
M  V30 1484 H 144.835 2.93713 -0.596068 0
M  V30 1485 H 142.396 1.55129 -0.463303 0
M  V30 1486 H 144.388 3.60123 1.84644 0
M  V30 1487 H 142.958 2.53913 1.82337 0
M  V30 1488 H 142.178 3.93509 -0.233322 0
M  V30 1489 H 143.466 5.08527 0.166738 0
M  V30 1490 H 142.864 4.58836 3.30887 0
M  V30 1491 H 141.421 5.50232 3.49412 0
M  V30 1492 N 144.854 0.36279 1.53368 0
M  V30 1493 C 145.817 -0.472679 2.24273 0
M  V30 1494 C 146.817 -1.012 1.24961 0
M  V30 1495 O 148.007 -0.898194 1.49259 0
M  V30 1496 C 145.139 -1.66039 2.97731 0
M  V30 1497 H 146.332 0.14773 2.99536 0
M  V30 1498 H 143.885 0.114434 1.55881 0
M  V30 1499 H 144.62 -2.31896 2.26704 0
M  V30 1500 H 144.405 -1.28066 3.70596 0
M  V30 1501 H 145.895 -2.25252 3.51641 0
M  V30 1502 N 146.332 -1.57332 0.0918853 0
M  V30 1503 C 147.28 -2.15075 -0.885747 0
M  V30 1504 C 148.274 -1.09277 -1.29441 0
M  V30 1505 O 149.48 -1.27627 -1.26931 0
M  V30 1506 H 145.855 -0.687966 -0.303656 0
M  V30 1507 H 147.826 -2.96047 -0.373995 0
M  V30 1508 C 146.575 -2.74325 -2.13638 0
M  V30 1509 H 145.898 -3.55418 -1.8308 0
M  V30 1510 H 147.338 -3.183 -2.80109 0
M  V30 1511 C 145.797 -1.70062 -2.90827 0
M  V30 1512 O 146.327 -1.13763 -3.85254 0
M  V30 1513 N 144.533 -1.40628 -2.54307 0
M  V30 1514 H 144.08 -1.866 -1.7759 0
M  V30 1515 H 144.038 -0.711043 -3.06254 0
M  V30 1516 N 147.81 0.181792 -1.56548 0
M  V30 1517 C 148.76 1.22961 -1.92002 0
M  V30 1518 C 149.744 1.40331 -0.787146 0
M  V30 1519 O 150.936 1.42478 -1.05019 0
M  V30 1520 C 148.065 2.57144 -2.27446 0
M  V30 1521 C 147.151 2.43512 -3.47222 0
M  V30 1522 N 147.542 1.99577 -4.64761 0
M  V30 1523 C 145.84 2.74368 -3.51622 0
M  V30 1524 C 146.541 1.98156 -5.46909 0
M  V30 1525 N 145.517 2.40164 -4.8767 0
M  V30 1526 H 149.319 0.881462 -2.8037 0
M  V30 1527 H 146.833 0.390141 -1.57644 0
M  V30 1528 H 148.83 3.32847 -2.51035 0
M  V30 1529 H 147.49 2.92771 -1.40411 0
M  V30 1530 H 148.501 1.70078 -4.89177 0
M  V30 1531 H 145.178 3.14102 -2.75038 0
M  V30 1532 H 146.568 1.65975 -6.51077 0
M  V30 1533 N 149.288 1.51039 0.449983 0
M  V30 1534 C 150.516 1.66869 1.2232 0
M  V30 1535 C 150.931 0.360727 1.85322 0
M  V30 1536 O 150.288 -0.659531 1.70166 0
M  V30 1537 C 150.339 2.77524 2.31652 0
M  V30 1538 O 150.06 4.03252 1.7123 0
M  V30 1539 C 151.561 3.04512 3.2216 0
M  V30 1540 H 148.781 0.560326 0.369155 0
M  V30 1541 H 151.325 1.97385 0.534719 0
M  V30 1542 H 149.48 2.49642 2.96239 0
M  V30 1543 H 149.894 4.64609 2.43389 0
M  V30 1544 H 151.368 3.85551 3.95038 0
M  V30 1545 H 151.845 2.16415 3.8218 0
M  V30 1546 H 152.451 3.34005 2.63288 0
M  V30 1547 N 150.766 -0.704594 1.40972 0
M  V30 1548 C 152.014 -1.46169 1.39568 0
M  V30 1549 C 152.335 -1.95 0.00253745 0
M  V30 1550 O 151.605 -1.71095 -0.954114 0
M  V30 1551 H 150.185 -0.542326 0.513704 0
M  V30 1552 H 152.847 -0.834553 1.76128 0
M  V30 1553 H 151.943 -2.32922 2.07735 0
M  V30 1554 N 152.244 -1.26651 -0.937939 0
M  V30 1555 C 153.491 -1.12387 -1.6845 0
M  V30 1556 C 153.819 0.332208 -1.91642 0
M  V30 1557 O 153.074 1.2602 -1.49725 0
M  V30 1558 C 153.373 -1.84168 -3.06295 0
M  V30 1559 C 153.039 -3.34056 -3.02849 0
M  V30 1560 C 151.701 -3.74942 -3.01616 0
M  V30 1561 C 154.053 -4.29741 -2.9491 0
M  V30 1562 C 151.381 -5.09894 -2.90215 0
M  V30 1563 C 153.733 -5.64738 -2.8505 0
M  V30 1564 C 152.397 -6.0493 -2.82162 0
M  V30 1565 H 151.667 -0.411252 -0.616403 0
M  V30 1566 H 154.314 -1.57134 -1.09459 0
M  V30 1567 H 152.619 -1.319 -3.6893 0
M  V30 1568 H 154.316 -1.70569 -3.62915 0
M  V30 1569 H 150.906 -3.01534 -3.0459 0
M  V30 1570 H 155.09 -3.99133 -2.94969 0
M  V30 1571 H 150.346 -5.40194 -2.86358 0
M  V30 1572 H 154.52 -6.38561 -2.77872 0
M  V30 1573 H 152.147 -7.09457 -2.73084 0
M  V30 1574 N 153.722 1.14298 -1.08507 0
M  V30 1575 C 154.952 1.88945 -0.835663 0
M  V30 1576 C 155.36 1.78894 0.615928 0
M  V30 1577 O 154.703 1.1468 1.43506 0
M  V30 1578 C 154.765 3.39585 -1.17994 0
M  V30 1579 C 154.429 3.7342 -2.63451 0
M  V30 1580 C 155.426 3.73454 -3.61702 0
M  V30 1581 C 153.111 4.03368 -2.99332 0
M  V30 1582 C 155.105 4.02961 -4.93864 0
M  V30 1583 C 152.792 4.32538 -4.31687 0
M  V30 1584 C 153.79 4.32318 -5.28763 0
M  V30 1585 O 153.478 4.6078 -6.58739 0
M  V30 1586 H 153.21 0.605307 -0.300965 0
M  V30 1587 H 155.764 1.45673 -1.44806 0
M  V30 1588 H 153.994 3.83315 -0.51055 0
M  V30 1589 H 155.683 3.9554 -0.911182 0
M  V30 1590 H 156.449 3.50403 -3.35325 0
M  V30 1591 H 152.328 4.02692 -2.24411 0
M  V30 1592 H 155.872 4.02704 -5.69627 0
M  V30 1593 H 151.769 4.55059 -4.57812 0
M  V30 1594 H 152.537 4.78492 -6.64069 0
M  V30 1595 N 155.201 0.870884 1.31352 0
M  V30 1596 C 156.426 0.495957 2.01383 0
M  V30 1597 C 156.851 -0.904324 1.64935 0
M  V30 1598 O 156.209 -1.59687 0.858466 0
M  V30 1599 C 156.257 0.661433 3.54482 0
M  V30 1600 O 155.361 -0.298851 4.11316 0
M  V30 1601 H 154.702 0.197158 0.634054 0
M  V30 1602 H 157.232 1.17455 1.67527 0
M  V30 1603 H 157.242 0.555072 4.04207 0
M  V30 1604 H 155.917 1.68246 3.8035 0
M  V30 1605 H 154.494 -0.147368 3.72609 0
M  V30 1606 N 156.679 -1.44442 0.630414 0
M  V30 1607 C 157.919 -2.03934 0.137919 0
M  V30 1608 C 158.283 -1.48509 -1.21692 0
M  V30 1609 O 159.484 -1.99499 -1.80149 0
M  V30 1610 C 157.755 -3.57187 0.123373 0
M  V30 1611 S 159.314 -4.37741 -0.304604 0
M  V30 1612 H 156.132 -0.708401 0.0607353 0
M  V30 1613 H 158.734 -1.76835 0.833643 0
M  V30 1614 H 157.438 -3.95032 1.11256 0
M  V30 1615 H 156.969 -3.88895 -0.59362 0
M  V30 1616 H 158.984 -4.71403 -1.54897 0
M  V30 1617 N 158.157 -0.370918 -1.53173 0
M  V30 1618 C 159.104 0.473035 -2.259 0
M  V30 1619 C 160.074 1.07311 -1.26781 0
M  V30 1620 O 161.259 1.1046 -1.55574 0
M  V30 1621 C 158.399 1.60405 -3.05556 0
M  V30 1622 C 157.512 1.02863 -4.19575 0
M  V30 1623 C 156.647 2.12918 -4.86661 0
M  V30 1624 C 155.686 1.52869 -5.92704 0
M  V30 1625 N 154.823 2.56779 -6.53459 0
M  V30 1626 H 159.663 -0.153649 -2.97604 0
M  V30 1627 H 157.2 -0.0875946 -1.46839 0
M  V30 1628 H 159.158 2.27034 -3.50016 0
M  V30 1629 H 157.788 2.20131 -2.36097 0
M  V30 1630 H 156.84 0.252465 -3.79561 0
M  V30 1631 H 158.152 0.549642 -4.95762 0
M  V30 1632 H 157.306 2.87356 -5.34333 0
M  V30 1633 H 156.045 2.6417 -4.09958 0
M  V30 1634 H 155.05 0.769479 -5.44389 0
M  V30 1635 H 156.275 1.02435 -6.7133 0
M  V30 1636 H 154.221 3.07235 -5.79606 0
M  V30 1637 H 154.138 2.13583 -7.25202 0
M  V30 1638 H 155.406 3.30903 -7.05779 0
M  V30 1639 N 159.635 1.57281 -0.100228 0
M  V30 1640 C 160.865 1.98591 0.569681 0
M  V30 1641 C 161.273 0.978315 1.61943 0
M  V30 1642 O 160.616 -0.0396108 1.83657 0
M  V30 1643 C 160.678 3.36282 1.271 0
M  V30 1644 C 160.342 4.55488 0.371409 0
M  V30 1645 C 161.339 5.18491 -0.382504 0
M  V30 1646 C 159.024 5.01474 0.287965 0
M  V30 1647 C 161.018 6.25852 -1.20779 0
M  V30 1648 C 158.705 6.08701 -0.540965 0
M  V30 1649 C 159.703 6.70755 -1.28749 0
M  V30 1650 O 159.391 7.75914 -2.10269 0
M  V30 1651 H 159.123 0.65752 0.156982 0
M  V30 1652 H 161.677 2.0463 -0.177734 0
M  V30 1653 H 159.907 3.26941 2.0651 0
M  V30 1654 H 161.596 3.62005 1.83595 0
M  V30 1655 H 162.362 4.83891 -0.3278 0
M  V30 1656 H 158.241 4.52932 0.858689 0
M  V30 1657 H 161.785 6.74218 -1.79096 0
M  V30 1658 H 157.682 6.42732 -0.597131 0
M  V30 1659 H 158.45 7.92925 -2.03007 0
M  V30 1660 N 161.113 -0.173488 1.56642 0
M  V30 1661 C 162.043 -1.2171 1.99271 0
M  V30 1662 C 163.024 -1.46289 0.867959 0
M  V30 1663 O 164.209 -1.5766 1.13388 0
M  V30 1664 C 161.339 -2.55651 2.35074 0
M  V30 1665 C 160.293 -2.45645 3.50489 0
M  V30 1666 C 159.619 -3.84056 3.72028 0
M  V30 1667 C 160.919 -1.96302 4.84007 0
M  V30 1668 H 162.613 -0.86275 2.867 0
M  V30 1669 H 160.159 -0.413571 1.37933 0
M  V30 1670 H 162.112 -3.2886 2.63494 0
M  V30 1671 H 160.836 -2.92869 1.44552 0
M  V30 1672 H 159.495 -1.7489 3.22194 0
M  V30 1673 H 159.143 -4.18664 2.788 0
M  V30 1674 H 158.843 -3.7823 4.49684 0
M  V30 1675 H 160.367 -4.58854 4.02846 0
M  V30 1676 H 161.781 -2.59284 5.11317 0
M  V30 1677 H 160.178 -2.01429 5.65284 0
M  V30 1678 H 161.248 -0.917226 4.76146 0
M  V30 1679 N 162.591 -1.51276 -0.441967 0
M  V30 1680 C 163.554 -1.7167 -1.51862 0
M  V30 1681 C 164.554 -0.586793 -1.49711 0
M  V30 1682 O 165.744 -0.854276 -1.51815 0
M  V30 1683 C 162.876 -1.76889 -2.91416 0
M  V30 1684 H 164.069 -2.67754 -1.35084 0
M  V30 1685 H 161.622 -1.41196 -0.670333 0
M  V30 1686 H 162.357 -0.826026 -3.13604 0
M  V30 1687 H 162.142 -2.59001 -2.94382 0
M  V30 1688 H 163.632 -1.94522 -3.69528 0
M  V30 1689 N 164.069 0.697108 -1.41344 0
M  V30 1690 C 165.315 1.4593 -1.40827 0
M  V30 1691 C 165.648 1.94193 -0.0167098 0
M  V30 1692 O 164.923 1.69425 0.955263 0
M  V30 1693 C 165.206 2.67229 -2.41373 0
M  V30 1694 C 165.059 2.24741 -3.8963 0
M  V30 1695 C 166.378 3.69423 -2.39196 0
M  V30 1696 H 163.497 0.529303 -0.512842 0
M  V30 1697 H 166.139 0.794112 -1.72609 0
M  V30 1698 H 164.289 3.23982 -2.14401 0
M  V30 1699 H 165.961 1.73327 -4.27499 0
M  V30 1700 H 164.204 1.56542 -4.0457 0
M  V30 1701 H 164.875 3.1177 -4.55525 0
M  V30 1702 H 167.351 3.2234 -2.63128 0
M  V30 1703 H 166.227 4.51907 -3.11563 0
M  V30 1704 H 166.488 4.19012 -1.41001 0
M  V30 1705 N 165.547 1.27147 0.931209 0
M  V30 1706 C 166.958 1.12044 1.49342 0
M  V30 1707 C 167.309 -0.295795 1.93957 0
M  V30 1708 O 166.434 -1.18835 1.80852 0
M  V30 1709 C 167.029 2.02781 2.71414 0
M  V30 1710 C 165.588 1.91794 3.2387 0
M  V30 1711 C 164.735 1.95543 1.96617 0
M  V30 1712 H 167.686 1.40091 0.745672 0
M  V30 1713 H 167.707 1.58156 3.46074 0
M  V30 1714 H 167.219 3.05848 2.38911 0
M  V30 1715 H 165.32 0.916992 3.6114 0
M  V30 1716 H 165.433 2.77852 3.90302 0
M  V30 1717 H 163.797 1.39722 2.12955 0
M  V30 1718 H 164.58 3.00259 1.66432 0
M  V30 1719 N 167.025 -1.13721 1.09112 0
M  V30 1720 C 168.253 -1.88773 0.846899 0
M  V30 1721 C 168.668 -1.7896 -0.601572 0
M  V30 1722 O 168.025 -1.15394 -1.41388 0
M  V30 1723 C 168.076 -3.3849 1.26913 0
M  V30 1724 O 167.797 -3.48043 2.66079 0
M  V30 1725 C 169.298 -4.30518 1.05682 0
M  V30 1726 H 166.518 -0.59772 0.304914 0
M  V30 1727 H 169.062 -1.43977 1.45227 0
M  V30 1728 H 167.217 -3.80881 0.707723 0
M  V30 1729 H 167.631 -4.4109 2.83795 0
M  V30 1730 H 169.105 -5.3391 1.40156 0
M  V30 1731 H 169.582 -4.392 -0.00563416 0
M  V30 1732 H 170.188 -3.93893 1.60402 0
M  V30 1733 N 168.503 -0.877838 -1.30888 0
M  V30 1734 C 169.728 -0.506629 -2.01117 0
M  V30 1735 C 170.153 0.895564 -1.65412 0
M  V30 1736 O 169.511 1.5923 -0.866922 0
M  V30 1737 C 169.559 -0.680223 -3.54126 0
M  V30 1738 O 168.663 0.277033 -4.11468 0
M  V30 1739 H 168.004 -0.200518 -0.633 0
M  V30 1740 H 170.534 -1.18342 -1.66902 0
M  V30 1741 H 170.544 -0.5765 -4.03907 0
M  V30 1742 H 169.219 -1.70261 -3.79452 0
M  V30 1743 H 167.796 0.127606 -3.72682 0
M  V30 1744 N 169.982 1.44106 -0.638065 0
M  V30 1745 C 170.929 2.30715 0.062701 0
M  V30 1746 C 171.899 1.43882 0.829883 0
M  V30 1747 O 173.084 1.72775 0.809532 0
M  V30 1748 C 170.224 3.29258 1.03358 0
M  V30 1749 C 169.337 4.31192 0.26409 0
M  V30 1750 C 168.472 5.16825 1.22741 0
M  V30 1751 C 167.511 6.10462 0.447475 0
M  V30 1752 N 166.648 6.8877 1.36161 0
M  V30 1753 H 171.488 2.90096 -0.681781 0
M  V30 1754 H 169.025 1.42925 -0.347988 0
M  V30 1755 H 170.983 3.84886 1.60992 0
M  V30 1756 H 169.613 2.71562 1.74511 0
M  V30 1757 H 168.665 3.77981 -0.428295 0
M  V30 1758 H 169.977 4.97619 -0.343052 0
M  V30 1759 H 169.131 5.77004 1.87487 0
M  V30 1760 H 167.87 4.50488 1.86847 0
M  V30 1761 H 166.875 5.49386 -0.213433 0
M  V30 1762 H 168.1 6.78837 -0.188968 0
M  V30 1763 H 166.046 6.25096 1.98975 0
M  V30 1764 H 165.963 7.51663 0.808656 0
M  V30 1765 H 167.231 7.53467 1.99769 0
M  V30 1766 N 171.46 0.379036 1.52974 0
M  V30 1767 C 172.407 -0.461048 2.26148 0
M  V30 1768 C 173.377 -1.06637 1.27349 0
M  V30 1769 O 174.562 -1.09633 1.56157 0
M  V30 1770 C 171.702 -1.58782 3.06402 0
M  V30 1771 C 170.815 -1.00636 4.20115 0
M  V30 1772 C 169.95 -2.10334 4.87784 0
M  V30 1773 C 168.989 -1.49724 5.93506 0
M  V30 1774 N 168.126 -2.5331 6.54812 0
M  V30 1775 H 172.966 0.169429 2.97518 0
M  V30 1776 H 170.503 0.0953806 1.4679 0
M  V30 1777 H 172.461 -2.25174 3.51215 0
M  V30 1778 H 171.091 -2.18876 2.37261 0
M  V30 1779 H 170.143 -0.232332 3.7969 0
M  V30 1780 H 171.455 -0.523343 4.96047 0
M  V30 1781 H 170.609 -2.84519 5.35849 0
M  V30 1782 H 169.348 -2.61992 4.11353 0
M  V30 1783 H 168.353 -0.740598 5.44789 0
M  V30 1784 H 169.578 -0.988732 6.71864 0
M  V30 1785 H 167.524 -3.04156 5.81227 0
M  V30 1786 H 167.441 -2.09734 7.26325 0
M  V30 1787 H 168.709 -3.27155 7.07524 0
M  V30 1788 N 172.938 -1.57226 0.108567 0
M  V30 1789 C 173.885 -2.14756 -0.845481 0
M  V30 1790 C 174.855 -1.06971 -1.27068 0
M  V30 1791 O 176.04 -1.34827 -1.35005 0
M  V30 1792 C 173.18 -2.74298 -2.09415 0
M  V30 1793 C 172.293 -3.96358 -1.71826 0
M  V30 1794 C 171.428 -4.44021 -2.9158 0
M  V30 1795 C 170.467 -5.58637 -2.50181 0
M  V30 1796 N 169.604 -6.01091 -3.62814 0
M  V30 1797 H 174.444 -2.95961 -0.348035 0
M  V30 1798 H 171.981 -1.46226 -0.160106 0
M  V30 1799 H 173.939 -3.06945 -2.82561 0
M  V30 1800 H 172.569 -1.95801 -2.56636 0
M  V30 1801 H 171.621 -3.69939 -0.885947 0
M  V30 1802 H 172.933 -4.79504 -1.37394 0
M  V30 1803 H 172.087 -4.78522 -3.72963 0
M  V30 1804 H 170.826 -3.59803 -3.29231 0
M  V30 1805 H 169.831 -5.23751 -1.67228 0
M  V30 1806 H 171.056 -6.44613 -2.13659 0
M  V30 1807 H 169.002 -5.19817 -4.00158 0
M  V30 1808 H 168.919 -6.79066 -3.32273 0
M  V30 1809 H 170.187 -6.40227 -4.44668 0
M  V30 1810 N 174.416 0.165178 -1.56732 0
M  V30 1811 C 175.326 1.22423 -2.00125 0
M  V30 1812 C 176.342 1.48084 -0.913619 0
M  V30 1813 O 177.518 1.60112 -1.22172 0
M  V30 1814 C 174.583 2.54197 -2.35764 0
M  V30 1815 C 173.644 2.36343 -3.58386 0
M  V30 1816 C 172.877 3.61834 -3.92316 0
M  V30 1817 O 173.1 4.67267 -3.27135 0
M  V30 1818 O 172.034 3.55579 -4.85641 0
M  V30 1819 H 175.86 0.885886 -2.90492 0
M  V30 1820 H 173.445 0.372518 -1.44681 0
M  V30 1821 H 175.327 3.3192 -2.59629 0
M  V30 1822 H 174.002 2.87598 -1.48557 0
M  V30 1823 H 172.909 1.56632 -3.39731 0
M  V30 1824 H 174.242 2.07865 -4.46154 0
M  V30 1825 N 175.894 1.51508 0.433938 0
M  V30 1826 C 177.122 1.68157 1.20543 0
M  V30 1827 C 177.537 0.380362 1.84929 0
M  V30 1828 O 176.894 -0.641446 1.70856 0
M  V30 1829 C 176.945 2.79965 2.28696 0
M  V30 1830 O 176.666 4.05045 1.66943 0
M  V30 1831 C 178.167 3.07912 3.18912 0
M  V30 1832 H 175.387 0.56421 0.363191 0
M  V30 1833 H 177.931 1.97941 0.513754 0
M  V30 1834 H 176.086 2.5277 2.93574 0
M  V30 1835 H 176.5 4.67165 2.38448 0
M  V30 1836 H 177.974 3.89719 3.90926 0
M  V30 1837 H 178.451 2.20456 3.79863 0
M  V30 1838 H 179.057 3.36779 2.59731 0
M  V30 1839 N 177.372 -0.689602 1.41712 0
M  V30 1840 C 178.282 -1.83314 1.46401 0
M  V30 1841 C 179.298 -1.7036 0.35405 0
M  V30 1842 O 180.474 -1.92171 0.602692 0
M  V30 1843 C 177.539 -3.19344 1.34982 0
M  V30 1844 C 176.6 -3.44363 2.56344 0
M  V30 1845 C 175.833 -4.73904 2.45461 0
M  V30 1846 O 176.056 -5.508 1.48241 0
M  V30 1847 O 174.99 -4.99839 3.35328 0
M  V30 1848 H 178.816 -1.82314 2.42889 0
M  V30 1849 H 176.401 -0.843438 1.23315 0
M  V30 1850 H 178.283 -4.00547 1.3092 0
M  V30 1851 H 176.958 -3.21014 0.41612 0
M  V30 1852 H 175.865 -2.63067 2.65982 0
M  V30 1853 H 177.198 -3.47512 3.48563 0
M  V30 1854 N 178.85 -1.27639 -0.924453 0
M  V30 1855 C 180.075 -1.17101 -1.71179 0
M  V30 1856 C 180.5 0.268134 -1.86179 0
M  V30 1857 O 179.858 1.19415 -1.36418 0
M  V30 1858 C 179.906 -1.86313 -3.08739 0
M  V30 1859 O 179.01 -1.16331 -3.95652 0
M  V30 1860 H 178.351 -0.407091 -0.524569 0
M  V30 1861 H 180.881 -1.68767 -1.15666 0
M  V30 1862 H 180.891 -1.938 -3.59034 0
M  V30 1863 H 179.566 -2.91001 -2.97138 0
M  V30 1864 H 178.143 -1.16935 -3.54091 0
M  V30 1865 N 180.328 1.1314 -1.09713 0
M  V30 1866 C 181.291 2.16831 -0.742751 0
M  V30 1867 C 182.291 1.59159 0.229129 0
M  V30 1868 O 183.481 1.74199 0.00693237 0
M  V30 1869 C 180.613 3.40756 -0.0989168 0
M  V30 1870 H 181.806 2.49695 -1.66109 0
M  V30 1871 H 179.359 1.2802 -0.896699 0
M  V30 1872 H 180.094 3.13485 0.830514 0
M  V30 1873 H 179.879 3.83888 -0.798265 0
M  V30 1874 H 181.369 4.17386 0.133524 0
M  V30 1875 N 181.806 0.884767 1.30421 0
M  V30 1876 C 183.055 0.499164 1.95426 0
M  V30 1877 C 183.368 -0.95645 1.70621 0
M  V30 1878 O 184.574 -1.44889 2.29607 0
M  V30 1879 C 183.03 0.84177 3.49917 0
M  V30 1880 C 182.638 2.31514 3.83543 0
M  V30 1881 C 184.382 0.525355 4.21237 0
M  V30 1882 C 182.289 2.59939 5.31212 0
M  V30 1883 H 181.219 0.182944 0.73147 0
M  V30 1884 H 183.87 1.07971 1.48373 0
M  V30 1885 H 182.252 0.190311 3.95542 0
M  V30 1886 H 183.426 3.0109 3.48829 0
M  V30 1887 H 181.741 2.59907 3.25326 0
M  V30 1888 H 184.338 0.714762 5.29901 0
M  V30 1889 H 184.681 -0.535222 4.12845 0
M  V30 1890 H 185.214 1.134 3.81294 0
M  V30 1891 H 181.953 3.64736 5.44654 0
M  V30 1892 H 181.473 1.94972 5.67227 0
M  V30 1893 H 183.152 2.45429 5.98643 0
M  V30 1894 N 183.284 -1.43765 0.645699 0
M  V30 1895 C 184.514 -2.05953 0.163318 0
M  V30 1896 C 184.922 -1.48432 -1.17322 0
M  V30 1897 O 184.265 -0.607295 -1.73371 0
M  V30 1898 C 184.327 -3.59499 -0.0103065 0
M  V30 1899 C 183.991 -4.39563 1.25035 0
M  V30 1900 C 184.988 -4.72108 2.17739 0
M  V30 1901 C 182.673 -4.79697 1.48983 0
M  V30 1902 C 184.667 -5.43688 3.3269 0
M  V30 1903 C 182.354 -5.51023 2.64229 0
M  V30 1904 C 183.352 -5.8294 3.55908 0
M  V30 1905 O 183.04 -6.5281 4.69142 0
M  V30 1906 H 182.772 -0.670798 0.0836986 0
M  V30 1907 H 185.326 -1.85384 0.884407 0
M  V30 1908 H 183.556 -3.78613 -0.78669 0
M  V30 1909 H 185.245 -4.03408 -0.449087 0
M  V30 1910 H 186.011 -4.41627 2.00476 0
M  V30 1911 H 181.89 -4.54266 0.785078 0
M  V30 1912 H 185.434 -5.68517 4.04269 0
M  V30 1913 H 181.331 -5.8092 2.81429 0
M  V30 1914 H 182.099 -6.71288 4.6831 0
M  V30 1915 N 184.763 -0.387143 -1.52771 0
M  V30 1916 C 186.012 0.19697 -2.00736 0
M  V30 1917 C 186.325 1.48082 -1.27793 0
M  V30 1918 O 187.531 2.14485 -1.66458 0
M  V30 1919 C 185.987 0.401568 -3.57653 0
M  V30 1920 C 185.595 -0.868907 -4.39493 0
M  V30 1921 C 187.339 0.942164 -4.13912 0
M  V30 1922 C 185.246 -0.632705 -5.88006 0
M  V30 1923 H 184.176 0.0773827 -0.750019 0
M  V30 1924 H 186.827 -0.50921 -1.76293 0
M  V30 1925 H 185.209 1.16954 -3.78335 0
M  V30 1926 H 186.383 -1.64133 -4.30577 0
M  V30 1927 H 184.698 -1.33429 -3.94443 0
M  V30 1928 H 187.295 1.13455 -5.22525 0
M  V30 1929 H 187.638 1.9106 -3.69867 0
M  V30 1930 H 188.171 0.233814 -3.97112 0
M  V30 1931 H 184.91 -1.57208 -6.36369 0
M  V30 1932 H 184.43 0.100825 -5.99715 0
M  V30 1933 H 186.109 -0.26642 -6.46451 0
M  V30 1934 N 186.241 1.57166 -0.116904 0
M  V30 1935 C 187.488 1.95123 0.541603 0
M  V30 1936 C 187.816 1.00006 1.6682 0
M  V30 1937 O 187.071 0.0235658 1.95686 0
M  V30 1938 C 187.37 3.39508 1.11664 0
M  V30 1939 C 187.036 4.50762 0.111606 0
M  V30 1940 C 185.698 4.80918 -0.164758 0
M  V30 1941 C 188.05 5.18036 -0.573438 0
M  V30 1942 C 185.378 5.75666 -1.13249 0
M  V30 1943 C 187.73 6.13824 -1.52978 0
M  V30 1944 C 186.394 6.42374 -1.81415 0
M  V30 1945 H 185.664 0.714005 0.198187 0
M  V30 1946 H 188.311 1.9048 -0.197365 0
M  V30 1947 H 186.616 3.40835 1.93232 0
M  V30 1948 H 188.313 3.66189 1.63422 0
M  V30 1949 H 184.903 4.27272 0.337192 0
M  V30 1950 H 189.087 4.94896 -0.373092 0
M  V30 1951 H 184.343 5.96092 -1.35958 0
M  V30 1952 H 188.517 6.65039 -2.06629 0
M  V30 1953 H 186.144 7.15599 -2.56557 0
M  V30 1954 N 187.719 -0.156864 1.56817 0
M  V30 1955 C 188.968 -0.869504 1.81996 0
M  V30 1956 C 189.281 -1.82777 0.696545 0
M  V30 1957 O 190.487 -2.58384 0.833658 0
M  V30 1958 C 188.943 -1.59679 3.22538 0
M  V30 1959 C 188.551 -0.681431 4.42787 0
M  V30 1960 C 190.295 -2.2968 3.56997 0
M  V30 1961 C 188.202 -1.40978 5.74351 0
M  V30 1962 H 187.132 -0.328438 0.678708 0
M  V30 1963 H 189.783 -0.1223 1.83092 0
M  V30 1964 H 188.165 -2.38927 3.158 0
M  V30 1965 H 189.339 0.0751166 4.60739 0
M  V30 1966 H 187.654 -0.0903431 4.16302 0
M  V30 1967 H 190.251 -2.84794 4.52544 0
M  V30 1968 H 190.594 -3.05707 2.82576 0
M  V30 1969 H 191.127 -1.57361 3.65352 0
M  V30 1970 H 187.866 -0.691561 6.51842 0
M  V30 1971 H 187.386 -2.13929 5.60352 0
M  V30 1972 H 189.065 -1.95337 6.16808 0
M  V30 1973 N 189.197 -1.51736 -0.425897 0
M  V30 1974 C 190.422 -1.69082 -1.20108 0
M  V30 1975 C 190.847 -0.392398 -1.83962 0
M  V30 1976 O 190.205 0.64858 -1.69302 0
M  V30 1977 C 190.253 -2.81604 -2.25237 0
M  V30 1978 O 189.357 -2.46004 -3.30992 0
M  V30 1979 H 188.698 -0.563408 -0.35138 0
M  V30 1980 H 191.228 -1.98358 -0.501512 0
M  V30 1981 H 191.238 -3.06025 -2.69838 0
M  V30 1982 H 189.913 -3.75817 -1.78142 0
M  V30 1983 H 188.49 -2.32195 -2.91787 0
M  V30 1984 N 190.675 0.682077 -1.42076 0
M  V30 1985 C 191.952 1.43755 -1.32642 0
M  V30 1986 C 192.332 2.11063 0.0396611 0
M  V30 1987 O 191.68 2.02701 1.05474 0
M  V30 1988 C 191.89 2.44596 -2.48946 0
M  V30 1989 C 193.238 3.09454 -2.9073 0
M  V30 1990 O 194.262 2.54922 -2.48783 0
M  V30 1991 O 193.121 4.08253 -3.63307 0
M  V30 1992 H 190.215 0.640857 -0.522715 0
M  V30 1993 H 192.761 0.711415 -1.54068 0
M  V30 1994 H 191.533 1.93609 -3.40046 0
M  V30 1995 H 191.156 3.24701 -2.29467 0
M  V30 1996 N 192.153 1.28127 0.917671 0
M  V30 1997 C 193.381 1.17892 1.70026 0
M  V30 1998 C 193.796 -0.262958 1.8696 0
M  V30 1999 O 193.153 -1.17811 1.3938 0
M  V30 2000 C 193.204 1.86872 3.09453 0
M  V30 2001 O 192.925 3.25428 2.93306 0
M  V30 2002 C 194.426 1.8289 4.03815 0
M  V30 2003 H 191.646 0.40942 0.531617 0
M  V30 2004 H 194.19 1.69181 1.14883 0
M  V30 2005 H 192.345 1.39464 3.61426 0
M  V30 2006 H 192.759 3.59918 3.81523 0
M  V30 2007 H 194.233 2.35751 4.99125 0
M  V30 2008 H 194.71 0.800412 4.31845 0
M  V30 2009 H 195.316 2.29959 3.57769 0
M  V30 2010 N 193.631 -1.12557 1.10312 0
M  V30 2011 C 194.879 -1.83675 0.843091 0
M  V30 2012 C 195.2 -1.84435 -0.633131 0
M  V30 2013 O 194.47 -1.30657 -1.45964 0
M  V30 2014 H 193.05 -0.680138 0.308904 0
M  V30 2015 H 195.712 -1.36301 1.39313 0
M  V30 2016 H 194.808 -2.87908 1.2048 0
M  V30 2017 N 195.109 -0.891671 -1.2995 0
M  V30 2018 C 196.525 -0.58662 -1.48428 0
M  V30 2019 C 196.725 0.873951 -1.81561 0
M  V30 2020 O 195.781 1.65471 -1.90724 0
M  V30 2021 C 197.094 -1.50553 -2.60296 0
M  V30 2022 C 198.642 -1.50988 -2.74175 0
M  V30 2023 C 199.117 -2.41488 -3.89163 0
M  V30 2024 N 200.608 -2.39489 -3.96483 0
M  V30 2025 C 201.343 -3.06223 -4.84784 0
M  V30 2026 N 200.839 -3.82206 -5.77833 0
M  V30 2027 N 202.632 -2.95421 -4.78208 0
M  V30 2028 H 194.783 -1.83644 -1.06718 0
M  V30 2029 H 197.046 -0.786455 -0.529332 0
M  V30 2030 H 196.752 -2.54581 -2.42654 0
M  V30 2031 H 196.626 -1.22008 -3.56923 0
M  V30 2032 H 199.013 -0.47708 -2.91218 0
M  V30 2033 H 199.094 -1.83567 -1.78148 0
M  V30 2034 H 198.738 -3.44857 -3.72876 0
M  V30 2035 H 198.668 -2.06222 -4.84541 0
M  V30 2036 H 201.159 -1.84278 -3.29924 0
M  V30 2037 H 201.472 -4.302 -6.41988 0
M  V30 2038 H 199.817 -3.86313 -5.77743 0
M  V30 2039 H 203.008 -2.35581 -4.04499 0
M  V30 2040 H 203.181 -3.47704 -5.46814 0
M  V30 2041 N 196.587 1.43421 -0.653314 0
M  V30 2042 C 197.998 1.85065 -0.246537 0
M  V30 2043 C 198.349 1.54688 1.2069 0
M  V30 2044 O 197.474 0.995896 1.92122 0
M  V30 2045 C 198.069 3.35922 -0.440666 0
M  V30 2046 C 196.628 3.76297 -0.0882064 0
M  V30 2047 C 195.775 2.67147 -0.743484 0
M  V30 2048 H 198.726 1.33572 -0.856979 0
M  V30 2049 H 198.747 3.79204 0.313798 0
M  V30 2050 H 198.259 3.58 -1.49858 0
M  V30 2051 H 196.36 3.5983 0.96711 0
M  V30 2052 H 196.473 4.76338 -0.513738 0
M  V30 2053 H 194.837 2.54086 -0.176712 0
M  V30 2054 H 195.62 2.92053 -1.80443 0
M  V30 2055 N 198.065 0.39524 1.52563 0
M  V30 2056 C 199.312 -0.185044 2.01653 0
M  V30 2057 C 199.64 -1.46317 1.28146 0
M  V30 2058 O 198.895 -1.9213 0.372074 0
M  V30 2059 C 199.194 -0.493444 3.53977 0
M  V30 2060 C 198.86 0.69384 4.4553 0
M  V30 2061 C 197.522 1.01954 4.70275 0
M  V30 2062 C 199.874 1.48785 4.99512 0
M  V30 2063 C 197.202 2.14069 5.46252 0
M  V30 2064 C 199.554 2.59965 5.76716 0
M  V30 2065 C 198.218 2.93037 5.99738 0
M  V30 2066 H 197.488 -0.0677123 0.7379 0
M  V30 2067 H 200.135 0.533807 1.8391 0
M  V30 2068 H 198.44 -1.29369 3.69825 0
M  V30 2069 H 200.137 -0.955163 3.89458 0
M  V30 2070 H 196.727 0.429987 4.26438 0
M  V30 2071 H 200.911 1.24946 4.80315 0
M  V30 2072 H 196.167 2.40056 5.62302 0
M  V30 2073 H 200.341 3.21887 6.17545 0
M  V30 2074 H 197.968 3.8003 6.58393 0
M  V30 2075 N 199.544 -1.57102 0.125237 0
M  V30 2076 C 200.79 -1.95697 -0.532035 0
M  V30 2077 C 201.123 -1.009 -1.6593 0
M  V30 2078 O 200.398 -0.047347 -1.94442 0
M  V30 2079 C 200.681 -3.44181 -1.05884 0
M  V30 2080 C 200.534 -4.49752 0.0654392 0
M  V30 2081 C 201.853 -3.94655 -1.9477 0
M  V30 2082 H 198.972 -0.711571 -0.191925 0
M  V30 2083 H 201.614 -1.88923 0.20206 0
M  V30 2084 H 199.764 -3.50085 -1.68442 0
M  V30 2085 H 201.436 -4.55943 0.700982 0
M  V30 2086 H 199.679 -4.27653 0.727709 0
M  V30 2087 H 200.35 -5.50924 -0.344505 0
M  V30 2088 H 202.826 -3.91094 -1.42074 0
M  V30 2089 H 201.702 -4.99057 -2.28546 0
M  V30 2090 H 201.963 -3.35718 -2.87656 0
M  V30 2091 N 201.022 0.148545 -1.56898 0
M  V30 2092 C 201.932 1.20293 -2.01412 0
M  V30 2093 C 202.948 1.47107 -0.929273 0
M  V30 2094 O 204.124 1.58807 -1.23863 0
M  V30 2095 C 201.189 2.51682 -2.38447 0
M  V30 2096 C 200.25 2.32529 -3.60872 0
M  V30 2097 C 199.483 3.57653 -3.96132 0
M  V30 2098 O 199.706 4.63771 -3.32073 0
M  V30 2099 O 198.64 3.50408 -4.89385 0
M  V30 2100 H 202.466 0.855025 -2.91416 0
M  V30 2101 H 200.051 0.357151 -1.45068 0
M  V30 2102 H 201.933 3.29147 -2.63135 0
M  V30 2103 H 200.608 2.86006 -1.51599 0
M  V30 2104 H 199.515 1.53019 -3.41373 0
M  V30 2105 H 200.848 2.03121 -4.48333 0
M  V30 2106 N 202.5 1.5196 0.417844 0
M  V30 2107 C 203.433 1.69387 1.52916 0
M  V30 2108 C 204.411 0.541419 1.53321 0
M  V30 2109 O 205.595 0.767695 1.72159 0
M  V30 2110 C 202.722 1.72525 2.91467 0
M  V30 2111 C 201.768 2.93967 3.09008 0
M  V30 2112 S 202.601 4.54461 2.83242 0
M  V30 2113 C 203.757 4.60372 4.24038 0
M  V30 2114 H 203.99 2.63382 1.37903 0
M  V30 2115 H 201.523 1.41889 0.608845 0
M  V30 2116 H 203.481 1.75018 3.7132 0
M  V30 2117 H 202.142 0.796733 3.03827 0
M  V30 2118 H 201.335 2.92619 4.10353 0
M  V30 2119 H 200.937 2.89316 2.37007 0
M  V30 2120 H 203.229 4.37213 5.17544 0
M  V30 2121 H 204.172 5.62273 4.30412 0
M  V30 2122 H 204.58 3.89492 4.08602 0
M  V30 2123 N 203.978 -0.674533 1.42435 0
M  V30 2124 C 205.208 -1.46071 1.46105 0
M  V30 2125 C 205.616 -1.89067 0.0709605 0
M  V30 2126 O 204.959 -1.58731 -0.924677 0
M  V30 2127 C 205.021 -2.74145 2.32561 0
M  V30 2128 C 204.685 -2.53224 3.8043 0
M  V30 2129 C 205.682 -2.17809 4.72075 0
M  V30 2130 C 203.367 -2.6821 4.24698 0
M  V30 2131 C 205.361 -1.97648 6.05982 0
M  V30 2132 C 203.048 -2.47665 5.58664 0
M  V30 2133 C 204.046 -2.12437 6.49122 0
M  V30 2134 O 203.734 -1.9209 7.80613 0
M  V30 2135 H 203.466 -0.455959 0.499076 0
M  V30 2136 H 206.02 -0.836193 1.87609 0
M  V30 2137 H 204.25 -3.3908 1.85908 0
M  V30 2138 H 205.939 -3.36028 2.27683 0
M  V30 2139 H 206.705 -2.05826 4.39159 0
M  V30 2140 H 202.584 -2.94609 3.54579 0
M  V30 2141 H 206.128 -1.70075 6.7655 0
M  V30 2142 H 202.025 -2.59244 5.91154 0
M  V30 2143 H 202.793 -2.06686 7.91974 0
M  V30 2144 N 205.456 -1.28612 -0.910864 0
M  V30 2145 C 206.681 -1.1891 -1.69927 0
M  V30 2146 C 207.106 0.248372 -1.86453 0
M  V30 2147 O 206.464 1.17961 -1.37676 0
M  V30 2148 C 206.512 -1.89578 -3.06745 0
M  V30 2149 O 205.616 -1.20521 -3.94396 0
M  V30 2150 H 204.957 -0.412632 -0.520222 0
M  V30 2151 H 207.487 -1.69985 -1.1387 0
M  V30 2152 H 207.497 -1.97597 -3.56958 0
M  V30 2153 H 206.172 -2.94136 -2.94035 0
M  V30 2154 H 204.749 -1.20684 -3.52831 0
M  V30 2155 N 206.934 1.1197 -1.10907 0
M  V30 2156 C 207.844 2.21433 -0.774896 0
M  V30 2157 C 208.86 1.72478 0.229657 0
M  V30 2158 O 210.036 2.01288 0.0672008 0
M  V30 2159 C 207.101 3.4602 -0.216986 0
M  V30 2160 C 206.162 4.09791 -1.27944 0
M  V30 2161 C 205.395 5.28431 -0.748055 0
M  V30 2162 O 205.618 5.68823 0.423833 0
M  V30 2163 O 204.552 5.82644 -1.51027 0
M  V30 2164 H 208.378 2.5242 -1.68873 0
M  V30 2165 H 205.963 1.20399 -0.884555 0
M  V30 2166 H 207.845 4.21304 0.090059 0
M  V30 2167 H 206.52 3.16698 0.669633 0
M  V30 2168 H 205.427 3.36265 -1.63941 0
M  V30 2169 H 206.76 4.4328 -2.13925 0
M  V30 2170 N 208.412 0.89855 1.29475 0
M  V30 2171 C 209.661 0.519863 1.94885 0
M  V30 2172 C 209.974 -0.9383 1.71625 0
M  V30 2173 O 211.18 -1.42445 2.31131 0
M  V30 2174 C 209.636 0.878836 3.49005 0
M  V30 2175 C 209.244 2.35569 3.81066 0
M  V30 2176 C 210.988 0.570004 4.20656 0
M  V30 2177 C 208.895 2.65558 5.28425 0
M  V30 2178 H 207.825 0.190692 0.729488 0
M  V30 2179 H 210.476 1.09539 1.47219 0
M  V30 2180 H 208.858 0.232253 3.95318 0
M  V30 2181 H 210.032 3.04773 3.45616 0
M  V30 2182 H 208.347 2.63343 3.22552 0
M  V30 2183 H 210.944 0.770925 5.29113 0
M  V30 2184 H 211.287 -0.491404 4.1339 0
M  V30 2185 H 211.82 1.17438 3.8007 0
M  V30 2186 H 208.559 3.70493 5.40754 0
M  V30 2187 H 208.079 2.00977 5.65127 0
M  V30 2188 H 209.758 2.51765 5.96006 0
M  V30 2189 N 209.89 -1.43072 0.660911 0
M  V30 2190 C 211.301 -1.84932 0.256348 0
M  V30 2191 C 211.652 -1.55325 -1.19868 0
M  V30 2192 O 210.777 -1.00607 -1.91591 0
M  V30 2193 C 211.372 -3.35684 0.458475 0
M  V30 2194 C 209.931 -3.76245 0.108161 0
M  V30 2195 C 209.078 -2.66749 0.757641 0
M  V30 2196 H 212.029 -1.33116 0.864051 0
M  V30 2197 H 212.05 -3.79365 -0.293683 0
M  V30 2198 H 211.562 -3.572 1.51755 0
M  V30 2199 H 209.663 -3.60338 -0.948014 0
M  V30 2200 H 209.776 -4.76058 0.538992 0
M  V30 2201 H 208.14 -2.53989 0.190185 0
M  V30 2202 H 208.923 -2.91092 1.81989 0
M  V30 2203 N 211.368 -0.403325 -1.52352 0
M  V30 2204 C 212.278 0.432009 -2.30588 0
M  V30 2205 C 213.294 1.05884 -1.38075 0
M  V30 2206 O 214.47 1.06161 -1.71148 0
M  V30 2207 C 211.535 1.53669 -3.10784 0
M  V30 2208 C 210.596 0.933525 -4.19027 0
M  V30 2209 C 209.829 1.98557 -4.9539 0
M  V30 2210 O 210.052 3.20283 -4.71991 0
M  V30 2211 O 208.986 1.59504 -5.80381 0
M  V30 2212 H 212.812 -0.205739 -3.03002 0
M  V30 2213 H 210.397 -0.166675 -1.48467 0
M  V30 2214 H 212.279 2.17814 -3.60742 0
M  V30 2215 H 210.954 2.15915 -2.41169 0
M  V30 2216 H 209.861 0.254954 -3.7323 0
M  V30 2217 H 211.194 0.35508 -4.90918 0
M  V30 2218 N 212.846 1.57033 -0.133567 0
M  V30 2219 C 214.095 1.94861 0.520768 0
M  V30 2220 C 214.408 1.02012 1.66892 0
M  V30 2221 O 215.614 1.29365 2.38699 0
M  V30 2222 C 214.07 3.46362 0.977809 0
M  V30 2223 C 213.678 4.47773 -0.142674 0
M  V30 2224 C 215.422 3.93083 1.60269 0
M  V30 2225 C 213.329 5.90468 0.331883 0
M  V30 2226 H 212.259 0.727453 0.198315 0
M  V30 2227 H 214.91 1.82227 -0.215759 0
M  V30 2228 H 213.292 3.54282 1.7692 0
M  V30 2229 H 214.466 4.51536 -0.919317 0
M  V30 2230 H 212.781 4.10891 -0.675124 0
M  V30 2231 H 215.378 4.97121 1.96914 0
M  V30 2232 H 215.721 3.33876 2.48662 0
M  V30 2233 H 216.254 3.88025 0.876453 0
M  V30 2234 H 212.993 6.53463 -0.516341 0
M  V30 2235 H 212.513 5.90094 1.07469 0
M  V30 2236 H 214.192 6.42179 0.788332 0
M  V30 2237 N 214.325 -0.140222 1.56975 0
M  V30 2238 C 215.574 -0.850152 1.82908 0
M  V30 2239 C 215.887 -1.82028 0.715892 0
M  V30 2240 O 217.093 -2.57485 0.861016 0
M  V30 2241 C 215.549 -1.5625 3.24213 0
M  V30 2242 C 215.157 -0.63443 4.43485 0
M  V30 2243 C 216.901 -2.25881 3.59413 0
M  V30 2244 C 214.808 -1.34879 5.75814 0
M  V30 2245 H 213.738 -0.321221 0.682153 0
M  V30 2246 H 216.389 -0.102874 1.83211 0
M  V30 2247 H 214.771 -2.35565 3.18316 0
M  V30 2248 H 215.945 0.12398 4.60633 0
M  V30 2249 H 214.26 -0.0461836 4.16374 0
M  V30 2250 H 216.857 -2.79978 4.5554 0
M  V30 2251 H 217.2 -3.02693 2.85802 0
M  V30 2252 H 217.733 -1.53477 3.67001 0
M  V30 2253 H 214.472 -0.622385 6.52539 0
M  V30 2254 H 213.992 -2.07974 5.6259 0
M  V30 2255 H 215.671 -1.88784 6.18845 0
M  V30 2256 N 215.803 -1.52179 -0.40978 0
M  V30 2257 C 216.753 -1.71857 -1.49831 0
M  V30 2258 C 217.737 -0.572469 -1.50372 0
M  V30 2259 O 218.929 -0.829509 -1.56359 0
M  V30 2260 C 216.058 -1.87206 -2.87765 0
M  V30 2261 C 215.144 -3.07685 -2.91875 0
M  V30 2262 N 215.535 -4.30403 -2.65683 0
M  V30 2263 C 213.833 -3.07505 -3.23043 0
M  V30 2264 C 214.534 -5.11868 -2.76344 0
M  V30 2265 N 213.51 -4.47101 -3.09195 0
M  V30 2266 H 217.312 -2.64381 -1.28375 0
M  V30 2267 H 214.826 -1.50203 -0.617479 0
M  V30 2268 H 216.823 -1.99419 -3.66111 0
M  V30 2269 H 215.483 -0.958814 -3.10221 0
M  V30 2270 H 216.494 -4.58887 -2.4009 0
M  V30 2271 H 213.171 -2.25915 -3.51096 0
M  V30 2272 H 214.561 -6.19634 -2.59814 0
M  V30 2273 N 217.281 0.66697 -1.42791 0
M  V30 2274 C 218.214 1.79177 -1.41318 0
M  V30 2275 C 219.192 1.60234 -0.276401 0
M  V30 2276 O 220.376 1.82602 -0.46785 0
M  V30 2277 C 217.503 3.16289 -1.21157 0
M  V30 2278 C 216.549 3.53964 -2.37932 0
M  V30 2279 S 217.382 3.55501 -4.00474 0
M  V30 2280 C 218.538 4.95292 -3.8267 0
M  V30 2281 H 218.771 1.80153 -2.365 0
M  V30 2282 H 216.304 0.838357 -1.29657 0
M  V30 2283 H 218.262 3.95428 -1.10212 0
M  V30 2284 H 216.923 3.1289 -0.275481 0
M  V30 2285 H 216.116 4.53646 -2.19594 0
M  V30 2286 H 215.718 2.82204 -2.45432 0
M  V30 2287 H 218.01 5.83584 -3.44145 0
M  V30 2288 H 218.953 5.18679 -4.82055 0
M  V30 2289 H 219.361 4.68179 -3.15386 0
M  V30 2290 N 218.759 1.29093 0.90403 0
M  V30 2291 C 219.987 1.19689 1.68766 0
M  V30 2292 C 220.402 -0.243113 1.87228 0
M  V30 2293 O 219.759 -1.16326 1.40621 0
M  V30 2294 C 219.81 1.90144 3.07453 0
M  V30 2295 O 219.531 3.2852 2.89838 0
M  V30 2296 C 221.032 1.87162 4.01852 0
M  V30 2297 H 218.252 0.415035 0.527244 0
M  V30 2298 H 220.796 1.7039 1.13082 0
M  V30 2299 H 218.951 1.43289 3.59926 0
M  V30 2300 H 219.365 3.63944 3.77684 0
M  V30 2301 H 220.839 2.41032 4.96596 0
M  V30 2302 H 221.316 0.84617 4.30972 0
M  V30 2303 H 221.922 2.33741 3.5531 0
M  V30 2304 N 220.237 -1.11381 1.11499 0
M  V30 2305 C 221.147 -2.21019 0.786628 0
M  V30 2306 C 222.163 -1.72597 -0.220507 0
M  V30 2307 O 223.339 -2.01321 -0.0565251 0
M  V30 2308 C 220.404 -3.459 0.235333 0
M  V30 2309 C 219.465 -4.09107 1.30115 0
M  V30 2310 C 218.698 -5.28027 0.776068 0
M  V30 2311 O 218.921 -5.6904 -0.393661 0
M  V30 2312 O 217.855 -5.81835 1.54114 0
M  V30 2313 H 221.681 -2.51521 1.70209 0
M  V30 2314 H 219.266 -1.19928 0.890928 0
M  V30 2315 H 221.148 -4.21346 -0.067715 0
M  V30 2316 H 219.823 -3.17049 -0.652828 0
M  V30 2317 H 218.73 -3.35391 1.65722 0
M  V30 2318 H 220.063 -4.42139 2.16273 0
M  V30 2319 N 221.715 -0.905404 -1.28997 0
M  V30 2320 C 222.963 -0.533192 -1.9494 0
M  V30 2321 C 223.284 0.924618 -1.71685 0
M  V30 2322 O 222.554 1.65268 -1.05183 0
M  V30 2323 H 221.134 -0.194194 -0.721317 0
M  V30 2324 H 223.796 -1.15294 -1.57141 0
M  V30 2325 H 222.892 -0.72059 -3.03667 0
M  V30 2326 N 223.193 1.4272 -0.668489 0
M  V30 2327 C 224.609 1.55992 -0.33745 0
M  V30 2328 C 224.809 1.64933 1.15756 0
M  V30 2329 O 223.865 1.61278 1.94282 0
M  V30 2330 C 225.178 2.81314 -1.06222 0
M  V30 2331 C 226.726 2.95078 -1.04394 0
M  V30 2332 C 227.201 4.23252 -1.74991 0
M  V30 2333 N 228.692 4.3015 -1.71829 0
M  V30 2334 C 229.427 5.28127 -2.23315 0
M  V30 2335 N 228.923 6.32293 -2.83156 0
M  V30 2336 N 230.716 5.19882 -2.13726 0
M  V30 2337 H 222.867 1.3516 -1.63846 0
M  V30 2338 H 225.13 0.650174 -0.689912 0
M  V30 2339 H 224.836 2.80823 -2.11734 0
M  V30 2340 H 224.71 3.72012 -0.62344 0
M  V30 2341 H 227.097 2.951 0.0028244 0
M  V30 2342 H 227.178 2.05627 -1.52155 0
M  V30 2343 H 226.822 4.2399 -2.79633 0
M  V30 2344 H 226.752 5.11626 -1.24685 0
M  V30 2345 H 229.243 3.55499 -1.28175 0
M  V30 2346 H 229.556 7.03398 -3.20079 0
M  V30 2347 H 227.901 6.32873 -2.87223 0
M  V30 2348 H 231.092 4.37423 -1.66669 0
M  V30 2349 H 231.265 5.96077 -2.54158 0
M  V30 2350 N 224.671 0.411399 1.52136 0
M  V30 2351 C 225.581 -0.419774 2.30814 0
M  V30 2352 C 226.597 -1.0515 1.38634 0
M  V30 2353 O 227.773 -1.05252 1.71709 0
M  V30 2354 C 224.838 -1.52019 3.11594 0
M  V30 2355 C 223.899 -0.91129 4.19516 0
M  V30 2356 C 223.132 -1.95927 4.96436 0
M  V30 2357 O 223.355 -3.17775 4.73683 0
M  V30 2358 O 222.289 -1.56423 5.81219 0
M  V30 2359 H 226.115 0.221805 3.02889 0
M  V30 2360 H 223.7 0.174547 1.48377 0
M  V30 2361 H 225.582 -2.15898 3.61892 0
M  V30 2362 H 224.257 -2.14633 2.42311 0
M  V30 2363 H 223.164 -0.235157 3.7336 0
M  V30 2364 H 224.497 -0.32904 4.91099 0
M  V30 2365 N 226.149 -1.5696 0.141893 0
M  V30 2366 C 227.079 -2.19516 -0.795936 0
M  V30 2367 C 228.06 -1.14187 -1.26077 0
M  V30 2368 O 229.245 -1.42511 -1.31925 0
M  V30 2369 C 226.375 -2.81272 -2.03723 0
M  V30 2370 C 225.329 -3.92384 -1.70936 0
M  V30 2371 C 224.655 -4.41052 -3.02287 0
M  V30 2372 C 225.955 -5.13403 -0.959954 0
M  V30 2373 H 227.649 -2.98138 -0.274596 0
M  V30 2374 H 225.195 -1.43406 -0.130636 0
M  V30 2375 H 227.148 -3.237 -2.69808 0
M  V30 2376 H 225.872 -1.99973 -2.58221 0
M  V30 2377 H 224.531 -3.50566 -1.07232 0
M  V30 2378 H 224.179 -3.56582 -3.54765 0
M  V30 2379 H 223.879 -5.15993 -2.81114 0
M  V30 2380 H 225.403 -4.86146 -3.69451 0
M  V30 2381 H 226.817 -5.52706 -1.52279 0
M  V30 2382 H 225.214 -5.94073 -0.848357 0
M  V30 2383 H 226.284 -4.84875 0.0492434 0
M  V30 2384 N 227.627 0.131896 -1.57047 0
M  V30 2385 C 228.873 0.843179 -1.84441 0
M  V30 2386 C 229.206 1.80129 -0.725749 0
M  V30 2387 O 228.481 1.92624 0.269469 0
M  V30 2388 C 228.764 1.60442 -3.22382 0
M  V30 2389 C 228.617 0.666782 -4.4483 0
M  V30 2390 C 229.936 2.56354 -3.5773 0
M  V30 2391 H 227.055 0.305081 -0.670891 0
M  V30 2392 H 229.697 0.107839 -1.89694 0
M  V30 2393 H 227.847 2.23128 -3.18035 0
M  V30 2394 H 229.519 0.0497646 -4.61273 0
M  V30 2395 H 227.762 -0.022609 -4.33794 0
M  V30 2396 H 228.433 1.23579 -5.37989 0
M  V30 2397 H 230.909 2.0378 -3.62785 0
M  V30 2398 H 229.785 3.06657 -4.5525 0
M  V30 2399 H 230.046 3.38419 -2.84473 0
M  V30 2400 N 229.106 1.52395 0.401703 0
M  V30 2401 C 230.355 1.66044 1.14509 0
M  V30 2402 C 230.668 0.400216 1.91462 0
M  V30 2403 O 231.874 0.416632 2.68284 0
M  V30 2404 C 230.33 2.93388 2.0845 0
M  V30 2405 C 229.938 4.26545 1.36978 0
M  V30 2406 C 231.682 3.16402 2.83001 0
M  V30 2407 C 229.589 5.45007 2.29611 0
M  V30 2408 H 228.519 0.618562 0.431158 0
M  V30 2409 H 231.17 1.78886 0.40892 0
M  V30 2410 H 229.552 2.74263 2.8565 0
M  V30 2411 H 230.726 4.56179 0.650916 0
M  V30 2412 H 229.041 4.09692 0.74438 0
M  V30 2413 H 231.638 4.02085 3.52465 0
M  V30 2414 H 231.981 2.30943 3.46368 0
M  V30 2415 H 232.514 3.36034 2.12898 0
M  V30 2416 H 229.253 6.32835 1.70879 0
M  V30 2417 H 228.773 5.19702 2.9945 0
M  V30 2418 H 230.452 5.7838 2.89974 0
M  V30 2419 N 230.584 -0.659388 1.43143 0
M  V30 2420 C 231.995 -1.24041 1.39537 0
M  V30 2421 C 232.346 -1.95963 0.0963364 0
M  V30 2422 O 231.471 -2.00892 -0.804438 0
M  V30 2423 C 232.066 -2.25601 2.52764 0
M  V30 2424 C 230.625 -2.79195 2.52443 0
M  V30 2425 C 229.772 -1.53743 2.30778 0
M  V30 2426 H 232.723 -0.451792 1.52133 0
M  V30 2427 H 232.744 -3.07651 2.23899 0
M  V30 2428 H 232.256 -1.73226 3.47296 0
M  V30 2429 H 230.357 -3.35649 1.61773 0
M  V30 2430 H 230.47 -3.2716 3.50004 0
M  V30 2431 H 228.834 -1.80869 1.79328 0
M  V30 2432 H 229.617 -1.03312 3.27386 0
M  V30 2433 N 232.062 -1.29571 -0.897171 0
M  V30 2434 C 233.302 -1.18959 -1.66217 0
M  V30 2435 C 233.666 0.254271 -1.90309 0
M  V30 2436 O 234.867 0.483407 -2.64417 0
M  V30 2437 C 233.138 -1.98302 -2.9734 0
M  V30 2438 S 234.697 -2.04253 -3.88364 0
M  V30 2439 H 231.515 -0.424137 -0.570639 0
M  V30 2440 H 234.117 -1.6389 -1.06585 0
M  V30 2441 H 232.821 -3.02342 -2.77521 0
M  V30 2442 H 232.352 -1.53986 -3.62011 0
M  V30 2443 H 234.367 -1.16105 -4.82425 0
M  V30 2444 N 233.54 1.10788 -1.12088 0
M  V30 2445 C 234.956 1.34691 -0.856186 0
M  V30 2446 C 235.156 1.94791 0.515615 0
M  V30 2447 O 234.212 2.18524 1.26505 0
M  V30 2448 C 235.525 2.27208 -1.9697 0
M  V30 2449 C 237.073 2.40755 -2.00016 0
M  V30 2450 C 237.548 3.36598 -3.1059 0
M  V30 2451 N 239.039 3.44164 -3.10008 0
M  V30 2452 C 239.774 4.18284 -3.92206 0
M  V30 2453 N 239.27 4.95322 -4.84384 0
M  V30 2454 N 241.063 4.13865 -3.80357 0
M  V30 2455 H 233.214 0.70144 -2.00483 0
M  V30 2456 H 235.477 0.371405 -0.872217 0
M  V30 2457 H 235.183 1.90251 -2.958 0
M  V30 2458 H 235.057 3.27485 -1.87172 0
M  V30 2459 H 237.444 2.76982 -1.01808 0
M  V30 2460 H 237.525 1.40305 -2.13888 0
M  V30 2461 H 237.169 3.01096 -4.09028 0
M  V30 2462 H 237.099 4.36918 -2.93956 0
M  V30 2463 H 239.59 2.8922 -2.43228 0
M  V30 2464 H 239.903 5.49267 -5.43623 0
M  V30 2465 H 238.248 4.94459 -4.884 0
M  V30 2466 H 241.439 3.52773 -3.07683 0
M  V30 2467 H 241.612 4.71372 -4.44649 0
M  V30 2468 N 235.018 0.912232 1.28515 0
M  V30 2469 C 236.264 0.545405 1.95328 0
M  V30 2470 C 236.597 -0.908313 1.71649 0
M  V30 2471 O 235.872 -1.64575 1.03659 0
M  V30 2472 C 236.155 0.853483 3.4984 0
M  V30 2473 C 236.008 2.35982 3.82926 0
M  V30 2474 C 237.327 0.348589 4.38717 0
M  V30 2475 H 234.446 0.199626 0.709449 0
M  V30 2476 H 237.088 1.1412 1.5191 0
M  V30 2477 H 235.238 0.34643 3.86952 0
M  V30 2478 H 236.91 2.93738 3.55691 0
M  V30 2479 H 235.153 2.81543 3.30024 0
M  V30 2480 H 235.824 2.52593 4.90816 0
M  V30 2481 H 238.3 0.78294 4.08668 0
M  V30 2482 H 237.176 0.593242 5.45685 0
M  V30 2483 H 237.437 -0.751049 4.35674 0
M  V30 2484 N 236.496 -1.42363 0.676048 0
M  V30 2485 C 237.724 -2.05859 0.207268 0
M  V30 2486 C 238.139 -1.50796 -1.13605 0
M  V30 2487 O 237.496 -0.648265 -1.70598 0
M  V30 2488 C 237.547 -3.61248 0.134975 0
M  V30 2489 O 237.268 -4.1427 1.42521 0
M  V30 2490 C 238.769 -4.41859 -0.357151 0
M  V30 2491 H 235.989 -0.663431 0.100503 0
M  V30 2492 H 238.533 -1.82479 0.923136 0
M  V30 2493 H 236.688 -3.83735 -0.531588 0
M  V30 2494 H 237.102 -5.0815 1.29939 0
M  V30 2495 H 238.576 -5.50847 -0.356641 0
M  V30 2496 H 239.053 -4.16536 -1.39264 0
M  V30 2497 H 239.659 -4.24392 0.27772 0
M  V30 2498 N 237.974 -0.419461 -1.51915 0
M  V30 2499 C 239.199 0.154572 -2.06823 0
M  V30 2500 C 239.624 1.3722 -1.28656 0
M  V30 2501 O 238.982 1.78461 -0.319583 0
M  V30 2502 C 239.03 0.473172 -3.57482 0
M  V30 2503 O 238.134 1.56255 -3.81652 0
M  V30 2504 H 237.475 0.0096924 -0.663929 0
M  V30 2505 H 240.005 -0.595642 -1.95738 0
M  V30 2506 H 240.015 0.728825 -4.01438 0
M  V30 2507 H 238.69 -0.416873 -4.13805 0
M  V30 2508 H 237.267 1.29825 -3.49571 0
M  V30 2509 N 239.452 1.56882 -0.150215 0
M  V30 2510 C 240.863 1.82995 0.370076 0
M  V30 2511 C 241.214 1.06907 1.64515 0
M  V30 2512 O 240.339 0.315369 2.1409 0
M  V30 2513 C 240.934 3.31942 0.678208 0
M  V30 2514 C 239.493 3.58625 1.14301 0
M  V30 2515 C 238.64 2.76792 0.167778 0
M  V30 2516 H 241.591 1.54209 -0.374858 0
M  V30 2517 H 241.612 3.48272 1.53254 0
M  V30 2518 H 241.124 3.87294 -0.249991 0
M  V30 2519 H 239.225 3.08664 2.08704 0
M  V30 2520 H 239.338 4.67073 1.06676 0
M  V30 2521 H 237.702 2.45972 0.661037 0
M  V30 2522 H 238.485 3.34916 -0.754069 0
M  V30 2523 N 240.93 -0.123565 1.57115 0
M  V30 2524 C 241.878 -1.17082 2.00984 0
M  V30 2525 C 242.872 -1.43136 0.906009 0
M  V30 2526 O 244.078 -1.43152 1.09121 0
M  V30 2527 H 240.453 -0.394653 0.64012 0
M  V30 2528 H 242.424 -0.774292 2.88179 0
M  V30 2529 C 241.173 -2.49057 2.42623 0
M  V30 2530 H 240.496 -2.29846 3.27125 0
M  V30 2531 H 241.936 -3.20906 2.7712 0
M  V30 2532 C 240.395 -3.11305 1.28805 0
M  V30 2533 O 240.925 -3.97171 0.60153 0
M  V30 2534 N 239.131 -2.71111 1.04628 0
M  V30 2535 H 238.678 -2.01382 1.60634 0
M  V30 2536 H 238.636 -3.1309 0.286685 0
M  V30 2537 N 242.408 -1.52605 -0.393616 0
M  V30 2538 C 243.657 -1.66649 -1.13627 0
M  V30 2539 C 243.97 -0.410364 -1.91247 0
M  V30 2540 O 245.176 -0.430854 -2.68059 0
M  V30 2541 C 243.632 -2.9449 -2.06891 0
M  V30 2542 C 243.24 -4.27266 -1.34714 0
M  V30 2543 C 244.984 -3.17899 -2.81319 0
M  V30 2544 C 242.891 -5.46217 -2.26717 0
M  V30 2545 H 241.821 -0.62084 -0.427871 0
M  V30 2546 H 244.472 -1.791 -0.399428 0
M  V30 2547 H 242.854 -2.75774 -2.84191 0
M  V30 2548 H 244.028 -4.56518 -0.626714 0
M  V30 2549 H 242.343 -4.10081 -0.722643 0
M  V30 2550 H 244.94 -4.03949 -3.50328 0
M  V30 2551 H 245.283 -2.32777 -3.45139 0
M  V30 2552 H 245.816 -3.37159 -2.11113 0
M  V30 2553 H 242.555 -6.33733 -1.67521 0
M  V30 2554 H 242.075 -5.21283 -2.96689 0
M  V30 2555 H 243.754 -5.7991 -2.86903 0
M  V30 2556 N 243.887 0.651787 -1.4349 0
M  V30 2557 C 245.115 1.43937 -1.48626 0
M  V30 2558 C 245.53 1.8851 -0.104587 0
M  V30 2559 O 244.887 1.5958 0.885464 0
M  V30 2560 C 244.938 2.6734 -2.43334 0
M  V30 2561 O 244.659 2.24631 -3.76128 0
M  V30 2562 C 246.16 3.60683 -2.57726 0
M  V30 2563 H 243.38 0.44213 -0.504739 0
M  V30 2564 H 245.924 0.798944 -1.88248 0
M  V30 2565 H 244.079 3.2752 -2.06904 0
M  V30 2566 H 244.493 3.04485 -4.2707 0
M  V30 2567 H 245.967 4.43933 -3.28067 0
M  V30 2568 H 246.444 4.08126 -1.62265 0
M  V30 2569 H 247.05 3.06384 -2.94973 0
M  V30 2570 N 245.365 1.30045 0.890287 0
M  V30 2571 C 246.611 1.18737 1.64406 0
M  V30 2572 C 246.944 -0.258525 1.92472 0
M  V30 2573 O 246.219 -1.18562 1.54186 0
M  V30 2574 C 246.502 2.01087 2.98724 0
M  V30 2575 C 246.355 3.53867 2.77665 0
M  V30 2576 C 247.674 1.84457 3.9958 0
M  V30 2577 H 244.793 0.432698 0.596608 0
M  V30 2578 H 247.435 1.5962 1.0306 0
M  V30 2579 H 245.585 1.66349 3.51084 0
M  V30 2580 H 247.257 3.98637 2.32133 0
M  V30 2581 H 245.5 3.78318 2.12269 0
M  V30 2582 H 246.171 4.06772 3.7315 0
M  V30 2583 H 248.647 2.14817 3.56361 0
M  V30 2584 H 247.523 2.44411 4.91482 0
M  V30 2585 H 247.784 0.802276 4.3476 0
M  V30 2586 N 246.843 -1.10192 1.12674 0
M  V30 2587 C 248.071 -1.85983 0.906527 0
M  V30 2588 C 248.486 -1.80783 -0.544333 0
M  V30 2589 O 247.843 -1.19834 -1.37645 0
M  V30 2590 C 247.894 -3.34281 1.37618 0
M  V30 2591 O 247.615 -3.39401 2.77017 0
M  V30 2592 C 249.116 -4.26938 1.19325 0
M  V30 2593 H 246.336 -0.587716 0.323775 0
M  V30 2594 H 248.88 -1.39284 1.49734 0
M  V30 2595 H 247.035 -3.78436 0.828539 0
M  V30 2596 H 247.449 -4.31838 2.97684 0
M  V30 2597 H 248.923 -5.29181 1.57071 0
M  V30 2598 H 249.4 -4.38995 0.134097 0
M  V30 2599 H 250.006 -3.8859 1.72852 0
M  V30 2600 N 248.321 -0.919034 -1.28029 0
M  V30 2601 C 249.251 -0.428581 -2.29533 0
M  V30 2602 C 250.232 0.50659 -1.62381 0
M  V30 2603 O 251.417 0.413195 -1.89753 0
M  V30 2604 C 248.547 0.327388 -3.45753 0
M  V30 2605 C 247.501 -0.519137 -4.2484 0
M  V30 2606 C 246.827 0.365486 -5.33449 0
M  V30 2607 C 248.127 -1.77914 -4.91064 0
M  V30 2608 H 249.821 -1.27687 -2.70807 0
M  V30 2609 H 247.367 -0.615428 -1.30186 0
M  V30 2610 H 249.32 0.681378 -4.15855 0
M  V30 2611 H 248.044 1.20963 -3.03374 0
M  V30 2612 H 246.703 -0.855717 -3.56473 0
M  V30 2613 H 246.351 1.24642 -4.87312 0
M  V30 2614 H 246.051 -0.197356 -5.87268 0
M  V30 2615 H 247.575 0.715241 -6.06396 0
M  V30 2616 H 248.989 -1.49374 -5.53498 0
M  V30 2617 H 247.386 -2.2848 -5.54903 0
M  V30 2618 H 248.456 -2.50382 -4.15255 0
M  V30 2619 N 249.799 1.42003 -0.683588 0
M  V30 2620 C 250.746 2.30798 -0.0107309 0
M  V30 2621 C 251.716 1.4645 0.783688 0
M  V30 2622 O 252.901 1.75263 0.754156 0
M  V30 2623 C 250.041 3.3238 0.928306 0
M  V30 2624 C 249.154 4.31814 0.126776 0
M  V30 2625 C 248.289 5.20468 1.06236 0
M  V30 2626 C 247.328 6.11577 0.253035 0
M  V30 2627 N 246.465 6.92754 1.14179 0
M  V30 2628 H 251.305 2.8778 -0.773727 0
M  V30 2629 H 248.842 1.41745 -0.393283 0
M  V30 2630 H 250.8 3.89813 1.48666 0
M  V30 2631 H 249.43 2.76976 1.65783 0
M  V30 2632 H 248.482 3.76427 -0.54833 0
M  V30 2633 H 249.794 4.96276 -0.501192 0
M  V30 2634 H 248.948 5.82677 1.69035 0
M  V30 2635 H 247.687 4.56204 1.7242 0
M  V30 2636 H 246.692 5.48428 -0.388108 0
M  V30 2637 H 247.917 6.77892 -0.404839 0
M  V30 2638 H 245.863 6.3111 1.78987 0
M  V30 2639 H 245.78 7.53855 0.569111 0
M  V30 2640 H 247.048 7.59441 1.75697 0
M  V30 2641 N 251.277 0.427512 1.51691 0
M  V30 2642 C 252.224 -0.388867 2.275 0
M  V30 2643 C 253.194 -1.02532 1.30677 0
M  V30 2644 O 254.379 -1.0461 1.59566 0
M  V30 2645 C 251.519 -1.48954 3.11298 0
M  V30 2646 C 250.632 -0.872194 4.23104 0
M  V30 2647 C 249.767 -1.94709 4.94228 0
M  V30 2648 C 248.806 -1.30766 5.97969 0
M  V30 2649 N 247.943 -2.32349 6.62539 0
M  V30 2650 H 252.783 0.263997 2.96828 0
M  V30 2651 H 250.32 0.142033 1.46413 0
M  V30 2652 H 252.278 -2.13887 3.58201 0
M  V30 2653 H 250.908 -2.11217 2.44105 0
M  V30 2654 H 249.96 -0.111419 3.80237 0
M  V30 2655 H 251.272 -0.365264 4.97461 0
M  V30 2656 H 250.426 -2.67327 5.44629 0
M  V30 2657 H 249.165 -2.48773 4.1948 0
M  V30 2658 H 248.17 -0.566902 5.4687 0
M  V30 2659 H 249.395 -0.774483 6.74669 0
M  V30 2660 H 247.341 -2.85511 5.90609 0
M  V30 2661 H 247.258 -1.8652 7.3263 0
M  V30 2662 H 248.526 -3.04481 7.17574 0
M  V30 2663 N 252.755 -1.56801 0.158532 0
M  V30 2664 C 254.002 -1.9649 -0.489679 0
M  V30 2665 C 254.33 -1.04394 -1.6411 0
M  V30 2666 O 253.585 -0.0754401 -1.95555 0
M  V30 2667 C 253.884 -3.4235 -1.02623 0
M  V30 2668 C 253.55 -4.50899 0.00794526 0
M  V30 2669 C 252.212 -4.80312 0.292207 0
M  V30 2670 C 254.564 -5.16333 0.710584 0
M  V30 2671 C 251.892 -5.72461 1.28472 0
M  V30 2672 C 254.244 -6.09553 1.69199 0
M  V30 2673 C 252.908 -6.37339 1.98383 0
M  V30 2674 H 252.178 -0.719009 -0.179186 0
M  V30 2675 H 254.825 -1.8989 0.247798 0
M  V30 2676 H 253.13 -3.45838 -1.84128 0
M  V30 2677 H 254.827 -3.70393 -1.53656 0
M  V30 2678 H 251.417 -4.28015 -0.22379 0
M  V30 2679 H 255.601 -4.93732 0.504174 0
M  V30 2680 H 250.857 -5.92278 1.51714 0
M  V30 2681 H 255.031 -6.59327 2.24189 0
M  V30 2682 H 252.658 -7.08546 2.7544 0
M  V30 2683 N 254.233 0.115231 -1.57178 0
M  V30 2684 C 255.644 0.67197 -1.74188 0
M  V30 2685 C 255.995 1.80125 -0.777777 0
M  V30 2686 O 255.12 2.16346 0.0484376 0
M  V30 2687 C 255.715 1.22573 -3.1585 0
M  V30 2688 C 254.274 1.72872 -3.34353 0
M  V30 2689 C 253.421 0.629972 -2.70049 0
M  V30 2690 H 256.372 -0.110712 -1.58313 0
M  V30 2691 H 256.393 2.09535 -3.17609 0
M  V30 2692 H 255.905 0.403598 -3.85996 0
M  V30 2693 H 254.006 2.5755 -2.69256 0
M  V30 2694 H 254.119 1.83557 -4.42542 0
M  V30 2695 H 252.483 1.0645 -2.31388 0
M  V30 2696 H 253.266 -0.181241 -3.42821 0
M  V30 2697 N 255.711 1.52812 0.385517 0
M  V30 2698 C 256.641 1.80808 1.47752 0
M  V30 2699 C 257.622 0.660318 1.5676 0
M  V30 2700 O 258.807 0.908246 1.71652 0
M  V30 2701 C 255.937 1.98008 2.85324 0
M  V30 2702 C 254.891 3.13709 2.91154 0
M  V30 2703 C 254.217 3.16169 4.31209 0
M  V30 2704 C 255.517 4.52709 2.60483 0
M  V30 2705 H 257.211 2.72253 1.24573 0
M  V30 2706 H 254.757 1.31003 0.597839 0
M  V30 2707 H 256.71 2.16176 3.61726 0
M  V30 2708 H 255.434 1.03255 3.09848 0
M  V30 2709 H 254.093 2.95329 2.17201 0
M  V30 2710 H 253.741 2.19092 4.52778 0
M  V30 2711 H 253.441 3.93894 4.36029 0
M  V30 2712 H 254.965 3.36496 5.09512 0
M  V30 2713 H 256.379 4.71173 3.26602 0
M  V30 2714 H 254.776 5.32528 2.76648 0
M  V30 2715 H 255.846 4.59186 1.55809 0
M  V30 2716 N 257.189 -0.644168 1.43834 0
M  V30 2717 C 258.466 -1.40188 1.36406 0
M  V30 2718 C 258.846 -2.11094 0.0163124 0
M  V30 2719 O 258.194 -2.05426 -1.00062 0
M  V30 2720 C 258.404 -2.3791 2.55343 0
M  V30 2721 C 259.752 -3.01637 2.98832 0
M  V30 2722 O 260.776 -2.48237 2.55455 0
M  V30 2723 O 259.635 -3.98477 3.74003 0
M  V30 2724 H 256.729 -0.626773 0.539523 0
M  V30 2725 H 259.275 -0.670317 1.559 0
M  V30 2726 H 258.047 -1.84525 3.4506 0
M  V30 2727 H 257.67 -3.18503 2.37995 0
M  V30 2728 N 258.668 -1.30515 -0.883378 0
M  V30 2729 C 259.896 -1.22359 -1.66841 0
M  V30 2730 C 260.311 0.213296 -1.87591 0
M  V30 2731 O 259.668 1.14075 -1.42454 0
M  V30 2732 C 259.719 -1.95011 -3.04389 0
M  V30 2733 O 259.44 -3.3309 -2.84575 0
M  V30 2734 C 260.941 -1.93532 -3.98824 0
M  V30 2735 H 258.161 -0.423371 -0.520575 0
M  V30 2736 H 260.705 -1.72167 -1.10357 0
M  V30 2737 H 258.86 -1.48997 -3.57601 0
M  V30 2738 H 259.274 -3.69907 -3.71846 0
M  V30 2739 H 260.748 -2.48902 -4.92699 0
M  V30 2740 H 261.225 -0.914627 -4.29571 0
M  V30 2741 H 261.831 -2.39364 -3.51547 0
M  V30 2742 N 260.146 1.09593 -1.13257 0
M  V30 2743 C 261.076 2.18214 -0.830946 0
M  V30 2744 C 262.057 1.68812 0.208966 0
M  V30 2745 O 263.242 1.9408 0.0682666 0
M  V30 2746 C 260.372 3.46051 -0.294296 0
M  V30 2747 C 259.326 4.08778 -1.26826 0
M  V30 2748 C 258.652 5.31419 -0.591449 0
M  V30 2749 C 259.952 4.51476 -2.62615 0
M  V30 2750 H 261.646 2.43703 -1.73923 0
M  V30 2751 H 259.192 1.17128 -0.837675 0
M  V30 2752 H 261.145 4.2134 -0.0709606 0
M  V30 2753 H 259.869 3.20079 0.649366 0
M  V30 2754 H 258.528 3.35505 -1.47756 0
M  V30 2755 H 258.176 5.01727 0.357633 0
M  V30 2756 H 257.876 5.74341 -1.24123 0
M  V30 2757 H 259.4 6.09433 -0.377355 0
M  V30 2758 H 260.814 5.17999 -2.45663 0
M  V30 2759 H 259.211 5.05277 -3.23752 0
M  V30 2760 H 260.281 3.63962 -3.20406 0
M  V30 2761 N 261.624 0.925811 1.2754 0
M  V30 2762 C 262.873 0.561084 1.93739 0
M  V30 2763 C 263.186 -0.901685 1.73577 0
M  V30 2764 O 264.392 -1.37511 2.34101 0
M  V30 2765 C 262.848 0.952668 3.47062 0
M  V30 2766 C 262.456 2.43599 3.75983 0
M  V30 2767 C 264.2 0.659103 4.19352 0
M  V30 2768 C 262.107 2.76707 5.22673 0
M  V30 2769 H 261.037 0.206122 0.725279 0
M  V30 2770 H 263.688 1.12637 1.44863 0
M  V30 2771 H 262.07 0.316053 3.94737 0
M  V30 2772 H 263.244 3.12035 3.39073 0
M  V30 2773 H 261.559 2.70125 3.16893 0
M  V30 2774 H 264.156 0.882985 5.27359 0
M  V30 2775 H 264.499 -0.403607 4.14339 0
M  V30 2776 H 265.032 1.25473 3.77494 0
M  V30 2777 H 261.771 3.8188 5.32774 0
M  V30 2778 H 261.291 2.12919 5.60737 0
M  V30 2779 H 262.97 2.6435 5.90532 0
M  V30 2780 N 263.102 -1.41638 0.69111 0
M  V30 2781 C 264.513 -1.84346 0.295517 0
M  V30 2782 C 264.864 -1.57833 -1.16547 0
M  V30 2783 O 263.989 -1.04648 -1.89414 0
M  V30 2784 C 264.584 -3.34636 0.529575 0
M  V30 2785 C 263.143 -3.7593 0.187944 0
M  V30 2786 C 262.29 -2.65082 0.814052 0
M  V30 2787 H 265.241 -1.31253 0.892092 0
M  V30 2788 H 265.262 -3.79903 -0.213148 0
M  V30 2789 H 264.774 -3.53901 1.59297 0
M  V30 2790 H 262.875 -3.62268 -0.871367 0
M  V30 2791 H 262.988 -4.74808 0.63985 0
M  V30 2792 H 261.352 -2.53528 0.244017 0
M  V30 2793 H 262.135 -2.87167 1.88123 0
M  V30 2794 N 264.58 -0.43555 -1.51462 0
M  V30 2795 C 265.857 0.191364 -1.94662 0
M  V30 2796 C 266.237 1.60254 -1.37411 0
M  V30 2797 O 265.585 2.2152 -0.560458 0
M  V30 2798 C 265.795 0.17091 -3.48581 0
M  V30 2799 C 267.143 0.377357 -4.2292 0
M  V30 2800 O 268.167 0.249104 -3.55328 0
M  V30 2801 O 267.026 0.63247 -5.42828 0
M  V30 2802 H 264.12 0.130932 -0.816569 0
M  V30 2803 H 266.666 -0.4934 -1.62369 0
M  V30 2804 H 265.438 -0.815738 -3.82703 0
M  V30 2805 H 265.061 0.898659 -3.87311 0
M  V30 2806 N 266.058 1.56714 -0.166846 0
M  V30 2807 C 267.306 1.96358 0.478305 0
M  V30 2808 C 267.627 1.0537 1.6408 0
M  V30 2809 O 266.897 0.119154 1.95537 0
M  V30 2810 H 265.477 0.725065 0.179692 0
M  V30 2811 H 268.139 1.93329 -0.246985 0
M  V30 2812 H 267.235 3.00547 0.841292 0
M  V30 2813 N 267.536 -0.106894 1.57237 0
M  V30 2814 C 268.483 -1.13049 2.01217 0
M  V30 2815 C 269.453 -1.40471 0.886403 0
M  V30 2816 O 270.638 -1.52133 1.15153 0
M  V30 2817 C 267.778 -2.4487 2.43172 0
M  V30 2818 C 266.891 -2.24281 3.69218 0
M  V30 2819 C 266.026 -3.49417 4.00101 0
M  V30 2820 C 265.065 -3.24038 5.19294 0
M  V30 2821 N 264.202 -4.41409 5.45988 0
M  V30 2822 H 269.042 -0.748456 2.88448 0
M  V30 2823 H 266.579 -0.358054 1.42676 0
M  V30 2824 H 268.537 -3.21786 2.65537 0
M  V30 2825 H 267.167 -2.80944 1.58967 0
M  V30 2826 H 266.219 -1.38224 3.54398 0
M  V30 2827 H 267.531 -2.01512 4.56283 0
M  V30 2828 H 266.685 -4.34746 4.2318 0
M  V30 2829 H 265.424 -3.75229 3.11535 0
M  V30 2830 H 264.429 -2.37102 4.96047 0
M  V30 2831 H 265.654 -2.99584 6.09447 0
M  V30 2832 H 263.6 -4.67319 4.60379 0
M  V30 2833 H 263.517 -4.21788 6.274 0
M  V30 2834 H 264.785 -5.27836 5.73593 0
M  V30 2835 N 269.014 -1.53014 -0.377408 0
M  V30 2836 C 270.43 -1.42523 -0.718281 0
M  V30 2837 C 270.63 -0.55487 -1.9371 0
M  V30 2838 O 269.686 -0.0327593 -2.52479 0
M  V30 2839 C 270.999 -2.85546 -0.942539 0
M  V30 2840 C 272.547 -2.95101 -1.04329 0
M  V30 2841 C 273.022 -4.3916 -1.3001 0
M  V30 2842 N 274.513 -4.42536 -1.36806 0
M  V30 2843 C 275.248 -5.51097 -1.58364 0
M  V30 2844 N 274.744 -6.69724 -1.77317 0
M  V30 2845 N 276.537 -5.38657 -1.60638 0
M  V30 2846 H 268.688 -2.08116 0.424426 0
M  V30 2847 H 270.951 -0.939352 0.127759 0
M  V30 2848 H 270.657 -3.51499 -0.118929 0
M  V30 2849 H 270.531 -3.28493 -1.85397 0
M  V30 2850 H 272.918 -2.29309 -1.85745 0
M  V30 2851 H 272.999 -2.55566 -0.109505 0
M  V30 2852 H 272.643 -5.05521 -0.490991 0
M  V30 2853 H 272.573 -4.76258 -2.24691 0
M  V30 2854 H 275.064 -3.57039 -1.23821 0
M  V30 2855 H 275.377 -7.48233 -1.93306 0
M  V30 2856 H 273.722 -6.72732 -1.74518 0
M  V30 2857 H 276.913 -4.44948 -1.45391 0
M  V30 2858 H 277.086 -6.2333 -1.77098 0
M  V30 2859 N 270.492 0.636531 -1.44174 0
M  V30 2860 C 271.741 1.39213 -1.45954 0
M  V30 2861 C 272.054 1.95374 -0.0939119 0
M  V30 2862 O 273.26 2.71498 0.0107767 0
M  V30 2863 C 271.716 2.52025 -2.56927 0
M  V30 2864 C 271.324 2.024 -3.99673 0
M  V30 2865 C 273.068 3.29269 -2.67922 0
M  V30 2866 C 270.975 3.12521 -5.0208 0
M  V30 2867 H 269.905 0.523132 -0.542999 0
M  V30 2868 H 272.556 0.685349 -1.70221 0
M  V30 2869 H 270.938 3.25253 -2.25891 0
M  V30 2870 H 272.112 1.36073 -4.40251 0
M  V30 2871 H 270.427 1.37987 -3.92872 0
M  V30 2872 H 273.024 4.11352 -3.41605 0
M  V30 2873 H 273.367 3.78397 -1.73555 0
M  V30 2874 H 273.9 2.63129 -2.98342 0
M  V30 2875 H 270.639 2.68343 -5.98057 0
M  V30 2876 H 270.159 3.77507 -4.66099 0
M  V30 2877 H 271.838 3.77385 -5.25538 0
M  V30 2878 N 271.97 1.30982 0.876444 0
M  V30 2879 C 273.219 1.19658 1.62373 0
M  V30 2880 C 273.532 -0.245636 1.94052 0
M  V30 2881 O 274.738 -0.48049 2.67214 0
M  V30 2882 C 273.194 2.09433 2.92687 0
M  V30 2883 C 272.802 3.58613 2.68516 0
M  V30 2884 C 274.546 2.06893 3.70669 0
M  V30 2885 C 272.453 4.40416 3.94699 0
M  V30 2886 H 271.383 0.444268 0.609214 0
M  V30 2887 H 274.034 1.55791 0.969605 0
M  V30 2888 H 272.416 1.66191 3.59439 0
M  V30 2889 H 273.59 4.10058 2.10212 0
M  V30 2890 H 271.905 3.63063 2.03898 0
M  V30 2891 H 274.502 2.65258 4.64265 0
M  V30 2892 H 274.845 1.05448 4.02724 0
M  V30 2893 H 275.378 2.48301 3.10792 0
M  V30 2894 H 272.117 5.42591 3.67798 0
M  V30 2895 H 271.637 3.93731 4.52477 0
M  V30 2896 H 273.316 4.52294 4.62644 0
M  V30 2897 N 273.449 -1.08991 1.13837 0
M  V30 2898 C 274.695 -1.81699 0.91417 0
M  V30 2899 C 275.05 -1.84264 -0.553594 0
M  V30 2900 O 274.343 -1.30313 -1.4046 0
M  V30 2901 C 274.537 -3.27042 1.44147 0
M  V30 2902 C 274.366 -3.38637 2.95897 0
M  V30 2903 C 273.136 -3.50177 3.64286 0
M  V30 2904 C 275.334 -3.30791 3.93804 0
M  V30 2905 N 273.316 -3.50501 5.04006 0
M  V30 2906 C 274.687 -3.38037 5.19741 0
M  V30 2907 C 276.742 -3.14488 3.86007 0
M  V30 2908 C 275.445 -3.30659 6.38793 0
M  V30 2909 C 277.471 -3.08438 5.04599 0
M  V30 2910 C 276.833 -3.1628 6.29402 0
M  V30 2911 H 272.932 -0.678967 0.387979 0
M  V30 2912 H 275.516 -1.30224 1.4474 0
M  V30 2913 H 273.687 -3.76976 0.935091 0
M  V30 2914 H 275.419 -3.87785 1.1578 0
M  V30 2915 H 272.174 -3.53815 3.1482 0
M  V30 2916 H 272.598 -3.54236 5.76928 0
M  V30 2917 H 277.24 -3.07291 2.90399 0
M  V30 2918 H 274.958 -3.36618 7.34652 0
M  V30 2919 H 278.544 -2.96952 5.0031 0
M  V30 2920 H 277.424 -3.1162 7.19627 0
M  V30 2921 N 274.927 -0.932562 -1.27047 0
M  V30 2922 C 276.204 -0.49377 -1.89265 0
M  V30 2923 C 276.584 1.02833 -1.8436 0
M  V30 2924 O 275.932 1.88461 -1.29209 0
M  V30 2925 C 276.142 -1.04536 -3.32976 0
M  V30 2926 C 277.49 -1.10879 -4.09867 0
M  V30 2927 O 278.514 -0.995327 -3.42011 0
M  V30 2928 O 277.373 -1.28417 -5.31198 0
M  V30 2929 H 274.467 -0.159596 -0.811454 0
M  V30 2930 H 277.013 -1.02457 -1.3528 0
M  V30 2931 H 275.785 -2.08913 -3.30864 0
M  V30 2932 H 275.408 -0.496494 -3.94488 0
M  V30 2933 N 276.405 1.4127 -0.698611 0
M  V30 2934 C 277.63 2.06024 -0.238512 0
M  V30 2935 C 278.055 1.5224 1.10475 0
M  V30 2936 O 277.413 0.650623 1.69223 0
M  V30 2937 C 277.461 3.59988 -0.209952 0
M  V30 2938 O 276.565 4.04282 0.814235 0
M  V30 2939 H 275.906 0.653829 -0.115775 0
M  V30 2940 H 278.436 1.8098 -0.954326 0
M  V30 2941 H 278.446 4.07979 -0.0418436 0
M  V30 2942 H 277.121 3.98503 -1.1903 0
M  V30 2943 H 275.698 3.6779 0.615234 0
M  V30 2944 N 277.883 0.443576 1.51229 0
M  V30 2945 C 279.299 0.0962001 1.5931 0
M  V30 2946 C 279.499 -1.39501 1.45402 0
M  V30 2947 O 278.555 -2.16557 1.29843 0
M  V30 2948 C 279.868 0.621875 2.94199 0
M  V30 2949 C 281.416 0.582865 3.07525 0
M  V30 2950 C 281.891 1.08562 4.44948 0
M  V30 2951 N 283.382 1.04387 4.51284 0
M  V30 2952 C 284.117 1.40368 5.55954 0
M  V30 2953 N 283.613 1.83664 6.68011 0
M  V30 2954 N 285.406 1.32145 5.46346 0
M  V30 2955 H 277.557 1.41376 1.58514 0
M  V30 2956 H 279.82 0.582965 0.747567 0
M  V30 2957 H 279.526 1.66546 3.09767 0
M  V30 2958 H 279.4 0.0502125 3.77167 0
M  V30 2959 H 281.787 -0.451749 2.91622 0
M  V30 2960 H 281.868 1.191 2.26382 0
M  V30 2961 H 281.512 2.11873 4.61598 0
M  V30 2962 H 281.442 0.453956 5.2464 0
M  V30 2963 H 283.933 0.725986 3.70861 0
M  V30 2964 H 284.246 2.0934 7.43906 0
M  V30 2965 H 282.591 1.87596 6.69203 0
M  V30 2966 H 285.782 0.981808 4.57688 0
M  V30 2967 H 285.955 1.60514 6.27805 0
M  V30 2968 N 279.361 -1.56624 0.175154 0
M  V30 2969 C 280.308 -2.18149 -0.753634 0
M  V30 2970 C 281.278 -1.12265 -1.22417 0
M  V30 2971 O 282.463 -1.40432 -1.29165 0
M  V30 2972 C 279.603 -2.82933 -1.97592 0
M  V30 2973 C 278.716 -4.03289 -1.5486 0
M  V30 2974 C 277.851 -4.55988 -2.72485 0
M  V30 2975 C 276.89 -5.68746 -2.26262 0
M  V30 2976 N 276.027 -6.15938 -3.36994 0
M  V30 2977 H 280.867 -2.9717 -0.222195 0
M  V30 2978 H 278.404 -1.46774 -0.0979422 0
M  V30 2979 H 280.362 -3.18653 -2.69288 0
M  V30 2980 H 278.992 -2.06509 -2.481 0
M  V30 2981 H 278.044 -3.73364 -0.728246 0
M  V30 2982 H 279.356 -4.849 -1.16933 0
M  V30 2983 H 278.51 -4.9391 -3.52332 0
M  V30 2984 H 277.249 -3.73443 -3.13674 0
M  V30 2985 H 276.254 -5.30372 -1.44863 0
M  V30 2986 H 277.479 -6.53095 -1.86127 0
M  V30 2987 H 275.425 -5.36321 -3.77751 0
M  V30 2988 H 275.342 -6.92548 -3.03172 0
M  V30 2989 H 276.61 -6.58511 -4.17114 0
M  V30 2990 N 280.839 0.0985539 -1.57292 0
M  V30 2991 C 282.087 0.801092 -1.85545 0
M  V30 2992 C 282.408 1.79438 -0.763353 0
M  V30 2993 O 281.678 1.94763 0.21073 0
M  V30 2994 H 280.258 0.29884 -0.684619 0
M  V30 2995 H 282.92 0.0810064 -1.94732 0
M  V30 2996 H 282.016 1.3338 -2.82163 0
M  V30 2997 N 282.317 1.53212 0.369288 0
M  V30 2998 C 283.564 1.69215 1.11232 0
M  V30 2999 C 283.892 0.442048 1.8941 0
M  V30 3000 O 283.147 -0.575944 1.87033 0
M  V30 3001 C 283.446 2.89101 2.10132 0
M  V30 3002 C 283.112 4.25758 1.48463 0
M  V30 3003 C 281.774 4.6292 1.31372 0
M  V30 3004 C 284.126 5.10757 1.03811 0
M  V30 3005 C 281.454 5.82722 0.68207 0
M  V30 3006 C 283.806 6.31201 0.420487 0
M  V30 3007 C 282.47 6.67079 0.237038 0
M  V30 3008 H 281.74 0.619201 0.407027 0
M  V30 3009 H 284.387 1.87391 0.394552 0
M  V30 3010 H 282.692 2.65421 2.88199 0
M  V30 3011 H 284.389 2.98676 2.6757 0
M  V30 3012 H 280.979 3.96494 1.62758 0
M  V30 3013 H 285.163 4.82599 1.1581 0
M  V30 3014 H 280.419 6.09113 0.528316 0
M  V30 3015 H 284.593 6.96368 0.0662874 0
M  V30 3016 H 282.22 7.59774 -0.254477 0
M  V30 3017 N 283.795 -0.628877 1.44509 0
M  V30 3018 C 285.044 -1.38437 1.4669 0
M  V30 3019 C 285.357 -1.95322 0.104272 0
M  V30 3020 O 286.563 -2.715 0.00362163 0
M  V30 3021 C 285.019 -2.50659 2.5826 0
M  V30 3022 C 284.627 -2.00277 4.0074 0
M  V30 3023 C 286.371 -3.27844 2.69664 0
M  V30 3024 C 284.278 -3.09854 5.0373 0
M  V30 3025 H 283.208 -0.520245 0.545766 0
M  V30 3026 H 285.859 -0.676313 1.70582 0
M  V30 3027 H 284.241 -3.2405 2.27612 0
M  V30 3028 H 285.415 -1.33736 4.40966 0
M  V30 3029 H 283.73 -1.35901 3.93599 0
M  V30 3030 H 286.327 -4.09534 3.43781 0
M  V30 3031 H 286.67 -3.77471 1.75559 0
M  V30 3032 H 287.203 -2.61543 2.99733 0
M  V30 3033 H 283.942 -2.65168 5.99472 0
M  V30 3034 H 283.462 -3.7503 4.68095 0
M  V30 3035 H 285.141 -3.74592 5.27532 0
M  V30 3036 N 285.273 -1.31445 -0.869486 0
M  V30 3037 C 286.522 -1.20517 -1.61736 0
M  V30 3038 C 286.835 0.235341 -1.94179 0
M  V30 3039 O 288.041 0.466312 -2.67465 0
M  V30 3040 C 286.497 -2.10982 -2.91573 0
M  V30 3041 C 286.105 -3.60032 -2.66611 0
M  V30 3042 C 287.849 -2.08856 -3.69567 0
M  V30 3043 C 285.756 -4.42503 -3.92358 0
M  V30 3044 H 284.686 -0.447493 -0.606849 0
M  V30 3045 H 287.337 -1.56303 -0.96133 0
M  V30 3046 H 285.719 -1.68095 -3.58553 0
M  V30 3047 H 286.893 -4.11167 -2.08035 0
M  V30 3048 H 285.208 -3.64139 -2.0197 0
M  V30 3049 H 287.805 -2.67716 -4.62852 0
M  V30 3050 H 288.148 -1.07582 -4.02159 0
M  V30 3051 H 288.681 -2.49945 -3.09471 0
M  V30 3052 H 285.42 -5.44533 -3.64916 0
M  V30 3053 H 284.94 -3.96125 -4.50383 0
M  V30 3054 H 286.619 -4.54741 -4.60238 0
M  V30 3055 N 286.751 1.08385 -1.14413 0
M  V30 3056 C 287.976 1.85057 -0.936413 0
M  V30 3057 C 288.401 1.81055 0.509971 0
M  V30 3058 O 287.759 1.1958 1.36273 0
M  V30 3059 C 287.807 3.30505 -1.44217 0
M  V30 3060 O 286.911 4.07491 -0.634409 0
M  V30 3061 H 286.252 0.573425 -0.334784 0
M  V30 3062 H 288.782 1.36799 -1.52142 0
M  V30 3063 H 288.792 3.81348 -1.45043 0
M  V30 3064 H 287.467 3.32734 -2.49522 0
M  V30 3065 H 286.044 3.66368 -0.694902 0
M  V30 3066 N 288.23 0.939286 1.26551 0
M  V30 3067 C 289.178 0.43815 2.28436 0
M  V30 3068 C 290.172 -0.483587 1.62351 0
M  V30 3069 O 291.378 -0.362009 1.76322 0
M  V30 3070 H 287.753 0.123149 0.741848 0
M  V30 3071 H 289.724 1.31002 2.68106 0
M  V30 3072 C 288.473 -0.283052 3.46546 0
M  V30 3073 H 287.796 0.417043 3.97619 0
M  V30 3074 H 289.236 -0.597948 4.19763 0
M  V30 3075 C 287.695 -1.50018 3.01656 0
M  V30 3076 O 288.225 -2.59855 3.0633 0
M  V30 3077 N 286.431 -1.35608 2.57019 0
M  V30 3078 H 285.978 -0.46244 2.53415 0
M  V30 3079 H 285.936 -2.17165 2.27347 0
M  V30 3080 N 289.708 -1.40897 0.706093 0
M  V30 3081 C 290.671 -2.29131 0.0562841 0
M  V30 3082 C 291.671 -1.44901 -0.697166 0
M  V30 3083 O 292.861 -1.65926 -0.530484 0
M  V30 3084 C 289.993 -3.27957 -0.93043 0
M  V30 3085 H 291.186 -2.88091 0.833284 0
M  V30 3086 H 288.739 -1.4906 0.470192 0
M  V30 3087 H 289.474 -2.73997 -1.73482 0
M  V30 3088 H 289.259 -3.90124 -0.393166 0
M  V30 3089 H 290.749 -3.94049 -1.38256 0
M  V30 3090 N 291.186 -0.45159 -1.50991 0
M  V30 3091 C 292.414 0.108334 -2.06616 0
M  V30 3092 C 292.829 1.35224 -1.31757 0
M  V30 3093 O 292.186 1.78475 -0.381174 0
M  V30 3094 C 292.237 0.41619 -3.59096 0
M  V30 3095 O 291.958 -0.778361 -4.3113 0
M  V30 3096 C 293.459 1.02523 -4.31282 0
M  V30 3097 H 290.679 0.00159995 -0.670998 0
M  V30 3098 H 293.223 -0.634771 -1.94399 0
M  V30 3099 H 291.378 1.10921 -3.71181 0
M  V30 3100 H 291.792 -0.511181 -5.22003 0
M  V30 3101 H 293.266 1.19053 -5.39009 0
M  V30 3102 H 293.743 2.01013 -3.905 0
M  V30 3103 H 294.349 0.371173 -4.23677 0
M  V30 3104 N 292.664 1.56529 -0.183458 0
M  V30 3105 C 293.894 2.01331 0.463612 0
M  V30 3106 C 294.302 1.06278 1.5653 0
M  V30 3107 O 293.645 0.0577976 1.83609 0
M  V30 3108 C 293.707 3.42547 1.09096 0
M  V30 3109 C 293.371 4.56817 0.129442 0
M  V30 3110 C 294.368 5.15734 -0.656807 0
M  V30 3111 C 292.053 5.02295 0.02174 0
M  V30 3112 C 294.047 6.1857 -1.53784 0
M  V30 3113 C 291.734 6.04978 -0.862864 0
M  V30 3114 C 292.732 6.62988 -1.64123 0
M  V30 3115 O 292.42 7.63677 -2.51103 0
M  V30 3116 H 292.152 0.664917 0.121907 0
M  V30 3117 H 294.706 2.034 -0.285954 0
M  V30 3118 H 292.936 3.37428 1.88889 0
M  V30 3119 H 294.625 3.71228 1.64148 0
M  V30 3120 H 295.391 4.81473 -0.583839 0
M  V30 3121 H 291.27 4.56847 0.617392 0
M  V30 3122 H 294.814 6.63777 -2.14583 0
M  V30 3123 H 290.711 6.38663 -0.93699 0
M  V30 3124 H 291.479 7.81049 -2.44753 0
M  V30 3125 N 294.142 -0.090211 1.57342 0
M  V30 3126 C 295.089 -1.10909 2.02405 0
M  V30 3127 C 296.059 -1.39523 0.901252 0
M  V30 3128 O 297.244 -1.50903 1.1676 0
M  V30 3129 C 294.384 -2.42277 2.45755 0
M  V30 3130 C 293.497 -2.20352 3.71576 0
M  V30 3131 C 292.632 -3.45154 4.03785 0
M  V30 3132 C 291.671 -3.18512 5.22701 0
M  V30 3133 N 290.808 -4.35593 5.50639 0
M  V30 3134 H 295.648 -0.71782 2.89225 0
M  V30 3135 H 293.185 -0.342901 1.43048 0
M  V30 3136 H 295.143 -3.18951 2.68935 0
M  V30 3137 H 293.773 -2.79242 1.61938 0
M  V30 3138 H 292.825 -1.34458 3.55844 0
M  V30 3139 H 294.137 -1.96661 4.58395 0
M  V30 3140 H 293.291 -4.30233 4.27767 0
M  V30 3141 H 292.03 -3.71904 3.15498 0
M  V30 3142 H 291.035 -2.31827 4.98534 0
M  V30 3143 H 292.26 -2.93103 6.12591 0
M  V30 3144 H 290.206 -4.6241 4.6531 0
M  V30 3145 H 290.123 -4.1511 6.31838 0
M  V30 3146 H 291.391 -5.21723 5.7916 0
M  V30 3147 N 295.62 -1.53406 -0.361157 0
M  V30 3148 C 296.53 -1.83122 -1.4664 0
M  V30 3149 C 297.546 -0.719943 -1.58407 0
M  V30 3150 O 298.722 -1.01046 -1.74218 0
M  V30 3151 C 295.787 -2.01891 -2.81853 0
M  V30 3152 C 294.848 -3.25784 -2.79577 0
M  V30 3153 C 294.081 -3.43648 -4.0834 0
M  V30 3154 O 294.304 -2.65714 -5.0473 0
M  V30 3155 O 293.238 -4.37018 -4.13883 0
M  V30 3156 H 297.064 -2.7703 -1.24451 0
M  V30 3157 H 294.649 -1.38841 -0.551678 0
M  V30 3158 H 296.531 -2.15782 -3.61962 0
M  V30 3159 H 295.206 -1.11173 -3.0401 0
M  V30 3160 H 294.113 -3.17312 -1.98151 0
M  V30 3161 H 295.446 -4.16439 -2.62373 0
M  V30 3162 N 297.098 0.621204 -1.44841 0
M  V30 3163 C 298.347 1.37658 -1.47422 0
M  V30 3164 C 298.66 1.95264 -0.114629 0
M  V30 3165 O 299.866 2.71494 -0.0180199 0
M  V30 3166 C 298.322 2.49285 -2.59586 0
M  V30 3167 C 297.93 1.98149 -4.01797 0
M  V30 3168 C 299.674 3.26409 -2.71399 0
M  V30 3169 C 297.581 3.07178 -5.05367 0
M  V30 3170 H 296.511 0.517344 -0.548517 0
M  V30 3171 H 299.162 0.667257 -1.70938 0
M  V30 3172 H 297.544 3.22839 -2.29328 0
M  V30 3173 H 298.718 1.31395 -4.41669 0
M  V30 3174 H 297.033 1.33812 -3.94314 0
M  V30 3175 H 299.63 4.07706 -3.45948 0
M  V30 3176 H 299.973 3.76535 -1.77559 0
M  V30 3177 H 300.506 2.5995 -3.01116 0
M  V30 3178 H 297.245 2.61985 -6.00869 0
M  V30 3179 H 296.765 3.72542 -4.70077 0
M  V30 3180 H 298.444 3.71789 -5.29511 0
M  V30 3181 N 298.576 1.31904 0.862503 0
M  V30 3182 C 299.824 1.21776 1.61292 0
M  V30 3183 C 300.145 -0.222413 1.93727 0
M  V30 3184 O 299.415 -1.1451 1.58947 0
M  V30 3185 H 297.995 0.447717 0.597962 0
M  V30 3186 H 300.657 1.65326 1.03215 0
M  V30 3187 H 299.753 1.7948 2.5533 0
M  V30 3188 N 300.054 -1.07777 1.14986 0
M  V30 3189 C 300.984 -2.16865 0.865557 0
M  V30 3190 C 301.965 -1.69123 -0.182083 0
M  V30 3191 O 303.15 -1.94164 -0.0373815 0
M  V30 3192 C 300.28 -3.45539 0.349313 0
M  V30 3193 C 299.234 -4.06708 1.33313 0
M  V30 3194 C 298.56 -5.30411 0.675918 0
M  V30 3195 C 299.86 -4.47241 2.69764 0
M  V30 3196 H 301.554 -2.40905 1.77778 0
M  V30 3197 H 299.1 -1.15781 0.856203 0
M  V30 3198 H 301.053 -4.21174 0.137983 0
M  V30 3199 H 299.777 -3.21072 -0.598362 0
M  V30 3200 H 298.436 -3.33112 1.53075 0
M  V30 3201 H 298.084 -5.02232 -0.277767 0
M  V30 3202 H 297.784 -5.72293 1.33244 0
M  V30 3203 H 299.308 -6.08755 0.474262 0
M  V30 3204 H 300.722 -5.14025 2.53873 0
M  V30 3205 H 299.119 -5.00062 3.3175 0
M  V30 3206 H 300.189 -3.58818 3.26156 0
M  V30 3207 N 301.532 -0.945985 -1.26051 0
M  V30 3208 C 302.462 -0.477172 -2.28572 0
M  V30 3209 C 303.443 0.472032 -1.63419 0
M  V30 3210 O 304.628 0.372853 -1.90587 0
M  V30 3211 C 301.758 0.253975 -3.4637 0
M  V30 3212 C 300.712 -0.609135 -4.23643 0
M  V30 3213 C 300.038 0.252252 -5.34105 0
M  V30 3214 C 301.338 -1.8829 -4.8718 0
M  V30 3215 H 303.032 -1.33402 -2.68038 0
M  V30 3216 H 300.578 -0.642904 -1.28852 0
M  V30 3217 H 302.531 0.593016 -4.17207 0
M  V30 3218 H 301.255 1.145 -3.05871 0
M  V30 3219 H 299.914 -0.931138 -3.54578 0
M  V30 3220 H 299.562 1.14278 -4.89846 0
M  V30 3221 H 299.262 -0.32188 -5.86718 0
M  V30 3222 H 300.786 0.586454 -6.07777 0
M  V30 3223 H 302.2 -1.61081 -5.50205 0
M  V30 3224 H 300.597 -2.40199 -5.49931 0
M  V30 3225 H 301.667 -2.59134 -4.09851 0
M  V30 3226 N 303.011 1.40521 -0.713556 0
M  V30 3227 C 304.239 2.05237 -0.261775 0
M  V30 3228 C 304.654 1.53755 1.09567 0
M  V30 3229 O 304.011 0.693268 1.6882 0
M  V30 3230 C 304.062 3.60763 -0.230706 0
M  V30 3231 O 303.783 4.10345 -1.53455 0
M  V30 3232 C 305.284 4.42651 0.239874 0
M  V30 3233 H 302.504 0.660533 -0.118057 0
M  V30 3234 H 305.048 1.79967 -0.971192 0
M  V30 3235 H 303.203 3.8501 0.429661 0
M  V30 3236 H 303.617 5.04526 -1.43366 0
M  V30 3237 H 305.091 5.51599 0.210468 0
M  V30 3238 H 305.568 4.20082 1.28171 0
M  V30 3239 H 306.174 4.23507 -0.390142 0
M  V30 3240 N 304.489 0.459591 1.5075 0
M  V30 3241 C 305.729 -0.09824 2.04164 0
M  V30 3242 C 306.093 -1.3801 1.33481 0
M  V30 3243 O 307.294 -2.01959 1.77387 0
M  V30 3244 C 305.565 -0.289467 3.56226 0
M  V30 3245 S 307.124 -0.807507 4.31306 0
M  V30 3246 H 303.942 -0.0213845 0.710678 0
M  V30 3247 H 306.544 0.624098 1.85271 0
M  V30 3248 H 305.248 0.649461 4.05229 0
M  V30 3249 H 304.779 -1.03825 3.79452 0
M  V30 3250 H 306.794 -2.0824 4.50389 0
M  V30 3251 N 305.967 -1.56429 0.191757 0
M  V30 3252 C 306.877 -2.22541 -0.742481 0
M  V30 3253 C 307.893 -1.22342 -1.23727 0
M  V30 3254 O 309.069 -1.55069 -1.28513 0
M  V30 3255 C 306.134 -2.8692 -1.94623 0
M  V30 3256 C 305.195 -4.02378 -1.49633 0
M  V30 3257 C 304.428 -4.63678 -2.6427 0
M  V30 3258 O 304.651 -4.23895 -3.81666 0
M  V30 3259 O 303.585 -5.53202 -2.37174 0
M  V30 3260 H 307.411 -3.02977 -0.209462 0
M  V30 3261 H 304.996 -1.49353 -0.0373832 0
M  V30 3262 H 306.878 -3.27663 -2.64982 0
M  V30 3263 H 305.553 -2.09466 -2.46791 0
M  V30 3264 H 304.46 -3.66265 -0.761636 0
M  V30 3265 H 305.793 -4.81487 -1.02134 0
M  V30 3266 N 307.445 0.0818655 -1.57387 0
M  V30 3267 C 308.408 1.08265 -2.02018 0
M  V30 3268 C 309.408 1.32183 -0.915664 0
M  V30 3269 O 310.598 1.28073 -1.18081 0
M  V30 3270 C 307.73 2.42871 -2.39221 0
M  V30 3271 H 308.923 0.698204 -2.91659 0
M  V30 3272 H 306.476 0.327303 -1.52835 0
M  V30 3273 H 307.211 2.86167 -1.52575 0
M  V30 3274 H 306.996 2.26855 -3.19811 0
M  V30 3275 H 308.486 3.14826 -2.74362 0
M  V30 3276 N 308.923 1.53595 0.353017 0
M  V30 3277 C 310.151 1.74311 1.1146 0
M  V30 3278 C 310.566 0.477854 1.82653 0
M  V30 3279 O 309.923 -0.549977 1.74016 0
M  V30 3280 C 309.974 2.91694 2.13534 0
M  V30 3281 O 309.695 4.13325 1.45238 0
M  V30 3282 C 311.196 3.24384 3.02142 0
M  V30 3283 H 308.416 0.582669 0.332773 0
M  V30 3284 H 310.96 2.00386 0.408107 0
M  V30 3285 H 309.115 2.67977 2.79763 0
M  V30 3286 H 309.529 4.79148 2.13349 0
M  V30 3287 H 311.003 4.09893 3.69718 0
M  V30 3288 H 311.48 2.40282 3.67643 0
M  V30 3289 H 312.086 3.50073 2.41514 0
M  V30 3290 N 310.401 -0.613514 1.45168 0
M  V30 3291 C 311.647 -1.37471 1.49096 0
M  V30 3292 C 311.98 -1.93765 0.129901 0
M  V30 3293 O 311.255 -1.74707 -0.854858 0
M  V30 3294 C 311.538 -2.52701 2.56542 0
M  V30 3295 C 311.391 -2.01643 4.0207 0
M  V30 3296 C 312.71 -3.54849 2.60327 0
M  V30 3297 H 309.829 -0.498502 0.54283 0
M  V30 3298 H 312.471 -0.692125 1.76945 0
M  V30 3299 H 310.621 -3.10931 2.32926 0
M  V30 3300 H 312.293 -1.48108 4.36877 0
M  V30 3301 H 310.536 -1.32688 4.13009 0
M  V30 3302 H 311.207 -2.84681 4.72928 0
M  V30 3303 H 313.683 -3.0645 2.81474 0
M  V30 3304 H 312.559 -4.32973 3.37381 0
M  V30 3305 H 312.82 -4.10079 1.6519 0
M  V30 3306 N 311.879 -1.3236 -0.855495 0
M  V30 3307 C 312.827 -1.2118 -1.9854 0
M  V30 3308 C 313.821 -0.116788 -1.68997 0
M  V30 3309 O 315.027 -0.279657 -1.77814 0
M  V30 3310 H 311.402 -0.375608 -0.651477 0
M  V30 3311 H 313.373 -2.16743 -2.05098 0
M  V30 3312 C 312.122 -0.950849 -3.34446 0
M  V30 3313 H 311.445 -1.78563 -3.57708 0
M  V30 3314 H 312.885 -0.912863 -4.14057 0
M  V30 3315 C 311.344 0.346404 -3.35114 0
M  V30 3316 O 311.874 1.35855 -3.7803 0
M  V30 3317 N 310.08 0.36808 -2.88259 0
M  V30 3318 H 309.627 -0.456102 -2.5353 0
M  V30 3319 H 309.585 1.23591 -2.89089 0
M  V30 3320 N 313.357 1.07166 -1.15556 0
M  V30 3321 C 314.605 1.79443 -0.929764 0
M  V30 3322 C 314.926 1.87246 0.544414 0
M  V30 3323 O 314.196 1.37473 1.39564 0
M  V30 3324 H 312.776 0.664625 -0.341003 0
M  V30 3325 H 315.438 1.29499 -1.45657 0
M  V30 3326 H 314.534 2.81832 -1.34079 0
M  V30 3327 N 314.835 0.952656 1.25548 0
M  V30 3328 C 315.785 0.442033 2.23674 0
M  V30 3329 C 316.769 -0.467632 1.53955 0
M  V30 3330 O 317.961 -0.301006 1.74422 0
M  V30 3331 C 315.09 -0.280816 3.4215 0
M  V30 3332 C 314.176 0.646803 4.19139 0
M  V30 3333 N 314.567 1.77759 4.73535 0
M  V30 3334 C 312.865 0.454617 4.43677 0
M  V30 3335 C 313.566 2.35658 5.31827 0
M  V30 3336 N 312.542 1.64333 5.18166 0
M  V30 3337 H 316.344 1.30505 2.63336 0
M  V30 3338 H 313.858 0.809904 1.40763 0
M  V30 3339 H 315.855 -0.663747 4.11582 0
M  V30 3340 H 314.515 -1.14046 3.04012 0
M  V30 3341 H 315.526 2.15949 4.7073 0
M  V30 3342 H 312.203 -0.362312 4.15925 0
M  V30 3343 H 313.593 3.30998 5.84713 0
M  V30 3344 N 316.313 -1.40141 0.720998 0
M  V30 3345 C 317.243 -2.33339 0.0867621 0
M  V30 3346 C 318.224 -1.53178 -0.739622 0
M  V30 3347 O 319.409 -1.81625 -0.687449 0
M  V30 3348 C 316.539 -3.37194 -0.831728 0
M  V30 3349 C 315.493 -4.27857 -0.110558 0
M  V30 3350 C 314.819 -5.22294 -1.14513 0
M  V30 3351 C 316.119 -5.11872 1.0385 0
M  V30 3352 H 317.813 -2.86626 0.865219 0
M  V30 3353 H 315.359 -1.37814 0.417516 0
M  V30 3354 H 317.312 -4.01335 -1.28485 0
M  V30 3355 H 316.036 -2.82314 -1.64214 0
M  V30 3356 H 314.695 -3.65176 0.322797 0
M  V30 3357 H 314.343 -4.63717 -1.94874 0
M  V30 3358 H 314.043 -5.83797 -0.667446 0
M  V30 3359 H 315.567 -5.89312 -1.59824 0
M  V30 3360 H 316.981 -5.69436 0.664482 0
M  V30 3361 H 315.378 -5.82445 1.4449 0
M  V30 3362 H 316.448 -4.4753 1.86668 0
M  V30 3363 N 317.792 -0.46758 -1.50504 0
M  V30 3364 C 319.022 0.086288 -2.0642 0
M  V30 3365 C 319.43 1.34369 -1.33197 0
M  V30 3366 O 318.773 1.79431 -0.393747 0
M  V30 3367 C 318.835 0.443846 -3.5675 0
M  V30 3368 C 318.499 -0.711035 -4.51435 0
M  V30 3369 C 319.496 -1.59205 -4.94924 0
M  V30 3370 C 317.181 -0.900363 -4.94165 0
M  V30 3371 C 319.175 -2.64683 -5.79846 0
M  V30 3372 C 316.862 -1.95837 -5.7887 0
M  V30 3373 C 317.86 -2.82997 -6.21612 0
M  V30 3374 O 317.548 -3.86977 -7.0463 0
M  V30 3375 H 317.28 -0.00217814 -0.675996 0
M  V30 3376 H 319.834 -0.654346 -1.94698 0
M  V30 3377 H 318.064 1.23762 -3.6636 0
M  V30 3378 H 319.753 0.932386 -3.95046 0
M  V30 3379 H 320.519 -1.45745 -4.62583 0
M  V30 3380 H 316.398 -0.231427 -4.60419 0
M  V30 3381 H 319.942 -3.32745 -6.13128 0
M  V30 3382 H 315.839 -2.09305 -6.10624 0
M  V30 3383 H 316.607 -3.83923 -7.22873 0
M  V30 3384 N 319.27 1.56325 -0.20005 0
M  V30 3385 C 320.217 2.1932 0.718833 0
M  V30 3386 C 321.187 1.14198 1.20615 0
M  V30 3387 O 322.372 1.42469 1.26914 0
M  V30 3388 C 319.512 2.86041 1.93066 0
M  V30 3389 C 318.625 4.05702 1.48425 0
M  V30 3390 C 317.76 4.60266 2.65196 0
M  V30 3391 C 316.799 5.72273 2.17185 0
M  V30 3392 N 315.936 6.21221 3.27152 0
M  V30 3393 H 320.776 2.97486 0.17489 0
M  V30 3394 H 318.313 1.46911 0.0745794 0
M  V30 3395 H 320.271 3.22897 2.64184 0
M  V30 3396 H 318.901 2.1043 2.44783 0
M  V30 3397 H 317.953 3.74475 0.668755 0
M  V30 3398 H 319.265 4.86699 1.09204 0
M  V30 3399 H 318.419 4.99453 3.4443 0
M  V30 3400 H 317.158 3.78386 3.07693 0
M  V30 3401 H 316.163 5.3261 1.36407 0
M  V30 3402 H 317.388 6.55974 1.75713 0
M  V30 3403 H 315.334 5.42263 3.69171 0
M  V30 3404 H 315.251 6.97284 2.92116 0
M  V30 3405 H 316.519 6.65063 4.06585 0
M  V30 3406 N 320.748 -0.0735177 1.57428 0
M  V30 3407 C 321.976 -0.785969 1.9139 0
M  V30 3408 C 322.391 -1.71207 0.795847 0
M  V30 3409 O 321.748 -1.81033 -0.230915 0
M  V30 3410 C 321.799 -1.58107 3.25091 0
M  V30 3411 O 321.52 -0.6922 4.32597 0
M  V30 3412 C 323.021 -2.39467 3.73055 0
M  V30 3413 H 320.241 -0.223558 0.632663 0
M  V30 3414 H 322.785 -0.044302 2.04452 0
M  V30 3415 H 320.94 -2.27503 3.13562 0
M  V30 3416 H 321.354 -1.24504 5.09508 0
M  V30 3417 H 322.828 -2.90716 4.69242 0
M  V30 3418 H 323.305 -3.18913 3.01979 0
M  V30 3419 H 323.911 -1.7523 3.87523 0
M  V30 3420 N 322.226 -1.5378 -0.344866 0
M  V30 3421 C 323.174 -1.82373 -1.4437 0
M  V30 3422 C 324.168 -0.694128 -1.54526 0
M  V30 3423 O 325.374 -0.877442 -1.57165 0
M  V30 3424 H 321.749 -0.577765 -0.481344 0
M  V30 3425 H 323.72 -2.74306 -1.17468 0
M  V30 3426 C 322.469 -2.04898 -2.80913 0
M  V30 3427 H 321.792 -2.9127 -2.73865 0
M  V30 3428 H 323.232 -2.28871 -3.56923 0
M  V30 3429 C 321.691 -0.834116 -3.26411 0
M  V30 3430 O 322.221 -0.0328885 -4.01687 0
M  V30 3431 N 320.427 -0.65171 -2.83198 0
M  V30 3432 H 319.974 -1.30489 -2.22104 0
M  V30 3433 H 319.932 0.159686 -3.13994 0
M  V30 3434 N 323.704 0.605807 -1.45491 0
M  V30 3435 C 324.934 1.38934 -1.52908 0
M  V30 3436 C 325.342 1.88513 -0.161086 0
M  V30 3437 O 324.685 1.62962 0.847891 0
M  V30 3438 C 324.747 2.62737 -2.45376 0
M  V30 3439 C 324.411 2.34785 -3.92078 0
M  V30 3440 C 325.408 1.95038 -4.8193 0
M  V30 3441 C 323.093 2.47642 -4.37011 0
M  V30 3442 C 325.087 1.68511 -6.14722 0
M  V30 3443 C 322.774 2.20728 -5.69844 0
M  V30 3444 C 323.772 1.81225 -6.58519 0
M  V30 3445 O 323.46 1.54627 -7.88889 0
M  V30 3446 H 323.192 0.431629 -0.520262 0
M  V30 3447 H 325.746 0.74573 -1.91384 0
M  V30 3448 H 323.976 3.29824 -2.01874 0
M  V30 3449 H 325.665 3.24783 -2.43456 0
M  V30 3450 H 326.431 1.84639 -4.48479 0
M  V30 3451 H 322.31 2.77356 -3.68232 0
M  V30 3452 H 325.854 1.37602 -6.83894 0
M  V30 3453 H 321.751 2.30744 -6.02849 0
M  V30 3454 H 322.519 1.68665 -8.00933 0
M  V30 3455 N 325.182 1.32811 0.848464 0
M  V30 3456 C 326.112 1.24882 1.97299 0
M  V30 3457 C 327.093 0.131357 1.69592 0
M  V30 3458 O 328.278 0.319553 1.91553 0
M  V30 3459 C 325.408 0.97746 3.33261 0
M  V30 3460 C 324.362 2.05682 3.75338 0
M  V30 3461 C 323.688 1.63777 5.09 0
M  V30 3462 C 324.988 3.47254 3.90144 0
M  V30 3463 H 326.682 2.18966 2.04191 0
M  V30 3464 H 324.228 1.05413 0.981029 0
M  V30 3465 H 326.181 0.908513 4.1149 0
M  V30 3466 H 324.905 0.000980011 3.266 0
M  V30 3467 H 323.564 2.11603 2.99366 0
M  V30 3468 H 323.212 0.648569 4.98801 0
M  V30 3469 H 322.912 2.36 5.38124 0
M  V30 3470 H 324.436 1.5833 5.89715 0
M  V30 3471 H 325.85 3.43888 4.58709 0
M  V30 3472 H 324.247 4.1788 4.30693 0
M  V30 3473 H 325.317 3.86462 2.92874 0
M  V30 3474 N 326.66 -1.06551 1.16123 0
M  V30 3475 C 327.888 -1.83005 0.965237 0
M  V30 3476 C 328.303 -1.82423 -0.486542 0
M  V30 3477 O 327.66 -1.24152 -1.33763 0
M  V30 3478 C 327.711 -3.29733 1.48183 0
M  V30 3479 O 327.432 -3.30416 2.87674 0
M  V30 3480 C 328.933 -4.22926 1.32848 0
M  V30 3481 H 326.153 -0.577118 0.342309 0
M  V30 3482 H 328.697 -1.3445 1.54089 0
M  V30 3483 H 326.852 -3.75609 0.948517 0
M  V30 3484 H 327.266 -4.22149 3.11272 0
M  V30 3485 H 328.74 -5.23916 1.73827 0
M  V30 3486 H 329.217 -4.38346 0.273692 0
M  V30 3487 H 329.823 -3.82894 1.85127 0
M  V30 3488 N 328.138 -0.959301 -1.25041 0
M  V30 3489 C 329.088 -0.453888 -2.23436 0
M  V30 3490 C 330.072 0.459461 -1.542 0
M  V30 3491 O 331.264 0.291752 -1.74579 0
M  V30 3492 C 328.393 0.262667 -3.42294 0
M  V30 3493 C 327.479 -0.669022 -4.1879 0
M  V30 3494 N 327.87 -1.80267 -4.72586 0
M  V30 3495 C 326.168 -0.47814 -4.4343 0
M  V30 3496 C 326.869 -2.38475 -5.3057 0
M  V30 3497 N 325.845 -1.67078 -5.17287 0
M  V30 3498 H 329.647 -1.319 -2.6264 0
M  V30 3499 H 327.161 -0.817358 -1.40332 0
M  V30 3500 H 329.158 0.641911 -4.11929 0
M  V30 3501 H 327.818 1.12432 -3.04613 0
M  V30 3502 H 328.829 -2.18442 -4.69578 0
M  V30 3503 H 325.506 0.340249 -4.16111 0
M  V30 3504 H 326.896 -3.34094 -5.8295 0
M  V30 3505 N 329.616 1.39756 -0.72842 0
M  V30 3506 C 331.032 1.5442 -0.403308 0
M  V30 3507 C 331.232 1.69694 1.08656 0
M  V30 3508 O 330.288 1.69373 1.87267 0
M  V30 3509 C 331.601 2.76555 -1.18058 0
M  V30 3510 C 333.149 2.90384 -1.16815 0
M  V30 3511 C 333.624 4.15449 -1.92785 0
M  V30 3512 N 335.115 4.22475 -1.89918 0
M  V30 3513 C 335.85 5.1818 -2.45514 0
M  V30 3514 N 335.346 6.19714 -3.09719 0
M  V30 3515 N 337.139 5.1035 -2.35584 0
M  V30 3516 H 329.29 1.28089 -1.69431 0
M  V30 3517 H 331.553 0.620327 -0.716867 0
M  V30 3518 H 331.259 2.7159 -2.23455 0
M  V30 3519 H 331.133 3.69033 -0.780662 0
M  V30 3520 H 333.52 2.94846 -0.12234 0
M  V30 3521 H 333.601 1.98988 -1.6074 0
M  V30 3522 H 333.245 4.11749 -2.97364 0
M  V30 3523 H 333.175 5.05877 -1.46272 0
M  V30 3524 H 335.666 3.49743 -1.43138 0
M  V30 3525 H 335.979 6.8919 -3.49625 0
M  V30 3526 H 334.324 6.20121 -3.13807 0
M  V30 3527 H 337.515 4.2996 -1.85072 0
M  V30 3528 H 337.688 5.84761 -2.79211 0
M  V30 3529 N 331.094 0.475555 1.50254 0
M  V30 3530 C 332.026 -0.352649 2.26471 0
M  V30 3531 C 333.039 -0.953165 1.3198 0
M  V30 3532 O 334.228 -0.840815 1.57457 0
M  V30 3533 C 331.328 -1.50902 3.0345 0
M  V30 3534 C 330.501 -1.02047 4.25329 0
M  V30 3535 C 329.56 -2.05142 4.84565 0
M  V30 3536 O 328.586 -1.63023 5.45355 0
M  V30 3537 N 329.788 -3.37987 4.71959 0
M  V30 3538 H 332.553 0.300767 2.98187 0
M  V30 3539 H 330.114 0.306598 1.5897 0
M  V30 3540 H 332.106 -2.19572 3.39956 0
M  V30 3541 H 330.676 -2.06705 2.34504 0
M  V30 3542 H 329.896 -0.159507 3.93877 0
M  V30 3543 H 331.184 -0.672061 5.04342 0
M  V30 3544 H 330.582 -3.74913 4.23623 0
M  V30 3545 H 329.139 -4.02443 5.12721 0
M  V30 3546 N 332.573 -1.56217 0.208337 0
M  V30 3547 C 333.801 -2.02337 -0.43215 0
M  V30 3548 C 334.216 -1.08834 -1.54275 0
M  V30 3549 O 333.573 -0.0955462 -1.8225 0
M  V30 3550 C 333.624 -3.48072 -0.976138 0
M  V30 3551 O 333.345 -4.38007 0.0901621 0
M  V30 3552 C 334.846 -4.09773 -1.69119 0
M  V30 3553 H 332.066 -0.662385 -0.10718 0
M  V30 3554 H 334.61 -2.01966 0.320923 0
M  V30 3555 H 332.765 -3.49099 -1.67954 0
M  V30 3556 H 333.179 -5.23543 -0.316701 0
M  V30 3557 H 334.653 -5.13556 -2.02397 0
M  V30 3558 H 335.13 -3.53999 -2.59964 0
M  V30 3559 H 335.736 -4.12556 -1.03332 0
M  V30 3560 N 334.051 0.0651679 -1.57465 0
M  V30 3561 C 334.999 1.09542 -2.05191 0
M  V30 3562 C 335.993 1.39675 -0.958509 0
M  V30 3563 O 337.199 1.39003 -1.14359 0
M  V30 3564 H 333.574 0.370623 -0.654326 0
M  V30 3565 H 335.545 0.666802 -2.90854 0
M  V30 3566 C 334.294 2.39881 -2.51699 0
M  V30 3567 H 333.617 2.17547 -3.3543 0
M  V30 3568 H 335.057 3.104 -2.88839 0
M  V30 3569 C 333.516 3.0631 -1.40271 0
M  V30 3570 O 334.046 3.94664 -0.748523 0
M  V30 3571 N 332.252 2.67041 -1.14618 0
M  V30 3572 H 331.799 1.95281 -1.67997 0
M  V30 3573 H 331.757 3.1181 -0.402688 0
M  V30 3574 N 335.529 1.53961 0.336706 0
M  V30 3575 C 336.757 1.75483 1.09605 0
M  V30 3576 C 337.172 0.4972 1.82136 0
M  V30 3577 O 336.529 -0.53149 1.74589 0
M  V30 3578 C 336.58 2.93943 2.10428 0
M  V30 3579 O 336.301 4.14842 1.40846 0
M  V30 3580 C 337.802 3.27571 2.98684 0
M  V30 3581 H 335.022 0.586166 0.326574 0
M  V30 3582 H 337.566 2.00808 0.38683 0
M  V30 3583 H 335.721 2.70929 2.76905 0
M  V30 3584 H 336.135 4.81383 2.08255 0
M  V30 3585 H 337.609 4.13791 3.6535 0
M  V30 3586 H 338.086 2.44168 3.65074 0
M  V30 3587 H 338.692 3.52615 2.37787 0
M  V30 3588 N 337.007 -0.598083 1.45811 0
M  V30 3589 C 338.256 -1.35295 1.49594 0
M  V30 3590 C 338.569 -1.95057 0.145679 0
M  V30 3591 O 339.775 -2.71431 0.0612099 0
M  V30 3592 C 338.231 -2.45124 2.63519 0
M  V30 3593 C 337.839 -1.91732 4.04899 0
M  V30 3594 C 339.583 -3.2205 2.76558 0
M  V30 3595 C 337.49 -2.991 5.1019 0
M  V30 3596 H 336.42 -0.508552 0.556679 0
M  V30 3597 H 339.071 -0.639977 1.71978 0
M  V30 3598 H 337.453 -3.19149 2.34435 0
M  V30 3599 H 338.627 -1.24352 4.43704 0
M  V30 3600 H 336.942 -1.27522 3.96393 0
M  V30 3601 H 339.539 -4.0215 3.52391 0
M  V30 3602 H 339.882 -3.73663 1.83526 0
M  V30 3603 H 340.415 -2.55127 3.05213 0
M  V30 3604 H 337.154 -2.52393 6.04961 0
M  V30 3605 H 336.674 -3.65017 4.75944 0
M  V30 3606 H 338.353 -3.63318 5.35359 0
M  V30 3607 N 338.485 -1.33259 -0.841409 0
M  V30 3608 C 339.734 -1.23921 -1.59143 0
M  V30 3609 C 340.047 0.1941 -1.94635 0
M  V30 3610 O 341.253 0.409474 -2.68394 0
M  V30 3611 C 339.709 -2.17119 -2.87032 0
M  V30 3612 C 339.317 -3.65606 -2.58914 0
M  V30 3613 C 341.061 -2.16648 -3.65053 0
M  V30 3614 C 338.968 -4.50726 -3.82884 0
M  V30 3615 H 337.898 -0.460264 -0.597221 0
M  V30 3616 H 340.549 -1.58307 -0.927959 0
M  V30 3617 H 338.931 -1.75663 -3.54906 0
M  V30 3618 H 340.105 -4.15487 -1.99267 0
M  V30 3619 H 338.42 -3.68341 -1.942 0
M  V30 3620 H 341.017 -2.77474 -4.57069 0
M  V30 3621 H 341.36 -1.16088 -3.99787 0
M  V30 3622 H 341.893 -2.56453 -3.041 0
M  V30 3623 H 338.632 -5.52151 -3.53283 0
M  V30 3624 H 338.152 -4.0559 -4.41879 0
M  V30 3625 H 339.831 -4.64401 -4.50489 0
M  V30 3626 N 339.963 1.05934 -1.16686 0
M  V30 3627 C 341.24 1.75643 -0.860747 0
M  V30 3628 C 341.62 2.01144 0.640641 0
M  V30 3629 O 340.968 1.64147 1.58959 0
M  V30 3630 C 341.178 3.05493 -1.68745 0
M  V30 3631 C 342.526 3.79581 -1.90271 0
M  V30 3632 O 343.55 3.15344 -1.65641 0
M  V30 3633 O 342.409 4.9499 -2.31618 0
M  V30 3634 H 339.503 0.763426 -0.317977 0
M  V30 3635 H 342.049 1.1217 -1.27342 0
M  V30 3636 H 340.821 2.8264 -2.70611 0
M  V30 3637 H 340.444 3.76702 -1.27206 0
M  V30 3638 N 341.441 0.965919 1.2453 0
M  V30 3639 C 342.687 0.62776 1.92839 0
M  V30 3640 C 343.02 -0.834694 1.75347 0
M  V30 3641 O 342.295 -1.60031 1.10546 0
M  V30 3642 C 342.578 1.00109 3.45905 0
M  V30 3643 C 342.431 2.52011 3.72573 0
M  V30 3644 C 343.75 0.53435 4.36844 0
M  V30 3645 H 340.869 0.229537 0.700344 0
M  V30 3646 H 343.511 1.2046 1.46933 0
M  V30 3647 H 341.661 0.510238 3.85135 0
M  V30 3648 H 343.333 3.08559 3.42912 0
M  V30 3649 H 341.576 2.95287 3.17786 0
M  V30 3650 H 342.247 2.73183 4.79661 0
M  V30 3651 H 344.723 0.955565 4.04979 0
M  V30 3652 H 343.599 0.824152 5.42678 0
M  V30 3653 H 343.86 -0.565589 4.38467 0
M  V30 3654 N 342.919 -1.39368 0.735821 0
M  V30 3655 C 343.851 -2.2913 0.0567723 0
M  V30 3656 C 344.864 -1.46859 -0.702589 0
M  V30 3657 O 346.053 -1.69925 -0.546616 0
M  V30 3658 C 343.153 -3.25492 -0.943823 0
M  V30 3659 C 342.326 -4.36709 -0.24581 0
M  V30 3660 C 341.385 -5.13376 -1.15463 0
M  V30 3661 O 340.411 -5.65683 -0.631803 0
M  V30 3662 N 341.613 -5.24656 -2.48427 0
M  V30 3663 H 344.378 -2.88047 0.827582 0
M  V30 3664 H 341.939 -1.50957 0.585112 0
M  V30 3665 H 343.931 -3.73657 -1.55443 0
M  V30 3666 H 342.501 -2.676 -1.61583 0
M  V30 3667 H 341.721 -3.9041 0.545286 0
M  V30 3668 H 343.009 -5.08244 0.237891 0
M  V30 3669 H 342.407 -4.83679 -2.93379 0
M  V30 3670 H 340.964 -5.76258 -3.04582 0
M  V30 3671 N 344.397 -0.483516 -1.5 0
M  V30 3672 C 345.646 0.0689102 -2.01582 0
M  V30 3673 C 345.959 1.39655 -1.36952 0
M  V30 3674 O 347.165 2.03465 -1.79762 0
M  V30 3675 C 345.621 0.173302 -3.59483 0
M  V30 3676 C 345.229 -1.14665 -4.33077 0
M  V30 3677 C 346.973 0.677024 -4.19066 0
M  V30 3678 C 344.88 -1.00537 -5.82792 0
M  V30 3679 H 343.81 0.0295277 -0.753422 0
M  V30 3680 H 346.461 -0.620295 -1.72698 0
M  V30 3681 H 344.843 0.926569 -3.85007 0
M  V30 3682 H 346.017 -1.91184 -4.19268 0
M  V30 3683 H 344.332 -1.58244 -3.85159 0
M  V30 3684 H 346.929 0.799952 -5.28682 0
M  V30 3685 H 347.272 1.67151 -3.81269 0
M  V30 3686 H 347.805 -0.0192083 -3.97795 0
M  V30 3687 H 344.544 -1.9736 -6.25083 0
M  V30 3688 H 344.064 -0.280776 -5.99142 0
M  V30 3689 H 345.743 -0.677 -6.43448 0
M  V30 3690 N 345.875 1.56104 -0.216619 0
M  V30 3691 C 347.1 2.0301 0.424462 0
M  V30 3692 C 347.525 1.0955 1.52907 0
M  V30 3693 O 346.883 0.0827914 1.81111 0
M  V30 3694 C 346.931 3.4819 0.937883 0
M  V30 3695 O 346.035 3.57865 2.04955 0
M  V30 3696 H 345.376 0.656925 0.0966755 0
M  V30 3697 H 347.906 2.01859 -0.33381 0
M  V30 3698 H 347.916 3.88413 1.24897 0
M  V30 3699 H 346.591 4.15699 0.129387 0
M  V30 3700 H 345.168 3.29527 1.74546 0
M  V30 3701 N 347.353 -0.0568162 1.57498 0
M  V30 3702 C 348.581 -0.765626 1.92213 0
M  V30 3703 C 348.996 -1.70353 0.813961 0
M  V30 3704 O 348.353 -1.81268 -0.211701 0
M  V30 3705 C 348.404 -1.5465 3.2675 0
M  V30 3706 O 348.125 -0.646278 4.33307 0
M  V30 3707 C 349.626 -2.35497 3.75574 0
M  V30 3708 H 346.846 -0.216835 0.634999 0
M  V30 3709 H 349.39 -0.0226146 2.04487 0
M  V30 3710 H 347.545 -2.24165 3.15957 0
M  V30 3711 H 347.959 -1.19093 5.108 0
M  V30 3712 H 349.433 -2.85722 4.72299 0
M  V30 3713 H 349.91 -3.15692 3.05344 0
M  V30 3714 H 350.516 -1.7111 3.8936 0
M  V30 3715 N 348.832 -1.54138 -0.328536 0
M  V30 3716 C 350.243 -1.63395 -0.903272 0
M  V30 3717 C 350.594 -0.524828 -1.8905 0
M  V30 3718 O 349.719 0.343068 -2.13663 0
M  V30 3719 C 350.314 -2.9618 -1.64507 0
M  V30 3720 C 348.873 -3.0765 -2.1686 0
M  V30 3721 C 348.02 -2.58933 -0.992416 0
M  V30 3722 H 350.971 -1.58344 -0.106253 0
M  V30 3723 H 350.992 -2.86061 -2.50897 0
M  V30 3724 H 350.504 -3.76884 -0.926302 0
M  V30 3725 H 348.605 -2.31611 -2.91868 0
M  V30 3726 H 348.718 -4.1337 -2.42202 0
M  V30 3727 H 347.082 -2.14706 -1.37016 0
M  V30 3728 H 347.865 -3.42089 -0.288041 0
M  V30 3729 N 350.31 0.590341 -1.46126 0
M  V30 3730 C 351.726 0.912917 -1.30912 0
M  V30 3731 C 351.926 1.99616 -0.274893 0
M  V30 3732 O 350.982 2.50397 0.325197 0
M  V30 3733 C 352.295 1.3375 -2.69317 0
M  V30 3734 C 353.843 1.45077 -2.77348 0
M  V30 3735 C 354.318 1.90904 -4.16317 0
M  V30 3736 N 355.809 1.9811 -4.18696 0
M  V30 3737 C 356.544 2.34828 -5.23109 0
M  V30 3738 N 356.04 2.70393 -6.37856 0
M  V30 3739 N 357.833 2.35317 -5.10473 0
M  V30 3740 H 349.984 -0.125358 -2.1203 0
M  V30 3741 H 352.247 0.00658481 -0.947977 0
M  V30 3742 H 351.953 0.615614 -3.4627 0
M  V30 3743 H 351.827 2.30058 -2.9892 0
M  V30 3744 H 354.214 2.16353 -2.00687 0
M  V30 3745 H 354.295 0.4704 -2.51438 0
M  V30 3746 H 353.939 1.20209 -4.9347 0
M  V30 3747 H 353.869 2.89886 -4.39629 0
M  V30 3748 H 356.36 1.73146 -3.359 0
M  V30 3749 H 356.673 2.97341 -7.13308 0
M  V30 3750 H 355.018 2.68048 -6.41229 0
M  V30 3751 H 358.209 2.0695 -4.19868 0
M  V30 3752 H 358.382 2.63605 -5.9196 0
M  V30 3753 N 351.788 1.33704 0.83433 0
M  V30 3754 C 353.199 1.22813 1.4062 0
M  V30 3755 C 353.55 -0.151107 1.95617 0
M  V30 3756 O 352.675 -1.05092 1.89168 0
M  V30 3757 C 353.27 2.22355 2.55624 0
M  V30 3758 C 351.829 2.1529 3.08751 0
M  V30 3759 C 350.976 2.09589 1.8157 0
M  V30 3760 H 353.927 1.45236 0.639702 0
M  V30 3761 H 353.948 1.83391 3.33389 0
M  V30 3762 H 353.46 3.22728 2.15566 0
M  V30 3763 H 351.561 1.18235 3.53343 0
M  V30 3764 H 351.674 3.06038 3.68616 0
M  V30 3765 H 350.038 1.55134 2.02004 0
M  V30 3766 H 350.821 3.11777 1.43701 0
M  V30 3767 N 353.266 -1.05314 1.17247 0
M  V30 3768 C 354.512 -1.78557 0.961513 0
M  V30 3769 C 354.845 -1.87419 -0.508697 0
M  V30 3770 O 354.12 -1.37307 -1.37757 0
M  V30 3771 C 354.403 -3.22514 1.60176 0
M  V30 3772 C 354.256 -3.21673 3.14399 0
M  V30 3773 C 355.575 -4.20318 1.30463 0
M  V30 3774 H 352.694 -0.6482 0.350723 0
M  V30 3775 H 355.336 -1.23102 1.44727 0
M  V30 3776 H 353.486 -3.69867 1.18871 0
M  V30 3777 H 355.158 -2.82405 3.64753 0
M  V30 3778 H 353.401 -2.60048 3.47214 0
M  V30 3779 H 354.072 -4.23271 3.54324 0
M  V30 3780 H 356.548 -3.81454 1.66229 0
M  V30 3781 H 355.424 -5.19289 1.77848 0
M  V30 3782 H 355.685 -4.41526 0.22521 0
M  V30 3783 N 354.744 -0.972509 -1.24016 0
M  V30 3784 C 355.691 -0.505969 -2.25186 0
M  V30 3785 C 356.661 0.451009 -1.5986 0
M  V30 3786 O 357.846 0.360307 -1.87367 0
M  V30 3787 C 354.986 0.193089 -3.44559 0
M  V30 3788 C 354.099 -0.803222 -4.24467 0
M  V30 3789 C 353.234 -0.0797793 -5.3114 0
M  V30 3790 C 352.273 -1.06583 -6.02749 0
M  V30 3791 N 351.41 -0.372074 -7.01113 0
M  V30 3792 H 356.25 -1.37351 -2.64459 0
M  V30 3793 H 353.787 -0.688419 -1.29997 0
M  V30 3794 H 355.745 0.615125 -4.1264 0
M  V30 3795 H 354.375 1.02455 -3.06109 0
M  V30 3796 H 353.427 -1.34368 -3.55878 0
M  V30 3797 H 354.739 -1.55494 -4.73944 0
M  V30 3798 H 353.893 0.400015 -6.0538 0
M  V30 3799 H 352.632 0.704597 -4.82583 0
M  V30 3800 H 351.637 -1.55645 -5.27309 0
M  V30 3801 H 352.862 -1.85074 -6.53395 0
M  V30 3802 H 350.808 0.393238 -6.5482 0
M  V30 3803 H 350.725 -1.06258 -7.48495 0
M  V30 3804 H 351.993 0.0855932 -7.79453 0
M  V30 3805 N 356.222 1.38976 -0.743202 0
M  V30 3806 C 357.152 2.33171 -0.123873 0
M  V30 3807 C 358.133 1.54336 0.71516 0
M  V30 3808 O 359.318 1.82696 0.658467 0
M  V30 3809 C 356.448 3.38474 0.777978 0
M  V30 3810 C 355.402 4.27979 0.0424758 0
M  V30 3811 C 354.728 5.2405 1.06189 0
M  V30 3812 C 356.028 5.10155 -1.1198 0
M  V30 3813 H 357.722 2.85213 -0.910709 0
M  V30 3814 H 355.268 1.37133 -0.439388 0
M  V30 3815 H 357.221 4.03328 1.22084 0
M  V30 3816 H 355.945 2.84891 1.59702 0
M  V30 3817 H 354.604 3.64616 -0.380853 0
M  V30 3818 H 354.252 4.66758 1.87472 0
M  V30 3819 H 353.952 5.84785 0.574485 0
M  V30 3820 H 355.476 5.9178 1.50428 0
M  V30 3821 H 356.89 5.68307 -0.75499 0
M  V30 3822 H 355.287 5.80073 -1.53738 0
M  V30 3823 H 356.357 4.44504 -1.93764 0
M  V30 3824 N 357.7 0.491464 1.49741 0
M  V30 3825 C 358.63 -0.28154 2.31796 0
M  V30 3826 C 359.611 -0.971473 1.3963 0
M  V30 3827 O 360.796 -0.964719 1.68543 0
M  V30 3828 C 357.926 -1.35203 3.19902 0
M  V30 3829 C 356.88 -0.782529 4.20786 0
M  V30 3830 C 356.206 -1.95283 4.97764 0
M  V30 3831 C 357.506 0.21999 5.21837 0
M  V30 3832 H 359.2 0.403355 2.96671 0
M  V30 3833 H 356.746 0.195425 1.42668 0
M  V30 3834 H 358.699 -1.90045 3.76113 0
M  V30 3835 H 357.423 -2.06598 2.52953 0
M  V30 3836 H 356.082 -0.255928 3.65706 0
M  V30 3837 H 355.73 -2.65423 4.2727 0
M  V30 3838 H 355.43 -1.57789 5.66018 0
M  V30 3839 H 356.954 -2.50577 5.56816 0
M  V30 3840 H 358.368 -0.23996 5.72798 0
M  V30 3841 H 356.765 0.51026 5.97927 0
M  V30 3842 H 357.835 1.13911 4.7133 0
M  V30 3843 N 359.178 -1.55987 0.224894 0
M  V30 3844 C 360.594 -1.59066 -0.130426 0
M  V30 3845 C 360.794 -1.24176 -1.5869 0
M  V30 3846 O 359.85 -0.978592 -2.32766 0
M  V30 3847 C 361.163 -3.00042 0.198883 0
M  V30 3848 C 362.711 -3.1268 0.141391 0
M  V30 3849 C 363.186 -4.55839 0.444422 0
M  V30 3850 N 364.677 -4.6152 0.394115 0
M  V30 3851 C 365.412 -5.70231 0.602038 0
M  V30 3852 N 364.908 -6.87291 0.871914 0
M  V30 3853 N 366.701 -5.59555 0.534245 0
M  V30 3854 H 358.852 -1.76941 1.17497 0
M  V30 3855 H 361.115 -0.822604 0.471197 0
M  V30 3856 H 360.821 -3.30234 1.2099 0
M  V30 3857 H 360.695 -3.74075 -0.484535 0
M  V30 3858 H 363.082 -2.82283 -0.860265 0
M  V30 3859 H 363.163 -2.40969 0.858335 0
M  V30 3860 H 362.807 -4.86954 1.44353 0
M  V30 3861 H 362.737 -5.2578 -0.293752 0
M  V30 3862 H 365.228 -3.77405 0.193356 0
M  V30 3863 H 365.541 -7.66058 1.01858 0
M  V30 3864 H 363.886 -6.89028 0.909145 0
M  V30 3865 H 367.077 -4.6698 0.323612 0
M  V30 3866 H 367.25 -6.44211 0.699693 0
M  V30 3867 N 360.656 0.0484629 -1.57525 0
M  V30 3868 C 361.904 0.741657 -1.88 0
M  V30 3869 C 362.225 1.76918 -0.820054 0
M  V30 3870 O 361.495 1.95335 0.148661 0
M  V30 3871 H 360.075 0.276908 -0.69378 0
M  V30 3872 H 362.737 0.019013 -1.94891 0
M  V30 3873 H 361.833 1.24336 -2.86264 0
M  V30 3874 N 362.134 1.5431 0.320358 0
M  V30 3875 C 363.084 1.803 1.39556 0
M  V30 3876 C 364.068 0.659166 1.46778 0
M  V30 3877 O 365.26 0.91926 1.51257 0
M  V30 3878 C 362.389 2.03665 2.76361 0
M  V30 3879 C 361.475 3.24178 2.73439 0
M  V30 3880 N 361.866 4.4516 2.40137 0
M  V30 3881 C 360.164 3.25816 3.04565 0
M  V30 3882 C 360.865 5.27109 2.4603 0
M  V30 3883 N 359.841 4.64368 2.82601 0
M  V30 3884 H 363.643 2.71416 1.12742 0
M  V30 3885 H 361.157 1.53548 0.528856 0
M  V30 3886 H 363.154 2.20425 3.53862 0
M  V30 3887 H 361.814 1.13805 3.04103 0
M  V30 3888 H 362.825 4.72104 2.12927 0
M  V30 3889 H 359.502 2.46001 3.37328 0
M  V30 3890 H 360.892 6.33728 2.23246 0
M  V30 3891 N 363.613 -0.582584 1.46437 0
M  V30 3892 C 364.841 -1.36682 1.55324 0
M  V30 3893 C 365.256 -1.87796 0.194409 0
M  V30 3894 O 364.613 -1.63623 -0.808318 0
M  V30 3895 C 364.664 -2.55426 2.55812 0
M  V30 3896 O 364.385 -2.0643 3.86417 0
M  V30 3897 C 365.886 -3.47976 2.74641 0
M  V30 3898 H 363.106 -0.417545 0.525259 0
M  V30 3899 H 365.65 -0.708219 1.91845 0
M  V30 3900 H 363.805 -3.17275 2.22295 0
M  V30 3901 H 364.219 -2.83762 4.41111 0
M  V30 3902 H 365.693 -4.27775 3.48874 0
M  V30 3903 H 366.17 -3.99919 1.81553 0
M  V30 3904 H 366.776 -2.91962 3.09255 0
M  V30 3905 N 365.091 -1.34144 -0.827227 0
M  V30 3906 C 366.021 -1.28005 -1.95287 0
M  V30 3907 C 367.002 -0.158321 -1.69362 0
M  V30 3908 O 368.187 -0.349987 -1.9102 0
M  V30 3909 C 365.317 -1.03036 -3.31664 0
M  V30 3910 C 364.271 -2.11628 -3.72019 0
M  V30 3911 C 363.597 -1.71854 -5.0633 0
M  V30 3912 C 364.897 -3.53417 -3.8457 0
M  V30 3913 H 366.591 -2.22187 -2.00682 0
M  V30 3914 H 364.137 -1.0696 -0.964135 0
M  V30 3915 H 366.09 -0.973863 -4.09993 0
M  V30 3916 H 364.814 -0.0529391 -3.26557 0
M  V30 3917 H 363.473 -2.16339 -2.95961 0
M  V30 3918 H 363.121 -0.727841 -4.97706 0
M  V30 3919 H 362.821 -2.44531 -5.34302 0
M  V30 3920 H 364.345 -1.67692 -5.87122 0
M  V30 3921 H 365.759 -3.51142 -4.5318 0
M  V30 3922 H 364.156 -4.24679 -4.2399 0
M  V30 3923 H 365.226 -3.91072 -2.86689 0
M  V30 3924 N 366.569 1.04691 -1.17803 0
M  V30 3925 C 367.815 1.78045 -0.970969 0
M  V30 3926 C 368.148 1.87686 0.498751 0
M  V30 3927 O 367.423 1.38035 1.37027 0
M  V30 3928 C 367.706 3.2166 -1.61884 0
M  V30 3929 C 367.559 3.20001 -3.161 0
M  V30 3930 C 368.878 4.1962 -1.3269 0
M  V30 3931 H 365.997 0.64633 -0.354155 0
M  V30 3932 H 368.639 1.22333 -1.45378 0
M  V30 3933 H 366.789 3.69232 -1.20831 0
M  V30 3934 H 368.461 2.80467 -3.66246 0
M  V30 3935 H 366.704 2.58203 -3.48588 0
M  V30 3936 H 367.375 4.21386 -3.56564 0
M  V30 3937 H 369.851 3.80567 -1.68249 0
M  V30 3938 H 368.727 5.18339 -1.80599 0
M  V30 3939 H 368.988 4.414 -0.248622 0
M  V30 3940 N 368.047 0.979072 1.23499 0
M  V30 3941 C 368.977 0.537606 2.27227 0
M  V30 3942 C 369.958 -0.428539 1.64613 0
M  V30 3943 O 371.143 -0.322191 1.91509 0
M  V30 3944 C 368.273 -0.162052 3.46922 0
M  V30 3945 C 367.227 0.721242 4.21879 0
M  V30 3946 C 366.553 -0.110555 5.34586 0
M  V30 3947 C 367.853 2.01141 4.82016 0
M  V30 3948 H 369.547 1.40462 2.64406 0
M  V30 3949 H 367.093 0.67684 1.27102 0
M  V30 3950 H 369.046 -0.482192 4.18632 0
M  V30 3951 H 367.77 -1.06351 3.08799 0
M  V30 3952 H 366.429 1.02482 3.51984 0
M  V30 3953 H 366.077 -1.0125 4.92704 0
M  V30 3954 H 365.777 0.477325 5.85658 0
M  V30 3955 H 367.301 -0.425107 6.09118 0
M  V30 3956 H 368.715 1.75612 5.45741 0
M  V30 3957 H 367.112 2.54695 5.43369 0
M  V30 3958 H 368.182 2.69909 4.02836 0
M  V30 3959 N 369.525 -1.3858 0.750561 0
M  V30 3960 C 370.473 -2.32339 0.110162 0
M  V30 3961 C 371.467 -1.53864 -0.708674 0
M  V30 3962 O 372.673 -1.69417 -0.608112 0
M  V30 3963 H 369.048 -0.751812 0.0168275 0
M  V30 3964 H 371.019 -2.83959 0.917053 0
M  V30 3965 C 369.768 -3.39043 -0.771067 0
M  V30 3966 H 369.091 -3.99517 -0.150374 0
M  V30 3967 H 370.531 -4.07061 -1.1865 0
M  V30 3968 C 368.99 -2.77365 -1.91234 0
M  V30 3969 O 369.52 -2.66434 -3.00626 0
M  V30 3970 N 367.726 -2.35219 -1.70646 0
M  V30 3971 H 367.273 -2.4431 -0.81673 0
M  V30 3972 H 367.231 -1.94294 -2.47178 0
M  V30 3973 N 371.003 -0.499398 -1.49478 0
M  V30 3974 C 372.243 0.0440751 -2.04352 0
M  V30 3975 C 372.607 1.34423 -1.37093 0
M  V30 3976 O 373.808 1.97184 -1.82679 0
M  V30 3977 C 372.079 0.194918 -3.56868 0
M  V30 3978 S 373.638 0.69287 -4.33295 0
M  V30 3979 H 370.456 0.00253458 -0.710995 0
M  V30 3980 H 373.058 -0.673 -1.83551 0
M  V30 3981 H 371.762 -0.756672 -4.03364 0
M  V30 3982 H 371.293 0.93728 -3.82071 0
M  V30 3983 H 373.308 1.96226 -4.55752 0
M  V30 3984 N 372.481 1.55866 -0.233164 0
M  V30 3985 C 373.709 2.02998 0.399905 0
M  V30 3986 C 374.124 1.11274 1.52524 0
M  V30 3987 O 373.481 0.124528 1.82075 0
M  V30 3988 C 373.532 3.4958 0.920639 0
M  V30 3989 O 373.253 4.37808 -0.159834 0
M  V30 3990 C 374.754 4.12411 1.62578 0
M  V30 3991 H 371.974 0.664006 0.0966281 0
M  V30 3992 H 374.518 2.0143 -0.353013 0
M  V30 3993 H 372.673 3.51727 1.62379 0
M  V30 3994 H 373.087 5.23981 0.23337 0
M  V30 3995 H 374.561 5.16711 1.94201 0
M  V30 3996 H 375.038 3.5809 2.54299 0
M  V30 3997 H 375.644 4.14148 0.967553 0
M  V30 3998 N 373.959 -0.0401083 1.57549 0
M  V30 3999 C 374.922 -1.02871 2.04817 0
M  V30 4000 C 375.922 -1.29708 0.950388 0
M  V30 4001 O 377.112 -1.24897 1.21435 0
M  V30 4002 C 374.244 -2.36443 2.45576 0
M  V30 4003 H 375.437 -0.620631 2.93408 0
M  V30 4004 H 372.99 -0.286667 1.53649 0
M  V30 4005 H 373.725 -2.82021 1.60108 0
M  V30 4006 H 373.51 -2.18296 3.25713 0
M  V30 4007 H 375 -3.07441 2.82612 0
M  V30 4008 N 375.437 -1.54477 -0.31217 0
M  V30 4009 C 376.665 -1.77205 -1.068 0
M  V30 4010 C 377.08 -0.526114 -1.81321 0
M  V30 4011 O 376.437 0.503647 -1.75413 0
M  V30 4012 C 376.488 -2.97253 -2.05725 0
M  V30 4013 O 376.209 -4.1703 -1.34228 0
M  V30 4014 C 377.71 -3.32281 -2.93435 0
M  V30 4015 H 374.93 -0.591287 -0.317208 0
M  V30 4016 H 377.474 -2.01398 -0.354834 0
M  V30 4017 H 375.629 -2.753 -2.72559 0
M  V30 4018 H 376.043 -4.84636 -2.00571 0
M  V30 4019 H 377.517 -4.19551 -3.58721 0
M  V30 4020 H 377.994 -2.49945 -3.61143 0
M  V30 4021 H 378.6 -3.56353 -2.32147 0
M  V30 4022 N 376.915 0.57481 -1.46744 0
M  V30 4023 C 378.143 1.35856 -1.56047 0
M  V30 4024 C 378.558 1.87691 -0.204365 0
M  V30 4025 O 377.915 1.64049 0.79963 0
M  V30 4026 C 377.966 2.54066 -2.57163 0
M  V30 4027 O 377.687 2.04377 -3.87507 0
M  V30 4028 C 379.188 3.46514 -2.76483 0
M  V30 4029 H 376.408 0.414754 -0.527466 0
M  V30 4030 H 378.952 0.698035 -1.92218 0
M  V30 4031 H 377.107 3.16092 -2.23974 0
M  V30 4032 H 377.521 2.81419 -4.4261 0
M  V30 4033 H 378.995 4.25919 -3.51137 0
M  V30 4034 H 379.472 3.98951 -1.83671 0
M  V30 4035 H 380.078 2.90318 -3.10799 0
M  V30 4036 N 378.394 1.34581 0.820102 0
M  V30 4037 C 379.805 1.24298 1.39309 0
M  V30 4038 C 380.156 -0.130351 1.95767 0
M  V30 4039 O 379.281 -1.0308 1.90272 0
M  V30 4040 C 379.876 2.25054 2.53251 0
M  V30 4041 C 378.435 2.18552 3.0645 0
M  V30 4042 C 377.582 2.11503 1.79337 0
M  V30 4043 H 380.533 1.45906 0.624262 0
M  V30 4044 H 380.554 1.86917 3.31425 0
M  V30 4045 H 380.066 3.24996 2.1213 0
M  V30 4046 H 378.167 1.21976 3.52069 0
M  V30 4047 H 378.28 3.0993 3.65349 0
M  V30 4048 H 376.644 1.57268 2.00347 0
M  V30 4049 H 377.427 3.13284 1.40386 0
M  V30 4050 N 379.872 -1.04064 1.18357 0
M  V30 4051 C 380.802 -2.14001 0.934113 0
M  V30 4052 C 381.783 -1.69616 -0.128186 0
M  V30 4053 O 382.968 -1.94185 0.0244093 0
M  V30 4054 C 380.098 -3.44253 0.459066 0
M  V30 4055 C 379.052 -4.02261 1.46185 0
M  V30 4056 C 378.378 -5.27992 0.844322 0
M  V30 4057 C 379.678 -4.38432 2.83856 0
M  V30 4058 H 381.372 -2.35127 1.85352 0
M  V30 4059 H 378.918 -1.12998 0.892604 0
M  V30 4060 H 380.871 -4.20522 0.271907 0
M  V30 4061 H 379.595 -3.22813 -0.495912 0
M  V30 4062 H 378.254 -3.28074 1.63595 0
M  V30 4063 H 377.902 -5.02862 -0.117845 0
M  V30 4064 H 377.602 -5.67765 1.51384 0
M  V30 4065 H 379.126 -6.06938 0.667693 0
M  V30 4066 H 380.54 -5.05688 2.70098 0
M  V30 4067 H 378.937 -4.89254 3.47491 0
M  V30 4068 H 380.007 -3.4826 3.37406 0
M  V30 4069 N 381.35 -0.985608 -1.22978 0
M  V30 4070 C 382.298 -0.522631 -2.26652 0
M  V30 4071 C 383.292 0.422998 -1.64034 0
M  V30 4072 O 384.498 0.296319 -1.77544 0
M  V30 4073 H 380.873 -0.150597 -0.736766 0
M  V30 4074 H 382.844 -1.40863 -2.63059 0
M  V30 4075 C 381.593 0.154238 -3.47358 0
M  V30 4076 H 380.916 -0.564329 -3.95797 0
M  V30 4077 H 382.356 0.441744 -4.21693 0
M  V30 4078 C 380.815 1.38719 -3.07016 0
M  V30 4079 O 381.345 2.48307 -3.15764 0
M  V30 4080 N 379.551 1.25975 -2.61875 0
M  V30 4081 H 379.098 0.368068 -2.54957 0
M  V30 4082 H 379.056 2.08578 -2.3525 0
M  V30 4083 N 382.828 1.3818 -0.7579 0
M  V30 4084 C 384.056 2.04301 -0.326937 0
M  V30 4085 C 384.471 1.57163 1.0462 0
M  V30 4086 O 383.828 0.746626 1.66529 0
M  V30 4087 C 383.879 3.59846 -0.345363 0
M  V30 4088 O 383.6 4.05256 -1.66432 0
M  V30 4089 C 385.101 4.4319 0.098927 0
M  V30 4090 H 382.321 0.656443 -0.139012 0
M  V30 4091 H 384.865 1.76786 -1.02796 0
M  V30 4092 H 383.02 3.86182 0.306955 0
M  V30 4093 H 383.434 4.99709 -1.59345 0
M  V30 4094 H 384.908 5.51989 0.0348745 0
M  V30 4095 H 385.385 4.23947 1.14741 0
M  V30 4096 H 385.991 4.22051 -0.52468 0
M  V30 4097 N 384.306 0.507319 1.49211 0
M  V30 4098 C 385.722 0.163682 1.58758 0
M  V30 4099 C 385.922 -1.33208 1.51188 0
M  V30 4100 O 384.978 -2.10855 1.38911 0
M  V30 4101 C 386.291 0.746095 2.91297 0
M  V30 4102 C 387.839 0.712773 3.04776 0
M  V30 4103 C 388.314 1.27336 4.39943 0
M  V30 4104 N 389.805 1.23433 4.46451 0
M  V30 4105 C 390.54 1.63821 5.495 0
M  V30 4106 N 390.036 2.11832 6.5962 0
M  V30 4107 N 391.829 1.55198 5.4025 0
M  V30 4108 H 383.98 1.47972 1.52375 0
M  V30 4109 H 386.243 0.614147 0.722168 0
M  V30 4110 H 385.949 1.79534 3.02424 0
M  V30 4111 H 385.823 0.210137 3.76614 0
M  V30 4112 H 388.21 -0.327656 2.93275 0
M  V30 4113 H 388.291 1.28595 2.21127 0
M  V30 4114 H 387.935 2.3126 4.52196 0
M  V30 4115 H 387.865 0.676066 5.22242 0
M  V30 4116 H 390.356 0.882627 3.67448 0
M  V30 4117 H 390.669 2.40703 7.34358 0
M  V30 4118 H 389.014 2.1581 6.60644 0
M  V30 4119 H 392.205 1.17505 4.53112 0
M  V30 4120 H 392.378 1.86997 6.20432 0
M  V30 4121 N 385.784 -1.5574 0.241426 0
M  V30 4122 C 387.03 -1.99104 -0.385406 0
M  V30 4123 C 387.363 -1.1293 -1.57988 0
M  V30 4124 O 386.638 -0.191449 -1.93555 0
M  V30 4125 C 386.921 -3.51087 -0.800616 0
M  V30 4126 C 386.774 -4.48028 0.398874 0
M  V30 4127 C 388.093 -4.08015 -1.64959 0
M  V30 4128 H 385.212 -0.723848 -0.138614 0
M  V30 4129 H 387.854 -1.86903 0.341642 0
M  V30 4130 H 386.004 -3.61615 -1.4201 0
M  V30 4131 H 387.676 -4.49487 1.03726 0
M  V30 4132 H 385.919 -4.21077 1.04293 0
M  V30 4133 H 386.59 -5.51962 0.0651056 0
M  V30 4134 H 389.066 -4.00555 -1.12672 0
M  V30 4135 H 387.942 -5.14635 -1.90898 0
M  V30 4136 H 388.203 -3.56131 -2.61961 0
M  V30 4137 N 387.262 0.0317525 -1.57568 0
M  V30 4138 C 388.194 1.06073 -2.03178 0
M  V30 4139 C 389.207 1.32627 -0.944132 0
M  V30 4140 O 390.396 1.30162 -1.22148 0
M  V30 4141 C 387.496 2.40297 -2.38978 0
M  V30 4142 C 386.669 2.33137 -3.70089 0
M  V30 4143 C 385.728 3.49787 -3.9311 0
M  V30 4144 O 384.754 3.29403 -4.64201 0
M  V30 4145 N 385.956 4.71562 -3.38541 0
M  V30 4146 H 388.721 0.672006 -2.92069 0
M  V30 4147 H 386.282 0.219745 -1.60402 0
M  V30 4148 H 388.274 3.1705 -2.51518 0
M  V30 4149 H 386.844 2.71024 -1.55771 0
M  V30 4150 H 386.064 1.415 -3.67928 0
M  V30 4151 H 387.352 2.25493 -4.56104 0
M  V30 4152 H 386.75 4.91024 -2.80912 0
M  V30 4153 H 385.307 5.45689 -3.56464 0
M  V30 4154 N 388.74 1.54641 0.303973 0
M  V30 4155 C 389.673 1.80263 1.3993 0
M  V30 4156 C 390.651 0.653657 1.48883 0
M  V30 4157 O 391.835 0.893284 1.6599 0
M  V30 4158 C 388.962 1.9367 2.77866 0
M  V30 4159 C 388.008 3.16078 2.86351 0
M  V30 4160 S 388.841 4.74219 2.4875 0
M  V30 4161 C 389.997 4.90558 3.88721 0
M  V30 4162 H 390.23 2.72886 1.17986 0
M  V30 4163 H 387.763 1.46014 0.501918 0
M  V30 4164 H 389.721 2.0208 3.57315 0
M  V30 4165 H 388.382 1.01991 2.9708 0
M  V30 4166 H 387.575 3.22252 3.87517 0
M  V30 4167 H 387.177 3.06099 2.14893 0
M  V30 4168 H 389.469 4.74398 4.83687 0
M  V30 4169 H 390.412 5.92651 3.87518 0
M  V30 4170 H 390.82 4.18728 3.78585 0
M  V30 4171 N 390.218 -0.567019 1.47046 0
M  V30 4172 C 391.446 -1.35027 1.56765 0
M  V30 4173 C 391.861 -1.8758 0.214316 0
M  V30 4174 O 391.218 -1.64471 -0.790919 0
M  V30 4175 C 391.269 -2.52698 2.58507 0
M  V30 4176 O 390.99 -2.0232 3.88585 0
M  V30 4177 C 392.491 -3.45043 2.78316 0
M  V30 4178 H 389.711 -0.41195 0.529658 0
M  V30 4179 H 392.255 -0.687832 1.92585 0
M  V30 4180 H 390.41 -3.149 2.25648 0
M  V30 4181 H 390.824 -2.79068 4.44096 0
M  V30 4182 H 392.298 -4.2405 3.53391 0
M  V30 4183 H 392.775 -3.97971 1.85784 0
M  V30 4184 H 393.381 -2.88665 3.12334 0
M  V30 4185 N 391.696 -1.35014 -0.812953 0
M  V30 4186 C 392.942 -1.29129 -1.57154 0
M  V30 4187 C 393.297 0.134922 -1.91926 0
M  V30 4188 O 392.59 1.08373 -1.58006 0
M  V30 4189 C 392.784 -2.12524 -2.87347 0
M  V30 4190 C 392.613 -3.6311 -2.65294 0
M  V30 4191 C 391.383 -4.32363 -2.61516 0
M  V30 4192 C 393.581 -4.56897 -2.36114 0
M  V30 4193 N 391.563 -5.68735 -2.31113 0
M  V30 4194 C 392.934 -5.81345 -2.15494 0
M  V30 4195 C 394.989 -4.45706 -2.21925 0
M  V30 4196 C 393.692 -6.95862 -1.82122 0
M  V30 4197 C 395.718 -5.60066 -1.89948 0
M  V30 4198 C 395.08 -6.83539 -1.7016 0
M  V30 4199 H 391.179 -0.527764 -0.577052 0
M  V30 4200 H 393.763 -1.6983 -0.952146 0
M  V30 4201 H 391.934 -1.74104 -3.47192 0
M  V30 4202 H 393.666 -1.98207 -3.5284 0
M  V30 4203 H 390.421 -3.84907 -2.75941 0
M  V30 4204 H 390.845 -6.40694 -2.18724 0
M  V30 4205 H 395.487 -3.50855 -2.35925 0
M  V30 4206 H 393.205 -7.90685 -1.6686 0
M  V30 4207 H 396.791 -5.53357 -1.79687 0
M  V30 4208 H 395.671 -7.70531 -1.45777 0
M  V30 4209 N 393.175 1.03435 -1.18907 0
M  V30 4210 C 394.4 1.80919 -1.01406 0
M  V30 4211 C 394.825 1.83055 0.432721 0
M  V30 4212 O 394.183 1.25252 1.31079 0
M  V30 4213 C 394.231 3.24091 -1.58105 0
M  V30 4214 O 393.335 4.04434 -0.806669 0
M  V30 4215 H 392.676 0.558709 -0.358803 0
M  V30 4216 H 395.206 1.30223 -1.57807 0
M  V30 4217 H 395.216 3.74853 -1.61087 0
M  V30 4218 H 393.891 3.21851 -2.6341 0
M  V30 4219 H 392.468 3.63091 -0.849666 0
M  V30 4220 N 394.653 0.992116 1.22453 0
M  V30 4221 C 395.883 0.684949 1.94915 0
M  V30 4222 C 396.291 -0.754292 1.73514 0
M  V30 4223 O 395.634 -1.52056 1.03076 0
M  V30 4224 C 395.696 0.910054 3.47791 0
M  V30 4225 C 395.36 2.33363 3.92926 0
M  V30 4226 C 396.357 3.31308 4.00663 0
M  V30 4227 C 394.042 2.66785 4.25595 0
M  V30 4228 C 396.036 4.6075 4.40441 0
M  V30 4229 C 393.723 3.96446 4.65053 0
M  V30 4230 C 394.721 4.9324 4.72444 0
M  V30 4231 O 394.409 6.20584 5.1101 0
M  V30 4232 H 394.141 0.25258 0.62704 0
M  V30 4233 H 396.695 1.32939 1.56577 0
M  V30 4234 H 394.925 0.208443 3.86138 0
M  V30 4235 H 396.614 0.598257 4.01467 0
M  V30 4236 H 397.38 3.0682 3.75615 0
M  V30 4237 H 393.259 1.92148 4.19047 0
M  V30 4238 H 396.803 5.363 4.46126 0
M  V30 4239 H 392.7 4.20724 4.89552 0
M  V30 4240 H 393.468 6.24509 5.29085 0
M  V30 4241 N 396.131 -1.37776 0.765217 0
M  V30 4242 C 397.542 -1.82521 0.392819 0
M  V30 4243 C 397.893 -1.63789 -1.08017 0
M  V30 4244 O 397.018 -1.14542 -1.83601 0
M  V30 4245 C 397.613 -3.31358 0.706214 0
M  V30 4246 C 396.172 -3.74406 0.386952 0
M  V30 4247 C 395.319 -2.60394 0.953422 0
M  V30 4248 H 398.27 -1.2634 0.960412 0
M  V30 4249 H 398.291 -3.80498 -0.0114706 0
M  V30 4250 H 397.803 -3.44959 1.77833 0
M  V30 4251 H 395.904 -3.66377 -0.678112 0
M  V30 4252 H 396.017 -4.70749 0.890636 0
M  V30 4253 H 394.381 -2.51878 0.378064 0
M  V30 4254 H 395.164 -2.76791 2.03081 0
M  V30 4255 N 397.609 -0.515225 -1.4894 0
M  V30 4256 C 398.886 0.0879088 -1.95402 0
M  V30 4257 C 399.266 1.52745 -1.45712 0
M  V30 4258 O 398.614 2.18238 -0.677093 0
M  V30 4259 C 398.824 -0.0141055 -3.48997 0
M  V30 4260 C 400.172 0.152646 -4.24326 0
M  V30 4261 O 401.196 0.0604025 -3.56149 0
M  V30 4262 O 400.055 0.34384 -5.45417 0
M  V30 4263 H 397.149 0.0874636 -0.822362 0
M  V30 4264 H 399.695 -0.578775 -1.59525 0
M  V30 4265 H 398.467 -1.01745 -3.77841 0
M  V30 4266 H 398.09 0.692091 -3.9153 0
M  V30 4267 N 399.087 1.5561 -0.249682 0
M  V30 4268 C 399.997 2.25143 0.659375 0
M  V30 4269 C 401.013 1.2685 1.19101 0
M  V30 4270 O 402.189 1.59732 1.22669 0
M  V30 4271 C 399.254 2.93945 1.8384 0
M  V30 4272 C 398.315 4.07655 1.34596 0
M  V30 4273 C 397.548 4.73167 2.46878 0
M  V30 4274 O 397.771 4.37768 3.65671 0
M  V30 4275 O 396.705 5.61623 2.16478 0
M  V30 4276 H 400.531 3.03545 0.0968698 0
M  V30 4277 H 398.116 1.49389 -0.018074 0
M  V30 4278 H 399.998 3.37271 2.52638 0
M  V30 4279 H 398.673 2.18481 2.38847 0
M  V30 4280 H 397.58 3.68839 0.625174 0
M  V30 4281 H 398.913 4.84946 0.841941 0
M  V30 4282 N 400.565 -0.0233959 1.57583 0
M  V30 4283 C 401.512 -1.02224 2.06927 0
M  V30 4284 C 402.482 -1.35575 0.959617 0
M  V30 4285 O 403.667 -1.45815 1.23055 0
M  V30 4286 C 400.807 -2.31636 2.5581 0
M  V30 4287 C 399.92 -2.04394 3.80588 0
M  V30 4288 C 399.055 -3.27717 4.18061 0
M  V30 4289 C 398.094 -2.96056 5.3574 0
M  V30 4290 N 397.231 -4.11847 5.68618 0
M  V30 4291 H 402.071 -0.594504 2.9201 0
M  V30 4292 H 399.608 -0.281921 1.44373 0
M  V30 4293 H 401.566 -3.07258 2.82221 0
M  V30 4294 H 400.196 -2.72122 1.73636 0
M  V30 4295 H 399.248 -1.19244 3.61227 0
M  V30 4296 H 400.56 -1.77042 4.66323 0
M  V30 4297 H 399.714 -4.11702 4.4563 0
M  V30 4298 H 398.453 -3.58188 3.30988 0
M  V30 4299 H 397.458 -2.10474 5.07918 0
M  V30 4300 H 398.683 -2.66857 6.24471 0
M  V30 4301 H 396.629 -4.42258 4.84504 0
M  V30 4302 H 396.546 -3.87938 6.48876 0
M  V30 4303 H 397.814 -4.96689 6.00766 0
M  V30 4304 N 402.043 -1.548 -0.295768 0
M  V30 4305 C 402.991 -1.86874 -1.38495 0
M  V30 4306 C 403.985 -0.742938 -1.52239 0
M  V30 4307 O 405.191 -0.926999 -1.54294 0
M  V30 4308 H 401.566 -0.592786 -0.462719 0
M  V30 4309 H 403.537 -2.77904 -1.08682 0
M  V30 4310 C 402.286 -2.13732 -2.74252 0
M  V30 4311 H 401.609 -2.99835 -2.64459 0
M  V30 4312 H 403.049 -2.4011 -3.49461 0
M  V30 4313 C 401.508 -0.937539 -3.23592 0
M  V30 4314 O 402.038 -0.160665 -4.01379 0
M  V30 4315 N 400.244 -0.741478 -2.80981 0
M  V30 4316 H 399.791 -1.37489 -2.1784 0
M  V30 4317 H 399.749 0.0597103 -3.14343 0
M  V30 4318 N 403.521 0.559213 -1.47345 0
M  V30 4319 C 404.468 1.66645 -1.59682 0
M  V30 4320 C 405.438 1.60168 -0.43994 0
M  V30 4321 O 406.623 1.79031 -0.659736 0
M  V30 4322 C 403.763 3.04969 -1.61518 0
M  V30 4323 C 402.876 3.21897 -2.88108 0
M  V30 4324 C 402.011 4.50608 -2.81294 0
M  V30 4325 C 401.05 4.60961 -4.02717 0
M  V30 4326 N 400.187 5.81024 -3.94151 0
M  V30 4327 H 405.027 1.55439 -2.54249 0
M  V30 4328 H 402.564 0.757219 -1.26113 0
M  V30 4329 H 404.522 3.85064 -1.60566 0
M  V30 4330 H 403.152 3.15015 -0.704645 0
M  V30 4331 H 402.204 2.35248 -2.98936 0
M  V30 4332 H 403.516 3.25412 -3.78032 0
M  V30 4333 H 402.67 5.3896 -2.7858 0
M  V30 4334 H 401.409 4.49568 -1.89049 0
M  V30 4335 H 400.414 3.71021 -4.05738 0
M  V30 4336 H 401.639 4.63761 -4.96087 0
M  V30 4337 H 399.585 5.80938 -3.04708 0
M  V30 4338 H 399.502 5.85909 -4.77752 0
M  V30 4339 H 400.77 6.71744 -3.9545 0
M  V30 4340 N 404.999 1.35443 0.805782 0
M  V30 4341 C 406.415 1.15499 1.10146 0
M  V30 4342 C 406.615 -0.0319975 2.01475 0
M  V30 4343 O 405.671 -0.70236 2.42535 0
M  V30 4344 C 406.984 2.45833 1.73166 0
M  V30 4345 C 408.532 2.52047 1.85583 0
M  V30 4346 C 409.007 3.82427 2.52019 0
M  V30 4347 N 410.498 3.83682 2.59504 0
M  V30 4348 C 411.233 4.81294 3.11679 0
M  V30 4349 N 410.729 5.89294 3.64287 0
M  V30 4350 N 412.522 4.6873 3.1024 0
M  V30 4351 H 404.673 2.11469 0.198678 0
M  V30 4352 H 406.936 0.93594 0.150731 0
M  V30 4353 H 406.642 3.32874 1.13526 0
M  V30 4354 H 406.516 2.6044 2.72857 0
M  V30 4355 H 408.903 1.65435 2.44367 0
M  V30 4356 H 408.984 2.41354 0.847455 0
M  V30 4357 H 408.628 4.69437 1.93885 0
M  V30 4358 H 408.558 3.90409 3.53395 0
M  V30 4359 H 411.049 3.05648 2.22234 0
M  V30 4360 H 411.362 6.59768 4.02401 0
M  V30 4361 H 409.707 5.92985 3.62483 0
M  V30 4362 H 412.898 3.83496 2.68419 0
M  V30 4363 H 413.071 5.44965 3.50596 0
M  V30 4364 N 406.477 -1.02803 1.19454 0
M  V30 4365 C 407.44 -2.09264 0.934955 0
M  V30 4366 C 408.44 -1.60576 -0.0849015 0
M  V30 4367 O 409.63 -1.73554 0.149933 0
M  V30 4368 C 406.762 -3.38482 0.40531 0
M  V30 4369 H 407.955 -2.33726 1.87916 0
M  V30 4370 H 405.508 -1.19426 1.00832 0
M  V30 4371 H 406.243 -3.19689 -0.544899 0
M  V30 4372 H 406.028 -3.75142 1.14065 0
M  V30 4373 H 407.518 -4.16894 0.242806 0
M  V30 4374 N 407.956 -0.998596 -1.21925 0
M  V30 4375 C 409.181 -0.696015 -1.95372 0
M  V30 4376 C 409.606 0.733826 -1.73195 0
M  V30 4377 O 408.964 1.50242 -1.01474 0
M  V30 4378 C 409.012 -1.01466 -3.4603 0
M  V30 4379 O 408.116 -0.116415 -4.12236 0
M  V30 4380 H 407.457 -0.259938 -0.611006 0
M  V30 4381 H 409.987 -1.33711 -1.54863 0
M  V30 4382 H 409.997 -0.958855 -3.96573 0
M  V30 4383 H 408.672 -2.05653 -3.61497 0
M  V30 4384 H 407.249 -0.228193 -3.72201 0
M  V30 4385 N 409.434 1.37368 -0.772513 0
M  V30 4386 C 410.68 1.99969 -0.337681 0
M  V30 4387 C 411.013 1.61184 1.08321 0
M  V30 4388 O 410.288 0.858395 1.74533 0
M  V30 4389 C 410.571 3.56858 -0.482121 0
M  V30 4390 C 410.424 4.0555 -1.94549 0
M  V30 4391 C 411.743 4.39955 0.113143 0
M  V30 4392 H 408.862 0.726464 -0.124171 0
M  V30 4393 H 411.504 1.63034 -0.975699 0
M  V30 4394 H 409.654 3.88452 0.0610361 0
M  V30 4395 H 411.326 3.84518 -2.54841 0
M  V30 4396 H 409.569 3.57715 -2.45403 0
M  V30 4397 H 410.24 5.14587 -1.9976 0
M  V30 4398 H 412.716 4.14623 -0.35031 0
M  V30 4399 H 411.592 5.48897 -0.0180514 0
M  V30 4400 H 411.853 4.25403 1.20354 0
M  V30 4401 N 410.912 0.523116 1.48665 0
M  V30 4402 C 412.328 0.180511 1.58576 0
M  V30 4403 C 412.528 -1.31597 1.52592 0
M  V30 4404 O 411.584 -2.0937 1.4114 0
M  V30 4405 C 412.897 0.776949 2.90489 0
M  V30 4406 C 414.445 0.745058 3.04003 0
M  V30 4407 C 414.92 1.31995 4.38567 0
M  V30 4408 N 416.411 1.28162 4.45117 0
M  V30 4409 C 417.146 1.6964 5.47731 0
M  V30 4410 N 416.642 2.18816 6.57337 0
M  V30 4411 N 418.435 1.6092 5.38573 0
M  V30 4412 H 410.586 1.4958 1.50797 0
M  V30 4413 H 412.849 0.621772 0.715614 0
M  V30 4414 H 412.555 1.82732 3.00503 0
M  V30 4415 H 412.429 0.25007 3.7637 0
M  V30 4416 H 414.816 -0.296532 2.93606 0
M  V30 4417 H 414.897 1.30933 2.1975 0
M  V30 4418 H 414.541 2.36043 4.49718 0
M  V30 4419 H 414.471 0.731418 5.21496 0
M  V30 4420 H 416.962 0.92155 3.66491 0
M  V30 4421 H 417.275 2.48478 7.31764 0
M  V30 4422 H 415.62 2.22805 6.58318 0
M  V30 4423 H 418.811 1.22304 4.5184 0
M  V30 4424 H 418.984 1.93567 6.18414 0
M  V30 4425 N 412.39 -1.55475 0.257931 0
M  V30 4426 C 413.806 -1.59307 -0.0966563 0
M  V30 4427 C 414.006 -1.27514 -1.5602 0
M  V30 4428 O 413.062 -1.02774 -2.30637 0
M  V30 4429 C 414.375 -2.99552 0.262481 0
M  V30 4430 C 415.923 -3.1231 0.207683 0
M  V30 4431 C 416.398 -4.54793 0.541012 0
M  V30 4432 N 417.889 -4.6058 0.491921 0
M  V30 4433 C 418.624 -5.68825 0.722857 0
M  V30 4434 N 418.12 -6.85287 1.0175 0
M  V30 4435 N 419.913 -5.58296 0.652815 0
M  V30 4436 H 412.064 -1.74409 1.21224 0
M  V30 4437 H 414.327 -0.812424 0.48854 0
M  V30 4438 H 414.033 -3.27593 1.27967 0
M  V30 4439 H 413.907 -3.75019 -0.40508 0
M  V30 4440 H 416.294 -2.84044 -0.800195 0
M  V30 4441 H 416.375 -2.39095 0.909255 0
M  V30 4442 H 416.019 -4.83783 1.5465 0
M  V30 4443 H 415.949 -5.26285 -0.18216 0
M  V30 4444 H 418.44 -3.7691 0.273366 0
M  V30 4445 H 418.753 -7.63725 1.18084 0
M  V30 4446 H 417.098 -6.86945 1.05509 0
M  V30 4447 H 420.289 -4.66189 0.422592 0
M  V30 4448 H 420.462 -6.42582 0.836182 0
M  V30 4449 N 413.868 0.0150385 -1.57593 0
M  V30 4450 C 415.284 0.370907 -1.5523 0
M  V30 4451 C 415.484 1.75735 -0.985882 0
M  V30 4452 O 414.54 2.44944 -0.613077 0
M  V30 4453 C 415.853 0.259908 -2.99575 0
M  V30 4454 C 417.401 0.335959 -3.11192 0
M  V30 4455 C 417.876 0.254253 -4.57294 0
M  V30 4456 N 419.367 0.312618 -4.62144 0
M  V30 4457 C 420.102 0.272505 -5.72752 0
M  V30 4458 N 419.598 0.183864 -6.92556 0
M  V30 4459 N 421.391 0.323267 -5.6117 0
M  V30 4460 H 413.542 -0.892104 -1.92757 0
M  V30 4461 H 415.805 -0.340563 -0.884715 0
M  V30 4462 H 415.511 -0.693403 -3.44797 0
M  V30 4463 H 415.385 1.048 -3.62349 0
M  V30 4464 H 417.772 1.27971 -2.65909 0
M  V30 4465 H 417.853 -0.481739 -2.51223 0
M  V30 4466 H 417.497 -0.685887 -5.03247 0
M  V30 4467 H 417.427 1.09024 -5.15191 0
M  V30 4468 H 419.918 0.38307 -3.75953 0
M  V30 4469 H 420.231 0.15874 -7.72637 0
M  V30 4470 H 418.576 0.149708 -6.94839 0
M  V30 4471 H 421.767 0.390607 -4.66467 0
M  V30 4472 H 421.94 0.288539 -6.47357 0
M  V30 4473 N 415.346 1.54954 0.287554 0
M  V30 4474 C 416.595 1.74081 1.01877 0
M  V30 4475 C 416.908 0.541135 1.87966 0
M  V30 4476 O 418.114 0.614491 2.64455 0
M  V30 4477 C 416.57 3.08042 1.86113 0
M  V30 4478 C 416.178 4.35531 1.04961 0
M  V30 4479 C 417.922 3.36523 2.58752 0
M  V30 4480 C 415.829 5.60538 1.88551 0
M  V30 4481 H 414.759 0.64884 0.384087 0
M  V30 4482 H 417.41 1.81426 0.275101 0
M  V30 4483 H 415.792 2.94696 2.64519 0
M  V30 4484 H 416.966 4.59751 0.31074 0
M  V30 4485 H 415.281 4.14085 0.43843 0
M  V30 4486 H 417.878 4.27122 3.21668 0
M  V30 4487 H 418.221 2.56 3.28283 0
M  V30 4488 H 418.754 3.50901 1.87386 0
M  V30 4489 H 415.493 6.43767 1.23466 0
M  V30 4490 H 415.013 5.40483 2.60074 0
M  V30 4491 H 416.692 5.98297 2.46273 0
M  V30 4492 N 416.824 -0.551391 1.4764 0
M  V30 4493 C 418.101 -1.31229 1.45046 0
M  V30 4494 C 418.481 -2.10563 0.150527 0
M  V30 4495 O 417.829 -2.11374 -0.867956 0
M  V30 4496 C 418.039 -2.21189 2.69956 0
M  V30 4497 C 419.387 -2.82021 3.1741 0
M  V30 4498 O 420.411 -2.31488 2.70724 0
M  V30 4499 O 419.27 -3.73885 3.98588 0
M  V30 4500 H 416.364 -0.591193 0.578291 0
M  V30 4501 H 418.91 -0.569813 1.59847 0
M  V30 4502 H 417.682 -1.62207 3.56096 0
M  V30 4503 H 417.305 -3.02722 2.57769 0
M  V30 4504 N 418.302 -1.35869 -0.798587 0
M  V30 4505 C 419.234 -1.25305 -1.91915 0
M  V30 4506 C 420.247 -0.174548 -1.61862 0
M  V30 4507 O 421.436 -0.428499 -1.73281 0
M  V30 4508 C 418.536 -0.9086 -3.26493 0
M  V30 4509 C 417.709 -2.08711 -3.84394 0
M  V30 4510 C 416.768 -1.71717 -4.97393 0
M  V30 4511 O 415.794 -2.43692 -5.14396 0
M  V30 4512 N 416.996 -0.645473 -5.769 0
M  V30 4513 H 419.761 -2.21849 -2.01502 0
M  V30 4514 H 417.322 -1.29143 -0.976408 0
M  V30 4515 H 419.314 -0.642455 -3.99568 0
M  V30 4516 H 417.884 -0.0325815 -3.12583 0
M  V30 4517 H 417.104 -2.51659 -3.03416 0
M  V30 4518 H 418.392 -2.87468 -4.19809 0
M  V30 4519 H 417.79 -0.047648 -5.6568 0
M  V30 4520 H 416.347 -0.43913 -6.50319 0
M  V30 4521 N 419.78 1.02168 -1.19998 0
M  V30 4522 C 421.005 1.79833 -1.03319 0
M  V30 4523 C 421.43 1.83504 0.413281 0
M  V30 4524 O 420.788 1.26635 1.29743 0
M  V30 4525 C 420.836 3.22396 -1.61533 0
M  V30 4526 O 419.94 4.03555 -0.849519 0
M  V30 4527 H 419.281 0.554872 -0.364709 0
M  V30 4528 H 421.811 1.28542 -1.59179 0
M  V30 4529 H 421.821 3.73124 -1.65054 0
M  V30 4530 H 420.496 3.19039 -2.66809 0
M  V30 4531 H 419.073 3.62169 -0.888129 0
M  V30 4532 N 421.258 1.00505 1.21394 0
M  V30 4533 C 422.206 0.558623 2.25792 0
M  V30 4534 C 423.2 -0.396848 1.64686 0
M  V30 4535 O 424.406 -0.268035 1.77993 0
M  V30 4536 H 420.781 0.1623 0.734277 0
M  V30 4537 H 422.752 1.4503 2.60785 0
M  V30 4538 C 421.501 -0.0989574 3.47559 0
M  V30 4539 H 420.824 0.627225 3.94849 0
M  V30 4540 H 422.264 -0.3746 4.22342 0
M  V30 4541 C 420.723 -1.33817 3.09184 0
M  V30 4542 O 421.253 -2.43252 3.19674 0
M  V30 4543 N 419.459 -1.21793 2.63846 0
M  V30 4544 H 419.006 -0.32746 2.5551 0
M  V30 4545 H 418.964 -2.04809 2.38539 0
M  V30 4546 N 422.737 -1.36956 0.779787 0
M  V30 4547 C 423.962 -2.04283 0.358224 0
M  V30 4548 C 424.387 -1.58422 -1.01411 0
M  V30 4549 O 423.745 -0.748179 -1.65142 0
M  V30 4550 C 423.793 -3.58152 0.419479 0
M  V30 4551 O 422.897 -4.08342 -0.577142 0
M  V30 4552 H 422.238 -0.645967 0.153698 0
M  V30 4553 H 424.768 -1.75108 1.05822 0
M  V30 4554 H 424.778 -4.07041 0.279636 0
M  V30 4555 H 423.453 -3.90886 1.42061 0
M  V30 4556 H 422.03 -3.70751 -0.399755 0
M  V30 4557 N 424.215 -0.530993 -1.48385 0
M  V30 4558 C 425.165 0.251092 -2.26613 0
M  V30 4559 C 426.149 0.908977 -1.32765 0
M  V30 4560 O 427.341 0.811616 -1.57295 0
M  V30 4561 C 424.47 1.29677 -3.17866 0
M  V30 4562 C 423.556 0.643627 -4.19188 0
M  V30 4563 N 423.947 -0.271223 -5.05072 0
M  V30 4564 C 422.245 0.900711 -4.3681 0
M  V30 4565 C 422.946 -0.648109 -5.78078 0
M  V30 4566 N 421.922 -0.00895987 -5.43599 0
M  V30 4567 H 425.724 -0.452702 -2.90393 0
M  V30 4568 H 423.238 -0.349091 -1.58604 0
M  V30 4569 H 425.235 1.87079 -3.72568 0
M  V30 4570 H 423.895 2.00193 -2.55642 0
M  V30 4571 H 424.906 -0.643883 -5.13882 0
M  V30 4572 H 421.583 1.59636 -3.85775 0
M  V30 4573 H 422.973 -1.39833 -6.57188 0
M  V30 4574 N 425.693 1.55336 -0.266172 0
M  V30 4575 C 426.656 2.20878 0.612001 0
M  V30 4576 C 427.656 1.18388 1.08816 0
M  V30 4577 O 428.846 1.4335 0.989774 0
M  V30 4578 C 425.978 2.86765 1.84332 0
M  V30 4579 H 427.171 2.99873 0.0398718 0
M  V30 4580 H 424.724 1.56291 -0.0167309 0
M  V30 4581 H 425.459 2.11759 2.45619 0
M  V30 4582 H 425.244 3.61862 1.5099 0
M  V30 4583 H 426.734 3.36867 2.46801 0
M  V30 4584 N 427.171 -0.0066808 1.57599 0
M  V30 4585 C 428.119 -1.01851 2.09115 0
M  V30 4586 C 429.113 -1.36021 1.00969 0
M  V30 4587 O 430.319 -1.34663 1.19439 0
M  V30 4588 H 426.694 -0.346083 0.667631 0
M  V30 4589 H 428.665 -0.558394 2.93129 0
M  V30 4590 C 427.414 -2.30374 2.60429 0
M  V30 4591 H 426.737 -2.04947 3.43273 0
M  V30 4592 H 428.177 -2.99466 3.00161 0
M  V30 4593 C 426.636 -3.00893 1.51542 0
M  V30 4594 O 427.166 -3.91614 0.894484 0
M  V30 4595 N 425.372 -2.62603 1.2445 0
M  V30 4596 H 424.919 -1.88911 1.75129 0
M  V30 4597 H 424.877 -3.10101 0.518137 0
M  V30 4598 N 428.649 -1.55105 -0.279332 0
M  V30 4599 C 429.898 -1.74618 -1.00952 0
M  V30 4600 C 430.211 -0.551096 -1.87676 0
M  V30 4601 O 431.417 -0.628507 -2.64125 0
M  V30 4602 C 429.873 -3.09025 -1.84476 0
M  V30 4603 C 429.481 -4.36081 -1.0265 0
M  V30 4604 C 431.225 -3.37891 -2.56963 0
M  V30 4605 C 429.132 -5.6153 -1.85576 0
M  V30 4606 H 428.062 -0.650868 -0.38064 0
M  V30 4607 H 430.713 -1.81569 -0.265475 0
M  V30 4608 H 429.095 -2.96095 -2.62952 0
M  V30 4609 H 430.269 -4.59909 -0.286354 0
M  V30 4610 H 428.584 -4.14312 -0.416464 0
M  V30 4611 H 431.181 -4.28822 -3.19399 0
M  V30 4612 H 431.524 -2.57737 -3.26921 0
M  V30 4613 H 432.057 -3.5189 -1.85522 0
M  V30 4614 H 428.796 -6.44413 -1.2005 0
M  V30 4615 H 428.316 -5.41854 -2.57204 0
M  V30 4616 H 429.995 -5.99594 -2.43096 0
M  V30 4617 N 430.127 0.543554 -1.4793 0
M  V30 4618 C 431.374 1.30008 -1.55255 0
M  V30 4619 C 431.702 1.93245 -0.220612 0
M  V30 4620 O 430.957 1.79141 0.787843 0
M  V30 4621 C 431.256 2.42078 -2.62932 0
M  V30 4622 C 430.922 1.96583 -4.0579 0
M  V30 4623 C 429.584 1.83893 -4.44676 0
M  V30 4624 C 431.936 1.62034 -4.95373 0
M  V30 4625 C 429.264 1.34969 -5.70964 0
M  V30 4626 C 431.616 1.14577 -6.22137 0
M  V30 4627 C 430.28 1.00493 -6.59892 0
M  V30 4628 H 429.55 0.475735 -0.568117 0
M  V30 4629 H 432.197 0.608075 -1.81589 0
M  V30 4630 H 430.502 3.16892 -2.30406 0
M  V30 4631 H 432.199 3.00236 -2.65818 0
M  V30 4632 H 428.789 2.07407 -3.75074 0
M  V30 4633 H 432.973 1.70705 -4.66019 0
M  V30 4634 H 428.229 1.2274 -5.98953 0
M  V30 4635 H 432.403 0.869109 -6.90955 0
M  V30 4636 H 430.03 0.623624 -7.57638 0
M  V30 4637 N 431.605 1.3629 0.791371 0
M  V30 4638 C 432.835 1.33368 1.57786 0
M  V30 4639 C 433.243 -0.0875188 1.88997 0
M  V30 4640 O 432.586 -1.05427 1.50435 0
M  V30 4641 C 432.648 2.08802 2.92646 0
M  V30 4642 C 432.312 3.57903 2.84174 0
M  V30 4643 C 433.309 4.52191 2.56553 0
M  V30 4644 C 430.994 4.00762 3.02812 0
M  V30 4645 C 432.988 5.87315 2.47669 0
M  V30 4646 C 430.675 5.35977 2.93551 0
M  V30 4647 C 431.673 6.29066 2.66017 0
M  V30 4648 O 431.361 7.61798 2.56746 0
M  V30 4649 H 431.093 0.459166 0.496128 0
M  V30 4650 H 433.647 1.79952 0.990269 0
M  V30 4651 H 431.877 1.56878 3.53449 0
M  V30 4652 H 433.566 1.98762 3.53904 0
M  V30 4653 H 434.332 4.20393 2.41858 0
M  V30 4654 H 430.211 3.2868 3.2325 0
M  V30 4655 H 433.755 6.59943 2.26099 0
M  V30 4656 H 429.652 5.67384 3.07808 0
M  V30 4657 H 430.42 7.71898 2.72242 0
M  V30 4658 N 433.083 -1.0153 1.20538 0
M  V30 4659 C 434.308 -1.79283 1.04271 0
M  V30 4660 C 434.733 -1.8372 -0.403544 0
M  V30 4661 O 434.091 -1.27321 -1.2907 0
M  V30 4662 C 434.139 -3.21535 1.63241 0
M  V30 4663 O 433.243 -4.03099 0.870908 0
M  V30 4664 H 432.584 -0.55293 0.367647 0
M  V30 4665 H 435.114 -1.27696 1.59859 0
M  V30 4666 H 435.124 -3.72243 1.6703 0
M  V30 4667 H 433.799 -3.1762 2.68497 0
M  V30 4668 H 432.376 -3.61693 0.907323 0
M  V30 4669 N 434.561 -1.01147 -1.20859 0
M  V30 4670 C 435.807 -0.698899 -1.90377 0
M  V30 4671 C 436.14 0.76904 -1.78324 0
M  V30 4672 O 435.415 1.55817 -1.16409 0
M  V30 4673 C 435.698 -1.12878 -3.41951 0
M  V30 4674 C 435.551 -2.65665 -3.62963 0
M  V30 4675 C 436.87 -0.696114 -4.3456 0
M  V30 4676 H 433.989 -0.255372 -0.691342 0
M  V30 4677 H 436.631 -1.25831 -1.42361 0
M  V30 4678 H 434.781 -0.652827 -3.82976 0
M  V30 4679 H 436.453 -3.21074 -3.31224 0
M  V30 4680 H 434.696 -3.06878 -3.06608 0
M  V30 4681 H 435.367 -2.90797 -4.69192 0
M  V30 4682 H 437.843 -1.10521 -4.01154 0
M  V30 4683 H 436.719 -1.025 -5.39245 0
M  V30 4684 H 436.98 0.402465 -4.40264 0
M  V30 4685 N 436.039 1.36541 -0.78704 0
M  V30 4686 C 436.969 2.32659 -0.197992 0
M  V30 4687 C 437.95 1.56533 0.665697 0
M  V30 4688 O 439.135 1.84698 0.60001 0
M  V30 4689 C 436.265 3.40778 0.669901 0
M  V30 4690 C 435.219 4.27897 -0.0937039 0
M  V30 4691 C 434.545 5.27163 0.894629 0
M  V30 4692 C 435.845 5.06334 -1.28154 0
M  V30 4693 H 437.539 2.82171 -1.00099 0
M  V30 4694 H 435.085 1.35665 -0.482793 0
M  V30 4695 H 437.038 4.07008 1.09191 0
M  V30 4696 H 435.762 2.89827 1.50558 0
M  V30 4697 H 434.421 3.6322 -0.49666 0
M  V30 4698 H 434.069 4.72486 1.72527 0
M  V30 4699 H 433.769 5.86317 0.388149 0
M  V30 4700 H 435.293 5.96266 1.31525 0
M  V30 4701 H 436.707 5.65617 -0.93541 0
M  V30 4702 H 435.104 5.74888 -1.72115 0
M  V30 4703 H 436.174 4.38114 -2.07807 0
M  V30 4704 N 437.518 0.538854 1.48102 0
M  V30 4705 C 438.746 0.0123136 2.06896 0
M  V30 4706 C 439.161 -1.27312 1.39417 0
M  V30 4707 O 438.518 -1.75949 0.484582 0
M  V30 4708 C 438.569 -0.206118 3.60912 0
M  V30 4709 O 438.29 1.0284 4.25859 0
M  V30 4710 C 439.791 -0.772033 4.36526 0
M  V30 4711 H 437.011 0.0375239 0.66995 0
M  V30 4712 H 439.555 0.747032 1.90367 0
M  V30 4713 H 437.71 -0.89091 3.77017 0
M  V30 4714 H 438.124 0.814654 5.18135 0
M  V30 4715 H 439.598 -0.874251 5.45033 0
M  V30 4716 H 440.075 -1.77904 4.01555 0
M  V30 4717 H 440.681 -0.123526 4.25121 0
M  V30 4718 N 438.996 -1.55193 0.274407 0
M  V30 4719 C 440.245 -1.98758 -0.343213 0
M  V30 4720 C 440.558 -1.16624 -1.5703 0
M  V30 4721 O 441.764 -1.5033 -2.26082 0
M  V30 4722 C 440.22 -3.53759 -0.661996 0
M  V30 4723 C 439.828 -4.4467 0.54524 0
M  V30 4724 C 441.572 -4.05916 -1.24228 0
M  V30 4725 C 439.479 -5.91058 0.201084 0
M  V30 4726 H 438.409 -0.742353 -0.132014 0
M  V30 4727 H 441.06 -1.79545 0.378948 0
M  V30 4728 H 439.442 -3.68772 -1.44304 0
M  V30 4729 H 440.616 -4.41426 1.32212 0
M  V30 4730 H 438.931 -4.03143 1.04232 0
M  V30 4731 H 441.528 -5.12831 -1.51357 0
M  V30 4732 H 441.871 -3.54908 -2.17592 0
M  V30 4733 H 442.404 -3.9434 -0.523542 0
M  V30 4734 H 439.143 -6.46161 1.10258 0
M  V30 4735 H 438.663 -5.97373 -0.539045 0
M  V30 4736 H 440.342 -6.46669 -0.206954 0
M  V30 4737 N 440.474 -0.00167713 -1.576 0
M  V30 4738 C 441.751 0.719951 -1.81868 0
M  V30 4739 C 442.131 1.91895 -0.879747 0
M  V30 4740 O 441.479 2.28389 0.0711423 0
M  V30 4741 C 441.689 1.12409 -3.30402 0
M  V30 4742 C 443.037 1.52724 -3.96182 0
M  V30 4743 O 444.061 1.21784 -3.34734 0
M  V30 4744 O 442.92 2.10265 -5.04431 0
M  V30 4745 H 440.014 0.350707 -0.748955 0
M  V30 4746 H 442.56 -0.0272597 -1.69678 0
M  V30 4747 H 441.332 0.269532 -3.90371 0
M  V30 4748 H 440.955 1.93035 -3.47596 0
M  V30 4749 N 441.952 1.55251 0.271103 0
M  V30 4750 C 442.899 1.88261 1.33516 0
M  V30 4751 C 443.869 0.734296 1.48988 0
M  V30 4752 O 445.054 0.985741 1.63364 0
M  V30 4753 C 442.194 2.16168 2.69008 0
M  V30 4754 C 441.307 3.43678 2.61743 0
M  V30 4755 C 440.442 3.61276 3.89427 0
M  V30 4756 C 439.481 4.82472 3.7668 0
M  V30 4757 N 438.618 4.96717 4.96202 0
M  V30 4758 H 443.458 2.79015 1.04665 0
M  V30 4759 H 440.995 1.38137 0.505618 0
M  V30 4760 H 442.953 2.30349 3.47844 0
M  V30 4761 H 441.583 1.28646 2.96057 0
M  V30 4762 H 440.635 3.37959 1.74607 0
M  V30 4763 H 441.947 4.3265 2.48224 0
M  V30 4764 H 441.101 3.75284 4.76704 0
M  V30 4765 H 439.84 2.70492 4.05814 0
M  V30 4766 H 438.845 4.68465 2.87786 0
M  V30 4767 H 440.07 5.74692 3.61809 0
M  V30 4768 H 438.016 4.08865 5.12997 0
M  V30 4769 H 437.933 5.79738 4.85222 0
M  V30 4770 H 439.201 5.15113 5.85046 0
M  V30 4771 N 443.43 -0.535701 1.48216 0
M  V30 4772 C 444.363 -1.65726 1.56876 0
M  V30 4773 C 445.341 -1.57094 0.419542 0
M  V30 4774 O 446.525 -1.77648 0.630352 0
M  V30 4775 C 443.652 -3.04096 1.49142 0
M  V30 4776 C 442.698 -3.31105 2.68834 0
M  V30 4777 S 443.531 -3.18001 4.30854 0
M  V30 4778 C 444.687 -4.58828 4.25709 0
M  V30 4779 H 444.92 -1.58129 2.51759 0
M  V30 4780 H 442.453 -0.718218 1.36678 0
M  V30 4781 H 444.411 -3.839 1.45366 0
M  V30 4782 H 443.072 -3.09139 0.556067 0
M  V30 4783 H 442.265 -4.32033 2.59545 0
M  V30 4784 H 441.867 -2.58961 2.69843 0
M  V30 4785 H 444.159 -5.5023 3.95289 0
M  V30 4786 H 445.102 -4.73172 5.26796 0
M  V30 4787 H 445.51 -4.37883 3.56257 0
M  V30 4788 N 444.908 -1.36708 -0.784132 0
M  V30 4789 C 445.84 -1.27333 -1.90575 0
M  V30 4790 C 446.853 -0.191706 -1.61667 0
M  V30 4791 O 448.042 -0.446854 -1.72816 0
M  V30 4792 C 445.142 -0.943177 -3.25511 0
M  V30 4793 C 444.315 -2.12776 -3.82158 0
M  V30 4794 C 443.374 -1.76983 -4.95544 0
M  V30 4795 O 442.4 -2.49134 -5.11782 0
M  V30 4796 N 443.602 -0.706624 -5.76183 0
M  V30 4797 H 446.367 -2.23974 -1.99138 0
M  V30 4798 H 443.928 -1.30171 -0.962656 0
M  V30 4799 H 445.92 -0.684799 -3.98864 0
M  V30 4800 H 444.49 -0.0657333 -3.12531 0
M  V30 4801 H 443.71 -2.54863 -3.0073 0
M  V30 4802 H 444.998 -2.91904 -4.16737 0
M  V30 4803 H 444.396 -0.107643 -5.65598 0
M  V30 4804 H 442.953 -0.50808 -6.49817 0
M  V30 4805 N 446.386 1.0089 -1.21074 0
M  V30 4806 C 447.334 2.11707 -0.963476 0
M  V30 4807 C 448.328 1.69172 0.0879032 0
M  V30 4808 O 449.534 1.79889 -0.0631415 0
M  V30 4809 H 445.909 0.692026 -0.294287 0
M  V30 4810 H 447.88 2.29743 -1.90422 0
M  V30 4811 C 446.629 3.43473 -0.540509 0
M  V30 4812 H 445.952 3.76634 -1.34114 0
M  V30 4813 H 447.392 4.22044 -0.406777 0
M  V30 4814 C 445.851 3.2849 0.748079 0
M  V30 4815 O 446.381 3.58883 1.8046 0
M  V30 4816 N 444.587 2.81715 0.713081 0
M  V30 4817 H 444.134 2.5718 -0.146973 0
M  V30 4818 H 444.092 2.72071 1.57558 0
M  V30 4819 N 447.864 1.01787 1.20321 0
M  V30 4820 C 448.811 0.589197 2.23153 0
M  V30 4821 C 449.781 -0.391367 1.61423 0
M  V30 4822 O 450.966 -0.290518 1.88575 0
M  V30 4823 C 448.106 -0.0650747 3.45039 0
M  V30 4824 C 447.219 0.960207 4.21194 0
M  V30 4825 C 446.354 0.276854 5.30478 0
M  V30 4826 C 445.393 1.2888 5.98378 0
M  V30 4827 N 444.53 0.632031 6.99249 0
M  V30 4828 H 449.37 1.47071 2.59179 0
M  V30 4829 H 446.907 0.736192 1.27352 0
M  V30 4830 H 448.865 -0.461552 4.14639 0
M  V30 4831 H 447.495 -0.910233 3.09701 0
M  V30 4832 H 446.547 1.47484 3.50646 0
M  V30 4833 H 447.859 1.72977 4.67847 0
M  V30 4834 H 447.013 -0.175056 6.06447 0
M  V30 4835 H 445.752 -0.525004 4.84866 0
M  V30 4836 H 444.757 1.75109 5.21169 0
M  V30 4837 H 445.982 2.09196 6.46076 0
M  V30 4838 H 443.928 -0.149935 6.55829 0
M  V30 4839 H 443.845 1.33964 7.44036 0
M  V30 4840 H 445.113 0.203755 7.79234 0
M  V30 4841 N 449.342 -1.36122 0.79427 0
M  V30 4842 C 450.619 -1.93398 0.292685 0
M  V30 4843 C 450.999 -1.72567 -1.21589 0
M  V30 4844 O 450.347 -1.08745 -2.00965 0
M  V30 4845 C 450.557 -3.42099 0.690614 0
M  V30 4846 C 451.905 -4.19231 0.673105 0
M  V30 4847 O 452.929 -3.50559 0.631389 0
M  V30 4848 O 451.788 -5.41732 0.720362 0
M  V30 4849 H 448.882 -0.823712 0.0736693 0
M  V30 4850 H 451.428 -1.45273 0.87714 0
M  V30 4851 H 450.2 -3.50938 1.73085 0
M  V30 4852 H 449.823 -3.97519 0.0803036 0
M  V30 4853 N 450.82 -0.546701 -1.47814 0
M  V30 4854 C 451.767 0.206854 -2.29871 0
M  V30 4855 C 452.737 0.918235 -1.38411 0
M  V30 4856 O 453.922 0.915991 -1.67375 0
M  V30 4857 C 451.062 1.23746 -3.22151 0
M  V30 4858 C 450.175 0.533216 -4.28697 0
M  V30 4859 C 449.31 1.5482 -5.08138 0
M  V30 4860 C 448.349 0.828347 -6.06469 0
M  V30 4861 N 447.486 1.78966 -6.78908 0
M  V30 4862 H 452.326 -0.499037 -2.93792 0
M  V30 4863 H 449.863 -0.25793 -1.44821 0
M  V30 4864 H 451.821 1.84746 -3.74065 0
M  V30 4865 H 450.451 1.91151 -2.60117 0
M  V30 4866 H 449.503 -0.191089 -3.7992 0
M  V30 4867 H 450.815 -0.0311987 -4.9879 0
M  V30 4868 H 449.969 2.23202 -5.6415 0
M  V30 4869 H 448.708 2.14652 -4.37922 0
M  V30 4870 H 447.713 0.130539 -5.49645 0
M  V30 4871 H 448.938 0.235907 -6.7869 0
M  V30 4872 H 446.884 2.37675 -6.1143 0
M  V30 4873 H 446.801 1.27712 -7.45135 0
M  V30 4874 H 448.069 2.46496 -7.395 0
M  V30 4875 N 452.299 1.55045 -0.282633 0
M  V30 4876 C 453.547 1.99365 0.331334 0
M  V30 4877 C 453.868 1.1725 1.55812 0
M  V30 4878 O 453.138 0.263871 1.94115 0
M  V30 4879 H 451.718 0.736397 0.125414 0
M  V30 4880 H 454.38 1.90964 -0.389711 0
M  V30 4881 H 453.476 3.0596 0.616036 0
M  V30 4882 N 453.777 0.010035 1.57597 0
M  V30 4883 C 454.707 -0.976857 2.12084 0
M  V30 4884 C 455.688 -1.35191 1.03235 0
M  V30 4885 O 456.873 -1.43389 1.3097 0
M  V30 4886 C 454.003 -2.26548 2.63236 0
M  V30 4887 C 452.957 -2.03175 3.76701 0
M  V30 4888 C 452.283 -3.38138 4.14206 0
M  V30 4889 C 453.583 -1.38625 5.03568 0
M  V30 4890 H 455.277 -0.523145 2.94794 0
M  V30 4891 H 452.823 -0.250195 1.4181 0
M  V30 4892 H 454.776 -2.95952 2.99984 0
M  V30 4893 H 453.5 -2.74051 1.77661 0
M  V30 4894 H 452.159 -1.36195 3.40362 0
M  V30 4895 H 451.807 -3.83363 3.25641 0
M  V30 4896 H 451.507 -3.23312 4.90656 0
M  V30 4897 H 453.031 -4.08841 4.53521 0
M  V30 4898 H 454.445 -1.98 5.38023 0
M  V30 4899 H 452.842 -1.34256 5.84889 0
M  V30 4900 H 453.912 -0.356722 4.83586 0
M  V30 4901 N 455.255 -1.55392 -0.262866 0
M  V30 4902 C 456.485 -1.80251 -1.00961 0
M  V30 4903 C 456.893 -0.58117 -1.80053 0
M  V30 4904 O 456.236 0.459427 -1.77862 0
M  V30 4905 C 456.298 -2.98207 -2.00781 0
M  V30 4906 C 455.962 -4.34856 -1.40533 0
M  V30 4907 C 456.959 -5.13459 -0.815853 0
M  V30 4908 C 454.644 -4.8153 -1.42948 0
M  V30 4909 C 456.638 -6.36875 -0.258562 0
M  V30 4910 C 454.325 -6.04899 -0.868334 0
M  V30 4911 C 455.323 -6.8241 -0.283884 0
M  V30 4912 O 455.011 -8.03451 0.268644 0
M  V30 4913 H 454.743 -0.604049 -0.303482 0
M  V30 4914 H 457.297 -2.03257 -0.295926 0
M  V30 4915 H 455.527 -2.70917 -2.75936 0
M  V30 4916 H 457.216 -3.10299 -2.61667 0
M  V30 4917 H 457.982 -4.78526 -0.789812 0
M  V30 4918 H 453.861 -4.21201 -1.87378 0
M  V30 4919 H 457.405 -6.97318 0.198257 0
M  V30 4920 H 453.302 -6.39312 -0.891649 0
M  V30 4921 H 454.07 -8.18346 0.158974 0
M  V30 4922 N 456.733 0.527833 -1.48498 0
M  V30 4923 C 457.961 1.30823 -1.6029 0
M  V30 4924 C 458.376 1.86945 -0.263974 0
M  V30 4925 O 457.733 1.6651 0.747034 0
M  V30 4926 C 457.784 2.45756 -2.65116 0
M  V30 4927 O 457.505 1.91946 -3.93813 0
M  V30 4928 C 459.006 3.37543 -2.87367 0
M  V30 4929 H 456.226 0.397763 -0.540394 0
M  V30 4930 H 458.77 0.636529 -1.94341 0
M  V30 4931 H 456.925 3.08806 -2.33917 0
M  V30 4932 H 457.339 2.67195 -4.51339 0
M  V30 4933 H 458.813 4.14532 -3.6451 0
M  V30 4934 H 459.29 3.92905 -1.9627 0
M  V30 4935 H 459.896 2.80283 -3.19878 0
M  V30 4936 N 458.211 1.37122 0.776871 0
M  V30 4937 C 459.451 1.33441 1.54831 0
M  V30 4938 C 459.815 -0.0818963 1.91825 0
M  V30 4939 O 461.016 -0.24338 2.67696 0
M  V30 4940 C 459.287 2.24267 2.78279 0
M  V30 4941 S 460.846 2.38389 3.68397 0
M  V30 4942 H 457.664 0.473791 0.530135 0
M  V30 4943 H 460.266 1.7282 0.913968 0
M  V30 4944 H 458.97 3.261 2.49173 0
M  V30 4945 H 458.501 1.85953 3.46677 0
M  V30 4946 H 460.516 1.59068 4.70013 0
M  V30 4947 N 459.689 -1.00246 1.21608 0
M  V30 4948 C 461.105 -1.26435 0.973975 0
M  V30 4949 C 461.305 -1.98642 -0.338143 0
M  V30 4950 O 460.361 -2.29026 -1.06317 0
M  V30 4951 C 461.674 -2.08551 2.16626 0
M  V30 4952 C 463.222 -2.21769 2.20879 0
M  V30 4953 C 463.697 -3.07267 3.39633 0
M  V30 4954 N 465.188 -3.14855 3.39736 0
M  V30 4955 C 465.923 -3.81274 4.28273 0
M  V30 4956 N 465.419 -4.497 5.27012 0
M  V30 4957 N 467.212 -3.7794 4.16074 0
M  V30 4958 H 459.363 -0.518089 2.05984 0
M  V30 4959 H 461.626 -0.291368 0.902113 0
M  V30 4960 H 461.332 -1.62847 3.11727 0
M  V30 4961 H 461.206 -3.09303 2.15897 0
M  V30 4962 H 463.593 -2.66691 1.26332 0
M  V30 4963 H 463.674 -1.20478 2.25652 0
M  V30 4964 H 463.318 -2.63047 4.34475 0
M  V30 4965 H 463.248 -4.08678 3.321 0
M  V30 4966 H 465.739 -2.66147 2.6828 0
M  V30 4967 H 466.052 -4.98092 5.90867 0
M  V30 4968 H 464.397 -4.48479 5.30935 0
M  V30 4969 H 467.588 -3.23638 3.38195 0
M  V30 4970 H 467.761 -4.29424 4.85282 0
M  V30 4971 N 461.167 -1.02423 -1.1978 0
M  V30 4972 C 462.413 -0.719051 -1.89625 0
M  V30 4973 C 462.746 0.750083 -1.7913 0
M  V30 4974 O 462.021 1.54574 -1.18056 0
M  V30 4975 C 462.304 -1.16499 -3.40735 0
M  V30 4976 C 462.157 -2.695 -3.60125 0
M  V30 4977 C 463.476 -0.742166 -4.33797 0
M  V30 4978 H 460.595 -0.26269 -0.688595 0
M  V30 4979 H 463.237 -1.27333 -1.41018 0
M  V30 4980 H 461.387 -0.69341 -3.82262 0
M  V30 4981 H 463.059 -3.24569 -3.278 0
M  V30 4982 H 461.302 -3.10113 -3.03336 0
M  V30 4983 H 461.973 -2.95757 -4.66081 0
M  V30 4984 H 464.449 -1.1477 -3.99959 0
M  V30 4985 H 463.325 -1.08213 -5.38127 0
M  V30 4986 H 463.586 0.355747 -4.40666 0
M  V30 4987 N 462.645 1.35699 -0.801477 0
M  V30 4988 C 464.061 1.52065 -0.484596 0
M  V30 4989 C 464.261 1.75215 0.995084 0
M  V30 4990 O 463.317 1.79061 1.78026 0
M  V30 4991 C 464.63 2.69908 -1.32552 0
M  V30 4992 C 466.178 2.83784 -1.32044 0
M  V30 4993 C 466.653 4.04646 -2.14536 0
M  V30 4994 N 468.144 4.11814 -2.12046 0
M  V30 4995 C 468.879 5.04437 -2.72636 0
M  V30 4996 N 468.375 6.02426 -3.42133 0
M  V30 4997 N 470.168 4.97144 -2.62305 0
M  V30 4998 H 462.319 1.18928 -1.75983 0
M  V30 4999 H 464.582 0.581455 -0.748741 0
M  V30 5000 H 464.288 2.59363 -2.37537 0
M  V30 5001 H 464.162 3.64376 -0.975181 0
M  V30 5002 H 466.549 2.93783 -0.27846 0
M  V30 5003 H 466.63 1.90188 -1.71062 0
M  V30 5004 H 466.274 3.95407 -3.18772 0
M  V30 5005 H 466.204 4.97413 -1.72882 0
M  V30 5006 H 468.695 3.41664 -1.61476 0
M  V30 5007 H 469.008 6.69688 -3.85666 0
M  V30 5008 H 467.353 6.02615 -3.46237 0
M  V30 5009 H 470.544 4.19546 -2.07603 0
M  V30 5010 H 470.717 5.69138 -3.09815 0
M  V30 5011 N 464.123 0.554532 1.47522 0
M  V30 5012 C 465.348 0.0322661 2.07375 0
M  V30 5013 C 465.773 -1.25079 1.40488 0
M  V30 5014 O 465.131 -1.74859 0.47896 0
M  V30 5015 C 465.179 -0.149397 3.6029 0
M  V30 5016 O 464.283 -1.21259 3.9417 0
M  V30 5017 H 463.624 0.0501228 0.662106 0
M  V30 5018 H 466.154 0.769452 1.8958 0
M  V30 5019 H 466.164 -0.364437 4.06369 0
M  V30 5020 H 464.839 0.787743 4.08372 0
M  V30 5021 H 463.416 -0.97825 3.5984 0
M  V30 5022 N 465.601 -1.54893 0.290851 0
M  V30 5023 C 466.849 -1.99538 -0.320756 0
M  V30 5024 C 467.17 -1.18075 -1.55188 0
M  V30 5025 O 466.44 -0.274162 -1.93972 0
M  V30 5026 H 465.02 -0.737052 -0.121507 0
M  V30 5027 H 467.682 -1.90755 0.399832 0
M  V30 5028 H 466.778 -3.06282 -0.599802 0
M  V30 5029 N 467.08 -0.0183926 -1.57589 0
M  V30 5030 C 468.491 0.521927 -1.79256 0
M  V30 5031 C 468.842 1.72885 -0.927636 0
M  V30 5032 O 467.967 2.15978 -0.135091 0
M  V30 5033 C 468.562 0.953632 -3.25102 0
M  V30 5034 C 467.121 1.43913 -3.47801 0
M  V30 5035 C 466.268 0.398837 -2.74417 0
M  V30 5036 H 469.219 -0.244485 -1.56805 0
M  V30 5037 H 469.24 1.81863 -3.34224 0
M  V30 5038 H 468.752 0.0750123 -3.88028 0
M  V30 5039 H 466.853 2.33804 -2.90115 0
M  V30 5040 H 466.966 1.45391 -4.56507 0
M  V30 5041 H 465.33 0.864572 -2.39577 0
M  V30 5042 H 466.113 -0.471132 -3.40052 0
M  V30 5043 N 468.558 1.5553 0.254621 0
M  V30 5044 C 469.783 1.81383 1.00573 0
M  V30 5045 C 470.208 0.594419 1.78461 0
M  V30 5046 O 469.566 -0.456403 1.75461 0
M  V30 5047 C 469.614 3.04892 1.92545 0
M  V30 5048 O 468.718 2.81266 3.01601 0
M  V30 5049 H 468.059 0.598969 0.286587 0
M  V30 5050 H 470.589 2.02703 0.277952 0
M  V30 5051 H 470.599 3.34119 2.34155 0
M  V30 5052 H 469.274 3.93287 1.3527 0
M  V30 5053 H 467.851 2.63185 2.64174 0
M  V30 5054 N 470.036 -0.519951 1.48776 0
M  V30 5055 C 471.283 -1.27522 1.57303 0
M  V30 5056 C 471.611 -1.92869 0.251328 0
M  V30 5057 O 470.866 -1.80372 -0.759243 0
M  V30 5058 C 471.165 -2.37864 2.6675 0
M  V30 5059 C 470.831 -1.90103 4.08867 0
M  V30 5060 C 469.493 -1.76795 4.47546 0
M  V30 5061 C 471.845 -1.54133 4.97888 0
M  V30 5062 C 469.173 -1.25868 5.73039 0
M  V30 5063 C 471.525 -1.04665 6.23881 0
M  V30 5064 C 470.189 -0.899823 6.61407 0
M  V30 5065 H 469.459 -0.466636 0.575614 0
M  V30 5066 H 472.106 -0.579109 1.82534 0
M  V30 5067 H 470.411 -3.13186 2.35418 0
M  V30 5068 H 472.108 -2.95969 2.70561 0
M  V30 5069 H 468.698 -2.01414 3.78326 0
M  V30 5070 H 472.882 -1.6327 4.68675 0
M  V30 5071 H 468.138 -1.13196 6.0083 0
M  V30 5072 H 472.312 -0.759074 6.92251 0
M  V30 5073 H 469.939 -0.503011 7.58534 0
M  V30 5074 N 471.514 -1.37532 -0.769588 0
M  V30 5075 C 472.461 -1.3347 -1.88293 0
M  V30 5076 C 473.431 -0.199891 -1.64893 0
M  V30 5077 O 474.616 -0.389594 -1.8678 0
M  V30 5078 C 471.756 -1.14968 -3.25387 0
M  V30 5079 C 470.869 -2.37698 -3.60727 0
M  V30 5080 C 470.004 -2.12051 -4.8704 0
M  V30 5081 C 469.043 -3.30636 -5.15117 0
M  V30 5082 N 468.18 -3.04527 -6.3262 0
M  V30 5083 H 473.02 -2.28658 -1.911 0
M  V30 5084 H 470.557 -1.13622 -0.934257 0
M  V30 5085 H 472.515 -1.02261 -4.04473 0
M  V30 5086 H 471.145 -0.234263 -3.21949 0
M  V30 5087 H 470.197 -2.61137 -2.76608 0
M  V30 5088 H 471.509 -3.26131 -3.77413 0
M  V30 5089 H 470.663 -1.96388 -5.74035 0
M  V30 5090 H 469.402 -1.20959 -4.72462 0
M  V30 5091 H 468.407 -3.46836 -4.26597 0
M  V30 5092 H 469.632 -4.22582 -5.31603 0
M  V30 5093 H 467.578 -2.16067 -6.19396 0
M  V30 5094 H 467.495 -3.86503 -6.49732 0
M  V30 5095 H 468.763 -2.92485 -7.22546 0
M  V30 5096 N 472.992 0.995999 -1.22138 0
M  V30 5097 C 474.217 1.77601 -1.0711 0
M  V30 5098 C 474.642 1.84339 0.374264 0
M  V30 5099 O 474 1.29359 1.27028 0
M  V30 5100 C 474.048 3.18897 -1.68336 0
M  V30 5101 O 473.152 4.01663 -0.934928 0
M  V30 5102 H 472.493 0.547011 -0.376397 0
M  V30 5103 H 475.023 1.25137 -1.6187 0
M  V30 5104 H 475.033 3.69539 -1.72931 0
M  V30 5105 H 473.708 3.13308 -2.73516 0
M  V30 5106 H 472.285 3.60204 -0.964751 0
M  V30 5107 N 474.47 1.03057 1.19235 0
M  V30 5108 C 475.716 0.729098 1.89241 0
M  V30 5109 C 476.049 -0.740573 1.79525 0
M  V30 5110 O 475.324 -1.53946 1.18874 0
M  V30 5111 C 475.607 1.18304 3.40112 0
M  V30 5112 C 475.46 2.71406 3.5869 0
M  V30 5113 C 476.779 0.765161 4.33397 0
M  V30 5114 H 473.898 0.266338 0.687192 0
M  V30 5115 H 476.54 1.28079 1.40341 0
M  V30 5116 H 474.69 0.713672 3.81889 0
M  V30 5117 H 476.362 3.26303 3.26074 0
M  V30 5118 H 474.605 3.11717 3.01687 0
M  V30 5119 H 475.276 2.98225 4.64506 0
M  V30 5120 H 477.752 1.16889 3.99345 0
M  V30 5121 H 476.628 1.11065 5.37546 0
M  V30 5122 H 476.889 -0.332372 4.40849 0
M  V30 5123 N 475.948 -1.35272 0.808662 0
M  V30 5124 C 476.896 -2.31663 0.208606 0
M  V30 5125 C 477.89 -1.56731 -0.642778 0
M  V30 5126 O 479.096 -1.71843 -0.53571 0
M  V30 5127 H 475.471 -0.750421 0.0486993 0
M  V30 5128 H 477.442 -2.79814 1.03666 0
M  V30 5129 C 476.191 -3.42008 -0.626573 0
M  V30 5130 H 475.514 -3.99795 0.0192103 0
M  V30 5131 H 476.954 -4.11727 -1.01278 0
M  V30 5132 C 475.413 -2.85226 -1.79298 0
M  V30 5133 O 475.943 -2.78945 -2.89055 0
M  V30 5134 N 474.149 -2.42245 -1.60516 0
M  V30 5135 H 473.696 -2.47554 -0.712375 0
M  V30 5136 H 473.654 -2.04603 -2.38715 0
M  V30 5137 N 477.426 -0.562348 -1.47226 0
M  V30 5138 C 478.654 -0.0452275 -2.06851 0
M  V30 5139 C 479.069 1.25078 -1.41424 0
M  V30 5140 O 478.426 1.75156 -0.512513 0
M  V30 5141 C 478.477 0.148674 -3.61194 0
M  V30 5142 O 478.198 -1.09602 -4.24169 0
M  V30 5143 C 479.699 0.702488 -4.37699 0
M  V30 5144 H 476.919 -0.0481775 -0.669268 0
M  V30 5145 H 479.463 -0.777223 -1.89155 0
M  V30 5146 H 477.618 0.830817 -3.78386 0
M  V30 5147 H 478.032 -0.896982 -5.16773 0
M  V30 5148 H 479.506 0.78743 -5.46355 0
M  V30 5149 H 479.983 1.71493 -4.04335 0
M  V30 5150 H 480.589 0.0558772 -4.25263 0
M  V30 5151 N 478.904 1.54736 -0.299062 0
M  V30 5152 C 480.129 2.04975 0.316254 0
M  V30 5153 C 480.554 1.17501 1.46885 0
M  V30 5154 O 479.912 0.178678 1.80417 0
M  V30 5155 C 479.96 3.52672 0.751997 0
M  V30 5156 O 479.064 3.68226 1.85697 0
M  V30 5157 H 478.405 0.661126 0.0617175 0
M  V30 5158 H 480.935 1.99805 -0.440341 0
M  V30 5159 H 480.945 3.94488 1.04133 0
M  V30 5160 H 479.62 4.158 -0.0911482 0
M  V30 5161 H 478.197 3.38316 1.56834 0
M  V30 5162 N 480.382 0.0267497 1.57577 0
M  V30 5163 C 481.628 -0.653371 1.91987 0
M  V30 5164 C 481.961 -1.71915 0.903263 0
M  V30 5165 O 481.236 -1.94358 -0.0743387 0
M  V30 5166 C 481.519 -1.272 3.36886 0
M  V30 5167 C 481.372 -0.215938 4.49281 0
M  V30 5168 C 482.691 -2.19069 3.81703 0
M  V30 5169 H 479.81 -0.236047 0.698177 0
M  V30 5170 H 482.452 0.0835236 1.89816 0
M  V30 5171 H 480.602 -1.90005 3.38866 0
M  V30 5172 H 482.274 0.41449 4.59434 0
M  V30 5173 H 480.517 0.458855 4.31366 0
M  V30 5174 H 481.188 -0.688347 5.47691 0
M  V30 5175 H 483.664 -1.66253 3.81444 0
M  V30 5176 H 482.54 -2.59307 4.83788 0
M  V30 5177 H 482.801 -3.08087 3.17072 0
M  V30 5178 N 481.861 -1.55662 -0.24637 0
M  V30 5179 C 482.811 -1.86753 -1.30795 0
M  V30 5180 C 483.795 -0.728445 -1.43466 0
M  V30 5181 O 484.987 -0.99038 -1.46699 0
M  V30 5182 C 482.116 -2.16618 -2.66329 0
M  V30 5183 C 481.202 -3.36855 -2.57661 0
M  V30 5184 N 481.593 -4.56111 -2.18624 0
M  V30 5185 C 479.891 -3.39976 -2.88673 0
M  V30 5186 C 480.592 -5.38247 -2.20601 0
M  V30 5187 N 479.568 -4.77322 -2.60124 0
M  V30 5188 H 483.37 -2.76486 -0.996642 0
M  V30 5189 H 480.884 -1.55896 -0.454994 0
M  V30 5190 H 482.881 -2.37057 -3.42942 0
M  V30 5191 H 481.541 -1.28185 -2.98327 0
M  V30 5192 H 482.552 -4.81726 -1.9016 0
M  V30 5193 H 479.229 -2.61815 -3.25206 0
M  V30 5194 H 480.619 -6.43657 -1.92756 0
M  V30 5195 N 483.339 0.512053 -1.4905 0
M  V30 5196 C 484.588 1.26343 -1.57227 0
M  V30 5197 C 484.901 1.93876 -0.259155 0
M  V30 5198 O 486.107 2.70612 -0.219358 0
M  V30 5199 C 484.563 2.29343 -2.77362 0
M  V30 5200 C 484.171 1.67799 -4.15388 0
M  V30 5201 C 485.915 3.05378 -2.94864 0
M  V30 5202 C 483.822 2.68845 -5.2676 0
M  V30 5203 H 482.752 0.475231 -0.585382 0
M  V30 5204 H 485.403 0.53862 -1.75417 0
M  V30 5205 H 483.785 3.04938 -2.52643 0
M  V30 5206 H 484.959 0.982715 -4.50199 0
M  V30 5207 H 483.274 1.04194 -4.03153 0
M  V30 5208 H 485.871 3.80921 -3.75238 0
M  V30 5209 H 486.214 3.62327 -2.05 0
M  V30 5210 H 486.747 2.36898 -3.19569 0
M  V30 5211 H 483.486 2.16692 -6.18647 0
M  V30 5212 H 483.006 3.36647 -4.96416 0
M  V30 5213 H 484.685 3.31487 -5.5563 0
M  V30 5214 N 484.817 1.37938 0.762283 0
M  V30 5215 C 486.047 1.36685 1.54922 0
M  V30 5216 C 486.455 -0.0474099 1.89141 0
M  V30 5217 O 485.798 -1.02213 1.52638 0
M  V30 5218 C 485.86 2.14963 2.88152 0
M  V30 5219 C 485.524 3.6385 2.76518 0
M  V30 5220 C 486.521 4.57531 2.46904 0
M  V30 5221 C 484.206 4.07095 2.94243 0
M  V30 5222 C 486.2 5.92436 2.35156 0
M  V30 5223 C 483.887 5.42083 2.82116 0
M  V30 5224 C 484.885 6.34567 2.52614 0
M  V30 5225 O 484.573 7.67073 2.40529 0
M  V30 5226 H 484.305 0.469586 0.486276 0
M  V30 5227 H 486.859 1.82012 0.951876 0
M  V30 5228 H 485.089 1.6434 3.50042 0
M  V30 5229 H 486.778 2.06224 3.49609 0
M  V30 5230 H 487.544 4.25428 2.32886 0
M  V30 5231 H 483.423 3.35462 3.16206 0
M  V30 5232 H 486.967 6.64591 2.12049 0
M  V30 5233 H 482.864 5.73785 2.95704 0
M  V30 5234 H 483.632 7.77499 2.55807 0
M  V30 5235 N 486.295 -0.989507 1.22664 0
M  V30 5236 C 487.572 -1.70326 0.961688 0
M  V30 5237 C 487.952 -2.04537 -0.522279 0
M  V30 5238 O 487.3 -1.73136 -1.49118 0
M  V30 5239 C 487.51 -2.95135 1.86269 0
M  V30 5240 C 488.858 -3.67842 2.12078 0
M  V30 5241 O 489.882 -3.0515 1.83745 0
M  V30 5242 O 488.741 -4.80644 2.60083 0
M  V30 5243 H 485.835 -0.743589 0.361946 0
M  V30 5244 H 488.381 -1.04555 1.33665 0
M  V30 5245 H 487.153 -2.66382 2.8663 0
M  V30 5246 H 486.776 -3.68645 1.48952 0
M  V30 5247 N 487.773 -1.03688 -1.18687 0
M  V30 5248 C 488.72 -0.624624 -2.22187 0
M  V30 5249 C 489.69 0.365636 -1.62026 0
M  V30 5250 O 490.875 0.260481 -1.89014 0
M  V30 5251 C 488.015 0.0101738 -3.45099 0
M  V30 5252 C 487.128 -1.02709 -4.19613 0
M  V30 5253 C 486.263 -0.361213 -5.2997 0
M  V30 5254 C 485.302 -1.38384 -5.96252 0
M  V30 5255 N 484.439 -0.743196 -6.98155 0
M  V30 5256 H 489.279 -1.51176 -2.56807 0
M  V30 5257 H 486.816 -0.75636 -1.26165 0
M  V30 5258 H 488.774 0.395528 -4.15321 0
M  V30 5259 H 487.404 0.860848 -3.1111 0
M  V30 5260 H 486.456 -1.53043 -3.48256 0
M  V30 5261 H 487.768 -1.80398 -4.65036 0
M  V30 5262 H 486.922 0.0785537 -6.06649 0
M  V30 5263 H 485.661 0.447799 -4.8564 0
M  V30 5264 H 484.666 -1.83378 -5.18317 0
M  V30 5265 H 485.891 -2.19448 -6.42666 0
M  V30 5266 H 483.837 0.0455789 -6.55984 0
M  V30 5267 H 483.754 -1.45784 -7.41811 0
M  V30 5268 H 485.022 -0.327698 -7.78811 0
M  V30 5269 N 489.251 1.34841 -0.815825 0
M  V30 5270 C 490.214 2.27959 -0.238185 0
M  V30 5271 C 491.214 1.49983 0.579816 0
M  V30 5272 O 492.404 1.69617 0.396953 0
M  V30 5273 C 489.536 3.34314 0.666876 0
M  V30 5274 H 490.729 2.80558 -1.05958 0
M  V30 5275 H 488.282 1.44852 -0.587156 0
M  V30 5276 H 489.017 2.86916 1.5116 0
M  V30 5277 H 488.802 3.92014 0.0819106 0
M  V30 5278 H 490.292 4.0379 1.06506 0
M  V30 5279 N 490.729 0.570148 1.46925 0
M  V30 5280 C 491.976 0.0509529 2.02436 0
M  V30 5281 C 492.304 -1.30405 1.44308 0
M  V30 5282 O 491.559 -1.86493 0.593198 0
M  V30 5283 C 491.858 -0.0780336 3.57315 0
M  V30 5284 C 491.524 1.20775 4.34424 0
M  V30 5285 C 490.186 1.56004 4.5521 0
M  V30 5286 C 492.538 2.0592 4.78797 0
M  V30 5287 C 489.866 2.76201 5.17619 0
M  V30 5288 C 492.218 3.25332 5.42533 0
M  V30 5289 C 490.882 3.60859 5.61549 0
M  V30 5290 H 490.152 0.018645 0.740765 0
M  V30 5291 H 492.799 0.744262 1.76445 0
M  V30 5292 H 491.104 -0.854394 3.82371 0
M  V30 5293 H 492.801 -0.495312 3.97929 0
M  V30 5294 H 489.391 0.923469 4.18533 0
M  V30 5295 H 493.575 1.80008 4.62505 0
M  V30 5296 H 488.831 3.0388 5.30535 0
M  V30 5297 H 493.005 3.91586 5.75876 0
M  V30 5298 H 490.632 4.54088 6.09678 0
M  V30 5299 N 492.207 -1.54576 0.307264 0
M  V30 5300 C 493.456 -1.99442 -0.300976 0
M  V30 5301 C 493.769 -1.19928 -1.5452 0
M  V30 5302 O 494.975 -1.55092 -2.22842 0
M  V30 5303 C 493.431 -3.55084 -0.586809 0
M  V30 5304 C 493.039 -4.43413 0.639438 0
M  V30 5305 C 494.783 -4.0846 -1.1559 0
M  V30 5306 C 492.69 -5.90499 0.326411 0
M  V30 5307 H 491.62 -0.744986 -0.116238 0
M  V30 5308 H 494.271 -1.787 0.416947 0
M  V30 5309 H 492.653 -3.71749 -1.36449 0
M  V30 5310 H 493.827 -4.38522 1.41545 0
M  V30 5311 H 492.142 -4.00842 1.1276 0
M  V30 5312 H 494.739 -5.15926 -1.40445 0
M  V30 5313 H 495.082 -3.59443 -2.10015 0
M  V30 5314 H 495.615 -3.95362 -0.439778 0
M  V30 5315 H 492.354 -6.43676 1.23939 0
M  V30 5316 H 491.874 -5.98382 -0.412212 0
M  V30 5317 H 493.553 -6.46962 -0.0697393 0
M  V30 5318 N 493.685 -0.035106 -1.57561 0
M  V30 5319 C 494.913 0.652258 -1.9635 0
M  V30 5320 C 495.328 1.65317 -0.911897 0
M  V30 5321 O 494.685 1.82194 0.105657 0
M  V30 5322 C 494.736 1.35337 -3.35211 0
M  V30 5323 O 494.457 0.392548 -4.36338 0
M  V30 5324 C 495.958 2.13199 -3.88666 0
M  V30 5325 H 493.178 0.179444 -0.646561 0
M  V30 5326 H 495.722 -0.0966459 -2.04271 0
M  V30 5327 H 493.877 2.05362 -3.28489 0
M  V30 5328 H 494.291 0.891097 -5.16875 0
M  V30 5329 H 495.765 2.577 -4.88154 0
M  V30 5330 H 496.242 2.97353 -3.23231 0
M  V30 5331 H 496.848 1.48118 -3.98674 0
M  V30 5332 N 495.163 1.55791 0.238111 0
M  V30 5333 C 496.409 1.78297 0.966337 0
M  V30 5334 C 496.742 0.601903 1.84637 0
M  V30 5335 O 496.017 -0.399499 1.90353 0
M  V30 5336 C 496.3 3.10758 1.81939 0
M  V30 5337 C 496.153 4.39283 0.966958 0
M  V30 5338 C 497.472 3.39519 2.80027 0
M  V30 5339 H 494.591 0.648654 0.349882 0
M  V30 5340 H 497.233 1.88525 0.236253 0
M  V30 5341 H 495.383 3.02168 2.44185 0
M  V30 5342 H 497.055 4.59873 0.362514 0
M  V30 5343 H 495.298 4.32948 0.271669 0
M  V30 5344 H 495.969 5.28368 1.59784 0
M  V30 5345 H 498.445 3.48128 2.27917 0
M  V30 5346 H 497.321 4.33402 3.36829 0
M  V30 5347 H 497.582 2.60864 3.56934 0
M  V30 5348 N 496.642 -0.504142 1.49319 0
M  V30 5349 C 497.589 -1.60603 1.65756 0
M  V30 5350 C 498.559 -1.58425 0.499082 0
M  V30 5351 O 499.744 -1.76459 0.725728 0
M  V30 5352 C 496.884 -2.98764 1.72726 0
M  V30 5353 C 495.997 -3.10982 2.99857 0
M  V30 5354 C 495.132 -4.39857 2.97824 0
M  V30 5355 C 494.171 -4.45697 4.19548 0
M  V30 5356 N 493.308 -5.65995 4.15444 0
M  V30 5357 H 498.148 -1.45895 2.59843 0
M  V30 5358 H 495.685 -0.709891 1.28837 0
M  V30 5359 H 497.643 -3.78839 1.74747 0
M  V30 5360 H 496.273 -3.12183 0.821075 0
M  V30 5361 H 495.325 -2.23991 3.07461 0
M  V30 5362 H 496.637 -3.11157 3.89849 0
M  V30 5363 H 495.791 -5.2825 2.98391 0
M  V30 5364 H 494.53 -4.42242 2.05604 0
M  V30 5365 H 493.535 -3.55707 4.19229 0
M  V30 5366 H 494.76 -4.4503 5.12957 0
M  V30 5367 H 492.706 -5.69229 3.26059 0
M  V30 5368 H 492.623 -5.67773 4.99169 0
M  V30 5369 H 493.891 -6.56604 4.20109 0
M  V30 5370 N 498.12 -1.38341 -0.754957 0
M  V30 5371 C 499.07 -1.31964 -1.85929 0
M  V30 5372 C 500.054 -0.204181 -1.59599 0
M  V30 5373 O 501.246 -0.440036 -1.71443 0
M  V30 5374 C 498.375 -1.14565 -3.2362 0
M  V30 5375 C 497.461 -2.30727 -3.55846 0
M  V30 5376 N 497.852 -3.56165 -3.59138 0
M  V30 5377 C 496.15 -2.23249 -3.86104 0
M  V30 5378 C 496.851 -4.32865 -3.88591 0
M  V30 5379 N 495.827 -3.62203 -4.05351 0
M  V30 5380 H 499.629 -2.2694 -1.8675 0
M  V30 5381 H 497.143 -1.31553 -0.952243 0
M  V30 5382 H 499.14 -1.0808 -4.02647 0
M  V30 5383 H 497.8 -0.205212 -3.24051 0
M  V30 5384 H 498.811 -3.89854 -3.40932 0
M  V30 5385 H 495.488 -1.37357 -3.94258 0
M  V30 5386 H 496.878 -5.41504 -3.97773 0
M  V30 5387 N 499.598 0.982988 -1.23187 0
M  V30 5388 C 501.014 1.2487 -0.993967 0
M  V30 5389 C 501.214 1.99155 0.306498 0
M  V30 5390 O 500.27 2.30688 1.0266 0
M  V30 5391 C 501.583 2.05078 -2.19917 0
M  V30 5392 C 503.131 2.18227 -2.2438 0
M  V30 5393 C 503.606 3.01825 -3.44479 0
M  V30 5394 N 505.097 3.09411 -3.44702 0
M  V30 5395 C 505.832 3.74412 -4.34285 0
M  V30 5396 N 505.328 4.41259 -5.341 0
M  V30 5397 N 507.121 3.71273 -4.22035 0
M  V30 5398 H 499.272 0.485253 -2.06783 0
M  V30 5399 H 501.535 0.276979 -0.906635 0
M  V30 5400 H 501.241 1.57867 -3.14279 0
M  V30 5401 H 501.115 3.05829 -2.2079 0
M  V30 5402 H 503.502 2.64648 -1.30559 0
M  V30 5403 H 503.583 1.16873 -2.2754 0
M  V30 5404 H 503.227 2.56102 -4.38605 0
M  V30 5405 H 503.157 4.03342 -3.38559 0
M  V30 5406 H 505.648 2.61845 -2.7248 0
M  V30 5407 H 505.961 4.88629 -5.98717 0
M  V30 5408 H 504.306 4.39975 -5.38002 0
M  V30 5409 H 507.497 3.18217 -3.43301 0
M  V30 5410 H 507.67 4.21649 -4.92053 0
M  V30 5411 N 501.076 1.04316 1.18135 0
M  V30 5412 C 502.023 0.636398 2.21853 0
M  V30 5413 C 502.993 -0.357039 1.62217 0
M  V30 5414 O 504.178 -0.250453 1.89149 0
M  V30 5415 C 501.318 0.00812779 3.45099 0
M  V30 5416 C 500.431 1.04933 4.19062 0
M  V30 5417 C 499.566 0.389313 5.29771 0
M  V30 5418 C 498.605 1.41544 5.9551 0
M  V30 5419 N 497.742 0.78021 6.97751 0
M  V30 5420 H 502.582 1.52536 2.56002 0
M  V30 5421 H 500.119 0.76304 1.25762 0
M  V30 5422 H 502.077 -0.373497 4.15525 0
M  V30 5423 H 500.707 -0.844336 3.11562 0
M  V30 5424 H 499.759 1.54888 3.47439 0
M  V30 5425 H 501.071 1.82862 4.64072 0
M  V30 5426 H 500.225 -0.0463805 6.06682 0
M  V30 5427 H 498.964 -0.422038 4.8587 0
M  V30 5428 H 497.969 1.86124 5.17337 0
M  V30 5429 H 499.194 2.22854 6.41493 0
M  V30 5430 H 497.14 -0.0107899 6.55999 0
M  V30 5431 H 497.057 1.49716 7.41027 0
M  V30 5432 H 498.325 0.368996 7.78626 0
M  V30 5433 N 502.554 -1.34406 0.822964 0
M  V30 5434 C 503.486 -2.28305 0.202375 0
M  V30 5435 C 504.499 -1.5103 -0.60777 0
M  V30 5436 O 505.688 -1.73057 -0.437444 0
M  V30 5437 C 502.788 -3.30836 -0.734911 0
M  V30 5438 C 501.961 -4.37388 0.0324177 0
M  V30 5439 C 501.02 -5.1968 -0.825803 0
M  V30 5440 O 500.046 -5.68556 -0.270771 0
M  V30 5441 N 501.248 -5.39393 -2.14558 0
M  V30 5442 H 504.013 -2.82201 1.00909 0
M  V30 5443 H 501.574 -1.4693 0.67993 0
M  V30 5444 H 503.566 -3.82786 -1.31365 0
M  V30 5445 H 502.136 -2.77334 -1.44238 0
M  V30 5446 H 501.356 -3.86152 0.792469 0
M  V30 5447 H 502.644 -5.05702 0.560633 0
M  V30 5448 H 502.042 -5.01357 -2.62025 0
M  V30 5449 H 500.599 -5.94461 -2.67318 0
M  V30 5450 N 504.032 -0.577932 -1.46621 0
M  V30 5451 C 504.964 0.195801 -2.28362 0
M  V30 5452 C 505.977 0.859983 -1.38232 0
M  V30 5453 O 507.166 0.730349 -1.62875 0
M  V30 5454 C 504.266 1.29639 -3.13124 0
M  V30 5455 C 503.439 0.725049 -4.31349 0
M  V30 5456 C 502.498 1.71274 -4.97546 0
M  V30 5457 O 501.524 1.25067 -5.5529 0
M  V30 5458 N 502.726 3.04672 -4.94121 0
M  V30 5459 H 505.491 -0.505468 -2.95407 0
M  V30 5460 H 503.052 -0.415381 -1.56481 0
M  V30 5461 H 505.044 1.95631 -3.54275 0
M  V30 5462 H 503.614 1.90059 -2.48186 0
M  V30 5463 H 502.834 -0.112205 -3.9404 0
M  V30 5464 H 504.122 0.323034 -5.07774 0
M  V30 5465 H 503.52 3.4484 -4.48444 0
M  V30 5466 H 502.077 3.66166 -5.39227 0
M  V30 5467 N 505.51 1.54411 -0.315457 0
M  V30 5468 C 506.756 2.00716 0.289972 0
M  V30 5469 C 507.089 1.2034 1.5242 0
M  V30 5470 O 506.364 0.283579 1.92422 0
M  V30 5471 C 506.647 3.54507 0.632196 0
M  V30 5472 C 506.5 4.45615 -0.61218 0
M  V30 5473 C 507.819 4.15421 1.45305 0
M  V30 5474 H 504.938 0.729637 0.10392 0
M  V30 5475 H 507.58 1.8506 -0.430427 0
M  V30 5476 H 505.73 3.67979 1.24595 0
M  V30 5477 H 507.402 4.44026 -1.25053 0
M  V30 5478 H 505.645 4.15621 -1.24264 0
M  V30 5479 H 506.316 5.51022 -0.328379 0
M  V30 5480 H 508.792 4.05474 0.934331 0
M  V30 5481 H 507.668 5.23157 1.66127 0
M  V30 5482 H 507.929 3.68223 2.44671 0
M  V30 5483 N 506.988 0.0434614 1.5754 0
M  V30 5484 C 507.918 -0.931651 2.14109 0
M  V30 5485 C 508.899 -1.32971 1.06079 0
M  V30 5486 O 510.084 -1.40579 1.33982 0
M  V30 5487 C 507.214 -2.20914 2.67982 0
M  V30 5488 C 506.168 -1.95139 3.80926 0
M  V30 5489 C 505.494 -3.29276 4.21285 0
M  V30 5490 C 506.794 -1.27913 5.06395 0
M  V30 5491 H 508.488 -0.460497 2.95837 0
M  V30 5492 H 506.034 -0.220058 1.42309 0
M  V30 5493 H 507.987 -2.89522 3.06194 0
M  V30 5494 H 506.711 -2.70221 1.83434 0
M  V30 5495 H 505.37 -1.28945 3.43175 0
M  V30 5496 H 505.018 -3.76369 3.33699 0
M  V30 5497 H 504.718 -3.12831 4.97404 0
M  V30 5498 H 506.242 -3.99129 4.62091 0
M  V30 5499 H 507.656 -1.86544 5.42102 0
M  V30 5500 H 506.053 -1.2182 5.87605 0
M  V30 5501 H 507.123 -0.254066 4.84234 0
M  V30 5502 N 508.466 -1.55915 -0.229846 0
M  V30 5503 C 509.376 -1.94891 -1.30593 0
M  V30 5504 C 510.392 -0.851604 -1.51736 0
M  V30 5505 O 511.568 -1.15447 -1.65027 0
M  V30 5506 C 508.633 -2.25052 -2.63728 0
M  V30 5507 C 507.694 -3.48306 -2.5096 0
M  V30 5508 C 506.927 -3.77019 -3.77747 0
M  V30 5509 O 507.15 -3.07534 -4.80395 0
M  V30 5510 O 506.084 -4.70523 -3.75356 0
M  V30 5511 H 509.91 -2.86581 -1.00525 0
M  V30 5512 H 507.495 -1.43017 -0.432025 0
M  V30 5513 H 509.377 -2.45682 -3.42372 0
M  V30 5514 H 508.052 -1.36538 -2.93495 0
M  V30 5515 H 506.959 -3.32964 -1.70546 0
M  V30 5516 H 508.292 -4.37177 -2.26136 0
M  V30 5517 N 509.944 0.496216 -1.49584 0
M  V30 5518 C 511.172 1.27394 -1.63029 0
M  V30 5519 C 511.587 1.86344 -0.303569 0
M  V30 5520 O 510.944 1.68057 0.711547 0
M  V30 5521 C 510.995 2.40077 -2.70269 0
M  V30 5522 O 510.716 1.83549 -3.97796 0
M  V30 5523 C 512.217 3.31372 -2.94462 0
M  V30 5524 H 509.437 0.386211 -0.54871 0
M  V30 5525 H 511.981 0.595163 -1.95648 0
M  V30 5526 H 510.136 3.03775 -2.40415 0
M  V30 5527 H 510.55 2.57561 -4.56905 0
M  V30 5528 H 512.024 4.06707 -3.73221 0
M  V30 5529 H 512.501 3.88654 -2.0456 0
M  V30 5530 H 513.107 2.73435 -3.25751 0
M  V30 5531 N 511.423 1.38739 0.74761 0
M  V30 5532 C 512.669 1.35475 1.50912 0
M  V30 5533 C 513.002 -0.0533093 1.94127 0
M  V30 5534 O 512.277 -1.01572 1.65871 0
M  V30 5535 C 512.56 2.31582 2.75757 0
M  V30 5536 C 512.413 3.81274 2.38642 0
M  V30 5537 C 513.732 2.25722 3.77806 0
M  V30 5538 H 510.851 0.493427 0.547447 0
M  V30 5539 H 513.493 1.69634 0.855823 0
M  V30 5540 H 511.643 2.02582 3.31501 0
M  V30 5541 H 513.315 4.20972 1.88626 0
M  V30 5542 H 511.558 3.98664 1.71025 0
M  V30 5543 H 512.229 4.4399 3.27989 0
M  V30 5544 H 514.705 2.51336 3.31616 0
M  V30 5545 H 513.581 2.95069 4.62845 0
M  V30 5546 H 513.842 1.25803 4.23823 0
M  V30 5547 N 512.901 -0.976442 1.23707 0
M  V30 5548 C 513.864 -2.0511 1.02287 0
M  V30 5549 C 514.864 -1.60791 -0.0167195 0
M  V30 5550 O 516.054 -1.72761 0.223408 0
M  V30 5551 C 513.186 -3.36458 0.548507 0
M  V30 5552 H 514.379 -2.25545 1.9766 0
M  V30 5553 H 511.932 -1.15042 1.05806 0
M  V30 5554 H 512.667 -3.21713 -0.408818 0
M  V30 5555 H 512.452 -3.69967 1.29874 0
M  V30 5556 H 513.942 -4.15489 0.419406 0
M  V30 5557 N 514.379 -1.04941 -1.1758 0
M  V30 5558 C 515.627 -0.756492 -1.87408 0
M  V30 5559 C 515.948 0.718478 -1.81281 0
M  V30 5560 O 515.218 1.519 -1.23706 0
M  V30 5561 H 513.798 -0.276841 -0.693807 0
M  V30 5562 H 516.46 -1.32803 -1.42652 0
M  V30 5563 H 515.556 -1.06918 -2.93215 0
M  V30 5564 N 515.857 1.33968 -0.830081 0
M  V30 5565 C 516.804 2.29387 -0.255008 0
M  V30 5566 C 517.774 1.53923 0.624243 0
M  V30 5567 O 518.959 1.82262 0.564372 0
M  V30 5568 C 516.099 3.4034 0.571209 0
M  V30 5569 C 515.212 4.30729 -0.331083 0
M  V30 5570 C 514.347 5.2879 0.505389 0
M  V30 5571 C 513.386 6.10819 -0.395843 0
M  V30 5572 N 512.523 7.00948 0.401979 0
M  V30 5573 H 517.363 2.77972 -1.07404 0
M  V30 5574 H 514.9 1.36785 -0.541133 0
M  V30 5575 H 516.858 4.03361 1.06562 0
M  V30 5576 H 515.488 2.9297 1.35529 0
M  V30 5577 H 514.54 3.68507 -0.943759 0
M  V30 5578 H 515.852 4.88181 -1.02377 0
M  V30 5579 H 515.006 5.97297 1.06399 0
M  V30 5580 H 513.745 4.71894 1.23155 0
M  V30 5581 H 512.75 5.41238 -0.966529 0
M  V30 5582 H 513.975 6.69797 -1.12023 0
M  V30 5583 H 511.921 6.46512 1.11168 0
M  V30 5584 H 511.838 7.55643 -0.232167 0
M  V30 5585 H 513.106 7.73774 0.943102 0
M  V30 5586 N 517.335 0.585699 1.46312 0
M  V30 5587 C 518.751 0.247607 1.57668 0
M  V30 5588 C 518.951 -1.25007 1.58037 0
M  V30 5589 O 518.007 -2.03196 1.49893 0
M  V30 5590 C 519.32 0.899456 2.86933 0
M  V30 5591 C 520.868 0.873326 3.00569 0
M  V30 5592 C 521.343 1.50477 4.32574 0
M  V30 5593 N 522.834 1.46925 4.3928 0
M  V30 5594 C 523.569 1.92719 5.40044 0
M  V30 5595 N 523.065 2.46499 6.47464 0
M  V30 5596 N 524.858 1.83617 5.31264 0
M  V30 5597 H 517.009 1.55841 1.44317 0
M  V30 5598 H 519.272 0.651564 0.688599 0
M  V30 5599 H 518.978 1.95313 2.92482 0
M  V30 5600 H 518.852 0.409476 3.74971 0
M  V30 5601 H 521.239 -0.171736 2.946 0
M  V30 5602 H 521.32 1.40136 2.13999 0
M  V30 5603 H 520.964 2.54905 4.39302 0
M  V30 5604 H 520.894 0.951944 5.17924 0
M  V30 5605 H 523.385 1.07616 3.62253 0
M  V30 5606 H 523.698 2.79291 7.20567 0
M  V30 5607 H 522.043 2.50526 6.48276 0
M  V30 5608 H 525.234 1.41358 4.46246 0
M  V30 5609 H 525.407 2.19622 6.09648 0
M  V30 5610 N 518.813 -1.54241 0.323641 0
M  V30 5611 C 520.038 -2.05452 -0.283605 0
M  V30 5612 C 520.463 -1.19823 -1.44997 0
M  V30 5613 O 519.821 -0.207358 -1.8011 0
M  V30 5614 C 519.869 -3.53823 -0.695795 0
M  V30 5615 O 518.973 -3.71134 -1.79815 0
M  V30 5616 H 518.314 -0.662024 -0.0511917 0
M  V30 5617 H 520.844 -1.99079 0.472073 0
M  V30 5618 H 520.854 -3.96094 -0.978434 0
M  V30 5619 H 519.529 -4.15602 0.157287 0
M  V30 5620 H 518.106 -3.40768 -1.51431 0
M  V30 5621 N 520.291 -0.0518155 -1.57515 0
M  V30 5622 C 521.521 0.63048 -1.96745 0
M  V30 5623 C 521.929 1.64875 -0.928054 0
M  V30 5624 O 521.272 1.83449 0.0960678 0
M  V30 5625 C 521.334 1.37381 -3.32215 0
M  V30 5626 C 520.998 0.511298 -4.54131 0
M  V30 5627 C 521.995 -0.222884 -5.19422 0
M  V30 5628 C 519.68 0.442035 -5.00351 0
M  V30 5629 C 521.674 -1.01476 -6.2927 0
M  V30 5630 C 519.361 -0.35353 -6.10077 0
M  V30 5631 C 520.359 -1.08062 -6.74397 0
M  V30 5632 O 520.047 -1.8631 -7.82013 0
M  V30 5633 H 519.779 0.177126 -0.652382 0
M  V30 5634 H 522.333 -0.114726 -2.05079 0
M  V30 5635 H 520.563 2.16466 -3.20436 0
M  V30 5636 H 522.252 1.9464 -3.56188 0
M  V30 5637 H 523.018 -0.178846 -4.8467 0
M  V30 5638 H 518.897 0.997562 -4.50077 0
M  V30 5639 H 522.441 -1.58279 -6.79407 0
M  V30 5640 H 518.338 -0.399205 -6.44264 0
M  V30 5641 H 519.106 -1.78528 -7.98793 0
M  V30 5642 N 521.769 1.56035 0.221574 0
M  V30 5643 C 523.185 1.49026 0.571271 0
M  V30 5644 C 523.385 0.746912 1.87146 0
M  V30 5645 O 522.441 0.286566 2.50869 0
M  V30 5646 C 523.754 2.93579 0.650522 0
M  V30 5647 C 525.302 3.04099 0.741151 0
M  V30 5648 C 525.777 4.5001 0.851747 0
M  V30 5649 N 527.268 4.54053 0.915968 0
M  V30 5650 C 528.003 5.64232 1.02125 0
M  V30 5651 N 527.499 6.84164 1.09049 0
M  V30 5652 N 529.292 5.52084 1.05639 0
M  V30 5653 H 521.443 2.02791 -0.63162 0
M  V30 5654 H 523.706 0.921736 -0.221602 0
M  V30 5655 H 523.412 3.50912 -0.235253 0
M  V30 5656 H 523.286 3.45476 1.51413 0
M  V30 5657 H 525.673 2.4683 1.61737 0
M  V30 5658 H 525.754 2.55371 -0.148128 0
M  V30 5659 H 525.398 5.07896 -0.0200117 0
M  V30 5660 H 525.328 4.96444 1.75644 0
M  V30 5661 H 527.819 3.67683 0.872782 0
M  V30 5662 H 528.132 7.63883 1.1706 0
M  V30 5663 H 526.477 6.86875 1.05962 0
M  V30 5664 H 529.668 4.57317 0.998953 0
M  V30 5665 H 529.841 6.37983 1.13498 0
M  V30 5666 N 523.247 -0.488276 1.49845 0
M  V30 5667 C 524.177 -1.59675 1.70371 0
M  V30 5668 C 525.158 -1.60878 0.552473 0
M  V30 5669 O 526.343 -1.77417 0.78973 0
M  V30 5670 C 523.473 -2.98098 1.782 0
M  V30 5671 C 522.427 -3.11761 2.93239 0
M  V30 5672 C 521.753 -4.51661 2.86193 0
M  V30 5673 C 523.053 -2.90589 4.33999 0
M  V30 5674 H 524.747 -1.42752 2.63177 0
M  V30 5675 H 522.293 -0.685317 1.26647 0
M  V30 5676 H 524.246 -3.75555 1.91144 0
M  V30 5677 H 522.97 -3.16138 0.820018 0
M  V30 5678 H 521.629 -2.36732 2.79917 0
M  V30 5679 H 521.277 -4.66595 1.87877 0
M  V30 5680 H 520.977 -4.61742 3.63412 0
M  V30 5681 H 522.501 -5.31162 3.01163 0
M  V30 5682 H 523.915 -3.57807 4.47936 0
M  V30 5683 H 522.312 -3.1213 5.12538 0
M  V30 5684 H 523.382 -1.86595 4.4756 0
M  V30 5685 N 524.725 -1.39134 -0.740242 0
M  V30 5686 C 525.95 -1.39518 -1.53459 0
M  V30 5687 C 526.375 0.00968883 -1.88098 0
M  V30 5688 O 525.733 0.995312 -1.51536 0
M  V30 5689 C 525.781 -2.26981 -2.802 0
M  V30 5690 O 524.885 -1.69609 -3.75908 0
M  V30 5691 H 524.226 -0.475328 -0.463637 0
M  V30 5692 H 526.756 -1.83064 -0.913717 0
M  V30 5693 H 526.766 -2.41309 -3.28989 0
M  V30 5694 H 525.441 -3.29081 -2.5432 0
M  V30 5695 H 524.018 -1.64495 -3.34658 0
M  V30 5696 N 526.204 0.969867 -1.24223 0
M  V30 5697 C 527.137 2.06279 -0.975926 0
M  V30 5698 C 528.115 1.62353 0.0895385 0
M  V30 5699 O 529.299 1.88442 -0.0469418 0
M  V30 5700 C 526.426 3.35391 -0.472315 0
M  V30 5701 C 525.472 3.98266 -1.526 0
M  V30 5702 S 526.305 4.36172 -3.10667 0
M  V30 5703 C 527.461 5.68423 -2.62003 0
M  V30 5704 H 527.694 2.28551 -1.90137 0
M  V30 5705 H 525.227 1.10748 -1.07584 0
M  V30 5706 H 527.185 4.10068 -0.188376 0
M  V30 5707 H 525.846 3.1111 0.432378 0
M  V30 5708 H 525.039 4.91307 -1.12399 0
M  V30 5709 H 524.641 3.30009 -1.75983 0
M  V30 5710 H 526.933 6.45842 -2.0468 0
M  V30 5711 H 527.876 6.13478 -3.53625 0
M  V30 5712 H 528.284 5.26928 -2.02502 0
M  V30 5713 N 527.682 1.05563 1.17022 0
M  V30 5714 C 528.629 0.659893 2.21165 0
M  V30 5715 C 529.599 -0.339813 1.62587 0
M  V30 5716 O 530.784 -0.230378 1.89404 0
M  V30 5717 C 527.924 0.0447297 3.45071 0
M  V30 5718 C 527.037 1.09372 4.17926 0
M  V30 5719 C 526.172 0.445481 5.29329 0
M  V30 5720 C 525.211 1.47852 5.93975 0
M  V30 5721 N 524.348 0.854172 6.96885 0
M  V30 5722 H 529.188 1.55243 2.54369 0
M  V30 5723 H 526.725 0.776336 1.24946 0
M  V30 5724 H 528.683 -0.329404 4.15898 0
M  V30 5725 H 527.313 -0.811244 3.1244 0
M  V30 5726 H 526.365 1.58564 3.45777 0
M  V30 5727 H 527.677 1.87773 4.62107 0
M  V30 5728 H 526.831 0.0179688 6.06697 0
M  V30 5729 H 525.57 -0.370481 4.86291 0
M  V30 5730 H 524.575 1.91601 5.15334 0
M  V30 5731 H 525.8 2.29645 6.39093 0
M  V30 5732 H 523.746 0.0587882 6.55974 0
M  V30 5733 H 523.663 1.57567 7.39397 0
M  V30 5734 H 524.931 0.451559 7.78191 0
M  V30 5735 N 529.16 -1.33526 0.837174 0
M  V30 5736 C 530.406 -1.9813 0.432704 0
M  V30 5737 C 530.739 -1.66168 -1.00508 0
M  V30 5738 O 530.014 -0.94069 -1.70239 0
M  V30 5739 C 530.297 -3.54151 0.651834 0
M  V30 5740 C 530.15 -3.95806 2.13676 0
M  V30 5741 C 531.469 -4.39993 0.0968937 0
M  V30 5742 H 528.588 -0.719713 0.15869 0
M  V30 5743 H 531.23 -1.58193 1.05237 0
M  V30 5744 H 529.38 -3.88301 0.124369 0
M  V30 5745 H 531.052 -3.71921 2.72896 0
M  V30 5746 H 529.295 -3.45599 2.62191 0
M  V30 5747 H 529.966 -5.0447 2.24084 0
M  V30 5748 H 532.442 -4.12479 0.547733 0
M  V30 5749 H 531.318 -5.48186 0.279917 0
M  V30 5750 H 531.579 -4.3066 -0.9992 0
M  V30 5751 N 530.638 -0.59345 -1.46 0
M  V30 5752 C 531.585 0.133618 -2.30413 0
M  V30 5753 C 532.555 0.873736 -1.41262 0
M  V30 5754 O 533.74 0.862279 -1.70204 0
M  V30 5755 C 530.88 1.13434 -3.25924 0
M  V30 5756 C 529.993 0.39656 -4.30176 0
M  V30 5757 C 529.128 1.38575 -5.12806 0
M  V30 5758 C 528.167 0.634984 -6.08797 0
M  V30 5759 N 527.304 1.57276 -6.84258 0
M  V30 5760 H 532.144 -0.592252 -2.92055 0
M  V30 5761 H 529.681 -0.303874 -1.43927 0
M  V30 5762 H 531.639 1.72752 -3.79753 0
M  V30 5763 H 530.269 1.82779 -2.66067 0
M  V30 5764 H 529.321 -0.311861 -3.79119 0
M  V30 5765 H 530.633 -0.189869 -4.98438 0
M  V30 5766 H 529.787 2.05141 -5.70966 0
M  V30 5767 H 528.526 2.00611 -4.44529 0
M  V30 5768 H 527.531 -0.0443925 -5.49782 0
M  V30 5769 H 528.756 0.0198678 -6.79097 0
M  V30 5770 H 526.702 2.18103 -6.18682 0
M  V30 5771 H 526.619 1.03941 -7.48821 0
M  V30 5772 H 527.887 2.22844 -7.46968 0
M  V30 5773 N 532.116 1.54067 -0.331816 0
M  V30 5774 C 533.079 2.23275 0.517768 0
M  V30 5775 C 534.079 1.22897 1.03697 0
M  V30 5776 O 535.269 1.47419 0.928084 0
M  V30 5777 C 532.401 2.94326 1.72004 0
M  V30 5778 H 533.594 2.99773 -0.0873507 0
M  V30 5779 H 531.147 1.56079 -0.0830042 0
M  V30 5780 H 531.882 2.21986 2.36417 0
M  V30 5781 H 531.667 3.67941 1.35507 0
M  V30 5782 H 533.157 3.47031 2.32291 0
M  V30 5783 N 533.594 0.0601682 1.57485 0
M  V30 5784 C 534.841 -0.611594 1.93043 0
M  V30 5785 C 535.169 -1.70317 0.939274 0
M  V30 5786 O 534.424 -1.95644 -0.046996 0
M  V30 5787 C 534.723 -1.23831 3.35262 0
M  V30 5788 C 534.389 -0.274037 4.50066 0
M  V30 5789 C 533.051 -0.00872394 4.81199 0
M  V30 5790 C 535.403 0.386308 5.19766 0
M  V30 5791 C 532.731 0.924218 5.79375 0
M  V30 5792 C 535.083 1.3075 6.1894 0
M  V30 5793 C 533.747 1.58139 6.48497 0
M  V30 5794 H 533.017 -0.223798 0.706396 0
M  V30 5795 H 535.664 0.128566 1.91068 0
M  V30 5796 H 533.969 -2.05394 3.33647 0
M  V30 5797 H 535.666 -1.76517 3.60059 0
M  V30 5798 H 532.256 -0.491008 4.25778 0
M  V30 5799 H 536.44 0.194436 4.95919 0
M  V30 5800 H 531.696 1.1438 6.00606 0
M  V30 5801 H 535.87 1.82519 6.72056 0
M  V30 5802 H 533.497 2.30593 7.24383 0
M  V30 5803 N 535.072 -1.5615 -0.213296 0
M  V30 5804 C 536.483 -1.69645 -0.779582 0
M  V30 5805 C 536.834 -0.663615 -1.84636 0
M  V30 5806 O 535.959 0.183633 -2.15619 0
M  V30 5807 C 536.554 -3.07567 -1.42084 0
M  V30 5808 C 535.113 -3.22889 -1.93442 0
M  V30 5809 C 534.26 -2.65581 -0.797612 0
M  V30 5810 H 537.211 -1.58696 0.0114951 0
M  V30 5811 H 537.232 -3.03884 -2.28986 0
M  V30 5812 H 536.744 -3.82716 -0.644187 0
M  V30 5813 H 534.845 -2.52623 -2.73884 0
M  V30 5814 H 534.958 -4.30197 -2.10872 0
M  V30 5815 H 533.322 -2.24278 -1.20712 0
M  V30 5816 H 534.105 -3.43284 -0.033494 0
M  V30 5817 N 536.55 0.480323 -1.50102 0
M  V30 5818 C 537.775 1.26126 -1.64642 0
M  V30 5819 C 538.2 1.85257 -0.325823 0
M  V30 5820 O 537.558 1.66854 0.709194 0
M  V30 5821 C 537.606 2.35243 -2.73301 0
M  V30 5822 O 536.71 3.39646 -2.33911 0
M  V30 5823 H 536.051 0.371463 -0.550374 0
M  V30 5824 H 538.581 0.572696 -1.96421 0
M  V30 5825 H 538.591 2.80695 -2.96098 0
M  V30 5826 H 537.266 1.91574 -3.6915 0
M  V30 5827 H 535.843 2.99969 -2.21525 0
M  V30 5828 N 538.028 1.39524 0.732853 0
M  V30 5829 C 539.439 1.32905 1.31122 0
M  V30 5830 C 539.79 -0.00558708 1.96199 0
M  V30 5831 O 538.915 -0.907706 1.96443 0
M  V30 5832 C 539.51 2.40704 2.38426 0
M  V30 5833 C 538.069 2.37599 2.91931 0
M  V30 5834 C 537.216 2.2248 1.65523 0
M  V30 5835 H 540.167 1.49581 0.530207 0
M  V30 5836 H 540.188 2.07616 3.18867 0
M  V30 5837 H 539.7 3.37829 1.91033 0
M  V30 5838 H 537.801 1.44119 3.43599 0
M  V30 5839 H 537.914 3.32538 3.44899 0
M  V30 5840 H 536.278 1.69691 1.8994 0
M  V30 5841 H 537.061 3.21577 1.20178 0
M  V30 5842 N 539.506 -0.963266 1.24736 0
M  V30 5843 C 540.416 -2.09246 1.06082 0
M  V30 5844 C 541.432 -1.74 0.000363101 0
M  V30 5845 O 542.608 -2.0041 0.199479 0
M  V30 5846 C 539.673 -3.40115 0.672498 0
M  V30 5847 C 538.734 -3.89282 1.80993 0
M  V30 5848 C 537.967 -5.13905 1.44004 0
M  V30 5849 O 538.19 -5.69434 0.331835 0
M  V30 5850 O 537.124 -5.57566 2.26723 0
M  V30 5851 H 540.95 -2.27881 2.00759 0
M  V30 5852 H 538.535 -1.07649 1.03595 0
M  V30 5853 H 540.417 -4.18797 0.467668 0
M  V30 5854 H 539.092 -3.22771 -0.245102 0
M  V30 5855 H 537.999 -3.11642 2.06955 0
M  V30 5856 H 539.332 -4.1111 2.70646 0
M  V30 5857 N 540.985 -1.06182 -1.16461 0
M  V30 5858 C 542.231 -0.779015 -1.87241 0
M  V30 5859 C 542.564 0.692715 -1.81425 0
M  V30 5860 O 541.839 1.5074 -1.22913 0
M  V30 5861 C 542.122 -1.2728 -3.36856 0
M  V30 5862 C 541.975 -2.80821 -3.51368 0
M  V30 5863 C 543.294 -0.879799 -4.31216 0
M  V30 5864 H 540.413 -0.284464 -0.679889 0
M  V30 5865 H 543.055 -1.31755 -1.36896 0
M  V30 5866 H 541.205 -0.814673 -3.79862 0
M  V30 5867 H 542.877 -3.34833 -3.17308 0
M  V30 5868 H 541.12 -3.19606 -2.93316 0
M  V30 5869 H 541.791 -3.10435 -4.56436 0
M  V30 5870 H 544.267 -1.27436 -3.96105 0
M  V30 5871 H 543.143 -1.25278 -5.34412 0
M  V30 5872 H 543.404 0.215372 -4.41575 0
M  V30 5873 N 542.463 1.3308 -0.844243 0
M  V30 5874 C 543.709 1.97898 -0.443206 0
M  V30 5875 C 544.042 1.66699 0.99625 0
M  V30 5876 O 543.317 0.949704 1.69738 0
M  V30 5877 C 543.6 3.53801 -0.670606 0
M  V30 5878 C 543.453 3.94667 -2.15772 0
M  V30 5879 C 544.772 4.39936 -0.120226 0
M  V30 5880 H 541.891 0.718861 -0.162504 0
M  V30 5881 H 544.533 1.57633 -1.06075 0
M  V30 5882 H 542.683 3.88229 -0.14496 0
M  V30 5883 H 544.355 3.70469 -2.74865 0
M  V30 5884 H 542.598 3.44203 -2.6402 0
M  V30 5885 H 543.269 5.03275 -2.26757 0
M  V30 5886 H 545.745 4.12183 -0.5696 0
M  V30 5887 H 544.621 5.4803 -0.308984 0
M  V30 5888 H 544.882 4.31184 0.976347 0
M  V30 5889 N 543.941 0.601185 1.45683 0
M  V30 5890 C 545.187 0.102425 2.03142 0
M  V30 5891 C 545.542 -1.25066 1.46207 0
M  V30 5892 O 544.835 -1.81126 0.624806 0
M  V30 5893 C 545.029 -0.00222425 3.574 0
M  V30 5894 C 544.858 1.33917 4.29298 0
M  V30 5895 C 543.628 1.91818 4.67476 0
M  V30 5896 C 545.826 2.26652 4.61664 0
M  V30 5897 N 543.808 3.19504 5.24204 0
M  V30 5898 C 545.179 3.38933 5.19157 0
M  V30 5899 C 547.234 2.26103 4.43601 0
M  V30 5900 C 545.937 4.50823 5.60492 0
M  V30 5901 C 547.963 3.37036 4.85964 0
M  V30 5902 C 547.325 4.48039 5.43545 0
M  V30 5903 H 543.424 0.0806974 0.777825 0
M  V30 5904 H 546.008 0.798134 1.77589 0
M  V30 5905 H 544.179 -0.66714 3.82627 0
M  V30 5906 H 545.911 -0.507058 4.01511 0
M  V30 5907 H 542.666 1.45097 4.50826 0
M  V30 5908 H 543.09 3.84705 5.57073 0
M  V30 5909 H 547.732 1.41547 3.98402 0
M  V30 5910 H 545.45 5.36108 6.0466 0
M  V30 5911 H 549.036 3.37752 4.73725 0
M  V30 5912 H 547.916 5.32459 5.75723 0
M  V30 5913 N 545.419 -1.53889 0.339982 0
M  V30 5914 C 546.349 -2.27843 -0.510856 0
M  V30 5915 C 547.33 -1.29267 -1.10563 0
M  V30 5916 O 548.515 -1.58104 -1.12768 0
M  V30 5917 C 545.645 -3.04857 -1.66372 0
M  V30 5918 C 544.599 -4.10907 -1.19746 0
M  V30 5919 C 543.925 -4.75855 -2.43857 0
M  V30 5920 C 545.225 -5.21435 -0.300501 0
M  V30 5921 H 546.919 -2.99212 0.106067 0
M  V30 5922 H 544.465 -1.43904 0.0524533 0
M  V30 5923 H 546.418 -3.5533 -2.26537 0
M  V30 5924 H 545.142 -2.31133 -2.30749 0
M  V30 5925 H 543.801 -3.61342 -0.618654 0
M  V30 5926 H 543.449 -3.9873 -3.06633 0
M  V30 5927 H 543.149 -5.47502 -2.13343 0
M  V30 5928 H 544.673 -5.2911 -3.04754 0
M  V30 5929 H 546.087 -5.67565 -0.80889 0
M  V30 5930 H 544.484 -6.00036 -0.0874076 0
M  V30 5931 H 545.554 -4.80328 0.664321 0
M  V30 5932 N 546.897 -0.0685191 -1.57451 0
M  V30 5933 C 547.844 0.899861 -2.12535 0
M  V30 5934 C 548.814 1.29749 -1.03703 0
M  V30 5935 O 549.999 1.38392 -1.31348 0
M  V30 5936 C 547.139 2.16328 -2.6888 0
M  V30 5937 C 546.252 1.81857 -3.91857 0
M  V30 5938 C 545.387 3.02786 -4.36457 0
M  V30 5939 C 544.426 2.64317 -5.5209 0
M  V30 5940 N 543.563 3.77994 -5.91663 0
M  V30 5941 H 548.403 0.423243 -2.94979 0
M  V30 5942 H 545.94 0.197268 -1.45771 0
M  V30 5943 H 547.898 2.90281 -2.99655 0
M  V30 5944 H 546.528 2.61536 -1.89206 0
M  V30 5945 H 545.58 0.979808 -3.67565 0
M  V30 5946 H 546.892 1.49553 -4.75852 0
M  V30 5947 H 546.046 3.85021 -4.68875 0
M  V30 5948 H 544.785 3.38281 -3.51308 0
M  V30 5949 H 543.79 1.80503 -5.19325 0
M  V30 5950 H 545.015 2.29995 -6.38967 0
M  V30 5951 H 542.961 4.13258 -5.09464 0
M  V30 5952 H 542.878 3.49447 -6.7039 0
M  V30 5953 H 544.146 4.60818 -6.28703 0
M  V30 5954 N 548.375 1.56261 0.205012 0
M  V30 5955 C 549.652 1.70856 0.952233 0
M  V30 5956 C 550.032 0.620501 2.01775 0
M  V30 5957 O 549.38 -0.370035 2.25484 0
M  V30 5958 C 549.59 3.12807 1.54767 0
M  V30 5959 C 550.938 3.72733 2.0336 0
M  V30 5960 O 551.962 3.15873 1.64629 0
M  V30 5961 O 550.821 4.72501 2.746 0
M  V30 5962 H 547.915 0.696496 0.445895 0
M  V30 5963 H 550.461 1.6857 0.195489 0
M  V30 5964 H 549.233 3.83465 0.779132 0
M  V30 5965 H 548.856 3.1928 2.36951 0
M  V30 5966 N 549.853 -0.472356 1.50355 0
M  V30 5967 C 551.101 -1.22211 1.60962 0
M  V30 5968 C 551.422 -1.92497 0.311439 0
M  V30 5969 O 550.692 -1.8405 -0.671002 0
M  V30 5970 H 549.272 -0.454092 0.593135 0
M  V30 5971 H 551.934 -0.544977 1.87126 0
M  V30 5972 H 551.03 -1.9707 2.42012 0
M  V30 5973 N 551.331 -1.39911 -0.725443 0
M  V30 5974 C 552.261 -1.42138 -1.85254 0
M  V30 5975 C 553.242 -0.283513 -1.67721 0
M  V30 5976 O 554.427 -0.490717 -1.87898 0
M  V30 5977 C 551.557 -1.27354 -3.23107 0
M  V30 5978 C 550.511 -2.3864 -3.55296 0
M  V30 5979 C 549.837 -2.08939 -4.92188 0
M  V30 5980 C 551.137 -3.8097 -3.57295 0
M  V30 5981 H 552.831 -2.36461 -1.83648 0
M  V30 5982 H 550.377 -1.13817 -0.882138 0
M  V30 5983 H 552.33 -1.2753 -4.01639 0
M  V30 5984 H 551.054 -0.295025 -3.25265 0
M  V30 5985 H 549.713 -2.37696 -2.79099 0
M  V30 5986 H 549.361 -1.09502 -4.90936 0
M  V30 5987 H 549.061 -2.83491 -5.14691 0
M  V30 5988 H 550.585 -2.10781 -5.73065 0
M  V30 5989 H 551.999 -3.8379 -4.25885 0
M  V30 5990 H 550.396 -4.5496 -3.9132 0
M  V30 5991 H 551.466 -4.11261 -2.5689 0
M  V30 5992 N 552.809 0.956637 -1.25245 0
M  V30 5993 C 554.22 1.51569 -1.09012 0
M  V30 5994 C 554.571 1.93322 0.334813 0
M  V30 5995 O 553.696 1.78421 1.22454 0
M  V30 5996 C 554.291 2.75444 -1.97271 0
M  V30 5997 C 552.85 3.27669 -1.8523 0
M  V30 5998 C 551.997 2.00517 -1.91542 0
M  V30 5999 H 554.948 0.773746 -1.3856 0
M  V30 6000 H 554.969 3.4919 -1.51151 0
M  V30 6001 H 554.481 2.45024 -3.00973 0
M  V30 6002 H 552.582 3.62914 -0.844045 0
M  V30 6003 H 552.695 3.9582 -2.69932 0
M  V30 6004 H 551.059 2.15727 -1.35404 0
M  V30 6005 H 551.842 1.72448 -2.96844 0
M  V30 6006 N 554.287 1.06798 1.15896 0
M  V30 6007 C 555.25 0.687328 2.18651 0
M  V30 6008 C 556.25 -0.269559 1.58524 0
M  V30 6009 O 557.44 -0.0512627 1.74125 0
M  V30 6010 C 554.572 0.0121642 3.40898 0
M  V30 6011 H 555.765 1.59701 2.53842 0
M  V30 6012 H 553.318 0.863828 1.3026 0
M  V30 6013 H 554.053 -0.910025 3.1127 0
M  V30 6014 H 553.838 0.700309 3.85795 0
M  V30 6015 H 555.328 -0.239703 4.16911 0
M  V30 6016 N 555.766 -1.3263 0.851289 0
M  V30 6017 C 556.994 -2.01563 0.466899 0
M  V30 6018 C 557.409 -1.63996 -0.935447 0
M  V30 6019 O 556.766 -0.85957 -1.6099 0
M  V30 6020 C 556.817 -3.56613 0.592433 0
M  V30 6021 O 556.538 -3.92828 1.93954 0
M  V30 6022 C 558.039 -4.42818 0.206612 0
M  V30 6023 H 555.259 -0.645307 0.183902 0
M  V30 6024 H 557.803 -1.69285 1.1473 0
M  V30 6025 H 555.958 -3.87379 -0.0401936 0
M  V30 6026 H 556.372 -4.87545 1.9339 0
M  V30 6027 H 557.846 -5.50918 0.345462 0
M  V30 6028 H 558.323 -4.30844 -0.85264 0
M  V30 6029 H 558.929 -4.17434 0.814176 0
M  V30 6030 N 557.244 -0.608902 -1.45362 0
M  V30 6031 C 558.154 0.110969 -2.34337 0
M  V30 6032 C 559.17 0.859007 -1.51318 0
M  V30 6033 O 560.346 0.816296 -1.84116 0
M  V30 6034 C 557.411 1.09494 -3.28956 0
M  V30 6035 C 556.472 0.348718 -4.27881 0
M  V30 6036 C 555.705 1.28582 -5.17979 0
M  V30 6037 O 555.928 2.52369 -5.11533 0
M  V30 6038 O 554.862 0.782172 -5.96796 0
M  V30 6039 H 558.688 -0.620258 -2.97299 0
M  V30 6040 H 556.273 -0.36916 -1.44767 0
M  V30 6041 H 558.155 1.66163 -3.87257 0
M  V30 6042 H 556.83 1.80717 -2.68557 0
M  V30 6043 H 555.737 -0.260465 -3.73192 0
M  V30 6044 H 557.07 -0.323049 -4.91139 0
M  V30 6045 N 558.722 1.53707 -0.348139 0
M  V30 6046 C 559.669 2.25173 0.506518 0
M  V30 6047 C 560.639 1.25174 1.09182 0
M  V30 6048 O 561.824 1.53917 1.12757 0
M  V30 6049 C 558.964 3.03141 1.64923 0
M  V30 6050 C 558.077 4.18002 1.0908 0
M  V30 6051 C 557.212 4.83447 2.20119 0
M  V30 6052 C 556.251 5.90369 1.61651 0
M  V30 6053 N 555.388 6.49575 2.66451 0
M  V30 6054 H 560.228 2.97799 -0.109452 0
M  V30 6055 H 557.765 1.46953 -0.0657866 0
M  V30 6056 H 559.723 3.46607 2.32205 0
M  V30 6057 H 558.353 2.32803 2.23612 0
M  V30 6058 H 557.405 3.79145 0.308783 0
M  V30 6059 H 558.717 4.94892 0.623178 0
M  V30 6060 H 557.871 5.30008 2.95257 0
M  V30 6061 H 556.61 4.05991 2.70227 0
M  V30 6062 H 555.615 5.43186 0.850209 0
M  V30 6063 H 556.84 6.69735 1.1239 0
M  V30 6064 H 554.786 5.74981 3.15805 0
M  V30 6065 H 554.703 7.21952 2.24325 0
M  V30 6066 H 555.971 7.00789 3.41344 0
M  V30 6067 N 560.2 0.0768682 1.57412 0
M  V30 6068 C 561.425 -0.603404 1.98428 0
M  V30 6069 C 561.85 -1.62047 0.955108 0
M  V30 6070 O 561.208 -1.81129 -0.0786778 0
M  V30 6071 C 561.256 -1.24396 3.38464 0
M  V30 6072 O 560.36 -2.35982 3.3821 0
M  V30 6073 H 559.701 -0.154741 0.645718 0
M  V30 6074 H 562.231 0.152885 2.04028 0
M  V30 6075 H 562.241 -1.5896 3.7576 0
M  V30 6076 H 560.916 -0.498735 4.12899 0
M  V30 6077 H 559.493 -2.03173 3.1269 0
M  V30 6078 N 561.678 -1.56367 -0.196722 0
M  V30 6079 C 562.641 -1.93561 -1.22746 0
M  V30 6080 C 563.641 -0.816566 -1.38524 0
M  V30 6081 O 564.831 -1.084 -1.36363 0
M  V30 6082 C 561.963 -2.20823 -2.59712 0
M  V30 6083 H 563.156 -2.85774 -0.909586 0
M  V30 6084 H 560.709 -1.50032 -0.438174 0
M  V30 6085 H 561.444 -1.31243 -2.96557 0
M  V30 6086 H 561.229 -3.02368 -2.49632 0
M  V30 6087 H 562.719 -2.50608 -3.34044 0
M  V30 6088 N 563.156 0.464375 -1.50603 0
M  V30 6089 C 564.572 0.798684 -1.38178 0
M  V30 6090 C 564.772 1.96568 -0.44308 0
M  V30 6091 O 563.828 2.52252 0.111814 0
M  V30 6092 C 565.141 1.10444 -2.79683 0
M  V30 6093 C 566.689 1.2105 -2.88645 0
M  V30 6094 C 567.164 1.54934 -4.30998 0
M  V30 6095 N 568.655 1.61913 -4.3398 0
M  V30 6096 C 569.39 1.8965 -5.41129 0
M  V30 6097 N 568.886 2.15361 -6.58477 0
M  V30 6098 N 570.679 1.91207 -5.28579 0
M  V30 6099 H 562.83 -0.304603 -2.10204 0
M  V30 6100 H 565.093 -0.0737804 -0.945125 0
M  V30 6101 H 564.799 0.319934 -3.50242 0
M  V30 6102 H 564.673 2.03896 -3.17342 0
M  V30 6103 H 567.06 1.98567 -2.18301 0
M  V30 6104 H 567.141 0.255613 -2.5452 0
M  V30 6105 H 566.785 0.779549 -5.01882 0
M  V30 6106 H 566.715 2.51584 -4.62615 0
M  V30 6107 H 569.206 1.44055 -3.49366 0
M  V30 6108 H 569.519 2.35818 -7.35941 0
M  V30 6109 H 567.864 2.1274 -6.6164 0
M  V30 6110 H 571.055 1.70622 -4.35897 0
M  V30 6111 H 571.228 2.12488 -6.12171 0
M  V30 6112 N 564.634 1.40294 0.718013 0
M  V30 6113 C 565.864 1.41544 1.50495 0
M  V30 6114 C 566.272 0.0127877 1.89196 0
M  V30 6115 O 565.615 -0.97305 1.55812 0
M  V30 6116 C 565.677 2.24021 2.81167 0
M  V30 6117 C 565.341 3.72463 2.64803 0
M  V30 6118 C 566.338 4.65154 2.32223 0
M  V30 6119 C 564.023 4.1625 2.81143 0
M  V30 6120 C 566.017 5.99618 2.16189 0
M  V30 6121 C 563.704 5.50784 2.64727 0
M  V30 6122 C 564.702 6.42283 2.32297 0
M  V30 6123 O 564.39 7.74337 2.16004 0
M  V30 6124 H 564.122 0.484819 0.471091 0
M  V30 6125 H 566.676 1.84948 0.893488 0
M  V30 6126 H 564.906 1.75393 3.44636 0
M  V30 6127 H 566.595 2.17243 3.42871 0
M  V30 6128 H 567.361 4.32622 2.19234 0
M  V30 6129 H 563.24 3.45352 3.05373 0
M  V30 6130 H 566.784 6.71 1.90799 0
M  V30 6131 H 562.681 5.82902 2.773 0
M  V30 6132 H 563.449 7.85244 2.30942 0
M  V30 6133 N 566.112 -0.949982 1.2575 0
M  V30 6134 C 567.042 -2.06483 1.09028 0
M  V30 6135 C 568.023 -1.701 -0.00201532 0
M  V30 6136 O 569.208 -1.93469 0.168383 0
M  V30 6137 C 566.338 -3.39899 0.71316 0
M  V30 6138 C 565.292 -3.90309 1.75621 0
M  V30 6139 C 564.618 -5.20274 1.23365 0
M  V30 6140 C 565.918 -4.16169 3.15596 0
M  V30 6141 H 567.612 -2.20731 2.02283 0
M  V30 6142 H 565.158 -1.06066 0.973964 0
M  V30 6143 H 567.111 -4.17346 0.58309 0
M  V30 6144 H 565.835 -3.25602 -0.255091 0
M  V30 6145 H 564.494 -3.15035 1.8748 0
M  V30 6146 H 564.142 -5.02351 0.255491 0
M  V30 6147 H 563.842 -5.54971 1.93082 0
M  V30 6148 H 565.366 -6.00314 1.11607 0
M  V30 6149 H 566.78 -4.84259 3.06864 0
M  V30 6150 H 565.177 -4.62131 3.82825 0
M  V30 6151 H 566.247 -3.22273 3.6231 0
M  V30 6152 N 567.59 -1.07411 -1.15328 0
M  V30 6153 C 568.818 -0.818782 -1.90009 0
M  V30 6154 C 569.233 0.628072 -1.78047 0
M  V30 6155 O 568.59 1.43085 -1.13282 0
M  V30 6156 C 568.641 -1.21874 -3.40337 0
M  V30 6157 O 568.362 -2.60883 -3.51954 0
M  V30 6158 C 569.863 -0.992796 -4.3204 0
M  V30 6159 H 567.083 -0.296007 -0.60218 0
M  V30 6160 H 569.627 -1.43073 -1.46117 0
M  V30 6161 H 567.782 -0.651103 -3.81889 0
M  V30 6162 H 568.196 -2.77216 -4.45255 0
M  V30 6163 H 569.67 -1.32215 -5.35932 0
M  V30 6164 H 570.147 0.0708331 -4.39143 0
M  V30 6165 H 570.753 -1.54537 -3.9623 0
M  V30 6166 N 569.068 1.32177 -0.85831 0
M  V30 6167 C 570.484 1.49873 -0.548656 0
M  V30 6168 C 570.684 1.79278 0.919874 0
M  V30 6169 O 569.74 1.86451 1.70271 0
M  V30 6170 C 571.053 2.64043 -1.4388 0
M  V30 6171 C 572.601 2.77928 -1.43961 0
M  V30 6172 C 573.076 3.95182 -2.31506 0
M  V30 6173 N 574.567 4.0245 -2.29321 0
M  V30 6174 C 575.302 4.9242 -2.93786 0
M  V30 6175 N 574.798 5.87373 -3.67376 0
M  V30 6176 N 576.591 4.85572 -2.83155 0
M  V30 6177 H 568.742 1.11357 -1.80868 0
M  V30 6178 H 571.005 0.549175 -0.772729 0
M  V30 6179 H 570.711 2.49055 -2.48324 0
M  V30 6180 H 570.585 3.59912 -1.12885 0
M  V30 6181 H 572.972 2.92338 -0.402813 0
M  V30 6182 H 573.053 1.82762 -1.78974 0
M  V30 6183 H 572.697 3.81531 -3.35256 0
M  V30 6184 H 572.627 4.89633 -1.93823 0
M  V30 6185 H 575.118 3.34507 -1.75822 0
M  V30 6186 H 575.431 6.52728 -4.13722 0
M  V30 6187 H 573.776 5.87388 -3.71484 0
M  V30 6188 H 576.967 4.10363 -2.25211 0
M  V30 6189 H 577.14 5.55486 -3.33676 0
M  V30 6190 N 570.547 0.616602 1.45037 0
M  V30 6191 C 571.795 0.115103 2.01772 0
M  V30 6192 C 572.116 -1.2622 1.48639 0
M  V30 6193 O 571.386 -1.83563 0.684199 0
M  V30 6194 H 569.966 0.0395607 0.745952 0
M  V30 6195 H 572.628 0.800032 1.77723 0
M  V30 6196 H 571.724 0.0717274 3.12018 0
M  V30 6197 N 572.025 -1.5352 0.356285 0
M  V30 6198 C 573.255 -2.05236 -0.236983 0
M  V30 6199 C 573.663 -1.23016 -1.43749 0
M  V30 6200 O 573.006 -0.2615 -1.81829 0
M  V30 6201 C 573.068 -3.52549 -0.7035 0
M  V30 6202 C 572.732 -4.55425 0.379059 0
M  V30 6203 C 573.729 -5.0524 1.22592 0
M  V30 6204 C 571.414 -4.99425 0.536638 0
M  V30 6205 C 573.408 -5.97647 2.21578 0
M  V30 6206 C 571.095 -5.9164 1.52988 0
M  V30 6207 C 572.093 -6.4064 2.3679 0
M  V30 6208 O 571.781 -7.31039 3.34421 0
M  V30 6209 H 571.513 -0.674346 -0.047254 0
M  V30 6210 H 574.067 -1.98962 0.510238 0
M  V30 6211 H 572.297 -3.56331 -1.50217 0
M  V30 6212 H 573.986 -3.87171 -1.21873 0
M  V30 6213 H 574.752 -4.72002 1.11532 0
M  V30 6214 H 570.631 -4.60879 -0.105834 0
M  V30 6215 H 574.175 -6.35816 2.87025 0
M  V30 6216 H 570.072 -6.24293 1.64099 0
M  V30 6217 H 570.84 -7.49009 3.30041 0
M  V30 6218 N 573.503 -0.0852151 -1.57369 0
M  V30 6219 C 574.728 0.592872 -1.98746 0
M  V30 6220 C 575.153 1.61538 -0.963689 0
M  V30 6221 O 574.511 1.81168 0.069071 0
M  V30 6222 C 574.559 1.22599 -3.39119 0
M  V30 6223 O 573.663 2.34185 -3.39457 0
M  V30 6224 H 573.004 0.151314 -0.646529 0
M  V30 6225 H 575.534 -0.163703 -2.03944 0
M  V30 6226 H 575.544 1.56965 -3.76598 0
M  V30 6227 H 574.219 0.476831 -4.13158 0
M  V30 6228 H 572.796 2.01512 -3.13763 0
M  V30 6229 N 574.981 1.5647 0.188427 0
M  V30 6230 C 575.911 1.98101 1.23606 0
M  V30 6231 C 576.892 0.853961 1.47111 0
M  V30 6232 O 578.077 1.11879 1.58735 0
M  V30 6233 C 575.207 2.32624 2.57882 0
M  V30 6234 C 574.161 3.48129 2.48978 0
M  V30 6235 C 573.487 3.68347 3.87588 0
M  V30 6236 C 574.787 4.82112 2.00911 0
M  V30 6237 H 576.481 2.85864 0.890068 0
M  V30 6238 H 574.027 1.37532 0.426714 0
M  V30 6239 H 575.98 2.60343 3.3136 0
M  V30 6240 H 574.704 1.41751 2.94235 0
M  V30 6241 H 573.363 3.20511 1.77956 0
M  V30 6242 H 573.011 2.74793 4.21305 0
M  V30 6243 H 572.711 4.46055 3.82503 0
M  V30 6244 H 574.235 3.98449 4.62678 0
M  V30 6245 H 575.649 5.08819 2.64151 0
M  V30 6246 H 574.046 5.63337 2.06814 0
M  V30 6247 H 575.116 4.75249 0.96262 0
M  V30 6248 N 576.459 -0.456382 1.50847 0
M  V30 6249 C 577.708 -1.2042 1.61808 0
M  V30 6250 C 578.021 -1.9278 0.330932 0
M  V30 6251 O 579.227 -2.69612 0.319643 0
M  V30 6252 C 577.683 -2.18891 2.85683 0
M  V30 6253 C 577.291 -1.52267 4.2133 0
M  V30 6254 C 579.035 -2.94224 3.05994 0
M  V30 6255 C 576.942 -2.4911 5.36375 0
M  V30 6256 H 575.872 -0.453177 0.602616 0
M  V30 6257 H 578.523 -0.473144 1.77295 0
M  V30 6258 H 576.905 -2.95351 2.63787 0
M  V30 6259 H 578.079 -0.814949 4.53536 0
M  V30 6260 H 576.394 -0.891594 4.06743 0
M  V30 6261 H 578.991 -3.66732 3.89117 0
M  V30 6262 H 579.334 -3.54469 2.18306 0
M  V30 6263 H 579.867 -2.24874 3.28141 0
M  V30 6264 H 576.606 -1.93582 6.26264 0
M  V30 6265 H 576.126 -3.17991 5.08569 0
M  V30 6266 H 577.805 -3.10637 5.67551 0
M  V30 6267 N 577.937 -1.40673 -0.710563 0
M  V30 6268 C 579.186 -1.38525 -1.46607 0
M  V30 6269 C 579.499 0.0077024 -1.95598 0
M  V30 6270 O 580.705 0.151792 -2.71075 0
M  V30 6271 C 579.161 -2.43489 -2.6503 0
M  V30 6272 C 578.769 -3.88619 -2.22888 0
M  V30 6273 C 580.513 -2.50456 -3.42742 0
M  V30 6274 C 578.42 -4.85168 -3.3818 0
M  V30 6275 H 577.35 -0.515092 -0.550632 0
M  V30 6276 H 580.001 -1.66431 -0.772846 0
M  V30 6277 H 578.383 -2.0869 -3.36548 0
M  V30 6278 H 579.557 -4.32588 -1.58758 0
M  V30 6279 H 577.872 -3.85174 -1.58208 0
M  V30 6280 H 580.469 -3.19776 -4.28541 0
M  V30 6281 H 580.812 -1.53665 -3.86902 0
M  V30 6282 H 581.345 -2.84271 -2.78271 0
M  V30 6283 H 578.084 -5.8331 -2.99047 0
M  V30 6284 H 577.604 -4.4586 -4.01209 0
M  V30 6285 H 579.283 -5.05225 -4.04174 0
M  V30 6286 N 579.415 0.9433 -1.26252 0
M  V30 6287 C 580.362 2.0417 -1.07625 0
M  V30 6288 C 581.332 1.6609 0.0180738 0
M  V30 6289 O 582.517 1.90276 -0.141289 0
M  V30 6290 C 579.657 3.37653 -0.713043 0
M  V30 6291 C 578.77 3.88783 -1.8834 0
M  V30 6292 C 577.905 5.10642 -1.4635 0
M  V30 6293 C 576.944 5.54028 -2.60229 0
M  V30 6294 N 576.081 6.67092 -2.18936 0
M  V30 6295 H 580.921 2.19436 -2.01623 0
M  V30 6296 H 578.458 1.07519 -1.00389 0
M  V30 6297 H 580.416 4.14391 -0.483358 0
M  V30 6298 H 579.046 3.22241 0.18996 0
M  V30 6299 H 578.098 3.08464 -2.22608 0
M  V30 6300 H 579.41 4.16922 -2.73821 0
M  V30 6301 H 578.564 5.94832 -1.19414 0
M  V30 6302 H 577.303 4.84244 -0.579568 0
M  V30 6303 H 576.308 4.68396 -2.87898 0
M  V30 6304 H 577.533 5.82429 -3.49219 0
M  V30 6305 H 575.479 6.42381 -1.32974 0
M  V30 6306 H 575.396 6.94806 -2.97961 0
M  V30 6307 H 576.664 7.54662 -1.95206 0
M  V30 6308 N 580.893 1.08022 1.14757 0
M  V30 6309 C 582.17 0.720386 1.81851 0
M  V30 6310 C 582.55 -0.796375 1.95502 0
M  V30 6311 O 581.898 -1.71339 1.51179 0
M  V30 6312 C 582.108 1.44273 3.17783 0
M  V30 6313 C 583.456 1.59925 3.93331 0
M  V30 6314 O 584.48 1.40407 3.2736 0
M  V30 6315 O 583.339 1.92096 5.11626 0
M  V30 6316 H 580.433 0.257142 0.786007 0
M  V30 6317 H 582.979 1.18155 1.21809 0
M  V30 6318 H 581.751 2.47618 3.02987 0
M  V30 6319 H 581.374 0.97279 3.85516 0
M  V30 6320 N 582.371 -1.3172 0.865308 0
M  V30 6321 C 583.617 -1.97168 0.474633 0
M  V30 6322 C 583.95 -1.68263 -0.969604 0
M  V30 6323 O 583.225 -0.976588 -1.68205 0
M  V30 6324 C 583.508 -3.52689 0.726808 0
M  V30 6325 C 583.361 -3.91185 2.22024 0
M  V30 6326 C 584.68 -4.39689 0.190201 0
M  V30 6327 H 581.799 -0.716185 0.17392 0
M  V30 6328 H 584.441 -1.55925 1.08569 0
M  V30 6329 H 582.591 -3.8795 0.206705 0
M  V30 6330 H 584.263 -3.66049 2.80724 0
M  V30 6331 H 582.506 -3.3996 2.69462 0
M  V30 6332 H 583.177 -4.99604 2.34735 0
M  V30 6333 H 585.653 -4.11225 0.635103 0
M  V30 6334 H 584.529 -5.47469 0.396132 0
M  V30 6335 H 584.79 -4.32683 -0.907625 0
M  V30 6336 N 583.85 -0.624285 -1.44708 0
M  V30 6337 C 585.077 -0.132919 -2.06473 0
M  V30 6338 C 585.493 1.18967 -1.46602 0
M  V30 6339 O 584.85 1.72824 -0.586341 0
M  V30 6340 C 584.901 -0.00465418 -3.615 0
M  V30 6341 O 584.622 -1.27494 -4.19138 0
M  V30 6342 C 586.123 0.516213 -4.40284 0
M  V30 6343 H 583.343 -0.0765201 -0.666623 0
M  V30 6344 H 585.887 -0.856751 -1.85688 0
M  V30 6345 H 584.042 0.669583 -3.8157 0
M  V30 6346 H 584.456 -1.11536 -5.12504 0
M  V30 6347 H 585.93 0.554994 -5.49203 0
M  V30 6348 H 586.407 1.5419 -4.11245 0
M  V30 6349 H 587.013 -0.124542 -4.25118 0
M  V30 6350 N 585.328 1.53329 -0.364422 0
M  V30 6351 C 586.238 2.29414 0.490552 0
M  V30 6352 C 587.254 1.35335 1.09363 0
M  V30 6353 O 588.43 1.68391 1.10483 0
M  V30 6354 C 585.495 3.06772 1.61529 0
M  V30 6355 C 584.556 4.16516 1.03986 0
M  V30 6356 C 583.789 4.90176 2.111 0
M  V30 6357 O 584.012 4.63687 3.32191 0
M  V30 6358 O 582.946 5.76134 1.74222 0
M  V30 6359 H 586.772 3.03428 -0.12856 0
M  V30 6360 H 584.357 1.48843 -0.128837 0
M  V30 6361 H 586.239 3.55082 2.26924 0
M  V30 6362 H 584.914 2.35596 2.21983 0
M  V30 6363 H 583.821 3.7246 0.349856 0
M  V30 6364 H 585.154 4.89855 0.4799 0
M  V30 6365 N 586.806 0.0935595 1.57322 0
M  V30 6366 C 587.716 -0.880192 2.17462 0
M  V30 6367 C 588.732 -1.31135 1.14366 0
M  V30 6368 O 589.908 -1.37958 1.46729 0
M  V30 6369 C 586.973 -2.12184 2.74188 0
M  V30 6370 C 586.034 -1.74503 3.92234 0
M  V30 6371 C 585.267 -2.92748 4.46245 0
M  V30 6372 O 585.49 -4.07427 3.99198 0
M  V30 6373 O 584.424 -2.71303 5.37288 0
M  V30 6374 H 588.25 -0.398516 3.01074 0
M  V30 6375 H 585.835 -0.130707 1.48827 0
M  V30 6376 H 587.717 -2.84953 3.10451 0
M  V30 6377 H 586.392 -2.59407 1.93623 0
M  V30 6378 H 585.299 -0.989186 3.60785 0
M  V30 6379 H 586.632 -1.32044 4.74157 0
M  V30 6380 N 588.284 -1.56567 -0.180126 0
M  V30 6381 C 589.561 -1.7235 -0.924931 0
M  V30 6382 C 589.941 -0.652523 -2.00762 0
M  V30 6383 O 589.289 0.334115 -2.26044 0
M  V30 6384 C 589.499 -3.1523 -1.49771 0
M  V30 6385 C 590.847 -3.75921 -1.97405 0
M  V30 6386 O 591.871 -3.18452 -1.59583 0
M  V30 6387 O 590.73 -4.7681 -2.67048 0
M  V30 6388 H 587.824 -0.703502 -0.434758 0
M  V30 6389 H 590.37 -1.6886 -0.168647 0
M  V30 6390 H 589.142 -3.84656 -0.718027 0
M  V30 6391 H 588.765 -3.23009 -2.31842 0
M  V30 6392 N 589.762 0.448376 -1.51087 0
M  V30 6393 C 590.725 1.52588 -1.71025 0
M  V30 6394 C 591.725 1.49958 -0.580442 0
M  V30 6395 O 592.915 1.52176 -0.847833 0
M  V30 6396 C 590.047 2.92163 -1.75652 0
M  V30 6397 H 591.24 1.36218 -2.67179 0
M  V30 6398 H 588.793 0.676313 -1.4091 0
M  V30 6399 H 589.528 3.13951 -0.812724 0
M  V30 6400 H 589.313 2.95478 -2.57751 0
M  V30 6401 H 590.803 3.70349 -1.92953 0
M  V30 6402 N 591.24 1.41047 0.703093 0
M  V30 6403 C 592.488 1.39723 1.4602 0
M  V30 6404 C 592.809 0.00461257 1.94999 0
M  V30 6405 O 592.079 -0.952292 1.71196 0
M  V30 6406 H 590.659 0.514281 0.541779 0
M  V30 6407 H 593.321 1.76217 0.832678 0
M  V30 6408 H 592.417 2.07982 2.32701 0
M  V30 6409 N 592.718 -0.936591 1.26751 0
M  V30 6410 C 593.666 -2.0573 1.08527 0
M  V30 6411 C 594.66 -1.69397 0.0108784 0
M  V30 6412 O 595.866 -1.79215 0.167915 0
M  V30 6413 H 592.241 -0.673691 0.334133 0
M  V30 6414 H 594.212 -2.1825 2.03493 0
M  V30 6415 C 592.961 -3.39738 0.739845 0
M  V30 6416 H 592.284 -3.68174 1.55845 0
M  V30 6417 H 593.724 -4.18955 0.652149 0
M  V30 6418 C 592.183 -3.32292 -0.555288 0
M  V30 6419 O 592.713 -3.68794 -1.59229 0
M  V30 6420 N 590.919 -2.85394 -0.54762 0
M  V30 6421 H 590.466 -2.55886 0.296667 0
M  V30 6422 H 590.424 -2.80795 -1.41427 0
M  V30 6423 N 594.196 -1.08629 -1.14182 0
M  V30 6424 C 595.426 -0.837673 -1.88856 0
M  V30 6425 C 595.834 0.614024 -1.78959 0
M  V30 6426 O 595.177 1.43384 -1.14833 0
M  V30 6427 C 595.239 -1.18355 -3.39459 0
M  V30 6428 C 594.903 -2.63848 -3.73139 0
M  V30 6429 C 595.9 -3.62099 -3.73069 0
M  V30 6430 C 593.585 -2.99761 -4.03049 0
M  V30 6431 C 595.579 -4.94292 -4.02435 0
M  V30 6432 C 593.266 -4.32147 -4.32078 0
M  V30 6433 C 594.264 -5.29223 -4.31755 0
M  V30 6434 O 593.952 -6.59229 -4.60079 0
M  V30 6435 H 593.684 -0.301609 -0.604986 0
M  V30 6436 H 596.238 -1.44961 -1.45518 0
M  V30 6437 H 594.468 -0.514628 -3.8326 0
M  V30 6438 H 596.157 -0.915391 -3.95443 0
M  V30 6439 H 596.923 -3.35698 -3.50046 0
M  V30 6440 H 592.802 -2.2484 -4.02453 0
M  V30 6441 H 596.346 -5.70055 -4.02098 0
M  V30 6442 H 592.243 -4.58296 -4.54571 0
M  V30 6443 H 593.011 -6.64578 -4.77785 0
M  V30 6444 N 595.674 1.31259 -0.872281 0
M  V30 6445 C 596.902 2.00795 -0.498907 0
M  V30 6446 C 597.317 1.65464 0.909238 0
M  V30 6447 O 596.674 0.885073 1.59602 0
M  V30 6448 C 596.725 3.55625 -0.649092 0
M  V30 6449 O 596.446 3.89692 -2.00179 0
M  V30 6450 C 597.947 4.42434 -0.277034 0
M  V30 6451 H 595.167 0.642299 -0.194145 0
M  V30 6452 H 597.711 1.67438 -1.17408 0
M  V30 6453 H 595.866 3.87394 -0.0214402 0
M  V30 6454 H 596.28 4.84407 -2.01122 0
M  V30 6455 H 597.754 5.50299 -0.433064 0
M  V30 6456 H 598.231 4.32146 0.783989 0
M  V30 6457 H 598.837 4.16086 -0.880483 0
M  V30 6458 N 597.152 0.631951 1.44375 0
M  V30 6459 C 598.401 0.134214 2.01253 0
M  V30 6460 C 598.714 -1.25171 1.50305 0
M  V30 6461 O 599.92 -1.8435 1.99317 0
M  V30 6462 C 598.376 0.189187 3.59402 0
M  V30 6463 C 597.984 1.57647 4.19346 0
M  V30 6464 C 599.728 -0.252044 4.23751 0
M  V30 6465 C 597.635 1.58651 5.69722 0
M  V30 6466 H 596.565 0.0464101 0.75257 0
M  V30 6467 H 599.216 0.790868 1.65582 0
M  V30 6468 H 597.598 -0.534584 3.92375 0
M  V30 6469 H 598.772 2.32389 3.97909 0
M  V30 6470 H 597.087 1.96186 3.67288 0
M  V30 6471 H 599.684 -0.264084 5.34047 0
M  V30 6472 H 600.027 -1.27951 3.96149 0
M  V30 6473 H 600.56 0.41926 3.95584 0
M  V30 6474 H 597.299 2.59237 6.0206 0
M  V30 6475 H 596.819 0.882039 5.93279 0
M  V30 6476 H 598.498 1.32082 6.33375 0
M  V30 6477 N 598.631 -1.53133 0.372548 0
M  V30 6478 C 599.561 -2.28876 -0.462412 0
M  V30 6479 C 600.542 -1.31583 -1.07796 0
M  V30 6480 O 601.727 -1.60461 -1.09389 0
M  V30 6481 C 598.857 -3.08317 -1.59868 0
M  V30 6482 C 597.811 -4.13355 -1.11003 0
M  V30 6483 C 597.137 -4.8092 -2.33708 0
M  V30 6484 C 598.437 -5.21955 -0.18983 0
M  V30 6485 H 600.131 -2.9892 0.169511 0
M  V30 6486 H 597.677 -1.43761 0.0829658 0
M  V30 6487 H 599.63 -3.60055 -2.18949 0
M  V30 6488 H 598.354 -2.35976 -2.25794 0
M  V30 6489 H 597.013 -3.62573 -0.541869 0
M  V30 6490 H 596.661 -4.05144 -2.98106 0
M  V30 6491 H 596.361 -5.51904 -2.01682 0
M  V30 6492 H 597.885 -5.35455 -2.93462 0
M  V30 6493 H 599.299 -5.69153 -0.688319 0
M  V30 6494 H 597.696 -6.00087 0.0398887 0
M  V30 6495 H 598.766 -4.78811 0.766057 0
M  V30 6496 N 600.109 -0.101901 -1.5727 0
M  V30 6497 C 601.039 0.851544 -2.17419 0
M  V30 6498 C 602.02 1.28942 -1.10941 0
M  V30 6499 O 603.205 1.35509 -1.39107 0
M  V30 6500 C 600.335 2.10816 -2.75996 0
M  V30 6501 C 599.289 1.80867 -3.87906 0
M  V30 6502 C 598.615 3.13413 -4.33216 0
M  V30 6503 C 599.915 1.0903 -5.10793 0
M  V30 6504 H 601.609 0.350381 -2.97343 0
M  V30 6505 H 599.155 0.16709 -1.43027 0
M  V30 6506 H 601.108 2.77959 -3.16729 0
M  V30 6507 H 599.832 2.63227 -1.93337 0
M  V30 6508 H 598.491 1.16119 -3.47724 0
M  V30 6509 H 598.139 3.63725 -3.47438 0
M  V30 6510 H 597.839 2.94155 -5.08671 0
M  V30 6511 H 599.363 3.81704 -4.76586 0
M  V30 6512 H 600.777 1.66295 -5.48652 0
M  V30 6513 H 599.174 0.99927 -5.91722 0
M  V30 6514 H 600.244 0.0741704 -4.84843 0
M  V30 6515 N 601.587 1.56661 0.17182 0
M  V30 6516 C 602.812 1.86459 0.908165 0
M  V30 6517 C 603.237 0.688181 1.75059 0
M  V30 6518 O 602.595 -0.362753 1.77634 0
M  V30 6519 C 602.643 3.14669 1.76112 0
M  V30 6520 O 601.747 2.96858 2.86268 0
M  V30 6521 H 601.088 0.613318 0.254434 0
M  V30 6522 H 603.618 2.03892 0.170113 0
M  V30 6523 H 603.628 3.46061 2.16115 0
M  V30 6524 H 602.303 3.99905 1.14233 0
M  V30 6525 H 600.88 2.76819 2.49852 0
M  V30 6526 N 603.065 -0.440357 1.51323 0
M  V30 6527 C 604.314 -1.18697 1.63076 0
M  V30 6528 C 604.627 -1.92418 0.35136 0
M  V30 6529 O 605.833 -2.69258 0.348221 0
M  V30 6530 C 604.289 -2.15849 2.87988 0
M  V30 6531 C 603.897 -1.47789 4.22921 0
M  V30 6532 C 605.641 -2.90962 3.09098 0
M  V30 6533 C 603.548 -2.43407 5.38987 0
M  V30 6534 H 602.478 -0.44676 0.607389 0
M  V30 6535 H 605.129 -0.454313 1.77787 0
M  V30 6536 H 603.511 -2.92537 2.66905 0
M  V30 6537 H 604.685 -0.7668 4.54375 0
M  V30 6538 H 603 -0.848404 4.07665 0
M  V30 6539 H 605.597 -3.62584 3.92985 0
M  V30 6540 H 605.94 -3.52133 2.22053 0
M  V30 6541 H 606.473 -2.21381 3.30507 0
M  V30 6542 H 603.212 -1.86929 6.28282 0
M  V30 6543 H 602.732 -3.12579 5.11913 0
M  V30 6544 H 604.411 -3.046 5.70813 0
M  V30 6545 N 604.543 -1.41418 -0.695603 0
M  V30 6546 C 605.49 -1.43264 -1.80954 0
M  V30 6547 C 606.46 -0.287016 -1.63601 0
M  V30 6548 O 607.645 -0.488054 -1.84452 0
M  V30 6549 C 604.785 -1.32054 -3.18835 0
M  V30 6550 C 603.898 -2.56485 -3.4762 0
M  V30 6551 C 603.033 -2.3757 -4.75115 0
M  V30 6552 C 602.072 -3.57477 -4.96867 0
M  V30 6553 N 601.209 -3.37632 -6.15588 0
M  V30 6554 H 606.049 -2.38467 -1.78711 0
M  V30 6555 H 603.586 -1.18415 -0.872715 0
M  V30 6556 H 605.544 -1.23558 -3.98484 0
M  V30 6557 H 604.174 -0.404592 -3.20254 0
M  V30 6558 H 603.226 -2.75432 -2.62376 0
M  V30 6559 H 604.538 -3.45678 -3.59594 0
M  V30 6560 H 603.692 -2.2654 -5.62818 0
M  V30 6561 H 602.431 -1.45834 -4.65386 0
M  V30 6562 H 601.436 -3.68961 -4.07612 0
M  V30 6563 H 602.661 -4.50167 -5.08455 0
M  V30 6564 H 600.607 -2.48596 -6.07072 0
M  V30 6565 H 600.524 -4.20401 -6.2833 0
M  V30 6566 H 601.792 -3.30375 -7.06026 0
M  V30 6567 N 606.021 0.929856 -1.27246 0
M  V30 6568 C 606.953 2.03434 -1.0558 0
M  V30 6569 C 607.966 1.62795 -0.0125762 0
M  V30 6570 O 609.155 1.76685 -0.2539 0
M  V30 6571 C 606.255 3.33915 -0.57912 0
M  V30 6572 C 605.428 4.03259 -1.69415 0
M  V30 6573 C 604.487 5.12014 -1.21357 0
M  V30 6574 O 603.513 5.36097 -1.91282 0
M  V30 6575 N 604.715 5.8046 -0.0680622 0
M  V30 6576 H 607.48 2.22583 -2.00691 0
M  V30 6577 H 605.041 1.1001 -1.18783 0
M  V30 6578 H 607.033 4.03978 -0.241563 0
M  V30 6579 H 605.603 3.11355 0.278703 0
M  V30 6580 H 604.823 3.26958 -2.20209 0
M  V30 6581 H 606.111 4.46337 -2.44255 0
M  V30 6582 H 605.509 5.63345 0.515626 0
M  V30 6583 H 604.066 6.51461 0.210332 0
M  V30 6584 N 607.499 1.09233 1.13605 0
M  V30 6585 C 608.724 0.849067 1.89224 0
M  V30 6586 C 609.149 -0.593875 1.78479 0
M  V30 6587 O 608.507 -1.41703 1.13092 0
M  V30 6588 C 608.555 1.28642 3.36873 0
M  V30 6589 O 607.659 0.44363 4.10007 0
M  V30 6590 H 607 0.30767 0.588417 0
M  V30 6591 H 609.53 1.45595 1.43748 0
M  V30 6592 H 609.54 1.27096 3.87699 0
M  V30 6593 H 608.215 2.33729 3.44011 0
M  V30 6594 H 606.792 0.523241 3.69211 0
M  V30 6595 N 608.977 -1.30795 0.87923 0
M  V30 6596 C 609.925 -2.30231 0.331112 0
M  V30 6597 C 610.919 -1.59918 -0.558794 0
M  V30 6598 O 612.125 -1.74441 -0.443866 0
M  V30 6599 H 608.5 -0.746785 0.088409 0
M  V30 6600 H 610.471 -2.73925 1.18353 0
M  V30 6601 C 609.22 -3.44848 -0.444401 0
M  V30 6602 H 608.543 -3.99131 0.231106 0
M  V30 6603 H 609.983 -4.16516 -0.793109 0
M  V30 6604 C 608.442 -2.94329 -1.63926 0
M  V30 6605 O 608.972 -2.93875 -2.73862 0
M  V30 6606 N 607.178 -2.50413 -1.4745 0
M  V30 6607 H 606.725 -2.50982 -0.58015 0
M  V30 6608 H 606.683 -2.16969 -2.27534 0
M  V30 6609 N 610.455 -0.639598 -1.44038 0
M  V30 6610 C 611.701 -0.147698 -2.02261 0
M  V30 6611 C 612.034 1.23031 -1.50256 0
M  V30 6612 O 611.309 1.81847 -0.690068 0
M  V30 6613 C 611.592 -0.14362 -3.59813 0
M  V30 6614 C 611.445 -1.55458 -4.22082 0
M  V30 6615 C 612.764 0.527317 -4.36929 0
M  V30 6616 H 609.883 -0.0551453 -0.734934 0
M  V30 6617 H 612.525 -0.817688 -1.71505 0
M  V30 6618 H 610.675 0.426898 -3.86147 0
M  V30 6619 H 612.347 -2.17464 -4.06826 0
M  V30 6620 H 610.59 -2.10594 -3.79253 0
M  V30 6621 H 611.261 -1.50369 -5.31124 0
M  V30 6622 H 613.737 0.0420504 -4.16079 0
M  V30 6623 H 612.613 0.499389 -5.46624 0
M  V30 6624 H 612.874 1.59914 -4.12165 0
M  V30 6625 N 611.933 1.52934 -0.380664 0
M  V30 6626 C 613.18 2.01467 0.204278 0
M  V30 6627 C 613.508 1.26744 1.47533 0
M  V30 6628 O 612.763 0.353723 1.92477 0
M  V30 6629 C 613.062 3.5349 0.527199 0
M  V30 6630 C 612.728 4.46171 -0.651295 0
M  V30 6631 C 611.39 4.71227 -0.974619 0
M  V30 6632 C 613.742 5.00909 -1.44012 0
M  V30 6633 C 611.07 5.4827 -2.08847 0
M  V30 6634 C 613.422 5.7917 -2.5445 0
M  V30 6635 C 612.086 6.02507 -2.87301 0
M  V30 6636 H 611.356 0.73722 0.0747504 0
M  V30 6637 H 614.003 1.84411 -0.516234 0
M  V30 6638 H 612.308 3.68574 1.32892 0
M  V30 6639 H 614.005 3.88529 0.992283 0
M  V30 6640 H 610.595 4.26829 -0.389276 0
M  V30 6641 H 614.779 4.81485 -1.20357 0
M  V30 6642 H 610.035 5.64567 -2.34679 0
M  V30 6643 H 614.209 6.20588 -3.1598 0
M  V30 6644 H 611.836 6.61989 -3.7373 0
M  V30 6645 N 613.412 0.11024 1.57214 0
M  V30 6646 C 614.359 -0.843195 2.14846 0
M  V30 6647 C 615.329 -1.26954 1.07107 0
M  V30 6648 O 616.514 -1.34861 1.34971 0
M  V30 6649 C 613.654 -2.09123 2.74521 0
M  V30 6650 C 612.767 -1.71404 3.96541 0
M  V30 6651 C 611.902 -2.91107 4.44331 0
M  V30 6652 C 610.941 -2.49586 5.58903 0
M  V30 6653 N 610.078 -3.62175 6.01477 0
M  V30 6654 H 614.918 -0.344886 2.95998 0
M  V30 6655 H 612.455 -0.15855 1.46243 0
M  V30 6656 H 614.413 -2.82234 3.07246 0
M  V30 6657 H 613.043 -2.56427 1.96074 0
M  V30 6658 H 612.095 -0.88201 3.70033 0
M  V30 6659 H 613.407 -1.36884 4.7965 0
M  V30 6660 H 612.561 -3.72454 4.78919 0
M  V30 6661 H 611.3 -3.28848 3.60153 0
M  V30 6662 H 610.305 -1.6667 5.23929 0
M  V30 6663 H 611.53 -2.12973 6.4484 0
M  V30 6664 H 609.476 -3.99605 5.20242 0
M  V30 6665 H 609.393 -3.3155 6.79419 0
M  V30 6666 H 610.661 -4.43987 6.407 0
M  V30 6667 N 614.89 -1.56749 -0.16351 0
M  V30 6668 C 615.838 -1.97939 -1.22159 0
M  V30 6669 C 616.832 -0.869288 -1.45395 0
M  V30 6670 O 618.038 -1.05443 -1.45883 0
M  V30 6671 H 614.413 -0.629869 -0.410815 0
M  V30 6672 H 616.384 -2.86115 -0.847381 0
M  V30 6673 C 615.133 -2.36206 -2.55151 0
M  V30 6674 H 614.456 -3.2117 -2.38097 0
M  V30 6675 H 615.896 -2.68863 -3.27854 0
M  V30 6676 C 614.355 -1.20841 -3.14482 0
M  V30 6677 O 614.885 -0.500258 -3.98573 0
M  V30 6678 N 613.091 -0.976943 -2.73686 0
M  V30 6679 H 612.638 -1.55457 -2.05404 0
M  V30 6680 H 612.596 -0.206912 -3.13718 0
M  V30 6681 N 616.368 0.432326 -1.51554 0
M  V30 6682 C 617.298 1.53242 -1.76179 0
M  V30 6683 C 618.279 1.58717 -0.611801 0
M  V30 6684 O 619.464 1.74364 -0.855033 0
M  V30 6685 C 616.594 2.91278 -1.89141 0
M  V30 6686 C 615.548 3.00663 -3.04608 0
M  V30 6687 C 614.874 4.40728 -3.02759 0
M  V30 6688 C 616.174 2.74281 -4.44485 0
M  V30 6689 H 617.868 1.32886 -2.68294 0
M  V30 6690 H 615.414 0.637841 -1.29103 0
M  V30 6691 H 617.367 3.68203 -2.04951 0
M  V30 6692 H 616.091 3.12877 -0.936785 0
M  V30 6693 H 614.75 2.26179 -2.88511 0
M  V30 6694 H 614.398 4.59301 -2.05065 0
M  V30 6695 H 614.098 4.47936 -3.80299 0
M  V30 6696 H 615.622 5.19619 -3.20669 0
M  V30 6697 H 617.036 3.40936 -4.60907 0
M  V30 6698 H 615.433 2.92893 -5.23769 0
M  V30 6699 H 616.503 1.69856 -4.54177 0
M  V30 6700 N 617.846 1.41785 0.688094 0
M  V30 6701 C 619.074 1.44915 1.47673 0
M  V30 6702 C 619.489 0.0565786 1.88715 0
M  V30 6703 O 618.846 -0.92579 1.57275 0
M  V30 6704 C 618.897 2.36452 2.73446 0
M  V30 6705 O 618.618 3.7029 2.34131 0
M  V30 6706 C 620.119 2.48463 3.67125 0
M  V30 6707 H 617.339 0.493324 0.454832 0
M  V30 6708 H 619.883 1.86153 0.846594 0
M  V30 6709 H 618.038 1.98502 3.3268 0
M  V30 6710 H 618.452 4.19183 3.15255 0
M  V30 6711 H 619.926 3.16662 4.52138 0
M  V30 6712 H 620.403 1.51826 4.12123 0
M  V30 6713 H 621.009 2.8708 3.13792 0
M  V30 6714 N 619.324 -0.923095 1.27737 0
M  V30 6715 C 620.287 -2.00587 1.10894 0
M  V30 6716 C 621.287 -1.60718 0.0514927 0
M  V30 6717 O 622.477 -1.71658 0.296481 0
M  V30 6718 C 619.609 -3.33829 0.690717 0
M  V30 6719 H 620.802 -2.16959 2.07048 0
M  V30 6720 H 618.355 -1.10451 1.1059 0
M  V30 6721 H 619.09 -3.23157 -0.272 0
M  V30 6722 H 618.875 -3.64125 1.45448 0
M  V30 6723 H 620.365 -4.13336 0.595252 0
M  V30 6724 N 620.802 -1.09834 -1.13024 0
M  V30 6725 C 622.03 -0.858902 -1.8823 0
M  V30 6726 C 622.445 0.590164 -1.79339 0
M  V30 6727 O 621.802 1.4065 -1.16292 0
M  V30 6728 C 621.853 -1.29066 -3.37675 0
M  V30 6729 O 621.574 -2.6829 -3.46341 0
M  V30 6730 C 623.075 -1.08421 -4.29837 0
M  V30 6731 H 620.295 -0.308713 -0.595766 0
M  V30 6732 H 622.839 -1.4614 -1.4305 0
M  V30 6733 H 620.994 -0.731961 -3.80422 0
M  V30 6734 H 621.408 -2.86598 -4.39274 0
M  V30 6735 H 622.882 -1.43553 -5.33007 0
M  V30 6736 H 623.359 -0.0223315 -4.39194 0
M  V30 6737 H 623.965 -1.62907 -3.92863 0
M  V30 6738 N 622.28 1.30327 -0.886154 0
M  V30 6739 C 623.21 2.30549 -0.370028 0
M  V30 6740 C 624.191 1.61039 0.547751 0
M  V30 6741 O 625.376 1.8864 0.461353 0
M  V30 6742 C 622.506 3.44808 0.415275 0
M  V30 6743 C 621.46 4.26024 -0.41085 0
M  V30 6744 C 620.786 5.32347 0.501128 0
M  V30 6745 C 622.086 4.95433 -1.65359 0
M  V30 6746 H 623.78 2.73969 -1.20754 0
M  V30 6747 H 621.326 1.3171 -0.582097 0
M  V30 6748 H 623.279 4.13986 0.78699 0
M  V30 6749 H 622.003 3.00197 1.28644 0
M  V30 6750 H 620.662 3.58535 -0.764719 0
M  V30 6751 H 620.31 4.83982 1.37004 0
M  V30 6752 H 620.01 5.87581 -0.0478356 0
M  V30 6753 H 621.534 6.0438 0.869333 0
M  V30 6754 H 622.948 5.5712 -1.35239 0
M  V30 6755 H 621.345 5.60537 -2.14284 0
M  V30 6756 H 622.415 4.21493 -2.39733 0
M  V30 6757 N 623.758 0.647228 1.43697 0
M  V30 6758 C 625.007 0.155552 2.01099 0
M  V30 6759 C 625.32 -1.23569 1.51624 0
M  V30 6760 O 626.526 -1.82226 2.01261 0
M  V30 6761 C 624.982 0.227296 3.59182 0
M  V30 6762 C 624.59 1.62086 4.17651 0
M  V30 6763 C 626.334 -0.207085 4.23995 0
M  V30 6764 C 624.241 1.64685 5.68008 0
M  V30 6765 H 623.171 0.0543895 0.752036 0
M  V30 6766 H 625.822 0.808386 1.64734 0
M  V30 6767 H 624.204 -0.492937 3.9292 0
M  V30 6768 H 625.378 2.36597 3.95422 0
M  V30 6769 H 623.693 2.0007 3.65186 0
M  V30 6770 H 626.29 -0.207426 5.34298 0
M  V30 6771 H 626.633 -1.23742 3.97484 0
M  V30 6772 H 627.166 0.461193 3.95118 0
M  V30 6773 H 623.905 2.65608 5.99277 0
M  V30 6774 H 623.425 0.944914 5.9231 0
M  V30 6775 H 625.104 1.38792 6.31938 0
M  V30 6776 N 625.236 -1.5273 0.388769 0
M  V30 6777 C 626.482 -2.01871 -0.193877 0
M  V30 6778 C 626.815 -1.27475 -1.46505 0
M  V30 6779 O 626.09 -0.375063 -1.90849 0
M  V30 6780 C 626.373 -3.5712 -0.462336 0
M  V30 6781 C 626.226 -4.42186 0.824091 0
M  V30 6782 C 627.545 -4.21881 -1.25319 0
M  V30 6783 H 624.664 -0.733764 -0.0689899 0
M  V30 6784 H 627.306 -1.82796 0.518231 0
M  V30 6785 H 625.456 -3.73504 -1.06896 0
M  V30 6786 H 627.128 -4.37554 1.46096 0
M  V30 6787 H 625.371 -4.09219 1.43952 0
M  V30 6788 H 626.042 -5.48828 0.590905 0
M  V30 6789 H 628.518 -4.0947 -0.73981 0
M  V30 6790 H 627.394 -5.30487 -1.40977 0
M  V30 6791 H 627.655 -3.79478 -2.26824 0
M  V30 6792 N 626.714 -0.118576 -1.57153 0
M  V30 6793 C 627.662 0.849114 -2.16547 0
M  V30 6794 C 628.656 1.27567 -1.11458 0
M  V30 6795 O 629.862 1.24746 -1.29763 0
M  V30 6796 H 626.237 0.291935 -0.693021 0
M  V30 6797 H 628.208 0.323693 -2.96639 0
M  V30 6798 C 626.957 2.08951 -2.77912 0
M  V30 6799 H 626.28 1.77021 -3.58474 0
M  V30 6800 H 627.72 2.74666 -3.23008 0
M  V30 6801 C 626.179 2.87899 -1.74974 0
M  V30 6802 O 626.709 3.83268 -1.20285 0
M  V30 6803 N 624.915 2.51884 -1.44924 0
M  V30 6804 H 624.462 1.74397 -1.89587 0
M  V30 6805 H 624.42 3.05003 -0.762921 0
M  V30 6806 N 628.193 1.56834 0.155195 0
M  V30 6807 C 629.439 1.83169 0.870467 0
M  V30 6808 C 629.772 0.698929 1.81187 0
M  V30 6809 O 629.047 -0.298035 1.92203 0
M  V30 6810 C 629.33 3.19965 1.65211 0
M  V30 6811 C 629.183 4.43792 0.732744 0
M  V30 6812 C 630.502 3.53885 2.61636 0
M  V30 6813 H 627.621 0.666288 0.315006 0
M  V30 6814 H 630.263 1.89513 0.135988 0
M  V30 6815 H 628.413 3.14687 2.27825 0
M  V30 6816 H 630.085 4.61148 0.118236 0
M  V30 6817 H 628.328 4.3378 0.0417906 0
M  V30 6818 H 628.999 5.36095 1.31552 0
M  V30 6819 H 631.475 3.5972 2.09143 0
M  V30 6820 H 630.351 4.50648 3.13381 0
M  V30 6821 H 630.612 2.79418 3.42605 0
M  V30 6822 N 629.671 -0.424282 1.51781 0
M  V30 6823 C 630.618 -1.51591 1.74037 0
M  V30 6824 C 631.588 -1.55556 0.582358 0
M  V30 6825 O 632.773 -1.72364 0.818245 0
M  V30 6826 C 629.913 -2.89188 1.8832 0
M  V30 6827 C 629.026 -2.9465 3.1592 0
M  V30 6828 C 628.161 -4.23452 3.20721 0
M  V30 6829 C 627.2 -4.22831 4.42584 0
M  V30 6830 N 626.337 -5.43178 4.44862 0
M  V30 6831 H 631.177 -1.31917 2.67212 0
M  V30 6832 H 628.714 -0.640599 1.32419 0
M  V30 6833 H 630.672 -3.69044 1.94583 0
M  V30 6834 H 629.302 -3.07392 0.985402 0
M  V30 6835 H 628.354 -2.07378 3.18902 0
M  V30 6836 H 629.666 -2.90055 4.05795 0
M  V30 6837 H 628.82 -5.1169 3.25973 0
M  V30 6838 H 627.559 -4.30722 2.28757 0
M  V30 6839 H 626.564 -3.32984 4.37495 0
M  V30 6840 H 627.789 -4.17213 5.35826 0
M  V30 6841 H 625.735 -5.51145 3.55775 0
M  V30 6842 H 625.652 -5.40515 5.28563 0
M  V30 6843 H 626.92 -6.33412 4.54324 0
M  V30 6844 N 631.149 -1.42148 -0.680565 0
M  V30 6845 C 632.56 -1.3768 -1.26099 0
M  V30 6846 C 632.911 -0.0672348 -1.96085 0
M  V30 6847 O 632.036 0.834172 -1.99676 0
M  V30 6848 C 632.631 -2.49387 -2.29328 0
M  V30 6849 C 631.19 -2.4827 -2.82911 0
M  V30 6850 C 630.337 -2.2847 -1.57152 0
M  V30 6851 H 633.288 -1.51446 -0.474326 0
M  V30 6852 H 633.309 -2.19307 -3.10941 0
M  V30 6853 H 632.821 -3.44686 -1.78363 0
M  V30 6854 H 630.922 -1.56773 -3.38013 0
M  V30 6855 H 631.035 -3.45109 -3.3232 0
M  V30 6856 H 629.399 -1.76623 -1.83511 0
M  V30 6857 H 630.182 -3.25816 -1.0816 0
M  V30 6858 N 632.627 0.916307 -1.28225 0
M  V30 6859 C 633.559 2.02303 -1.07732 0
M  V30 6860 C 634.572 1.62773 -0.0298421 0
M  V30 6861 O 635.761 1.76406 -0.272626 0
M  V30 6862 C 632.861 3.33282 -0.614504 0
M  V30 6863 C 632.034 4.01439 -1.73682 0
M  V30 6864 C 631.093 5.10698 -1.26781 0
M  V30 6865 O 630.119 5.34038 -1.96958 0
M  V30 6866 N 631.321 5.80355 -0.129624 0
M  V30 6867 H 634.086 2.20442 -2.03041 0
M  V30 6868 H 631.647 1.08744 -1.19943 0
M  V30 6869 H 633.639 4.03699 -0.284397 0
M  V30 6870 H 632.209 3.11633 0.245664 0
M  V30 6871 H 631.429 3.24604 -2.23665 0
M  V30 6872 H 632.717 4.43721 -2.48976 0
M  V30 6873 H 632.115 5.6386 0.455847 0
M  V30 6874 H 630.672 6.51647 0.141224 0
M  V30 6875 N 634.105 1.10431 1.1244 0
M  V30 6876 C 635.354 0.841539 1.83306 0
M  V30 6877 C 635.667 -0.634961 1.85007 0
M  V30 6878 O 636.873 -1.01363 2.51869 0
M  V30 6879 C 635.329 1.45565 3.29149 0
M  V30 6880 C 634.937 2.96544 3.35806 0
M  V30 6881 C 636.681 1.27227 4.04986 0
M  V30 6882 C 634.588 3.5099 4.75983 0
M  V30 6883 H 633.518 0.311156 0.686803 0
M  V30 6884 H 636.169 1.32829 1.26604 0
M  V30 6885 H 634.551 0.896574 3.85717 0
M  V30 6886 H 635.725 3.58766 2.89177 0
M  V30 6887 H 634.04 3.14036 2.73442 0
M  V30 6888 H 636.637 1.65348 5.08492 0
M  V30 6889 H 636.98 0.213834 4.1575 0
M  V30 6890 H 637.513 1.79941 3.54776 0
M  V30 6891 H 634.252 4.56499 4.70413 0
M  V30 6892 H 633.772 2.93535 5.23065 0
M  V30 6893 H 635.451 3.48808 5.44924 0
M  V30 6894 N 635.583 -1.29855 0.893053 0
M  V30 6895 C 636.813 -1.99686 0.530019 0
M  V30 6896 C 637.221 -1.67066 -0.888012 0
M  V30 6897 O 636.564 -0.908366 -1.5967 0
M  V30 6898 C 636.626 -3.53855 0.63457 0
M  V30 6899 C 636.29 -4.10013 2.01837 0
M  V30 6900 C 637.287 -4.25406 2.98874 0
M  V30 6901 C 634.972 -4.45202 2.32595 0
M  V30 6902 C 636.966 -4.7521 4.24799 0
M  V30 6903 C 634.653 -4.94704 3.58763 0
M  V30 6904 C 635.651 -5.09662 4.5468 0
M  V30 6905 O 635.339 -5.58093 5.78608 0
M  V30 6906 H 635.071 -0.644913 0.20264 0
M  V30 6907 H 637.625 -1.66518 1.20253 0
M  V30 6908 H 635.855 -3.86583 -0.0949477 0
M  V30 6909 H 637.544 -4.04922 0.281648 0
M  V30 6910 H 638.31 -3.98515 2.76425 0
M  V30 6911 H 634.189 -4.32822 1.58701 0
M  V30 6912 H 637.733 -4.86801 4.99671 0
M  V30 6913 H 633.63 -5.21032 3.81046 0
M  V30 6914 H 634.398 -5.7642 5.81104 0
M  V30 6915 N 637.061 -0.65484 -1.43351 0
M  V30 6916 C 637.971 0.0363603 -2.34572 0
M  V30 6917 C 638.987 0.810432 -1.53974 0
M  V30 6918 O 640.163 0.757308 -1.86619 0
M  V30 6919 C 637.228 0.989733 -3.32273 0
M  V30 6920 C 636.289 0.212414 -4.28774 0
M  V30 6921 C 635.522 1.12038 -5.21808 0
M  V30 6922 O 635.745 2.35967 -5.19303 0
M  V30 6923 O 634.679 0.59191 -5.98982 0
M  V30 6924 H 638.505 -0.714527 -2.95175 0
M  V30 6925 H 636.09 -0.415029 -1.4352 0
M  V30 6926 H 637.972 1.53759 -3.92347 0
M  V30 6927 H 636.647 1.72082 -2.74171 0
M  V30 6928 H 635.554 -0.379062 -3.72175 0
M  V30 6929 H 636.887 -0.479138 -4.89862 0
M  V30 6930 N 638.539 1.52521 -0.396863 0
M  V30 6931 C 639.486 2.26671 0.434624 0
M  V30 6932 C 640.456 1.28584 1.05144 0
M  V30 6933 O 641.641 1.57426 1.07804 0
M  V30 6934 C 638.781 3.08234 1.55196 0
M  V30 6935 C 637.894 4.21261 0.957262 0
M  V30 6936 C 637.029 4.90205 2.04627 0
M  V30 6937 C 636.068 5.95213 1.42787 0
M  V30 6938 N 635.205 6.57723 2.45651 0
M  V30 6939 H 640.045 2.973 -0.204139 0
M  V30 6940 H 637.582 1.46669 -0.112505 0
M  V30 6941 H 639.54 3.53819 2.2106 0
M  V30 6942 H 638.17 2.398 2.16092 0
M  V30 6943 H 637.222 3.79935 0.188005 0
M  V30 6944 H 638.534 4.96624 0.465416 0
M  V30 6945 H 637.688 5.39133 2.78246 0
M  V30 6946 H 636.427 4.14383 2.57174 0
M  V30 6947 H 635.432 5.45616 0.676968 0
M  V30 6948 H 636.657 6.72972 0.910255 0
M  V30 6949 H 634.603 5.84737 2.97353 0
M  V30 6950 H 634.52 7.28723 2.01243 0
M  V30 6951 H 635.788 7.11293 3.18876 0
M  V30 6952 N 640.017 0.126909 1.57088 0
M  V30 6953 C 640.98 -0.806097 2.14557 0
M  V30 6954 C 641.98 -1.18918 1.08236 0
M  V30 6955 O 643.17 -1.11339 1.33975 0
M  V30 6956 C 640.302 -2.09116 2.69227 0
M  V30 6957 H 641.495 -0.306522 2.98329 0
M  V30 6958 H 639.048 -0.122393 1.5582 0
M  V30 6959 H 639.783 -2.63486 1.89065 0
M  V30 6960 H 639.568 -1.82588 3.46993 0
M  V30 6961 H 641.058 -2.75794 3.13572 0
M  V30 6962 N 641.495 -1.56914 -0.146875 0
M  V30 6963 C 642.741 -1.83628 -0.860741 0
M  V30 6964 C 643.074 -0.708528 -1.80813 0
M  V30 6965 O 642.349 0.287838 -1.92358 0
M  V30 6966 C 642.632 -3.20836 -1.63511 0
M  V30 6967 C 642.485 -4.44174 -0.709199 0
M  V30 6968 C 643.804 -3.55268 -2.59756 0
M  V30 6969 H 640.923 -0.667949 -0.311468 0
M  V30 6970 H 643.565 -1.89582 -0.125936 0
M  V30 6971 H 641.715 -3.15891 -2.26153 0
M  V30 6972 H 643.387 -4.61205 -0.0937781 0
M  V30 6973 H 641.63 -4.33796 -0.0187856 0
M  V30 6974 H 642.301 -5.36785 -1.28707 0
M  V30 6975 H 644.777 -3.60824 -2.07232 0
M  V30 6976 H 643.653 -4.52303 -3.10987 0
M  V30 6977 H 643.914 -2.81231 -3.41118 0
M  V30 6978 N 642.974 0.416227 -1.52004 0
M  V30 6979 C 644.199 1.19029 -1.69843 0
M  V30 6980 C 644.624 1.83708 -0.404103 0
M  V30 6981 O 643.982 1.69711 0.637787 0
M  V30 6982 C 644.03 2.23439 -2.83032 0
M  V30 6983 O 643.134 3.29419 -2.48106 0
M  V30 6984 H 642.475 0.347785 -0.565634 0
M  V30 6985 H 645.005 0.488871 -1.98674 0
M  V30 6986 H 645.015 2.67884 -3.07737 0
M  V30 6987 H 643.69 1.75745 -3.76944 0
M  V30 6988 H 642.267 2.90303 -2.34048 0
M  V30 6989 N 644.452 1.42507 0.673017 0
M  V30 6990 C 645.677 1.4668 1.46627 0
M  V30 6991 C 646.102 0.080066 1.8793 0
M  V30 6992 O 645.46 -0.921879 1.56112 0
M  V30 6993 C 645.508 2.40091 2.69051 0
M  V30 6994 O 644.612 1.8735 3.67387 0
M  V30 6995 H 643.953 0.496908 0.44043 0
M  V30 6996 H 646.483 1.87215 0.825334 0
M  V30 6997 H 646.493 2.56731 3.17101 0
M  V30 6998 H 645.168 3.4084 2.3833 0
M  V30 6999 H 643.745 1.80274 3.26429 0
M  V30 7000 N 645.93 -0.909495 1.28709 0
M  V30 7001 C 647.177 -1.65905 1.16111 0
M  V30 7002 C 647.505 -1.92334 -0.289436 0
M  V30 7003 O 646.76 -1.52495 -1.22653 0
M  V30 7004 C 647.059 -3.02117 1.90945 0
M  V30 7005 C 646.725 -2.95332 3.40719 0
M  V30 7006 C 645.387 -2.93189 3.81567 0
M  V30 7007 C 647.739 -2.85264 4.36204 0
M  V30 7008 C 645.067 -2.78784 5.16233 0
M  V30 7009 C 647.419 -2.724 5.70948 0
M  V30 7010 C 646.083 -2.68617 6.11066 0
M  V30 7011 H 645.353 -0.60709 0.42488 0
M  V30 7012 H 648 -1.05932 1.59533 0
M  V30 7013 H 646.305 -3.65901 1.40085 0
M  V30 7014 H 648.002 -3.59026 1.7861 0
M  V30 7015 H 644.592 -2.97797 3.08245 0
M  V30 7016 H 648.776 -2.86005 4.05605 0
M  V30 7017 H 644.032 -2.74254 5.46438 0
M  V30 7018 H 648.206 -2.63579 6.44592 0
M  V30 7019 H 645.833 -2.57213 7.15364 0
M  V30 7020 N 647.408 -1.11026 -1.11852 0
M  V30 7021 C 648.819 -0.873203 -1.65021 0
M  V30 7022 C 649.17 0.595364 -1.86949 0
M  V30 7023 O 648.295 1.45645 -1.60051 0
M  V30 7024 C 648.89 -1.57859 -2.99777 0
M  V30 7025 C 647.449 -1.38807 -3.49871 0
M  V30 7026 C 646.596 -1.62403 -2.24768 0
M  V30 7027 H 649.547 -1.26712 -0.955503 0
M  V30 7028 H 649.568 -1.02111 -3.66543 0
M  V30 7029 H 649.08 -2.6474 -2.83786 0
M  V30 7030 H 647.181 -0.341163 -3.71035 0
M  V30 7031 H 647.294 -2.13421 -4.28938 0
M  V30 7032 H 645.658 -1.04714 -2.32179 0
M  V30 7033 H 646.441 -2.70549 -2.11324 0
M  V30 7034 N 648.886 1.2938 -0.899927 0
M  V30 7035 C 650.163 1.9046 -0.445443 0
M  V30 7036 C 650.543 1.81683 1.07492 0
M  V30 7037 O 649.891 1.24371 1.91688 0
M  V30 7038 C 650.101 3.35529 -0.960279 0
M  V30 7039 C 651.449 4.12556 -1.00412 0
M  V30 7040 O 652.473 3.44434 -0.907965 0
M  V30 7041 O 651.332 5.34294 -1.14857 0
M  V30 7042 H 648.426 0.815253 -0.138893 0
M  V30 7043 H 650.972 1.37844 -0.989808 0
M  V30 7044 H 649.744 3.36074 -2.00425 0
M  V30 7045 H 649.367 3.95624 -0.395939 0
M  V30 7046 N 650.364 0.662433 1.43002 0
M  V30 7047 C 651.775 0.258315 1.84904 0
M  V30 7048 C 652.126 -1.19703 1.55453 0
M  V30 7049 O 651.251 -1.91484 1.00811 0
M  V30 7050 C 651.846 0.462047 3.35635 0
M  V30 7051 C 650.405 0.112165 3.76233 0
M  V30 7052 C 649.552 0.760479 2.66668 0
M  V30 7053 H 652.503 0.865467 1.33024 0
M  V30 7054 H 652.524 -0.289646 3.79396 0
M  V30 7055 H 652.036 1.52135 3.57039 0
M  V30 7056 H 650.137 -0.944179 3.60439 0
M  V30 7057 H 650.25 0.544058 4.76001 0
M  V30 7058 H 648.614 0.192887 2.53969 0
M  V30 7059 H 649.397 1.82299 2.90898 0
M  V30 7060 N 651.842 -1.52309 0.404946 0
M  V30 7061 C 652.805 -2.25491 -0.410651 0
M  V30 7062 C 653.805 -1.27704 -0.977154 0
M  V30 7063 O 654.995 -1.51679 -0.856691 0
M  V30 7064 C 652.127 -3.02197 -1.57765 0
M  V30 7065 H 653.32 -2.99015 0.230277 0
M  V30 7066 H 650.873 -1.55506 0.157377 0
M  V30 7067 H 651.608 -2.33013 -2.25556 0
M  V30 7068 H 651.393 -3.73987 -1.17797 0
M  V30 7069 H 652.883 -3.57719 -2.15469 0
M  V30 7070 N 653.32 -0.135238 -1.57019 0
M  V30 7071 C 654.25 0.805235 -2.19176 0
M  V30 7072 C 655.231 1.2656 -1.13651 0
M  V30 7073 O 656.416 1.32528 -1.4195 0
M  V30 7074 C 653.546 2.04914 -2.80406 0
M  V30 7075 C 652.5 1.72598 -3.91655 0
M  V30 7076 C 651.826 3.04154 -4.39766 0
M  V30 7077 C 653.126 0.981709 -5.12991 0
M  V30 7078 H 654.82 0.287232 -2.98019 0
M  V30 7079 H 652.366 0.136714 -1.4335 0
M  V30 7080 H 654.319 2.71178 -3.22553 0
M  V30 7081 H 653.043 2.59067 -1.98877 0
M  V30 7082 H 651.702 1.08717 -3.50109 0
M  V30 7083 H 651.35 3.56274 -3.55075 0
M  V30 7084 H 651.05 2.83299 -5.14796 0
M  V30 7085 H 652.574 3.71509 -4.84576 0
M  V30 7086 H 653.988 1.5462 -5.52056 0
M  V30 7087 H 652.385 0.873533 -5.93708 0
M  V30 7088 H 653.455 -0.0286887 -4.84892 0
M  V30 7089 N 654.798 1.5699 0.138552 0
M  V30 7090 C 656.028 1.87704 0.863184 0
M  V30 7091 C 656.436 0.722411 1.74865 0
M  V30 7092 O 655.779 -0.316636 1.80951 0
M  V30 7093 C 655.841 3.13219 1.76449 0
M  V30 7094 C 655.505 4.44648 1.05532 0
M  V30 7095 C 656.502 5.18318 0.405252 0
M  V30 7096 C 654.187 4.91367 1.04231 0
M  V30 7097 C 656.181 6.36916 -0.24835 0
M  V30 7098 C 653.868 6.09887 0.384904 0
M  V30 7099 C 654.866 6.82508 -0.259292 0
M  V30 7100 O 654.554 7.98775 -0.906258 0
M  V30 7101 H 654.286 0.626255 0.254521 0
M  V30 7102 H 656.84 2.04966 0.133472 0
M  V30 7103 H 655.07 2.91988 2.53535 0
M  V30 7104 H 656.759 3.30111 2.36181 0
M  V30 7105 H 657.525 4.83289 0.407053 0
M  V30 7106 H 653.404 4.34759 1.53315 0
M  V30 7107 H 656.948 6.93538 -0.751755 0
M  V30 7108 H 652.845 6.44376 0.380799 0
M  V30 7109 H 653.613 8.14494 -0.80877 0
M  V30 7110 N 656.276 -0.40816 1.52223 0
M  V30 7111 C 657.687 -0.986929 1.58482 0
M  V30 7112 C 658.038 -1.91521 0.425917 0
M  V30 7113 O 657.163 -2.11593 -0.453593 0
M  V30 7114 C 657.758 -1.7967 2.87235 0
M  V30 7115 C 656.317 -2.32549 2.9597 0
M  V30 7116 C 655.464 -1.12558 2.53428 0
M  V30 7117 H 658.415 -0.188362 1.57578 0
M  V30 7118 H 658.436 -2.65417 2.72642 0
M  V30 7119 H 657.948 -1.12082 3.71563 0
M  V30 7120 H 656.049 -3.03505 2.16137 0
M  V30 7121 H 656.162 -2.63348 4.00231 0
M  V30 7122 H 654.526 -1.47984 2.07299 0
M  V30 7123 H 655.309 -0.465351 3.40131 0
M  V30 7124 N 657.755 -1.42862 -0.66545 0
M  V30 7125 C 658.685 -1.49867 -1.79059 0
M  V30 7126 C 659.666 -0.354394 -1.66367 0
M  V30 7127 O 660.851 -0.569969 -1.85647 0
M  V30 7128 C 657.981 -1.40943 -3.17415 0
M  V30 7129 C 656.935 -2.53495 -3.44854 0
M  V30 7130 C 656.261 -2.29626 -4.82883 0
M  V30 7131 C 657.561 -3.95781 -3.40815 0
M  V30 7132 H 659.255 -2.44037 -1.73453 0
M  V30 7133 H 656.801 -1.17456 -0.833071 0
M  V30 7134 H 658.754 -1.4445 -3.95869 0
M  V30 7135 H 657.478 -0.432716 -3.23721 0
M  V30 7136 H 656.137 -2.4932 -2.68766 0
M  V30 7137 H 655.785 -1.30226 -4.8585 0
M  V30 7138 H 655.485 -3.05065 -5.02204 0
M  V30 7139 H 657.009 -2.34897 -5.63609 0
M  V30 7140 H 658.423 -4.01508 -4.09224 0
M  V30 7141 H 656.82 -4.71148 -3.71672 0
M  V30 7142 H 657.89 -4.21786 -2.39216 0
M  V30 7143 N 659.233 0.902656 -1.29189 0
M  V30 7144 C 660.481 1.6496 -1.16758 0
M  V30 7145 C 660.802 1.92952 0.28188 0
M  V30 7146 O 660.072 1.55351 1.19344 0
M  V30 7147 H 658.652 0.611447 -0.429118 0
M  V30 7148 H 661.314 1.0825 -1.62074 0
M  V30 7149 H 660.41 2.60728 -1.71544 0
M  V30 7150 N 660.711 1.11618 1.11262 0
M  V30 7151 C 661.936 0.889013 1.8738 0
M  V30 7152 C 662.361 -0.555884 1.79698 0
M  V30 7153 O 661.719 -1.39272 1.16073 0
M  V30 7154 C 661.767 1.35759 3.34069 0
M  V30 7155 O 660.871 0.530499 4.08974 0
M  V30 7156 H 660.212 0.320082 0.581759 0
M  V30 7157 H 662.742 1.48611 1.40627 0
M  V30 7158 H 662.752 1.35291 3.84916 0
M  V30 7159 H 661.427 2.40973 3.38976 0
M  V30 7160 H 660.004 0.601439 3.68018 0
M  V30 7161 N 662.189 -1.289 0.906776 0
M  V30 7162 C 663.605 -1.47733 0.603902 0
M  V30 7163 C 663.805 -1.82568 -0.852702 0
M  V30 7164 O 662.861 -1.92642 -1.63234 0
M  V30 7165 C 664.174 -2.58522 1.53581 0
M  V30 7166 C 665.722 -2.72394 1.54177 0
M  V30 7167 C 666.197 -3.86318 2.46013 0
M  V30 7168 N 667.688 -3.93661 2.441 0
M  V30 7169 C 668.423 -4.81177 3.11859 0
M  V30 7170 N 667.919 -5.73333 3.88923 0
M  V30 7171 N 669.712 -4.74728 3.00981 0
M  V30 7172 H 661.863 -1.04567 1.84877 0
M  V30 7173 H 664.126 -0.520118 0.792579 0
M  V30 7174 H 663.832 -2.39667 2.57396 0
M  V30 7175 H 663.706 -3.55475 1.26165 0
M  V30 7176 H 666.093 -2.90641 0.511034 0
M  V30 7177 H 666.174 -1.75993 1.85634 0
M  V30 7178 H 665.818 -3.68826 3.49185 0
M  V30 7179 H 665.748 -4.82102 2.11862 0
M  V30 7180 H 668.239 -3.27751 1.88115 0
M  V30 7181 H 668.552 -6.36923 4.37663 0
M  V30 7182 H 666.897 -5.73196 3.93029 0
M  V30 7183 H 670.088 -4.01722 2.40286 0
M  V30 7184 H 670.261 -5.42719 3.54062 0
M  V30 7185 N 663.667 -0.670007 -1.42649 0
M  V30 7186 C 664.599 0.0501746 -2.29145 0
M  V30 7187 C 665.612 0.770331 -1.43422 0
M  V30 7188 O 666.801 0.625288 -1.6719 0
M  V30 7189 C 663.901 1.09463 -3.20735 0
M  V30 7190 C 663.074 0.44926 -4.35087 0
M  V30 7191 C 662.133 1.39285 -5.07431 0
M  V30 7192 O 661.159 0.894997 -5.6212 0
M  V30 7193 N 662.361 2.72631 -5.12496 0
M  V30 7194 H 665.126 -0.692312 -2.91594 0
M  V30 7195 H 662.687 -0.514056 -1.53522 0
M  V30 7196 H 664.679 1.72705 -3.65999 0
M  V30 7197 H 663.249 1.73891 -2.59771 0
M  V30 7198 H 662.469 -0.362573 -3.92529 0
M  V30 7199 H 663.757 -0.000544776 -5.088 0
M  V30 7200 H 663.155 3.15623 -4.69467 0
M  V30 7201 H 661.712 3.31132 -5.61422 0
M  V30 7202 N 665.145 1.52092 -0.413018 0
M  V30 7203 C 666.394 2.01041 0.16287 0
M  V30 7204 C 666.707 1.30288 1.45892 0
M  V30 7205 O 667.913 1.70075 2.11629 0
M  V30 7206 C 666.369 3.58283 0.340806 0
M  V30 7207 C 665.977 4.37955 -0.943377 0
M  V30 7208 C 667.721 4.15452 0.871774 0
M  V30 7209 C 665.628 5.86847 -0.732417 0
M  V30 7210 H 664.558 0.751224 0.0646414 0
M  V30 7211 H 667.209 1.75404 -0.539059 0
M  V30 7212 H 665.591 3.80266 1.10516 0
M  V30 7213 H 666.765 4.2773 -1.71418 0
M  V30 7214 H 665.08 3.92122 -1.40105 0
M  V30 7215 H 667.677 5.24375 1.0457 0
M  V30 7216 H 668.02 3.73057 1.84755 0
M  V30 7217 H 668.553 3.97452 0.166377 0
M  V30 7218 H 665.292 6.33609 -1.67986 0
M  V30 7219 H 664.812 5.998 -0.000980058 0
M  V30 7220 H 666.491 6.45906 -0.376105 0
M  V30 7221 N 666.623 0.143563 1.56945 0
M  V30 7222 C 667.553 -0.7936 2.196 0
M  V30 7223 C 668.534 -1.25955 1.14321 0
M  V30 7224 O 669.719 -1.31773 1.42651 0
M  V30 7225 C 666.849 -2.03424 2.81489 0
M  V30 7226 C 665.803 -1.70519 3.92565 0
M  V30 7227 C 665.129 -3.01817 4.41373 0
M  V30 7228 C 666.429 -0.95449 5.13504 0
M  V30 7229 H 668.123 -0.271423 2.98167 0
M  V30 7230 H 665.669 -0.12911 1.4342 0
M  V30 7231 H 667.622 -2.69463 3.23987 0
M  V30 7232 H 666.346 -2.58008 2.00248 0
M  V30 7233 H 665.005 -1.06859 3.5068 0
M  V30 7234 H 664.653 -3.54386 3.56959 0
M  V30 7235 H 664.353 -2.80565 5.16292 0
M  V30 7236 H 665.877 -3.68934 4.86539 0
M  V30 7237 H 667.291 -1.5169 5.52868 0
M  V30 7238 H 665.688 -0.842035 5.94163 0
M  V30 7239 H 666.758 0.0544033 4.84869 0
M  V30 7240 N 668.101 -1.57061 -0.130224 0
M  V30 7241 C 669.329 -1.88432 -0.854456 0
M  V30 7242 C 669.744 -0.733608 -1.73964 0
M  V30 7243 O 669.101 0.296029 -1.80083 0
M  V30 7244 C 669.152 -3.1918 -1.69724 0
M  V30 7245 O 668.873 -4.2982 -0.847705 0
M  V30 7246 C 670.374 -3.6418 -2.5276 0
M  V30 7247 H 667.594 -0.624193 -0.246221 0
M  V30 7248 H 670.138 -2.04159 -0.11798 0
M  V30 7249 H 668.293 -3.05156 -2.3866 0
M  V30 7250 H 668.707 -5.04689 -1.42792 0
M  V30 7251 H 670.181 -4.58457 -3.07443 0
M  V30 7252 H 670.658 -2.90285 -3.29592 0
M  V30 7253 H 671.264 -3.80954 -1.89087 0
M  V30 7254 N 669.579 0.400081 -1.52437 0
M  V30 7255 C 670.819 1.15526 -1.68622 0
M  V30 7256 C 671.183 1.87533 -0.411744 0
M  V30 7257 O 672.384 2.6501 -0.449804 0
M  V30 7258 C 670.655 2.11618 -2.88015 0
M  V30 7259 S 672.214 2.95121 -3.24729 0
M  V30 7260 H 669.032 0.39123 -0.593683 0
M  V30 7261 H 671.634 0.441255 -1.90455 0
M  V30 7262 H 670.338 1.5742 -3.79008 0
M  V30 7263 H 669.869 2.87544 -2.68481 0
M  V30 7264 H 671.884 4.13653 -2.74055 0
M  V30 7265 N 671.057 1.43213 0.657864 0
M  V30 7266 C 672.285 1.48015 1.44566 0
M  V30 7267 C 672.7 0.0965951 1.88553 0
M  V30 7268 O 672.057 -0.892221 1.59203 0
M  V30 7269 C 672.108 2.42199 2.68369 0
M  V30 7270 O 671.829 3.75173 2.26223 0
M  V30 7271 C 673.33 2.56195 3.61772 0
M  V30 7272 H 670.55 0.502861 0.444266 0
M  V30 7273 H 673.094 1.87907 0.806917 0
M  V30 7274 H 671.249 2.05514 3.28394 0
M  V30 7275 H 671.663 4.25776 3.06293 0
M  V30 7276 H 673.137 3.26182 4.4532 0
M  V30 7277 H 673.614 1.60534 4.0881 0
M  V30 7278 H 674.22 2.93671 3.07632 0
M  V30 7279 N 672.536 -0.895792 1.29666 0
M  V30 7280 C 673.499 -1.98189 1.15124 0
M  V30 7281 C 674.499 -1.60572 0.0855717 0
M  V30 7282 O 675.689 -1.70991 0.332826 0
M  V30 7283 C 672.821 -3.32289 0.761372 0
M  V30 7284 H 674.014 -2.12518 2.11603 0
M  V30 7285 H 671.567 -1.0808 1.12908 0
M  V30 7286 H 672.302 -3.23662 -0.203393 0
M  V30 7287 H 672.087 -3.60958 1.53139 0
M  V30 7288 H 673.577 -4.1198 0.682792 0
M  V30 7289 N 674.014 -1.12206 -1.10668 0
M  V30 7290 C 675.244 -0.897332 -1.86095 0
M  V30 7291 C 675.652 0.556778 -1.80822 0
M  V30 7292 O 674.995 1.39658 -1.19337 0
M  V30 7293 C 675.057 -1.29095 -3.35522 0
M  V30 7294 C 674.721 -2.75586 -3.64556 0
M  V30 7295 C 675.718 -3.73785 -3.6136 0
M  V30 7296 C 673.403 -3.12432 -3.93309 0
M  V30 7297 C 675.397 -5.06845 -3.86506 0
M  V30 7298 C 673.084 -4.45675 -4.18111 0
M  V30 7299 C 674.082 -5.42691 -4.147 0
M  V30 7300 O 673.77 -6.73532 -4.38873 0
M  V30 7301 H 673.502 -0.320704 -0.595084 0
M  V30 7302 H 676.056 -1.49517 -1.40833 0
M  V30 7303 H 674.286 -0.636299 -3.81429 0
M  V30 7304 H 675.975 -1.04073 -3.92331 0
M  V30 7305 H 676.741 -3.46664 -3.39189 0
M  V30 7306 H 672.62 -2.3753 -3.95096 0
M  V30 7307 H 676.164 -5.82559 -3.83758 0
M  V30 7308 H 672.061 -4.72526 -4.39761 0
M  V30 7309 H 672.829 -6.79442 -4.564 0
M  V30 7310 N 675.492 1.28418 -0.913599 0
M  V30 7311 C 676.74 1.94596 -0.545594 0
M  V30 7312 C 677.061 1.7227 0.913668 0
M  V30 7313 O 676.331 1.06233 1.64595 0
M  V30 7314 H 674.911 0.720065 -0.198783 0
M  V30 7315 H 677.573 1.56404 -1.16292 0
M  V30 7316 H 676.669 3.03202 -0.739911 0
M  V30 7317 N 676.97 0.677563 1.42291 0
M  V30 7318 C 678.219 0.198173 2.00724 0
M  V30 7319 C 678.532 -1.20325 1.54211 0
M  V30 7320 O 679.738 -1.77916 2.05081 0
M  V30 7321 C 678.194 0.303432 3.58619 0
M  V30 7322 C 677.802 1.70909 4.14119 0
M  V30 7323 C 679.546 -0.117103 4.24338 0
M  V30 7324 C 677.453 1.76696 5.64387 0
M  V30 7325 H 676.383 0.070329 0.750713 0
M  V30 7326 H 679.034 0.843147 1.62982 0
M  V30 7327 H 677.416 -0.409482 3.93877 0
M  V30 7328 H 678.59 2.44931 3.90315 0
M  V30 7329 H 676.905 2.07771 3.6086 0
M  V30 7330 H 679.502 -0.0940471 5.34617 0
M  V30 7331 H 679.845 -1.15283 4.00019 0
M  V30 7332 H 680.378 0.5449 3.9405 0
M  V30 7333 H 677.117 2.7826 5.93508 0
M  V30 7334 H 676.637 1.07034 5.90173 0
M  V30 7335 H 678.316 1.52166 6.28852 0
M  V30 7336 N 678.448 -1.51871 0.421078 0
M  V30 7337 C 679.859 -1.86644 -0.0457991 0
M  V30 7338 C 680.21 -1.33919 -1.43388 0
M  V30 7339 O 679.335 -0.683316 -2.05328 0
M  V30 7340 C 679.93 -3.38681 -0.0898844 0
M  V30 7341 C 678.489 -3.73049 -0.501127 0
M  V30 7342 C 677.636 -2.75485 0.316723 0
M  V30 7343 H 680.587 -1.45327 0.637635 0
M  V30 7344 H 680.608 -3.69636 -0.902734 0
M  V30 7345 H 680.12 -3.77025 0.920513 0
M  V30 7346 H 678.221 -3.40288 -1.51773 0
M  V30 7347 H 678.334 -4.78512 -0.237217 0
M  V30 7348 H 676.698 -2.53725 -0.222663 0
M  V30 7349 H 677.481 -3.16671 1.32569 0
M  V30 7350 N 679.926 -0.151884 -1.56866 0
M  V30 7351 C 680.858 0.817008 -2.14144 0
M  V30 7352 C 681.871 1.20735 -1.0921 0
M  V30 7353 O 683.06 1.15058 -1.36469 0
M  V30 7354 C 680.16 2.10844 -2.65326 0
M  V30 7355 C 679.333 1.88471 -3.94712 0
M  V30 7356 C 678.392 3.01649 -4.31155 0
M  V30 7357 O 677.418 2.73127 -4.9939 0
M  V30 7358 N 678.62 4.28947 -3.91132 0
M  V30 7359 H 681.385 0.327448 -2.97906 0
M  V30 7360 H 678.946 0.0315313 -1.61869 0
M  V30 7361 H 680.938 2.85616 -2.86715 0
M  V30 7362 H 679.508 2.51049 -1.86262 0
M  V30 7363 H 678.728 0.977088 -3.81899 0
M  V30 7364 H 680.016 1.70866 -4.79252 0
M  V30 7365 H 679.414 4.54986 -3.36161 0
M  V30 7366 H 677.971 5.00484 -4.17563 0
M  V30 7367 N 681.404 1.57128 0.121893 0
M  V30 7368 C 682.815 1.73902 0.679348 0
M  V30 7369 C 683.166 0.770135 1.80453 0
M  V30 7370 O 682.291 -0.0576083 2.16323 0
M  V30 7371 C 682.886 3.15328 1.2391 0
M  V30 7372 C 681.445 3.33618 1.74288 0
M  V30 7373 C 680.592 2.6978 0.641414 0
M  V30 7374 H 683.543 1.58359 -0.104 0
M  V30 7375 H 683.564 3.16718 2.10879 0
M  V30 7376 H 683.076 3.85821 0.419957 0
M  V30 7377 H 681.177 2.68162 2.58689 0
M  V30 7378 H 681.29 4.4176 1.85432 0
M  V30 7379 H 679.654 2.30935 1.0743 0
M  V30 7380 H 680.437 3.42895 -0.166707 0
M  V30 7381 N 682.882 -0.391992 1.52647 0
M  V30 7382 C 684.11 -1.1586 1.71418 0
M  V30 7383 C 684.525 -1.8381 0.431216 0
M  V30 7384 O 683.882 -1.7256 -0.594085 0
M  V30 7385 C 683.933 -2.20888 2.86165 0
M  V30 7386 O 683.654 -1.5571 4.09495 0
M  V30 7387 C 685.155 -3.103 3.1659 0
M  V30 7388 H 682.375 -0.347494 0.574011 0
M  V30 7389 H 684.919 -0.458972 1.99283 0
M  V30 7390 H 683.074 -2.86492 2.6077 0
M  V30 7391 H 683.488 -2.25474 4.73563 0
M  V30 7392 H 684.962 -3.8003 4.00351 0
M  V30 7393 H 685.439 -3.73639 2.30848 0
M  V30 7394 H 686.045 -2.50345 3.43813 0
M  V30 7395 N 684.36 -1.4356 -0.65026 0
M  V30 7396 C 685.609 -1.44619 -1.406 0
M  V30 7397 C 685.922 -0.0752645 -1.95455 0
M  V30 7398 O 687.128 0.0366832 -2.71475 0
M  V30 7399 C 685.584 -2.54511 -2.54465 0
M  V30 7400 C 685.192 -3.97723 -2.06204 0
M  V30 7401 C 686.936 -2.64768 -3.31811 0
M  V30 7402 C 684.843 -4.99075 -3.17298 0
M  V30 7403 H 683.773 -0.537983 -0.52829 0
M  V30 7404 H 686.424 -1.69559 -0.701561 0
M  V30 7405 H 684.806 -2.22777 -3.27393 0
M  V30 7406 H 685.98 -4.38932 -1.40267 0
M  V30 7407 H 684.295 -3.91538 -1.41729 0
M  V30 7408 H 686.892 -3.37664 -4.14593 0
M  V30 7409 H 687.235 -1.69936 -3.80036 0
M  V30 7410 H 687.768 -2.95817 -2.65964 0
M  V30 7411 H 684.507 -5.95469 -2.74038 0
M  V30 7412 H 684.027 -4.62476 -3.81937 0
M  V30 7413 H 685.706 -5.21913 -3.82382 0
M  V30 7414 N 685.838 0.888903 -1.30139 0
M  V30 7415 C 686.785 1.99422 -1.16188 0
M  V30 7416 C 687.755 1.66017 -0.0523869 0
M  V30 7417 O 688.94 1.89506 -0.221864 0
M  V30 7418 C 686.08 3.34325 -0.855612 0
M  V30 7419 C 685.193 3.80445 -2.0466 0
M  V30 7420 C 684.328 5.03975 -1.67876 0
M  V30 7421 C 683.367 5.42492 -2.83493 0
M  V30 7422 N 682.504 6.57206 -2.47032 0
M  V30 7423 H 687.344 2.10687 -2.10749 0
M  V30 7424 H 684.881 1.03165 -1.04859 0
M  V30 7425 H 686.839 4.11968 -0.658681 0
M  V30 7426 H 685.469 3.22756 0.0531155 0
M  V30 7427 H 684.521 2.98745 -2.3549 0
M  V30 7428 H 685.833 4.04933 -2.91257 0
M  V30 7429 H 684.987 5.89232 -1.44535 0
M  V30 7430 H 683.726 4.8135 -0.784431 0
M  V30 7431 H 682.731 4.55764 -3.07505 0
M  V30 7432 H 683.956 5.67093 -3.73607 0
M  V30 7433 H 681.902 6.36164 -1.601 0
M  V30 7434 H 681.819 6.81543 -3.27161 0
M  V30 7435 H 683.087 7.45704 -2.27038 0
M  V30 7436 N 687.317 1.12792 1.10072 0
M  V30 7437 C 688.563 0.89679 1.82563 0
M  V30 7438 C 688.918 -0.571152 1.83727 0
M  V30 7439 O 688.211 -1.41697 1.28967 0
M  V30 7440 C 688.405 1.4102 3.28403 0
M  V30 7441 C 688.234 2.92652 3.41445 0
M  V30 7442 C 687.004 3.60928 3.53637 0
M  V30 7443 C 689.202 3.9063 3.34534 0
M  V30 7444 N 687.184 5.00638 3.55295 0
M  V30 7445 C 688.555 5.16492 3.42981 0
M  V30 7446 C 690.61 3.82989 3.18157 0
M  V30 7447 C 689.313 6.35609 3.3674 0
M  V30 7448 C 691.339 5.01633 3.13239 0
M  V30 7449 C 690.701 6.26355 3.22272 0
M  V30 7450 H 686.8 0.381482 0.682638 0
M  V30 7451 H 689.384 1.43491 1.31599 0
M  V30 7452 H 687.555 0.899077 3.77851 0
M  V30 7453 H 689.287 1.12075 3.88872 0
M  V30 7454 H 686.042 3.11429 3.56803 0
M  V30 7455 H 686.466 5.73521 3.59725 0
M  V30 7456 H 691.108 2.87454 3.10049 0
M  V30 7457 H 688.826 7.31407 3.43613 0
M  V30 7458 H 692.412 4.97454 3.01713 0
M  V30 7459 H 691.292 7.1662 3.18473 0
M  V30 7460 N 688.795 -1.27931 0.920396 0
M  V30 7461 C 690.042 -1.94689 0.557007 0
M  V30 7462 C 690.37 -1.724 -0.900476 0
M  V30 7463 O 689.625 -1.04194 -1.65657 0
M  V30 7464 C 689.924 -3.47853 0.820558 0
M  V30 7465 C 689.59 -3.90252 2.25863 0
M  V30 7466 C 688.252 -4.01539 2.65179 0
M  V30 7467 C 690.604 -4.11853 3.19415 0
M  V30 7468 C 687.932 -4.3181 3.97187 0
M  V30 7469 C 690.284 -4.43606 4.50995 0
M  V30 7470 C 688.948 -4.53105 4.90155 0
M  V30 7471 H 688.218 -0.712416 0.203823 0
M  V30 7472 H 690.865 -1.52142 1.16298 0
M  V30 7473 H 689.17 -3.91578 0.131844 0
M  V30 7474 H 690.867 -3.97634 0.51847 0
M  V30 7475 H 687.457 -3.81999 1.94358 0
M  V30 7476 H 691.641 -4.0258 2.90246 0
M  V30 7477 H 686.897 -4.37371 4.2722 0
M  V30 7478 H 691.071 -4.59268 5.23494 0
M  V30 7479 H 688.698 -4.76315 5.92476 0
M  V30 7480 N 690.273 -0.685099 -1.4193 0
M  V30 7481 C 691.519 -0.220688 -2.02199 0
M  V30 7482 C 691.874 1.16329 -1.5325 0
M  V30 7483 O 691.167 1.77175 -0.729345 0
M  V30 7484 C 691.361 -0.206154 -3.56805 0
M  V30 7485 C 691.19 -1.58718 -4.2076 0
M  V30 7486 C 689.96 -2.18747 -4.55497 0
M  V30 7487 C 692.158 -2.53182 -4.47664 0
M  V30 7488 N 690.14 -3.49523 -5.04685 0
M  V30 7489 C 691.511 -3.68625 -4.98514 0
M  V30 7490 C 693.566 -2.51582 -4.29664 0
M  V30 7491 C 692.269 -4.82734 -5.33255 0
M  V30 7492 C 694.295 -3.64795 -4.65487 0
M  V30 7493 C 693.657 -4.78967 -5.16498 0
M  V30 7494 H 689.756 -0.12591 -0.771797 0
M  V30 7495 H 692.34 -0.900316 -1.72634 0
M  V30 7496 H 690.511 0.442923 -3.85866 0
M  V30 7497 H 692.243 0.272103 -4.03784 0
M  V30 7498 H 688.998 -1.71135 -4.41599 0
M  V30 7499 H 689.422 -4.1653 -5.33696 0
M  V30 7500 H 694.064 -1.64535 -3.89472 0
M  V30 7501 H 691.782 -5.7045 -5.72375 0
M  V30 7502 H 695.368 -3.64796 -4.53227 0
M  V30 7503 H 694.248 -5.6512 -5.437 0
M  V30 7504 N 691.751 1.51645 -0.429126 0
M  V30 7505 C 692.701 2.24388 0.404217 0
M  V30 7506 C 693.685 1.26294 0.996933 0
M  V30 7507 O 694.877 1.51428 0.916434 0
M  V30 7508 C 692.006 3.08338 1.50938 0
M  V30 7509 C 691.092 4.13857 0.926464 0
M  V30 7510 N 691.483 5.05749 0.0719732 0
M  V30 7511 C 689.781 4.29695 1.19491 0
M  V30 7512 C 690.482 5.81143 -0.254528 0
M  V30 7513 N 689.458 5.42408 0.359763 0
M  V30 7514 H 693.26 2.92794 -0.254697 0
M  V30 7515 H 690.774 1.60606 -0.240712 0
M  V30 7516 H 692.771 3.59022 2.11918 0
M  V30 7517 H 691.431 2.41475 2.17072 0
M  V30 7518 H 692.442 5.17066 -0.293854 0
M  V30 7519 H 689.119 3.74059 1.85434 0
M  V30 7520 H 690.509 6.65159 -0.949365 0
M  V30 7521 N 693.229 0.160201 1.56784 0
M  V30 7522 C 694.64 -0.358417 1.83227 0
M  V30 7523 C 694.991 -1.63831 1.07952 0
M  V30 7524 O 694.116 -2.13885 0.328995 0
M  V30 7525 C 694.711 -0.657058 3.32368 0
M  V30 7526 C 693.27 -1.12015 3.59346 0
M  V30 7527 C 692.417 -0.15015 2.76893 0
M  V30 7528 H 695.368 0.384669 1.53967 0
M  V30 7529 H 695.389 -1.51033 3.49241 0
M  V30 7530 H 694.901 0.274647 3.87127 0
M  V30 7531 H 693.002 -2.06734 3.09987 0
M  V30 7532 H 693.115 -1.037 4.67743 0
M  V30 7533 H 691.479 -0.645361 2.46388 0
M  V30 7534 H 692.262 0.775379 3.34429 0
M  V30 7535 N 694.707 -1.5719 -0.113559 0
M  V30 7536 C 695.947 -1.86958 -0.82621 0
M  V30 7537 C 696.311 -0.748884 -1.76793 0
M  V30 7538 O 697.512 -0.92847 -2.52256 0
M  V30 7539 C 695.783 -3.21957 -1.55173 0
M  V30 7540 S 697.342 -3.73371 -2.3052 0
M  V30 7541 H 694.16 -0.655394 -0.275643 0
M  V30 7542 H 696.762 -1.95318 -0.0842684 0
M  V30 7543 H 695.466 -4.01459 -0.851977 0
M  V30 7544 H 694.997 -3.16688 -2.33393 0
M  V30 7545 H 697.012 -3.45308 -3.56338 0
M  V30 7546 N 696.185 0.383891 -1.52853 0
M  V30 7547 C 697.133 1.48965 -1.7864 0
M  V30 7548 C 698.127 1.56242 -0.654577 0
M  V30 7549 O 699.333 1.59347 -0.83716 0
M  V30 7550 H 695.708 0.495892 -0.565328 0
M  V30 7551 H 697.679 1.24411 -2.71228 0
M  V30 7552 C 696.428 2.86036 -1.97683 0
M  V30 7553 H 695.751 2.81188 -2.84206 0
M  V30 7554 H 697.191 3.62632 -2.19713 0
M  V30 7555 C 695.65 3.28428 -0.750776 0
M  V30 7556 O 696.18 4.0164 0.0693491 0
M  V30 7557 N 694.386 2.84765 -0.579427 0
M  V30 7558 H 693.933 2.25353 -1.24795 0
M  V30 7559 H 693.891 3.13486 0.239544 0
M  V30 7560 N 697.663 1.43903 0.642637 0
M  V30 7561 C 698.613 1.46321 1.74854 0
M  V30 7562 C 699.597 0.330361 1.57472 0
M  V30 7563 O 700.789 0.574881 1.67404 0
M  V30 7564 C 697.918 1.39919 3.13493 0
M  V30 7565 C 697.004 2.58274 3.36385 0
M  V30 7566 N 697.395 3.83578 3.29699 0
M  V30 7567 C 695.693 2.53224 3.67142 0
M  V30 7568 C 696.394 4.62375 3.52965 0
M  V30 7569 N 695.37 3.93269 3.75287 0
M  V30 7570 H 699.172 2.41062 1.68126 0
M  V30 7571 H 696.686 1.38704 0.844693 0
M  V30 7572 H 698.683 1.39735 3.92785 0
M  V30 7573 H 697.343 0.46207 3.21395 0
M  V30 7574 H 698.354 4.15713 3.08874 0
M  V30 7575 H 695.031 1.68252 3.82096 0
M  V30 7576 H 696.421 5.714 3.53485 0
M  V30 7577 N 699.141 -0.881989 1.30609 0
M  V30 7578 C 700.089 -2.00942 1.17155 0
M  V30 7579 C 701.083 -1.69198 0.0827154 0
M  V30 7580 O 702.289 -1.78342 0.243775 0
M  V30 7581 H 698.664 -0.658913 0.362406 0
M  V30 7582 H 700.635 -2.09423 2.12567 0
M  V30 7583 C 699.384 -3.36294 0.883273 0
M  V30 7584 H 698.707 -3.61233 1.7132 0
M  V30 7585 H 700.147 -4.15812 0.829255 0
M  V30 7586 C 698.606 -3.34348 -0.413851 0
M  V30 7587 O 699.136 -3.75216 -1.43444 0
M  V30 7588 N 697.342 -2.87459 -0.426082 0
M  V30 7589 H 696.889 -2.54397 0.40493 0
M  V30 7590 H 696.847 -2.8654 -1.29391 0
M  V30 7591 N 700.619 -1.13374 -1.09472 0
M  V30 7592 C 701.569 -0.77946 -2.14263 0
M  V30 7593 C 702.553 0.226271 -1.59301 0
M  V30 7594 O 703.745 0.0302581 -1.76974 0
M  V30 7595 C 700.874 -0.246635 -3.42413 0
M  V30 7596 C 699.96 -1.28124 -4.04283 0
M  V30 7597 N 700.351 -2.48201 -4.40715 0
M  V30 7598 C 698.649 -1.12892 -4.31476 0
M  V30 7599 C 699.35 -3.14347 -4.8945 0
M  V30 7600 N 698.326 -2.41771 -4.86876 0
M  V30 7601 H 702.128 -1.69305 -2.40235 0
M  V30 7602 H 699.642 -1.01598 -1.26695 0
M  V30 7603 H 701.639 0.0254131 -4.16892 0
M  V30 7604 H 700.299 0.661287 -3.17895 0
M  V30 7605 H 701.31 -2.85511 -4.32093 0
M  V30 7606 H 697.987 -0.279117 -4.16566 0
M  V30 7607 H 699.377 -4.16663 -5.27107 0
M  V30 7608 N 702.098 1.27442 -0.927168 0
M  V30 7609 C 703.323 1.99036 -0.583042 0
M  V30 7610 C 703.748 1.68711 0.83176 0
M  V30 7611 O 703.106 0.927081 1.55804 0
M  V30 7612 C 703.154 3.51271 -0.814925 0
M  V30 7613 O 702.258 4.12226 0.119742 0
M  V30 7614 H 701.599 0.624883 -0.224538 0
M  V30 7615 H 704.129 1.62263 -1.24628 0
M  V30 7616 H 704.139 4.01411 -0.730282 0
M  V30 7617 H 702.814 3.72676 -1.84623 0
M  V30 7618 H 701.391 3.72897 -0.0147688 0
M  V30 7619 N 703.576 0.692616 1.41565 0
M  V30 7620 C 704.486 0.0258451 2.34586 0
M  V30 7621 C 705.502 -0.769324 1.56069 0
M  V30 7622 O 706.678 -0.707563 1.88562 0
M  V30 7623 C 703.743 -0.901289 3.3478 0
M  V30 7624 C 702.804 -0.0986579 4.29187 0
M  V30 7625 C 702.037 -0.981634 5.24595 0
M  V30 7626 O 702.26 -2.22115 5.25377 0
M  V30 7627 O 701.194 -0.432892 6.00341 0
M  V30 7628 H 705.02 0.792537 2.93177 0
M  V30 7629 H 702.605 0.452935 1.42369 0
M  V30 7630 H 704.487 -1.43302 3.96286 0
M  V30 7631 H 703.162 -1.64752 2.78637 0
M  V30 7632 H 702.069 0.477604 3.71039 0
M  V30 7633 H 703.402 0.608848 4.8842 0
M  V30 7634 N 705.054 -1.51416 0.437162 0
M  V30 7635 C 706.017 -2.26312 -0.362729 0
M  V30 7636 C 707.017 -1.29748 -0.949847 0
M  V30 7637 O 708.207 -1.53462 -0.824325 0
M  V30 7638 C 705.339 -3.05475 -1.5132 0
M  V30 7639 H 706.532 -2.98459 0.29365 0
M  V30 7640 H 704.085 -1.55137 0.190327 0
M  V30 7641 H 704.82 -2.37744 -2.20563 0
M  V30 7642 H 704.605 -3.76401 -1.09838 0
M  V30 7643 H 706.095 -3.62209 -2.07833 0
M  V30 7644 N 706.532 -0.168513 -1.56696 0
M  V30 7645 C 707.948 0.187686 -1.58493 0
M  V30 7646 C 708.148 1.63063 -1.18375 0
M  V30 7647 O 707.204 2.36142 -0.894042 0
M  V30 7648 C 708.517 -0.0905858 -3.00564 0
M  V30 7649 C 710.065 -0.028575 -3.12987 0
M  V30 7650 C 710.54 -0.279799 -4.57145 0
M  V30 7651 N 712.031 -0.227476 -4.62641 0
M  V30 7652 C 712.766 -0.396073 -5.7203 0
M  V30 7653 N 712.262 -0.623572 -6.89988 0
M  V30 7654 N 714.055 -0.332173 -5.61118 0
M  V30 7655 H 706.206 -1.11042 -1.81062 0
M  V30 7656 H 708.469 -0.441235 -0.839056 0
M  V30 7657 H 708.175 -1.09006 -3.34381 0
M  V30 7658 H 708.049 0.619078 -3.72085 0
M  V30 7659 H 710.436 0.961471 -2.78998 0
M  V30 7660 H 710.517 -0.770905 -2.43907 0
M  V30 7661 H 710.161 -1.26704 -4.91842 0
M  V30 7662 H 710.091 0.48311 -5.24379 0
M  V30 7663 H 712.582 -0.0571723 -3.77857 0
M  V30 7664 H 712.895 -0.741745 -7.69232 0
M  V30 7665 H 711.24 -0.660153 -6.91858 0
M  V30 7666 H 714.431 -0.155051 -4.67843 0
M  V30 7667 H 714.604 -0.466994 -6.46315 0
M  V30 7668 N 708.01 1.57248 0.105221 0
M  V30 7669 C 709.25 1.87393 0.816283 0
M  V30 7670 C 709.614 0.758249 1.76393 0
M  V30 7671 O 710.815 0.941835 2.5176 0
M  V30 7672 C 709.086 3.22775 1.53463 0
M  V30 7673 S 710.645 3.74588 2.28537 0
M  V30 7674 H 707.463 0.656847 0.272164 0
M  V30 7675 H 710.065 1.9536 0.073909 0
M  V30 7676 H 708.769 4.01905 0.830674 0
M  V30 7677 H 708.3 3.17921 2.3171 0
M  V30 7678 H 710.315 3.47193 3.54502 0
M  V30 7679 N 709.488 -0.375779 1.53054 0
M  V30 7680 C 710.765 -1.13453 1.59336 0
M  V30 7681 C 711.145 -2.07379 0.394614 0
M  V30 7682 O 710.493 -2.2004 -0.616 0
M  V30 7683 C 710.703 -1.8826 2.93869 0
M  V30 7684 C 712.051 -2.43155 3.48081 0
M  V30 7685 O 713.075 -1.984 2.95831 0
M  V30 7686 O 711.934 -3.24944 4.39401 0
M  V30 7687 H 709.028 -0.519856 0.643179 0
M  V30 7688 H 711.574 -0.379865 1.65394 0
M  V30 7689 H 710.346 -1.19652 3.72558 0
M  V30 7690 H 709.969 -2.70658 2.91256 0
M  V30 7691 N 710.966 -1.44241 -0.634997 0
M  V30 7692 C 712.213 -1.46821 -1.39463 0
M  V30 7693 C 712.541 -0.0993362 -1.94246 0
M  V30 7694 O 711.796 0.898325 -1.73864 0
M  V30 7695 C 712.095 -2.47279 -2.58046 0
M  V30 7696 C 711.761 -3.92703 -2.21574 0
M  V30 7697 C 710.423 -4.32306 -2.1134 0
M  V30 7698 C 712.775 -4.84271 -1.92695 0
M  V30 7699 C 710.103 -5.61407 -1.70409 0
M  V30 7700 C 712.455 -6.13755 -1.53258 0
M  V30 7701 C 711.119 -6.52316 -1.41562 0
M  V30 7702 H 710.389 -0.537256 -0.51033 0
M  V30 7703 H 713.036 -1.77431 -0.720441 0
M  V30 7704 H 711.341 -2.10138 -3.3068 0
M  V30 7705 H 713.038 -2.46523 -3.16271 0
M  V30 7706 H 709.628 -3.61369 -2.30456 0
M  V30 7707 H 713.812 -4.54432 -1.99513 0
M  V30 7708 H 709.068 -5.90105 -1.59955 0
M  V30 7709 H 713.242 -6.84168 -1.29949 0
M  V30 7710 H 710.869 -7.52255 -1.09619 0
M  V30 7711 N 712.444 0.87505 -1.31075 0
M  V30 7712 C 713.684 1.64174 -1.21763 0
M  V30 7713 C 714.048 1.90713 0.221933 0
M  V30 7714 O 715.249 2.652 0.438458 0
M  V30 7715 C 713.52 2.93932 -2.0332 0
M  V30 7716 S 715.079 3.84841 -2.10815 0
M  V30 7717 H 711.897 0.563358 -0.433761 0
M  V30 7718 H 714.499 1.03788 -1.65675 0
M  V30 7719 H 713.203 2.72349 -3.07009 0
M  V30 7720 H 712.734 3.59345 -1.60108 0
M  V30 7721 H 714.749 4.80385 -1.24276 0
M  V30 7722 N 713.922 1.13953 1.08869 0
M  V30 7723 C 715.147 0.928559 1.85452 0
M  V30 7724 C 715.572 -0.517642 1.80837 0
M  V30 7725 O 714.93 -1.36779 1.19001 0
M  V30 7726 C 714.978 1.42814 3.31114 0
M  V30 7727 O 714.082 0.617129 4.07756 0
M  V30 7728 H 713.423 0.33235 0.574839 0
M  V30 7729 H 715.953 1.5156 1.37443 0
M  V30 7730 H 715.963 1.43425 3.8196 0
M  V30 7731 H 714.638 2.48109 3.33788 0
M  V30 7732 H 713.215 0.679365 3.66659 0
M  V30 7733 N 715.4 -1.26948 0.933913 0
M  V30 7734 C 716.348 -2.2862 0.428463 0
M  V30 7735 C 717.342 -1.62144 -0.490464 0
M  V30 7736 O 718.548 -1.76167 -0.36948 0
M  V30 7737 H 714.923 -0.742363 0.120003 0
M  V30 7738 H 716.894 -2.68659 1.29865 0
M  V30 7739 C 715.643 -3.46423 -0.29774 0
M  V30 7740 H 714.966 -3.97792 0.400183 0
M  V30 7741 H 716.406 -4.19505 -0.615736 0
M  V30 7742 C 714.865 -3.01017 -1.51295 0
M  V30 7743 O 715.395 -3.05226 -2.61151 0
M  V30 7744 N 713.601 -2.56442 -1.36696 0
M  V30 7745 H 713.148 -2.53217 -0.473178 0
M  V30 7746 H 713.106 -2.26424 -2.18127 0
M  V30 7747 N 716.879 -0.700114 -1.41195 0
M  V30 7748 C 717.827 -0.0263301 -2.32585 0
M  V30 7749 C 718.821 0.763683 -1.51209 0
M  V30 7750 O 720.027 0.668793 -1.67114 0
M  V30 7751 H 716.402 0.0102869 -0.75193 0
M  V30 7752 H 718.373 -0.814087 -2.8708 0
M  V30 7753 C 717.122 0.892793 -3.36042 0
M  V30 7754 H 716.445 0.294306 -3.98715 0
M  V30 7755 H 717.885 1.33247 -4.02518 0
M  V30 7756 C 716.344 2.01109 -2.7029 0
M  V30 7757 O 716.874 3.10035 -2.55423 0
M  V30 7758 N 715.08 1.79015 -2.28915 0
M  V30 7759 H 714.627 0.904275 -2.41207 0
M  V30 7760 H 714.585 2.54022 -1.85257 0
M  V30 7761 N 718.357 1.51182 -0.445186 0
M  V30 7762 C 719.267 2.31692 0.368255 0
M  V30 7763 C 720.283 1.40942 1.02036 0
M  V30 7764 O 721.459 1.74011 1.01401 0
M  V30 7765 C 718.524 3.14903 1.45041 0
M  V30 7766 C 717.585 4.21442 0.817615 0
M  V30 7767 C 716.818 5.00677 1.8482 0
M  V30 7768 O 717.041 4.80644 3.07145 0
M  V30 7769 O 715.975 5.84559 1.43438 0
M  V30 7770 H 719.801 3.0232 -0.289219 0
M  V30 7771 H 717.386 1.47951 -0.207555 0
M  V30 7772 H 719.268 3.66612 2.07783 0
M  V30 7773 H 717.943 2.47031 2.09182 0
M  V30 7774 H 716.85 3.73791 0.151931 0
M  V30 7775 H 718.183 4.9171 0.219564 0
M  V30 7776 N 719.835 0.176821 1.56605 0
M  V30 7777 C 720.745 -0.763682 2.21822 0
M  V30 7778 C 721.761 -1.24889 1.21156 0
M  V30 7779 O 722.937 -1.29987 1.53836 0
M  V30 7780 C 720.002 -1.97352 2.8505 0
M  V30 7781 C 719.063 -1.53466 4.00932 0
M  V30 7782 C 718.296 -2.68682 4.61135 0
M  V30 7783 O 718.519 -3.85694 4.20234 0
M  V30 7784 O 717.453 -2.42442 5.50913 0
M  V30 7785 H 721.279 -0.238363 3.02763 0
M  V30 7786 H 718.864 -0.0516331 1.49311 0
M  V30 7787 H 720.746 -2.68096 3.25119 0
M  V30 7788 H 719.421 -2.48779 2.07101 0
M  V30 7789 H 718.328 -0.796551 3.65521 0
M  V30 7790 H 719.661 -1.06724 4.8049 0
M  V30 7791 N 721.313 -1.57302 -0.09688 0
M  V30 7792 C 722.538 -1.9058 -0.818169 0
M  V30 7793 C 722.963 -0.770921 -1.71576 0
M  V30 7794 O 722.321 0.277588 -1.79162 0
M  V30 7795 C 722.369 -3.22714 -1.60898 0
M  V30 7796 O 721.473 -3.10178 -2.71779 0
M  V30 7797 H 720.814 -0.624759 -0.224882 0
M  V30 7798 H 723.344 -2.04471 -0.07264 0
M  V30 7799 H 723.354 -3.55978 -1.99358 0
M  V30 7800 H 722.029 -4.04899 -0.950227 0
M  V30 7801 H 720.606 -2.88424 -2.3636 0
M  V30 7802 N 722.791 0.367657 -1.53252 0
M  V30 7803 C 724.038 1.11052 -1.69333 0
M  V30 7804 C 724.366 1.89363 -0.444064 0
M  V30 7805 O 723.621 1.87094 0.573953 0
M  V30 7806 C 723.92 2.09825 -2.89324 0
M  V30 7807 C 723.586 1.4801 -4.25915 0
M  V30 7808 C 722.248 1.30879 -4.6306 0
M  V30 7809 C 724.6 1.03268 -5.10867 0
M  V30 7810 C 721.928 0.675868 -5.82794 0
M  V30 7811 C 724.28 0.41377 -6.31245 0
M  V30 7812 C 722.944 0.229939 -6.67104 0
M  V30 7813 H 722.214 0.406367 -0.619634 0
M  V30 7814 H 724.861 0.392558 -1.87433 0
M  V30 7815 H 723.166 2.87917 -2.65728 0
M  V30 7816 H 724.863 2.67252 -2.98961 0
M  V30 7817 H 721.453 1.62336 -3.96667 0
M  V30 7818 H 725.637 1.15297 -4.82722 0
M  V30 7819 H 720.893 0.521833 -6.09169 0
M  V30 7820 H 725.067 0.0588768 -6.96375 0
M  V30 7821 H 722.694 -0.262562 -7.59746 0
M  V30 7822 N 724.269 1.44576 0.627338 0
M  V30 7823 C 725.518 1.46837 1.38281 0
M  V30 7824 C 725.831 0.10635 1.95311 0
M  V30 7825 O 727.037 0.00651084 2.71499 0
M  V30 7826 C 725.493 2.58527 2.50384 0
M  V30 7827 C 725.101 4.00953 1.99851 0
M  V30 7828 C 726.845 2.70013 3.27557 0
M  V30 7829 C 724.752 5.0406 3.09318 0
M  V30 7830 H 723.682 0.546319 0.519664 0
M  V30 7831 H 726.333 1.70654 0.674497 0
M  V30 7832 H 724.715 2.27957 3.23808 0
M  V30 7833 H 725.889 4.41108 1.33267 0
M  V30 7834 H 724.204 3.93743 1.35482 0
M  V30 7835 H 726.801 3.44217 4.09168 0
M  V30 7836 H 727.144 1.75961 3.77284 0
M  V30 7837 H 727.677 3.00011 2.61224 0
M  V30 7838 H 724.416 5.99753 2.6453 0
M  V30 7839 H 723.936 4.68493 3.74532 0
M  V30 7840 H 725.615 5.2793 3.74031 0
M  V30 7841 N 725.747 -0.868086 1.31537 0
M  V30 7842 C 726.677 -1.99131 1.21939 0
M  V30 7843 C 727.658 -1.69768 0.106166 0
M  V30 7844 O 728.843 -1.92006 0.291081 0
M  V30 7845 C 725.973 -3.34676 0.927879 0
M  V30 7846 C 724.927 -3.7835 2.00088 0
M  V30 7847 C 724.253 -5.11375 1.56203 0
M  V30 7848 C 725.553 -3.95256 3.41424 0
M  V30 7849 H 727.247 -2.07419 2.15911 0
M  V30 7850 H 724.793 -0.996569 1.03945 0
M  V30 7851 H 726.746 -4.12793 0.847327 0
M  V30 7852 H 725.47 -3.26565 -0.0475042 0
M  V30 7853 H 724.129 -3.02474 2.07135 0
M  V30 7854 H 723.777 -4.99709 0.57445 0
M  V30 7855 H 723.477 -5.41568 2.27985 0
M  V30 7856 H 725.001 -5.92001 1.49558 0
M  V30 7857 H 726.415 -4.63764 3.3704 0
M  V30 7858 H 724.812 -4.36849 4.1144 0
M  V30 7859 H 725.882 -2.98579 3.82072 0
M  V30 7860 N 727.225 -1.14528 -1.08264 0
M  V30 7861 C 728.502 -0.825185 -1.77342 0
M  V30 7862 C 728.882 0.681037 -1.99813 0
M  V30 7863 O 728.23 1.62234 -1.60912 0
M  V30 7864 C 728.44 -1.62556 -3.08831 0
M  V30 7865 C 729.788 -1.82585 -3.83338 0
M  V30 7866 O 730.812 -1.59254 -3.18617 0
M  V30 7867 O 729.671 -2.21598 -4.99556 0
M  V30 7868 H 726.765 -0.302531 -0.769678 0
M  V30 7869 H 729.311 -1.25056 -1.14713 0
M  V30 7870 H 728.083 -2.64862 -2.88035 0
M  V30 7871 H 727.706 -1.1959 -3.79189 0
M  V30 7872 N 728.703 1.26451 -0.940633 0
M  V30 7873 C 729.666 2.24651 -0.454378 0
M  V30 7874 C 730.666 1.54826 0.434222 0
M  V30 7875 O 731.856 1.72628 0.233477 0
M  V30 7876 C 728.988 3.39148 0.345192 0
M  V30 7877 H 730.181 2.69182 -1.32217 0
M  V30 7878 H 727.734 1.38596 -0.722547 0
M  V30 7879 H 728.469 3.00018 1.23125 0
M  V30 7880 H 728.254 3.9101 -0.292107 0
M  V30 7881 H 729.744 4.12103 0.675341 0
M  V30 7882 N 730.181 0.707592 1.40822 0
M  V30 7883 C 731.458 0.171172 1.9485 0
M  V30 7884 C 731.838 -1.32143 1.64625 0
M  V30 7885 O 731.186 -2.07372 0.959647 0
M  V30 7886 C 731.396 0.475334 3.45748 0
M  V30 7887 C 732.744 0.409625 4.22619 0
M  V30 7888 O 733.768 0.410934 3.53822 0
M  V30 7889 O 732.627 0.380185 5.45176 0
M  V30 7890 H 729.721 0.022015 0.826707 0
M  V30 7891 H 732.267 0.784577 1.50474 0
M  V30 7892 H 731.039 1.50801 3.61075 0
M  V30 7893 H 730.662 -0.168439 3.97243 0
M  V30 7894 N 731.66 -1.50943 0.453197 0
M  V30 7895 C 732.885 -2.07116 -0.108463 0
M  V30 7896 C 733.31 -1.31681 -1.3432 0
M  V30 7897 O 732.668 -0.359256 -1.77705 0
M  V30 7898 C 732.716 -3.58447 -0.393424 0
M  V30 7899 O 731.82 -3.85038 -1.47714 0
M  V30 7900 H 731.161 -0.66398 0.0050993 0
M  V30 7901 H 733.691 -1.94362 0.639095 0
M  V30 7902 H 733.701 -4.02961 -0.639222 0
M  V30 7903 H 732.376 -4.12774 0.508946 0
M  V30 7904 H 730.953 -3.52376 -1.22006 0
M  V30 7905 N 733.138 -0.185124 -1.56509 0
M  V30 7906 C 734.086 0.756505 -2.19954 0
M  V30 7907 C 735.08 1.22725 -1.16769 0
M  V30 7908 O 736.286 1.1913 -1.34937 0
M  V30 7909 H 732.661 0.262279 -0.704779 0
M  V30 7910 H 734.632 0.197587 -2.97745 0
M  V30 7911 C 733.381 1.96975 -2.86524 0
M  V30 7912 H 732.704 1.61658 -3.65659 0
M  V30 7913 H 734.144 2.60719 -3.34367 0
M  V30 7914 C 732.603 2.80219 -1.87027 0
M  V30 7915 O 733.133 3.77821 -1.36433 0
M  V30 7916 N 731.339 2.4551 -1.55477 0
M  V30 7917 H 730.886 1.66199 -1.96813 0
M  V30 7918 H 730.844 3.01493 -0.891597 0
M  V30 7919 N 734.616 1.57351 0.0885366 0
M  V30 7920 C 735.549 1.97786 1.13825 0
M  V30 7921 C 736.527 0.852091 1.38485 0
M  V30 7922 O 737.711 1.11296 1.52137 0
M  V30 7923 C 734.838 2.30024 2.48609 0
M  V30 7924 C 733.884 3.52437 2.40189 0
M  V30 7925 S 734.717 5.03908 1.81209 0
M  V30 7926 C 735.873 5.39331 3.17605 0
M  V30 7927 H 736.106 2.86513 0.793587 0
M  V30 7928 H 733.639 1.51527 0.29646 0
M  V30 7929 H 735.597 2.49274 3.26148 0
M  V30 7930 H 734.258 1.41856 2.80242 0
M  V30 7931 H 733.451 3.72457 3.39546 0
M  V30 7932 H 733.053 3.32731 1.70781 0
M  V30 7933 H 735.345 5.36378 4.13891 0
M  V30 7934 H 736.288 6.4029 3.02381 0
M  V30 7935 H 736.696 4.6679 3.17438 0
M  V30 7936 N 736.094 -0.359525 1.53444 0
M  V30 7937 C 737.342 -1.09935 1.69584 0
M  V30 7938 C 737.663 -1.89656 0.453371 0
M  V30 7939 O 736.933 -1.8852 -0.53263 0
M  V30 7940 H 735.513 -0.408843 0.625185 0
M  V30 7941 H 738.175 -0.40467 1.90653 0
M  V30 7942 H 737.271 -1.78575 2.55964 0
M  V30 7943 N 737.572 -1.44907 -0.619662 0
M  V30 7944 C 738.52 -1.52971 -1.75222 0
M  V30 7945 C 739.514 -0.400531 -1.64597 0
M  V30 7946 O 740.72 -0.575952 -1.70537 0
M  V30 7947 H 737.095 -0.480241 -0.578682 0
M  V30 7948 H 739.066 -2.48269 -1.65545 0
M  V30 7949 C 737.815 -1.50204 -3.13583 0
M  V30 7950 H 737.138 -2.36412 -3.22412 0
M  V30 7951 H 738.578 -1.59905 -3.92691 0
M  V30 7952 C 737.037 -0.22455 -3.36151 0
M  V30 7953 O 737.567 0.700574 -3.95544 0
M  V30 7954 N 735.773 -0.124052 -2.90335 0
M  V30 7955 H 735.32 -0.87774 -2.42185 0
M  V30 7956 H 735.278 0.729914 -3.0581 0
M  V30 7957 N 739.05 0.861098 -1.31996 0
M  V30 7958 C 740.466 1.14827 -1.10846 0
M  V30 7959 C 740.666 2.0117 0.11528 0
M  V30 7960 O 739.722 2.39423 0.802048 0
M  V30 7961 C 741.035 1.83183 -2.38462 0
M  V30 7962 C 742.583 1.95847 -2.44158 0
M  V30 7963 C 743.058 2.67617 -3.71679 0
M  V30 7964 N 744.549 2.75147 -3.72624 0
M  V30 7965 C 745.284 3.31314 -4.67994 0
M  V30 7966 N 744.78 3.88343 -5.73726 0
M  V30 7967 N 746.573 3.29356 -4.55501 0
M  V30 7968 H 738.724 0.285951 -2.10466 0
M  V30 7969 H 740.987 0.189303 -0.928907 0
M  V30 7970 H 740.693 1.27193 -3.27895 0
M  V30 7971 H 740.567 2.83393 -2.48935 0
M  V30 7972 H 742.954 2.50999 -1.55189 0
M  V30 7973 H 743.035 0.94653 -2.37644 0
M  V30 7974 H 742.679 2.13131 -4.61018 0
M  V30 7975 H 742.609 3.69237 -3.75462 0
M  V30 7976 H 745.1 2.34682 -2.96197 0
M  V30 7977 H 745.413 4.29338 -6.42564 0
M  V30 7978 H 743.758 3.86693 -5.77489 0
M  V30 7979 H 746.949 2.84047 -3.72069 0
M  V30 7980 H 747.122 3.7283 -5.30001 0
M  V30 7981 N 740.528 1.15101 1.07655 0
M  V30 7982 C 741.777 0.918528 1.79572 0
M  V30 7983 C 742.09 -0.555922 1.87534 0
M  V30 7984 O 743.296 -0.905893 2.55941 0
M  V30 7985 C 741.752 1.59394 3.22679 0
M  V30 7986 C 741.36 3.1052 3.22927 0
M  V30 7987 C 743.104 1.44289 3.99225 0
M  V30 7988 C 741.011 3.70862 4.60668 0
M  V30 7989 H 739.941 0.340006 0.672987 0
M  V30 7990 H 742.592 1.38079 1.20857 0
M  V30 7991 H 740.974 1.05936 3.81567 0
M  V30 7992 H 742.148 3.70708 2.737 0
M  V30 7993 H 740.463 3.25351 2.59876 0
M  V30 7994 H 743.06 1.86766 5.01022 0
M  V30 7995 H 743.403 0.389975 4.14469 0
M  V30 7996 H 743.936 1.94826 3.46825 0
M  V30 7997 H 740.675 4.7604 4.50628 0
M  V30 7998 H 740.195 3.15456 5.10145 0
M  V30 7999 H 741.874 3.71607 5.29639 0
M  V30 8000 N 742.006 -1.2595 0.947325 0
M  V30 8001 C 742.916 -2.29883 0.468079 0
M  V30 8002 C 743.932 -1.67783 -0.460975 0
M  V30 8003 O 745.108 -1.98526 -0.339006 0
M  V30 8004 C 742.173 -3.45773 -0.253315 0
M  V30 8005 C 741.234 -4.23337 0.713054 0
M  V30 8006 C 740.467 -5.33694 0.025993 0
M  V30 8007 O 740.69 -5.57853 -1.18978 0
M  V30 8008 O 739.624 -5.97724 0.70782 0
M  V30 8009 H 743.45 -2.72952 1.33156 0
M  V30 8010 H 741.035 -1.31263 0.713468 0
M  V30 8011 H 742.917 -4.16209 -0.659423 0
M  V30 8012 H 741.592 -3.04721 -1.09209 0
M  V30 8013 H 740.499 -3.55359 1.16923 0
M  V30 8014 H 741.832 -4.68154 1.51963 0
M  V30 8015 N 743.484 -0.715051 -1.40445 0
M  V30 8016 C 744.709 -0.26254 -2.05732 0
M  V30 8017 C 745.134 1.08691 -1.53519 0
M  V30 8018 O 744.492 1.68453 -0.670328 0
M  V30 8019 C 744.54 -0.25195 -3.59719 0
M  V30 8020 O 743.644 0.766998 -4.05205 0
M  V30 8021 H 742.985 -0.123398 -0.652433 0
M  V30 8022 H 745.515 -0.975382 -1.79854 0
M  V30 8023 H 745.525 -0.0894537 -4.07902 0
M  V30 8024 H 744.2 -1.23672 -3.97087 0
M  V30 8025 H 742.777 0.572269 -3.68483 0
M  V30 8026 N 744.962 1.50701 -0.461195 0
M  V30 8027 C 746.211 2.01458 0.0988277 0
M  V30 8028 C 746.524 1.34863 1.41673 0
M  V30 8029 O 747.73 1.76721 2.06111 0
M  V30 8030 C 746.186 3.59186 0.226648 0
M  V30 8031 C 745.794 4.34732 -1.08223 0
M  V30 8032 C 747.538 4.18015 0.73916 0
M  V30 8033 C 745.445 5.8422 -0.918747 0
M  V30 8034 H 744.375 0.7529 0.040709 0
M  V30 8035 H 747.026 1.736 -0.594589 0
M  V30 8036 H 745.408 3.83589 0.983621 0
M  V30 8037 H 746.582 4.22059 -1.84939 0
M  V30 8038 H 744.897 3.87466 -1.52509 0
M  V30 8039 H 747.494 5.27436 0.878347 0
M  V30 8040 H 747.837 3.78746 1.72793 0
M  V30 8041 H 748.37 3.9778 0.0398469 0
M  V30 8042 H 745.109 6.27944 -1.88059 0
M  V30 8043 H 744.629 5.99493 -0.191801 0
M  V30 8044 H 746.308 6.44382 -0.581405 0
M  V30 8045 N 746.441 0.193421 1.56409 0
M  V30 8046 C 747.669 -0.451438 2.01915 0
M  V30 8047 C 748.084 -1.55306 1.07357 0
M  V30 8048 O 747.441 -1.82333 0.0781512 0
M  V30 8049 C 747.492 -1.00931 3.47124 0
M  V30 8050 O 747.213 0.0483623 4.38073 0
M  V30 8051 C 748.714 -1.73021 4.0814 0
M  V30 8052 H 745.934 -0.113495 0.661332 0
M  V30 8053 H 748.478 0.301636 2.02263 0
M  V30 8054 H 746.633 -1.71277 3.47481 0
M  V30 8055 H 747.047 -0.366644 5.23217 0
M  V30 8056 H 748.521 -2.07289 5.11601 0
M  V30 8057 H 748.998 -2.6333 3.51502 0
M  V30 8058 H 749.604 -1.07264 4.11551 0
M  V30 8059 N 747.919 -1.57396 -0.0801906 0
M  V30 8060 C 748.851 -1.9982 -1.12271 0
M  V30 8061 C 749.864 -0.902902 -1.35468 0
M  V30 8062 O 751.053 -1.18088 -1.33856 0
M  V30 8063 C 748.153 -2.31476 -2.47532 0
M  V30 8064 C 747.326 -3.62745 -2.44407 0
M  V30 8065 C 746.385 -3.82168 -3.6171 0
M  V30 8066 O 745.411 -4.53852 -3.43522 0
M  V30 8067 N 746.613 -3.2388 -4.81749 0
M  V30 8068 H 749.378 -2.89864 -0.761501 0
M  V30 8069 H 746.939 -1.5965 -0.268965 0
M  V30 8070 H 748.931 -2.4165 -3.24634 0
M  V30 8071 H 747.501 -1.47364 -2.75686 0
M  V30 8072 H 746.721 -3.63403 -1.52747 0
M  V30 8073 H 748.009 -4.48954 -2.39412 0
M  V30 8074 H 747.407 -2.6568 -4.9943 0
M  V30 8075 H 745.964 -3.39515 -5.56392 0
M  V30 8076 N 749.397 0.351382 -1.53633 0
M  V30 8077 C 750.813 0.693987 -1.43722 0
M  V30 8078 C 751.013 1.9274 -0.587669 0
M  V30 8079 O 750.069 2.52387 -0.0756082 0
M  V30 8080 C 751.382 0.893937 -2.87105 0
M  V30 8081 C 752.93 0.993051 -2.96829 0
M  V30 8082 C 753.405 1.22537 -4.41303 0
M  V30 8083 N 754.896 1.29275 -4.44795 0
M  V30 8084 C 755.631 1.48988 -5.53706 0
M  V30 8085 N 755.127 1.65924 -6.72637 0
M  V30 8086 N 756.92 1.51472 -5.41306 0
M  V30 8087 H 749.071 -0.459688 -2.07366 0
M  V30 8088 H 751.334 -0.143684 -0.937048 0
M  V30 8089 H 751.04 0.0592517 -3.5165 0
M  V30 8090 H 750.914 1.79795 -3.31592 0
M  V30 8091 H 753.301 1.81827 -2.32429 0
M  V30 8092 H 753.382 0.0661119 -2.55715 0
M  V30 8093 H 753.026 0.405117 -5.06282 0
M  V30 8094 H 752.956 2.16575 -4.80003 0
M  V30 8095 H 755.447 1.17743 -3.59089 0
M  V30 8096 H 755.76 1.80578 -7.51406 0
M  V30 8097 H 754.105 1.63075 -6.75597 0
M  V30 8098 H 757.296 1.37818 -4.47352 0
M  V30 8099 H 757.469 1.66493 -6.26246 0
M  V30 8100 N 750.875 1.45233 0.611969 0
M  V30 8101 C 751.808 1.48056 1.73651 0
M  V30 8102 C 752.786 0.337373 1.59061 0
M  V30 8103 O 753.97 0.537222 1.80683 0
M  V30 8104 C 751.097 1.33144 3.11433 0
M  V30 8105 C 750.143 2.51272 3.44623 0
M  V30 8106 S 750.976 4.13754 3.39953 0
M  V30 8107 C 752.132 4.013 4.80322 0
M  V30 8108 H 752.365 2.43205 1.70993 0
M  V30 8109 H 749.898 1.32763 0.788246 0
M  V30 8110 H 751.856 1.25228 3.90932 0
M  V30 8111 H 750.517 0.394734 3.1161 0
M  V30 8112 H 749.71 2.36753 4.44932 0
M  V30 8113 H 749.312 2.56027 2.72629 0
M  V30 8114 H 751.604 3.66174 5.7002 0
M  V30 8115 H 752.547 5.01506 4.99897 0
M  V30 8116 H 752.955 3.3303 4.55797 0
M  V30 8117 N 752.353 -0.854086 1.3245 0
M  V30 8118 C 753.316 -1.94427 1.21371 0
M  V30 8119 C 754.316 -1.60219 0.136613 0
M  V30 8120 O 755.506 -1.69846 0.387057 0
M  V30 8121 C 752.638 -3.29698 0.866701 0
M  V30 8122 H 753.831 -2.05679 2.18257 0
M  V30 8123 H 751.384 -1.04434 1.1629 0
M  V30 8124 H 752.119 -3.24145 -0.100319 0
M  V30 8125 H 751.904 -3.55903 1.64545 0
M  V30 8126 H 753.394 -4.09599 0.813515 0
M  V30 8127 N 753.831 -1.1567 -1.07043 0
M  V30 8128 C 755.08 -0.928039 -1.79082 0
M  V30 8129 C 755.393 0.545968 -1.87826 0
M  V30 8130 O 756.599 0.892308 -2.56418 0
M  V30 8131 C 755.055 -1.61103 -3.21829 0
M  V30 8132 C 754.663 -3.12228 -3.21275 0
M  V30 8133 C 756.407 -1.46404 -3.98455 0
M  V30 8134 C 754.314 -3.733 -4.58695 0
M  V30 8135 H 753.244 -0.34357 -0.671175 0
M  V30 8136 H 755.895 -1.38718 -1.20123 0
M  V30 8137 H 754.277 -1.07958 -3.81 0
M  V30 8138 H 755.451 -3.72155 -2.71731 0
M  V30 8139 H 753.766 -3.26725 -2.58147 0
M  V30 8140 H 756.363 -1.8942 -5.00024 0
M  V30 8141 H 756.706 -0.41195 -4.14257 0
M  V30 8142 H 757.239 -1.96663 -3.45787 0
M  V30 8143 H 753.978 -4.78423 -4.48098 0
M  V30 8144 H 753.498 -3.18157 -5.08465 0
M  V30 8145 H 755.177 -3.7441 -5.27661 0
M  V30 8146 N 755.309 1.25446 -0.953992 0
M  V30 8147 C 756.558 1.92441 -0.604101 0
M  V30 8148 C 756.871 1.75543 0.862796 0
M  V30 8149 O 758.077 2.37106 1.32262 0
M  V30 8150 C 756.533 3.44854 -1.02974 0
M  V30 8151 C 756.141 3.70464 -2.51914 0
M  V30 8152 C 757.885 4.1778 -0.752352 0
M  V30 8153 C 755.792 5.1638 -2.88281 0
M  V30 8154 H 754.722 0.720508 -0.222227 0
M  V30 8155 H 757.373 1.42318 -1.15836 0
M  V30 8156 H 755.755 3.93935 -0.403904 0
M  V30 8157 H 756.929 3.32038 -3.19511 0
M  V30 8158 H 755.244 3.10797 -2.77117 0
M  V30 8159 H 757.841 5.25261 -1.00024 0
M  V30 8160 H 758.184 4.15135 0.311212 0
M  V30 8161 H 758.717 3.74605 -1.33851 0
M  V30 8162 H 755.456 5.24135 -3.93653 0
M  V30 8163 H 754.976 5.55855 -2.25357 0
M  V30 8164 H 756.655 5.84497 -2.77439 0
M  V30 8165 N 756.787 0.722489 1.40064 0
M  V30 8166 C 757.697 0.0755984 2.34478 0
M  V30 8167 C 758.713 -0.736046 1.57665 0
M  V30 8168 O 759.889 -0.667407 1.9002 0
M  V30 8169 C 756.954 -0.830075 3.36616 0
M  V30 8170 C 756.015 -0.00759884 4.29299 0
M  V30 8171 C 755.248 -0.870139 5.26559 0
M  V30 8172 O 755.471 -2.10921 5.2997 0
M  V30 8173 O 754.405 -0.305454 6.01124 0
M  V30 8174 H 758.231 0.854545 2.9143 0
M  V30 8175 H 755.816 0.483032 1.41376 0
M  V30 8176 H 757.698 -1.34864 3.99236 0
M  V30 8177 H 756.373 -1.58805 2.82069 0
M  V30 8178 H 755.28 0.556199 3.69942 0
M  V30 8179 H 756.613 0.712312 4.87018 0
M  V30 8180 N 758.265 -1.50454 0.469181 0
M  V30 8181 C 759.513 -2.01916 -0.0862982 0
M  V30 8182 C 759.834 -1.35337 -1.40388 0
M  V30 8183 O 759.104 -0.498096 -1.89462 0
M  V30 8184 H 757.684 -0.746185 -0.0348825 0
M  V30 8185 H 760.346 -1.84804 0.619167 0
M  V30 8186 H 759.442 -3.11182 -0.239189 0
M  V30 8187 N 759.743 -0.201713 -1.56304 0
M  V30 8188 C 760.69 0.716499 -2.19397 0
M  V30 8189 C 761.66 1.20494 -1.14326 0
M  V30 8190 O 762.845 1.26763 -1.42604 0
M  V30 8191 C 759.985 1.92762 -2.86246 0
M  V30 8192 C 759.098 1.47993 -4.0586 0
M  V30 8193 C 758.233 2.64706 -4.60547 0
M  V30 8194 C 757.272 2.16576 -5.72504 0
M  V30 8195 N 756.409 3.26491 -6.21569 0
M  V30 8196 H 761.249 0.171724 -2.97505 0
M  V30 8197 H 758.786 0.073016 -1.46919 0
M  V30 8198 H 760.744 2.6384 -3.23178 0
M  V30 8199 H 759.374 2.44559 -2.10691 0
M  V30 8200 H 758.426 0.66477 -3.74546 0
M  V30 8201 H 759.738 1.08686 -4.86815 0
M  V30 8202 H 758.892 3.43898 -4.99819 0
M  V30 8203 H 757.631 3.0729 -3.78713 0
M  V30 8204 H 756.636 1.3584 -5.32755 0
M  V30 8205 H 757.861 1.75015 -6.56161 0
M  V30 8206 H 755.807 3.68594 -5.42655 0
M  V30 8207 H 755.724 2.91374 -6.97594 0
M  V30 8208 H 756.992 4.05877 -6.65495 0
M  V30 8209 N 761.222 1.57436 0.0718424 0
M  V30 8210 C 762.17 2.04725 1.10411 0
M  V30 8211 C 763.164 0.952579 1.4008 0
M  V30 8212 O 764.37 1.13769 1.39487 0
M  V30 8213 H 760.745 0.652749 0.373393 0
M  V30 8214 H 762.716 2.90569 0.679126 0
M  V30 8215 C 761.465 2.5068 2.40946 0
M  V30 8216 H 760.788 3.34505 2.18967 0
M  V30 8217 H 762.228 2.87521 3.11621 0
M  V30 8218 C 760.687 1.38971 3.06902 0
M  V30 8219 O 761.217 0.731786 3.94978 0
M  V30 8220 N 759.423 1.13485 2.67525 0
M  V30 8221 H 758.97 1.67168 1.95991 0
M  V30 8222 H 758.928 0.389467 3.11978 0
M  V30 8223 N 762.7 -0.34323 1.53817 0
M  V30 8224 C 763.647 -1.42153 1.81827 0
M  V30 8225 C 764.617 -1.52251 0.663996 0
M  V30 8226 O 765.802 -1.67784 0.908461 0
M  V30 8227 C 762.942 -2.78799 2.03384 0
M  V30 8228 C 762.055 -2.7749 3.31094 0
M  V30 8229 C 761.19 -4.05856 3.42717 0
M  V30 8230 C 760.229 -3.98776 4.64375 0
M  V30 8231 N 759.366 -5.18833 4.73029 0
M  V30 8232 H 764.206 -1.17567 2.73829 0
M  V30 8233 H 761.743 -0.569506 1.35628 0
M  V30 8234 H 763.701 -3.58211 2.13872 0
M  V30 8235 H 762.331 -3.01736 1.14696 0
M  V30 8236 H 761.383 -1.90182 3.29446 0
M  V30 8237 H 762.695 -2.68137 4.206 0
M  V30 8238 H 761.849 -4.93691 3.52638 0
M  V30 8239 H 760.588 -4.1799 2.51267 0
M  V30 8240 H 759.593 -3.09325 4.5453 0
M  V30 8241 H 760.818 -3.88224 5.57189 0
M  V30 8242 H 758.764 -5.31511 3.84489 0
M  V30 8243 H 758.681 -5.11737 5.56472 0
M  V30 8244 H 759.949 -6.08439 4.87261 0
M  V30 8245 N 764.178 -1.45556 -0.604258 0
M  V30 8246 C 765.111 -1.48975 -1.72863 0
M  V30 8247 C 766.089 -0.345803 -1.5888 0
M  V30 8248 O 767.273 -0.546796 -1.80395 0
M  V30 8249 C 764.4 -1.34794 -3.10722 0
M  V30 8250 C 763.446 -2.53096 -3.43285 0
M  V30 8251 S 764.279 -4.15551 -3.37754 0
M  V30 8252 C 765.435 -4.03842 -4.78187 0
M  V30 8253 H 765.668 -2.44108 -1.69701 0
M  V30 8254 H 763.201 -1.33179 -0.781194 0
M  V30 8255 H 765.159 -1.273 -3.90263 0
M  V30 8256 H 763.82 -0.411254 -3.11396 0
M  V30 8257 H 763.013 -2.39109 -4.4367 0
M  V30 8258 H 762.615 -2.57469 -2.71267 0
M  V30 8259 H 764.907 -3.69191 -5.6807 0
M  V30 8260 H 765.85 -5.0415 -4.97231 0
M  V30 8261 H 766.258 -3.35443 -4.54025 0
M  V30 8262 N 765.656 0.84705 -1.32902 0
M  V30 8263 C 766.619 1.9378 -1.224 0
M  V30 8264 C 767.619 1.60144 -0.145108 0
M  V30 8265 O 768.809 1.69638 -0.396058 0
M  V30 8266 C 765.941 3.29234 -0.884174 0
M  V30 8267 H 767.134 2.04518 -2.19345 0
M  V30 8268 H 764.687 1.03816 -1.16842 0
M  V30 8269 H 765.422 3.24193 0.0831277 0
M  V30 8270 H 765.207 3.55026 -1.6643 0
M  V30 8271 H 766.697 4.09162 -0.835226 0
M  V30 8272 N 767.134 1.16236 1.06428 0
M  V30 8273 C 768.359 0.967688 1.83441 0
M  V30 8274 C 768.784 -0.479167 1.81894 0
M  V30 8275 O 768.142 -1.34224 1.21875 0
M  V30 8276 C 768.19 1.49806 3.2801 0
M  V30 8277 O 767.294 0.703481 4.06356 0
M  V30 8278 H 766.635 0.344468 0.56766 0
M  V30 8279 H 769.165 1.54442 1.34197 0
M  V30 8280 H 769.175 1.51495 3.78831 0
M  V30 8281 H 767.85 2.55133 3.2845 0
M  V30 8282 H 766.427 0.756986 3.65136 0
M  V30 8283 N 768.612 -1.24939 0.960631 0
M  V30 8284 C 769.84 -1.96881 0.636045 0
M  V30 8285 C 770.255 -1.71334 -0.793093 0
M  V30 8286 O 769.612 -0.992917 -1.53125 0
M  V30 8287 C 769.663 -3.50309 0.892533 0
M  V30 8288 O 769.384 -3.74977 2.26548 0
M  V30 8289 C 770.885 -4.39474 0.581159 0
M  V30 8290 H 768.105 -0.627399 0.237931 0
M  V30 8291 H 770.649 -1.58952 1.28664 0
M  V30 8292 H 768.804 -3.86326 0.288257 0
M  V30 8293 H 769.218 -4.69401 2.34014 0
M  V30 8294 H 770.692 -5.46008 0.811125 0
M  V30 8295 H 771.169 -4.3652 -0.48443 0
M  V30 8296 H 771.775 -4.09032 1.16502 0
M  V30 8297 N 770.09 -0.729906 -1.39679 0
M  V30 8298 C 771.02 -0.101618 -2.33279 0
M  V30 8299 C 772.001 0.729854 -1.53646 0
M  V30 8300 O 773.186 0.67587 -1.82059 0
M  V30 8301 C 770.316 0.81024 -3.37716 0
M  V30 8302 C 769.27 0.0833126 -4.27919 0
M  V30 8303 C 768.596 1.11185 -5.23012 0
M  V30 8304 C 769.896 -1.07107 -5.112 0
M  V30 8305 H 771.59 -0.883452 -2.86069 0
M  V30 8306 H 769.136 -0.426283 -1.37546 0
M  V30 8307 H 771.089 1.25927 -4.02145 0
M  V30 8308 H 769.813 1.62413 -2.83354 0
M  V30 8309 H 768.472 -0.346043 -3.64963 0
M  V30 8310 H 768.12 1.91917 -4.64948 0
M  V30 8311 H 767.82 0.63026 -5.8421 0
M  V30 8312 H 769.344 1.56068 -5.90318 0
M  V30 8313 H 770.758 -0.700726 -5.69002 0
M  V30 8314 H 769.155 -1.48196 -5.81514 0
M  V30 8315 H 770.225 -1.89513 -4.46332 0
M  V30 8316 N 771.568 1.50203 -0.477153 0
M  V30 8317 C 772.814 2.02658 0.0758507 0
M  V30 8318 C 773.147 1.358 1.38824 0
M  V30 8319 O 772.422 0.485696 1.88338 0
M  V30 8320 C 772.705 3.59208 0.253339 0
M  V30 8321 C 772.558 4.36629 -1.0805 0
M  V30 8322 C 773.877 4.28469 1.00509 0
M  V30 8323 H 770.996 0.736538 0.0260921 0
M  V30 8324 H 773.638 1.79464 -0.623925 0
M  V30 8325 H 771.788 3.79101 0.849378 0
M  V30 8326 H 773.46 4.28292 -1.71358 0
M  V30 8327 H 771.703 4.0013 -1.67566 0
M  V30 8328 H 772.374 5.44449 -0.909883 0
M  V30 8329 H 774.85 4.13087 0.499818 0
M  V30 8330 H 773.726 5.37804 1.09808 0
M  V30 8331 H 773.987 3.92057 2.04314 0
M  V30 8332 N 773.046 0.209999 1.56195 0
M  V30 8333 C 774.292 -0.425442 1.98287 0
M  V30 8334 C 774.625 -1.60232 1.09724 0
M  V30 8335 O 773.9 -1.93902 0.152414 0
M  V30 8336 C 774.183 -0.871189 3.49403 0
M  V30 8337 C 774.036 0.308527 4.48741 0
M  V30 8338 C 775.355 -1.73146 4.04609 0
M  V30 8339 H 772.474 -0.153169 0.720908 0
M  V30 8340 H 775.116 0.303916 1.87554 0
M  V30 8341 H 773.266 -1.49266 3.58681 0
M  V30 8342 H 774.938 0.946487 4.51486 0
M  V30 8343 H 773.181 0.957878 4.23092 0
M  V30 8344 H 773.852 -0.0461143 5.51981 0
M  V30 8345 H 776.328 -1.2072 3.98203 0
M  V30 8346 H 775.204 -2.01228 5.10684 0
M  V30 8347 H 775.465 -2.69083 3.5078 0
M  V30 8348 N 774.524 -1.57472 -0.0634922 0
M  V30 8349 C 775.487 -2.03268 -1.059 0
M  V30 8350 C 776.487 -0.931028 -1.31105 0
M  V30 8351 O 777.677 -1.19567 -1.26686 0
M  V30 8352 C 774.809 -2.42039 -2.40062 0
M  V30 8353 H 776.002 -2.92454 -0.664119 0
M  V30 8354 H 773.555 -1.53206 -0.309444 0
M  V30 8355 H 774.29 -1.55904 -2.84367 0
M  V30 8356 H 774.075 -3.22437 -2.23108 0
M  V30 8357 H 775.565 -2.78017 -3.11603 0
M  V30 8358 N 776.003 0.335068 -1.53997 0
M  V30 8359 C 777.28 1.09188 -1.62288 0
M  V30 8360 C 777.66 2.0626 -0.449458 0
M  V30 8361 O 777.008 2.21596 0.557444 0
M  V30 8362 C 777.218 1.80403 -2.98757 0
M  V30 8363 C 778.566 2.33841 -3.54406 0
M  V30 8364 O 779.59 1.90487 -3.00987 0
M  V30 8365 O 778.449 3.1318 -4.47862 0
M  V30 8366 H 775.543 0.502621 -0.656736 0
M  V30 8367 H 778.089 0.33588 -1.66343 0
M  V30 8368 H 776.861 1.09732 -3.75599 0
M  V30 8369 H 776.484 2.62841 -2.9833 0
M  V30 8370 N 777.481 1.45874 0.596531 0
M  V30 8371 C 778.706 1.54247 1.38646 0
M  V30 8372 C 779.131 0.179571 1.87241 0
M  V30 8373 O 778.489 -0.837831 1.6078 0
M  V30 8374 C 778.537 2.54015 2.55946 0
M  V30 8375 O 777.641 2.06561 3.5694 0
M  V30 8376 H 776.982 0.519555 0.413471 0
M  V30 8377 H 779.512 1.91327 0.724936 0
M  V30 8378 H 779.522 2.73179 3.03047 0
M  V30 8379 H 778.197 3.52994 2.19928 0
M  V30 8380 H 776.774 1.97324 3.16414 0
M  V30 8381 N 778.959 -0.83999 1.33349 0
M  V30 8382 C 780.375 -1.13049 1.12659 0
M  V30 8383 C 780.575 -2.01328 -0.0832613 0
M  V30 8384 O 779.631 -2.40669 -0.763856 0
M  V30 8385 C 780.944 -1.79366 2.41347 0
M  V30 8386 C 782.492 -1.91937 2.47243 0
M  V30 8387 C 782.967 -2.6167 3.75889 0
M  V30 8388 N 784.458 -2.69184 3.76954 0
M  V30 8389 C 785.193 -3.23827 4.73206 0
M  V30 8390 N 784.689 -3.79166 5.79832 0
M  V30 8391 N 786.482 -3.22068 4.60683 0
M  V30 8392 H 778.633 -0.252432 2.10895 0
M  V30 8393 H 780.896 -0.174501 0.931801 0
M  V30 8394 H 780.602 -1.2196 3.29877 0
M  V30 8395 H 780.476 -2.79396 2.53412 0
M  V30 8396 H 782.863 -2.48498 1.59163 0
M  V30 8397 H 782.944 -0.908604 2.39119 0
M  V30 8398 H 782.588 -2.05769 4.64351 0
M  V30 8399 H 782.518 -3.63217 3.81289 0
M  V30 8400 H 785.009 -2.2994 2.99893 0
M  V30 8401 H 785.322 -4.19061 6.49313 0
M  V30 8402 H 783.667 -3.77457 5.83568 0
M  V30 8403 H 786.858 -2.78092 3.7654 0
M  V30 8404 H 787.031 -3.64351 5.35866 0
M  V30 8405 N 780.437 -1.16799 -1.0581 0
M  V30 8406 C 781.686 -0.94698 -1.78088 0
M  V30 8407 C 781.999 0.526016 -1.88394 0
M  V30 8408 O 783.205 0.865061 -2.5735 0
M  V30 8409 C 781.661 -1.64508 -3.20102 0
M  V30 8410 C 781.269 -3.15618 -3.17946 0
M  V30 8411 C 783.013 -1.50622 -3.96879 0
M  V30 8412 C 780.92 -3.78144 -4.5471 0
M  V30 8413 H 779.85 -0.35067 -0.667493 0
M  V30 8414 H 782.501 -1.39985 -1.18645 0
M  V30 8415 H 780.883 -1.11993 -3.79834 0
M  V30 8416 H 782.057 -3.75016 -2.67768 0
M  V30 8417 H 780.372 -3.29444 -2.54667 0
M  V30 8418 H 782.969 -1.94713 -4.97987 0
M  V30 8419 H 783.312 -0.455864 -4.13797 0
M  V30 8420 H 783.845 -2.00319 -3.43682 0
M  V30 8421 H 780.584 -4.83149 -4.42998 0
M  V30 8422 H 780.104 -3.23532 -5.05062 0
M  V30 8423 H 781.783 -3.79986 -5.2366 0
M  V30 8424 N 781.915 1.24427 -0.967243 0
M  V30 8425 C 783.14 1.9708 -0.646069 0
M  V30 8426 C 783.565 1.71272 0.777665 0
M  V30 8427 O 782.923 0.976179 1.52776 0
M  V30 8428 C 782.971 3.48501 -0.926266 0
M  V30 8429 O 782.075 4.12398 -0.0114653 0
M  V30 8430 H 781.416 0.617423 -0.244304 0
M  V30 8431 H 783.946 1.58215 -1.29727 0
M  V30 8432 H 783.956 3.98885 -0.857619 0
M  V30 8433 H 782.631 3.66613 -1.96386 0
M  V30 8434 H 781.208 3.72661 -0.133396 0
M  V30 8435 N 783.393 0.737304 1.3929 0
M  V30 8436 C 784.641 0.285691 2.00071 0
M  V30 8437 C 784.962 -1.13169 1.58801 0
M  V30 8438 O 784.232 -1.77104 0.837308 0
M  V30 8439 H 782.812 0.102638 0.739915 0
M  V30 8440 H 785.474 0.947775 1.70303 0
M  V30 8441 H 784.57 0.335906 3.10287 0
M  V30 8442 N 784.871 -1.49948 0.485112 0
M  V30 8443 C 786.12 -2.01589 -0.066765 0
M  V30 8444 C 786.433 -1.371 -1.39509 0
M  V30 8445 O 787.639 -1.79978 -2.03274 0
M  V30 8446 C 786.095 -3.59501 -0.169476 0
M  V30 8447 C 785.703 -4.32955 1.15126 0
M  V30 8448 C 787.447 -4.19138 -0.672564 0
M  V30 8449 C 785.354 -5.82684 1.01158 0
M  V30 8450 H 784.284 -0.753453 -0.0287259 0
M  V30 8451 H 786.935 -1.72632 0.622132 0
M  V30 8452 H 785.317 -3.85106 -0.922471 0
M  V30 8453 H 786.491 -4.19064 1.9163 0
M  V30 8454 H 784.806 -3.84991 1.58654 0
M  V30 8455 H 787.403 -5.28767 -0.794325 0
M  V30 8456 H 787.746 -3.81447 -1.66745 0
M  V30 8457 H 788.279 -3.97793 0.0234415 0
M  V30 8458 H 785.018 -6.24873 1.98025 0
M  V30 8459 H 784.538 -5.99112 0.287151 0
M  V30 8460 H 786.217 -6.43376 0.683847 0
M  V30 8461 N 786.349 -0.21828 -1.56081 0
M  V30 8462 C 787.579 0.41865 -2.02314 0
M  V30 8463 C 787.987 1.54124 -1.09739 0
M  V30 8464 O 787.33 1.83435 -0.0986829 0
M  V30 8465 C 787.392 1.01439 -3.44892 0
M  V30 8466 C 787.056 0.0276523 -4.56992 0
M  V30 8467 C 788.053 -0.771526 -5.14143 0
M  V30 8468 C 785.738 -0.0901537 -5.02219 0
M  V30 8469 C 787.732 -1.67525 -6.14991 0
M  V30 8470 C 785.419 -0.997411 -6.02905 0
M  V30 8471 C 786.417 -1.78851 -6.59167 0
M  V30 8472 O 786.105 -2.68052 -7.57894 0
M  V30 8473 H 785.837 0.107066 -0.667468 0
M  V30 8474 H 788.391 -0.331191 -2.02712 0
M  V30 8475 H 786.621 1.81326 -3.41552 0
M  V30 8476 H 788.31 1.55838 -3.74792 0
M  V30 8477 H 789.076 -0.690945 -4.80053 0
M  V30 8478 H 784.955 0.515474 -4.58109 0
M  V30 8479 H 788.499 -2.29316 -6.58832 0
M  V30 8480 H 784.396 -1.07902 -6.36418 0
M  V30 8481 H 785.164 -2.6209 -7.75404 0
M  V30 8482 N 787.827 1.57504 0.0551401 0
M  V30 8483 C 789.076 1.87237 0.750009 0
M  V30 8484 C 789.389 0.813268 1.77891 0
M  V30 8485 O 790.595 0.99898 2.52453 0
M  V30 8486 C 789.051 3.32187 1.38491 0
M  V30 8487 C 788.659 4.46267 0.393707 0
M  V30 8488 C 790.403 3.71101 2.06117 0
M  V30 8489 C 788.31 5.82265 1.03547 0
M  V30 8490 H 787.24 0.698524 0.283866 0
M  V30 8491 H 789.891 1.835 0.00365997 0
M  V30 8492 H 788.273 3.30588 2.18008 0
M  V30 8493 H 789.447 4.59289 -0.372865 0
M  V30 8494 H 787.762 4.16015 -0.17902 0
M  V30 8495 H 790.359 4.70012 2.54937 0
M  V30 8496 H 790.702 3.01751 2.86796 0
M  V30 8497 H 791.235 3.74762 1.33409 0
M  V30 8498 H 787.974 6.54949 0.268644 0
M  V30 8499 H 787.494 5.73012 1.7725 0
M  V30 8500 H 789.173 6.28148 1.55047 0
M  V30 8501 N 789.305 -0.326896 1.54172 0
M  V30 8502 C 790.545 -1.07349 1.73941 0
M  V30 8503 C 790.909 -1.85355 0.50075 0
M  V30 8504 O 792.11 -2.62562 0.575731 0
M  V30 8505 C 790.381 -1.97636 2.97783 0
M  V30 8506 S 791.94 -2.79292 3.3844 0
M  V30 8507 H 788.758 -0.362459 0.611673 0
M  V30 8508 H 791.36 -0.349884 1.92344 0
M  V30 8509 H 790.064 -1.39158 3.86087 0
M  V30 8510 H 789.595 -2.74406 2.81895 0
M  V30 8511 H 791.61 -4.00106 2.93478 0
M  V30 8512 N 790.784 -1.46188 -0.588786 0
M  V30 8513 C 792.033 -1.50452 -1.34339 0
M  V30 8514 C 792.346 -0.158096 -1.9496 0
M  V30 8515 O 793.552 -0.0784918 -2.71387 0
M  V30 8516 C 792.008 -2.65074 -2.43441 0
M  V30 8517 C 791.616 -4.06111 -1.8915 0
M  V30 8518 C 793.36 -2.78603 -3.20282 0
M  V30 8519 C 791.267 -5.12084 -2.95845 0
M  V30 8520 H 790.197 -0.559905 -0.504997 0
M  V30 8521 H 792.848 -1.72382 -0.629014 0
M  V30 8522 H 791.23 -2.36462 -3.1765 0
M  V30 8523 H 792.404 -4.44487 -1.21524 0
M  V30 8524 H 790.719 -3.97197 -1.24995 0
M  V30 8525 H 793.316 -3.54944 -3.99898 0
M  V30 8526 H 793.659 -1.85902 -3.72486 0
M  V30 8527 H 794.192 -3.06832 -2.53178 0
M  V30 8528 H 790.931 -6.06556 -2.48535 0
M  V30 8529 H 790.451 -4.78259 -3.61979 0
M  V30 8530 H 792.13 -5.37661 -3.59902 0
M  V30 8531 N 792.262 0.832906 -1.33792 0
M  V30 8532 C 793.225 1.92471 -1.24449 0
M  V30 8533 C 794.225 1.59981 -0.162085 0
M  V30 8534 O 795.415 1.69208 -0.414029 0
M  V30 8535 C 792.547 3.28278 -0.919044 0
M  V30 8536 H 793.74 2.0218 -2.21502 0
M  V30 8537 H 791.293 1.0257 -1.17936 0
M  V30 8538 H 792.028 3.24263 0.048738 0
M  V30 8539 H 791.813 3.53241 -1.70187 0
M  V30 8540 H 793.303 4.08253 -0.878576 0
M  V30 8541 N 793.74 1.17359 1.05189 0
M  V30 8542 C 794.965 0.98709 1.82404 0
M  V30 8543 C 795.39 -0.459848 1.82392 0
M  V30 8544 O 794.748 -1.32924 1.23292 0
M  V30 8545 C 794.796 1.53276 3.26403 0
M  V30 8546 O 793.9 0.746541 4.05587 0
M  V30 8547 H 793.241 0.35047 0.563974 0
M  V30 8548 H 795.771 1.55856 1.32552 0
M  V30 8549 H 795.781 1.55504 3.77203 0
M  V30 8550 H 794.456 2.58603 3.25726 0
M  V30 8551 H 793.033 0.795671 3.64312 0
M  V30 8552 N 795.218 -1.23913 0.973828 0
M  V30 8553 C 796.166 -2.27141 0.50098 0
M  V30 8554 C 797.16 -1.63623 -0.438631 0
M  V30 8555 O 798.366 -1.77253 -0.313247 0
M  V30 8556 H 794.741 -0.73817 0.14356 0
M  V30 8557 H 796.712 -2.64392 1.38346 0
M  V30 8558 C 795.461 -3.47195 -0.187377 0
M  V30 8559 H 794.784 -3.96318 0.526535 0
M  V30 8560 H 796.224 -4.21252 -0.481962 0
M  V30 8561 C 794.683 -3.05678 -1.41642 0
M  V30 8562 O 795.213 -3.1338 -2.51309 0
M  V30 8563 N 793.419 -2.60661 -1.28469 0
M  V30 8564 H 792.966 -2.54594 -0.39238 0
M  V30 8565 H 792.924 -2.33249 -2.10813 0
M  V30 8566 N 796.696 -0.74468 -1.38897 0
M  V30 8567 C 797.643 -0.111064 -2.30533 0
M  V30 8568 C 798.613 0.719276 -1.49719 0
M  V30 8569 O 799.798 0.677244 -1.78376 0
M  V30 8570 C 796.938 0.78292 -3.36102 0
M  V30 8571 C 796.051 -0.0610817 -4.31957 0
M  V30 8572 C 795.186 0.835075 -5.24595 0
M  V30 8573 C 794.225 -0.0130974 -6.12099 0
M  V30 8574 N 793.362 0.839525 -6.97063 0
M  V30 8575 H 798.202 -0.898113 -2.84144 0
M  V30 8576 H 795.739 -0.454537 -1.39901 0
M  V30 8577 H 797.697 1.31578 -3.95908 0
M  V30 8578 H 796.327 1.53585 -2.83922 0
M  V30 8579 H 795.379 -0.711469 -3.73687 0
M  V30 8580 H 796.691 -0.716482 -4.93627 0
M  V30 8581 H 795.845 1.43542 -5.89475 0
M  V30 8582 H 794.584 1.52423 -4.63269 0
M  V30 8583 H 793.589 -0.626179 -5.46223 0
M  V30 8584 H 794.814 -0.699181 -6.75491 0
M  V30 8585 H 792.76 1.5138 -6.38295 0
M  V30 8586 H 792.677 0.240823 -7.55616 0
M  V30 8587 H 793.945 1.42513 -7.66362 0
M  V30 8588 N 798.174 1.49689 -0.493057 0
M  V30 8589 C 799.42 2.02727 0.0543518 0
M  V30 8590 C 799.753 1.37264 1.37376 0
M  V30 8591 O 799.028 0.505644 1.87812 0
M  V30 8592 C 799.311 3.59456 0.215226 0
M  V30 8593 C 799.164 4.35459 -1.12675 0
M  V30 8594 C 800.483 4.29511 0.959586 0
M  V30 8595 H 797.602 0.736773 0.0182786 0
M  V30 8596 H 800.244 1.78792 -0.642924 0
M  V30 8597 H 798.394 3.79981 0.809122 0
M  V30 8598 H 800.066 4.2645 -1.75891 0
M  V30 8599 H 798.309 3.9833 -1.71801 0
M  V30 8600 H 798.98 5.43454 -0.967578 0
M  V30 8601 H 801.456 4.13594 0.455977 0
M  V30 8602 H 800.332 5.38939 1.04098 0
M  V30 8603 H 800.593 3.94202 2.00144 0
M  V30 8604 N 799.652 0.226554 1.55963 0
M  V30 8605 C 800.9 -0.402991 1.98041 0
M  V30 8606 C 801.221 -1.59938 1.11557 0
M  V30 8607 O 800.491 -1.9494 0.193719 0
M  V30 8608 H 799.071 -0.15188 0.731397 0
M  V30 8609 H 801.733 0.320613 1.92245 0
M  V30 8610 H 800.829 -0.725937 3.0354 0
M  V30 8611 N 801.13 -1.57531 -0.0467866 0
M  V30 8612 C 802.358 -1.92696 -0.753371 0
M  V30 8613 C 802.773 -0.824792 -1.69831 0
M  V30 8614 O 802.13 0.200155 -1.81399 0
M  V30 8615 C 802.181 -3.27728 -1.52566 0
M  V30 8616 O 801.902 -4.3371 -0.618674 0
M  V30 8617 C 803.403 -3.77066 -2.33101 0
M  V30 8618 H 800.623 -0.636367 -0.212788 0
M  V30 8619 H 803.167 -2.04498 -0.00959361 0
M  V30 8620 H 801.322 -3.17378 -2.22148 0
M  V30 8621 H 801.736 -5.11548 -1.15839 0
M  V30 8622 H 803.21 -4.74109 -2.82709 0
M  V30 8623 H 803.687 -3.07348 -3.13741 0
M  V30 8624 H 804.293 -3.90442 -1.68628 0
M  V30 8625 N 802.608 0.318715 -1.54344 0
M  V30 8626 C 803.854 1.05765 -1.73037 0
M  V30 8627 C 804.187 1.87514 -0.505181 0
M  V30 8628 O 803.462 1.88021 0.497838 0
M  V30 8629 C 803.745 1.97836 -3.00887 0
M  V30 8630 C 803.598 1.19384 -4.33668 0
M  V30 8631 C 804.917 2.97285 -3.24514 0
M  V30 8632 H 802.036 0.383104 -0.629603 0
M  V30 8633 H 804.678 0.333864 -1.87044 0
M  V30 8634 H 802.828 2.59552 -2.89076 0
M  V30 8635 H 804.5 0.600906 -4.57369 0
M  V30 8636 H 802.743 0.496198 -4.30953 0
M  V30 8637 H 803.414 1.87014 -5.19355 0
M  V30 8638 H 805.89 2.45693 -3.35819 0
M  V30 8639 H 804.766 3.58887 -4.15321 0
M  V30 8640 H 805.027 3.70003 -2.41971 0
M  V30 8641 N 804.086 1.46499 0.581025 0
M  V30 8642 C 805.334 1.51596 1.33653 0
M  V30 8643 C 805.655 0.169859 1.94259 0
M  V30 8644 O 804.925 -0.803776 1.78651 0
M  V30 8645 H 803.505 0.558346 0.496244 0
M  V30 8646 H 806.167 1.8264 0.680338 0
M  V30 8647 H 805.263 2.26956 2.14237 0
M  V30 8648 N 805.565 -0.825799 1.34232 0
M  V30 8649 C 806.981 -1.11848 1.13851 0
M  V30 8650 C 807.181 -2.01405 -0.0619031 0
M  V30 8651 O 806.237 -2.41465 -0.738287 0
M  V30 8652 C 807.55 -1.76797 2.43235 0
M  V30 8653 C 809.098 -1.89304 2.49265 0
M  V30 8654 C 809.573 -2.57669 3.78643 0
M  V30 8655 N 811.064 -2.65171 3.79788 0
M  V30 8656 C 811.799 -3.1879 4.76614 0
M  V30 8657 N 811.295 -3.72995 5.83821 0
M  V30 8658 N 813.088 -3.17164 4.64073 0
M  V30 8659 H 805.239 -0.230049 2.11151 0
M  V30 8660 H 807.502 -0.164609 0.9336 0
M  V30 8661 H 807.208 -1.18455 3.31152 0
M  V30 8662 H 807.082 -2.76693 2.56361 0
M  V30 8663 H 809.469 -2.46796 1.6179 0
M  V30 8664 H 809.55 -0.883191 2.4007 0
M  V30 8665 H 809.194 -2.00833 4.66507 0
M  V30 8666 H 809.124 -3.59152 3.8512 0
M  V30 8667 H 811.615 -2.26746 3.02315 0
M  V30 8668 H 811.928 -4.12151 6.53721 0
M  V30 8669 H 810.273 -3.71246 5.87538 0
M  V30 8670 H 813.464 -2.74082 3.79469 0
M  V30 8671 H 813.637 -3.58647 5.397 0
M  V30 8672 N 807.043 -1.17915 -1.04565 0
M  V30 8673 C 807.991 -0.897919 -2.1457 0
M  V30 8674 C 808.985 0.139883 -1.68821 0
M  V30 8675 O 810.191 -0.00779463 -1.79998 0
M  V30 8676 H 806.566 -0.272867 -0.700748 0
M  V30 8677 H 808.537 -1.83268 -2.3549 0
M  V30 8678 C 807.286 -0.434634 -3.44973 0
M  V30 8679 H 806.609 -1.22469 -3.8058 0
M  V30 8680 H 808.049 -0.276804 -4.23095 0
M  V30 8681 C 806.508 0.848738 -3.26034 0
M  V30 8682 O 807.038 1.9141 -3.53164 0
M  V30 8683 N 805.244 0.799373 -2.79389 0
M  V30 8684 H 804.791 -0.0678192 -2.57511 0
M  V30 8685 H 804.749 1.6585 -2.67098 0
M  V30 8686 N 808.521 1.23394 -0.980386 0
M  V30 8687 C 809.77 1.91116 -0.644785 0
M  V30 8688 C 810.083 1.77333 0.825367 0
M  V30 8689 O 811.289 2.39858 1.27203 0
M  V30 8690 C 809.745 3.42592 -1.10266 0
M  V30 8691 C 809.353 3.65037 -2.59715 0
M  V30 8692 C 811.097 4.1609 -0.8408 0
M  V30 8693 C 809.004 5.10148 -2.9917 0
M  V30 8694 H 807.934 0.715632 -0.23746 0
M  V30 8695 H 810.585 1.39829 -1.18828 0
M  V30 8696 H 808.967 3.92989 -0.487372 0
M  V30 8697 H 810.141 3.25186 -3.26482 0
M  V30 8698 H 808.456 3.04849 -2.83647 0
M  V30 8699 H 811.053 5.23021 -1.11143 0
M  V30 8700 H 811.396 4.15702 0.223085 0
M  V30 8701 H 811.929 3.71681 -1.41767 0
M  V30 8702 H 808.668 5.15668 -4.04682 0
M  V30 8703 H 808.188 5.50949 -2.37097 0
M  V30 8704 H 809.867 5.7848 -2.89775 0
M  V30 8705 N 809.999 0.752036 1.385 0
M  V30 8706 C 811.224 0.316993 2.04963 0
M  V30 8707 C 811.649 -1.04582 1.56346 0
M  V30 8708 O 811.007 -1.66616 0.714755 0
M  V30 8709 C 811.055 0.347235 3.58924 0
M  V30 8710 O 810.159 -0.659296 4.07096 0
M  V30 8711 H 809.5 0.140652 0.648932 0
M  V30 8712 H 812.03 1.02272 1.77205 0
M  V30 8713 H 812.04 0.19757 4.07521 0
M  V30 8714 H 810.715 1.34157 3.93668 0
M  V30 8715 H 809.292 -0.474371 3.6987 0
M  V30 8716 N 811.477 -1.49425 0.500989 0
M  V30 8717 C 812.724 -2.02453 -0.0435355 0
M  V30 8718 C 813.052 -1.38067 -1.36995 0
M  V30 8719 O 812.307 -0.505557 -1.89057 0
M  V30 8720 C 812.606 -3.56562 -0.24463 0
M  V30 8721 C 812.272 -4.39585 1.00379 0
M  V30 8722 C 810.934 -4.61992 1.346 0
M  V30 8723 C 813.286 -4.87881 1.83361 0
M  V30 8724 C 810.614 -5.2994 2.51755 0
M  V30 8725 C 812.966 -5.57119 2.99669 0
M  V30 8726 C 811.63 -5.77771 3.3427 0
M  V30 8727 H 810.9 -0.740829 -0.0159308 0
M  V30 8728 H 813.547 -1.79725 0.661143 0
M  V30 8729 H 811.852 -3.77969 -1.03183 0
M  V30 8730 H 813.549 -3.95185 -0.6804 0
M  V30 8731 H 810.139 -4.22385 0.727225 0
M  V30 8732 H 814.323 -4.70398 1.58237 0
M  V30 8733 H 809.579 -5.44133 2.788 0
M  V30 8734 H 813.753 -5.93516 3.64296 0
M  V30 8735 H 811.38 -6.30197 4.25154 0
M  V30 8736 N 812.955 -0.234822 -1.55841 0
M  V30 8737 C 814.185 0.397168 -2.02746 0
M  V30 8738 C 814.593 1.52951 -1.11367 0
M  V30 8739 O 813.936 1.8332 -0.118133 0
M  V30 8740 C 813.998 0.977748 -3.45948 0
M  V30 8741 C 813.662 -0.0208193 -4.56995 0
M  V30 8742 C 814.659 -0.826015 -5.13296 0
M  V30 8743 C 812.344 -0.143416 -5.02095 0
M  V30 8744 C 814.338 -1.74038 -6.1318 0
M  V30 8745 C 812.025 -1.0613 -6.01814 0
M  V30 8746 C 813.023 -1.85832 -6.57233 0
M  V30 8747 O 812.711 -2.76075 -7.55008 0
M  V30 8748 H 812.443 0.0999802 -0.668566 0
M  V30 8749 H 814.997 -0.352673 -2.0235 0
M  V30 8750 H 813.227 1.77693 -3.43456 0
M  V30 8751 H 814.916 1.51854 -3.76424 0
M  V30 8752 H 815.682 -0.741822 -4.79293 0
M  V30 8753 H 811.561 0.466857 -4.5863 0
M  V30 8754 H 815.105 -2.36291 -6.56363 0
M  V30 8755 H 811.002 -1.14646 -6.35237 0
M  V30 8756 H 811.77 -2.703 -7.7258 0
M  V30 8757 N 814.433 1.57553 0.0384317 0
M  V30 8758 C 815.682 1.88022 0.730108 0
M  V30 8759 C 815.995 0.83209 1.77019 0
M  V30 8760 O 817.201 1.0257 2.51379 0
M  V30 8761 C 815.657 3.33637 1.3496 0
M  V30 8762 C 815.265 4.46659 0.346352 0
M  V30 8763 C 817.009 3.73266 2.02169 0
M  V30 8764 C 814.916 5.8333 0.973652 0
M  V30 8765 H 813.846 0.701496 0.276442 0
M  V30 8766 H 816.497 1.83493 -0.0158028 0
M  V30 8767 H 814.879 3.32882 2.1449 0
M  V30 8768 H 816.053 4.58868 -0.421558 0
M  V30 8769 H 814.368 4.15802 -0.223133 0
M  V30 8770 H 816.965 4.72689 2.49938 0
M  V30 8771 H 817.308 3.04776 2.8358 0
M  V30 8772 H 817.841 3.76156 1.29427 0
M  V30 8773 H 814.58 6.55197 0.199163 0
M  V30 8774 H 814.1 5.7486 1.71162 0
M  V30 8775 H 815.779 6.29757 1.48376 0
M  V30 8776 N 815.911 -0.310526 1.54511 0
M  V30 8777 C 817.139 -1.06611 1.77318 0
M  V30 8778 C 817.554 -1.81265 0.528043 0
M  V30 8779 O 816.911 -1.75466 -0.50178 0
M  V30 8780 C 816.962 -2.05409 2.97472 0
M  V30 8781 O 816.683 -1.33785 4.17173 0
M  V30 8782 C 818.184 -2.93082 3.32593 0
M  V30 8783 H 815.404 -0.316578 0.591624 0
M  V30 8784 H 817.948 -0.352691 2.01436 0
M  V30 8785 H 816.103 -2.72266 2.7559 0
M  V30 8786 H 816.517 -2.00055 4.84849 0
M  V30 8787 H 817.991 -3.58274 4.19933 0
M  V30 8788 H 818.468 -3.60877 2.50329 0
M  V30 8789 H 819.074 -2.31768 3.566 0
M  V30 8790 N 817.389 -1.46805 -0.573248 0
M  V30 8791 C 818.666 -1.43082 -1.33368 0
M  V30 8792 C 819.046 -0.119252 -2.10763 0
M  V30 8793 O 818.394 0.899239 -2.10062 0
M  V30 8794 C 818.604 -2.66643 -2.25172 0
M  V30 8795 C 819.952 -3.13188 -2.86702 0
M  V30 8796 O 820.976 -2.67258 -2.35482 0
M  V30 8797 O 819.835 -3.92994 -3.79761 0
M  V30 8798 H 816.929 -0.569451 -0.599712 0
M  V30 8799 H 819.475 -1.58984 -0.59348 0
M  V30 8800 H 818.247 -3.53649 -1.67475 0
M  V30 8801 H 817.87 -2.53247 -3.06516 0
M  V30 8802 N 818.867 0.818669 -1.34668 0
M  V30 8803 C 820.113 1.57746 -1.27453 0
M  V30 8804 C 820.446 1.93588 0.154077 0
M  V30 8805 O 819.721 1.60371 1.10051 0
M  V30 8806 C 820.004 2.87414 -2.16945 0
M  V30 8807 C 819.857 2.58125 -3.68363 0
M  V30 8808 C 821.176 3.89021 -2.05792 0
M  V30 8809 H 818.295 0.572339 -0.464324 0
M  V30 8810 H 820.937 0.942784 -1.64959 0
M  V30 8811 H 819.087 3.41576 -1.85089 0
M  V30 8812 H 820.759 2.10239 -4.10606 0
M  V30 8813 H 819.002 1.91503 -3.89242 0
M  V30 8814 H 819.673 3.5061 -4.26353 0
M  V30 8815 H 822.149 3.44224 -2.33771 0
M  V30 8816 H 821.025 4.77548 -2.70628 0
M  V30 8817 H 821.286 4.29786 -1.03618 0
M  V30 8818 N 820.346 1.18468 1.03938 0
M  V30 8819 C 821.757 0.984808 1.58614 0
M  V30 8820 C 822.108 -0.465165 1.90606 0
M  V30 8821 O 821.233 -1.34274 1.69704 0
M  V30 8822 C 821.828 1.78135 2.8819 0
M  V30 8823 C 820.387 1.62579 3.39478 0
M  V30 8824 C 819.534 1.77501 2.13046 0
M  V30 8825 H 822.485 1.32993 0.865944 0
M  V30 8826 H 822.506 1.27119 3.58638 0
M  V30 8827 H 822.018 2.83661 2.64874 0
M  V30 8828 H 820.119 0.59595 3.67803 0
M  V30 8829 H 820.232 2.42463 4.13217 0
M  V30 8830 H 818.596 1.2046 2.24414 0
M  V30 8831 H 819.379 2.84464 1.92185 0
M  V30 8832 N 821.824 -1.22873 0.986916 0
M  V30 8833 C 822.772 -2.26597 0.525043 0
M  V30 8834 C 823.766 -1.64079 -0.421252 0
M  V30 8835 O 824.972 -1.77576 -0.294429 0
M  V30 8836 H 821.347 -0.736606 0.151381 0
M  V30 8837 H 823.318 -2.62909 1.41142 0
M  V30 8838 C 822.067 -3.47374 -0.150542 0
M  V30 8839 H 821.39 -3.95737 0.568541 0
M  V30 8840 H 822.83 -4.21739 -0.437256 0
M  V30 8841 C 821.289 -3.07163 -1.38392 0
M  V30 8842 O 821.819 -3.16028 -2.47971 0
M  V30 8843 N 820.025 -2.62009 -1.25697 0
M  V30 8844 H 819.572 -2.54996 -0.365355 0
M  V30 8845 H 819.53 -2.35472 -2.08327 0
M  V30 8846 N 823.302 -0.75937 -1.38099 0
M  V30 8847 C 824.55 -0.317485 -1.99591 0
M  V30 8848 C 824.871 1.10628 -1.60581 0
M  V30 8849 O 824.141 1.7575 -0.865378 0
M  V30 8850 H 822.721 -0.114397 -0.738189 0
M  V30 8851 H 825.383 -0.974749 -1.68774 0
M  V30 8852 H 824.479 -0.385227 -3.09713 0
M  V30 8853 N 824.78 1.49157 -0.508906 0
M  V30 8854 C 826.027 2.02473 0.0327983 0
M  V30 8855 C 826.355 1.38792 1.36261 0
M  V30 8856 O 825.61 0.515576 1.88786 0
M  V30 8857 C 825.909 3.56687 0.225717 0
M  V30 8858 C 825.575 4.39046 -1.02708 0
M  V30 8859 C 824.237 4.61271 -1.37048 0
M  V30 8860 C 826.589 4.86902 -1.85946 0
M  V30 8861 C 823.917 5.28598 -2.54562 0
M  V30 8862 C 826.269 5.55521 -3.0262 0
M  V30 8863 C 824.933 5.7599 -3.3733 0
M  V30 8864 H 824.203 0.740903 0.0120017 0
M  V30 8865 H 826.85 1.79372 -0.670665 0
M  V30 8866 H 825.155 3.78511 1.01177 0
M  V30 8867 H 826.852 3.95541 0.659433 0
M  V30 8868 H 823.442 4.21994 -0.749615 0
M  V30 8869 H 827.626 4.69553 -1.6073 0
M  V30 8870 H 822.882 5.42646 -2.81682 0
M  V30 8871 H 827.056 5.91576 -3.67438 0
M  V30 8872 H 824.683 6.27934 -4.2849 0
M  V30 8873 N 826.258 0.243083 1.55714 0
M  V30 8874 C 827.208 -0.671915 2.17875 0
M  V30 8875 C 828.192 -1.14199 1.13347 0
M  V30 8876 O 829.384 -1.09239 1.39269 0
M  V30 8877 C 826.513 -1.87027 2.87881 0
M  V30 8878 C 825.599 -1.41888 3.99661 0
M  V30 8879 N 825.99 -0.681465 5.01188 0
M  V30 8880 C 824.288 -1.70447 4.12145 0
M  V30 8881 C 824.989 -0.448285 5.7997 0
M  V30 8882 N 823.965 -1.01137 5.34109 0
M  V30 8883 H 827.767 -0.100321 2.93729 0
M  V30 8884 H 825.281 0.0452371 1.62337 0
M  V30 8885 H 827.278 -2.53674 3.3084 0
M  V30 8886 H 825.938 -2.44613 2.13529 0
M  V30 8887 H 826.949 -0.331959 5.16835 0
M  V30 8888 H 823.626 -2.29198 3.48962 0
M  V30 8889 H 825.016 0.140141 6.71754 0
M  V30 8890 N 827.736 -1.57571 -0.0300757 0
M  V30 8891 C 828.982 -1.89506 -0.722159 0
M  V30 8892 C 829.315 -0.840699 -1.7506 0
M  V30 8893 O 828.59 0.144358 -1.93964 0
M  V30 8894 C 828.873 -3.32081 -1.39262 0
M  V30 8895 C 828.726 -4.48211 -0.377768 0
M  V30 8896 C 830.045 -3.73557 -2.32687 0
M  V30 8897 H 827.164 -0.689213 -0.261064 0
M  V30 8898 H 829.806 -1.89994 0.0150388 0
M  V30 8899 H 827.956 -3.31796 -2.02098 0
M  V30 8900 H 829.628 -4.6063 0.248591 0
M  V30 8901 H 827.871 -4.3274 0.303045 0
M  V30 8902 H 828.542 -5.44854 -0.885347 0
M  V30 8903 H 831.018 -3.75202 -1.79896 0
M  V30 8904 H 829.894 -4.74125 -2.7658 0
M  V30 8905 H 830.155 -3.05759 -3.19317 0
M  V30 8906 N 829.214 0.302327 -1.54673 0
M  V30 8907 C 830.162 1.39286 -1.86285 0
M  V30 8908 C 831.156 1.52553 -0.736478 0
M  V30 8909 O 832.362 1.54686 -0.92045 0
M  V30 8910 H 828.737 0.465228 -0.590819 0
M  V30 8911 H 830.708 1.09859 -2.77441 0
M  V30 8912 C 829.457 2.75155 -2.12567 0
M  V30 8913 H 828.78 2.65728 -2.98712 0
M  V30 8914 H 830.22 3.50476 -2.38627 0
M  V30 8915 C 828.679 3.23987 -0.923813 0
M  V30 8916 O 829.209 4.01443 -0.143649 0
M  V30 8917 N 827.415 2.81293 -0.72956 0
M  V30 8918 H 826.962 2.18421 -1.36565 0
M  V30 8919 H 826.92 3.14315 0.0730351 0
M  V30 8920 N 830.692 1.47107 0.565454 0
M  V30 8921 C 831.622 1.61846 1.68309 0
M  V30 8922 C 832.603 0.468159 1.63531 0
M  V30 8923 O 833.788 0.696504 1.8128 0
M  V30 8924 C 830.918 1.62474 3.06952 0
M  V30 8925 C 829.872 2.76649 3.26572 0
M  V30 8926 C 829.198 2.62345 4.65917 0
M  V30 8927 C 830.498 4.18319 3.12741 0
M  V30 8928 H 832.192 2.55407 1.5623 0
M  V30 8929 H 829.738 1.22916 0.750179 0
M  V30 8930 H 831.691 1.71378 3.84977 0
M  V30 8931 H 830.415 0.654692 3.19971 0
M  V30 8932 H 829.074 2.67242 2.50952 0
M  V30 8933 H 828.722 1.63386 4.75725 0
M  V30 8934 H 828.422 3.38936 4.79996 0
M  V30 8935 H 829.946 2.73165 5.46089 0
M  V30 8936 H 831.36 4.28745 3.80593 0
M  V30 8937 H 829.757 4.95632 3.38333 0
M  V30 8938 H 830.827 4.37263 2.09592 0
M  V30 8939 N 832.17 -0.811516 1.35101 0
M  V30 8940 C 833.08 -1.95475 1.29718 0
M  V30 8941 C 834.096 -1.72813 0.202909 0
M  V30 8942 O 835.272 -1.96725 0.431414 0
M  V30 8943 C 832.337 -3.29975 1.06385 0
M  V30 8944 C 831.398 -3.65566 2.25077 0
M  V30 8945 C 830.631 -4.93648 2.02848 0
M  V30 8946 O 830.854 -5.617 0.992442 0
M  V30 8947 O 829.788 -5.27384 2.90087 0
M  V30 8948 H 833.614 -2.02961 2.25921 0
M  V30 8949 H 831.199 -0.948583 1.15422 0
M  V30 8950 H 833.081 -4.10506 0.951999 0
M  V30 8951 H 831.756 -3.2343 0.132294 0
M  V30 8952 H 830.663 -2.85432 2.41825 0
M  V30 8953 H 831.996 -3.7681 3.16662 0
M  V30 8954 N 833.648 -1.19017 -1.03309 0
M  V30 8955 C 834.595 -0.924088 -2.11493 0
M  V30 8956 C 835.565 0.139464 -1.65513 0
M  V30 8957 O 836.75 -0.00178761 -1.908 0
M  V30 8958 C 833.89 -0.464255 -3.41963 0
M  V30 8959 C 833.003 -1.5941 -4.01513 0
M  V30 8960 C 832.138 -1.08622 -5.19976 0
M  V30 8961 C 831.177 -2.19024 -5.71572 0
M  V30 8962 N 830.314 -1.69575 -6.81314 0
M  V30 8963 H 835.154 -1.85039 -2.33591 0
M  V30 8964 H 832.691 -0.922593 -1.14572 0
M  V30 8965 H 834.649 -0.179078 -4.16815 0
M  V30 8966 H 833.279 0.425062 -3.19989 0
M  V30 8967 H 832.331 -1.99458 -3.23915 0
M  V30 8968 H 833.643 -2.42604 -4.35826 0
M  V30 8969 H 832.797 -0.756022 -6.01971 0
M  V30 8970 H 831.536 -0.223955 -4.87186 0
M  V30 8971 H 830.541 -2.5288 -4.88193 0
M  V30 8972 H 831.766 -3.05699 -6.06403 0
M  V30 8973 H 829.712 -0.856494 -6.50385 0
M  V30 8974 H 829.629 -2.46361 -7.14732 0
M  V30 8975 H 830.897 -1.39505 -7.66915 0
M  V30 8976 N 835.127 1.22348 -0.993418 0
M  V30 8977 C 836.06 2.22898 -0.489073 0
M  V30 8978 C 837.038 1.56222 0.450927 0
M  V30 8979 O 838.222 1.84705 0.376351 0
M  V30 8980 C 835.349 3.37448 0.290946 0
M  V30 8981 C 834.395 4.22328 -0.595123 0
M  V30 8982 S 835.228 4.94677 -2.05072 0
M  V30 8983 C 836.384 6.12667 -1.28021 0
M  V30 8984 H 836.617 2.65333 -1.34111 0
M  V30 8985 H 834.15 1.32032 -0.800429 0
M  V30 8986 H 836.108 4.03867 0.734944 0
M  V30 8987 H 834.769 2.93519 1.11826 0
M  V30 8988 H 833.962 5.04 0.00507413 0
M  V30 8989 H 833.564 3.61043 -0.975906 0
M  V30 8990 H 835.856 6.75279 -0.548129 0
M  V30 8991 H 836.799 6.771 -2.07223 0
M  V30 8992 H 837.207 5.58898 -0.793272 0
M  V30 8993 N 836.605 0.766683 1.37694 0
M  V30 8994 C 838.016 0.394761 1.82479 0
M  V30 8995 C 838.367 -1.07842 1.63904 0
M  V30 8996 O 837.492 -1.83479 1.14737 0
M  V30 8997 C 838.087 0.70974 3.31283 0
M  V30 8998 C 836.646 0.390936 3.74364 0
M  V30 8999 C 835.793 0.956192 2.60293 0
M  V30 9000 H 838.744 0.961756 1.26238 0
M  V30 9001 H 838.765 -0.00742144 3.80499 0
M  V30 9002 H 838.277 1.782 3.4477 0
M  V30 9003 H 836.378 -0.674213 3.66449 0
M  V30 9004 H 836.491 0.895645 4.70654 0
M  V30 9005 H 834.855 0.380744 2.51838 0
M  V30 9006 H 835.638 2.03375 2.76575 0
M  V30 9007 N 838.083 -1.48885 0.516809 0
M  V30 9008 C 839.311 -2.06892 -0.0184017 0
M  V30 9009 C 839.726 -1.37511 -1.29368 0
M  V30 9010 O 839.083 -0.458409 -1.76649 0
M  V30 9011 C 839.134 -3.60566 -0.259673 0
M  V30 9012 O 838.855 -4.27338 0.965065 0
M  V30 9013 C 840.356 -4.35331 -0.836751 0
M  V30 9014 H 837.576 -0.670433 0.0275743 0
M  V30 9015 H 840.12 -1.91455 0.718689 0
M  V30 9016 H 838.275 -3.75653 -0.94678 0
M  V30 9017 H 838.689 -5.19287 0.737647 0
M  V30 9018 H 840.163 -5.43675 -0.955065 0
M  V30 9019 H 840.64 -3.9887 -1.83845 0
M  V30 9020 H 841.246 -4.2489 -0.186622 0
M  V30 9021 N 839.561 -0.251338 -1.55583 0
M  V30 9022 C 840.471 0.656978 -2.25213 0
M  V30 9023 C 841.487 1.18966 -1.26977 0
M  V30 9024 O 842.663 1.22499 -1.59862 0
M  V30 9025 C 839.728 1.83527 -2.94141 0
M  V30 9026 C 838.789 1.34162 -4.07798 0
M  V30 9027 C 838.022 2.46375 -4.73429 0
M  V30 9028 O 838.245 3.65205 -4.38157 0
M  V30 9029 O 837.179 2.15881 -5.61853 0
M  V30 9030 H 841.005 0.0936395 -3.03556 0
M  V30 9031 H 838.59 -0.0196638 -1.49387 0
M  V30 9032 H 840.472 2.52279 -3.3754 0
M  V30 9033 H 839.147 2.38614 -2.18735 0
M  V30 9034 H 838.054 0.621249 -3.68906 0
M  V30 9035 H 839.387 0.836779 -4.85035 0
M  V30 9036 N 841.039 1.57585 0.0217189 0
M  V30 9037 C 842.287 1.89231 0.709641 0
M  V30 9038 C 842.608 0.849964 1.75501 0
M  V30 9039 O 841.878 -0.115485 1.95559 0
M  V30 9040 H 840.458 0.69838 0.265092 0
M  V30 9041 H 843.12 1.94895 -0.0140688 0
M  V30 9042 H 842.216 2.88333 1.19459 0
M  V30 9043 N 842.517 -0.29412 1.54831 0
M  V30 9044 C 843.427 -1.3854 1.89325 0
M  V30 9045 C 844.443 -1.55127 0.788133 0
M  V30 9046 O 845.619 -1.6966 1.08524 0
M  V30 9047 C 842.684 -2.72809 2.13954 0
M  V30 9048 C 841.745 -2.65148 3.37631 0
M  V30 9049 C 840.978 -3.93014 3.61076 0
M  V30 9050 O 841.201 -4.927 2.87406 0
M  V30 9051 O 840.135 -3.94491 4.54599 0
M  V30 9052 H 843.961 -1.12289 2.82179 0
M  V30 9053 H 841.546 -0.490793 1.41108 0
M  V30 9054 H 843.428 -3.52238 2.31315 0
M  V30 9055 H 842.103 -2.9889 1.24285 0
M  V30 9056 H 841.01 -1.84168 3.25627 0
M  V30 9057 H 842.343 -2.4402 4.27452 0
M  V30 9058 N 843.995 -1.47404 -0.557645 0
M  V30 9059 C 845.272 -1.44488 -1.31843 0
M  V30 9060 C 845.652 -0.1416 -2.10625 0
M  V30 9061 O 845 0.876908 -2.11004 0
M  V30 9062 C 845.21 -2.69016 -2.22331 0
M  V30 9063 C 846.558 -3.16212 -2.83364 0
M  V30 9064 O 847.582 -2.69741 -2.32634 0
M  V30 9065 O 846.441 -3.96999 -3.75571 0
M  V30 9066 H 843.535 -0.57578 -0.593639 0
M  V30 9067 H 846.081 -1.59605 -0.576584 0
M  V30 9068 H 844.853 -3.55406 -1.63715 0
M  V30 9069 H 844.476 -2.56484 -3.03812 0
M  V30 9070 N 845.473 0.80434 -1.35529 0
M  V30 9071 C 846.403 1.93086 -1.31301 0
M  V30 9072 C 847.384 1.69068 -0.187044 0
M  V30 9073 O 848.569 1.90399 -0.382359 0
M  V30 9074 C 845.699 3.29867 -1.0865 0
M  V30 9075 C 844.653 3.68373 -2.17911 0
M  V30 9076 C 843.979 5.0334 -1.80423 0
M  V30 9077 C 845.279 3.78516 -3.59893 0
M  V30 9078 H 846.973 1.96882 -2.25561 0
M  V30 9079 H 844.519 0.945841 -1.08581 0
M  V30 9080 H 846.472 4.08281 -1.04331 0
M  V30 9081 H 845.196 3.2642 -0.108359 0
M  V30 9082 H 843.855 2.92247 -2.21331 0
M  V30 9083 H 843.503 4.96399 -0.812213 0
M  V30 9084 H 843.203 5.30074 -2.53565 0
M  V30 9085 H 844.727 5.84191 -1.77633 0
M  V30 9086 H 846.141 4.47155 -3.58783 0
M  V30 9087 H 844.538 4.16721 -4.31814 0
M  V30 9088 H 845.608 2.8001 -3.95882 0
M  V30 9089 N 846.951 1.19563 1.02676 0
M  V30 9090 C 847.898 0.935291 2.11 0
M  V30 9091 C 848.868 -0.130685 1.65585 0
M  V30 9092 O 850.053 0.0119062 1.90796 0
M  V30 9093 C 847.193 0.482384 3.41712 0
M  V30 9094 C 846.306 1.61537 4.00662 0
M  V30 9095 C 845.441 1.11378 5.19392 0
M  V30 9096 C 844.48 2.22052 5.70403 0
M  V30 9097 N 843.617 1.73185 6.80405 0
M  V30 9098 H 848.457 1.86275 2.32606 0
M  V30 9099 H 845.994 0.928656 1.14081 0
M  V30 9100 H 847.952 0.20118 4.16715 0
M  V30 9101 H 846.582 -0.408086 3.2021 0
M  V30 9102 H 845.634 2.01173 3.22852 0
M  V30 9103 H 846.946 2.44912 4.34534 0
M  V30 9104 H 846.1 0.787935 6.01562 0
M  V30 9105 H 844.839 0.249789 4.8706 0
M  V30 9106 H 843.844 2.55465 4.86845 0
M  V30 9107 H 845.069 3.08911 6.04774 0
M  V30 9108 H 843.015 0.890973 6.49921 0
M  V30 9109 H 842.932 2.50148 7.13416 0
M  V30 9110 H 844.2 1.4357 7.66164 0
M  V30 9111 N 848.429 -1.21819 0.999893 0
M  V30 9112 C 849.359 -2.26282 0.576096 0
M  V30 9113 C 850.34 -1.65317 -0.400537 0
M  V30 9114 O 851.525 -1.92028 -0.28964 0
M  V30 9115 C 848.655 -3.47147 -0.103145 0
M  V30 9116 C 847.609 -4.20594 0.792745 0
M  V30 9117 C 846.935 -5.34696 -0.0198026 0
M  V30 9118 C 848.235 -4.78533 2.09293 0
M  V30 9119 H 849.929 -2.61984 1.4493 0
M  V30 9120 H 847.475 -1.25935 0.698316 0
M  V30 9121 H 849.428 -4.1939 -0.411068 0
M  V30 9122 H 848.152 -3.1056 -1.01094 0
M  V30 9123 H 846.811 -3.50194 1.08442 0
M  V30 9124 H 846.459 -4.94352 -0.928729 0
M  V30 9125 H 846.159 -5.84764 0.576661 0
M  V30 9126 H 847.683 -6.09752 -0.321659 0
M  V30 9127 H 849.097 -5.42682 1.8485 0
M  V30 9128 H 847.494 -5.38968 2.63881 0
M  V30 9129 H 848.564 -3.98197 2.76708 0
M  V30 9130 N 849.908 -0.773975 -1.37286 0
M  V30 9131 C 851.133 -0.349561 -2.04433 0
M  V30 9132 C 851.558 1.02082 -1.5799 0
M  V30 9133 O 850.916 1.65458 -0.741172 0
M  V30 9134 C 850.964 -0.404292 -3.58326 0
M  V30 9135 O 850.068 0.594447 -4.08093 0
M  V30 9136 H 849.409 -0.150959 -0.646612 0
M  V30 9137 H 851.939 -1.05079 -1.75555 0
M  V30 9138 H 851.949 -0.262378 -4.07155 0
M  V30 9139 H 850.624 -1.40403 -3.91484 0
M  V30 9140 H 849.201 0.415468 -3.70578 0
M  V30 9141 N 851.386 1.48609 -0.524698 0
M  V30 9142 C 852.626 2.04398 0.00938367 0
M  V30 9143 C 852.99 1.39355 1.32077 0
M  V30 9144 O 854.191 1.86 1.94055 0
M  V30 9145 C 852.462 3.57148 0.134318 0
M  V30 9146 S 854.021 4.34409 0.619227 0
M  V30 9147 H 850.839 0.710936 -0.00953362 0
M  V30 9148 H 853.441 1.82382 -0.704058 0
M  V30 9149 H 852.145 4.02022 -0.825027 0
M  V30 9150 H 851.676 3.83607 0.872296 0
M  V30 9151 H 853.691 4.59017 1.88462 0
M  V30 9152 N 852.864 0.259585 1.55447 0
M  V30 9153 C 854.092 -0.365392 2.03648 0
M  V30 9154 C 854.507 -1.50613 1.13847 0
M  V30 9155 O 853.864 -1.81837 0.155414 0
M  V30 9156 C 853.915 -0.861172 3.51093 0
M  V30 9157 O 853.636 0.234121 4.37474 0
M  V30 9158 C 855.137 -1.55555 4.15111 0
M  V30 9159 H 852.357 -0.0853439 0.66555 0
M  V30 9160 H 854.901 0.387151 2.00802 0
M  V30 9161 H 853.056 -1.56385 3.54433 0
M  V30 9162 H 853.47 -0.1444 5.24301 0
M  V30 9163 H 854.944 -1.85403 5.19932 0
M  V30 9164 H 855.421 -2.48185 3.62355 0
M  V30 9165 H 856.027 -0.89712 4.15731 0
M  V30 9166 N 854.342 -1.57594 -0.0133615 0
M  V30 9167 C 855.588 -1.90262 -0.702019 0
M  V30 9168 C 855.921 -0.859219 -1.74158 0
M  V30 9169 O 855.196 0.123778 -1.94106 0
M  V30 9170 C 855.479 -3.3354 -1.35732 0
M  V30 9171 C 855.332 -4.48586 -0.330208 0
M  V30 9172 C 856.651 -3.76004 -2.28712 0
M  V30 9173 H 853.77 -0.691943 -0.253739 0
M  V30 9174 H 856.412 -1.89967 0.0351894 0
M  V30 9175 H 854.562 -3.33921 -1.98567 0
M  V30 9176 H 856.234 -4.6034 0.297433 0
M  V30 9177 H 854.477 -4.32394 0.348926 0
M  V30 9178 H 855.148 -5.45762 -0.827508 0
M  V30 9179 H 857.624 -3.77089 -1.75906 0
M  V30 9180 H 856.5 -4.77032 -2.71535 0
M  V30 9181 H 856.761 -3.09129 -3.16056 0
M  V30 9182 N 855.82 0.285905 -1.54985 0
M  V30 9183 C 856.768 1.37302 -1.87752 0
M  V30 9184 C 857.762 1.51763 -0.752616 0
M  V30 9185 O 858.968 1.53701 -0.936805 0
M  V30 9186 H 855.343 0.458935 -0.59572 0
M  V30 9187 H 857.314 1.0691 -2.78591 0
M  V30 9188 C 856.063 2.72885 -2.15474 0
M  V30 9189 H 855.386 2.62545 -3.01513 0
M  V30 9190 H 856.826 3.47925 -2.42331 0
M  V30 9191 C 855.285 3.22989 -0.958124 0
M  V30 9192 O 855.815 4.01268 -0.186219 0
M  V30 9193 N 854.021 2.80503 -0.759354 0
M  V30 9194 H 853.568 2.16961 -1.38874 0
M  V30 9195 H 853.526 3.14375 0.0396937 0
M  V30 9196 N 857.298 1.47698 0.54982 0
M  V30 9197 C 858.245 1.60739 1.65625 0
M  V30 9198 C 859.215 0.450129 1.59884 0
M  V30 9199 O 860.4 0.671123 1.78607 0
M  V30 9200 C 857.54 1.63457 3.03934 0
M  V30 9201 C 856.653 2.90152 3.20056 0
M  V30 9202 C 855.788 2.84157 4.48807 0
M  V30 9203 C 854.827 4.05644 4.58387 0
M  V30 9204 N 853.964 3.97843 5.78503 0
M  V30 9205 H 858.804 2.55234 1.53817 0
M  V30 9206 H 856.341 1.26593 0.749173 0
M  V30 9207 H 858.299 1.63015 3.84034 0
M  V30 9208 H 856.929 0.724689 3.1456 0
M  V30 9209 H 855.981 3.00428 2.33339 0
M  V30 9210 H 857.293 3.80097 3.22998 0
M  V30 9211 H 856.447 2.82006 5.37175 0
M  V30 9212 H 855.186 1.91908 4.48356 0
M  V30 9213 H 854.191 4.08092 3.6843 0
M  V30 9214 H 855.416 4.9903 4.60593 0
M  V30 9215 H 853.362 3.08401 5.78986 0
M  V30 9216 H 853.279 4.81473 5.82855 0
M  V30 9217 H 854.547 3.99719 6.69212 0
M  V30 9218 N 858.776 -0.797141 1.35954 0
M  V30 9219 C 860.023 -1.55468 1.29754 0
M  V30 9220 C 860.351 -1.94095 -0.125391 0
M  V30 9221 O 859.606 -1.62341 -1.09288 0
M  V30 9222 C 859.905 -2.84847 2.15863 0
M  V30 9223 C 859.571 -2.65394 3.64523 0
M  V30 9224 C 858.233 -2.59796 4.05042 0
M  V30 9225 C 860.585 -2.4727 4.58811 0
M  V30 9226 C 857.913 -2.3403 5.38002 0
M  V30 9227 C 860.265 -2.23032 5.91979 0
M  V30 9228 C 858.929 -2.15862 6.31633 0
M  V30 9229 H 858.199 -0.568897 0.474803 0
M  V30 9230 H 860.846 -0.920299 1.67937 0
M  V30 9231 H 859.151 -3.52712 1.70591 0
M  V30 9232 H 860.848 -3.42597 2.08395 0
M  V30 9233 H 857.438 -2.70602 3.32374 0
M  V30 9234 H 861.622 -2.506 4.28384 0
M  V30 9235 H 856.878 -2.26956 5.67715 0
M  V30 9236 H 861.052 -2.08001 6.64612 0
M  V30 9237 H 858.679 -1.9566 7.34589 0
M  V30 9238 N 860.254 -1.20106 -1.0204 0
M  V30 9239 C 861.184 -0.970301 -2.12385 0
M  V30 9240 C 862.165 0.099378 -1.69809 0
M  V30 9241 O 863.35 -0.057365 -1.94115 0
M  V30 9242 C 860.48 -0.517431 -3.43424 0
M  V30 9243 C 859.434 -1.52992 -3.99722 0
M  V30 9244 C 858.76 -0.933817 -5.26483 0
M  V30 9245 C 860.06 -2.91257 -4.33551 0
M  V30 9246 H 861.754 -1.89316 -2.31948 0
M  V30 9247 H 859.3 -0.911655 -1.11467 0
M  V30 9248 H 861.253 -0.343243 -4.2 0
M  V30 9249 H 859.977 0.441049 -3.23608 0
M  V30 9250 H 858.636 -1.6914 -3.2525 0
M  V30 9251 H 858.284 0.0324763 -5.0299 0
M  V30 9252 H 857.984 -1.60999 -5.65113 0
M  V30 9253 H 859.508 -0.770614 -6.05718 0
M  V30 9254 H 860.922 -2.78642 -5.0103 0
M  V30 9255 H 859.319 -3.55745 -4.83286 0
M  V30 9256 H 860.389 -3.43269 -3.42483 0
M  V30 9257 N 861.732 1.21287 -1.00634 0
M  V30 9258 C 862.962 1.94103 -0.70765 0
M  V30 9259 C 863.37 1.74382 0.733991 0
M  V30 9260 O 862.713 1.04843 1.50843 0
M  V30 9261 C 862.775 3.46705 -0.950581 0
M  V30 9262 C 862.439 3.90176 -2.37932 0
M  V30 9263 C 863.436 3.96769 -3.35961 0
M  V30 9264 C 861.121 4.22453 -2.71733 0
M  V30 9265 C 863.115 4.35034 -4.65858 0
M  V30 9266 C 860.802 4.60394 -4.01846 0
M  V30 9267 C 861.8 4.66656 -4.9872 0
M  V30 9268 O 861.488 5.03732 -6.26505 0
M  V30 9269 H 861.22 0.62405 -0.259881 0
M  V30 9270 H 863.774 1.55015 -1.34757 0
M  V30 9271 H 862.004 3.85868 -0.253492 0
M  V30 9272 H 863.693 4.00741 -0.645069 0
M  V30 9273 H 864.459 3.72009 -3.11182 0
M  V30 9274 H 860.338 4.16776 -1.97025 0
M  V30 9275 H 863.882 4.39836 -5.4147 0
M  V30 9276 H 859.779 4.84609 -4.26409 0
M  V30 9277 H 860.547 5.21761 -6.30641 0
M  V30 9278 N 863.21 0.781244 1.36873 0
M  V30 9279 C 864.626 0.461968 1.52768 0
M  V30 9280 C 864.826 -1.02099 1.73719 0
M  V30 9281 O 863.882 -1.80665 1.76399 0
M  V30 9282 C 865.195 1.2853 2.71846 0
M  V30 9283 C 866.743 1.27817 2.85713 0
M  V30 9284 C 867.218 2.08506 4.07786 0
M  V30 9285 N 868.709 2.05909 4.14917 0
M  V30 9286 C 869.444 2.65118 5.08429 0
M  V30 9287 N 868.94 3.33152 6.07438 0
M  V30 9288 N 870.733 2.54896 5.00983 0
M  V30 9289 H 862.884 1.74198 1.21527 0
M  V30 9290 H 865.147 0.740027 0.592506 0
M  V30 9291 H 864.853 2.3366 2.62861 0
M  V30 9292 H 864.727 0.920981 3.65784 0
M  V30 9293 H 867.114 0.234817 2.94164 0
M  V30 9294 H 867.195 1.68219 1.92707 0
M  V30 9295 H 866.839 3.12867 4.00096 0
M  V30 9296 H 866.769 1.65479 4.99924 0
M  V30 9297 H 869.26 1.56386 3.44023 0
M  V30 9298 H 869.573 3.75681 6.75339 0
M  V30 9299 H 867.918 3.37253 6.07689 0
M  V30 9300 H 871.109 2.01352 4.22581 0
M  V30 9301 H 871.282 3.01332 5.73675 0
M  V30 9302 N 864.689 -1.48329 0.532571 0
M  V30 9303 C 865.966 -1.95492 -0.0650985 0
M  V30 9304 C 866.346 -1.47485 -1.51034 0
M  V30 9305 O 865.694 -0.702516 -2.17433 0
M  V30 9306 C 865.904 -3.48957 0.0548341 0
M  V30 9307 C 867.252 -4.24475 -0.103115 0
M  V30 9308 O 868.276 -3.56195 -0.0188343 0
M  V30 9309 O 867.135 -5.45781 -0.280164 0
M  V30 9310 H 864.229 -0.823327 -0.0778603 0
M  V30 9311 H 866.775 -1.58839 0.597353 0
M  V30 9312 H 865.547 -3.76628 1.06148 0
M  V30 9313 H 865.17 -3.92311 -0.64635 0
M  V30 9314 N 866.167 -0.267825 -1.55308 0
M  V30 9315 C 867.413 0.351556 -1.9973 0
M  V30 9316 C 867.746 1.56049 -1.15596 0
M  V30 9317 O 867.021 1.93203 -0.224274 0
M  V30 9318 C 867.304 0.74091 -3.52395 0
M  V30 9319 C 867.157 -0.474861 -4.47286 0
M  V30 9320 C 868.476 1.5801 -4.10756 0
M  V30 9321 H 865.595 0.126308 -0.726096 0
M  V30 9322 H 868.237 -0.373316 -1.86296 0
M  V30 9323 H 866.387 1.35851 -3.63973 0
M  V30 9324 H 868.059 -1.1134 -4.47662 0
M  V30 9325 H 866.302 -1.11425 -4.19246 0
M  V30 9326 H 866.973 -0.158782 -5.51772 0
M  V30 9327 H 869.449 1.05857 -4.0241 0
M  V30 9328 H 868.325 1.82135 -5.17801 0
M  V30 9329 H 868.586 2.55878 -3.60526 0
M  V30 9330 N 867.645 1.57599 0.00500368 0
M  V30 9331 C 868.873 1.94626 0.702016 0
M  V30 9332 C 869.288 0.86953 1.67585 0
M  V30 9333 O 868.645 -0.15199 1.81866 0
M  V30 9334 C 868.696 3.31658 1.43824 0
M  V30 9335 O 868.417 4.35197 0.503467 0
M  V30 9336 C 869.918 3.83114 2.23021 0
M  V30 9337 H 867.138 0.641785 0.195841 0
M  V30 9338 H 869.682 2.04451 -0.0446287 0
M  V30 9339 H 867.837 3.23156 2.13655 0
M  V30 9340 H 868.251 5.1444 1.02235 0
M  V30 9341 H 869.725 4.81438 2.7004 0
M  V30 9342 H 870.202 3.15559 3.05482 0
M  V30 9343 H 870.808 3.94775 1.58216 0
M  V30 9344 N 869.123 -0.277682 1.55134 0
M  V30 9345 C 870.369 -1.00733 1.76704 0
M  V30 9346 C 870.724 -1.84107 0.55879 0
M  V30 9347 O 870.017 -1.86275 -0.448591 0
M  V30 9348 C 870.211 -1.92599 3.01065 0
M  V30 9349 C 870.04 -1.18266 4.3387 0
M  V30 9350 C 868.81 -0.900254 4.97216 0
M  V30 9351 C 871.008 -0.575419 5.11071 0
M  V30 9352 N 868.99 -0.129637 6.13763 0
M  V30 9353 C 870.361 0.0612637 6.1997 0
M  V30 9354 C 872.416 -0.482794 4.95554 0
M  V30 9355 C 871.119 0.781637 7.15041 0
M  V30 9356 C 873.145 0.223977 5.90976 0
M  V30 9357 C 872.507 0.849416 6.9926 0
M  V30 9358 H 868.606 -0.35075 0.698927 0
M  V30 9359 H 871.19 -0.283482 1.92625 0
M  V30 9360 H 869.361 -2.62214 2.86528 0
M  V30 9361 H 871.093 -2.5889 3.1106 0
M  V30 9362 H 867.848 -1.20434 4.58031 0
M  V30 9363 H 868.272 0.242865 6.76564 0
M  V30 9364 H 872.914 -0.952023 4.11942 0
M  V30 9365 H 870.632 1.26256 7.98176 0
M  V30 9366 H 874.218 0.2959 5.81047 0
M  V30 9367 H 873.098 1.3876 7.71826 0
M  V30 9368 N 870.601 -1.47988 -0.541979 0
M  V30 9369 C 871.85 -1.5465 -1.29485 0
M  V30 9370 C 872.163 -0.220041 -1.94358 0
M  V30 9371 O 873.369 -0.164792 -2.70999 0
M  V30 9372 C 871.825 -2.72685 -2.34885 0
M  V30 9373 C 871.433 -4.11923 -1.76134 0
M  V30 9374 C 873.177 -2.88651 -3.11257 0
M  V30 9375 C 871.084 -5.21237 -2.79404 0
M  V30 9376 H 870.014 -0.575688 -0.486928 0
M  V30 9377 H 872.665 -1.74296 -0.573853 0
M  V30 9378 H 871.047 -2.46448 -3.09966 0
M  V30 9379 H 872.221 -4.48128 -1.07322 0
M  V30 9380 H 870.536 -4.00972 -1.12295 0
M  V30 9381 H 873.133 -3.67487 -3.88404 0
M  V30 9382 H 873.476 -1.97658 -3.66384 0
M  V30 9383 H 874.009 -3.14731 -2.43288 0
M  V30 9384 H 870.748 -6.14156 -2.29113 0
M  V30 9385 H 870.268 -4.89533 -3.4658 0
M  V30 9386 H 871.947 -5.48839 -3.42615 0
M  V30 9387 N 872.079 0.78992 -1.36375 0
M  V30 9388 C 873.009 1.91683 -1.33341 0
M  V30 9389 C 873.99 1.68861 -0.204965 0
M  V30 9390 O 875.175 1.89982 -0.402531 0
M  V30 9391 C 872.305 3.28696 -1.12143 0
M  V30 9392 C 871.259 3.66041 -2.21806 0
M  V30 9393 C 870.585 5.01399 -1.85751 0
M  V30 9394 C 871.885 3.74677 -3.63888 0
M  V30 9395 H 873.579 1.94478 -2.27637 0
M  V30 9396 H 871.125 0.934271 -1.09578 0
M  V30 9397 H 873.078 4.07151 -1.08656 0
M  V30 9398 H 871.802 3.26287 -0.142974 0
M  V30 9399 H 870.461 2.89883 -2.24418 0
M  V30 9400 H 870.109 4.9551 -0.864817 0
M  V30 9401 H 869.809 5.27355 -2.59173 0
M  V30 9402 H 871.333 5.82274 -1.83819 0
M  V30 9403 H 872.747 4.43324 -3.63506 0
M  V30 9404 H 871.144 4.12118 -4.3621 0
M  V30 9405 H 872.214 2.75795 -3.9883 0
M  V30 9406 N 873.557 1.20646 1.01402 0
M  V30 9407 C 874.487 0.98155 2.11867 0
M  V30 9408 C 875.468 -0.0903712 1.6986 0
M  V30 9409 O 876.653 0.0676586 1.94082 0
M  V30 9410 C 873.783 0.535636 3.43145 0
M  V30 9411 C 872.737 1.55109 3.98905 0
M  V30 9412 C 872.063 0.961725 5.2598 0
M  V30 9413 C 873.363 2.93552 4.32001 0
M  V30 9414 H 875.057 1.90544 2.3094 0
M  V30 9415 H 872.603 0.917554 1.10982 0
M  V30 9416 H 874.556 0.365512 4.19812 0
M  V30 9417 H 873.28 -0.423882 3.23838 0
M  V30 9418 H 871.939 1.70862 3.24348 0
M  V30 9419 H 871.587 -0.00580108 5.03 0
M  V30 9420 H 871.287 1.63993 5.64252 0
M  V30 9421 H 872.811 0.802726 6.053 0
M  V30 9422 H 874.225 2.81295 4.99546 0
M  V30 9423 H 872.622 3.58303 4.81393 0
M  V30 9424 H 873.692 3.4508 3.40658 0
M  V30 9425 N 875.035 -1.20752 1.01276 0
M  V30 9426 C 876.451 -1.42084 0.726934 0
M  V30 9427 C 876.651 -1.89138 -0.694907 0
M  V30 9428 O 875.707 -2.05783 -1.4632 0
M  V30 9429 C 877.02 -2.44575 1.74938 0
M  V30 9430 C 878.568 -2.58347 1.76708 0
M  V30 9431 C 879.043 -3.64078 2.77869 0
M  V30 9432 N 880.534 -3.71558 2.76585 0
M  V30 9433 C 881.269 -4.53016 3.51517 0
M  V30 9434 N 880.765 -5.38309 4.36114 0
M  V30 9435 N 882.558 -4.47512 3.40132 0
M  V30 9436 H 874.709 -0.885228 1.93074 0
M  V30 9437 H 876.972 -0.451075 0.833808 0
M  V30 9438 H 876.678 -2.1699 2.76782 0
M  V30 9439 H 876.552 -3.43503 1.55838 0
M  V30 9440 H 878.939 -2.85265 0.755516 0
M  V30 9441 H 879.02 -1.59628 1.99882 0
M  V30 9442 H 878.664 -3.37905 3.79187 0
M  V30 9443 H 878.594 -4.62412 2.51958 0
M  V30 9444 H 881.085 -3.10629 2.15216 0
M  V30 9445 H 881.398 -5.9754 4.90068 0
M  V30 9446 H 879.743 -5.37824 4.40194 0
M  V30 9447 H 882.934 -3.79912 2.73467 0
M  V30 9448 H 883.107 -5.10759 3.98784 0
M  V30 9449 N 876.513 -0.788492 -1.36457 0
M  V30 9450 C 877.741 -0.372365 -2.03522 0
M  V30 9451 C 878.156 1.01093 -1.59454 0
M  V30 9452 O 877.513 1.64824 -0.783535 0
M  V30 9453 C 877.564 -0.425435 -3.58988 0
M  V30 9454 O 877.285 -1.75418 -4.01448 0
M  V30 9455 C 878.786 0.000180167 -4.433 0
M  V30 9456 H 876.006 -0.1536 -0.653183 0
M  V30 9457 H 878.55 -1.06708 -1.74452 0
M  V30 9458 H 876.705 0.220856 -3.8677 0
M  V30 9459 H 877.119 -1.70437 -4.96036 0
M  V30 9460 H 878.593 -0.0880919 -5.5193 0
M  V30 9461 H 879.07 1.05269 -4.26398 0
M  V30 9462 H 879.676 -0.618563 -4.20778 0
M  V30 9463 N 877.991 1.48044 -0.54043 0
M  V30 9464 C 879.237 2.02797 -0.0101718 0
M  V30 9465 C 879.57 1.41565 1.32939 0
M  V30 9466 O 878.845 0.565139 1.86109 0
M  V30 9467 C 879.128 3.59959 0.100758 0
M  V30 9468 C 878.981 4.31654 -1.26471 0
M  V30 9469 C 880.3 4.32347 0.822455 0
M  V30 9470 H 877.419 0.736982 -0.00517052 0
M  V30 9471 H 880.061 1.76656 -0.69948 0
M  V30 9472 H 878.211 3.82363 0.687824 0
M  V30 9473 H 879.883 4.20639 -1.89369 0
M  V30 9474 H 878.126 3.92663 -1.84386 0
M  V30 9475 H 878.797 5.401 -1.13998 0
M  V30 9476 H 881.273 4.14835 0.324164 0
M  V30 9477 H 880.149 5.41978 0.868993 0
M  V30 9478 H 880.41 4.00369 1.87501 0
M  V30 9479 N 879.47 0.276058 1.55163 0
M  V30 9480 C 880.418 -0.626978 2.2399 0
M  V30 9481 C 881.412 -1.15708 1.23725 0
M  V30 9482 O 882.618 -1.1106 1.41653 0
M  V30 9483 H 878.993 -0.220742 0.718872 0
M  V30 9484 H 880.964 -0.0236569 2.98391 0
M  V30 9485 C 879.713 -1.79935 2.97521 0
M  V30 9486 H 879.036 -1.40064 3.74463 0
M  V30 9487 H 880.476 -2.40781 3.48999 0
M  V30 9488 C 878.935 -2.68838 2.03046 0
M  V30 9489 O 879.465 -3.69224 1.58229 0
M  V30 9490 N 877.671 -2.36028 1.69527 0
M  V30 9491 H 877.218 -1.54442 2.06169 0
M  V30 9492 H 877.176 -2.95782 1.06586 0
M  V30 9493 N 880.948 -1.576 0.00335426 0
M  V30 9494 C 881.896 -2.09759 -1.00517 0
M  V30 9495 C 882.89 -1.01833 -1.35375 0
M  V30 9496 O 884.096 -1.20294 -1.339 0
M  V30 9497 H 880.471 -0.669821 -0.341825 0
M  V30 9498 H 882.442 -2.93478 -0.539718 0
M  V30 9499 C 881.191 -2.6189 -2.28711 0
M  V30 9500 H 880.514 -3.44571 -2.02758 0
M  V30 9501 H 881.954 -3.02061 -2.97548 0
M  V30 9502 C 880.413 -1.53455 -2.99922 0
M  V30 9503 O 880.943 -0.919402 -3.91037 0
M  V30 9504 N 879.149 -1.2612 -2.61806 0
M  V30 9505 H 878.696 -1.76329 -1.87792 0
M  V30 9506 H 878.654 -0.537872 -3.09765 0
M  V30 9507 N 882.426 0.269451 -1.5528 0
M  V30 9508 C 883.842 0.616827 -1.47199 0
M  V30 9509 C 884.042 1.89354 -0.68901 0
M  V30 9510 O 883.098 2.51631 -0.209287 0
M  V30 9511 C 884.411 0.740492 -2.9144 0
M  V30 9512 C 885.959 0.834312 -3.01676 0
M  V30 9513 C 886.434 0.989725 -4.47178 0
M  V30 9514 N 887.925 1.05516 -4.51022 0
M  V30 9515 C 888.66 1.19427 -5.60825 0
M  V30 9516 N 888.156 1.30035 -6.80487 0
M  V30 9517 N 889.949 1.22566 -5.48575 0
M  V30 9518 H 882.1 -0.568962 -2.04638 0
M  V30 9519 H 884.363 -0.193153 -0.928114 0
M  V30 9520 H 884.069 -0.127234 -3.5147 0
M  V30 9521 H 883.943 1.61965 -3.40657 0
M  V30 9522 H 886.33 1.6925 -2.4174 0
M  V30 9523 H 886.411 -0.0695298 -2.55705 0
M  V30 9524 H 886.055 0.136179 -5.07717 0
M  V30 9525 H 885.985 1.90827 -4.90808 0
M  V30 9526 H 888.476 0.985434 -3.64825 0
M  V30 9527 H 888.789 1.40494 -7.59922 0
M  V30 9528 H 887.134 1.27033 -6.83292 0
M  V30 9529 H 890.325 1.13911 -4.54029 0
M  V30 9530 H 890.498 1.33063 -6.34191 0
M  V30 9531 N 883.904 1.48273 0.534124 0
M  V30 9532 C 885.132 1.59734 1.31501 0
M  V30 9533 C 885.547 0.256047 1.87056 0
M  V30 9534 O 884.904 -0.754086 1.66192 0
M  V30 9535 C 884.955 2.64072 2.46877 0
M  V30 9536 O 884.676 3.92995 1.93613 0
M  V30 9537 C 886.177 2.85933 3.38758 0
M  V30 9538 H 883.397 0.538703 0.40005 0
M  V30 9539 H 885.941 1.9407 0.644762 0
M  V30 9540 H 884.096 2.32606 3.09795 0
M  V30 9541 H 884.51 4.50203 2.69106 0
M  V30 9542 H 885.984 3.62749 4.16073 0
M  V30 9543 H 886.461 1.94603 3.93734 0
M  V30 9544 H 887.067 3.18687 2.81636 0
M  V30 9545 N 885.382 -0.782676 1.36792 0
M  V30 9546 C 886.315 -1.90241 1.2603 0
M  V30 9547 C 887.293 -1.61969 0.143055 0
M  V30 9548 O 888.477 -1.85843 0.315366 0
M  V30 9549 C 885.604 -3.25218 0.946082 0
M  V30 9550 C 884.65 -3.72414 2.0787 0
M  V30 9551 S 885.483 -3.87376 3.69729 0
M  V30 9552 C 886.639 -5.25219 3.40435 0
M  V30 9553 H 886.872 -1.99079 2.20805 0
M  V30 9554 H 884.405 -0.942625 1.22286 0
M  V30 9555 H 886.363 -4.03183 0.771612 0
M  V30 9556 H 885.024 -3.14096 0.0159991 0
M  V30 9557 H 884.217 -4.7024 1.81358 0
M  V30 9558 H 883.819 -3.01519 2.21274 0
M  V30 9559 H 886.111 -6.10025 2.94746 0
M  V30 9560 H 887.054 -5.56738 4.37549 0
M  V30 9561 H 887.462 -4.92638 2.75622 0
M  V30 9562 N 886.86 -1.21182 -1.00761 0
M  V30 9563 C 887.81 -0.936247 -2.0789 0
M  V30 9564 C 888.794 0.107482 -1.60541 0
M  V30 9565 O 889.986 -0.1011 -1.76711 0
M  V30 9566 C 887.115 -0.499949 -3.3964 0
M  V30 9567 C 886.201 -1.5776 -3.93666 0
M  V30 9568 N 886.592 -2.80208 -4.2109 0
M  V30 9569 C 884.89 -1.44586 -4.21913 0
M  V30 9570 C 885.591 -3.49787 -4.64784 0
M  V30 9571 N 884.567 -2.7722 -4.676 0
M  V30 9572 H 888.369 -1.86659 -2.27015 0
M  V30 9573 H 885.883 -1.10716 -1.1881 0
M  V30 9574 H 887.88 -0.283897 -4.15932 0
M  V30 9575 H 886.54 0.423659 -3.21924 0
M  V30 9576 H 887.551 -3.16776 -4.09724 0
M  V30 9577 H 884.228 -0.587346 -4.13348 0
M  V30 9578 H 885.618 -4.54615 -4.94747 0
M  V30 9579 N 888.338 1.20213 -1.01915 0
M  V30 9580 C 889.568 1.93341 -0.728197 0
M  V30 9581 C 889.976 1.75151 0.715454 0
M  V30 9582 O 889.319 1.06437 1.49722 0
M  V30 9583 C 889.381 3.45677 -0.9873 0
M  V30 9584 C 889.045 3.8763 -2.42057 0
M  V30 9585 C 890.042 3.93184 -3.40151 0
M  V30 9586 C 887.727 4.19547 -2.76199 0
M  V30 9587 C 889.721 4.30069 -4.70446 0
M  V30 9588 C 887.408 4.56106 -4.06707 0
M  V30 9589 C 888.406 4.6134 -5.03641 0
M  V30 9590 O 888.094 4.97059 -6.31813 0
M  V30 9591 H 887.826 0.621258 -0.266485 0
M  V30 9592 H 890.38 1.53577 -1.36393 0
M  V30 9593 H 888.61 3.85578 -0.294405 0
M  V30 9594 H 890.299 4.00035 -0.687536 0
M  V30 9595 H 891.065 3.68687 -3.15111 0
M  V30 9596 H 886.944 4.14663 -2.01434 0
M  V30 9597 H 890.488 4.34069 -5.46105 0
M  V30 9598 H 886.385 4.80059 -4.31525 0
M  V30 9599 H 887.153 5.15043 -6.36139 0
M  V30 9600 N 889.816 0.795718 1.36037 0
M  V30 9601 C 891.041 0.38204 2.03851 0
M  V30 9602 C 891.466 -0.995553 1.59594 0
M  V30 9603 O 890.824 -1.64258 0.767401 0
M  V30 9604 C 890.872 0.461248 3.57638 0
M  V30 9605 O 889.976 -0.529448 4.08987 0
M  V30 9606 H 889.317 0.161227 0.644129 0
M  V30 9607 H 891.847 1.07858 1.73861 0
M  V30 9608 H 891.857 0.32712 4.06687 0
M  V30 9609 H 890.532 1.46613 3.89201 0
M  V30 9610 H 889.109 -0.35646 3.71192 0
M  V30 9611 N 891.294 -1.47756 0.548274 0
M  V30 9612 C 892.543 -2.01691 0.0187961 0
M  V30 9613 C 892.856 -1.42894 -1.33569 0
M  V30 9614 O 894.062 -1.88438 -1.95457 0
M  V30 9615 C 892.518 -3.59896 -0.016847 0
M  V30 9616 C 892.126 -4.27683 1.33385 0
M  V30 9617 C 893.87 -4.21614 -0.494188 0
M  V30 9618 C 891.777 -5.7787 1.2578 0
M  V30 9619 H 890.707 -0.753993 0.00325648 0
M  V30 9620 H 893.358 -1.69838 0.694792 0
M  V30 9621 H 891.74 -3.88672 -0.758304 0
M  V30 9622 H 892.914 -4.10559 2.09232 0
M  V30 9623 H 891.229 -3.77915 1.7484 0
M  V30 9624 H 893.826 -5.3166 -0.569342 0
M  V30 9625 H 894.169 -3.88176 -1.50417 0
M  V30 9626 H 894.702 -3.97336 0.192138 0
M  V30 9627 H 891.441 -6.15912 2.2435 0
M  V30 9628 H 890.961 -5.97355 0.540997 0
M  V30 9629 H 892.64 -6.39897 0.956109 0
M  V30 9630 N 892.772 -0.284283 -1.55015 0
M  V30 9631 C 893.997 0.335799 -2.04664 0
M  V30 9632 C 894.422 1.47999 -1.16094 0
M  V30 9633 O 893.78 1.8058 -0.161454 0
M  V30 9634 C 893.828 0.785615 -3.51938 0
M  V30 9635 O 892.932 1.89202 -3.66437 0
M  V30 9636 H 892.273 0.0680233 -0.660506 0
M  V30 9637 H 894.803 -0.421255 -2.00216 0
M  V30 9638 H 894.813 1.07892 -3.93476 0
M  V30 9639 H 893.488 -0.0514675 -4.15868 0
M  V30 9640 H 892.065 1.60055 -3.36804 0
M  V30 9641 N 894.251 1.57596 -0.0117121 0
M  V30 9642 C 895.198 2.09153 0.975897 0
M  V30 9643 C 896.168 0.989579 1.33404 0
M  V30 9644 O 897.353 1.26273 1.43038 0
M  V30 9645 C 894.493 2.60906 2.2588 0
M  V30 9646 C 893.606 3.85046 1.95866 0
M  V30 9647 C 892.741 4.25257 3.18323 0
M  V30 9648 C 891.78 5.42202 2.84049 0
M  V30 9649 N 890.917 5.77651 3.99079 0
M  V30 9650 H 895.757 2.93261 0.52931 0
M  V30 9651 H 893.294 1.44965 0.249691 0
M  V30 9652 H 895.252 2.88995 3.00895 0
M  V30 9653 H 893.882 1.79654 2.68187 0
M  V30 9654 H 892.934 3.63794 1.11168 0
M  V30 9655 H 894.246 4.70151 1.66611 0
M  V30 9656 H 893.4 4.5469 4.01674 0
M  V30 9657 H 892.139 3.38884 3.50726 0
M  V30 9658 H 891.144 5.1248 1.99107 0
M  V30 9659 H 892.369 6.3026 2.52881 0
M  V30 9660 H 890.315 4.94235 4.31356 0
M  V30 9661 H 890.232 6.57356 3.73388 0
M  V30 9662 H 891.5 6.11681 4.83183 0
M  V30 9663 N 895.729 -0.261212 1.5542 0
M  V30 9664 C 896.661 -1.34571 1.85535 0
M  V30 9665 C 897.674 -1.44979 0.740612 0
M  V30 9666 O 898.863 -1.46584 1.01859 0
M  V30 9667 C 895.963 -2.7258 2.01378 0
M  V30 9668 C 895.136 -2.84618 3.32131 0
M  V30 9669 C 894.195 -4.03379 3.37893 0
M  V30 9670 O 893.221 -3.93581 4.11197 0
M  V30 9671 N 894.423 -5.15893 2.66148 0
M  V30 9672 H 897.188 -1.09078 2.79145 0
M  V30 9673 H 894.749 -0.451327 1.55482 0
M  V30 9674 H 896.741 -3.50342 2.0259 0
M  V30 9675 H 895.311 -2.90844 1.14579 0
M  V30 9676 H 894.531 -1.93647 3.43358 0
M  V30 9677 H 895.819 -2.896 4.18341 0
M  V30 9678 H 895.217 -5.26743 2.06297 0
M  V30 9679 H 893.774 -5.91842 2.73069 0
M  V30 9680 N 897.207 -1.48554 -0.526253 0
M  V30 9681 C 898.154 -1.63354 -1.63046 0
M  V30 9682 C 899.124 -0.475509 -1.59148 0
M  V30 9683 O 900.309 -0.699453 -1.77517 0
M  V30 9684 C 897.449 -1.68271 -3.01295 0
M  V30 9685 C 896.562 -2.95207 -3.15399 0
M  V30 9686 C 895.697 -2.91262 -4.4423 0
M  V30 9687 C 894.736 -4.12886 -4.51876 0
M  V30 9688 N 893.873 -4.06996 -5.721 0
M  V30 9689 H 898.713 -2.57649 -1.49737 0
M  V30 9690 H 896.25 -1.27769 -0.728938 0
M  V30 9691 H 898.208 -1.69104 -3.81392 0
M  V30 9692 H 896.838 -0.774641 -3.13367 0
M  V30 9693 H 895.89 -3.04102 -2.2853 0
M  V30 9694 H 897.202 -3.85187 -3.1691 0
M  V30 9695 H 896.356 -2.90516 -5.32621 0
M  V30 9696 H 895.095 -1.99016 -4.45246 0
M  V30 9697 H 894.1 -4.13902 -3.61891 0
M  V30 9698 H 895.325 -5.06294 -4.52596 0
M  V30 9699 H 893.271 -3.17573 -5.74006 0
M  V30 9700 H 893.188 -4.90685 -5.75121 0
M  V30 9701 H 894.456 -4.10315 -6.62768 0
M  V30 9702 N 898.685 0.775411 -1.37205 0
M  V30 9703 C 899.618 1.8957 -1.27037 0
M  V30 9704 C 900.596 1.61891 -0.151643 0
M  V30 9705 O 901.78 1.85673 -0.325218 0
M  V30 9706 C 898.907 3.24712 -0.963316 0
M  V30 9707 C 897.953 3.71306 -2.09842 0
M  V30 9708 S 898.786 3.8541 -3.71778 0
M  V30 9709 C 899.942 5.23406 -3.43216 0
M  V30 9710 H 900.175 1.97905 -2.21857 0
M  V30 9711 H 897.708 0.936127 -1.22784 0
M  V30 9712 H 899.666 4.02768 -0.792983 0
M  V30 9713 H 898.327 3.14083 -0.0326561 0
M  V30 9714 H 897.52 4.69271 -1.83849 0
M  V30 9715 H 897.122 3.00341 -2.2287 0
M  V30 9716 H 899.414 6.08454 -2.97977 0
M  V30 9717 H 900.357 5.54409 -4.40495 0
M  V30 9718 H 900.765 4.9117 -2.78231 0
M  V30 9719 N 900.163 1.21714 1.00117 0
M  V30 9720 C 901.126 0.981338 2.07129 0
M  V30 9721 C 902.126 -0.0491116 1.60725 0
M  V30 9722 O 903.316 0.188555 1.73177 0
M  V30 9723 C 900.448 0.480608 3.37495 0
M  V30 9724 H 901.641 1.93075 2.29482 0
M  V30 9725 H 899.194 1.03467 1.17151 0
M  V30 9726 H 899.929 -0.473552 3.20824 0
M  V30 9727 H 899.714 1.22393 3.72508 0
M  V30 9728 H 901.204 0.33561 4.16249 0
M  V30 9729 N 901.641 -1.19671 1.02551 0
M  V30 9730 C 902.89 -1.88591 0.715272 0
M  V30 9731 C 903.203 -1.80274 -0.758982 0
M  V30 9732 O 904.409 -2.44413 -1.18213 0
M  V30 9733 C 902.865 -3.38264 1.22905 0
M  V30 9734 C 902.473 -3.55146 2.73084 0
M  V30 9735 C 904.217 -4.12683 0.994649 0
M  V30 9736 C 902.124 -4.98693 3.17897 0
M  V30 9737 H 901.054 -0.706326 0.263857 0
M  V30 9738 H 903.705 -1.35322 1.23936 0
M  V30 9739 H 902.087 -3.9091 0.632892 0
M  V30 9740 H 903.261 -3.12845 3.38326 0
M  V30 9741 H 901.576 -2.94112 2.94766 0
M  V30 9742 H 904.173 -5.18536 1.30478 0
M  V30 9743 H 904.516 -4.16243 -0.0686466 0
M  V30 9744 H 905.049 -3.66164 1.55464 0
M  V30 9745 H 901.788 -5.00293 4.23542 0
M  V30 9746 H 901.308 -5.4177 2.57381 0
M  V30 9747 H 902.987 -5.67327 3.11045 0
M  V30 9748 N 903.119 -0.802921 -1.35613 0
M  V30 9749 C 904.347 -0.39393 -2.03115 0
M  V30 9750 C 904.762 0.993961 -1.60517 0
M  V30 9751 O 904.119 1.63984 -0.800973 0
M  V30 9752 C 904.17 -0.463486 -3.58516 0
M  V30 9753 O 903.891 -1.79666 -3.99565 0
M  V30 9754 C 905.392 -0.0468377 -4.43275 0
M  V30 9755 H 902.612 -0.160519 -0.651517 0
M  V30 9756 H 905.156 -1.08552 -1.73311 0
M  V30 9757 H 903.311 0.179821 -3.86982 0
M  V30 9758 H 903.725 -1.75688 -4.942 0
M  V30 9759 H 905.199 -0.146626 -5.51805 0
M  V30 9760 H 905.676 1.00741 -4.2749 0
M  V30 9761 H 906.282 -0.663158 -4.20098 0
M  V30 9762 N 904.597 1.47463 -0.556102 0
M  V30 9763 C 905.544 2.29998 0.192213 0
M  V30 9764 C 906.514 1.38993 0.909403 0
M  V30 9765 O 907.699 1.67954 0.905316 0
M  V30 9766 C 904.839 3.22932 1.21692 0
M  V30 9767 C 903.952 4.29027 0.505908 0
M  V30 9768 C 903.087 5.09114 1.51581 0
M  V30 9769 C 902.126 6.06984 0.789714 0
M  V30 9770 N 901.263 6.80033 1.74639 0
M  V30 9771 H 906.103 2.93468 -0.517734 0
M  V30 9772 H 903.64 1.44654 -0.267147 0
M  V30 9773 H 905.598 3.75234 1.8236 0
M  V30 9774 H 904.228 2.61329 1.89491 0
M  V30 9775 H 903.28 3.7979 -0.215276 0
M  V30 9776 H 904.592 4.9876 -0.062958 0
M  V30 9777 H 903.746 5.6556 2.19606 0
M  V30 9778 H 902.485 4.3928 2.11859 0
M  V30 9779 H 901.49 5.49717 0.0955382 0
M  V30 9780 H 902.715 6.78827 0.192688 0
M  V30 9781 H 900.661 6.12931 2.33777 0
M  V30 9782 H 900.578 7.45933 1.22965 0
M  V30 9783 H 901.846 7.41054 2.41782 0
M  V30 9784 N 906.075 0.2925 1.54862 0
M  V30 9785 C 906.985 -0.597036 2.26876 0
M  V30 9786 C 908.001 -1.15558 1.30086 0
M  V30 9787 O 909.177 -1.18217 1.63054 0
M  V30 9788 C 906.242 -1.75664 2.98903 0
M  V30 9789 C 905.303 -1.23303 4.11212 0
M  V30 9790 C 904.536 -2.33736 4.79795 0
M  V30 9791 O 904.759 -3.53459 4.47686 0
M  V30 9792 O 903.693 -2.00908 5.67379 0
M  V30 9793 H 907.519 -0.0131242 3.03697 0
M  V30 9794 H 905.104 0.0592642 1.49282 0
M  V30 9795 H 906.986 -2.43241 3.4411 0
M  V30 9796 H 905.661 -2.32731 2.24984 0
M  V30 9797 H 904.568 -0.523222 3.70423 0
M  V30 9798 H 905.901 -0.707887 4.87083 0
M  V30 9799 N 907.553 -1.57587 0.0200696 0
M  V30 9800 C 908.503 -2.0616 -0.973751 0
M  V30 9801 C 909.487 -0.960282 -1.29102 0
M  V30 9802 O 910.679 -1.22391 -1.27865 0
M  V30 9803 C 907.808 -2.58487 -2.25919 0
M  V30 9804 C 906.894 -3.75533 -1.97068 0
M  V30 9805 N 907.285 -4.86482 -1.38451 0
M  V30 9806 C 905.583 -3.83847 -2.27107 0
M  V30 9807 C 906.284 -5.67773 -1.26527 0
M  V30 9808 N 905.26 -5.14398 -1.75772 0
M  V30 9809 H 909.062 -2.89346 -0.515365 0
M  V30 9810 H 906.576 -1.61341 -0.185163 0
M  V30 9811 H 908.573 -2.91572 -2.97979 0
M  V30 9812 H 907.233 -1.76728 -2.72392 0
M  V30 9813 H 908.244 -5.06922 -1.06069 0
M  V30 9814 H 904.921 -3.12978 -2.76316 0
M  V30 9815 H 906.311 -6.66966 -0.812785 0
M  V30 9816 N 909.032 0.252966 -1.55557 0
M  V30 9817 C 910.257 1.0038 -1.8149 0
M  V30 9818 C 910.682 1.78397 -0.596318 0
M  V30 9819 O 910.04 1.7551 0.454535 0
M  V30 9820 C 910.088 1.9222 -3.05096 0
M  V30 9821 O 909.192 3.01302 -2.81587 0
M  V30 9822 H 908.533 0.285949 -0.599274 0
M  V30 9823 H 911.063 0.275795 -2.02733 0
M  V30 9824 H 911.073 2.338 -3.34368 0
M  V30 9825 H 909.748 1.34852 -3.93431 0
M  V30 9826 H 908.325 2.63894 -2.63466 0
M  V30 9827 N 910.51 1.48831 0.518367 0
M  V30 9828 C 911.759 1.5669 1.27008 0
M  V30 9829 C 912.072 0.250934 1.93984 0
M  V30 9830 O 913.278 0.207884 2.70703 0
M  V30 9831 C 911.734 2.76387 2.30517 0
M  V30 9832 C 911.342 4.14673 1.69559 0
M  V30 9833 C 913.086 2.93566 3.06625 0
M  V30 9834 C 910.993 5.25616 2.71076 0
M  V30 9835 H 909.923 0.583362 0.477708 0
M  V30 9836 H 912.574 1.75187 0.546052 0
M  V30 9837 H 910.956 2.51348 3.06006 0
M  V30 9838 H 912.13 4.49779 1.00179 0
M  V30 9839 H 910.445 4.02708 1.05902 0
M  V30 9840 H 913.042 3.7362 3.82508 0
M  V30 9841 H 913.385 2.03462 3.63193 0
M  V30 9842 H 913.918 3.18562 2.38251 0
M  V30 9843 H 910.657 6.17723 2.19313 0
M  V30 9844 H 910.177 4.94985 3.38748 0
M  V30 9845 H 911.856 5.5422 3.3384 0
M  V30 9846 N 911.988 -0.768124 1.37614 0
M  V30 9847 C 913.216 -1.55726 1.36224 0
M  V30 9848 C 913.631 -1.8873 -0.0515357 0
M  V30 9849 O 912.988 -1.51718 -1.0143 0
M  V30 9850 C 913.039 -2.86533 2.20412 0
M  V30 9851 O 912.76 -2.54942 3.56281 0
M  V30 9852 C 914.261 -3.80745 2.27041 0
M  V30 9853 H 911.481 -0.482325 0.46648 0
M  V30 9854 H 914.025 -0.95176 1.81002 0
M  V30 9855 H 912.18 -3.43496 1.79134 0
M  V30 9856 H 912.594 -3.38732 4.00451 0
M  V30 9857 H 914.068 -4.69523 2.90263 0
M  V30 9858 H 914.545 -4.20138 1.27987 0
M  V30 9859 H 915.151 -3.2971 2.68647 0
M  V30 9860 N 913.466 -1.22244 -0.994698 0
M  V30 9861 C 914.396 -1.01513 -2.10279 0
M  V30 9862 C 915.377 0.0633365 -1.69982 0
M  V30 9863 O 916.562 -0.0985268 -1.9395 0
M  V30 9864 C 913.692 -0.59016 -3.42249 0
M  V30 9865 C 912.646 -1.61436 -3.96387 0
M  V30 9866 C 911.972 -1.04528 -5.24383 0
M  V30 9867 C 913.272 -3.00388 -4.27276 0
M  V30 9868 H 914.966 -1.94194 -2.2788 0
M  V30 9869 H 912.512 -0.935094 -1.09508 0
M  V30 9870 H 914.465 -0.432254 -4.19177 0
M  V30 9871 H 913.189 0.372308 -3.24471 0
M  V30 9872 H 911.848 -1.76001 -3.21589 0
M  V30 9873 H 911.496 -0.0742225 -5.02945 0
M  V30 9874 H 911.196 -1.72949 -5.61571 0
M  V30 9875 H 912.72 -0.898922 -6.03947 0
M  V30 9876 H 914.134 -2.89207 -4.95007 0
M  V30 9877 H 912.531 -3.65916 -4.75631 0
M  V30 9878 H 913.601 -3.50456 -3.35125 0
M  V30 9879 N 914.944 1.19125 -1.03184 0
M  V30 9880 C 915.892 2.24492 -0.608781 0
M  V30 9881 C 916.886 1.65529 0.360065 0
M  V30 9882 O 918.092 1.78546 0.22832 0
M  V30 9883 H 914.467 0.73048 -0.178616 0
M  V30 9884 H 916.438 2.5749 -1.50803 0
M  V30 9885 C 915.187 3.47693 0.0215126 0
M  V30 9886 H 914.51 3.93354 -0.715024 0
M  V30 9887 H 915.95 4.23072 0.280429 0
M  V30 9888 C 914.409 3.12088 1.26896 0
M  V30 9889 O 914.939 3.25013 2.36071 0
M  V30 9890 N 913.145 2.66494 1.15886 0
M  V30 9891 H 912.692 2.56176 0.270463 0
M  V30 9892 H 912.65 2.43042 1.99444 0
M  V30 9893 N 916.422 0.810101 1.35185 0
M  V30 9894 C 917.352 0.237453 2.32289 0
M  V30 9895 C 918.333 -0.639032 1.5764 0
M  V30 9896 O 919.518 -0.568575 1.8569 0
M  V30 9897 C 916.648 -0.611964 3.41866 0
M  V30 9898 C 915.602 0.166318 4.27677 0
M  V30 9899 C 914.928 -0.805024 5.28605 0
M  V30 9900 C 916.228 1.36729 5.04086 0
M  V30 9901 H 917.922 1.04874 2.80432 0
M  V30 9902 H 915.468 0.505751 1.34826 0
M  V30 9903 H 917.421 -1.02267 4.08802 0
M  V30 9904 H 916.145 -1.45617 2.92341 0
M  V30 9905 H 914.804 0.558238 3.62325 0
M  V30 9906 H 914.452 -1.64483 4.75347 0
M  V30 9907 H 914.152 -0.288577 5.86891 0
M  V30 9908 H 915.676 -1.21386 5.98413 0
M  V30 9909 H 917.09 1.03128 5.63948 0
M  V30 9910 H 915.487 1.81848 5.71884 0
M  V30 9911 H 916.557 2.15214 4.34524 0
M  V30 9912 N 917.9 -1.47166 0.563914 0
M  V30 9913 C 919.128 -2.06846 0.0474287 0
M  V30 9914 C 919.543 -1.41557 -1.24928 0
M  V30 9915 O 918.9 -0.514376 -1.75101 0
M  V30 9916 C 918.951 -3.6121 -0.144831 0
M  V30 9917 O 918.672 -4.24052 1.10053 0
M  V30 9918 C 920.173 -4.37773 -0.69783 0
M  V30 9919 H 917.393 -0.669217 0.0488896 0
M  V30 9920 H 919.937 -1.89072 0.779235 0
M  V30 9921 H 918.092 -3.78474 -0.82679 0
M  V30 9922 H 918.506 -5.16677 0.902481 0
M  V30 9923 H 919.98 -5.46438 -0.781616 0
M  V30 9924 H 920.457 -4.04517 -1.71063 0
M  V30 9925 H 921.063 -4.25269 -0.0513516 0
M  V30 9926 N 919.378 -0.300708 -1.54705 0
M  V30 9927 C 920.627 0.309428 -1.99312 0
M  V30 9928 C 920.94 1.55027 -1.19272 0
M  V30 9929 O 922.146 2.23498 -1.54146 0
M  V30 9930 C 920.602 0.601856 -3.54832 0
M  V30 9931 C 920.21 -0.620636 -4.4368 0
M  V30 9932 C 921.954 1.1732 -4.07966 0
M  V30 9933 C 919.861 -0.301376 -5.90632 0
M  V30 9934 H 918.791 0.119395 -0.744487 0
M  V30 9935 H 921.442 -0.409368 -1.78875 0
M  V30 9936 H 919.824 1.38024 -3.71168 0
M  V30 9937 H 920.998 -1.39685 -4.39118 0
M  V30 9938 H 919.313 -1.1106 -4.01316 0
M  V30 9939 H 921.91 1.42631 -5.15326 0
M  V30 9940 H 922.253 2.11537 -3.5855 0
M  V30 9941 H 922.786 0.456534 -3.95172 0
M  V30 9942 H 919.525 -1.21209 -6.44196 0
M  V30 9943 H 919.045 0.437574 -5.98202 0
M  V30 9944 H 920.724 0.097164 -6.46927 0
M  V30 9945 N 920.856 1.57574 -0.0284266 0
M  V30 9946 C 921.789 2.05684 0.988401 0
M  V30 9947 C 922.767 0.952468 1.31783 0
M  V30 9948 O 923.951 1.22274 1.43462 0
M  V30 9949 C 921.078 2.47832 2.30862 0
M  V30 9950 C 920.124 3.69282 2.13384 0
M  V30 9951 S 920.957 5.15962 1.43331 0
M  V30 9952 C 922.113 5.61404 2.76723 0
M  V30 9953 H 922.346 2.9161 0.578873 0
M  V30 9954 H 919.879 1.53309 0.183244 0
M  V30 9955 H 921.837 2.7278 3.06759 0
M  V30 9956 H 920.498 1.62253 2.68947 0
M  V30 9957 H 919.691 3.96618 3.10983 0
M  V30 9958 H 919.293 3.44482 1.45629 0
M  V30 9959 H 921.585 5.65601 3.72963 0
M  V30 9960 H 922.528 6.60956 2.54053 0
M  V30 9961 H 922.936 4.89051 2.81939 0
M  V30 9962 N 922.334 -0.244713 1.55689 0
M  V30 9963 C 923.282 -1.32276 1.91326 0
M  V30 9964 C 924.276 -1.49714 0.792589 0
M  V30 9965 O 925.482 -1.51163 0.977227 0
M  V30 9966 H 921.857 -0.442979 0.607679 0
M  V30 9967 H 923.828 -0.99486 2.81327 0
M  V30 9968 C 922.577 -2.67077 2.22633 0
M  V30 9969 H 921.9 -2.54458 3.08368 0
M  V30 9970 H 923.34 -3.41378 2.5147 0
M  V30 9971 C 921.799 -3.20335 1.04342 0
M  V30 9972 O 922.329 -4.00633 0.292543 0
M  V30 9973 N 920.535 -2.78392 0.833457 0
M  V30 9974 H 920.082 -2.13202 1.44577 0
M  V30 9975 H 920.04 -3.1437 0.0436713 0
M  V30 9976 N 923.813 -1.49104 -0.510467 0
M  V30 9977 C 925.059 -1.58346 -1.26705 0
M  V30 9978 C 925.392 -0.265121 -1.92382 0
M  V30 9979 O 924.667 0.730558 -1.80258 0
M  V30 9980 C 924.95 -2.7359 -2.34137 0
M  V30 9981 C 924.803 -4.1519 -1.73024 0
M  V30 9982 C 926.122 -2.84511 -3.3577 0
M  V30 9983 H 923.241 -0.57637 -0.459311 0
M  V30 9984 H 925.883 -1.81353 -0.566658 0
M  V30 9985 H 924.033 -2.54105 -2.93876 0
M  V30 9986 H 925.705 -4.46167 -1.17186 0
M  V30 9987 H 923.948 -4.21279 -1.03473 0
M  V30 9988 H 924.619 -4.91683 -2.50903 0
M  V30 9989 H 927.095 -3.0222 -2.86011 0
M  V30 9990 H 925.971 -3.6684 -4.08313 0
M  V30 9991 H 926.232 -1.93471 -3.97519 0
M  V30 9992 N 925.291 0.760815 -1.38019 0
M  V30 9993 C 926.516 1.55513 -1.37224 0
M  V30 9994 C 926.941 1.88062 0.037611 0
M  V30 9995 O 926.299 1.50042 1.0177 0
M  V30 9996 C 926.347 2.83539 -2.22796 0
M  V30 9997 O 925.451 3.78384 -1.64009 0
M  V30 9998 H 924.792 0.470642 -0.468393 0
M  V30 9999 H 927.322 0.940792 -1.81687 0
M  V30 10000 H 927.332 3.32535 -2.36399 0
M  V30 10001 H 926.007 2.59178 -3.25269 0
M  V30 10002 H 924.584 3.37063 -1.59508 0
M  V30 10003 N 926.769 1.22769 0.988202 0
M  V30 10004 C 927.699 1.02627 2.09738 0
M  V30 10005 C 928.68 -0.0543211 1.70013 0
M  V30 10006 O 929.865 0.108811 1.93895 0
M  V30 10007 C 926.995 0.608302 3.41931 0
M  V30 10008 C 925.949 1.63536 3.95525 0
M  V30 10009 C 925.275 1.07308 5.23822 0
M  V30 10010 C 926.575 3.02649 4.25677 0
M  V30 10011 H 928.269 1.954 2.26847 0
M  V30 10012 H 925.815 0.940888 1.09011 0
M  V30 10013 H 927.768 0.454478 4.18942 0
M  V30 10014 H 926.492 -0.355095 3.24664 0
M  V30 10015 H 925.151 1.77704 3.20651 0
M  V30 10016 H 924.799 0.100894 5.02899 0
M  V30 10017 H 924.499 1.75925 5.60646 0
M  V30 10018 H 926.023 0.930938 6.03462 0
M  V30 10019 H 927.437 2.91828 4.93467 0
M  V30 10020 H 925.834 3.68434 4.73684 0
M  V30 10021 H 926.904 3.52228 3.33262 0
M  V30 10022 N 928.247 -1.18576 1.03814 0
M  V30 10023 C 929.179 -2.21607 0.585055 0
M  V30 10024 C 930.192 -1.59125 -0.343963 0
M  V30 10025 O 931.381 -1.77959 -0.138882 0
M  V30 10026 C 928.481 -3.38495 -0.165602 0
M  V30 10027 C 927.654 -4.30557 0.770662 0
M  V30 10028 C 926.713 -5.26161 0.0637534 0
M  V30 10029 O 925.739 -5.64961 0.693359 0
M  V30 10030 N 926.941 -5.67882 -1.20377 0
M  V30 10031 H 929.706 -2.61104 1.47121 0
M  V30 10032 H 927.267 -1.33336 0.918316 0
M  V30 10033 H 929.259 -3.99474 -0.648292 0
M  V30 10034 H 927.829 -2.97711 -0.953268 0
M  V30 10035 H 927.049 -3.67221 1.43326 0
M  V30 10036 H 928.337 -4.88969 1.40667 0
M  V30 10037 H 927.735 -5.38409 -1.73586 0
M  V30 10038 H 926.292 -6.31069 -1.63079 0
M  V30 10039 N 929.725 -0.817259 -1.34754 0
M  V30 10040 C 931.002 -0.325468 -1.92873 0
M  V30 10041 C 931.382 1.18643 -1.74606 0
M  V30 10042 O 930.73 1.9909 -1.1214 0
M  V30 10043 C 930.94 -0.74858 -3.40877 0
M  V30 10044 C 932.288 -0.744165 -4.18028 0
M  V30 10045 O 933.312 -0.690799 -3.49437 0
M  V30 10046 O 932.171 -0.812207 -5.40431 0
M  V30 10047 H 929.265 -0.0876397 -0.822343 0
M  V30 10048 H 931.811 -0.901671 -1.43764 0
M  V30 10049 H 930.583 -1.79017 -3.47949 0
M  V30 10050 H 930.206 -0.147764 -3.97325 0
M  V30 10051 N 931.203 1.46865 -0.571711 0
M  V30 10052 C 932.428 2.07323 -0.0564655 0
M  V30 10053 C 932.853 1.41938 1.23431 0
M  V30 10054 O 932.211 0.499334 1.74288 0
M  V30 10055 C 932.259 3.6044 0.107339 0
M  V30 10056 O 931.363 3.95558 1.1665 0
M  V30 10057 H 930.704 0.661475 -0.0578465 0
M  V30 10058 H 933.234 1.88669 -0.791524 0
M  V30 10059 H 933.244 4.06767 0.316987 0
M  V30 10060 H 931.919 4.07425 -0.835348 0
M  V30 10061 H 930.496 3.60957 0.936189 0
M  V30 10062 N 932.681 0.308908 1.54543 0
M  V30 10063 C 933.929 -0.297447 1.99899 0
M  V30 10064 C 934.25 -1.53799 1.19878 0
M  V30 10065 O 933.52 -1.93639 0.29678 0
M  V30 10066 H 932.1 -0.112897 0.738419 0
M  V30 10067 H 934.762 0.422067 1.90275 0
M  V30 10068 H 933.858 -0.564016 3.06961 0
M  V30 10069 N 934.159 -1.57557 0.0367827 0
M  V30 10070 C 935.387 -1.96419 -0.650168 0
M  V30 10071 C 935.802 -0.913656 -1.6522 0
M  V30 10072 O 935.159 0.103718 -1.82205 0
M  V30 10073 C 935.21 -3.35355 -1.3498 0
M  V30 10074 O 934.931 -4.36379 -0.387905 0
M  V30 10075 C 936.432 -3.88892 -2.12786 0
M  V30 10076 H 933.652 -0.646751 -0.178756 0
M  V30 10077 H 936.196 -2.04261 0.0988197 0
M  V30 10078 H 934.351 -3.28708 -2.05012 0
M  V30 10079 H 934.765 -5.16969 -0.885596 0
M  V30 10080 H 936.239 -4.88428 -2.5718 0
M  V30 10081 H 936.716 -3.23547 -2.97008 0
M  V30 10082 H 937.322 -3.98831 -1.47694 0
M  V30 10083 N 935.637 0.236453 -1.55816 0
M  V30 10084 C 936.867 0.978873 -1.81939 0
M  V30 10085 C 937.275 1.79041 -0.611647 0
M  V30 10086 O 936.618 1.78616 0.429172 0
M  V30 10087 C 936.68 1.9569 -3.01572 0
M  V30 10088 C 936.344 1.33131 -4.37178 0
M  V30 10089 C 937.341 0.728585 -5.1477 0
M  V30 10090 C 935.026 1.34755 -4.83887 0
M  V30 10091 C 937.02 0.150427 -6.37222 0
M  V30 10092 C 934.707 0.765539 -6.06286 0
M  V30 10093 C 935.705 0.168017 -6.82793 0
M  V30 10094 O 935.393 -0.404976 -8.02879 0
M  V30 10095 H 935.125 0.293186 -0.609113 0
M  V30 10096 H 937.679 0.261384 -2.0373 0
M  V30 10097 H 935.909 2.71298 -2.75562 0
M  V30 10098 H 937.598 2.56362 -3.14695 0
M  V30 10099 H 938.364 0.708477 -4.79797 0
M  V30 10100 H 934.243 1.80202 -4.24321 0
M  V30 10101 H 937.787 -0.316586 -6.96881 0
M  V30 10102 H 933.684 0.78301 -6.40733 0
M  V30 10103 H 934.452 -0.29785 -8.17958 0
M  V30 10104 N 937.115 1.49373 0.502552 0
M  V30 10105 C 938.078 1.65413 1.58654 0
M  V30 10106 C 939.078 0.526003 1.51953 0
M  V30 10107 O 940.268 0.792421 1.55133 0
M  V30 10108 C 937.4 1.65005 2.98306 0
M  V30 10109 H 938.593 2.62095 1.45762 0
M  V30 10110 H 936.146 1.38381 0.726672 0
M  V30 10111 H 936.881 0.699014 3.16677 0
M  V30 10112 H 936.666 2.46931 3.04578 0
M  V30 10113 H 938.156 1.79477 3.77065 0
M  V30 10114 N 938.594 -0.753485 1.38421 0
M  V30 10115 C 939.834 -1.52544 1.3605 0
M  V30 10116 C 940.198 -1.91937 -0.0493257 0
M  V30 10117 O 941.399 -2.6807 -0.197908 0
M  V30 10118 C 939.67 -2.74432 2.28958 0
M  V30 10119 S 941.229 -3.64297 2.44607 0
M  V30 10120 H 938.047 -0.522017 0.48272 0
M  V30 10121 H 940.649 -0.884503 1.74347 0
M  V30 10122 H 939.353 -2.43602 3.30282 0
M  V30 10123 H 938.884 -3.43471 1.91811 0
M  V30 10124 H 940.899 -4.67245 1.67022 0
M  V30 10125 N 940.072 -1.23292 -0.981677 0
M  V30 10126 C 941.488 -0.995295 -1.24764 0
M  V30 10127 C 941.688 0.304379 -1.99188 0
M  V30 10128 O 940.744 1.02414 -2.30798 0
M  V30 10129 C 942.057 -2.20135 -2.04844 0
M  V30 10130 C 943.605 -2.24612 -2.17988 0
M  V30 10131 C 944.08 -3.448 -3.01458 0
M  V30 10132 N 945.571 -3.45031 -3.09044 0
M  V30 10133 C 946.306 -4.34683 -3.7395 0
M  V30 10134 N 945.802 -5.34569 -4.4069 0
M  V30 10135 N 947.595 -4.22429 -3.70823 0
M  V30 10136 H 939.746 -2.06834 -0.483052 0
M  V30 10137 H 942.009 -0.906929 -0.276014 0
M  V30 10138 H 941.715 -3.14446 -1.57532 0
M  V30 10139 H 941.589 -2.21115 -3.05594 0
M  V30 10140 H 943.976 -1.30841 -2.64508 0
M  V30 10141 H 944.057 -2.27664 -1.16631 0
M  V30 10142 H 943.701 -4.38877 -2.55635 0
M  V30 10143 H 943.631 -3.38988 -4.02982 0
M  V30 10144 H 946.122 -2.72759 -2.61555 0
M  V30 10145 H 946.435 -5.99236 -4.87991 0
M  V30 10146 H 944.78 -5.3847 -4.39403 0
M  V30 10147 H 947.971 -3.43639 -3.17851 0
M  V30 10148 H 948.144 -4.92501 -4.21126 0
M  V30 10149 N 941.55 1.18024 -1.04442 0
M  V30 10150 C 942.513 2.19992 -0.643136 0
M  V30 10151 C 943.513 1.57949 0.301444 0
M  V30 10152 O 944.703 1.73986 0.0863341 0
M  V30 10153 C 941.835 3.40853 0.0565208 0
M  V30 10154 H 943.028 2.57008 -1.54554 0
M  V30 10155 H 940.581 1.31974 -0.837408 0
M  V30 10156 H 941.316 3.09373 0.972553 0
M  V30 10157 H 941.101 3.87128 -0.622439 0
M  V30 10158 H 942.591 4.16344 0.323652 0
M  V30 10159 N 943.028 0.824394 1.34319 0
M  V30 10160 C 944.444 0.510336 1.51221 0
M  V30 10161 C 944.644 -0.965201 1.76879 0
M  V30 10162 O 943.7 -1.74961 1.82057 0
M  V30 10163 C 945.013 1.37114 2.6762 0
M  V30 10164 C 946.561 1.36842 2.81502 0
M  V30 10165 C 947.036 2.21374 4.00946 0
M  V30 10166 N 948.527 2.19005 4.08156 0
M  V30 10167 C 949.262 2.81159 4.99737 0
M  V30 10168 N 948.758 3.52309 5.96532 0
M  V30 10169 N 950.551 2.70706 4.9262 0
M  V30 10170 H 942.702 1.77976 1.15924 0
M  V30 10171 H 944.965 0.758503 0.568663 0
M  V30 10172 H 944.671 2.41905 2.55294 0
M  V30 10173 H 944.545 1.03689 3.62669 0
M  V30 10174 H 946.932 0.328284 2.93268 0
M  V30 10175 H 947.013 1.74265 1.87257 0
M  V30 10176 H 946.657 3.25437 3.8994 0
M  V30 10177 H 946.587 1.813 4.94407 0
M  V30 10178 H 949.078 1.67252 3.38874 0
M  V30 10179 H 949.391 3.96977 6.63045 0
M  V30 10180 H 947.736 3.56415 5.96652 0
M  V30 10181 H 950.927 2.14694 4.15962 0
M  V30 10182 H 951.1 3.19431 5.63798 0
M  V30 10183 N 944.506 -1.46559 0.579492 0
M  V30 10184 C 945.454 -2.3199 -0.168413 0
M  V30 10185 C 946.448 -1.44288 -0.887551 0
M  V30 10186 O 947.654 -1.60931 -0.806305 0
M  V30 10187 H 944.029 -0.748431 -0.0731799 0
M  V30 10188 H 946 -2.92886 0.570973 0
M  V30 10189 C 944.749 -3.27392 -1.1709 0
M  V30 10190 H 944.072 -3.94853 -0.626958 0
M  V30 10191 H 945.512 -3.89955 -1.66467 0
M  V30 10192 C 943.971 -2.52511 -2.23024 0
M  V30 10193 O 944.501 -2.2858 -3.30324 0
M  V30 10194 N 942.707 -2.1313 -1.97545 0
M  V30 10195 H 942.254 -2.32793 -1.10297 0
M  V30 10196 H 942.212 -1.63348 -2.68635 0
M  V30 10197 N 945.984 -0.3171 -1.54377 0
M  V30 10198 C 947.23 0.287836 -2.00747 0
M  V30 10199 C 947.563 1.52292 -1.20502 0
M  V30 10200 O 946.838 1.92391 -0.285626 0
M  V30 10201 C 947.121 0.628423 -3.54574 0
M  V30 10202 C 946.974 -0.616922 -4.45549 0
M  V30 10203 C 948.293 1.44862 -4.15575 0
M  V30 10204 H 945.412 0.103144 -0.729747 0
M  V30 10205 H 948.054 -0.432396 -1.85014 0
M  V30 10206 H 946.204 1.24203 -3.68111 0
M  V30 10207 H 947.876 -1.25526 -4.43893 0
M  V30 10208 H 946.119 -1.24706 -4.15489 0
M  V30 10209 H 946.79 -0.334243 -5.50987 0
M  V30 10210 H 949.266 0.930015 -4.05574 0
M  V30 10211 H 948.142 1.6557 -5.23333 0
M  V30 10212 H 948.403 2.44279 -3.68484 0
M  V30 10213 N 947.462 1.57535 -0.0451378 0
M  V30 10214 C 948.692 1.96476 0.638814 0
M  V30 10215 C 949.1 0.921056 1.65267 0
M  V30 10216 O 948.443 -0.103843 1.83406 0
M  V30 10217 C 948.505 3.31629 1.38788 0
M  V30 10218 C 948.169 4.5391 0.530545 0
M  V30 10219 C 949.166 5.19512 -0.200864 0
M  V30 10220 C 946.851 5.00159 0.463242 0
M  V30 10221 C 948.845 6.29695 -0.988078 0
M  V30 10222 C 946.532 6.10221 -0.327665 0
M  V30 10223 C 947.53 6.74849 -1.05202 0
M  V30 10224 O 947.218 7.82795 -1.82993 0
M  V30 10225 H 946.95 0.651625 0.17989 0
M  V30 10226 H 949.504 2.05126 -0.106031 0
M  V30 10227 H 947.734 3.19516 2.17822 0
M  V30 10228 H 949.423 3.5536 1.96148 0
M  V30 10229 H 950.189 4.84742 -0.158299 0
M  V30 10230 H 946.068 4.49651 1.01663 0
M  V30 10231 H 949.612 6.80072 -1.55397 0
M  V30 10232 H 945.509 6.44428 -0.37189 0
M  V30 10233 H 946.277 7.99542 -1.7514 0
M  V30 10234 N 948.94 -0.228186 1.55939 0
M  V30 10235 C 950.168 -0.970618 1.8272 0
M  V30 10236 C 950.583 -1.78212 0.623385 0
M  V30 10237 O 949.94 -1.77879 -0.408063 0
M  V30 10238 C 949.991 -1.89352 3.07942 0
M  V30 10239 O 949.712 -1.11483 4.23678 0
M  V30 10240 C 951.213 -2.75039 3.47661 0
M  V30 10241 H 948.433 -0.284772 0.607574 0
M  V30 10242 H 950.977 -0.245419 2.03022 0
M  V30 10243 H 949.132 -2.57275 2.89635 0
M  V30 10244 H 949.546 -1.74073 4.94772 0
M  V30 10245 H 951.02 -3.35511 4.38334 0
M  V30 10246 H 951.497 -3.471 2.69106 0
M  V30 10247 H 952.103 -2.1254 3.68384 0
M  V30 10248 N 950.418 -1.49637 -0.494624 0
M  V30 10249 C 951.666 -1.5913 -1.24587 0
M  V30 10250 C 951.987 -0.282828 -1.92938 0
M  V30 10251 O 951.257 0.69825 -1.83034 0
M  V30 10252 H 949.837 -0.586329 -0.462847 0
M  V30 10253 H 952.499 -1.86296 -0.572696 0
M  V30 10254 H 951.595 -2.3906 -2.00641 0
M  V30 10255 N 951.896 0.746133 -1.38819 0
M  V30 10256 C 952.806 1.89063 -1.38897 0
M  V30 10257 C 953.822 1.71648 -0.28513 0
M  V30 10258 O 954.998 1.94443 -0.524783 0
M  V30 10259 C 952.063 3.24523 -1.22007 0
M  V30 10260 C 951.124 3.54411 -2.42263 0
M  V30 10261 C 950.357 4.83408 -2.26169 0
M  V30 10262 O 950.58 5.56325 -1.25931 0
M  V30 10263 O 949.514 5.12943 -3.14918 0
M  V30 10264 H 953.34 1.91951 -2.35347 0
M  V30 10265 H 950.925 0.892433 -1.19816 0
M  V30 10266 H 952.807 4.05496 -1.14677 0
M  V30 10267 H 951.482 3.2243 -0.286455 0
M  V30 10268 H 950.389 2.73569 -2.55168 0
M  V30 10269 H 951.722 3.61273 -3.3428 0
M  V30 10270 N 953.375 1.23811 0.975125 0
M  V30 10271 C 954.285 1.0408 2.10249 0
M  V30 10272 C 955.301 -0.0162404 1.73992 0
M  V30 10273 O 956.477 0.180346 2.00591 0
M  V30 10274 C 953.542 0.640013 3.40741 0
M  V30 10275 C 952.603 1.7727 3.90991 0
M  V30 10276 C 951.836 1.39094 5.15256 0
M  V30 10277 O 952.059 0.277483 5.69725 0
M  V30 10278 O 950.993 2.21392 5.59704 0
M  V30 10279 H 954.819 1.98575 2.29786 0
M  V30 10280 H 952.404 1.02563 1.08633 0
M  V30 10281 H 954.286 0.427684 4.19224 0
M  V30 10282 H 952.961 -0.27589 3.22522 0
M  V30 10283 H 951.868 2.03971 3.13602 0
M  V30 10284 H 953.201 2.66711 4.13674 0
M  V30 10285 N 954.853 -1.17469 1.05066 0
M  V30 10286 C 956.102 -1.87032 0.755114 0
M  V30 10287 C 956.415 -1.81844 -0.720572 0
M  V30 10288 O 957.621 -2.46866 -1.13002 0
M  V30 10289 C 956.077 -3.35581 1.30052 0
M  V30 10290 C 955.685 -3.49274 2.80556 0
M  V30 10291 C 957.429 -4.1048 1.08196 0
M  V30 10292 C 955.336 -4.91838 3.28404 0
M  V30 10293 H 954.266 -0.70057 0.278779 0
M  V30 10294 H 956.917 -1.32663 1.26779 0
M  V30 10295 H 955.299 -3.89479 0.715667 0
M  V30 10296 H 956.473 -3.05598 3.44886 0
M  V30 10297 H 954.788 -2.87793 3.00939 0
M  V30 10298 H 957.385 -5.15652 1.41447 0
M  V30 10299 H 957.728 -4.16295 0.0196603 0
M  V30 10300 H 958.261 -3.62784 1.63195 0
M  V30 10301 H 955 -4.91196 4.34058 0
M  V30 10302 H 954.52 -5.36189 2.68815 0
M  V30 10303 H 956.199 -5.60602 3.23009 0
M  V30 10304 N 956.331 -0.831506 -1.3388 0
M  V30 10305 C 957.261 -0.274378 -2.31882 0
M  V30 10306 C 958.242 0.613872 -1.58637 0
M  V30 10307 O 959.427 0.538961 -1.86571 0
M  V30 10308 C 956.557 0.557498 -3.42796 0
M  V30 10309 C 955.511 -0.234337 -4.27358 0
M  V30 10310 C 954.837 0.720825 -5.29819 0
M  V30 10311 C 956.137 -1.44732 -5.01847 0
M  V30 10312 H 957.831 -1.09322 -2.78728 0
M  V30 10313 H 955.377 -0.527136 -1.34005 0
M  V30 10314 H 957.33 0.957501 -4.10378 0
M  V30 10315 H 956.054 1.40947 -2.94621 0
M  V30 10316 H 954.713 -0.61581 -3.61391 0
M  V30 10317 H 954.361 1.569 -4.77903 0
M  V30 10318 H 954.061 0.195171 -5.87276 0
M  V30 10319 H 955.585 1.1185 -6.00268 0
M  V30 10320 H 956.999 -1.12087 -5.62236 0
M  V30 10321 H 955.396 -1.90923 -5.68919 0
M  V30 10322 H 956.466 -2.22099 -4.31045 0
M  V30 10323 N 957.809 1.4625 -0.587256 0
M  V30 10324 C 958.741 2.28482 0.181256 0
M  V30 10325 C 959.754 1.38777 0.851163 0
M  V30 10326 O 960.943 1.63336 0.719963 0
M  V30 10327 C 958.043 3.13944 1.27643 0
M  V30 10328 C 957.216 4.31802 0.697569 0
M  V30 10329 C 956.275 4.98626 1.68102 0
M  V30 10330 O 955.301 5.56075 1.21529 0
M  V30 10331 N 956.503 4.96051 3.0152 0
M  V30 10332 H 959.268 2.95079 -0.524267 0
M  V30 10333 H 956.829 1.56213 -0.425336 0
M  V30 10334 H 958.821 3.55513 1.93371 0
M  V30 10335 H 957.391 2.49391 1.88475 0
M  V30 10336 H 956.611 3.93961 -0.137293 0
M  V30 10337 H 957.899 5.07969 0.290696 0
M  V30 10338 H 957.297 4.5063 3.41978 0
M  V30 10339 H 955.854 5.41547 3.62725 0
M  V30 10340 N 959.287 0.325282 1.54207 0
M  V30 10341 C 960.234 -0.539889 2.24397 0
M  V30 10342 C 961.204 -1.11028 1.2354 0
M  V30 10343 O 962.389 -1.1503 1.52226 0
M  V30 10344 C 959.529 -1.69405 3.00659 0
M  V30 10345 C 958.642 -1.15273 4.16337 0
M  V30 10346 C 957.777 -2.27272 4.80126 0
M  V30 10347 C 956.816 -1.70397 5.87904 0
M  V30 10348 N 955.953 -2.76065 6.45548 0
M  V30 10349 H 960.793 0.0652318 2.97929 0
M  V30 10350 H 958.33 0.043964 1.47034 0
M  V30 10351 H 960.288 -2.37325 3.43122 0
M  V30 10352 H 958.918 -2.27043 2.29458 0
M  V30 10353 H 957.97 -0.365034 3.78645 0
M  V30 10354 H 959.282 -0.696576 4.93912 0
M  V30 10355 H 958.436 -3.03092 5.25566 0
M  V30 10356 H 957.175 -2.76224 4.01935 0
M  V30 10357 H 956.18 -0.930752 5.41864 0
M  V30 10358 H 957.405 -1.22319 6.67993 0
M  V30 10359 H 955.351 -3.24306 5.7023 0
M  V30 10360 H 955.268 -2.35018 7.18542 0
M  V30 10361 H 956.536 -3.5171 6.95644 0
M  V30 10362 N 960.765 -1.57509 0.0534917 0
M  V30 10363 C 961.712 -2.11667 -0.920101 0
M  V30 10364 C 962.682 -1.0246 -1.30733 0
M  V30 10365 O 963.867 -1.30021 -1.39639 0
M  V30 10366 C 961.007 -2.66803 -2.18883 0
M  V30 10367 C 960.12 -3.90104 -1.85588 0
M  V30 10368 C 959.255 -4.33547 -3.06937 0
M  V30 10369 C 958.294 -5.49542 -2.69573 0
M  V30 10370 N 957.431 -5.88029 -3.83623 0
M  V30 10371 H 962.271 -2.94562 -0.451371 0
M  V30 10372 H 959.808 -1.45576 -0.211168 0
M  V30 10373 H 961.766 -2.96871 -2.93127 0
M  V30 10374 H 960.396 -1.86702 -2.63329 0
M  V30 10375 H 959.448 -3.66613 -1.01484 0
M  V30 10376 H 960.76 -4.74404 -1.54087 0
M  V30 10377 H 959.914 -4.6518 -3.89477 0
M  V30 10378 H 958.653 -3.48064 -3.41618 0
M  V30 10379 H 957.658 -5.17579 -1.8545 0
M  V30 10380 H 958.883 -6.36743 -2.36082 0
M  V30 10381 H 956.829 -5.05498 -4.181 0
M  V30 10382 H 956.746 -6.67025 -3.55828 0
M  V30 10383 H 958.014 -6.24277 -4.66796 0
M  V30 10384 N 962.243 0.219913 -1.56058 0
M  V30 10385 C 963.153 1.29349 -1.95719 0
M  V30 10386 C 964.169 1.5119 -0.861248 0
M  V30 10387 O 965.345 1.64289 -1.16495 0
M  V30 10388 C 962.41 2.6229 -2.26726 0
M  V30 10389 C 961.471 2.48738 -3.49897 0
M  V30 10390 C 960.704 3.75339 -3.79416 0
M  V30 10391 O 960.927 4.78427 -3.10586 0
M  V30 10392 O 959.861 3.72352 -4.72903 0
M  V30 10393 H 963.687 0.986979 -2.87215 0
M  V30 10394 H 961.272 0.42291 -1.43289 0
M  V30 10395 H 963.154 3.408 -2.47857 0
M  V30 10396 H 961.829 2.92619 -1.38404 0
M  V30 10397 H 960.736 1.68422 -3.34043 0
M  V30 10398 H 962.069 2.23347 -4.38608 0
M  V30 10399 N 963.721 1.49897 0.486681 0
M  V30 10400 C 964.97 1.59349 1.23656 0
M  V30 10401 C 965.283 0.292024 1.93408 0
M  V30 10402 O 966.489 0.265258 2.70201 0
M  V30 10403 C 964.945 2.81215 2.24602 0
M  V30 10404 C 964.553 4.18177 1.60725 0
M  V30 10405 C 966.297 3.00004 3.00329 0
M  V30 10406 C 964.204 5.31247 2.59866 0
M  V30 10407 H 963.134 0.593363 0.465227 0
M  V30 10408 H 965.785 1.76306 0.508769 0
M  V30 10409 H 964.167 2.57783 3.00606 0
M  V30 10410 H 965.341 4.51802 0.90616 0
M  V30 10411 H 963.656 4.04864 0.973362 0
M  V30 10412 H 966.253 3.81649 3.74497 0
M  V30 10413 H 966.596 2.1112 3.58795 0
M  V30 10414 H 967.129 3.23544 2.3144 0
M  V30 10415 H 963.868 6.22236 2.06161 0
M  V30 10416 H 963.388 5.02059 3.28172 0
M  V30 10417 H 965.067 5.61177 3.22009 0
M  V30 10418 N 965.199 -0.738761 1.39212 0
M  V30 10419 C 966.427 -1.52801 1.39497 0
M  V30 10420 C 966.842 -1.88797 -0.0114917 0
M  V30 10421 O 966.199 -1.53835 -0.981887 0
M  V30 10422 C 966.25 -2.81793 2.2644 0
M  V30 10423 O 965.971 -2.47328 3.61608 0
M  V30 10424 C 967.472 -3.75844 2.35067 0
M  V30 10425 H 964.692 -0.472322 0.476606 0
M  V30 10426 H 967.236 -0.913153 1.8298 0
M  V30 10427 H 965.391 -3.3962 1.8638 0
M  V30 10428 H 965.805 -3.30162 4.07545 0
M  V30 10429 H 967.279 -4.6326 3.00157 0
M  V30 10430 H 967.756 -4.17329 1.3687 0
M  V30 10431 H 968.362 -3.23937 2.75581 0
M  V30 10432 N 966.677 -1.24326 -0.968545 0
M  V30 10433 C 967.926 -1.07647 -1.70572 0
M  V30 10434 C 968.239 0.384821 -1.91777 0
M  V30 10435 O 969.445 0.671782 -2.63058 0
M  V30 10436 C 967.901 -1.87799 -3.07017 0
M  V30 10437 C 967.509 -3.38333 -2.93658 0
M  V30 10438 C 969.253 -1.79647 -3.84613 0
M  V30 10439 C 967.16 -4.10831 -4.25407 0
M  V30 10440 H 966.09 -0.399216 -0.639642 0
M  V30 10441 H 968.741 -1.484 -1.07934 0
M  V30 10442 H 967.123 -1.3986 -3.7048 0
M  V30 10443 H 968.297 -3.93845 -2.39213 0
M  V30 10444 H 966.612 -3.47427 -2.29528 0
M  V30 10445 H 969.209 -2.31116 -4.82172 0
M  V30 10446 H 969.552 -0.761553 -4.09275 0
M  V30 10447 H 970.085 -2.25261 -3.27875 0
M  V30 10448 H 966.824 -5.14679 -4.05939 0
M  V30 10449 H 966.344 -3.60105 -4.79671 0
M  V30 10450 H 968.023 -4.17783 -4.94031 0
M  V30 10451 N 968.156 1.1691 -1.05688 0
M  V30 10452 C 969.572 1.39288 -0.779167 0
M  V30 10453 C 969.772 1.91587 0.624231 0
M  V30 10454 O 968.828 2.11072 1.38582 0
M  V30 10455 C 970.141 2.37914 -1.83895 0
M  V30 10456 C 971.689 2.51611 -1.86175 0
M  V30 10457 C 972.164 3.53514 -2.9119 0
M  V30 10458 N 973.655 3.61036 -2.90184 0
M  V30 10459 C 974.39 4.39657 -3.68088 0
M  V30 10460 N 973.886 5.21752 -4.55793 0
M  V30 10461 N 975.679 4.3458 -3.56507 0
M  V30 10462 H 967.83 0.81296 -1.96226 0
M  V30 10463 H 970.093 0.419818 -0.849975 0
M  V30 10464 H 969.799 2.06568 -2.84645 0
M  V30 10465 H 969.673 3.37483 -1.68479 0
M  V30 10466 H 972.06 2.82264 -0.86087 0
M  V30 10467 H 972.141 1.52099 -2.05668 0
M  V30 10468 H 971.785 3.23599 -3.91467 0
M  V30 10469 H 971.715 4.52742 -2.68947 0
M  V30 10470 H 974.206 3.02428 -2.26596 0
M  V30 10471 H 974.519 5.78939 -5.11907 0
M  V30 10472 H 972.864 5.21116 -4.59851 0
M  V30 10473 H 976.055 3.69501 -2.87379 0
M  V30 10474 H 976.228 4.95607 -4.17466 0
M  V30 10475 N 969.634 0.838594 1.33437 0
M  V30 10476 C 970.911 0.356112 1.92331 0
M  V30 10477 C 971.291 -1.1585 1.76471 0
M  V30 10478 O 970.639 -1.97281 1.15293 0
M  V30 10479 C 970.849 0.802715 3.39643 0
M  V30 10480 C 972.197 0.810575 4.16791 0
M  V30 10481 O 973.221 0.746304 3.48294 0
M  V30 10482 O 972.08 0.898082 5.3907 0
M  V30 10483 H 969.174 0.100711 0.820845 0
M  V30 10484 H 971.72 0.924428 1.42311 0
M  V30 10485 H 970.492 1.84529 3.45057 0
M  V30 10486 H 970.115 0.210956 3.9704 0
M  V30 10487 N 971.112 -1.45937 0.595003 0
M  V30 10488 C 972.044 -2.28575 -0.169137 0
M  V30 10489 C 973.057 -1.39226 -0.843792 0
M  V30 10490 O 974.246 -1.63716 -0.711291 0
M  V30 10491 C 971.346 -3.14616 -1.25976 0
M  V30 10492 C 970.519 -4.32166 -0.67466 0
M  V30 10493 C 969.578 -4.99511 -1.65456 0
M  V30 10494 O 968.604 -5.56712 -1.18578 0
M  V30 10495 N 969.806 -4.97643 -2.98885 0
M  V30 10496 H 972.571 -2.94797 0.539908 0
M  V30 10497 H 970.132 -1.55985 0.433614 0
M  V30 10498 H 972.124 -3.56534 -1.91483 0
M  V30 10499 H 970.694 -2.50387 -1.8715 0
M  V30 10500 H 969.914 -3.93882 0.158184 0
M  V30 10501 H 971.202 -5.08116 -0.263753 0
M  V30 10502 H 970.6 -4.52438 -3.39583 0
M  V30 10503 H 969.157 -5.43463 -3.59848 0
M  V30 10504 N 972.59 -0.333456 -1.54032 0
M  V30 10505 C 973.5 0.536674 -2.28379 0
M  V30 10506 C 974.516 1.12068 -1.33104 0
M  V30 10507 O 975.692 1.13853 -1.66131 0
M  V30 10508 C 972.757 1.67677 -3.03456 0
M  V30 10509 C 971.818 1.12357 -4.14336 0
M  V30 10510 C 971.051 2.20933 -4.85823 0
M  V30 10511 O 971.274 3.41466 -4.569 0
M  V30 10512 O 970.208 1.85795 -5.72507 0
M  V30 10513 H 974.034 -0.0674003 -3.03625 0
M  V30 10514 H 971.619 -0.098823 -1.49073 0
M  V30 10515 H 973.501 2.34032 -3.50438 0
M  V30 10516 H 972.176 2.26684 -2.31076 0
M  V30 10517 H 971.083 0.424827 -3.7168 0
M  V30 10518 H 972.416 0.578497 -4.88789 0
M  V30 10519 N 974.068 1.57479 -0.061844 0
M  V30 10520 C 975.031 2.1104 0.894127 0
M  V30 10521 C 976.031 1.03227 1.23292 0
M  V30 10522 O 977.221 1.29256 1.16784 0
M  V30 10523 C 974.353 2.6035 2.20069 0
M  V30 10524 H 975.546 2.96807 0.429619 0
M  V30 10525 H 973.099 1.55181 0.18672 0
M  V30 10526 H 973.834 1.78008 2.71079 0
M  V30 10527 H 973.619 3.39146 1.9678 0
M  V30 10528 H 975.109 3.019 2.88525 0
M  V30 10529 N 975.546 -0.211634 1.56173 0
M  V30 10530 C 976.957 -0.777776 1.69728 0
M  V30 10531 C 977.308 -1.84566 0.66558 0
M  V30 10532 O 976.433 -2.15639 -0.181338 0
M  V30 10533 C 977.028 -1.41757 3.07718 0
M  V30 10534 C 975.587 -1.93098 3.23094 0
M  V30 10535 C 974.734 -0.794785 2.65666 0
M  V30 10536 H 977.685 0.0131839 1.58695 0
M  V30 10537 H 977.706 -2.28662 3.04128 0
M  V30 10538 H 977.218 -0.640114 3.82785 0
M  V30 10539 H 975.319 -2.73615 2.52914 0
M  V30 10540 H 975.432 -2.10414 4.30422 0
M  V30 10541 H 973.796 -1.20473 2.24407 0
M  V30 10542 H 974.579 -0.0298408 3.43287 0
M  V30 10543 N 977.024 -1.50153 -0.478725 0
M  V30 10544 C 978.254 -1.64266 -1.253 0
M  V30 10545 C 978.662 -0.322256 -1.86435 0
M  V30 10546 O 978.005 0.704925 -1.69636 0
M  V30 10547 C 978.067 -2.67017 -2.40712 0
M  V30 10548 C 977.731 -4.10779 -2.00274 0
M  V30 10549 C 978.728 -4.96889 -1.52963 0
M  V30 10550 C 976.413 -4.5665 -2.09228 0
M  V30 10551 C 978.407 -6.26914 -1.15139 0
M  V30 10552 C 976.094 -5.86683 -1.71015 0
M  V30 10553 C 977.092 -6.71641 -1.24048 0
M  V30 10554 O 976.78 -7.99248 -0.863617 0
M  V30 10555 H 976.512 -0.555382 -0.385392 0
M  V30 10556 H 979.066 -1.97078 -0.578751 0
M  V30 10557 H 977.296 -2.29432 -3.11284 0
M  V30 10558 H 978.985 -2.70428 -3.02694 0
M  V30 10559 H 979.751 -4.62669 -1.45474 0
M  V30 10560 H 975.63 -3.90674 -2.44735 0
M  V30 10561 H 979.174 -6.93179 -0.784089 0
M  V30 10562 H 975.071 -6.20426 -1.78162 0
M  V30 10563 H 975.839 -8.12452 -0.993139 0
M  V30 10564 N 978.502 0.731368 -1.39602 0
M  V30 10565 C 979.432 1.85855 -1.41351 0
M  V30 10566 C 980.413 1.67839 -0.2764 0
M  V30 10567 O 981.598 1.88104 -0.482747 0
M  V30 10568 C 978.728 3.23644 -1.25983 0
M  V30 10569 C 977.682 3.56304 -2.37132 0
M  V30 10570 C 977.008 4.93069 -2.0685 0
M  V30 10571 C 978.308 3.58906 -3.79452 0
M  V30 10572 H 980.002 1.84648 -2.3568 0
M  V30 10573 H 977.548 0.886955 -1.13442 0
M  V30 10574 H 979.501 4.02176 -1.25826 0
M  V30 10575 H 978.225 3.25387 -0.281234 0
M  V30 10576 H 976.884 2.80104 -2.36511 0
M  V30 10577 H 976.532 4.91396 -1.0742 0
M  V30 10578 H 976.232 5.15888 -2.81306 0
M  V30 10579 H 977.756 5.73953 -2.0835 0
M  V30 10580 H 979.17 4.27508 -3.81982 0
M  V30 10581 H 977.567 3.93246 -4.53297 0
M  V30 10582 H 978.637 2.58631 -4.10168 0
M  V30 10583 N 979.98 1.24838 0.961938 0
M  V30 10584 C 980.91 1.07053 2.07514 0
M  V30 10585 C 981.891 -0.0182465 1.7009 0
M  V30 10586 O 983.076 0.149915 1.9362 0
M  V30 10587 C 980.206 0.680693 3.40564 0
M  V30 10588 C 979.16 1.71889 3.91967 0
M  V30 10589 C 978.486 1.18395 5.21428 0
M  V30 10590 C 979.786 3.1161 4.19161 0
M  V30 10591 H 981.48 2.00167 2.22651 0
M  V30 10592 H 979.026 0.963799 1.0699 0
M  V30 10593 H 980.979 0.54324 4.17884 0
M  V30 10594 H 979.703 -0.28615 3.25344 0
M  V30 10595 H 978.362 1.84465 3.16809 0
M  V30 10596 H 978.01 0.207543 5.02572 0
M  V30 10597 H 977.71 1.87778 5.56788 0
M  V30 10598 H 979.234 1.05873 6.01351 0
M  V30 10599 H 980.648 3.0223 4.87165 0
M  V30 10600 H 979.045 3.78398 4.65763 0
M  V30 10601 H 980.115 3.59218 3.25715 0
M  V30 10602 N 981.458 -1.16348 1.06306 0
M  V30 10603 C 982.874 -1.38873 0.786543 0
M  V30 10604 C 983.074 -1.91915 -0.614061 0
M  V30 10605 O 982.13 -2.11804 -1.3746 0
M  V30 10606 C 983.443 -2.36936 1.85154 0
M  V30 10607 C 984.991 -2.5062 1.87506 0
M  V30 10608 C 985.466 -3.51965 2.9306 0
M  V30 10609 N 986.957 -3.59492 2.92095 0
M  V30 10610 C 987.692 -4.37699 3.70415 0
M  V30 10611 N 987.188 -5.19327 4.58553 0
M  V30 10612 N 988.981 -4.32683 3.58806 0
M  V30 10613 H 981.132 -0.802542 1.96655 0
M  V30 10614 H 983.395 -0.415304 0.852189 0
M  V30 10615 H 983.101 -2.05056 2.85736 0
M  V30 10616 H 982.975 -3.36585 1.70267 0
M  V30 10617 H 985.362 -2.81804 0.875827 0
M  V30 10618 H 985.443 -1.51006 2.06472 0
M  V30 10619 H 985.087 -3.21518 3.93177 0
M  V30 10620 H 985.017 -4.51309 2.71344 0
M  V30 10621 H 987.508 -3.01222 2.28197 0
M  V30 10622 H 987.821 -5.76216 5.1497 0
M  V30 10623 H 986.166 -5.1867 4.62608 0
M  V30 10624 H 989.357 -3.67971 2.89335 0
M  V30 10625 H 989.53 -4.93386 4.20088 0
M  V30 10626 N 982.937 -0.845659 -1.3299 0
M  V30 10627 C 983.885 -0.272412 -2.30999 0
M  V30 10628 C 984.879 0.599311 -1.58444 0
M  V30 10629 O 986.085 0.488117 -1.73255 0
M  V30 10630 H 982.46 -0.0693751 -0.748793 0
M  V30 10631 H 984.431 -1.11343 -2.76849 0
M  V30 10632 C 983.18 0.532019 -3.43606 0
M  V30 10633 H 982.503 -0.129455 -3.9959 0
M  V30 10634 H 983.943 0.898853 -4.14363 0
M  V30 10635 C 982.402 1.71364 -2.90062 0
M  V30 10636 O 982.932 2.81252 -2.8681 0
M  V30 10637 N 981.138 1.53775 -2.4658 0
M  V30 10638 H 980.685 0.643836 -2.49424 0
M  V30 10639 H 980.643 2.32982 -2.11108 0
M  V30 10640 N 984.415 1.45619 -0.602734 0
M  V30 10641 C 985.345 2.33258 0.106342 0
M  V30 10642 C 986.326 1.46543 0.863664 0
M  V30 10643 O 987.511 1.75324 0.835175 0
M  V30 10644 C 984.641 3.29168 1.10751 0
M  V30 10645 C 983.595 4.25481 0.463717 0
M  V30 10646 C 982.921 5.11046 1.57278 0
M  V30 10647 C 984.221 5.18702 -0.61199 0
M  V30 10648 H 985.915 2.92795 -0.625423 0
M  V30 10649 H 983.461 1.40793 -0.302213 0
M  V30 10650 H 985.414 3.89346 1.61208 0
M  V30 10651 H 984.138 2.6778 1.8698 0
M  V30 10652 H 982.797 3.66595 -0.0199496 0
M  V30 10653 H 982.445 4.46029 2.32524 0
M  V30 10654 H 982.145 5.76286 1.14755 0
M  V30 10655 H 983.669 5.74091 2.07972 0
M  V30 10656 H 985.083 5.72979 -0.191686 0
M  V30 10657 H 983.48 5.92393 -0.958686 0
M  V30 10658 H 984.55 4.61424 -1.4905 0
M  V30 10659 N 985.893 0.34162 1.53853 0
M  V30 10660 C 987.118 -0.259608 2.05769 0
M  V30 10661 C 987.543 -1.43588 1.21507 0
M  V30 10662 O 986.901 -1.79856 0.228364 0
M  V30 10663 C 986.949 -0.654455 3.54611 0
M  V30 10664 O 986.053 -1.75472 3.73207 0
M  V30 10665 H 985.394 -0.0434621 0.662576 0
M  V30 10666 H 987.924 0.495274 1.98515 0
M  V30 10667 H 987.934 -0.932142 3.97209 0
M  V30 10668 H 986.609 0.205779 4.15391 0
M  V30 10669 H 985.186 -1.47444 3.42512 0
M  V30 10670 N 987.371 -1.57444 0.0701946 0
M  V30 10671 C 988.648 -1.84826 -0.6402 0
M  V30 10672 C 989.028 -0.962344 -1.87889 0
M  V30 10673 O 988.376 -0.0282209 -2.28483 0
M  V30 10674 C 988.586 -3.34976 -0.979382 0
M  V30 10675 C 989.934 -4.02448 -1.35355 0
M  V30 10676 O 990.958 -3.39713 -1.07116 0
M  V30 10677 O 989.817 -5.13096 -1.88136 0
M  V30 10678 H 986.911 -0.763494 -0.317813 0
M  V30 10679 H 989.457 -1.69399 0.101004 0
M  V30 10680 H 988.229 -3.91173 -0.0995576 0
M  V30 10681 H 987.852 -3.5566 -1.7774 0
M  V30 10682 N 988.849 0.203349 -1.56283 0
M  V30 10683 C 989.799 1.25595 -1.90289 0
M  V30 10684 C 990.783 1.41403 -0.767732 0
M  V30 10685 O 991.975 1.43912 -1.03046 0
M  V30 10686 C 989.104 2.60255 -2.23881 0
M  V30 10687 C 988.19 2.48274 -3.43833 0
M  V30 10688 N 988.581 2.05963 -4.61966 0
M  V30 10689 C 986.879 2.79188 -3.47808 0
M  V30 10690 C 987.58 2.05674 -5.44126 0
M  V30 10691 N 986.556 2.46862 -4.84314 0
M  V30 10692 H 990.358 0.920016 -2.79129 0
M  V30 10693 H 987.872 0.411829 -1.57091 0
M  V30 10694 H 989.869 3.36274 -2.46425 0
M  V30 10695 H 988.529 2.94678 -1.36363 0
M  V30 10696 H 989.54 1.76803 -4.86787 0
M  V30 10697 H 986.217 3.17863 -2.70684 0
M  V30 10698 H 987.607 1.74932 -6.48728 0
M  V30 10699 N 990.327 1.50405 0.470755 0
M  V30 10700 C 991.555 1.65168 1.24608 0
M  V30 10701 C 991.97 0.335153 1.85801 0
M  V30 10702 O 991.327 -0.682919 1.69241 0
M  V30 10703 C 991.378 2.74305 2.35455 0
M  V30 10704 O 991.099 4.00854 1.76771 0
M  V30 10705 C 992.6 3.00044 3.26326 0
M  V30 10706 H 989.82 0.555186 0.376842 0
M  V30 10707 H 992.364 1.9663 0.56187 0
M  V30 10708 H 990.519 2.45536 2.99651 0
M  V30 10709 H 990.933 4.61211 2.49769 0
M  V30 10710 H 992.407 3.8007 4.00313 0
M  V30 10711 H 992.884 2.11128 3.85126 0
M  V30 10712 H 993.49 3.30345 2.67866 0
M  V30 10713 N 991.805 -0.723954 1.39988 0
M  V30 10714 C 993.051 -1.48591 1.38017 0
M  V30 10715 C 993.384 -1.94189 -0.0203522 0
M  V30 10716 O 992.659 -1.67572 -0.987422 0
M  V30 10717 C 992.942 -2.71786 2.36229 0
M  V30 10718 C 992.795 -2.32136 3.8527 0
M  V30 10719 C 994.114 -3.73921 2.32102 0
M  V30 10720 H 991.233 -0.538993 0.502648 0
M  V30 10721 H 993.875 -0.826908 1.71062 0
M  V30 10722 H 992.025 -3.28015 2.0818 0
M  V30 10723 H 993.697 -1.81454 4.24113 0
M  V30 10724 H 991.94 -1.64234 4.01509 0
M  V30 10725 H 992.611 -3.20406 4.49493 0
M  V30 10726 H 995.087 -3.27303 2.56928 0
M  V30 10727 H 993.963 -4.5777 3.02882 0
M  V30 10728 H 994.224 -4.21627 1.32979 0
M  V30 10729 N 993.283 -1.25346 -0.955304 0
M  V30 10730 C 994.246 -1.05754 -2.03344 0
M  V30 10731 C 995.246 -0.0105743 -1.60797 0
M  V30 10732 O 996.436 -0.252699 -1.72357 0
M  V30 10733 C 993.568 -0.605536 -3.35479 0
M  V30 10734 H 994.761 -2.01459 -2.22158 0
M  V30 10735 H 992.314 -1.07744 -1.1323 0
M  V30 10736 H 993.049 0.354154 -3.2236 0
M  V30 10737 H 992.834 -1.36134 -3.67709 0
M  V30 10738 H 994.324 -0.489867 -4.14717 0
M  V30 10739 N 994.761 1.15782 -1.06922 0
M  V30 10740 C 996.01 1.85807 -0.784774 0
M  V30 10741 C 996.323 1.82967 0.691551 0
M  V30 10742 O 997.529 2.48632 1.0906 0
M  V30 10743 C 995.985 3.33469 -1.35375 0
M  V30 10744 C 995.593 3.44766 -2.86077 0
M  V30 10745 C 997.337 4.08707 -1.14713 0
M  V30 10746 C 995.244 4.86551 -3.36187 0
M  V30 10747 H 994.174 0.696046 -0.28989 0
M  V30 10748 H 996.825 1.30629 -1.28873 0
M  V30 10749 H 995.207 3.88292 -0.77754 0
M  V30 10750 H 996.381 3.00073 -3.49704 0
M  V30 10751 H 994.696 2.82969 -3.05479 0
M  V30 10752 H 997.293 5.13336 -1.49633 0
M  V30 10753 H 997.636 4.16211 -0.0858868 0
M  V30 10754 H 998.169 3.60142 -1.68946 0
M  V30 10755 H 994.908 4.84229 -4.41818 0
M  V30 10756 H 994.428 5.31844 -2.77312 0
M  V30 10757 H 996.107 5.55392 -3.31887 0
M  V30 10758 N 996.239 0.8527 1.3254 0
M  V30 10759 C 997.464 0.468157 2.02047 0
M  V30 10760 C 997.889 -0.926967 1.63673 0
M  V30 10761 O 997.247 -1.60855 0.836378 0
M  V30 10762 C 997.295 0.612519 3.5536 0
M  V30 10763 O 996.399 -0.355506 4.10865 0
M  V30 10764 H 995.74 0.188401 0.636711 0
M  V30 10765 H 998.27 1.15135 1.6913 0
M  V30 10766 H 998.28 0.499315 4.04933 0
M  V30 10767 H 996.955 1.62988 3.82632 0
M  V30 10768 H 995.532 -0.198703 3.7237 0
M  V30 10769 N 997.718 -1.45297 0.610449 0
M  V30 10770 C 998.943 -2.07101 0.111414 0
M  V30 10771 C 999.368 -1.45161 -1.19625 0
M  V30 10772 O 998.726 -0.545368 -1.72903 0
M  V30 10773 C 998.774 -3.60598 -0.0117372 0
M  V30 10774 O 997.878 -3.98512 -1.06122 0
M  V30 10775 H 997.219 -0.659709 0.075364 0
M  V30 10776 H 999.749 -1.86504 0.841269 0
M  V30 10777 H 999.759 -4.07464 -0.209028 0
M  V30 10778 H 998.434 -4.05067 0.943076 0
M  V30 10779 H 997.011 -3.63312 -0.840158 0
M  V30 10780 N 999.196 -0.349774 -1.5367 0
M  V30 10781 C 1000.42 0.248692 -2.05904 0
M  V30 10782 C 1000.85 1.42942 -1.22267 0
M  V30 10783 O 1000.2 1.79732 -0.237899 0
M  V30 10784 C 1000.25 0.635639 -3.54953 0
M  V30 10785 O 999.356 1.7349 -3.74132 0
M  V30 10786 H 998.697 0.0399477 -0.662797 0
M  V30 10787 H 1001.23 -0.505795 -1.9825 0
M  V30 10788 H 1001.24 0.911064 -3.97698 0
M  V30 10789 H 999.912 -0.227805 -4.15276 0
M  V30 10790 H 998.489 1.45626 -3.43289 0
M  V30 10791 N 1000.67 1.57404 -0.0785433 0
M  V30 10792 C 1001.9 1.98074 0.597862 0
M  V30 10793 C 1002.32 0.95714 1.6274 0
M  V30 10794 O 1001.67 -0.0553728 1.82416 0
M  V30 10795 C 1001.72 3.38815 1.26041 0
M  V30 10796 O 1001.45 4.37254 0.27207 0
M  V30 10797 C 1002.95 3.94397 2.024 0
M  V30 10798 H 1000.17 0.651263 0.161546 0
M  V30 10799 H 1002.71 2.03927 -0.152941 0
M  V30 10800 H 1000.87 3.34028 1.96225 0
M  V30 10801 H 1001.28 5.19136 0.74822 0
M  V30 10802 H 1002.75 4.95075 2.4414 0
M  V30 10803 H 1003.23 3.31308 2.88326 0
M  V30 10804 H 1003.84 4.02607 1.37068 0
M  V30 10805 N 1002.15 -0.195058 1.56388 0
M  V30 10806 C 1003.38 -0.931642 1.84738 0
M  V30 10807 C 1003.79 -1.76849 0.661046 0
M  V30 10808 O 1003.15 -1.78705 -0.370241 0
M  V30 10809 C 1003.2 -1.82777 3.11889 0
M  V30 10810 O 1002.92 -1.02471 4.25948 0
M  V30 10811 C 1004.42 -2.67603 3.53417 0
M  V30 10812 H 1001.64 -0.271821 0.613477 0
M  V30 10813 H 1004.19 -0.202299 2.03497 0
M  V30 10814 H 1002.34 -2.51074 2.95027 0
M  V30 10815 H 1002.76 -1.63539 4.98353 0
M  V30 10816 H 1004.23 -3.26138 4.45352 0
M  V30 10817 H 1004.71 -3.41314 2.76408 0
M  V30 10818 H 1005.31 -2.04678 3.7281 0
M  V30 10819 N 1003.63 -1.50653 -0.462772 0
M  V30 10820 C 1004.56 -1.73056 -1.5676 0
M  V30 10821 C 1005.54 -0.579699 -1.59917 0
M  V30 10822 O 1006.73 -0.819729 -1.76051 0
M  V30 10823 C 1003.86 -1.83234 -2.9503 0
M  V30 10824 C 1002.81 -2.98488 -3.06739 0
M  V30 10825 C 1002.14 -2.93818 -4.46738 0
M  V30 10826 C 1003.44 -4.38869 -2.83181 0
M  V30 10827 H 1005.13 -2.65562 -1.38265 0
M  V30 10828 H 1002.68 -1.27792 -0.663722 0
M  V30 10829 H 1004.63 -1.97491 -3.72257 0
M  V30 10830 H 1003.35 -0.873558 -3.14701 0
M  V30 10831 H 1002.01 -2.83895 -2.31946 0
M  V30 10832 H 1001.66 -1.95769 -4.63339 0
M  V30 10833 H 1001.36 -3.71197 -4.55507 0
M  V30 10834 H 1002.88 -3.10135 -5.25974 0
M  V30 10835 H 1004.3 -4.53945 -3.50153 0
M  V30 10836 H 1002.69 -5.17762 -3.03386 0
M  V30 10837 H 1003.76 -4.50663 -1.78972 0
M  V30 10838 N 1005.11 0.71652 -1.4037 0
M  V30 10839 C 1006.39 1.46947 -1.29097 0
M  V30 10840 C 1006.77 2.10903 0.0911182 0
M  V30 10841 O 1006.11 2.00068 1.10385 0
M  V30 10842 C 1006.32 2.50594 -2.42907 0
M  V30 10843 C 1007.67 3.16451 -2.83097 0
M  V30 10844 O 1008.7 2.60913 -2.42493 0
M  V30 10845 O 1007.55 4.16991 -3.53244 0
M  V30 10846 H 1004.65 0.653413 -0.506932 0
M  V30 10847 H 1007.19 0.748774 -1.52287 0
M  V30 10848 H 1005.97 2.01843 -3.35224 0
M  V30 10849 H 1005.59 3.302 -2.21481 0
M  V30 10850 N 1006.59 1.25851 0.948643 0
M  V30 10851 C 1007.83 1.12166 1.70874 0
M  V30 10852 C 1008.19 -0.330734 1.8913 0
M  V30 10853 O 1009.39 -0.58954 2.62255 0
M  V30 10854 C 1007.66 1.86162 3.05088 0
M  V30 10855 S 1009.22 1.88441 3.96277 0
M  V30 10856 H 1006.04 0.400803 0.587263 0
M  V30 10857 H 1008.64 1.59463 1.13101 0
M  V30 10858 H 1007.35 2.90916 2.89476 0
M  V30 10859 H 1006.88 1.39276 3.67921 0
M  V30 10860 H 1008.89 0.96575 4.86711 0
M  V30 10861 N 1008.06 -1.15214 1.07534 0
M  V30 10862 C 1009.01 -2.18022 0.667108 0
M  V30 10863 C 1010 -1.57911 -0.308714 0
M  V30 10864 O 1011.19 -1.76578 -0.122147 0
M  V30 10865 C 1008.32 -3.43232 0.0684348 0
M  V30 10866 C 1007.41 -4.10393 1.06951 0
M  V30 10867 N 1007.8 -4.53013 2.24973 0
M  V30 10868 C 1006.09 -4.36758 0.903262 0
M  V30 10869 C 1006.8 -5.05118 2.88498 0
M  V30 10870 N 1005.77 -4.98777 2.16153 0
M  V30 10871 H 1009.57 -2.48706 1.56597 0
M  V30 10872 H 1007.09 -1.31801 0.948796 0
M  V30 10873 H 1009.08 -4.16197 -0.241934 0
M  V30 10874 H 1007.74 -3.14031 -0.825525 0
M  V30 10875 H 1008.76 -4.4634 2.6268 0
M  V30 10876 H 1005.43 -4.17453 0.0623543 0
M  V30 10877 H 1006.82 -5.48039 3.8872 0
M  V30 10878 N 1009.54 -0.859717 -1.32086 0
M  V30 10879 C 1010.51 -0.313005 -2.27053 0
M  V30 10880 C 1011.51 0.530191 -1.51808 0
M  V30 10881 O 1012.7 0.340972 -1.7083 0
M  V30 10882 C 1009.83 0.5566 -3.36325 0
M  V30 10883 H 1011.02 -1.15125 -2.76923 0
M  V30 10884 H 1008.57 -0.634463 -1.42843 0
M  V30 10885 H 1009.31 1.41645 -2.91731 0
M  V30 10886 H 1009.09 -0.0470197 -3.92072 0
M  V30 10887 H 1010.58 0.931725 -4.07073 0
M  V30 10888 N 1011.02 1.44971 -0.618145 0
M  V30 10889 C 1011.97 2.32354 0.106846 0
M  V30 10890 C 1012.96 1.4659 0.848984 0
M  V30 10891 O 1014.17 1.63012 0.763354 0
M  V30 10892 H 1010.54 0.750108 0.0533109 0
M  V30 10893 H 1012.51 2.9127 -0.648426 0
M  V30 10894 C 1011.26 3.30381 1.08368 0
M  V30 10895 H 1010.59 3.96377 0.52205 0
M  V30 10896 H 1012.03 3.94231 1.56069 0
M  V30 10897 C 1010.49 2.58336 2.1625 0
M  V30 10898 O 1011.02 2.37258 3.24148 0
M  V30 10899 N 1009.22 2.18292 1.91825 0
M  V30 10900 H 1008.77 2.35635 1.04086 0
M  V30 10901 H 1008.73 1.70413 2.6421 0
M  V30 10902 N 1012.5 0.357919 1.53482 0
M  V30 10903 C 1013.75 -0.2337 2.00744 0
M  V30 10904 C 1014.07 -1.49908 1.2471 0
M  V30 10905 O 1013.34 -1.92597 0.358235 0
M  V30 10906 H 1011.92 -0.0893474 0.741637 0
M  V30 10907 H 1014.58 0.482388 1.88836 0
M  V30 10908 H 1013.68 -0.466073 3.086 0
M  V30 10909 N 1013.98 -1.5736 0.0868897 0
M  V30 10910 C 1015.22 -1.94341 -0.579598 0
M  V30 10911 C 1015.56 -0.968238 -1.68341 0
M  V30 10912 O 1014.83 8.29649e-05 -1.945 0
M  V30 10913 C 1015.11 -3.41497 -1.14245 0
M  V30 10914 C 1014.97 -4.49778 -0.044255 0
M  V30 10915 C 1016.29 -3.89788 -2.04336 0
M  V30 10916 H 1013.4 -0.70668 -0.20922 0
M  V30 10917 H 1016.05 -1.89359 0.15593 0
M  V30 10918 H 1014.2 -3.45873 -1.76929 0
M  V30 10919 H 1015.87 -4.57517 0.58959 0
M  V30 10920 H 1014.11 -4.293 0.623207 0
M  V30 10921 H 1014.78 -5.4992 -0.478749 0
M  V30 10922 H 1017.26 -3.87513 -1.51569 0
M  V30 10923 H 1016.13 -4.93335 -2.40648 0
M  V30 10924 H 1016.4 -3.28603 -2.95757 0
M  V30 10925 N 1015.45 0.186762 -1.56489 0
M  V30 10926 C 1016.87 0.750675 -1.70944 0
M  V30 10927 C 1017.22 1.83483 -0.694858 0
M  V30 10928 O 1016.34 2.159 0.147009 0
M  V30 10929 C 1016.94 1.36843 -3.09934 0
M  V30 10930 C 1015.5 1.87934 -3.26125 0
M  V30 10931 C 1014.64 0.75242 -2.66897 0
M  V30 10932 H 1017.59 -0.0384292 -1.58653 0
M  V30 10933 H 1017.61 2.23795 -3.07727 0
M  V30 10934 H 1017.13 0.579135 -3.83755 0
M  V30 10935 H 1015.23 2.69556 -2.57235 0
M  V30 10936 H 1015.34 2.0354 -4.33715 0
M  V30 10937 H 1013.7 1.16888 -2.26295 0
M  V30 10938 H 1014.49 -0.0247769 -3.43291 0
M  V30 10939 N 1016.93 1.50896 0.454776 0
M  V30 10940 C 1017.84 1.73762 1.5762 0
M  V30 10941 C 1018.86 0.621206 1.62533 0
M  V30 10942 O 1020.03 0.901449 1.801 0
M  V30 10943 C 1017.1 1.84183 2.9373 0
M  V30 10944 C 1016.16 3.07982 2.99075 0
M  V30 10945 C 1015.39 3.17896 4.28693 0
M  V30 10946 O 1015.62 2.34184 5.20109 0
M  V30 10947 O 1014.55 4.10749 4.39964 0
M  V30 10948 H 1018.38 2.68856 1.41245 0
M  V30 10949 H 1015.96 1.35187 0.635984 0
M  V30 10950 H 1017.84 1.93123 3.74542 0
M  V30 10951 H 1016.52 0.922742 3.10269 0
M  V30 10952 H 1015.43 3.04531 2.17282 0
M  V30 10953 H 1016.76 3.99523 2.87476 0
M  V30 10954 N 1018.41 -0.709066 1.40748 0
M  V30 10955 C 1019.82 -1.28847 1.35112 0
M  V30 10956 C 1020.17 -1.9618 0.0277149 0
M  V30 10957 O 1019.3 -1.97955 -0.874233 0
M  V30 10958 C 1019.89 -2.34306 2.44716 0
M  V30 10959 C 1018.45 -2.87856 2.4252 0
M  V30 10960 C 1017.6 -1.61723 2.25257 0
M  V30 10961 H 1020.55 -0.504742 1.50459 0
M  V30 10962 H 1020.57 -3.15297 2.12998 0
M  V30 10963 H 1020.08 -1.85271 3.41022 0
M  V30 10964 H 1018.18 -3.41103 1.49931 0
M  V30 10965 H 1018.3 -3.39205 3.38344 0
M  V30 10966 H 1016.66 -1.87032 1.7289 0
M  V30 10967 H 1017.44 -1.14703 3.23571 0
M  V30 10968 N 1019.89 -1.26353 -0.941956 0
M  V30 10969 C 1020.82 -1.03634 -2.04432 0
M  V30 10970 C 1021.83 0.00295864 -1.628 0
M  V30 10971 O 1023.02 -0.237029 -1.76919 0
M  V30 10972 C 1020.12 -0.547231 -3.34453 0
M  V30 10973 C 1019.3 -1.65559 -4.04857 0
M  V30 10974 C 1018.36 -1.16466 -5.13149 0
M  V30 10975 O 1017.38 -1.86158 -5.37898 0
M  V30 10976 N 1018.58 -0.0126703 -5.80499 0
M  V30 10977 H 1021.35 -1.98558 -2.24488 0
M  V30 10978 H 1018.91 -1.17728 -1.11138 0
M  V30 10979 H 1020.9 -0.203004 -4.04191 0
M  V30 10980 H 1019.47 0.308401 -3.11075 0
M  V30 10981 H 1018.69 -2.17079 -3.29044 0
M  V30 10982 H 1019.98 -2.39985 -4.48647 0
M  V30 10983 H 1019.38 0.569358 -5.62828 0
M  V30 10984 H 1017.93 0.272486 -6.5123 0
M  V30 10985 N 1021.37 1.14642 -1.08144 0
M  V30 10986 C 1022.62 1.84964 -0.804437 0
M  V30 10987 C 1022.93 1.8369 0.672106 0
M  V30 10988 O 1024.14 2.49775 1.06417 0
M  V30 10989 C 1022.59 3.32015 -1.38904 0
M  V30 10990 C 1022.2 3.41713 -2.89718 0
M  V30 10991 C 1023.94 4.07467 -1.19041 0
M  V30 10992 C 1021.85 4.82958 -3.41329 0
M  V30 10993 H 1020.78 0.692932 -0.297256 0
M  V30 10994 H 1023.43 1.29255 -1.30251 0
M  V30 10995 H 1021.81 3.87445 -0.818679 0
M  V30 10996 H 1022.99 2.96347 -3.52867 0
M  V30 10997 H 1021.3 2.79713 -3.08463 0
M  V30 10998 H 1023.9 5.1172 -1.55069 0
M  V30 10999 H 1024.24 4.16097 -0.130027 0
M  V30 11000 H 1024.78 3.58329 -1.72757 0
M  V30 11001 H 1021.51 4.79515 -4.46929 0
M  V30 11002 H 1021.03 5.28873 -2.82937 0
M  V30 11003 H 1022.71 5.51841 -3.37759 0
M  V30 11004 N 1022.85 0.866709 1.31628 0
M  V30 11005 C 1024.07 0.49039 2.01004 0
M  V30 11006 C 1024.49 -0.916244 1.65077 0
M  V30 11007 O 1023.85 -1.59975 0.8783 0
M  V30 11008 C 1023.9 0.634011 3.55897 0
M  V30 11009 O 1023.62 1.98525 3.90537 0
M  V30 11010 C 1025.12 0.258277 4.42547 0
M  V30 11011 H 1022.34 0.191421 0.643117 0
M  V30 11012 H 1024.88 1.16698 1.67934 0
M  V30 11013 H 1023.04 0.00501801 3.874 0
M  V30 11014 H 1023.45 1.99067 4.85255 0
M  V30 11015 H 1024.93 0.409733 5.50477 0
M  V30 11016 H 1025.4 -0.802301 4.3181 0
M  V30 11017 H 1026.01 0.862837 4.16456 0
M  V30 11018 N 1024.32 -1.44642 0.625825 0
M  V30 11019 C 1025.57 -2.02939 0.13689 0
M  V30 11020 C 1025.92 -1.48308 -1.22566 0
M  V30 11021 O 1025.22 -0.655458 -1.8004 0
M  V30 11022 C 1025.41 -3.57352 0.0584381 0
M  V30 11023 C 1025.24 -4.26963 1.41184 0
M  V30 11024 C 1024.01 -4.64153 1.99725 0
M  V30 11025 C 1026.21 -4.5775 2.34455 0
M  V30 11026 N 1024.19 -5.18706 3.28356 0
M  V30 11027 C 1025.56 -5.1333 3.47696 0
M  V30 11028 C 1027.62 -4.39699 2.336 0
M  V30 11029 C 1026.32 -5.5276 4.60271 0
M  V30 11030 C 1028.35 -4.80173 3.45235 0
M  V30 11031 C 1027.71 -5.35862 4.572 0
M  V30 11032 H 1023.81 -0.776343 0.0938879 0
M  V30 11033 H 1026.39 -1.76209 0.828162 0
M  V30 11034 H 1024.56 -3.83705 -0.6021 0
M  V30 11035 H 1026.29 -4.02314 -0.438835 0
M  V30 11036 H 1023.05 -4.48298 1.52728 0
M  V30 11037 H 1023.47 -5.50464 3.94105 0
M  V30 11038 H 1028.11 -3.95942 1.48289 0
M  V30 11039 H 1025.83 -5.95473 5.46294 0
M  V30 11040 H 1029.42 -4.67924 3.45743 0
M  V30 11041 H 1028.3 -5.66602 5.42154 0
M  V30 11042 N 1025.8 -0.366053 -1.5329 0
M  V30 11043 C 1027.05 0.223493 -2.01263 0
M  V30 11044 C 1027.38 1.48736 -1.25331 0
M  V30 11045 O 1026.63 1.92805 -0.335341 0
M  V30 11046 C 1026.93 0.560906 -3.52971 0
M  V30 11047 C 1026.6 -0.60869 -4.46773 0
M  V30 11048 C 1025.26 -0.929609 -4.72135 0
M  V30 11049 C 1027.61 -1.39225 -5.02261 0
M  V30 11050 C 1024.94 -2.03606 -5.50238 0
M  V30 11051 C 1027.29 -2.48912 -5.81572 0
M  V30 11052 C 1025.95 -2.81538 -6.05221 0
M  V30 11053 H 1025.22 0.0817818 -0.736473 0
M  V30 11054 H 1027.87 -0.498613 -1.84895 0
M  V30 11055 H 1026.18 1.36403 -3.67289 0
M  V30 11056 H 1027.87 1.02931 -3.87564 0
M  V30 11057 H 1024.46 -0.348529 -4.27181 0
M  V30 11058 H 1028.65 -1.15757 -4.82612 0
M  V30 11059 H 1023.9 -2.29281 -5.6678 0
M  V30 11060 H 1028.08 -3.10044 -6.23575 0
M  V30 11061 H 1025.7 -3.67396 -6.65525 0
M  V30 11062 N 1027.28 1.57312 -0.0952337 0
M  V30 11063 C 1028.23 2.14032 0.863657 0
M  V30 11064 C 1029.2 1.0589 1.27971 0
M  V30 11065 O 1030.38 1.33678 1.36143 0
M  V30 11066 C 1027.52 2.72513 2.11733 0
M  V30 11067 C 1026.63 3.94887 1.7518 0
M  V30 11068 C 1025.77 4.41533 2.95334 0
M  V30 11069 C 1024.81 5.56496 2.54908 0
M  V30 11070 N 1023.95 5.97993 3.67897 0
M  V30 11071 H 1028.79 2.95655 0.373115 0
M  V30 11072 H 1026.32 1.46085 0.172497 0
M  V30 11073 H 1028.28 3.04539 2.85153 0
M  V30 11074 H 1026.91 1.93618 2.58287 0
M  V30 11075 H 1025.96 3.69175 0.917279 0
M  V30 11076 H 1027.27 4.78322 1.41455 0
M  V30 11077 H 1026.43 4.75343 3.77007 0
M  V30 11078 H 1025.17 3.56999 3.3227 0
M  V30 11079 H 1024.17 5.22314 1.71662 0
M  V30 11080 H 1025.4 6.42779 2.19117 0
M  V30 11081 H 1023.34 5.16405 4.04551 0
M  V30 11082 H 1023.26 6.76225 3.38018 0
M  V30 11083 H 1024.53 6.36434 4.5008 0
M  V30 11084 N 1028.76 -0.17846 1.56586 0
M  V30 11085 C 1029.71 -1.24042 1.96765 0
M  V30 11086 C 1030.7 -1.46218 0.855375 0
M  V30 11087 O 1031.91 -1.46882 1.04046 0
M  V30 11088 H 1028.28 -0.416807 0.62592 0
M  V30 11089 H 1030.25 -0.874644 2.85294 0
M  V30 11090 C 1029 -2.57394 2.3376 0
M  V30 11091 H 1028.32 -2.41151 3.18883 0
M  V30 11092 H 1029.76 -3.30405 2.65723 0
M  V30 11093 C 1028.22 -3.15621 1.17835 0
M  V30 11094 O 1028.75 -3.99032 0.462202 0
M  V30 11095 N 1026.96 -2.74606 0.950783 0
M  V30 11096 H 1026.51 -2.06878 1.5349 0
M  V30 11097 H 1026.46 -3.13902 0.176967 0
M  V30 11098 N 1030.24 -1.51135 -0.446768 0
M  V30 11099 C 1031.18 -1.72328 -1.56224 0
M  V30 11100 C 1032.18 -0.589411 -1.58815 0
M  V30 11101 O 1033.38 -0.770554 -1.62673 0
M  V30 11102 H 1029.76 -0.544339 -0.518844 0
M  V30 11103 H 1031.73 -2.65851 -1.3552 0
M  V30 11104 C 1030.48 -1.85686 -2.93966 0
M  V30 11105 H 1029.8 -2.72336 -2.927 0
M  V30 11106 H 1031.24 -2.0453 -3.71407 0
M  V30 11107 C 1029.7 -0.614328 -3.31252 0
M  V30 11108 O 1030.23 0.235369 -4.0101 0
M  V30 11109 N 1028.44 -0.461181 -2.86917 0
M  V30 11110 H 1027.98 -1.15369 -2.30321 0
M  V30 11111 H 1027.94 0.368966 -3.12227 0
M  V30 11112 N 1031.71 0.701592 -1.41122 0
M  V30 11113 C 1032.66 1.80755 -1.38966 0
M  V30 11114 C 1033.65 1.58703 -0.264964 0
M  V30 11115 O 1034.84 1.69638 -0.505168 0
M  V30 11116 C 1031.97 3.1901 -1.26836 0
M  V30 11117 C 1031.05 3.46777 -2.44144 0
M  V30 11118 N 1031.45 3.45278 -3.69617 0
M  V30 11119 C 1029.74 3.77299 -2.37826 0
M  V30 11120 C 1030.44 3.71782 -4.47385 0
M  V30 11121 N 1029.42 3.91228 -3.77415 0
M  V30 11122 H 1033.22 1.7795 -2.33904 0
M  V30 11123 H 1030.74 0.901325 -1.35092 0
M  V30 11124 H 1032.73 3.98227 -1.23373 0
M  V30 11125 H 1031.39 3.23031 -0.328777 0
M  V30 11126 H 1032.4 3.258 -4.02585 0
M  V30 11127 H 1029.08 3.88727 -1.52309 0
M  V30 11128 H 1030.47 3.7681 -5.56295 0
M  V30 11129 N 1033.19 1.2685 0.935242 0
M  V30 11130 C 1034.14 1.08923 2.03481 0
M  V30 11131 C 1035.11 -0.00749786 1.66098 0
M  V30 11132 O 1036.29 0.153401 1.90182 0
M  V30 11133 C 1033.43 0.734529 3.37192 0
M  V30 11134 C 1032.55 1.90812 3.87576 0
M  V30 11135 C 1031.68 1.49599 5.097 0
M  V30 11136 C 1030.72 2.63752 5.5236 0
M  V30 11137 N 1029.86 2.23179 6.65684 0
M  V30 11138 H 1034.7 2.03016 2.18148 0
M  V30 11139 H 1032.23 1.01072 1.06878 0
M  V30 11140 H 1034.19 0.509734 4.14074 0
M  V30 11141 H 1032.82 -0.169438 3.22355 0
M  V30 11142 H 1031.87 2.24567 3.0704 0
M  V30 11143 H 1033.19 2.7647 4.1517 0
M  V30 11144 H 1032.34 1.23199 5.9406 0
M  V30 11145 H 1031.08 0.61039 4.83865 0
M  V30 11146 H 1030.08 2.90874 4.66554 0
M  V30 11147 H 1031.31 3.5292 5.80193 0
M  V30 11148 H 1029.26 1.37061 6.41522 0
M  V30 11149 H 1029.17 3.02379 6.92895 0
M  V30 11150 H 1030.44 2.00007 7.53404 0
M  V30 11151 N 1034.67 -1.14067 1.0875 0
M  V30 11152 C 1035.92 -1.84535 0.814235 0
M  V30 11153 C 1036.23 -1.84044 -0.662355 0
M  V30 11154 O 1037.44 -2.50336 -1.05091 0
M  V30 11155 C 1035.89 -3.31273 1.40663 0
M  V30 11156 C 1035.5 -3.40171 2.91526 0
M  V30 11157 C 1037.25 -4.0683 1.21201 0
M  V30 11158 C 1035.15 -4.81141 3.43885 0
M  V30 11159 H 1034.08 -0.691346 0.300926 0
M  V30 11160 H 1036.73 -1.28562 1.30935 0
M  V30 11161 H 1035.12 -3.87005 0.839215 0
M  V30 11162 H 1036.29 -2.94471 3.54434 0
M  V30 11163 H 1034.61 -2.78073 3.09942 0
M  V30 11164 H 1037.2 -5.10891 1.57781 0
M  V30 11165 H 1037.55 -4.16022 0.152092 0
M  V30 11166 H 1038.08 -3.57408 1.74655 0
M  V30 11167 H 1034.82 -4.77138 4.49466 0
M  V30 11168 H 1034.34 -5.27365 2.85738 0
M  V30 11169 H 1036.02 -5.50042 3.40681 0
M  V30 11170 N 1036.15 -0.873678 -1.31166 0
M  V30 11171 C 1037.08 -0.289389 -2.27366 0
M  V30 11172 C 1038.09 0.549667 -1.5324 0
M  V30 11173 O 1039.28 0.371056 -1.74601 0
M  V30 11174 C 1036.38 0.60807 -3.334 0
M  V30 11175 C 1035.56 -0.199379 -4.36945 0
M  V30 11176 C 1034.61 0.626798 -5.22454 0
M  V30 11177 O 1033.64 0.0535121 -5.69175 0
M  V30 11178 N 1034.84 1.93809 -5.47191 0
M  V30 11179 H 1037.61 -1.1161 -2.78143 0
M  V30 11180 H 1035.17 -0.735529 -1.44228 0
M  V30 11181 H 1037.16 1.16656 -3.87522 0
M  V30 11182 H 1035.73 1.33545 -2.82638 0
M  V30 11183 H 1034.95 -0.939316 -3.82845 0
M  V30 11184 H 1036.24 -0.75329 -5.03193 0
M  V30 11185 H 1035.64 2.42693 -5.10995 0
M  V30 11186 H 1034.19 2.44428 -6.04234 0
M  V30 11187 N 1037.63 1.44308 -0.633487 0
M  V30 11188 C 1038.56 2.28943 0.108474 0
M  V30 11189 C 1039.57 1.41415 0.806582 0
M  V30 11190 O 1040.76 1.65544 0.667634 0
M  V30 11191 C 1037.86 3.17845 1.1759 0
M  V30 11192 C 1037.03 4.33802 0.559842 0
M  V30 11193 C 1036.09 5.03722 1.52154 0
M  V30 11194 O 1035.12 5.5966 1.03776 0
M  V30 11195 N 1036.32 5.05392 2.85586 0
M  V30 11196 H 1039.09 2.93262 -0.617879 0
M  V30 11197 H 1036.65 1.54781 -0.474819 0
M  V30 11198 H 1038.64 3.61485 1.81963 0
M  V30 11199 H 1037.21 2.55261 1.80445 0
M  V30 11200 H 1036.43 3.93325 -0.262559 0
M  V30 11201 H 1037.72 5.08637 0.128942 0
M  V30 11202 H 1037.11 4.61282 3.27468 0
M  V30 11203 H 1035.67 5.52813 3.45313 0
M  V30 11204 N 1039.1 0.374177 1.53094 0
M  V30 11205 C 1040.01 -0.475935 2.29722 0
M  V30 11206 C 1041.03 -1.085 1.36029 0
M  V30 11207 O 1042.21 -1.09408 1.69091 0
M  V30 11208 C 1039.27 -1.59572 3.07795 0
M  V30 11209 C 1038.33 -1.01332 4.17169 0
M  V30 11210 C 1037.57 -2.07975 4.9151 0
M  V30 11211 O 1037.79 -3.29232 4.65793 0
M  V30 11212 O 1036.72 -1.7055 5.77232 0
M  V30 11213 H 1040.55 0.147877 3.0334 0
M  V30 11214 H 1038.13 0.138312 1.48758 0
M  V30 11215 H 1040.02 -2.24658 3.5652 0
M  V30 11216 H 1038.69 -2.20478 2.37005 0
M  V30 11217 H 1037.6 -0.326133 3.72676 0
M  V30 11218 H 1038.93 -0.4487 4.90151 0
M  V30 11219 N 1040.58 -1.57259 0.103575 0
M  V30 11220 C 1041.99 -1.81816 -0.424239 0
M  V30 11221 C 1042.34 -1.01976 -1.67617 0
M  V30 11222 O 1041.47 -0.251673 -2.14932 0
M  V30 11223 C 1042.06 -3.29783 -0.776453 0
M  V30 11224 C 1040.62 -3.55074 -1.24897 0
M  V30 11225 C 1039.77 -2.76172 -0.249875 0
M  V30 11226 H 1042.72 -1.55254 0.328913 0
M  V30 11227 H 1042.74 -3.43569 -1.63526 0
M  V30 11228 H 1042.25 -3.87865 0.134906 0
M  V30 11229 H 1040.36 -3.02332 -2.17775 0
M  V30 11230 H 1040.47 -4.637 -1.20495 0
M  V30 11231 H 1038.83 -2.43902 -0.733767 0
M  V30 11232 H 1039.62 -3.37007 0.65431 0
M  V30 11233 N 1042.06 0.170153 -1.56679 0
M  V30 11234 C 1043.31 0.884841 -1.817 0
M  V30 11235 C 1043.63 1.82731 -0.680763 0
M  V30 11236 O 1042.9 1.936 0.299294 0
M  V30 11237 H 1041.48 0.329738 -0.670285 0
M  V30 11238 H 1044.14 0.169691 -1.9416 0
M  V30 11239 H 1043.24 1.46104 -2.7579 0
M  V30 11240 N 1043.54 1.5137 0.438746 0
M  V30 11241 C 1044.79 1.63202 1.18524 0
M  V30 11242 C 1045.1 0.353408 1.92381 0
M  V30 11243 O 1046.31 0.351086 2.6922 0
M  V30 11244 C 1044.76 2.88218 2.15542 0
M  V30 11245 C 1044.37 4.23078 1.47339 0
M  V30 11246 C 1046.11 3.09407 2.90633 0
M  V30 11247 C 1044.02 5.39246 2.42833 0
M  V30 11248 H 1042.95 0.607864 0.446114 0
M  V30 11249 H 1045.6 1.77835 0.452421 0
M  V30 11250 H 1043.98 2.67216 2.92253 0
M  V30 11251 H 1045.16 4.54457 0.761964 0
M  V30 11252 H 1043.47 4.07755 0.844065 0
M  V30 11253 H 1046.07 3.9337 3.62165 0
M  V30 11254 H 1046.41 2.22428 3.51897 0
M  V30 11255 H 1046.95 3.30743 2.21029 0
M  V30 11256 H 1043.69 6.2848 1.8626 0
M  V30 11257 H 1043.21 5.12245 3.12034 0
M  V30 11258 H 1044.88 5.71137 3.03992 0
M  V30 11259 N 1045.02 -0.694098 1.41492 0
M  V30 11260 C 1046.27 -1.4498 1.40227 0
M  V30 11261 C 1046.58 -1.95594 0.0151253 0
M  V30 11262 O 1047.78 -2.71234 -0.120146 0
M  V30 11263 C 1046.24 -2.62171 2.46565 0
M  V30 11264 C 1045.85 -2.18337 3.91194 0
M  V30 11265 C 1047.59 -3.39796 2.54439 0
M  V30 11266 C 1045.5 -3.32495 4.89082 0
M  V30 11267 H 1044.43 -0.544584 0.521483 0
M  V30 11268 H 1047.08 -0.75337 1.67322 0
M  V30 11269 H 1045.46 -3.34089 2.12604 0
M  V30 11270 H 1046.64 -1.53698 4.34412 0
M  V30 11271 H 1044.95 -1.53702 3.86994 0
M  V30 11272 H 1047.55 -4.2478 3.24755 0
M  V30 11273 H 1047.89 -3.85082 1.5817 0
M  V30 11274 H 1048.42 -2.74935 2.87499 0
M  V30 11275 H 1045.16 -2.92219 5.86761 0
M  V30 11276 H 1044.68 -3.95978 4.50512 0
M  V30 11277 H 1046.36 -3.98251 5.09907 0
M  V30 11278 N 1046.49 -1.27344 -0.928501 0
M  V30 11279 C 1047.42 -1.12517 -2.04602 0
M  V30 11280 C 1048.41 -0.0268563 -1.70079 0
M  V30 11281 O 1049.59 -0.201197 -1.93155 0
M  V30 11282 C 1046.72 -0.770749 -3.3864 0
M  V30 11283 C 1045.67 -1.8222 -3.87272 0
M  V30 11284 C 1045 -1.32178 -5.18105 0
M  V30 11285 C 1046.3 -3.22614 -4.10752 0
M  V30 11286 H 1047.99 -2.06 -2.17265 0
M  V30 11287 H 1045.54 -0.991827 -1.04397 0
M  V30 11288 H 1047.49 -0.653843 -4.16297 0
M  V30 11289 H 1046.22 0.19979 -3.25988 0
M  V30 11290 H 1044.88 -1.928 -3.11807 0
M  V30 11291 H 1044.52 -0.340719 -5.01845 0
M  V30 11292 H 1044.22 -2.02474 -5.51614 0
M  V30 11293 H 1045.75 -1.2178 -5.98333 0
M  V30 11294 H 1047.16 -3.1504 -4.78981 0
M  V30 11295 H 1045.56 -3.90614 -4.55566 0
M  V30 11296 H 1046.63 -3.67727 -3.16077 0
M  V30 11297 N 1047.97 1.13488 -1.09353 0
M  V30 11298 C 1049.22 1.84383 -0.827488 0
M  V30 11299 C 1049.54 1.83892 0.648745 0
M  V30 11300 O 1048.81 1.29415 1.47066 0
M  V30 11301 H 1047.39 0.682732 -0.303127 0
M  V30 11302 H 1050.05 1.37477 -1.38152 0
M  V30 11303 H 1049.15 2.88919 -1.18035 0
M  V30 11304 N 1049.45 0.880621 1.30701 0
M  V30 11305 C 1050.86 0.547993 1.78477 0
M  V30 11306 C 1051.21 -0.935633 1.72454 0
M  V30 11307 O 1050.34 -1.73094 1.29874 0
M  V30 11308 C 1050.93 0.98795 3.24076 0
M  V30 11309 C 1049.49 0.706805 3.69704 0
M  V30 11310 C 1048.64 1.17335 2.51252 0
M  V30 11311 H 1051.59 1.06528 1.17633 0
M  V30 11312 H 1051.61 0.31508 3.79193 0
M  V30 11313 H 1051.12 2.06778 3.28427 0
M  V30 11314 H 1049.22 -0.36122 3.70845 0
M  V30 11315 H 1049.34 1.2913 4.6137 0
M  V30 11316 H 1047.7 0.592808 2.47705 0
M  V30 11317 H 1048.48 2.26083 2.58343 0
M  V30 11318 N 1050.93 -1.4397 0.641131 0
M  V30 11319 C 1052.18 -2.01548 0.149333 0
M  V30 11320 C 1052.5 -1.50759 -1.23679 0
M  V30 11321 O 1051.77 -0.715257 -1.82376 0
M  V30 11322 H 1050.35 -0.745173 0.0522161 0
M  V30 11323 H 1053.01 -1.7634 0.830082 0
M  V30 11324 H 1052.11 -3.11851 0.124676 0
M  V30 11325 N 1052.41 -0.382291 -1.52893 0
M  V30 11326 C 1053.63 0.204961 -2.06385 0
M  V30 11327 C 1054.06 1.40316 -1.25271 0
M  V30 11328 O 1053.42 1.79187 -0.275969 0
M  V30 11329 C 1053.46 0.560205 -3.56222 0
M  V30 11330 O 1052.57 1.65515 -3.77728 0
M  V30 11331 H 1051.91 0.0258798 -0.663495 0
M  V30 11332 H 1054.44 -0.547733 -1.97132 0
M  V30 11333 H 1054.45 0.826501 -3.99541 0
M  V30 11334 H 1053.12 -0.31584 -4.14699 0
M  V30 11335 H 1051.7 1.38311 -3.46301 0
M  V30 11336 N 1053.89 1.57202 -0.111913 0
M  V30 11337 C 1055.11 1.99723 0.559054 0
M  V30 11338 C 1055.54 0.990968 1.59879 0
M  V30 11339 O 1054.89 -0.038311 1.8126 0
M  V30 11340 C 1054.94 3.41151 1.16826 0
M  V30 11341 O 1054.05 3.43383 2.2839 0
M  V30 11342 H 1053.39 0.649004 0.140319 0
M  V30 11343 H 1055.92 2.03637 -0.198295 0
M  V30 11344 H 1055.93 3.79208 1.50551 0
M  V30 11345 H 1054.6 4.13907 0.406637 0
M  V30 11346 H 1053.18 3.17138 1.96158 0
M  V30 11347 N 1055.36 -0.161842 1.56767 0
M  V30 11348 C 1056.59 -0.892247 1.86672 0
M  V30 11349 C 1057.01 -1.75407 0.69841 0
M  V30 11350 O 1056.36 -1.7945 -0.332251 0
M  V30 11351 C 1056.41 -1.7612 3.15696 0
M  V30 11352 O 1056.14 -0.934131 4.28025 0
M  V30 11353 C 1057.64 -2.60046 3.59014 0
M  V30 11354 H 1054.86 -0.258747 0.619105 0
M  V30 11355 H 1057.4 -0.159089 2.0388 0
M  V30 11356 H 1055.56 -2.44759 3.00286 0
M  V30 11357 H 1055.97 -1.52931 5.01709 0
M  V30 11358 H 1057.44 -3.16618 4.5217 0
M  V30 11359 H 1057.92 -3.35374 2.83586 0
M  V30 11360 H 1058.53 -1.96724 3.77067 0
M  V30 11361 N 1056.84 -1.516 -0.430713 0
M  V30 11362 C 1057.77 -1.76342 -1.53054 0
M  V30 11363 C 1058.75 -0.61349 -1.58652 0
M  V30 11364 O 1059.94 -0.856888 -1.74273 0
M  V30 11365 C 1057.07 -1.8945 -2.91077 0
M  V30 11366 C 1056.02 -3.04928 -3.00339 0
M  V30 11367 C 1055.35 -3.03228 -4.40405 0
M  V30 11368 C 1056.65 -4.44777 -2.73808 0
M  V30 11369 H 1058.34 -2.68435 -1.326 0
M  V30 11370 H 1055.89 -1.29171 -0.636466 0
M  V30 11371 H 1057.84 -2.05343 -3.67984 0
M  V30 11372 H 1056.56 -0.940114 -3.12777 0
M  V30 11373 H 1055.22 -2.88751 -2.25872 0
M  V30 11374 H 1054.87 -2.05553 -4.59083 0
M  V30 11375 H 1054.57 -3.80776 -4.47531 0
M  V30 11376 H 1056.1 -3.21222 -5.19277 0
M  V30 11377 H 1057.51 -4.6127 -3.40445 0
M  V30 11378 H 1055.91 -5.2408 -2.92335 0
M  V30 11379 H 1056.98 -4.54358 -1.69372 0
M  V30 11380 N 1058.32 0.686584 -1.41858 0
M  V30 11381 C 1059.57 1.44665 -1.41698 0
M  V30 11382 C 1059.89 1.94478 -0.0292442 0
M  V30 11383 O 1059.15 1.70512 0.960421 0
M  V30 11384 C 1059.45 2.66793 -2.37816 0
M  V30 11385 C 1059.11 2.35587 -3.8446 0
M  V30 11386 C 1057.78 2.26788 -4.24406 0
M  V30 11387 C 1060.13 2.10028 -4.77009 0
M  V30 11388 C 1057.46 1.90538 -5.54898 0
M  V30 11389 C 1059.81 1.75285 -6.07831 0
M  V30 11390 C 1058.47 1.64987 -6.46789 0
M  V30 11391 H 1057.74 0.529367 -0.518509 0
M  V30 11392 H 1060.39 0.783938 -1.74719 0
M  V30 11393 H 1058.69 3.38041 -1.9808 0
M  V30 11394 H 1060.39 3.24953 -2.34961 0
M  V30 11395 H 1056.98 2.43334 -3.52826 0
M  V30 11396 H 1061.17 2.15766 -4.46944 0
M  V30 11397 H 1056.42 1.81125 -5.83955 0
M  V30 11398 H 1060.6 1.5453 -6.79039 0
M  V30 11399 H 1058.22 1.36667 -7.47814 0
M  V30 11400 N 1059.8 1.27835 0.921735 0
M  V30 11401 C 1061.05 1.13904 1.6646 0
M  V30 11402 C 1061.36 -0.313379 1.93073 0
M  V30 11403 O 1062.57 -0.573687 2.6537 0
M  V30 11404 C 1061.02 1.99064 2.99836 0
M  V30 11405 C 1060.63 3.48998 2.80899 0
M  V30 11406 C 1062.37 1.93797 3.77681 0
M  V30 11407 C 1060.28 4.26337 4.09867 0
M  V30 11408 H 1059.21 0.422681 0.624385 0
M  V30 11409 H 1061.86 1.52303 1.02352 0
M  V30 11410 H 1060.24 1.53514 3.65034 0
M  V30 11411 H 1061.42 4.02452 2.24431 0
M  V30 11412 H 1059.73 3.55707 2.16476 0
M  V30 11413 H 1062.33 2.48852 4.73262 0
M  V30 11414 H 1062.67 0.912928 4.06167 0
M  V30 11415 H 1063.21 2.37275 3.19289 0
M  V30 11416 H 1059.94 5.2939 3.86557 0
M  V30 11417 H 1059.46 3.77659 4.65976 0
M  V30 11418 H 1061.14 4.3583 4.78185 0
M  V30 11419 N 1061.28 -1.12907 1.09954 0
M  V30 11420 C 1062.19 -2.22082 0.756095 0
M  V30 11421 C 1063.2 -1.72277 -0.244272 0
M  V30 11422 O 1064.38 -2.01224 -0.0842637 0
M  V30 11423 C 1061.44 -3.46192 0.187642 0
M  V30 11424 C 1060.5 -4.10861 1.24465 0
M  V30 11425 C 1059.74 -5.29047 0.703227 0
M  V30 11426 O 1059.96 -5.68443 -0.472043 0
M  V30 11427 O 1058.89 -5.83904 1.46082 0
M  V30 11428 H 1062.72 -2.53842 1.66727 0
M  V30 11429 H 1060.3 -1.21145 0.874316 0
M  V30 11430 H 1062.19 -4.21212 -0.125774 0
M  V30 11431 H 1060.86 -3.16119 -0.696459 0
M  V30 11432 H 1059.77 -3.37643 1.61085 0
M  V30 11433 H 1061.1 -4.45078 2.10159 0
M  V30 11434 N 1062.75 -0.88754 -1.30232 0
M  V30 11435 C 1064.17 -0.581904 -1.48614 0
M  V30 11436 C 1064.37 0.879711 -1.81282 0
M  V30 11437 O 1063.43 1.66076 -1.90198 0
M  V30 11438 C 1064.74 -1.49726 -2.60773 0
M  V30 11439 C 1066.29 -1.50117 -2.74653 0
M  V30 11440 C 1066.76 -2.40251 -3.89927 0
M  V30 11441 N 1068.25 -2.38229 -3.97242 0
M  V30 11442 C 1068.99 -3.04682 -4.85754 0
M  V30 11443 N 1068.48 -3.80369 -5.79043 0
M  V30 11444 N 1070.28 -2.93901 -4.79144 0
M  V30 11445 H 1062.43 -1.83304 -1.073 0
M  V30 11446 H 1064.69 -0.78477 -0.531826 0
M  V30 11447 H 1064.4 -2.5381 -2.43462 0
M  V30 11448 H 1064.27 -1.20874 -3.57308 0
M  V30 11449 H 1066.66 -0.467832 -2.91368 0
M  V30 11450 H 1066.74 -1.83001 -1.7873 0
M  V30 11451 H 1066.38 -3.43671 -3.73969 0
M  V30 11452 H 1066.31 -2.04682 -4.85194 0
M  V30 11453 H 1068.8 -1.83229 -3.30508 0
M  V30 11454 H 1069.12 -4.28159 -6.4335 0
M  V30 11455 H 1067.46 -3.84477 -5.78967 0
M  V30 11456 H 1070.65 -2.34296 -4.05245 0
M  V30 11457 H 1070.83 -3.45967 -5.47915 0
M  V30 11458 N 1064.23 1.43628 -0.648757 0
M  V30 11459 C 1065.48 2.02163 -0.160574 0
M  V30 11460 C 1065.81 1.51037 1.22072 0
M  V30 11461 O 1065.09 0.701633 1.81404 0
M  V30 11462 C 1065.37 3.59715 -0.166528 0
M  V30 11463 C 1065.22 4.21083 -1.58142 0
M  V30 11464 C 1066.54 4.37256 0.499485 0
M  V30 11465 H 1063.66 0.734568 -0.0598238 0
M  V30 11466 H 1066.3 1.70981 -0.828592 0
M  V30 11467 H 1064.45 3.86411 0.402302 0
M  V30 11468 H 1066.12 4.05433 -2.2005 0
M  V30 11469 H 1064.37 3.77904 -2.13005 0
M  V30 11470 H 1065.04 5.30156 -1.53748 0
M  V30 11471 H 1067.51 4.16097 0.0155561 0
M  V30 11472 H 1066.39 5.4693 0.464574 0
M  V30 11473 H 1066.65 4.13175 1.57286 0
M  V30 11474 N 1065.71 0.390394 1.52688 0
M  V30 11475 C 1066.94 -0.191485 2.06012 0
M  V30 11476 C 1067.35 -1.40422 1.26202 0
M  V30 11477 O 1066.71 -1.79866 0.308963 0
M  V30 11478 C 1066.76 -0.560521 3.57128 0
M  V30 11479 O 1066.48 0.60404 4.33916 0
M  V30 11480 C 1067.98 -1.19814 4.26801 0
M  V30 11481 H 1065.2 -0.0286311 0.670389 0
M  V30 11482 H 1067.75 0.555939 1.96798 0
M  V30 11483 H 1065.9 -1.25784 3.66411 0
M  V30 11484 H 1066.32 0.300467 5.23639 0
M  V30 11485 H 1067.79 -1.40672 5.33775 0
M  V30 11486 H 1068.27 -2.16582 3.82085 0
M  V30 11487 H 1068.87 -0.541558 4.21838 0
M  V30 11488 N 1067.19 -1.57141 0.120249 0
M  V30 11489 C 1068.1 -2.18925 -0.843155 0
M  V30 11490 C 1069.11 -1.16575 -1.29175 0
M  V30 11491 O 1070.29 -1.4905 -1.35448 0
M  V30 11492 C 1067.36 -2.7775 -2.075 0
M  V30 11493 C 1066.42 -3.95139 -1.6782 0
M  V30 11494 C 1065.65 -4.51149 -2.85132 0
M  V30 11495 O 1065.87 -4.06056 -4.00593 0
M  V30 11496 O 1064.81 -5.41815 -2.62145 0
M  V30 11497 H 1068.63 -3.01707 -0.347357 0
M  V30 11498 H 1066.22 -1.49028 -0.105427 0
M  V30 11499 H 1068.1 -3.15243 -2.79643 0
M  V30 11500 H 1066.77 -1.97998 -2.56083 0
M  V30 11501 H 1065.68 -3.62412 -0.927807 0
M  V30 11502 H 1067.01 -4.7633 -1.23977 0
M  V30 11503 N 1068.67 0.153526 -1.5685 0
M  V30 11504 C 1069.58 1.20932 -2.01029 0
M  V30 11505 C 1070.59 1.47401 -0.924598 0
M  V30 11506 O 1071.77 1.592 -1.23359 0
M  V30 11507 C 1068.83 2.52438 -2.37647 0
M  V30 11508 C 1067.89 2.33673 -3.60132 0
M  V30 11509 C 1067.13 3.58909 -3.94994 0
M  V30 11510 O 1067.35 4.64823 -3.30599 0
M  V30 11511 O 1066.28 3.5196 -4.8827 0
M  V30 11512 H 1070.11 0.864273 -2.91143 0
M  V30 11513 H 1067.7 0.361755 -1.44954 0
M  V30 11514 H 1069.58 3.29981 -2.62088 0
M  V30 11515 H 1068.25 2.86486 -1.5069 0
M  V30 11516 H 1067.16 1.54102 -3.40886 0
M  V30 11517 H 1068.49 2.04544 -4.47686 0
M  V30 11518 N 1070.14 1.51827 0.422667 0
M  V30 11519 C 1071.42 1.55772 1.18299 0
M  V30 11520 C 1071.8 0.330657 2.08494 0
M  V30 11521 O 1071.15 -0.683373 2.18042 0
M  V30 11522 C 1071.36 2.87941 1.97208 0
M  V30 11523 C 1072.71 3.4044 2.53744 0
M  V30 11524 O 1073.73 2.8959 2.07403 0
M  V30 11525 O 1072.59 4.29201 3.38303 0
M  V30 11526 H 1069.68 0.626889 0.539388 0
M  V30 11527 H 1072.23 1.64147 0.430545 0
M  V30 11528 H 1071 3.68702 1.31052 0
M  V30 11529 H 1070.63 2.82795 2.79486 0
M  V30 11530 N 1071.62 -0.679052 1.4222 0
M  V30 11531 C 1072.53 -1.82221 1.47759 0
M  V30 11532 C 1073.55 -1.70092 0.3667 0
M  V30 11533 O 1074.72 -1.91718 0.616957 0
M  V30 11534 C 1071.79 -3.18332 1.37351 0
M  V30 11535 C 1070.85 -3.42449 2.58896 0
M  V30 11536 C 1070.08 -4.72067 2.48976 0
M  V30 11537 O 1070.31 -5.49683 1.5233 0
M  V30 11538 O 1069.24 -4.97333 3.39033 0
M  V30 11539 H 1073.07 -1.80504 2.44238 0
M  V30 11540 H 1070.65 -0.834251 1.23938 0
M  V30 11541 H 1072.53 -3.99563 1.33893 0
M  V30 11542 H 1071.21 -3.20696 0.439965 0
M  V30 11543 H 1070.12 -2.61083 2.6793 0
M  V30 11544 H 1071.45 -3.44912 3.51136 0
M  V30 11545 N 1073.1 -1.28322 -0.914942 0
M  V30 11546 C 1074.35 -1.15179 -1.66067 0
M  V30 11547 C 1074.67 0.300279 -1.92674 0
M  V30 11548 O 1073.94 1.20821 -1.54205 0
M  V30 11549 H 1072.52 -0.423264 -0.615513 0
M  V30 11550 H 1075.18 -1.61034 -1.09791 0
M  V30 11551 H 1074.28 -1.69048 -2.62353 0
M  V30 11552 N 1074.58 1.12322 -1.10551 0
M  V30 11553 C 1075.82 1.8413 -0.849932 0
M  V30 11554 C 1076.16 1.83938 0.622946 0
M  V30 11555 O 1075.43 1.28579 1.45937 0
M  V30 11556 C 1075.72 3.31751 -1.40048 0
M  V30 11557 C 1075.57 3.40391 -2.9403 0
M  V30 11558 C 1076.89 4.27543 -1.04379 0
M  V30 11559 H 1074.01 0.668533 -0.310213 0
M  V30 11560 H 1076.65 1.31766 -1.36886 0
M  V30 11561 H 1074.8 3.76475 -0.959102 0
M  V30 11562 H 1076.47 3.04294 -3.46703 0
M  V30 11563 H 1074.71 2.809 -3.30571 0
M  V30 11564 H 1075.38 4.44252 -3.27635 0
M  V30 11565 H 1077.86 3.90951 -1.42466 0
M  V30 11566 H 1076.74 5.2924 -1.4559 0
M  V30 11567 H 1077 4.42075 0.0466316 0
M  V30 11568 N 1076.06 0.894434 1.2976 0
M  V30 11569 C 1077.29 0.532143 1.99629 0
M  V30 11570 C 1077.69 -0.886234 1.6716 0
M  V30 11571 O 1077.04 -1.59573 0.910065 0
M  V30 11572 C 1077.1 0.638335 3.53787 0
M  V30 11573 C 1076.76 2.02273 4.09798 0
M  V30 11574 C 1077.76 2.99327 4.25087 0
M  V30 11575 C 1075.45 2.33069 4.44954 0
M  V30 11576 C 1077.44 4.25304 4.74758 0
M  V30 11577 C 1075.13 3.59289 4.94322 0
M  V30 11578 C 1076.12 4.55222 5.09178 0
M  V30 11579 O 1075.81 5.79202 5.57477 0
M  V30 11580 H 1075.54 0.203326 0.644697 0
M  V30 11581 H 1078.1 1.2043 1.6639 0
M  V30 11582 H 1076.33 -0.0908338 3.86593 0
M  V30 11583 H 1078.02 0.285956 4.04891 0
M  V30 11584 H 1078.78 2.76849 3.9822 0
M  V30 11585 H 1074.66 1.59162 4.32653 0
M  V30 11586 H 1078.21 5.00189 4.86269 0
M  V30 11587 H 1074.1 3.816 5.20626 0
M  V30 11588 H 1074.87 5.81717 5.75802 0
M  V30 11589 N 1077.53 -1.43282 0.656365 0
M  V30 11590 C 1078.48 -2.27932 -0.0557069 0
M  V30 11591 C 1079.47 -1.40075 -0.791698 0
M  V30 11592 O 1080.66 -1.6368 -0.673646 0
M  V30 11593 C 1077.79 -3.27821 -1.01923 0
M  V30 11594 C 1076.88 -4.23164 -0.281545 0
M  V30 11595 N 1077.27 -5.00882 0.703629 0
M  V30 11596 C 1075.56 -4.42928 -0.522558 0
M  V30 11597 C 1076.27 -5.70384 1.14177 0
M  V30 11598 N 1075.24 -5.41517 0.475394 0
M  V30 11599 H 1079.04 -2.85437 0.70022 0
M  V30 11600 H 1076.56 -1.55023 0.483902 0
M  V30 11601 H 1078.55 -3.87248 -1.54418 0
M  V30 11602 H 1077.21 -2.71878 -1.77518 0
M  V30 11603 H 1078.23 -5.06461 1.08247 0
M  V30 11604 H 1074.9 -3.98051 -1.25944 0
M  V30 11605 H 1076.29 -6.42765 1.95711 0
M  V30 11606 N 1079.01 -0.398486 -1.52479 0
M  V30 11607 C 1080.25 0.180412 -2.03602 0
M  V30 11608 C 1080.62 1.43276 -1.27812 0
M  V30 11609 O 1081.82 2.08941 -1.69107 0
M  V30 11610 C 1080.09 0.432744 -3.5477 0
M  V30 11611 S 1081.65 0.980612 -4.27703 0
M  V30 11612 H 1078.47 0.0499981 -0.70924 0
M  V30 11613 H 1081.07 -0.548952 -1.87635 0
M  V30 11614 H 1079.77 -0.48568 -4.07516 0
M  V30 11615 H 1079.3 1.19028 -3.74961 0
M  V30 11616 H 1081.32 2.26216 -4.41634 0
M  V30 11617 N 1080.49 1.57075 -0.12858 0
M  V30 11618 C 1081.44 2.15816 0.818064 0
M  V30 11619 C 1082.41 1.08581 1.25696 0
M  V30 11620 O 1083.59 1.36535 1.33277 0
M  V30 11621 C 1080.73 2.76943 2.05905 0
M  V30 11622 C 1079.85 3.98514 1.66764 0
M  V30 11623 C 1078.98 4.47698 2.85902 0
M  V30 11624 C 1078.02 5.61778 2.43047 0
M  V30 11625 N 1077.16 6.05662 3.5513 0
M  V30 11626 H 1082 2.9638 0.310318 0
M  V30 11627 H 1079.53 1.46418 0.141472 0
M  V30 11628 H 1081.49 3.10519 2.78629 0
M  V30 11629 H 1080.12 1.99053 2.54122 0
M  V30 11630 H 1079.17 3.71038 0.838766 0
M  V30 11631 H 1080.49 4.81215 1.31277 0
M  V30 11632 H 1079.64 4.83233 3.66839 0
M  V30 11633 H 1078.38 3.63967 3.24622 0
M  V30 11634 H 1077.38 5.25838 1.60544 0
M  V30 11635 H 1078.61 6.47282 2.05433 0
M  V30 11636 H 1076.56 5.2487 3.93506 0
M  V30 11637 H 1076.47 6.83242 3.23598 0
M  V30 11638 H 1077.74 6.45838 4.36479 0
M  V30 11639 N 1081.97 -0.145205 1.5693 0
M  V30 11640 C 1082.93 -1.16316 1.97492 0
M  V30 11641 C 1083.93 -1.35764 0.861668 0
M  V30 11642 O 1085.12 -1.32726 1.12825 0
M  V30 11643 C 1082.25 -2.52311 2.29242 0
M  V30 11644 H 1083.45 -0.815138 2.8861 0
M  V30 11645 H 1081 -0.38861 1.51392 0
M  V30 11646 H 1081.74 -2.92081 1.40922 0
M  V30 11647 H 1081.52 -2.39555 3.10412 0
M  V30 11648 H 1083.01 -3.25624 2.61456 0
M  V30 11649 N 1083.45 -1.52049 -0.414609 0
M  V30 11650 C 1084.68 -1.69679 -1.18392 0
M  V30 11651 C 1085.09 -0.403881 -1.84429 0
M  V30 11652 O 1084.45 0.619636 -1.71659 0
M  V30 11653 C 1084.5 -2.82855 -2.25112 0
M  V30 11654 O 1084.22 -4.07138 -1.61772 0
M  V30 11655 C 1085.72 -3.11948 -3.14965 0
M  V30 11656 H 1082.94 -0.56879 -0.355977 0
M  V30 11657 H 1085.48 -1.9858 -0.488505 0
M  V30 11658 H 1083.64 -2.56488 -2.90332 0
M  V30 11659 H 1084.05 -4.70163 -2.32479 0
M  V30 11660 H 1085.53 -3.94665 -3.85932 0
M  V30 11661 H 1086 -2.25276 -3.77024 0
M  V30 11662 H 1086.61 -3.40059 -2.55421 0
M  V30 11663 N 1084.93 0.6715 -1.42579 0
M  V30 11664 C 1085.87 1.80623 -1.46554 0
M  V30 11665 C 1086.87 1.65934 -0.340932 0
M  V30 11666 O 1088.07 1.72502 -0.514098 0
M  V30 11667 H 1084.45 0.595619 -0.459067 0
M  V30 11668 H 1086.42 1.74388 -2.42139 0
M  V30 11669 C 1085.17 3.18794 -1.38801 0
M  V30 11670 H 1084.49 3.30725 -2.24635 0
M  V30 11671 H 1085.93 3.98201 -1.45645 0
M  V30 11672 C 1084.39 3.36742 -0.103219 0
M  V30 11673 O 1084.92 3.92761 0.842715 0
M  V30 11674 N 1083.13 2.90594 -0.0193034 0
M  V30 11675 H 1082.67 2.45192 -0.78986 0
M  V30 11676 H 1082.63 3.0298 0.839686 0
M  V30 11677 N 1086.4 1.28806 0.908124 0
M  V30 11678 C 1087.34 1.09018 2.01613 0
M  V30 11679 C 1088.35 0.0402059 1.6275 0
M  V30 11680 O 1089.54 0.283853 1.76229 0
M  V30 11681 C 1086.64 0.635712 3.32884 0
M  V30 11682 C 1085.81 1.76235 4.00325 0
M  V30 11683 C 1084.87 1.3003 5.09881 0
M  V30 11684 O 1083.9 2.00354 5.32773 0
M  V30 11685 N 1085.1 0.166575 5.80261 0
M  V30 11686 H 1087.86 2.0444 2.19144 0
M  V30 11687 H 1085.42 1.20633 1.07978 0
M  V30 11688 H 1087.42 0.310097 4.0351 0
M  V30 11689 H 1085.99 -0.225816 3.11783 0
M  V30 11690 H 1085.21 2.25727 3.23173 0
M  V30 11691 H 1086.49 2.51796 4.42127 0
M  V30 11692 H 1085.89 -0.419934 5.64139 0
M  V30 11693 H 1084.45 -0.0997281 6.51724 0
M  V30 11694 N 1087.88 -1.11734 1.11145 0
M  V30 11695 C 1088.83 -2.17683 0.766979 0
M  V30 11696 C 1089.8 -1.64051 -0.260108 0
M  V30 11697 O 1090.98 -1.90302 -0.137723 0
M  V30 11698 C 1088.12 -3.44442 0.212982 0
M  V30 11699 C 1087.24 -4.12094 1.29626 0
M  V30 11700 C 1086.37 -5.26526 0.703127 0
M  V30 11701 C 1085.41 -5.86057 1.76647 0
M  V30 11702 N 1084.55 -6.91889 1.19306 0
M  V30 11703 H 1089.39 -2.46495 1.67465 0
M  V30 11704 H 1086.92 -1.21011 0.836353 0
M  V30 11705 H 1088.88 -4.17009 -0.126162 0
M  V30 11706 H 1087.51 -3.16025 -0.657888 0
M  V30 11707 H 1086.56 -3.37631 1.75241 0
M  V30 11708 H 1087.88 -4.52398 2.10089 0
M  V30 11709 H 1087.03 -6.05888 0.313859 0
M  V30 11710 H 1085.77 -4.87519 -0.132856 0
M  V30 11711 H 1084.77 -5.05375 2.16508 0
M  V30 11712 H 1086 -6.27132 2.60543 0
M  V30 11713 H 1083.95 -6.54906 0.378664 0
M  V30 11714 H 1083.86 -7.30832 1.93443 0
M  V30 11715 H 1085.13 -7.75062 0.830578 0
M  V30 11716 N 1089.36 -0.901303 -1.29284 0
M  V30 11717 C 1090.61 -0.527 -1.95108 0
M  V30 11718 C 1090.93 0.930065 -1.71391 0
M  V30 11719 O 1090.2 1.65601 -1.04658 0
M  V30 11720 H 1088.78 -0.191903 -0.721929 0
M  V30 11721 H 1091.44 -1.14795 -1.57506 0
M  V30 11722 H 1090.54 -0.710945 -3.03895 0
M  V30 11723 N 1090.84 1.42931 -0.663954 0
M  V30 11724 C 1092.06 2.06544 -0.188201 0
M  V30 11725 C 1092.49 1.495 1.14155 0
M  V30 11726 O 1091.85 0.609164 1.7076 0
M  V30 11727 C 1091.89 3.60393 -0.122105 0
M  V30 11728 O 1091 4.02176 0.91258 0
M  V30 11729 H 1090.34 0.656458 -0.0997967 0
M  V30 11730 H 1092.87 1.83253 -0.909909 0
M  V30 11731 H 1092.88 4.07959 0.0576568 0
M  V30 11732 H 1091.55 4.01287 -1.09276 0
M  V30 11733 H 1090.13 3.6618 0.704738 0
M  V30 11734 N 1092.32 0.406567 1.52266 0
M  V30 11735 C 1093.56 -0.170305 2.02084 0
M  V30 11736 C 1093.89 -1.45008 1.29176 0
M  V30 11737 O 1093.17 -1.90399 0.39731 0
M  V30 11738 C 1093.45 -0.420627 3.57635 0
M  V30 11739 C 1093.31 0.87564 4.41194 0
M  V30 11740 C 1094.62 -1.20387 4.23314 0
M  V30 11741 H 1091.74 -0.0604219 0.734519 0
M  V30 11742 H 1094.39 0.539529 1.82179 0
M  V30 11743 H 1092.54 -1.0253 3.74726 0
M  V30 11744 H 1094.21 1.51192 4.35819 0
M  V30 11745 H 1092.45 1.48718 4.07511 0
M  V30 11746 H 1093.12 0.654916 5.48101 0
M  V30 11747 H 1095.6 -0.691972 4.10306 0
M  V30 11748 H 1094.47 -1.34776 5.32096 0
M  V30 11749 H 1094.73 -2.2238 3.82099 0
M  V30 11750 N 1093.79 -1.57004 0.136909 0
M  V30 11751 C 1094.7 -2.19807 -0.819887 0
M  V30 11752 C 1095.72 -1.17939 -1.27932 0
M  V30 11753 O 1096.9 -1.50478 -1.3386 0
M  V30 11754 C 1093.96 -2.79935 -2.04542 0
M  V30 11755 C 1093.02 -3.96897 -1.6362 0
M  V30 11756 C 1092.26 -4.54148 -2.80331 0
M  V30 11757 O 1092.48 -4.10282 -3.96264 0
M  V30 11758 O 1091.41 -5.44565 -2.56384 0
M  V30 11759 H 1095.24 -3.02058 -0.315337 0
M  V30 11760 H 1092.82 -1.49131 -0.0896151 0
M  V30 11761 H 1094.71 -3.18191 -2.76283 0
M  V30 11762 H 1093.38 -2.00703 -2.53969 0
M  V30 11763 H 1092.29 -3.63376 -0.889316 0
M  V30 11764 H 1093.62 -4.77618 -1.18918 0
M  V30 11765 N 1095.27 0.136881 -1.57004 0
M  V30 11766 C 1096.5 0.866405 -1.88436 0
M  V30 11767 C 1096.92 1.73483 -0.727006 0
M  V30 11768 O 1096.28 1.78398 0.323094 0
M  V30 11769 C 1096.33 1.69059 -3.18514 0
M  V30 11770 O 1095.43 2.79584 -3.03161 0
M  V30 11771 H 1094.77 0.240709 -0.618834 0
M  V30 11772 H 1097.3 0.124653 -2.0422 0
M  V30 11773 H 1097.31 2.08353 -3.50789 0
M  V30 11774 H 1095.99 1.05296 -4.0235 0
M  V30 11775 H 1094.57 2.43623 -2.82315 0
M  V30 11776 N 1096.75 1.52266 0.40654 0
M  V30 11777 C 1097.98 1.70598 1.17945 0
M  V30 11778 C 1098.4 0.415793 1.83447 0
M  V30 11779 O 1097.76 -0.626968 1.70114 0
M  V30 11780 C 1097.81 2.84449 2.21633 0
M  V30 11781 O 1096.91 2.50199 3.27833 0
M  V30 11782 H 1096.25 0.567837 0.344177 0
M  V30 11783 H 1098.78 1.98981 0.476211 0
M  V30 11784 H 1098.79 3.09436 2.65919 0
M  V30 11785 H 1097.47 3.78055 1.73341 0
M  V30 11786 H 1096.04 2.35892 2.88807 0
M  V30 11787 N 1098.23 -0.663929 1.42933 0
M  V30 11788 C 1099.19 -1.75899 1.46943 0
M  V30 11789 C 1100.19 -1.5682 0.355535 0
M  V30 11790 O 1101.38 -1.62914 0.616833 0
M  V30 11791 C 1098.51 -3.14657 1.31164 0
M  V30 11792 H 1099.71 -1.73727 2.44456 0
M  V30 11793 H 1097.26 -0.874587 1.2954 0
M  V30 11794 H 1097.99 -3.22447 0.346165 0
M  V30 11795 H 1097.78 -3.29909 2.11902 0
M  V30 11796 H 1099.27 -3.9453 1.36878 0
M  V30 11797 N 1099.71 -1.29285 -0.901281 0
M  V30 11798 C 1100.94 -1.19874 -1.68267 0
M  V30 11799 C 1101.34 0.243387 -1.87628 0
M  V30 11800 O 1100.69 1.17497 -1.41209 0
M  V30 11801 C 1100.75 -1.83907 -3.08899 0
M  V30 11802 C 1100.41 -3.33198 -3.12775 0
M  V30 11803 C 1101.41 -4.29446 -2.9304 0
M  V30 11804 C 1099.1 -3.7437 -3.34892 0
M  V30 11805 C 1101.09 -5.64842 -2.95352 0
M  V30 11806 C 1098.78 -5.09888 -3.36834 0
M  V30 11807 C 1099.77 -6.04934 -3.17087 0
M  V30 11808 O 1099.46 -7.37979 -3.18815 0
M  V30 11809 H 1099.19 -0.416601 -0.532372 0
M  V30 11810 H 1101.75 -1.71154 -1.13558 0
M  V30 11811 H 1099.98 -1.27136 -3.65203 0
M  V30 11812 H 1101.67 -1.6884 -3.69118 0
M  V30 11813 H 1102.43 -3.9897 -2.75767 0
M  V30 11814 H 1098.31 -3.00846 -3.49303 0
M  V30 11815 H 1101.86 -6.39004 -2.79856 0
M  V30 11816 H 1097.75 -5.40009 -3.53638 0
M  V30 11817 H 1098.52 -7.46763 -3.35092 0
M  V30 11818 N 1101.18 1.11143 -1.11736 0
M  V30 11819 C 1102.11 2.19339 -0.800795 0
M  V30 11820 C 1103.1 1.68508 0.23221 0
M  V30 11821 O 1104.28 1.93967 0.0950063 0
M  V30 11822 C 1101.41 3.46424 -0.246579 0
M  V30 11823 C 1100.36 4.10487 -1.21181 0
M  V30 11824 C 1099.69 5.32183 -0.518158 0
M  V30 11825 C 1100.99 4.55052 -2.56368 0
M  V30 11826 H 1102.68 2.46077 -1.70548 0
M  V30 11827 H 1100.23 1.18271 -0.821454 0
M  V30 11828 H 1102.18 4.21398 -0.0128889 0
M  V30 11829 H 1100.91 3.19154 0.693415 0
M  V30 11830 H 1099.57 3.3751 -1.43118 0
M  V30 11831 H 1099.21 5.01187 0.426742 0
M  V30 11832 H 1098.91 5.75997 -1.16196 0
M  V30 11833 H 1100.44 6.09895 -0.293333 0
M  V30 11834 H 1101.85 5.21335 -2.38501 0
M  V30 11835 H 1100.25 5.0969 -3.16758 0
M  V30 11836 H 1101.32 3.68343 -3.1536 0
M  V30 11837 N 1102.66 0.908147 1.28804 0
M  V30 11838 C 1103.89 0.55409 1.99343 0
M  V30 11839 C 1104.31 -0.863262 1.67908 0
M  V30 11840 O 1103.66 -1.571 0.92875 0
M  V30 11841 C 1103.71 0.746916 3.537 0
M  V30 11842 O 1103.43 2.10849 3.84024 0
M  V30 11843 C 1104.94 0.398939 4.41501 0
M  V30 11844 H 1102.16 0.211784 0.636701 0
M  V30 11845 H 1104.7 1.21981 1.64137 0
M  V30 11846 H 1102.85 0.128264 3.87188 0
M  V30 11847 H 1103.27 2.14404 4.78676 0
M  V30 11848 H 1104.74 0.584656 5.48895 0
M  V30 11849 H 1105.22 -0.664517 4.34144 0
M  V30 11850 H 1105.83 0.994892 4.135 0
M  V30 11851 N 1104.14 -1.42577 0.671525 0
M  V30 11852 C 1105.39 -2.01882 0.192716 0
M  V30 11853 C 1105.72 -1.52959 -1.19654 0
M  V30 11854 O 1104.99 -0.730404 -1.80265 0
M  V30 11855 C 1105.28 -3.59404 0.223734 0
M  V30 11856 C 1105.13 -4.18514 1.64821 0
M  V30 11857 C 1106.45 -4.37996 -0.429858 0
M  V30 11858 H 1103.57 -0.733523 0.0715026 0
M  V30 11859 H 1106.21 -1.69641 0.855689 0
M  V30 11860 H 1104.36 -3.87003 -0.340776 0
M  V30 11861 H 1106.03 -4.01881 2.26472 0
M  V30 11862 H 1104.28 -3.74467 2.1899 0
M  V30 11863 H 1104.95 -5.27643 1.62162 0
M  V30 11864 H 1107.42 -4.16069 0.0506433 0
M  V30 11865 H 1106.3 -5.476 -0.377503 0
M  V30 11866 H 1106.56 -4.15625 -1.50693 0
M  V30 11867 N 1105.62 -0.414636 -1.52048 0
M  V30 11868 C 1106.55 0.443601 -2.24866 0
M  V30 11869 C 1107.56 1.00556 -1.28032 0
M  V30 11870 O 1108.75 0.903566 -1.53941 0
M  V30 11871 C 1105.85 1.63004 -2.97124 0
M  V30 11872 C 1105.03 1.191 -4.20873 0
M  V30 11873 C 1104.08 2.24497 -4.75907 0
M  V30 11874 O 1103.11 1.84861 -5.38345 0
M  V30 11875 N 1104.31 3.56727 -4.57959 0
M  V30 11876 H 1107.08 -0.180393 -2.99157 0
M  V30 11877 H 1104.64 -0.242305 -1.60077 0
M  V30 11878 H 1106.63 2.33089 -3.30835 0
M  V30 11879 H 1105.2 2.15984 -2.25986 0
M  V30 11880 H 1104.42 0.318059 -3.92915 0
M  V30 11881 H 1105.71 0.874699 -5.01225 0
M  V30 11882 H 1105.11 3.91675 -4.08175 0
M  V30 11883 H 1103.66 4.22772 -4.96092 0
M  V30 11884 N 1107.1 1.56929 -0.145233 0
M  V30 11885 C 1108.34 1.95681 0.50532 0
M  V30 11886 C 1108.67 1.03098 1.65516 0
M  V30 11887 O 1107.94 0.0921961 1.95683 0
M  V30 11888 H 1106.52 0.72252 0.189668 0
M  V30 11889 H 1109.18 1.93651 -0.220318 0
M  V30 11890 H 1108.27 2.99359 0.882631 0
M  V30 11891 N 1108.58 -0.128553 1.57075 0
M  V30 11892 C 1109.8 -0.85245 1.88523 0
M  V30 11893 C 1110.22 -1.73886 0.735459 0
M  V30 11894 O 1109.58 -1.80114 -0.294113 0
M  V30 11895 C 1109.63 -1.69384 3.19361 0
M  V30 11896 O 1109.35 -0.84313 4.2991 0
M  V30 11897 C 1110.85 -2.52373 3.64449 0
M  V30 11898 H 1108.07 -0.245556 0.624454 0
M  V30 11899 H 1110.61 -0.115807 2.04172 0
M  V30 11900 H 1108.77 -2.38335 3.0541 0
M  V30 11901 H 1109.18 -1.42255 5.0484 0
M  V30 11902 H 1110.66 -3.06955 4.58784 0
M  V30 11903 H 1111.13 -3.29283 2.90636 0
M  V30 11904 H 1111.74 -1.88681 3.81155 0
M  V30 11905 N 1110.05 -1.5248 -0.398459 0
M  V30 11906 C 1111.28 -1.71221 -1.17039 0
M  V30 11907 C 1111.7 -0.425515 -1.83224 0
M  V30 11908 O 1111.06 0.617938 -1.70444 0
M  V30 11909 C 1111.11 -2.8562 -2.20121 0
M  V30 11910 O 1110.21 -2.51934 -3.26501 0
M  V30 11911 H 1109.55 -0.569654 -0.34116 0
M  V30 11912 H 1112.08 -1.99231 -0.465652 0
M  V30 11913 H 1112.09 -3.10842 -2.64275 0
M  V30 11914 H 1110.77 -3.78969 -1.71334 0
M  V30 11915 H 1109.35 -2.3742 -2.87552 0
M  V30 11916 N 1111.53 0.65634 -1.43283 0
M  V30 11917 C 1112.81 1.41339 -1.35213 0
M  V30 11918 C 1113.19 2.111 0.00158494 0
M  V30 11919 O 1112.54 2.0457 1.018 0
M  V30 11920 C 1112.75 2.40066 -2.53317 0
M  V30 11921 C 1114.09 3.04159 -2.96264 0
M  V30 11922 O 1115.12 2.50393 -2.53341 0
M  V30 11923 O 1113.98 4.01633 -3.70612 0
M  V30 11924 H 1111.07 0.631325 -0.534189 0
M  V30 11925 H 1113.62 0.68351 -1.55326 0
M  V30 11926 H 1112.39 1.87444 -3.43483 0
M  V30 11927 H 1112.01 3.20509 -2.35287 0
M  V30 11928 N 1113.01 1.29761 0.894412 0
M  V30 11929 C 1113.96 1.15341 1.99912 0
M  V30 11930 C 1114.93 0.0453488 1.66038 0
M  V30 11931 O 1116.11 0.213829 1.89598 0
M  V30 11932 C 1113.25 0.841432 3.34685 0
M  V30 11933 C 1112.36 2.03046 3.81309 0
M  V30 11934 C 1111.5 1.65739 5.04682 0
M  V30 11935 C 1110.54 2.81191 5.43689 0
M  V30 11936 N 1109.68 2.44244 6.58247 0
M  V30 11937 H 1114.52 2.09854 2.11578 0
M  V30 11938 H 1112.05 1.04421 1.03608 0
M  V30 11939 H 1114.01 0.641211 4.12243 0
M  V30 11940 H 1112.64 -0.066797 3.22731 0
M  V30 11941 H 1111.69 2.34222 2.9974 0
M  V30 11942 H 1113 2.89538 4.06164 0
M  V30 11943 H 1112.16 1.42036 5.8984 0
M  V30 11944 H 1110.9 0.764019 4.81678 0
M  V30 11945 H 1109.9 3.0557 4.57064 0
M  V30 11946 H 1111.13 3.712 5.68672 0
M  V30 11947 H 1109.07 1.57402 6.36837 0
M  V30 11948 H 1108.99 3.24269 6.82924 0
M  V30 11949 H 1110.26 2.23875 7.46659 0
M  V30 11950 N 1114.49 -1.10549 1.12324 0
M  V30 11951 C 1115.71 -1.8681 0.900927 0
M  V30 11952 C 1116.14 -1.80049 -0.54443 0
M  V30 11953 O 1115.5 -1.16957 -1.38531 0
M  V30 11954 C 1115.54 -3.33197 1.37883 0
M  V30 11955 O 1114.65 -4.08628 0.556529 0
M  V30 11956 H 1113.99 -0.579709 0.32378 0
M  V30 11957 H 1116.52 -1.39678 1.49503 0
M  V30 11958 H 1116.53 -3.84047 1.37739 0
M  V30 11959 H 1115.2 -3.37435 2.43127 0
M  V30 11960 H 1113.78 -3.67627 0.62486 0
M  V30 11961 N 1115.97 -0.914965 -1.28321 0
M  V30 11962 C 1116.91 -0.394477 -2.29231 0
M  V30 11963 C 1117.91 0.514481 -1.61398 0
M  V30 11964 O 1119.11 0.395591 -1.75599 0
M  V30 11965 H 1115.49 -0.108969 -0.744063 0
M  V30 11966 H 1117.46 -1.25862 -2.70557 0
M  V30 11967 C 1116.21 0.349134 -3.45943 0
M  V30 11968 H 1115.53 -0.341087 -3.98342 0
M  V30 11969 H 1116.97 0.677944 -4.18545 0
M  V30 11970 C 1115.43 1.55747 -2.98738 0
M  V30 11971 O 1115.96 2.65654 -3.01315 0
M  V30 11972 N 1114.17 1.40488 -2.54384 0
M  V30 11973 H 1113.71 0.510716 -2.52487 0
M  V30 11974 H 1113.67 2.21464 -2.23161 0
M  V30 11975 N 1117.44 1.42219 -0.679077 0
M  V30 11976 C 1118.37 2.33493 -0.0174528 0
M  V30 11977 C 1119.35 1.50915 0.78477 0
M  V30 11978 O 1120.54 1.79504 0.741065 0
M  V30 11979 C 1117.67 3.34576 0.931463 0
M  V30 11980 C 1116.62 4.2734 0.237527 0
M  V30 11981 C 1115.95 5.18664 1.29967 0
M  V30 11982 C 1117.25 5.14729 -0.886082 0
M  V30 11983 H 1118.94 2.89068 -0.779748 0
M  V30 11984 H 1116.49 1.38993 -0.376419 0
M  V30 11985 H 1118.44 3.97343 1.40343 0
M  V30 11986 H 1117.17 2.77315 1.72523 0
M  V30 11987 H 1115.83 3.65973 -0.214245 0
M  V30 11988 H 1115.47 4.57727 2.08554 0
M  V30 11989 H 1115.17 5.81558 0.840463 0
M  V30 11990 H 1116.7 5.84308 1.77249 0
M  V30 11991 H 1118.11 5.71158 -0.495141 0
M  V30 11992 H 1116.51 5.86478 -1.27135 0
M  V30 11993 H 1117.58 4.52874 -1.733 0
M  V30 11994 N 1118.92 0.422693 1.51826 0
M  V30 11995 C 1119.83 -0.40261 2.31119 0
M  V30 11996 C 1120.85 -1.04117 1.39412 0
M  V30 11997 O 1122.02 -1.03973 1.72486 0
M  V30 11998 C 1119.09 -1.49699 3.12716 0
M  V30 11999 C 1118.15 -0.880088 4.20182 0
M  V30 12000 C 1117.38 -1.92232 4.97878 0
M  V30 12001 O 1117.61 -3.14246 4.76031 0
M  V30 12002 O 1116.54 -1.521 5.82365 0
M  V30 12003 H 1120.37 0.244308 3.02716 0
M  V30 12004 H 1117.95 0.185569 1.48243 0
M  V30 12005 H 1119.83 -2.13202 3.63487 0
M  V30 12006 H 1118.51 -2.12826 2.43899 0
M  V30 12007 H 1117.41 -0.207404 3.73525 0
M  V30 12008 H 1118.75 -0.292535 4.9133 0
M  V30 12009 N 1120.4 -1.5685 0.153553 0
M  V30 12010 C 1121.33 -2.20101 -0.779601 0
M  V30 12011 C 1122.31 -1.15121 -1.25225 0
M  V30 12012 O 1123.5 -1.43487 -1.30862 0
M  V30 12013 C 1120.63 -2.82778 -2.01628 0
M  V30 12014 C 1119.58 -3.93643 -1.68015 0
M  V30 12015 C 1118.91 -4.43286 -2.99001 0
M  V30 12016 C 1120.21 -5.14102 -0.921774 0
M  V30 12017 H 1121.9 -2.98334 -0.252432 0
M  V30 12018 H 1119.45 -1.43499 -0.119975 0
M  V30 12019 H 1121.4 -3.25696 -2.67395 0
M  V30 12020 H 1120.12 -2.01887 -2.56728 0
M  V30 12021 H 1118.78 -3.51354 -1.04624 0
M  V30 12022 H 1118.43 -3.59208 -3.52106 0
M  V30 12023 H 1118.13 -5.18068 -2.77272 0
M  V30 12024 H 1119.65 -4.88878 -3.65828 0
M  V30 12025 H 1121.07 -5.53823 -1.48167 0
M  V30 12026 H 1119.46 -5.94687 -0.804185 0
M  V30 12027 H 1120.53 -4.84825 0.0852757 0
M  V30 12028 N 1121.88 0.120221 -1.57141 0
M  V30 12029 C 1123.13 0.826791 -1.83976 0
M  V30 12030 C 1123.44 1.81102 -0.739014 0
M  V30 12031 O 1124.65 2.56368 -0.893736 0
M  V30 12032 C 1123.1 1.52108 -3.26176 0
M  V30 12033 C 1122.71 0.577902 -4.44257 0
M  V30 12034 C 1124.45 2.21286 -3.62261 0
M  V30 12035 C 1122.36 1.27535 -5.77485 0
M  V30 12036 H 1121.29 0.312508 -0.686189 0
M  V30 12037 H 1123.94 0.0795343 -1.83328 0
M  V30 12038 H 1122.32 2.31492 -3.2129 0
M  V30 12039 H 1123.5 -0.182629 -4.60438 0
M  V30 12040 H 1121.81 -0.00684348 -4.16399 0
M  V30 12041 H 1124.41 2.74154 -4.59068 0
M  V30 12042 H 1124.75 2.99029 -2.89634 0
M  V30 12043 H 1125.29 1.48791 -3.68925 0
M  V30 12044 H 1122.02 0.539237 -6.53278 0
M  V30 12045 H 1121.54 2.00792 -5.65192 0
M  V30 12046 H 1123.22 1.80888 -6.21199 0
M  V30 12047 N 1123.36 1.52689 0.390367 0
M  V30 12048 C 1124.58 1.71541 1.15678 0
M  V30 12049 C 1125 0.433171 1.83764 0
M  V30 12050 O 1124.36 -0.592248 1.72623 0
M  V30 12051 C 1124.41 2.864 2.20584 0
M  V30 12052 O 1124.13 4.0966 1.55274 0
M  V30 12053 C 1125.63 3.1692 3.09962 0
M  V30 12054 H 1122.85 0.574381 0.346883 0
M  V30 12055 H 1125.39 1.99332 0.456851 0
M  V30 12056 H 1123.55 2.61075 2.86214 0
M  V30 12057 H 1123.96 4.73802 2.2497 0
M  V30 12058 H 1125.44 4.00755 3.79604 0
M  V30 12059 H 1125.91 2.31245 3.73393 0
M  V30 12060 H 1126.52 3.4408 2.49979 0
M  V30 12061 N 1124.83 -0.648732 1.43629 0
M  V30 12062 C 1125.76 -1.77298 1.51947 0
M  V30 12063 C 1126.75 -1.65942 0.373785 0
M  V30 12064 O 1127.93 -1.8497 0.591596 0
M  V30 12065 C 1125.06 -3.15749 1.44638 0
M  V30 12066 C 1124.01 -3.41872 2.57502 0
M  V30 12067 C 1123.34 -4.8017 2.35246 0
M  V30 12068 C 1124.64 -3.36173 3.99731 0
M  V30 12069 H 1126.33 -1.70594 2.46045 0
M  V30 12070 H 1123.88 -0.819306 1.1842 0
M  V30 12071 H 1125.83 -3.94156 1.4906 0
M  V30 12072 H 1124.56 -3.23194 0.470466 0
M  V30 12073 H 1123.22 -2.65838 2.5244 0
M  V30 12074 H 1122.86 -4.84297 1.35887 0
M  V30 12075 H 1122.56 -4.9861 3.10906 0
M  V30 12076 H 1124.09 -5.6083 2.41459 0
M  V30 12077 H 1125.5 -4.0451 4.06257 0
M  V30 12078 H 1123.9 -3.66148 4.75453 0
M  V30 12079 H 1124.97 -2.34277 4.24549 0
M  V30 12080 N 1126.31 -1.30234 -0.887518 0
M  V30 12081 C 1127.54 -1.21829 -1.67229 0
M  V30 12082 C 1127.96 0.219251 -1.87523 0
M  V30 12083 O 1127.31 1.14526 -1.42091 0
M  V30 12084 C 1127.36 -1.94044 -3.05007 0
M  V30 12085 O 1127.08 -3.32185 -2.85631 0
M  V30 12086 C 1128.59 -1.92265 -3.99436 0
M  V30 12087 H 1125.81 -0.421716 -0.521916 0
M  V30 12088 H 1128.35 -1.71816 -1.10903 0
M  V30 12089 H 1126.5 -1.47861 -3.58072 0
M  V30 12090 H 1126.92 -3.68724 -3.73018 0
M  V30 12091 H 1128.39 -2.47336 -4.93486 0
M  V30 12092 H 1128.87 -0.900984 -4.29859 0
M  V30 12093 H 1129.48 -2.38247 -3.52305 0
M  V30 12094 N 1127.79 1.09952 -1.12909 0
M  V30 12095 C 1129.03 1.83635 -0.897646 0
M  V30 12096 C 1129.39 1.83462 0.566179 0
M  V30 12097 O 1130.6 2.52748 0.914977 0
M  V30 12098 C 1128.87 3.26095 -1.46277 0
M  V30 12099 S 1130.43 4.16846 -1.37059 0
M  V30 12100 H 1127.24 0.633045 -0.32369 0
M  V30 12101 H 1129.85 1.32275 -1.43957 0
M  V30 12102 H 1128.55 3.23793 -2.52163 0
M  V30 12103 H 1128.08 3.82526 -0.918549 0
M  V30 12104 H 1130.1 4.94996 -0.345399 0
M  V30 12105 N 1129.27 0.921757 1.27833 0
M  V30 12106 C 1130.5 0.575202 1.98744 0
M  V30 12107 C 1130.91 -0.845405 1.68815 0
M  V30 12108 O 1130.27 -1.56106 0.94536 0
M  V30 12109 C 1130.32 0.784389 3.52888 0
M  V30 12110 O 1130.04 2.1491 3.81766 0
M  V30 12111 C 1131.54 0.445744 4.41053 0
M  V30 12112 H 1128.76 0.218525 0.634419 0
M  V30 12113 H 1131.31 1.23715 1.62834 0
M  V30 12114 H 1129.46 0.169323 3.8703 0
M  V30 12115 H 1129.87 2.19469 4.76375 0
M  V30 12116 H 1131.35 0.64284 5.48244 0
M  V30 12117 H 1131.83 -0.618433 4.34824 0
M  V30 12118 H 1132.43 1.03869 4.12421 0
M  V30 12119 N 1130.75 -1.41857 0.686609 0
M  V30 12120 C 1131.99 -2.03236 0.217839 0
M  V30 12121 C 1132.35 -1.5317 -1.15771 0
M  V30 12122 O 1133.55 -2.06415 -1.72181 0
M  V30 12123 C 1131.82 -3.56428 0.263443 0
M  V30 12124 S 1133.38 -4.386 -0.132595 0
M  V30 12125 H 1130.2 -0.705472 0.088487 0
M  V30 12126 H 1132.8 -1.73428 0.902393 0
M  V30 12127 H 1131.51 -3.90362 1.26672 0
M  V30 12128 H 1131.04 -3.90925 -0.440556 0
M  V30 12129 H 1133.05 -4.77119 -1.3628 0
M  V30 12130 N 1132.22 -0.430739 -1.51599 0
M  V30 12131 C 1133.47 0.138133 -2.02329 0
M  V30 12132 C 1133.8 1.42934 -1.31466 0
M  V30 12133 O 1133.08 1.89743 -0.427551 0
M  V30 12134 C 1133.36 0.363677 -3.58259 0
M  V30 12135 C 1133.21 -0.94572 -4.39746 0
M  V30 12136 C 1134.53 1.13637 -4.25176 0
M  V30 12137 H 1131.65 0.0487287 -0.735387 0
M  V30 12138 H 1134.29 -0.568444 -1.81297 0
M  V30 12139 H 1132.44 0.965552 -3.7631 0
M  V30 12140 H 1134.12 -1.58107 -4.33359 0
M  V30 12141 H 1132.36 -1.55183 -4.05094 0
M  V30 12142 H 1133.03 -0.742031 -5.4699 0
M  V30 12143 H 1135.51 0.626608 -4.11355 0
M  V30 12144 H 1134.38 1.26294 -5.34173 0
M  V30 12145 H 1134.64 2.16273 -3.85588 0
M  V30 12146 N 1133.7 1.56767 -0.161869 0
M  V30 12147 C 1134.67 2.16299 0.758104 0
M  V30 12148 C 1135.67 1.10859 1.16478 0
M  V30 12149 O 1136.86 1.36422 1.08327 0
M  V30 12150 C 1133.99 2.73819 2.03067 0
M  V30 12151 H 1135.18 2.98938 0.239992 0
M  V30 12152 H 1132.73 1.56054 0.0876532 0
M  V30 12153 H 1133.47 1.94887 2.59209 0
M  V30 12154 H 1133.25 3.50974 1.74813 0
M  V30 12155 H 1134.74 3.19638 2.68741 0
M  V30 12156 N 1135.18 -0.111886 1.57202 0
M  V30 12157 C 1136.14 -1.12101 1.99915 0
M  V30 12158 C 1137.14 -1.33906 0.890272 0
M  V30 12159 O 1138.33 -1.30303 1.15615 0
M  V30 12160 C 1135.47 -2.47392 2.34543 0
M  V30 12161 H 1136.66 -0.753736 2.90274 0
M  V30 12162 H 1134.21 -0.35641 1.52182 0
M  V30 12163 H 1134.95 -2.89026 1.47086 0
M  V30 12164 H 1134.73 -2.32917 3.15423 0
M  V30 12165 H 1136.22 -3.20004 2.68304 0
M  V30 12166 N 1136.66 -1.52894 -0.382264 0
M  V30 12167 C 1137.89 -1.72152 -1.14766 0
M  V30 12168 C 1138.3 -0.442911 -1.83531 0
M  V30 12169 O 1137.66 0.583085 -1.72935 0
M  V30 12170 C 1137.71 -2.87566 -2.19062 0
M  V30 12171 O 1137.43 -4.10478 -1.53099 0
M  V30 12172 C 1138.93 -3.18559 -3.08277 0
M  V30 12173 H 1136.15 -0.576212 -0.343832 0
M  V30 12174 H 1138.7 -1.99571 -0.446273 0
M  V30 12175 H 1136.85 -2.62589 -2.84826 0
M  V30 12176 H 1137.26 -4.74989 -2.22454 0
M  V30 12177 H 1138.74 -4.02763 -3.77473 0
M  V30 12178 H 1139.22 -2.33222 -3.72161 0
M  V30 12179 H 1139.82 -3.454 -2.48151 0
M  V30 12180 N 1138.14 0.641106 -1.43971 0
M  V30 12181 C 1139.07 1.76489 -1.52885 0
M  V30 12182 C 1140.05 1.65742 -0.38258 0
M  V30 12183 O 1141.23 1.84653 -0.601397 0
M  V30 12184 C 1138.36 3.14977 -1.4631 0
M  V30 12185 C 1137.32 3.40502 -2.59311 0
M  V30 12186 C 1136.64 4.78916 -2.37789 0
M  V30 12187 C 1137.94 3.34048 -4.01509 0
M  V30 12188 H 1139.64 1.69286 -2.46946 0
M  V30 12189 H 1137.18 0.813015 -1.18853 0
M  V30 12190 H 1139.14 3.9336 -1.51149 0
M  V30 12191 H 1137.86 3.2294 -0.487599 0
M  V30 12192 H 1136.52 2.64495 -2.53846 0
M  V30 12193 H 1136.17 4.8357 -1.38454 0
M  V30 12194 H 1135.87 4.96954 -3.13545 0
M  V30 12195 H 1137.39 5.59541 -2.4443 0
M  V30 12196 H 1138.81 4.0235 -4.08396 0
M  V30 12197 H 1137.2 3.63622 -4.77388 0
M  V30 12198 H 1138.27 2.32022 -4.25786 0
M  V30 12199 N 1139.62 1.30703 0.880598 0
M  V30 12200 C 1140.86 1.19778 1.63277 0
M  V30 12201 C 1141.19 -0.246521 1.92931 0
M  V30 12202 O 1140.45 -1.19226 1.55189 0
M  V30 12203 C 1140.74 1.97628 2.97789 0
M  V30 12204 C 1140.41 3.47213 2.87669 0
M  V30 12205 C 1139.07 3.88004 2.84617 0
M  V30 12206 C 1141.42 4.4245 2.75477 0
M  V30 12207 C 1138.75 5.22315 2.67216 0
M  V30 12208 C 1141.1 5.76874 2.59614 0
M  V30 12209 C 1139.77 6.16898 2.54939 0
M  V30 12210 H 1139.04 0.438298 0.597475 0
M  V30 12211 H 1141.69 1.61853 1.02352 0
M  V30 12212 H 1139.99 1.48201 3.6269 0
M  V30 12213 H 1141.69 1.86563 3.54958 0
M  V30 12214 H 1138.28 3.14802 2.90857 0
M  V30 12215 H 1142.46 4.11875 2.76899 0
M  V30 12216 H 1137.72 5.52412 2.62014 0
M  V30 12217 H 1141.89 6.50304 2.49155 0
M  V30 12218 H 1139.52 7.20916 2.41214 0
M  V30 12219 N 1141.09 -1.09351 1.1349 0
M  V30 12220 C 1142.34 -1.81988 0.908397 0
M  V30 12221 C 1142.69 -1.84087 -0.559442 0
M  V30 12222 O 1141.99 -1.29866 -1.40873 0
M  V30 12223 C 1142.18 -3.27498 1.43108 0
M  V30 12224 C 1142.01 -3.39575 2.9482 0
M  V30 12225 C 1140.78 -3.51332 3.63172 0
M  V30 12226 C 1142.98 -3.3204 3.92752 0
M  V30 12227 N 1140.96 -3.521 5.02891 0
M  V30 12228 C 1142.33 -3.39686 5.18665 0
M  V30 12229 C 1144.39 -3.15712 3.85007 0
M  V30 12230 C 1143.09 -3.32686 6.3774 0
M  V30 12231 C 1145.12 -3.10038 5.03617 0
M  V30 12232 C 1144.48 -3.18277 6.28394 0
M  V30 12233 H 1140.58 -0.680196 0.385821 0
M  V30 12234 H 1143.16 -1.30683 1.44326 0
M  V30 12235 H 1141.33 -3.77271 0.923118 0
M  V30 12236 H 1143.06 -3.8815 1.14549 0
M  V30 12237 H 1139.82 -3.54813 3.13695 0
M  V30 12238 H 1140.24 -3.56066 5.758 0
M  V30 12239 H 1144.88 -3.08212 2.89422 0
M  V30 12240 H 1142.6 -3.38949 7.3358 0
M  V30 12241 H 1146.19 -2.98539 4.99365 0
M  V30 12242 H 1145.07 -3.13904 7.18634 0
M  V30 12243 N 1142.57 -0.928524 -1.27343 0
M  V30 12244 C 1143.5 -0.445627 -2.29208 0
M  V30 12245 C 1144.48 0.494508 -1.62753 0
M  V30 12246 O 1145.67 0.399082 -1.90055 0
M  V30 12247 C 1142.8 0.301684 -3.45987 0
M  V30 12248 C 1141.75 -0.550695 -4.24442 0
M  V30 12249 C 1141.08 0.325833 -5.33706 0
M  V30 12250 C 1142.38 -1.81559 -4.89728 0
M  V30 12251 H 1144.07 -1.29696 -2.69851 0
M  V30 12252 H 1141.62 -0.625085 -1.29725 0
M  V30 12253 H 1143.57 0.650455 -4.1635 0
M  V30 12254 H 1142.29 1.18705 -3.04264 0
M  V30 12255 H 1140.95 -0.882185 -3.55827 0
M  V30 12256 H 1140.6 1.21018 -4.88225 0
M  V30 12257 H 1140.3 -0.240994 -5.87106 0
M  V30 12258 H 1141.83 0.670156 -6.06911 0
M  V30 12259 H 1143.24 -1.53483 -5.52373 0
M  V30 12260 H 1141.64 -2.32598 -5.53189 0
M  V30 12261 H 1142.71 -2.53461 -4.13383 0
M  V30 12262 N 1144.05 1.41491 -0.694123 0
M  V30 12263 C 1144.98 2.33462 -0.0422169 0
M  V30 12264 C 1145.96 1.51739 0.76872 0
M  V30 12265 O 1147.15 1.8028 0.721985 0
M  V30 12266 C 1144.28 3.35545 0.895925 0
M  V30 12267 C 1143.23 4.27568 0.192188 0
M  V30 12268 C 1142.56 5.20014 1.24459 0
M  V30 12269 C 1143.86 5.1376 -0.940626 0
M  V30 12270 H 1145.55 2.88225 -0.810363 0
M  V30 12271 H 1143.1 1.38586 -0.39114 0
M  V30 12272 H 1145.05 3.9881 1.36121 0
M  V30 12273 H 1143.77 2.79129 1.69572 0
M  V30 12274 H 1142.43 3.65726 -0.25305 0
M  V30 12275 H 1142.08 4.59913 2.03687 0
M  V30 12276 H 1141.78 5.82417 0.778734 0
M  V30 12277 H 1143.3 5.86155 1.71041 0
M  V30 12278 H 1144.72 5.70601 -0.555692 0
M  V30 12279 H 1143.11 5.85097 -1.33349 0
M  V30 12280 H 1144.18 4.51011 -1.78093 0
M  V30 12281 N 1145.53 0.438773 1.51369 0
M  V30 12282 C 1146.46 -0.362467 2.3067 0
M  V30 12283 C 1147.44 -1.01973 1.36145 0
M  V30 12284 O 1148.62 -1.0231 1.65065 0
M  V30 12285 C 1145.75 -1.46313 3.14976 0
M  V30 12286 C 1144.71 -0.929272 4.1779 0
M  V30 12287 C 1144.03 -2.12579 4.90627 0
M  V30 12288 C 1145.33 0.0372782 5.22287 0
M  V30 12289 H 1147.03 0.29931 2.979 0
M  V30 12290 H 1144.57 0.14539 1.43264 0
M  V30 12291 H 1146.53 -2.03088 3.69233 0
M  V30 12292 H 1145.25 -2.15321 2.45569 0
M  V30 12293 H 1143.91 -0.383722 3.64586 0
M  V30 12294 H 1143.56 -2.8021 4.17722 0
M  V30 12295 H 1143.26 -1.77496 5.60151 0
M  V30 12296 H 1144.78 -2.69905 5.47708 0
M  V30 12297 H 1146.2 -0.44022 5.71607 0
M  V30 12298 H 1144.59 0.300748 5.99346 0
M  V30 12299 H 1145.66 0.973503 4.75027 0
M  V30 12300 N 1147.01 -1.56678 0.170181 0
M  V30 12301 C 1148.23 -2.01223 -0.481362 0
M  V30 12302 C 1148.65 -1.05039 -1.56883 0
M  V30 12303 O 1148.01 -0.0510751 -1.82429 0
M  V30 12304 C 1148.06 -3.45588 -1.06073 0
M  V30 12305 O 1147.78 -4.38097 -0.0166754 0
M  V30 12306 C 1149.28 -4.05527 -1.79061 0
M  V30 12307 H 1146.5 -0.659574 -0.1233 0
M  V30 12308 H 1149.04 -2.02689 0.271576 0
M  V30 12309 H 1147.2 -3.449 -1.76417 0
M  V30 12310 H 1147.61 -5.22615 -0.444276 0
M  V30 12311 H 1149.09 -5.08467 -2.1486 0
M  V30 12312 H 1149.56 -3.47554 -2.68519 0
M  V30 12313 H 1150.17 -4.09914 -1.13361 0
M  V30 12314 N 1148.48 0.103547 -1.57259 0
M  V30 12315 C 1149.41 1.12714 -2.04494 0
M  V30 12316 C 1150.39 1.42278 -0.932255 0
M  V30 12317 O 1151.58 1.52453 -1.20298 0
M  V30 12318 C 1148.71 2.44927 -2.46228 0
M  V30 12319 C 1147.66 2.2979 -3.61082 0
M  V30 12320 C 1146.99 3.67105 -3.88765 0
M  V30 12321 C 1148.29 1.7455 -4.9227 0
M  V30 12322 H 1149.98 0.734198 -2.90258 0
M  V30 12323 H 1147.53 0.351725 -1.39638 0
M  V30 12324 H 1149.48 3.16798 -2.77879 0
M  V30 12325 H 1148.21 2.8614 -1.57453 0
M  V30 12326 H 1146.87 1.60366 -3.29664 0
M  V30 12327 H 1146.51 4.05831 -2.97171 0
M  V30 12328 H 1146.21 3.57825 -4.66084 0
M  V30 12329 H 1147.74 4.40456 -4.22884 0
M  V30 12330 H 1149.15 2.36253 -5.22358 0
M  V30 12331 H 1147.55 1.76051 -5.73695 0
M  V30 12332 H 1148.62 0.704242 -4.79759 0
M  V30 12333 N 1149.96 1.53094 0.37415 0
M  V30 12334 C 1151.21 1.68861 1.11769 0
M  V30 12335 C 1151.54 0.436032 1.89549 0
M  V30 12336 O 1150.79 -0.581879 1.86849 0
M  V30 12337 C 1151.09 2.88432 2.11049 0
M  V30 12338 C 1150.76 4.25284 1.49814 0
M  V30 12339 C 1149.42 4.62501 1.32841 0
M  V30 12340 C 1151.77 5.10425 1.05433 0
M  V30 12341 C 1149.1 5.82502 0.700567 0
M  V30 12342 C 1151.45 6.31064 0.440525 0
M  V30 12343 C 1150.11 6.67 0.258216 0
M  V30 12344 H 1149.38 0.617906 0.40899 0
M  V30 12345 H 1152.03 1.87265 0.4005 0
M  V30 12346 H 1150.34 2.64505 2.8904 0
M  V30 12347 H 1152.03 2.97825 2.68517 0
M  V30 12348 H 1148.62 3.95976 1.64016 0
M  V30 12349 H 1152.81 4.82229 1.17342 0
M  V30 12350 H 1148.06 6.08942 0.547652 0
M  V30 12351 H 1152.24 6.96344 0.0883962 0
M  V30 12352 H 1149.86 7.59851 -0.230354 0
M  V30 12353 N 1151.44 -0.633461 1.44309 0
M  V30 12354 C 1152.69 -1.38902 1.4625 0
M  V30 12355 C 1153 -1.95354 0.0980699 0
M  V30 12356 O 1154.21 -2.715 -0.0049983 0
M  V30 12357 C 1152.66 -2.51477 2.57463 0
M  V30 12358 C 1152.27 -2.01549 4.00103 0
M  V30 12359 C 1154.02 -3.28698 2.68622 0
M  V30 12360 C 1151.92 -3.11452 5.02744 0
M  V30 12361 H 1150.85 -0.521976 0.544112 0
M  V30 12362 H 1153.5 -0.681725 1.70367 0
M  V30 12363 H 1151.89 -3.24771 2.26582 0
M  V30 12364 H 1153.06 -1.35135 4.4054 0
M  V30 12365 H 1151.37 -1.3715 3.93165 0
M  V30 12366 H 1153.97 -4.10624 3.42479 0
M  V30 12367 H 1154.31 -3.78027 1.7436 0
M  V30 12368 H 1154.85 -2.62494 2.98901 0
M  V30 12369 H 1151.59 -2.6707 5.98627 0
M  V30 12370 H 1151.11 -3.76514 4.66902 0
M  V30 12371 H 1152.79 -3.76265 5.2634 0
M  V30 12372 N 1152.92 -1.31168 -0.873655 0
M  V30 12373 C 1154.33 -1.09745 -1.1588 0
M  V30 12374 C 1154.53 0.134471 -2.01051 0
M  V30 12375 O 1153.59 0.824857 -2.38647 0
M  V30 12376 C 1154.9 -2.36704 -1.85451 0
M  V30 12377 C 1156.45 -2.42278 -1.98167 0
M  V30 12378 C 1156.93 -3.69108 -2.71152 0
M  V30 12379 N 1158.42 -3.69981 -2.7869 0
M  V30 12380 C 1159.15 -4.64811 -3.35765 0
M  V30 12381 N 1158.65 -5.69995 -3.938 0
M  V30 12382 N 1160.44 -4.52337 -3.33688 0
M  V30 12383 H 1152.59 -2.10184 -0.306021 0
M  V30 12384 H 1154.86 -0.927058 -0.198159 0
M  V30 12385 H 1154.56 -3.26666 -1.30316 0
M  V30 12386 H 1154.44 -2.46219 -2.85755 0
M  V30 12387 H 1156.82 -1.52787 -2.52468 0
M  V30 12388 H 1156.9 -2.3673 -0.969164 0
M  V30 12389 H 1156.55 -4.58963 -2.1752 0
M  V30 12390 H 1156.48 -3.71922 -3.72803 0
M  V30 12391 H 1158.97 -2.93944 -2.37498 0
M  V30 12392 H 1159.28 -6.38438 -4.3545 0
M  V30 12393 H 1157.63 -5.73773 -3.92186 0
M  V30 12394 H 1160.82 -3.69341 -2.87584 0
M  V30 12395 H 1160.99 -5.2642 -3.77871 0
M  V30 12396 N 1154.4 1.08748 -1.14068 0
M  V30 12397 C 1155.34 2.15573 -0.824425 0
M  V30 12398 C 1156.31 1.64683 0.216522 0
M  V30 12399 O 1157.5 1.90601 0.0872193 0
M  V30 12400 C 1154.64 3.43756 -0.30423 0
M  V30 12401 C 1153.75 4.08512 -1.40506 0
M  V30 12402 C 1152.89 5.24477 -0.842479 0
M  V30 12403 C 1151.93 5.81167 -1.92123 0
M  V30 12404 N 1151.06 6.88483 -1.37608 0
M  V30 12405 H 1155.9 2.41968 -1.73941 0
M  V30 12406 H 1153.44 1.18751 -0.868143 0
M  V30 12407 H 1155.4 4.17197 0.0155546 0
M  V30 12408 H 1154.03 3.17658 0.573868 0
M  V30 12409 H 1153.08 3.32866 -1.84131 0
M  V30 12410 H 1154.39 4.46669 -2.2201 0
M  V30 12411 H 1153.55 6.04842 -0.474389 0
M  V30 12412 H 1152.28 4.877 0.00355212 0
M  V30 12413 H 1151.29 4.99458 -2.29831 0
M  V30 12414 H 1152.51 6.20003 -2.77079 0
M  V30 12415 H 1150.46 6.53672 -0.552168 0
M  V30 12416 H 1150.38 7.25446 -2.12752 0
M  V30 12417 H 1151.65 7.72588 -1.03578 0
M  V30 12418 N 1155.87 0.935264 1.26849 0
M  V30 12419 C 1156.81 0.384563 2.24936 0
M  V30 12420 C 1157.79 -0.523311 1.53949 0
M  V30 12421 O 1158.97 -0.462103 1.82748 0
M  V30 12422 C 1156.1 -0.448043 3.35723 0
M  V30 12423 C 1155.14 0.397466 4.24644 0
M  V30 12424 S 1155.98 1.81773 5.03705 0
M  V30 12425 C 1157.13 0.99302 6.17972 0
M  V30 12426 H 1157.36 1.21588 2.713 0
M  V30 12427 H 1154.9 0.737966 1.35622 0
M  V30 12428 H 1156.86 -0.922541 3.99999 0
M  V30 12429 H 1155.52 -1.25397 2.87983 0
M  V30 12430 H 1154.71 -0.240176 5.03427 0
M  V30 12431 H 1154.31 0.806423 3.65202 0
M  V30 12432 H 1156.6 0.232526 6.77101 0
M  V30 12433 H 1157.55 1.75412 6.86029 0
M  V30 12434 H 1157.95 0.531692 5.6199 0
M  V30 12435 N 1157.35 -1.41121 0.701616 0
M  V30 12436 C 1158.3 -2.30765 0.040121 0
M  V30 12437 C 1159.27 -1.47436 -0.764975 0
M  V30 12438 O 1160.45 -1.76209 -0.731775 0
M  V30 12439 C 1157.59 -3.33535 -0.885903 0
M  V30 12440 C 1156.71 -4.3194 -0.0717765 0
M  V30 12441 C 1155.84 -5.21779 -0.995996 0
M  V30 12442 C 1154.88 -6.11849 -0.175133 0
M  V30 12443 N 1154.02 -6.94151 -1.05348 0
M  V30 12444 H 1158.86 -2.86772 0.810312 0
M  V30 12445 H 1156.4 -1.41233 0.411301 0
M  V30 12446 H 1158.35 -3.91675 -1.4369 0
M  V30 12447 H 1156.98 -2.79065 -1.62243 0
M  V30 12448 H 1156.04 -3.75698 0.596221 0
M  V30 12449 H 1157.35 -4.95597 0.56435 0
M  V30 12450 H 1156.5 -5.84782 -1.61601 0
M  V30 12451 H 1155.24 -4.58363 -1.66597 0
M  V30 12452 H 1154.25 -5.4789 0.457916 0
M  V30 12453 H 1155.47 -6.77322 0.491133 0
M  V30 12454 H 1153.42 -6.33338 -1.70936 0
M  V30 12455 H 1153.33 -7.54518 -0.473065 0
M  V30 12456 H 1154.6 -7.61617 -1.66012 0
M  V30 12457 N 1158.83 -0.446794 -1.51134 0
M  V30 12458 C 1160.25 -0.0995905 -1.59289 0
M  V30 12459 C 1160.45 1.39191 -1.45699 0
M  V30 12460 O 1159.5 2.1628 -1.30303 0
M  V30 12461 C 1160.82 -0.628135 -2.94066 0
M  V30 12462 C 1162.36 -0.589409 -3.074 0
M  V30 12463 C 1162.84 -1.09509 -4.44715 0
M  V30 12464 N 1164.33 -1.05347 -4.51061 0
M  V30 12465 C 1165.06 -1.41551 -5.55654 0
M  V30 12466 N 1164.56 -1.85086 -6.67619 0
M  V30 12467 N 1166.35 -1.33307 -5.46064 0
M  V30 12468 H 1158.5 -1.41713 -1.58213 0
M  V30 12469 H 1160.77 -0.584555 -0.746324 0
M  V30 12470 H 1160.47 -1.67205 -3.09411 0
M  V30 12471 H 1160.35 -0.0582398 -3.77155 0
M  V30 12472 H 1162.73 0.445541 -2.91717 0
M  V30 12473 H 1162.82 -1.19582 -2.26128 0
M  V30 12474 H 1162.46 -2.12855 -4.61146 0
M  V30 12475 H 1162.39 -0.465122 -5.24542 0
M  V30 12476 H 1164.88 -0.733877 -3.70706 0
M  V30 12477 H 1165.19 -2.10923 -7.43459 0
M  V30 12478 H 1163.54 -1.8902 -6.68802 0
M  V30 12479 H 1166.73 -0.991547 -4.57478 0
M  V30 12480 H 1166.9 -1.6185 -6.27462 0
M  V30 12481 N 1160.31 1.56586 -0.178487 0
M  V30 12482 C 1161.53 2.01915 0.473841 0
M  V30 12483 C 1161.96 1.05789 1.55533 0
M  V30 12484 O 1161.32 0.0386018 1.81259 0
M  V30 12485 C 1161.36 3.45799 1.02251 0
M  V30 12486 O 1160.47 3.52761 2.1362 0
M  V30 12487 H 1159.81 0.654372 0.112666 0
M  V30 12488 H 1162.34 2.02613 -0.284486 0
M  V30 12489 H 1162.35 3.85252 1.34332 0
M  V30 12490 H 1161.02 4.1526 0.230719 0
M  V30 12491 H 1159.6 3.25172 1.8253 0
M  V30 12492 N 1161.79 -0.095206 1.57312 0
M  V30 12493 C 1163.01 -0.81614 1.90667 0
M  V30 12494 C 1163.44 -1.71494 0.772746 0
M  V30 12495 O 1162.79 -1.79192 -0.275682 0
M  V30 12496 C 1162.84 -1.60555 3.22885 0
M  V30 12497 O 1161.95 -2.71448 3.10467 0
M  V30 12498 H 1161.29 -0.224217 0.624998 0
M  V30 12499 H 1163.82 -0.070464 2.04479 0
M  V30 12500 H 1163.83 -1.98979 3.5619 0
M  V30 12501 H 1162.5 -0.945918 4.05 0
M  V30 12502 H 1161.08 -2.36053 2.88675 0
M  V30 12503 N 1163.26 -1.53291 -0.366026 0
M  V30 12504 C 1164.49 -1.73665 -1.13381 0
M  V30 12505 C 1164.91 -0.464284 -1.8228 0
M  V30 12506 O 1164.27 0.581645 -1.71717 0
M  V30 12507 C 1164.32 -2.90225 -2.14013 0
M  V30 12508 O 1163.42 -2.58803 -3.21084 0
M  V30 12509 H 1162.77 -0.576762 -0.329 0
M  V30 12510 H 1165.3 -2.00174 -0.423287 0
M  V30 12511 H 1165.31 -3.16378 -2.57622 0
M  V30 12512 H 1163.98 -3.82518 -1.63257 0
M  V30 12513 H 1162.56 -2.43466 -2.82451 0
M  V30 12514 N 1164.74 0.6258 -1.44643 0
M  V30 12515 C 1165.65 1.76611 -1.5442 0
M  V30 12516 C 1166.67 1.68614 -0.429576 0
M  V30 12517 O 1167.84 1.89296 -0.687686 0
M  V30 12518 C 1164.91 3.13015 -1.49071 0
M  V30 12519 C 1163.97 3.32604 -2.71428 0
M  V30 12520 C 1163.2 4.62501 -2.66325 0
M  V30 12521 O 1163.43 5.43651 -1.72626 0
M  V30 12522 O 1162.36 4.84408 -3.57258 0
M  V30 12523 H 1166.19 1.71315 -2.50769 0
M  V30 12524 H 1163.77 0.787677 -1.26949 0
M  V30 12525 H 1165.65 3.94318 -1.48631 0
M  V30 12526 H 1164.33 3.18842 -0.558686 0
M  V30 12527 H 1163.24 2.50959 -2.77435 0
M  V30 12528 H 1164.57 3.31642 -3.63695 0
M  V30 12529 N 1166.22 1.31629 0.866686 0
M  V30 12530 C 1167.47 1.20861 1.61479 0
M  V30 12531 C 1167.78 -0.231208 1.94229 0
M  V30 12532 O 1168.99 -0.460618 2.67564 0
M  V30 12533 C 1167.44 2.11602 2.91123 0
M  V30 12534 C 1167.05 3.60598 2.65844 0
M  V30 12535 C 1168.8 2.09642 3.69121 0
M  V30 12536 C 1166.7 4.43337 3.91415 0
M  V30 12537 H 1165.63 0.448783 0.605896 0
M  V30 12538 H 1168.28 1.56507 0.958001 0
M  V30 12539 H 1166.67 1.68858 3.58194 0
M  V30 12540 H 1167.84 4.11609 2.07159 0
M  V30 12541 H 1166.16 3.64568 2.01194 0
M  V30 12542 H 1168.75 2.68701 4.62281 0
M  V30 12543 H 1169.1 1.08438 4.01929 0
M  V30 12544 H 1169.63 2.50603 3.08938 0
M  V30 12545 H 1166.37 5.45309 3.63756 0
M  V30 12546 H 1165.89 3.97083 4.49539 0
M  V30 12547 H 1167.57 4.5572 4.5927 0
M  V30 12548 N 1167.7 -1.08142 1.14644 0
M  V30 12549 C 1168.65 -2.15133 0.835845 0
M  V30 12550 C 1169.62 -1.64795 -0.207785 0
M  V30 12551 O 1170.8 -1.90644 -0.07711 0
M  V30 12552 C 1167.94 -3.4359 0.322456 0
M  V30 12553 C 1167.05 -4.07761 1.42671 0
M  V30 12554 C 1166.19 -5.24022 0.870281 0
M  V30 12555 C 1165.23 -5.8014 1.95202 0
M  V30 12556 N 1164.37 -6.87743 1.41257 0
M  V30 12557 H 1169.21 -2.41042 1.75222 0
M  V30 12558 H 1166.74 -1.18288 0.874428 0
M  V30 12559 H 1168.7 -4.17199 0.00657059 0
M  V30 12560 H 1167.33 -3.17958 -0.557014 0
M  V30 12561 H 1166.38 -3.31885 1.85893 0
M  V30 12562 H 1167.69 -4.45485 2.24375 0
M  V30 12563 H 1166.85 -6.04582 0.506459 0
M  V30 12564 H 1165.59 -4.87695 0.0223118 0
M  V30 12565 H 1164.59 -4.98232 2.32476 0
M  V30 12566 H 1165.82 -6.18525 2.80363 0
M  V30 12567 H 1163.76 -6.5337 0.586826 0
M  V30 12568 H 1163.68 -7.24308 2.16596 0
M  V30 12569 H 1164.95 -7.72028 1.07674 0
M  V30 12570 N 1169.18 -0.941978 -1.26351 0
M  V30 12571 C 1170.41 -0.606748 -1.97803 0
M  V30 12572 C 1170.82 0.818441 -1.70138 0
M  V30 12573 O 1170.18 1.54583 -0.970076 0
M  V30 12574 C 1170.23 -0.840431 -3.51595 0
M  V30 12575 O 1169.95 -2.20957 -3.78299 0
M  V30 12576 C 1171.45 -0.515855 -4.40288 0
M  V30 12577 H 1168.67 -0.228591 -0.630862 0
M  V30 12578 H 1171.21 -1.2629 -1.60845 0
M  V30 12579 H 1169.37 -0.230875 -3.86711 0
M  V30 12580 H 1169.78 -2.2702 -4.72824 0
M  V30 12581 H 1171.26 -0.72998 -5.47152 0
M  V30 12582 H 1171.73 0.549178 -4.35753 0
M  V30 12583 H 1172.34 -1.10417 -4.10717 0
M  V30 12584 N 1170.66 1.40747 -0.709091 0
M  V30 12585 C 1171.93 1.94831 -0.173246 0
M  V30 12586 C 1172.31 1.64766 1.31967 0
M  V30 12587 O 1171.66 0.961853 2.07269 0
M  V30 12588 C 1171.87 3.45697 -0.479013 0
M  V30 12589 C 1173.22 4.22576 -0.414122 0
M  V30 12590 O 1174.24 3.53778 -0.414699 0
M  V30 12591 O 1173.1 5.45135 -0.385986 0
M  V30 12592 H 1170.2 0.826683 -0.0228947 0
M  V30 12593 H 1172.74 1.50391 -0.786178 0
M  V30 12594 H 1171.51 3.60914 -1.51185 0
M  V30 12595 H 1171.14 3.97261 0.164211 0
M  V30 12596 N 1172.13 0.454803 1.50895 0
M  V30 12597 C 1173.36 -0.103785 2.06339 0
M  V30 12598 C 1173.77 -1.35494 1.32053 0
M  V30 12599 O 1173.11 -1.79758 0.37852 0
M  V30 12600 C 1173.18 -0.474076 3.5636 0
M  V30 12601 C 1172.84 0.672736 4.52021 0
M  V30 12602 C 1173.84 1.55003 4.96256 0
M  V30 12603 C 1171.52 0.858435 4.9491 0
M  V30 12604 C 1173.52 2.59757 5.82069 0
M  V30 12605 C 1171.2 1.90922 5.8051 0
M  V30 12606 C 1172.2 2.77717 6.23989 0
M  V30 12607 O 1171.89 3.80989 7.07886 0
M  V30 12608 H 1171.62 -0.0035531 0.675991 0
M  V30 12609 H 1174.18 0.637816 1.95246 0
M  V30 12610 H 1172.41 -1.26863 3.65298 0
M  V30 12611 H 1174.09 -0.965845 3.94241 0
M  V30 12612 H 1174.86 1.41818 4.63802 0
M  V30 12613 H 1170.74 0.192384 4.60598 0
M  V30 12614 H 1174.28 3.27535 6.15927 0
M  V30 12615 H 1170.18 2.04121 6.12376 0
M  V30 12616 H 1170.95 3.7778 7.26102 0
M  V30 12617 N 1173.61 -1.56489 0.186789 0
M  V30 12618 C 1174.54 -2.21705 -0.732739 0
M  V30 12619 C 1175.52 -1.17751 -1.22755 0
M  V30 12620 O 1176.71 -1.46231 -1.27789 0
M  V30 12621 C 1173.84 -2.86992 -1.95584 0
M  V30 12622 C 1172.79 -3.97118 -1.59628 0
M  V30 12623 C 1172.12 -4.49529 -2.89531 0
M  V30 12624 C 1173.42 -5.15941 -0.812518 0
M  V30 12625 H 1175.11 -2.98802 -0.189094 0
M  V30 12626 H 1172.66 -1.43722 -0.0895099 0
M  V30 12627 H 1174.61 -3.31295 -2.60426 0
M  V30 12628 H 1173.33 -2.07287 -2.52388 0
M  V30 12629 H 1171.99 -3.53494 -0.971475 0
M  V30 12630 H 1171.64 -3.66596 -3.44407 0
M  V30 12631 H 1171.34 -5.23832 -2.66221 0
M  V30 12632 H 1172.87 -4.96528 -3.55376 0
M  V30 12633 H 1174.28 -5.56841 -1.36386 0
M  V30 12634 H 1172.68 -5.96259 -0.677862 0
M  V30 12635 H 1173.75 -4.84535 0.188095 0
M  V30 12636 N 1175.09 0.086862 -1.5736 0
M  V30 12637 C 1176.31 0.806017 -1.91097 0
M  V30 12638 C 1176.74 1.71082 -0.78183 0
M  V30 12639 O 1176.1 1.79335 0.266175 0
M  V30 12640 C 1176.15 1.5884 -3.23732 0
M  V30 12641 O 1175.25 2.69798 -3.11902 0
M  V30 12642 H 1174.59 0.220899 -0.626179 0
M  V30 12643 H 1177.12 0.059619 -2.04513 0
M  V30 12644 H 1177.13 1.97088 -3.5724 0
M  V30 12645 H 1175.81 0.924426 -4.05496 0
M  V30 12646 H 1174.38 2.34519 -2.89923 0
M  V30 12647 N 1176.57 1.53483 0.357892 0
M  V30 12648 C 1177.82 1.69256 1.09706 0
M  V30 12649 C 1178.13 0.454888 1.90237 0
M  V30 12650 O 1179.34 0.4933 2.66981 0
M  V30 12651 C 1177.79 2.99238 1.99961 0
M  V30 12652 C 1177.4 4.30293 1.24706 0
M  V30 12653 C 1179.14 3.24378 2.73823 0
M  V30 12654 C 1177.05 5.5136 2.13907 0
M  V30 12655 H 1175.98 0.630657 0.413265 0
M  V30 12656 H 1178.63 1.79983 0.357518 0
M  V30 12657 H 1177.01 2.82332 2.77677 0
M  V30 12658 H 1178.19 4.57857 0.519995 0
M  V30 12659 H 1176.5 4.11656 0.626736 0
M  V30 12660 H 1179.1 4.12015 3.40805 0
M  V30 12661 H 1179.44 2.40769 3.39612 0
M  V30 12662 H 1179.98 3.41994 2.03187 0
M  V30 12663 H 1176.71 6.3747 1.52684 0
M  V30 12664 H 1176.23 5.28065 2.84442 0
M  V30 12665 H 1177.91 5.86448 2.7329 0
M  V30 12666 N 1178.05 -0.61812 1.44973 0
M  V30 12667 C 1179.29 -1.37343 1.47715 0
M  V30 12668 C 1179.61 -1.95239 0.118784 0
M  V30 12669 O 1180.81 -2.7149 0.0237981 0
M  V30 12670 C 1179.27 -2.48732 2.60116 0
M  V30 12671 C 1178.88 -1.97294 4.02218 0
M  V30 12672 C 1180.62 -3.25831 2.72093 0
M  V30 12673 C 1178.53 -3.06102 5.06019 0
M  V30 12674 H 1177.46 -0.516175 0.549617 0
M  V30 12675 H 1180.11 -0.663617 1.7108 0
M  V30 12676 H 1178.49 -3.2235 2.30014 0
M  V30 12677 H 1179.67 -1.30455 4.41948 0
M  V30 12678 H 1177.98 -1.32972 3.94598 0
M  V30 12679 H 1180.58 -4.06968 3.46815 0
M  V30 12680 H 1180.92 -3.76156 1.7836 0
M  V30 12681 H 1181.45 -2.59309 3.01668 0
M  V30 12682 H 1178.19 -2.60706 6.01426 0
M  V30 12683 H 1177.71 -3.71541 4.70869 0
M  V30 12684 H 1179.39 -3.70662 5.30301 0
M  V30 12685 N 1179.52 -1.32087 -0.859693 0
M  V30 12686 C 1180.46 -1.14934 -1.97143 0
M  V30 12687 C 1181.43 -0.0501084 -1.62523 0
M  V30 12688 O 1182.62 -0.208472 -1.87344 0
M  V30 12689 C 1179.75 -0.758374 -3.30101 0
M  V30 12690 C 1178.79 -1.86212 -3.83702 0
M  V30 12691 S 1179.62 -3.46949 -4.07905 0
M  V30 12692 C 1180.78 -3.09813 -5.43844 0
M  V30 12693 H 1181.01 -2.09047 -2.11392 0
M  V30 12694 H 1178.55 -1.1669 -1.01108 0
M  V30 12695 H 1180.5 -0.539563 -4.06939 0
M  V30 12696 H 1179.17 0.163817 -3.13673 0
M  V30 12697 H 1178.36 -1.54144 -4.7985 0
M  V30 12698 H 1177.96 -2.03652 -3.13691 0
M  V30 12699 H 1180.25 -2.59345 -6.25897 0
M  V30 12700 H 1181.2 -4.04963 -5.8087 0
M  V30 12701 H 1181.6 -2.46971 -5.07607 0
M  V30 12702 N 1181 1.07532 -1.15215 0
M  V30 12703 C 1182.28 1.76813 -0.83646 0
M  V30 12704 C 1182.66 2.00242 0.6683 0
M  V30 12705 O 1182.01 1.61941 1.61206 0
M  V30 12706 C 1182.22 3.0779 -1.64519 0
M  V30 12707 C 1183.56 3.82168 -1.85022 0
M  V30 12708 O 1184.59 3.17596 -1.61279 0
M  V30 12709 O 1183.45 4.98135 -2.24775 0
M  V30 12710 H 1180.54 0.767736 -0.307426 0
M  V30 12711 H 1183.09 1.13914 -1.25784 0
M  V30 12712 H 1181.86 2.86342 -2.6669 0
M  V30 12713 H 1181.48 3.78419 -1.22002 0
M  V30 12714 N 1182.48 0.948665 1.2585 0
M  V30 12715 C 1183.89 0.641829 1.75321 0
M  V30 12716 C 1184.24 -0.842903 1.77171 0
M  V30 12717 O 1183.37 -1.65967 1.38867 0
M  V30 12718 C 1183.96 1.15835 3.18383 0
M  V30 12719 C 1182.52 0.901784 3.65438 0
M  V30 12720 C 1181.67 1.30489 2.44679 0
M  V30 12721 H 1184.62 1.12614 1.1182 0
M  V30 12722 H 1184.64 0.515639 3.7699 0
M  V30 12723 H 1184.15 2.23897 3.17004 0
M  V30 12724 H 1182.25 -0.164135 3.72238 0
M  V30 12725 H 1182.37 1.53405 4.53876 0
M  V30 12726 H 1180.73 0.723278 2.44215 0
M  V30 12727 H 1181.51 2.3946 2.45996 0
M  V30 12728 N 1183.96 -1.40369 0.716545 0
M  V30 12729 C 1185.24 -1.94737 0.183576 0
M  V30 12730 C 1185.62 -1.65464 -1.31092 0
M  V30 12731 O 1184.96 -0.972832 -2.06756 0
M  V30 12732 C 1185.17 -3.45438 0.497339 0
M  V30 12733 C 1186.52 -4.2235 0.436526 0
M  V30 12734 O 1187.55 -3.53553 0.433454 0
M  V30 12735 O 1186.4 -5.44923 0.41489 0
M  V30 12736 H 1183.5 -0.82655 0.0272785 0
M  V30 12737 H 1186.04 -1.49972 0.794143 0
M  V30 12738 H 1184.82 -3.60107 1.53097 0
M  V30 12739 H 1184.44 -3.97342 -0.143141 0
M  V30 12740 N 1185.44 -0.462799 -1.50652 0
M  V30 12741 C 1186.35 0.341191 -2.32106 0
M  V30 12742 C 1187.36 1.00384 -1.42123 0
M  V30 12743 O 1188.54 0.993635 -1.75182 0
M  V30 12744 C 1185.6 1.41356 -3.16575 0
M  V30 12745 C 1184.66 0.768375 -4.22368 0
M  V30 12746 C 1183.9 1.78964 -5.028 0
M  V30 12747 O 1184.12 3.01515 -4.84195 0
M  V30 12748 O 1183.05 1.36606 -5.86193 0
M  V30 12749 H 1186.88 -0.324482 -3.01962 0
M  V30 12750 H 1184.47 -0.224807 -1.47699 0
M  V30 12751 H 1186.35 2.0349 -3.69012 0
M  V30 12752 H 1185.02 2.06285 -2.49456 0
M  V30 12753 H 1183.93 0.108297 -3.73943 0
M  V30 12754 H 1185.26 0.162164 -4.91933 0
M  V30 12755 N 1186.91 1.56388 -0.195085 0
M  V30 12756 C 1188.16 1.97872 0.444344 0
M  V30 12757 C 1188.49 1.0819 1.61271 0
M  V30 12758 O 1187.77 0.133904 1.94039 0
M  V30 12759 C 1188.05 3.48556 0.90449 0
M  V30 12760 C 1187.9 4.49015 -0.265693 0
M  V30 12761 C 1189.22 4.02938 1.76999 0
M  V30 12762 H 1186.34 0.719413 0.160041 0
M  V30 12763 H 1188.98 1.87835 -0.286005 0
M  V30 12764 H 1187.13 3.5724 1.52682 0
M  V30 12765 H 1188.81 4.52368 -0.903363 0
M  V30 12766 H 1187.05 4.23987 -0.917462 0
M  V30 12767 H 1187.72 5.51912 0.0987834 0
M  V30 12768 H 1190.2 3.97033 1.24514 0
M  V30 12769 H 1189.07 5.08741 2.06092 0
M  V30 12770 H 1189.33 3.48197 2.72418 0
M  V30 12771 N 1188.39 -0.0785156 1.57404 0
M  V30 12772 C 1189.8 -0.631132 1.75709 0
M  V30 12773 C 1190.15 -1.78261 0.819605 0
M  V30 12774 O 1189.28 -2.164 0.00206912 0
M  V30 12775 C 1189.87 -1.15168 3.18625 0
M  V30 12776 C 1188.43 -1.65021 3.38297 0
M  V30 12777 C 1187.58 -0.566773 2.71446 0
M  V30 12778 H 1190.53 0.147631 1.58012 0
M  V30 12779 H 1190.55 -2.02065 3.22413 0
M  V30 12780 H 1190.06 -0.313399 3.86833 0
M  V30 12781 H 1188.17 -2.51196 2.75194 0
M  V30 12782 H 1188.28 -1.73179 4.46706 0
M  V30 12783 H 1186.64 -1.01021 2.33809 0
M  V30 12784 H 1187.43 0.261204 3.42305 0
M  V30 12785 N 1189.87 -1.5367 -0.349747 0
M  V30 12786 C 1190.8 -1.84208 -1.43492 0
M  V30 12787 C 1191.78 -0.696725 -1.55177 0
M  V30 12788 O 1192.97 -0.948061 -1.69486 0
M  V30 12789 C 1190.1 -2.04613 -2.80625 0
M  V30 12790 C 1189.05 -3.20419 -2.83753 0
M  V30 12791 C 1188.38 -3.26147 -4.23713 0
M  V30 12792 C 1189.68 -4.58666 -2.49846 0
M  V30 12793 H 1191.37 -2.75087 -1.18185 0
M  V30 12794 H 1188.92 -1.32363 -0.567101 0
M  V30 12795 H 1190.87 -2.2456 -3.56582 0
M  V30 12796 H 1189.59 -1.10459 -3.07354 0
M  V30 12797 H 1188.25 -3.00318 -2.10249 0
M  V30 12798 H 1187.9 -2.29599 -4.47541 0
M  V30 12799 H 1187.6 -4.03963 -4.26717 0
M  V30 12800 H 1189.12 -3.48296 -5.0152 0
M  V30 12801 H 1190.54 -4.78668 -3.15516 0
M  V30 12802 H 1188.94 -5.3884 -2.64144 0
M  V30 12803 H 1190.01 -4.62697 -1.4505 0
M  V30 12804 N 1191.35 0.610423 -1.45298 0
M  V30 12805 C 1192.63 1.36966 -1.39641 0
M  V30 12806 C 1193.01 2.10998 -0.0655757 0
M  V30 12807 O 1192.35 2.07705 0.952407 0
M  V30 12808 C 1192.56 2.31885 -2.60826 0
M  V30 12809 C 1193.91 2.9458 -3.05791 0
M  V30 12810 O 1194.94 2.42207 -2.61179 0
M  V30 12811 O 1193.79 3.89639 -3.83202 0
M  V30 12812 H 1190.89 0.61401 -0.554004 0
M  V30 12813 H 1193.43 0.633748 -1.57422 0
M  V30 12814 H 1192.21 1.76421 -3.49272 0
M  V30 12815 H 1191.83 3.12861 -2.45364 0
M  V30 12816 N 1192.83 1.32541 0.852676 0
M  V30 12817 C 1193.74 1.23646 1.99371 0
M  V30 12818 C 1194.75 0.149673 1.73355 0
M  V30 12819 O 1195.93 0.370716 1.97959 0
M  V30 12820 C 1192.99 0.961873 3.3309 0
M  V30 12821 C 1192.05 2.1373 3.72315 0
M  V30 12822 C 1191.29 1.87572 4.99652 0
M  V30 12823 O 1191.51 0.819247 5.64486 0
M  V30 12824 O 1190.44 2.73732 5.36054 0
M  V30 12825 H 1194.27 2.19573 2.09813 0
M  V30 12826 H 1191.86 1.12451 0.983627 0
M  V30 12827 H 1193.74 0.825316 4.13239 0
M  V30 12828 H 1192.41 0.0327745 3.23683 0
M  V30 12829 H 1191.32 2.32933 2.92733 0
M  V30 12830 H 1192.65 3.04925 3.86369 0
M  V30 12831 N 1194.3 -1.0692 1.15784 0
M  V30 12832 C 1195.24 -2.14168 0.816375 0
M  V30 12833 C 1196.25 -1.61872 -0.17357 0
M  V30 12834 O 1197.44 -1.78429 0.0502973 0
M  V30 12835 C 1194.54 -3.38346 0.193682 0
M  V30 12836 C 1193.71 -4.19979 1.22215 0
M  V30 12837 C 1192.77 -5.2253 0.620424 0
M  V30 12838 O 1191.8 -5.54446 1.28757 0
M  V30 12839 N 1193 -5.77434 -0.595811 0
M  V30 12840 H 1195.76 -2.44062 1.73937 0
M  V30 12841 H 1193.32 -1.22865 1.05431 0
M  V30 12842 H 1195.32 -4.04092 -0.22174 0
M  V30 12843 H 1193.89 -3.06129 -0.632735 0
M  V30 12844 H 1193.11 -3.49984 1.81397 0
M  V30 12845 H 1194.39 -4.71329 1.91641 0
M  V30 12846 H 1193.79 -5.5376 -1.15611 0
M  V30 12847 H 1192.35 -6.44788 -0.953529 0
M  V30 12848 N 1195.78 -0.955326 -1.25345 0
M  V30 12849 C 1197.02 -0.618161 -1.94828 0
M  V30 12850 C 1197.39 0.829532 -1.73155 0
M  V30 12851 O 1198.59 1.27632 -2.36566 0
M  V30 12852 C 1196.86 -0.967887 -3.44045 0
M  V30 12853 S 1198.42 -0.743401 -4.32457 0
M  V30 12854 H 1195.24 -0.227189 -0.673726 0
M  V30 12855 H 1197.84 -1.22965 -1.51986 0
M  V30 12856 H 1196.54 -2.01864 -3.57322 0
M  V30 12857 H 1196.07 -0.346677 -3.9187 0
M  V30 12858 H 1198.09 0.385467 -4.94701 0
M  V30 12859 N 1197.26 1.39987 -0.723979 0
M  V30 12860 C 1198.17 2.3447 -0.0780936 0
M  V30 12861 C 1199.19 1.57744 0.734368 0
M  V30 12862 O 1200.36 1.90091 0.665385 0
M  V30 12863 C 1197.43 3.36705 0.826492 0
M  V30 12864 C 1196.49 4.293 0.00303036 0
M  V30 12865 C 1195.72 5.26651 0.864535 0
M  V30 12866 O 1195.95 5.30194 2.10357 0
M  V30 12867 O 1194.88 6.01157 0.299057 0
M  V30 12868 H 1198.71 2.91338 -0.857646 0
M  V30 12869 H 1196.29 1.41324 -0.484536 0
M  V30 12870 H 1198.17 3.9938 1.34439 0
M  V30 12871 H 1196.85 2.82237 1.58505 0
M  V30 12872 H 1195.75 3.69883 -0.560136 0
M  V30 12873 H 1197.09 4.86942 -0.717494 0
M  V30 12874 N 1198.74 0.470782 1.50404 0
M  V30 12875 C 1200.16 0.124919 1.5911 0
M  V30 12876 C 1200.36 -1.36855 1.47895 0
M  V30 12877 O 1199.41 -2.1418 1.33728 0
M  V30 12878 C 1200.72 0.674839 2.9303 0
M  V30 12879 C 1202.27 0.638239 3.06424 0
M  V30 12880 C 1202.75 1.1657 4.42917 0
M  V30 12881 N 1204.24 1.1251 4.49328 0
M  V30 12882 C 1204.97 1.50373 5.53331 0
M  V30 12883 N 1204.47 1.95684 6.6459 0
M  V30 12884 N 1206.26 1.41978 5.43874 0
M  V30 12885 H 1198.41 1.44212 1.55938 0
M  V30 12886 H 1200.68 0.596354 0.73693 0
M  V30 12887 H 1200.38 1.72106 3.06712 0
M  V30 12888 H 1200.26 0.118234 3.77015 0
M  V30 12889 H 1202.64 -0.399075 2.92389 0
M  V30 12890 H 1202.72 1.23164 2.24197 0
M  V30 12891 H 1202.37 2.20164 4.57701 0
M  V30 12892 H 1202.3 0.548513 5.23736 0
M  V30 12893 H 1204.79 0.79276 3.69491 0
M  V30 12894 H 1205.1 2.22724 7.40009 0
M  V30 12895 H 1203.45 1.99636 6.65711 0
M  V30 12896 H 1206.64 1.0642 4.55842 0
M  V30 12897 H 1206.81 1.71812 6.24808 0
M  V30 12898 N 1200.22 -1.56282 0.203376 0
M  V30 12899 C 1201.15 -2.2247 -0.709183 0
M  V30 12900 C 1202.13 -1.19046 -1.21499 0
M  V30 12901 O 1203.31 -1.47578 -1.26231 0
M  V30 12902 C 1200.44 -2.8905 -1.92529 0
M  V30 12903 C 1199.4 -3.98789 -1.55407 0
M  V30 12904 C 1198.72 -4.52574 -2.84747 0
M  V30 12905 C 1200.02 -5.16774 -0.75775 0
M  V30 12906 H 1201.72 -2.98986 -0.157392 0
M  V30 12907 H 1199.26 -1.43808 -0.0742613 0
M  V30 12908 H 1201.22 -3.34038 -2.56898 0
M  V30 12909 H 1199.94 -2.09952 -2.50175 0
M  V30 12910 H 1198.6 -3.54504 -0.933928 0
M  V30 12911 H 1198.25 -3.70229 -3.40499 0
M  V30 12912 H 1197.95 -5.26627 -2.6065 0
M  V30 12913 H 1199.47 -5.00269 -3.5009 0
M  V30 12914 H 1200.89 -5.58256 -1.30472 0
M  V30 12915 H 1199.28 -5.96945 -0.614583 0
M  V30 12916 H 1200.35 -4.84308 0.239476 0
M  V30 12917 N 1201.7 0.070167 -1.57444 0
M  V30 12918 C 1203.11 0.621805 -1.76041 0
M  V30 12919 C 1203.46 1.77824 -0.829047 0
M  V30 12920 O 1202.58 2.16396 -0.0135453 0
M  V30 12921 C 1203.18 1.13476 -3.19231 0
M  V30 12922 C 1201.74 1.63225 -3.39167 0
M  V30 12923 C 1200.88 0.552369 -2.71743 0
M  V30 12924 H 1203.83 -0.156009 -1.57931 0
M  V30 12925 H 1203.86 2.00352 -3.2348 0
M  V30 12926 H 1203.37 0.29288 -3.86993 0
M  V30 12927 H 1201.47 2.49733 -2.76522 0
M  V30 12928 H 1201.58 1.70807 -4.47618 0
M  V30 12929 H 1199.95 0.997797 -2.34342 0
M  V30 12930 H 1200.73 -0.279354 -3.42162 0
M  V30 12931 N 1203.17 1.53854 0.341593 0
M  V30 12932 C 1204.4 1.7488 1.10002 0
M  V30 12933 C 1204.81 0.488802 1.82777 0
M  V30 12934 O 1204.15 -0.549333 1.75294 0
M  V30 12935 C 1204.22 2.87604 2.15694 0
M  V30 12936 C 1203.88 4.27142 1.62477 0
M  V30 12937 C 1204.88 5.08642 1.07606 0
M  V30 12938 C 1202.56 4.73633 1.67265 0
M  V30 12939 C 1204.56 6.34735 0.582284 0
M  V30 12940 C 1202.24 5.99697 1.175 0
M  V30 12941 C 1203.24 6.80081 0.630742 0
M  V30 12942 O 1202.93 8.03777 0.140519 0
M  V30 12943 H 1202.66 0.587824 0.333824 0
M  V30 12944 H 1205.22 2.01488 0.398965 0
M  V30 12945 H 1203.45 2.56526 2.89364 0
M  V30 12946 H 1205.13 2.96583 2.77117 0
M  V30 12947 H 1205.9 4.73887 1.03227 0
M  V30 12948 H 1201.78 4.11121 2.08567 0
M  V30 12949 H 1205.32 6.97424 0.156811 0
M  V30 12950 H 1201.22 6.33947 1.21579 0
M  V30 12951 H 1201.99 8.18094 0.257626 0
M  V30 12952 N 1204.65 -0.602709 1.4562 0
M  V30 12953 C 1205.93 -1.36224 1.40366 0
M  V30 12954 C 1206.31 -2.1096 0.0767645 0
M  V30 12955 O 1205.66 -2.08207 -0.941378 0
M  V30 12956 C 1205.87 -2.30499 2.62052 0
M  V30 12957 C 1207.21 -2.92954 3.07348 0
M  V30 12958 O 1208.24 -2.40818 2.62459 0
M  V30 12959 O 1207.1 -3.87601 3.85263 0
M  V30 12960 H 1204.19 -0.611064 0.557253 0
M  V30 12961 H 1206.74 -0.625391 1.57756 0
M  V30 12962 H 1205.51 -1.74566 3.50203 0
M  V30 12963 H 1205.13 -3.11556 2.4702 0
M  V30 12964 N 1206.13 -1.32992 -0.845635 0
M  V30 12965 C 1207.09 -1.22607 -1.9365 0
M  V30 12966 C 1208.09 -0.146812 -1.60128 0
M  V30 12967 O 1209.28 -0.397863 -1.69596 0
M  V30 12968 C 1206.41 -0.887677 -3.2914 0
M  V30 12969 H 1207.61 -2.19563 -2.04285 0
M  V30 12970 H 1205.16 -1.16952 -1.03691 0
M  V30 12971 H 1205.9 0.0796777 -3.24202 0
M  V30 12972 H 1205.68 -1.66808 -3.54849 0
M  V30 12973 H 1207.17 -0.83958 -4.09073 0
M  V30 12974 N 1207.61 1.06304 -1.1635 0
M  V30 12975 C 1208.83 1.83338 -0.969639 0
M  V30 12976 C 1209.26 1.81945 0.477231 0
M  V30 12977 O 1208.62 1.22018 1.34094 0
M  V30 12978 C 1208.66 3.2785 -1.50155 0
M  V30 12979 O 1207.77 4.06281 -0.707805 0
M  V30 12980 H 1207.11 0.567293 -0.345072 0
M  V30 12981 H 1209.64 1.34033 -1.54584 0
M  V30 12982 H 1209.65 3.7867 -1.51898 0
M  V30 12983 H 1208.32 3.28179 -2.55483 0
M  V30 12984 H 1206.9 3.65055 -0.760872 0
M  V30 12985 N 1209.09 0.96196 1.24836 0
M  V30 12986 C 1210.03 0.48686 2.25607 0
M  V30 12987 C 1211 -0.464546 1.59472 0
M  V30 12988 O 1212.19 -0.376179 1.87055 0
M  V30 12989 C 1209.33 -0.222294 3.44383 0
M  V30 12990 C 1208.44 0.767206 4.25133 0
M  V30 12991 C 1207.58 0.0347458 5.31189 0
M  V30 12992 C 1206.61 1.01469 6.03631 0
M  V30 12993 N 1205.75 0.312619 7.01404 0
M  V30 12994 H 1210.59 1.35104 2.65614 0
M  V30 12995 H 1208.13 0.677373 1.30576 0
M  V30 12996 H 1210.09 -0.650087 4.12104 0
M  V30 12997 H 1208.72 -1.05047 3.0523 0
M  V30 12998 H 1207.77 1.31346 3.57005 0
M  V30 12999 H 1209.08 1.5147 4.75245 0
M  V30 13000 H 1208.23 -0.451325 6.05019 0
M  V30 13001 H 1206.97 -0.745485 4.81969 0
M  V30 13002 H 1205.98 1.51169 5.28609 0
M  V30 13003 H 1207.2 1.79527 6.5494 0
M  V30 13004 H 1205.15 -0.44874 6.54463 0
M  V30 13005 H 1205.07 0.999079 7.49369 0
M  V30 13006 H 1206.33 -0.151673 7.79352 0
M  V30 13007 N 1210.56 -1.39601 0.731392 0
M  V30 13008 C 1211.81 -2.01364 0.287048 0
M  V30 13009 C 1212.16 -1.56991 -1.11227 0
M  V30 13010 O 1211.46 -0.787202 -1.74682 0
M  V30 13011 C 1211.65 -3.55934 0.323352 0
M  V30 13012 C 1211.48 -4.15314 1.72466 0
M  V30 13013 C 1210.25 -4.48059 2.33605 0
M  V30 13014 C 1212.45 -4.39098 2.67764 0
M  V30 13015 N 1210.43 -4.9292 3.65927 0
M  V30 13016 C 1211.8 -4.86124 3.84816 0
M  V30 13017 C 1213.86 -4.2116 2.65572 0
M  V30 13018 C 1212.56 -5.17095 5.00005 0
M  V30 13019 C 1214.59 -4.53242 3.79902 0
M  V30 13020 C 1213.95 -5.00471 4.95689 0
M  V30 13021 H 1210.05 -0.76724 0.151217 0
M  V30 13022 H 1212.63 -1.6958 0.956588 0
M  V30 13023 H 1210.8 -3.87114 -0.315819 0
M  V30 13024 H 1212.53 -4.04461 -0.1392 0
M  V30 13025 H 1209.29 -4.35734 1.85561 0
M  V30 13026 H 1209.71 -5.19713 4.33851 0
M  V30 13027 H 1214.35 -3.83852 1.77251 0
M  V30 13028 H 1212.07 -5.5331 5.8896 0
M  V30 13029 H 1215.66 -4.40988 3.795 0
M  V30 13030 H 1214.54 -5.24826 5.8269 0
M  V30 13031 N 1212.04 -0.478751 -1.50152 0
M  V30 13032 C 1212.95 0.316554 -2.32455 0
M  V30 13033 C 1213.97 0.98871 -1.4318 0
M  V30 13034 O 1215.14 0.974998 -1.76226 0
M  V30 13035 C 1212.21 1.3799 -3.18056 0
M  V30 13036 C 1211.27 0.723534 -4.23159 0
M  V30 13037 C 1210.5 1.73621 -5.0467 0
M  V30 13038 O 1210.73 2.96362 -4.87366 0
M  V30 13039 O 1209.66 1.30381 -5.87609 0
M  V30 13040 H 1213.49 -0.356491 -3.016 0
M  V30 13041 H 1211.07 -0.24046 -1.47452 0
M  V30 13042 H 1212.95 1.99565 -3.71149 0
M  V30 13043 H 1211.63 2.03627 -2.5163 0
M  V30 13044 H 1210.54 0.0686296 -3.74037 0
M  V30 13045 H 1211.87 0.109979 -4.92077 0
M  V30 13046 N 1213.52 1.56172 -0.211661 0
M  V30 13047 C 1214.77 1.98039 0.422706 0
M  V30 13048 C 1215.1 1.09904 1.60472 0
M  V30 13049 O 1214.35 0.141771 1.95186 0
M  V30 13050 C 1214.65 3.45636 0.909442 0
M  V30 13051 C 1214.32 4.50613 -0.160982 0
M  V30 13052 C 1212.98 4.79043 -0.455064 0
M  V30 13053 C 1215.33 5.13624 -0.885426 0
M  V30 13054 C 1212.66 5.67771 -1.47828 0
M  V30 13055 C 1215.01 6.03459 -1.8979 0
M  V30 13056 C 1213.67 6.30238 -2.19901 0
M  V30 13057 H 1212.94 0.724676 0.154679 0
M  V30 13058 H 1215.59 1.8894 -0.312106 0
M  V30 13059 H 1213.9 3.51889 1.72283 0
M  V30 13060 H 1215.59 3.75395 1.40995 0
M  V30 13061 H 1212.18 4.28528 0.0783864 0
M  V30 13062 H 1216.37 4.91737 -0.671463 0
M  V30 13063 H 1211.62 5.86787 -1.7173 0
M  V30 13064 H 1215.8 6.51338 -2.46438 0
M  V30 13065 H 1213.42 6.98788 -2.9933 0
M  V30 13066 N 1215 -0.0618163 1.57479 0
M  V30 13067 C 1215.96 -1.05684 2.0338 0
M  V30 13068 C 1216.96 -1.31006 0.932423 0
M  V30 13069 O 1218.15 -1.26559 1.19702 0
M  V30 13070 C 1215.28 -2.39805 2.42294 0
M  V30 13071 H 1216.48 -0.661006 2.92525 0
M  V30 13072 H 1214.03 -0.307814 1.53239 0
M  V30 13073 H 1214.76 -2.84201 1.56207 0
M  V30 13074 H 1214.55 -2.22764 3.22674 0
M  V30 13075 H 1216.04 -3.11307 2.78349 0
M  V30 13076 N 1216.48 -1.54033 -0.333429 0
M  V30 13077 C 1217.89 -1.44522 -0.677166 0
M  V30 13078 C 1218.09 -0.610122 -1.92041 0
M  V30 13079 O 1217.15 -0.105058 -2.52281 0
M  V30 13080 C 1218.46 -2.88129 -0.860369 0
M  V30 13081 C 1220.01 -2.97968 -0.958342 0
M  V30 13082 C 1220.48 -4.42703 -1.17379 0
M  V30 13083 N 1221.98 -4.46273 -1.24075 0
M  V30 13084 C 1222.71 -5.55407 -1.42515 0
M  V30 13085 N 1222.21 -6.74528 -1.58062 0
M  V30 13086 N 1224 -5.43037 -1.45144 0
M  V30 13087 H 1216.15 -2.06815 0.483858 0
M  V30 13088 H 1218.41 -0.935307 0.15461 0
M  V30 13089 H 1218.12 -3.51695 -0.0182085 0
M  V30 13090 H 1217.99 -3.33668 -1.75913 0
M  V30 13091 H 1220.38 -2.34535 -1.79102 0
M  V30 13092 H 1220.46 -2.55774 -0.0362643 0
M  V30 13093 H 1220.11 -5.0672 -0.346004 0
M  V30 13094 H 1220.04 -4.82498 -2.10959 0
M  V30 13095 H 1222.53 -3.60439 -1.13545 0
M  V30 13096 H 1222.84 -7.53462 -1.71797 0
M  V30 13097 H 1221.18 -6.77454 -1.55179 0
M  V30 13098 H 1224.38 -4.4893 -1.32588 0
M  V30 13099 H 1224.55 -6.28146 -1.59173 0
M  V30 13100 N 1217.95 0.594978 -1.45938 0
M  V30 13101 C 1218.86 1.73296 -1.58132 0
M  V30 13102 C 1219.88 1.67665 -0.465245 0
M  V30 13103 O 1221.06 1.87794 -0.727684 0
M  V30 13104 C 1218.12 3.09783 -1.55677 0
M  V30 13105 C 1217.18 3.26772 -2.78422 0
M  V30 13106 C 1216.42 4.56748 -2.76075 0
M  V30 13107 O 1216.64 5.39867 -1.84119 0
M  V30 13108 O 1215.57 4.76721 -3.67452 0
M  V30 13109 H 1219.4 1.65957 -2.54346 0
M  V30 13110 H 1216.98 0.760572 -1.28591 0
M  V30 13111 H 1218.87 3.91077 -1.56961 0
M  V30 13112 H 1217.54 3.17585 -0.626191 0
M  V30 13113 H 1216.45 2.45018 -2.82696 0
M  V30 13114 H 1217.78 3.23853 -3.70648 0
M  V30 13115 N 1219.43 1.33438 0.838571 0
M  V30 13116 C 1220.85 1.12779 1.12929 0
M  V30 13117 C 1221.05 -0.0811188 2.01337 0
M  V30 13118 O 1220.1 -0.761294 2.4075 0
M  V30 13119 C 1221.42 2.41537 1.7911 0
M  V30 13120 C 1222.97 2.47447 1.91674 0
M  V30 13121 C 1223.44 3.76167 2.6127 0
M  V30 13122 N 1224.93 3.7724 2.68783 0
M  V30 13123 C 1225.67 4.7355 3.23323 0
M  V30 13124 N 1225.16 5.80235 3.78549 0
M  V30 13125 N 1226.96 4.61025 3.21578 0
M  V30 13126 H 1219.11 2.10921 0.250187 0
M  V30 13127 H 1221.37 0.931986 0.17351 0
M  V30 13128 H 1221.08 3.30006 1.21609 0
M  V30 13129 H 1220.95 2.53709 2.79127 0
M  V30 13130 H 1223.34 1.59427 2.48328 0
M  V30 13131 H 1223.42 2.39216 0.906058 0
M  V30 13132 H 1223.06 4.64569 2.05275 0
M  V30 13133 H 1222.99 3.81675 3.62811 0
M  V30 13134 H 1225.48 3.00138 2.29621 0
M  V30 13135 H 1225.8 6.49759 4.1837 0
M  V30 13136 H 1224.14 5.83969 3.76836 0
M  V30 13137 H 1227.33 3.76836 2.77691 0
M  V30 13138 H 1227.5 5.36253 3.63781 0
M  V30 13139 N 1220.91 -1.05686 1.16912 0
M  V30 13140 C 1221.84 -2.15268 0.904532 0
M  V30 13141 C 1222.82 -1.69424 -0.151548 0
M  V30 13142 O 1224.01 -1.942 -0.00235371 0
M  V30 13143 C 1221.14 -3.44853 0.411581 0
M  V30 13144 C 1220.09 -4.04237 1.40628 0
M  V30 13145 C 1219.42 -5.29105 0.771479 0
M  V30 13146 C 1220.72 -4.42303 2.77787 0
M  V30 13147 H 1222.41 -2.37659 1.82094 0
M  V30 13148 H 1219.96 -1.14217 0.876947 0
M  V30 13149 H 1221.91 -4.20857 0.213929 0
M  V30 13150 H 1220.63 -3.22099 -0.540352 0
M  V30 13151 H 1219.29 -3.30297 1.59058 0
M  V30 13152 H 1218.94 -5.02652 -0.187133 0
M  V30 13153 H 1218.64 -5.69797 1.43545 0
M  V30 13154 H 1220.16 -6.07801 0.583988 0
M  V30 13155 H 1221.58 -5.09362 2.63103 0
M  V30 13156 H 1219.98 -4.93997 3.40716 0
M  V30 13157 H 1221.05 -3.52877 3.32575 0
M  V30 13158 N 1222.39 -0.968567 -1.24324 0
M  V30 13159 C 1223.34 -0.498817 -2.25345 0
M  V30 13160 C 1224.31 0.456082 -1.59716 0
M  V30 13161 O 1225.49 0.366254 -1.87252 0
M  V30 13162 C 1222.63 0.204027 -3.44496 0
M  V30 13163 C 1221.74 -0.789741 -4.2472 0
M  V30 13164 C 1220.88 -0.0629156 -5.31163 0
M  V30 13165 C 1219.92 -1.04669 -6.03084 0
M  V30 13166 N 1219.05 -0.349812 -7.01228 0
M  V30 13167 H 1223.89 -1.36511 -2.64894 0
M  V30 13168 H 1221.43 -0.684288 -1.30215 0
M  V30 13169 H 1223.39 0.628223 -4.12443 0
M  V30 13170 H 1222.02 1.03426 -3.05782 0
M  V30 13171 H 1221.07 -1.33237 -3.56303 0
M  V30 13172 H 1222.38 -1.53988 -4.74436 0
M  V30 13173 H 1221.54 0.419233 -6.0525 0
M  V30 13174 H 1220.28 0.719915 -4.82357 0
M  V30 13175 H 1219.28 -1.53971 -5.278 0
M  V30 13176 H 1220.51 -1.82998 -6.53979 0
M  V30 13177 H 1218.45 0.414026 -6.54692 0
M  V30 13178 H 1218.37 -1.03881 -7.48829 0
M  V30 13179 H 1219.64 0.11034 -7.79422 0
M  V30 13180 N 1223.87 1.39211 -0.738786 0
M  V30 13181 C 1224.8 2.33209 -0.11647 0
M  V30 13182 C 1225.78 1.54108 0.720056 0
M  V30 13183 O 1226.96 1.82486 0.664264 0
M  V30 13184 C 1224.09 3.38226 0.78872 0
M  V30 13185 C 1223.05 4.27963 0.0560636 0
M  V30 13186 C 1222.37 5.2371 1.07852 0
M  V30 13187 C 1223.67 5.10508 -1.1036 0
M  V30 13188 H 1225.37 2.85501 -0.901649 0
M  V30 13189 H 1222.91 1.37272 -0.435032 0
M  V30 13190 H 1224.87 4.02938 1.23364 0
M  V30 13191 H 1223.59 2.84382 1.60606 0
M  V30 13192 H 1222.25 3.64735 -0.369274 0
M  V30 13193 H 1221.9 4.66161 1.88953 0
M  V30 13194 H 1221.6 5.846 0.593048 0
M  V30 13195 H 1223.12 5.91299 1.52307 0
M  V30 13196 H 1224.53 5.68544 -0.736943 0
M  V30 13197 H 1222.93 5.80558 -1.51895 0
M  V30 13198 H 1224 4.45117 -1.92352 0
M  V30 13199 N 1225.34 0.486708 1.49896 0
M  V30 13200 C 1226.59 -0.0627279 2.02003 0
M  V30 13201 C 1226.91 -1.38799 1.36967 0
M  V30 13202 O 1226.18 -1.88868 0.520173 0
M  V30 13203 H 1224.76 -0.0261718 0.746541 0
M  V30 13204 H 1227.43 0.640692 1.84068 0
M  V30 13205 H 1226.52 -0.202856 3.1144 0
M  V30 13206 N 1226.82 -1.56058 0.219941 0
M  V30 13207 C 1227.77 -2.20218 -0.690846 0
M  V30 13208 C 1228.74 -1.15725 -1.19151 0
M  V30 13209 O 1229.93 -1.44073 -1.2509 0
M  V30 13210 C 1227.07 -2.88477 -1.89408 0
M  V30 13211 C 1226.18 -4.07559 -1.43246 0
M  V30 13212 C 1225.31 -4.63605 -2.59314 0
M  V30 13213 C 1224.35 -5.74993 -2.0988 0
M  V30 13214 N 1223.49 -6.25337 -3.19214 0
M  V30 13215 H 1228.33 -2.97685 -0.136992 0
M  V30 13216 H 1225.87 -1.46994 -0.055865 0
M  V30 13217 H 1227.82 -3.26235 -2.60051 0
M  V30 13218 H 1226.45 -2.1353 -2.42084 0
M  V30 13219 H 1225.51 -3.75297 -0.621013 0
M  V30 13220 H 1226.82 -4.8805 -1.02997 0
M  V30 13221 H 1225.97 -5.03798 -3.38041 0
M  V30 13222 H 1224.71 -3.82274 -3.0285 0
M  V30 13223 H 1223.72 -5.34304 -1.29613 0
M  V30 13224 H 1224.94 -6.58158 -1.67345 0
M  V30 13225 H 1222.89 -5.4692 -3.62236 0
M  V30 13226 H 1222.8 -7.00947 -2.83213 0
M  V30 13227 H 1224.07 -6.70187 -3.98083 0
M  V30 13228 N 1228.3 0.053464 -1.57509 0
M  V30 13229 C 1229.53 0.765301 -1.92764 0
M  V30 13230 C 1229.95 1.69385 -0.817943 0
M  V30 13231 O 1229.31 1.7986 0.228075 0
M  V30 13232 C 1229.36 1.51938 -3.27028 0
M  V30 13233 O 1228.46 2.63121 -3.17555 0
M  V30 13234 H 1227.8 0.207567 -0.630723 0
M  V30 13235 H 1230.33 0.0162254 -2.04594 0
M  V30 13236 H 1230.34 1.89466 -3.6134 0
M  V30 13237 H 1229.02 0.838207 -4.07366 0
M  V30 13238 H 1227.59 2.28316 -2.94832 0
M  V30 13239 N 1229.78 1.54207 0.325255 0
M  V30 13240 C 1230.71 1.86467 1.40543 0
M  V30 13241 C 1231.69 0.721324 1.54048 0
M  V30 13242 O 1232.88 0.974905 1.67956 0
M  V30 13243 C 1230.01 2.09052 2.77335 0
M  V30 13244 C 1228.96 3.24893 2.78619 0
M  V30 13245 C 1228.29 3.32846 4.1847 0
M  V30 13246 C 1229.59 4.62582 2.42518 0
M  V30 13247 H 1231.28 2.76932 1.13794 0
M  V30 13248 H 1228.83 1.33248 0.545971 0
M  V30 13249 H 1230.78 2.30204 3.52964 0
M  V30 13250 H 1229.5 1.15335 3.05558 0
M  V30 13251 H 1228.16 3.03625 2.05444 0
M  V30 13252 H 1227.81 2.3669 4.43832 0
M  V30 13253 H 1227.51 4.10701 4.20237 0
M  V30 13254 H 1229.03 3.56231 4.95915 0
M  V30 13255 H 1230.45 4.83627 3.07861 0
M  V30 13256 H 1228.84 5.42974 2.55538 0
M  V30 13257 H 1229.91 4.64946 1.3767 0
M  V30 13258 N 1231.26 -0.58723 1.46251 0
M  V30 13259 C 1232.51 -1.34294 1.51028 0
M  V30 13260 C 1232.83 -1.94329 0.161623 0
M  V30 13261 O 1232.1 -1.78309 -0.811342 0
M  V30 13262 H 1230.68 -0.498607 0.556238 0
M  V30 13263 H 1233.34 -0.688074 1.8235 0
M  V30 13264 H 1232.43 -2.15197 2.26045 0
M  V30 13265 N 1232.74 -1.33881 -0.831482 0
M  V30 13266 C 1234.15 -1.13376 -1.1233 0
M  V30 13267 C 1234.35 0.0704402 -2.01377 0
M  V30 13268 O 1233.41 0.748516 -2.4115 0
M  V30 13269 C 1234.72 -2.42484 -1.77826 0
M  V30 13270 C 1236.27 -2.4846 -1.90359 0
M  V30 13271 C 1236.74 -3.77548 -2.59272 0
M  V30 13272 N 1238.23 -3.7866 -2.66778 0
M  V30 13273 C 1238.97 -4.75258 -3.20807 0
M  V30 13274 N 1238.47 -5.82234 -3.75466 0
M  V30 13275 N 1240.26 -4.62724 -3.19128 0
M  V30 13276 H 1232.41 -2.11051 -0.238998 0
M  V30 13277 H 1234.67 -0.932893 -0.168565 0
M  V30 13278 H 1234.38 -3.30647 -1.19857 0
M  V30 13279 H 1234.25 -2.55186 -2.77777 0
M  V30 13280 H 1236.64 -1.60742 -2.47479 0
M  V30 13281 H 1236.72 -2.39693 -0.893359 0
M  V30 13282 H 1236.36 -4.65651 -2.02808 0
M  V30 13283 H 1236.29 -3.83594 -3.60781 0
M  V30 13284 H 1238.79 -3.01351 -2.28026 0
M  V30 13285 H 1239.1 -6.51968 -4.14918 0
M  V30 13286 H 1237.44 -5.85959 -3.73733 0
M  V30 13287 H 1240.63 -3.78303 -2.75688 0
M  V30 13288 H 1240.81 -5.38175 -3.60932 0
M  V30 13289 N 1234.21 1.05064 -1.1747 0
M  V30 13290 C 1235.46 1.77737 -0.961979 0
M  V30 13291 C 1235.78 1.88198 0.510551 0
M  V30 13292 O 1235.05 1.39968 1.37062 0
M  V30 13293 H 1233.63 0.658366 -0.352935 0
M  V30 13294 H 1236.29 1.26851 -1.47969 0
M  V30 13295 H 1235.39 2.79368 -1.39141 0
M  V30 13296 N 1235.69 0.975146 1.23809 0
M  V30 13297 C 1236.65 0.516157 2.23312 0
M  V30 13298 C 1237.65 -0.39136 1.55965 0
M  V30 13299 O 1238.84 -0.185783 1.73206 0
M  V30 13300 C 1235.98 -0.251534 3.39971 0
M  V30 13301 H 1237.17 1.3959 2.65433 0
M  V30 13302 H 1234.72 0.760493 1.36551 0
M  V30 13303 H 1235.46 -1.14805 3.03299 0
M  V30 13304 H 1235.24 0.399825 3.90056 0
M  V30 13305 H 1236.73 -0.561438 4.13809 0
M  V30 13306 N 1237.17 -1.38817 0.746158 0
M  V30 13307 C 1238.42 -2.0028 0.299016 0
M  V30 13308 C 1238.74 -1.59221 -1.11709 0
M  V30 13309 O 1238 -0.817595 -1.77803 0
M  V30 13310 C 1238.3 -3.55571 0.361086 0
M  V30 13311 C 1237.96 -4.16317 1.73179 0
M  V30 13312 C 1236.63 -4.32622 2.10693 0
M  V30 13313 C 1238.98 -4.49905 2.63126 0
M  V30 13314 C 1236.31 -4.79808 3.3764 0
M  V30 13315 C 1238.66 -4.98504 3.89457 0
M  V30 13316 C 1237.32 -5.13016 4.27049 0
M  V30 13317 H 1236.59 -0.732877 0.109418 0
M  V30 13318 H 1239.24 -1.65977 0.955186 0
M  V30 13319 H 1237.54 -3.89966 -0.378655 0
M  V30 13320 H 1239.24 -4.01 -0.00319228 0
M  V30 13321 H 1235.83 -4.04035 1.43015 0
M  V30 13322 H 1240.02 -4.36916 2.3541 0
M  V30 13323 H 1235.27 -4.89229 3.66695 0
M  V30 13324 H 1239.45 -5.23464 4.59302 0
M  V30 13325 H 1237.07 -5.4934 5.25481 0
M  V30 13326 N 1238.65 -0.49465 -1.49636 0
M  V30 13327 C 1239.9 0.0520143 -2.02033 0
M  V30 13328 C 1240.22 1.38071 -1.37701 0
M  V30 13329 O 1239.49 1.88589 -0.530181 0
M  V30 13330 H 1238.07 0.0222123 -0.74667 0
M  V30 13331 H 1240.73 -0.650445 -1.83726 0
M  V30 13332 H 1239.82 0.186337 -3.11543 0
M  V30 13333 N 1240.13 1.55939 -0.228214 0
M  V30 13334 C 1241.07 2.20581 0.679157 0
M  V30 13335 C 1242.04 1.16355 1.18536 0
M  V30 13336 O 1243.23 1.44735 1.24324 0
M  V30 13337 C 1240.37 2.89477 1.87875 0
M  V30 13338 C 1239.48 4.08313 1.41083 0
M  V30 13339 C 1238.62 4.64974 2.56851 0
M  V30 13340 C 1237.65 5.76098 2.06828 0
M  V30 13341 N 1236.79 6.27021 3.15894 0
M  V30 13342 H 1241.63 2.97753 0.121203 0
M  V30 13343 H 1239.17 1.47021 0.0480688 0
M  V30 13344 H 1241.13 3.2761 2.58317 0
M  V30 13345 H 1239.76 2.14811 2.40948 0
M  V30 13346 H 1238.81 3.75621 0.601102 0
M  V30 13347 H 1240.12 4.8859 1.00408 0
M  V30 13348 H 1239.27 5.05584 3.35365 0
M  V30 13349 H 1238.01 3.83875 3.00818 0
M  V30 13350 H 1237.02 5.34984 1.26778 0
M  V30 13351 H 1238.24 6.59037 1.63852 0
M  V30 13352 H 1236.19 5.48833 3.5933 0
M  V30 13353 H 1236.11 7.02439 2.79491 0
M  V30 13354 H 1237.37 6.72289 3.94523 0
M  V30 13355 N 1241.6 -0.0451101 1.57535 0
M  V30 13356 C 1242.85 -0.740209 1.88809 0
M  V30 13357 C 1243.18 -1.75854 0.823956 0
M  V30 13358 O 1242.46 -1.93817 -0.16286 0
M  V30 13359 C 1242.74 -1.42424 3.30737 0
M  V30 13360 C 1242.59 -0.42052 4.4783 0
M  V30 13361 C 1243.91 -2.36241 3.7132 0
M  V30 13362 H 1241.03 -0.267628 0.686691 0
M  V30 13363 H 1243.67 -0.00309149 1.9 0
M  V30 13364 H 1241.82 -2.05254 3.29853 0
M  V30 13365 H 1243.5 0.204625 4.60846 0
M  V30 13366 H 1241.74 0.261739 4.3301 0
M  V30 13367 H 1242.41 -0.937298 5.43984 0
M  V30 13368 H 1244.89 -1.83468 3.73468 0
M  V30 13369 H 1243.76 -2.81091 4.71465 0
M  V30 13370 H 1244.02 -3.2222 3.02699 0
M  V30 13371 N 1243.08 -1.54377 -0.317073 0
M  V30 13372 C 1244.33 -1.73149 -1.05581 0
M  V30 13373 C 1244.66 -0.507176 -1.8746 0
M  V30 13374 O 1243.94 0.495837 -1.88074 0
M  V30 13375 C 1244.22 -3.01098 -1.97515 0
M  V30 13376 C 1244.07 -4.33794 -1.18922 0
M  V30 13377 C 1245.39 -3.24831 -2.9694 0
M  V30 13378 H 1242.51 -0.630011 -0.382434 0
M  V30 13379 H 1245.15 -1.87079 -0.331873 0
M  V30 13380 H 1243.3 -2.89352 -2.59244 0
M  V30 13381 H 1244.97 -4.57433 -0.596039 0
M  V30 13382 H 1243.22 -4.31005 -0.491612 0
M  V30 13383 H 1243.89 -5.19554 -1.86462 0
M  V30 13384 H 1246.36 -3.3608 -2.45335 0
M  V30 13385 H 1245.24 -4.15702 -3.58445 0
M  V30 13386 H 1245.5 -2.42365 -3.69745 0
M  V30 13387 N 1244.56 0.579466 -1.4656 0
M  V30 13388 C 1245.49 1.70291 -1.53406 0
M  V30 13389 C 1246.51 1.57232 -0.422116 0
M  V30 13390 O 1247.69 1.64598 -0.69064 0
M  V30 13391 C 1244.79 3.08572 -1.40131 0
M  V30 13392 C 1243.97 3.47602 -2.65502 0
M  V30 13393 C 1243.03 4.64955 -2.4638 0
M  V30 13394 O 1242.05 4.70653 -3.20116 0
M  V30 13395 N 1243.25 5.60041 -1.52756 0
M  V30 13396 H 1246.02 1.64873 -2.50274 0
M  V30 13397 H 1243.58 0.765533 -1.42658 0
M  V30 13398 H 1245.57 3.84877 -1.25106 0
M  V30 13399 H 1244.14 3.0834 -0.514322 0
M  V30 13400 H 1243.36 2.60969 -2.95446 0
M  V30 13401 H 1244.65 3.70446 -3.48779 0
M  V30 13402 H 1244.05 5.58176 -0.919587 0
M  V30 13403 H 1242.61 6.35764 -1.43693 0
M  V30 13404 N 1246.04 1.3432 0.824371 0
M  V30 13405 C 1247 1.25672 1.91675 0
M  V30 13406 C 1248 0.172269 1.59875 0
M  V30 13407 O 1249.19 0.424794 1.68941 0
M  V30 13408 C 1246.32 0.939928 3.27686 0
M  V30 13409 H 1247.52 2.22785 2.00766 0
M  V30 13410 H 1245.07 1.18587 1.01817 0
M  V30 13411 H 1245.8 -0.0280898 3.24288 0
M  V30 13412 H 1245.59 1.72432 3.5215 0
M  V30 13413 H 1247.08 0.904553 4.07686 0
M  V30 13414 N 1247.52 -1.0444 1.18026 0
M  V30 13415 C 1248.74 -1.81772 0.998684 0
M  V30 13416 C 1249.17 -1.82682 -0.448225 0
M  V30 13417 O 1248.52 -1.24136 -1.32136 0
M  V30 13418 C 1248.57 -3.2542 1.55352 0
M  V30 13419 O 1247.68 -4.05103 0.772351 0
M  V30 13420 H 1247.02 -0.561731 0.354054 0
M  V30 13421 H 1249.55 -1.31557 1.56697 0
M  V30 13422 H 1249.56 -3.76206 1.57903 0
M  V30 13423 H 1248.23 -3.24073 2.60672 0
M  V30 13424 H 1246.81 -3.63798 0.818852 0
M  V30 13425 N 1248.99 -0.981699 -1.2329 0
M  V30 13426 C 1249.96 -0.527992 -2.23036 0
M  V30 13427 C 1250.96 0.383083 -1.5617 0
M  V30 13428 O 1252.15 0.176595 -1.73303 0
M  V30 13429 C 1249.28 0.233501 -3.40099 0
M  V30 13430 H 1250.47 -1.40995 -2.64689 0
M  V30 13431 H 1248.03 -0.767724 -1.36146 0
M  V30 13432 H 1248.76 1.13194 -3.03904 0
M  V30 13433 H 1248.55 -0.420505 -3.89839 0
M  V30 13434 H 1250.04 0.539485 -4.14101 0
M  V30 13435 N 1250.47 1.3842 -0.753509 0
M  V30 13436 C 1251.72 2.00119 -0.309633 0
M  V30 13437 C 1252.05 1.59811 1.10863 0
M  V30 13438 O 1251.3 0.827013 1.77367 0
M  V30 13439 C 1251.6 3.55375 -0.379937 0
M  V30 13440 C 1251.27 4.15393 -1.75384 0
M  V30 13441 C 1249.93 4.31499 -2.12984 0
M  V30 13442 C 1252.28 4.48503 -2.65508 0
M  V30 13443 C 1249.61 4.78011 -3.4018 0
M  V30 13444 C 1251.96 4.96431 -3.92095 0
M  V30 13445 C 1250.63 5.10744 -4.29764 0
M  V30 13446 H 1249.9 0.732286 -0.113303 0
M  V30 13447 H 1252.54 1.65468 -0.963975 0
M  V30 13448 H 1250.85 3.90161 0.357969 0
M  V30 13449 H 1252.54 4.00996 -0.0180738 0
M  V30 13450 H 1249.13 4.03271 -1.45156 0
M  V30 13451 H 1253.32 4.35661 -2.37724 0
M  V30 13452 H 1248.57 4.87277 -3.69284 0
M  V30 13453 H 1252.75 5.21021 -4.62072 0
M  V30 13454 H 1250.38 5.46545 -5.28387 0
M  V30 13455 N 1251.95 0.502579 1.49372 0
M  V30 13456 C 1253.2 -0.0412993 2.02058 0
M  V30 13457 C 1253.52 -1.37338 1.38431 0
M  V30 13458 O 1252.79 -1.88305 0.540175 0
M  V30 13459 H 1251.37 -0.0182522 0.746777 0
M  V30 13460 H 1254.03 0.660179 1.83378 0
M  V30 13461 H 1253.13 -0.169812 3.11638 0
M  V30 13462 N 1253.43 -1.55816 0.23648 0
M  V30 13463 C 1254.68 -1.97862 -0.391579 0
M  V30 13464 C 1254.99 -1.1276 -1.59827 0
M  V30 13465 O 1256.2 -1.44772 -2.29681 0
M  V30 13466 C 1254.65 -3.5204 -0.748065 0
M  V30 13467 C 1254.26 -4.45867 0.436643 0
M  V30 13468 C 1256 -4.02766 -1.3409 0
M  V30 13469 C 1253.91 -5.91373 0.0568909 0
M  V30 13470 H 1252.84 -0.738913 -0.150078 0
M  V30 13471 H 1255.49 -1.80415 0.335052 0
M  V30 13472 H 1253.87 -3.65143 -1.53254 0
M  V30 13473 H 1255.05 -4.44519 1.21408 0
M  V30 13474 H 1253.36 -4.05565 0.943702 0
M  V30 13475 H 1255.96 -5.08987 -1.63817 0
M  V30 13476 H 1256.3 -3.49496 -2.26182 0
M  V30 13477 H 1256.84 -3.92946 -0.619548 0
M  V30 13478 H 1253.58 -6.48657 0.944682 0
M  V30 13479 H 1253.1 -5.95881 -0.684557 0
M  V30 13480 H 1254.77 -6.45972 -0.364586 0
M  V30 13481 N 1254.91 0.036755 -1.57557 0
M  V30 13482 C 1255.85 1.03975 -2.06053 0
M  V30 13483 C 1256.82 1.36384 -0.948089 0
M  V30 13484 O 1258.01 1.46853 -1.21815 0
M  V30 13485 C 1255.15 2.33796 -2.53837 0
M  V30 13486 C 1254.26 2.07614 -3.78841 0
M  V30 13487 C 1253.4 3.3125 -4.15267 0
M  V30 13488 C 1252.44 3.00587 -5.33211 0
M  V30 13489 N 1251.57 4.16653 -5.65106 0
M  V30 13490 H 1256.41 0.61924 -2.91495 0
M  V30 13491 H 1253.95 0.294151 -1.44129 0
M  V30 13492 H 1255.91 3.09639 -2.79606 0
M  V30 13493 H 1254.54 2.73584 -1.71323 0
M  V30 13494 H 1253.59 1.22302 -3.60203 0
M  V30 13495 H 1254.9 1.80989 -4.64806 0
M  V30 13496 H 1254.06 4.15466 -4.42123 0
M  V30 13497 H 1252.79 3.60981 -3.27939 0
M  V30 13498 H 1251.8 2.14772 -5.06115 0
M  V30 13499 H 1253.02 2.72142 -6.22186 0
M  V30 13500 H 1250.97 4.4635 -4.80737 0
M  V30 13501 H 1250.89 3.93425 -6.45564 0
M  V30 13502 H 1252.16 5.01764 -5.96534 0
M  V30 13503 N 1256.39 1.54543 0.308881 0
M  V30 13504 C 1257.33 1.84949 1.38067 0
M  V30 13505 C 1258.3 0.697746 1.50734 0
M  V30 13506 O 1259.49 0.94561 1.65719 0
M  V30 13507 C 1256.63 2.09544 2.74199 0
M  V30 13508 C 1255.74 3.37193 2.70046 0
M  V30 13509 C 1254.88 3.51672 3.98121 0
M  V30 13510 C 1253.91 4.73143 3.88333 0
M  V30 13511 N 1253.05 4.84469 5.08167 0
M  V30 13512 H 1257.89 2.76379 1.11438 0
M  V30 13513 H 1255.43 1.36863 0.539153 0
M  V30 13514 H 1257.39 2.21798 3.53358 0
M  V30 13515 H 1256.02 1.21389 2.99106 0
M  V30 13516 H 1255.07 3.33601 1.82796 0
M  V30 13517 H 1256.38 4.26468 2.58701 0
M  V30 13518 H 1255.53 3.63548 4.85714 0
M  V30 13519 H 1254.27 2.60516 4.1229 0
M  V30 13520 H 1253.28 4.61308 2.99124 0
M  V30 13521 H 1254.5 5.65698 3.75716 0
M  V30 13522 H 1252.45 3.96234 5.22814 0
M  V30 13523 H 1252.37 5.67733 4.99215 0
M  V30 13524 H 1253.63 5.00693 5.97434 0
M  V30 13525 N 1257.86 -0.571685 1.46866 0
M  V30 13526 C 1259.09 -1.36008 1.56578 0
M  V30 13527 C 1259.51 -1.86909 0.211326 0
M  V30 13528 O 1258.87 -1.62179 -0.810421 0
M  V30 13529 C 1258.92 -2.51598 2.58323 0
M  V30 13530 O 1258.02 -3.53383 2.1259 0
M  V30 13531 H 1257.36 -0.404593 0.526498 0
M  V30 13532 H 1259.89 -0.692357 1.92529 0
M  V30 13533 H 1259.9 -2.98366 2.78283 0
M  V30 13534 H 1258.58 -2.13904 3.56676 0
M  V30 13535 H 1257.16 -3.13019 2.02666 0
M  V30 13536 N 1259.34 -1.34755 -0.817236 0
M  V30 13537 C 1260.75 -1.24594 -1.39044 0
M  V30 13538 C 1261.1 0.126184 -1.95794 0
M  V30 13539 O 1260.23 1.02675 -1.90491 0
M  V30 13540 C 1260.82 -2.25592 -2.52772 0
M  V30 13541 C 1259.38 -2.19204 -3.05984 0
M  V30 13542 C 1258.53 -2.11884 -1.78886 0
M  V30 13543 H 1261.48 -1.46039 -0.621155 0
M  V30 13544 H 1261.5 -1.87622 -3.31026 0
M  V30 13545 H 1261.01 -3.25447 -2.11438 0
M  V30 13546 H 1259.11 -1.22725 -3.51809 0
M  V30 13547 H 1259.23 -3.10707 -3.64689 0
M  V30 13548 H 1257.59 -1.57694 -2.00012 0
M  V30 13549 H 1258.37 -3.13582 -1.39719 0
M  V30 13550 N 1260.82 1.03812 -1.18578 0
M  V30 13551 C 1262.05 1.80702 -1.00769 0
M  V30 13552 C 1262.46 1.83509 0.443833 0
M  V30 13553 O 1261.82 1.2724 1.30829 0
M  V30 13554 C 1261.87 3.26185 -1.55838 0
M  V30 13555 O 1261.59 3.23612 -2.95308 0
M  V30 13556 C 1263.09 4.1971 -1.42682 0
M  V30 13557 H 1260.31 0.568972 -0.355685 0
M  V30 13558 H 1262.86 1.30817 -1.57185 0
M  V30 13559 H 1261.01 3.73293 -1.03592 0
M  V30 13560 H 1261.43 4.14769 -3.2104 0
M  V30 13561 H 1262.9 5.19716 -1.86008 0
M  V30 13562 H 1263.38 4.37588 -0.375924 0
M  V30 13563 H 1263.98 3.78469 -1.94013 0
M  V30 13564 N 1262.3 0.988223 1.22768 0
M  V30 13565 C 1263.54 0.669599 1.93121 0
M  V30 13566 C 1263.9 -0.783331 1.75294 0
M  V30 13567 O 1265.1 -1.21315 2.39867 0
M  V30 13568 C 1263.37 1.05876 3.41358 0
M  V30 13569 S 1264.93 0.857797 4.30334 0
M  V30 13570 H 1261.75 0.244972 0.667465 0
M  V30 13571 H 1264.35 1.26952 1.48673 0
M  V30 13572 H 1263.06 2.11267 3.51844 0
M  V30 13573 H 1262.59 0.450453 3.90813 0
M  V30 13574 H 1264.6 -0.254171 4.95549 0
M  V30 13575 N 1263.78 -1.38018 0.760839 0
M  V30 13576 C 1265.19 -1.53437 0.439239 0
M  V30 13577 C 1265.39 -1.72184 -1.04666 0
M  V30 13578 O 1264.45 -1.73698 -1.83263 0
M  V30 13579 C 1265.76 -2.73724 1.24481 0
M  V30 13580 C 1267.31 -2.87579 1.23561 0
M  V30 13581 C 1267.78 -4.10836 2.02429 0
M  V30 13582 N 1269.27 -4.17928 1.99727 0
M  V30 13583 C 1270.01 -5.12309 2.57541 0
M  V30 13584 N 1269.51 -6.12317 3.24098 0
M  V30 13585 N 1271.3 -5.04712 2.47431 0
M  V30 13586 H 1263.45 -1.241 1.72375 0
M  V30 13587 H 1265.71 -0.603427 0.73115 0
M  V30 13588 H 1265.42 -2.663 2.29732 0
M  V30 13589 H 1265.29 -3.67111 0.866579 0
M  V30 13590 H 1267.68 -2.9448 0.191122 0
M  V30 13591 H 1267.76 -1.95183 1.6534 0
M  V30 13592 H 1267.4 -4.04696 3.06893 0
M  V30 13593 H 1267.33 -5.02326 1.58039 0
M  V30 13594 H 1269.83 -3.46307 1.51262 0
M  V30 13595 H 1270.14 -6.80842 3.65615 0
M  V30 13596 H 1268.48 -6.12628 3.28195 0
M  V30 13597 H 1271.67 -4.25524 1.95057 0
M  V30 13598 H 1271.85 -5.78085 2.92783 0
M  V30 13599 N 1265.25 -0.510493 -1.49103 0
M  V30 13600 C 1266.48 0.0271718 -2.06882 0
M  V30 13601 C 1266.9 1.2995 -1.36962 0
M  V30 13602 O 1266.25 1.76842 -0.450916 0
M  V30 13603 C 1266.3 0.274956 -3.60453 0
M  V30 13604 O 1266.03 -0.946941 -4.27744 0
M  V30 13605 C 1267.53 0.855197 -4.34973 0
M  V30 13606 H 1264.75 -0.024732 -0.670544 0
M  V30 13607 H 1267.29 -0.710567 -1.91758 0
M  V30 13608 H 1265.45 0.962696 -3.75248 0
M  V30 13609 H 1265.86 -0.715627 -5.19595 0
M  V30 13610 H 1267.33 0.978103 -5.43265 0
M  V30 13611 H 1267.81 1.85535 -3.98087 0
M  V30 13612 H 1268.42 0.204632 -4.24807 0
M  V30 13613 N 1266.73 1.55688 -0.24474 0
M  V30 13614 C 1267.98 1.99186 0.381167 0
M  V30 13615 C 1268.31 1.13266 1.57748 0
M  V30 13616 O 1267.59 0.195568 1.93514 0
M  V30 13617 C 1267.87 3.51257 0.793142 0
M  V30 13618 C 1267.72 4.47942 -0.408409 0
M  V30 13619 C 1269.04 4.08365 1.64091 0
M  V30 13620 H 1266.16 0.724141 0.137073 0
M  V30 13621 H 1268.8 1.8683 -0.345619 0
M  V30 13622 H 1266.95 3.61917 1.4124 0
M  V30 13623 H 1268.62 4.49265 -1.04682 0
M  V30 13624 H 1266.87 4.20854 -1.05189 0
M  V30 13625 H 1267.54 5.51946 -0.0768531 0
M  V30 13626 H 1270.01 4.00794 1.1182 0
M  V30 13627 H 1268.89 5.1504 1.89802 0
M  V30 13628 H 1269.15 3.56687 2.61202 0
M  V30 13629 N 1268.21 -0.0283989 1.57574 0
M  V30 13630 C 1269.17 -1.01346 2.05576 0
M  V30 13631 C 1270.17 -1.28999 0.960001 0
M  V30 13632 O 1271.36 -1.23991 1.2236 0
M  V30 13633 C 1268.49 -2.34611 2.47327 0
M  V30 13634 H 1269.69 -0.598809 2.93861 0
M  V30 13635 H 1267.24 -0.27524 1.53857 0
M  V30 13636 H 1267.98 -2.80823 1.622 0
M  V30 13637 H 1267.76 -2.1587 3.27326 0
M  V30 13638 H 1269.25 -3.05332 2.84889 0
M  V30 13639 N 1269.69 -1.54705 -0.300681 0
M  V30 13640 C 1270.93 -1.74259 -1.03738 0
M  V30 13641 C 1271.27 -0.52703 -1.86912 0
M  V30 13642 O 1270.54 0.475862 -1.88589 0
M  V30 13643 C 1270.82 -3.03175 -1.94311 0
M  V30 13644 C 1270.68 -4.35031 -1.14315 0
M  V30 13645 C 1272 -3.27962 -2.93478 0
M  V30 13646 H 1269.12 -0.634031 -0.37573 0
M  V30 13647 H 1271.76 -1.87421 -0.312012 0
M  V30 13648 H 1269.91 -2.92086 -2.5616 0
M  V30 13649 H 1271.58 -4.5804 -0.547489 0
M  V30 13650 H 1269.82 -4.31503 -0.44587 0
M  V30 13651 H 1270.49 -5.21502 -1.80941 0
M  V30 13652 H 1272.97 -3.38663 -2.41757 0
M  V30 13653 H 1271.85 -4.19481 -3.54016 0
M  V30 13654 H 1272.11 -2.46273 -3.67154 0
M  V30 13655 N 1271.17 0.563888 -1.47167 0
M  V30 13656 C 1272.11 1.67151 -1.59152 0
M  V30 13657 C 1273.08 1.60307 -0.434852 0
M  V30 13658 O 1274.27 1.7924 -0.654049 0
M  V30 13659 C 1271.41 3.0548 -1.60549 0
M  V30 13660 C 1270.52 3.2281 -2.87085 0
M  V30 13661 C 1269.66 4.51498 -2.79862 0
M  V30 13662 C 1268.7 4.62237 -4.01252 0
M  V30 13663 N 1267.83 5.82273 -3.92305 0
M  V30 13664 H 1272.67 1.56245 -2.53755 0
M  V30 13665 H 1270.21 0.761219 -1.25872 0
M  V30 13666 H 1272.17 3.85572 -1.59343 0
M  V30 13667 H 1270.8 3.15237 -0.69464 0
M  V30 13668 H 1269.85 2.36196 -2.98188 0
M  V30 13669 H 1271.16 3.2661 -3.76997 0
M  V30 13670 H 1270.32 5.39842 -2.76867 0
M  V30 13671 H 1269.05 4.50166 -1.87621 0
M  V30 13672 H 1268.06 3.72307 -4.04558 0
M  V30 13673 H 1269.28 4.65334 -4.94612 0
M  V30 13674 H 1267.23 5.81902 -3.02862 0
M  V30 13675 H 1267.15 5.87422 -4.7589 0
M  V30 13676 H 1268.42 6.72996 -3.93315 0
M  V30 13677 N 1272.64 1.35187 0.810078 0
M  V30 13678 C 1273.58 1.22171 1.92742 0
M  V30 13679 C 1274.56 0.110393 1.62225 0
M  V30 13680 O 1275.74 0.27786 1.86441 0
M  V30 13681 C 1272.87 0.880367 3.27058 0
M  V30 13682 C 1271.91 2.00325 3.76527 0
M  V30 13683 S 1272.75 3.6185 3.94747 0
M  V30 13684 C 1273.9 3.29784 5.31971 0
M  V30 13685 H 1274.13 2.16749 2.03488 0
M  V30 13686 H 1271.67 1.20362 0.967072 0
M  V30 13687 H 1273.63 0.690224 4.04656 0
M  V30 13688 H 1272.29 -0.0472868 3.14064 0
M  V30 13689 H 1271.48 1.71847 4.73798 0
M  V30 13690 H 1271.08 2.15154 3.05916 0
M  V30 13691 H 1273.37 2.82396 6.1584 0
M  V30 13692 H 1274.32 4.26243 5.6544 0
M  V30 13693 H 1274.72 2.65641 4.98092 0
M  V30 13694 N 1274.12 -1.03182 1.19127 0
M  V30 13695 C 1275.05 -2.13301 0.94999 0
M  V30 13696 C 1276.03 -1.69707 -0.115577 0
M  V30 13697 O 1277.22 -1.94161 0.0388395 0
M  V30 13698 C 1274.35 -3.43902 0.484637 0
M  V30 13699 C 1273.3 -4.01164 1.4917 0
M  V30 13700 C 1272.63 -5.2735 0.883537 0
M  V30 13701 C 1273.93 -4.36311 2.87107 0
M  V30 13702 H 1275.62 -2.33743 1.87095 0
M  V30 13703 H 1273.17 -1.12332 0.900977 0
M  V30 13704 H 1275.12 -4.20308 0.30315 0
M  V30 13705 H 1273.85 -3.23173 -0.471909 0
M  V30 13706 H 1272.5 -3.26849 1.66028 0
M  V30 13707 H 1272.15 -5.02936 -0.0804712 0
M  V30 13708 H 1271.85 -5.66624 1.55599 0
M  V30 13709 H 1273.38 -6.06425 0.71278 0
M  V30 13710 H 1274.79 -5.03666 2.73848 0
M  V30 13711 H 1273.19 -4.86659 3.51117 0
M  V30 13712 H 1274.26 -3.45743 3.39985 0
M  V30 13713 N 1275.6 -0.99472 -1.22242 0
M  V30 13714 C 1276.55 -0.546504 -2.24236 0
M  V30 13715 C 1277.52 0.422101 -1.60647 0
M  V30 13716 O 1278.7 0.326452 -1.87987 0
M  V30 13717 C 1275.84 0.130909 -3.44852 0
M  V30 13718 C 1274.96 -0.879653 -4.22949 0
M  V30 13719 C 1274.09 -0.175569 -5.3091 0
M  V30 13720 C 1273.13 -1.17438 -6.00729 0
M  V30 13721 N 1272.27 -0.498474 -7.00328 0
M  V30 13722 H 1277.11 -1.42099 -2.61939 0
M  V30 13723 H 1274.64 -0.711755 -1.28734 0
M  V30 13724 H 1276.6 0.540596 -4.13683 0
M  V30 13725 H 1275.23 0.96917 -3.07907 0
M  V30 13726 H 1274.28 -1.40765 -3.53397 0
M  V30 13727 H 1275.6 -1.64017 -4.71062 0
M  V30 13728 H 1274.75 0.290756 -6.06003 0
M  V30 13729 H 1273.49 0.617438 -4.83776 0
M  V30 13730 H 1272.49 -1.65131 -5.24416 0
M  V30 13731 H 1273.72 -1.96829 -6.4995 0
M  V30 13732 H 1271.66 0.275063 -6.55423 0
M  V30 13733 H 1271.58 -1.19741 -7.46457 0
M  V30 13734 H 1272.85 -0.0550119 -7.79481 0
M  V30 13735 N 1277.08 1.37613 -0.768148 0
M  V30 13736 C 1277.99 2.34103 -0.152649 0
M  V30 13737 C 1279 1.6 0.683811 0
M  V30 13738 O 1280.18 1.92112 0.604572 0
M  V30 13739 C 1277.25 3.39164 0.718954 0
M  V30 13740 C 1276.31 4.29092 -0.13355 0
M  V30 13741 C 1275.54 5.29135 0.696547 0
M  V30 13742 O 1275.76 5.36618 1.93383 0
M  V30 13743 O 1274.7 6.01804 0.107652 0
M  V30 13744 H 1278.52 2.88462 -0.949899 0
M  V30 13745 H 1276.11 1.39711 -0.529252 0
M  V30 13746 H 1277.99 4.03454 1.21665 0
M  V30 13747 H 1276.66 2.87137 1.49445 0
M  V30 13748 H 1275.57 3.67914 -0.677528 0
M  V30 13749 H 1276.9 4.84413 -0.872048 0
M  V30 13750 N 1278.56 0.518393 1.4883 0
M  V30 13751 C 1279.8 -0.019866 2.0209 0
M  V30 13752 C 1280.13 -1.35863 1.3988 0
M  V30 13753 O 1279.4 -1.87722 0.560117 0
M  V30 13754 H 1277.98 -0.0103306 0.746929 0
M  V30 13755 H 1280.64 0.679591 1.82668 0
M  V30 13756 H 1279.73 -0.136749 3.118 0
M  V30 13757 N 1280.03 -1.55556 0.252993 0
M  V30 13758 C 1281 -2.20351 -0.630705 0
M  V30 13759 C 1282 -1.17461 -1.09816 0
M  V30 13760 O 1283.19 -1.42505 -1.00189 0
M  V30 13761 C 1280.32 -2.85192 -1.86757 0
M  V30 13762 H 1281.51 -2.99829 -0.0652939 0
M  V30 13763 H 1279.07 -1.563 0.00347982 0
M  V30 13764 H 1279.8 -2.09669 -2.47406 0
M  V30 13765 H 1279.59 -3.60569 -1.54053 0
M  V30 13766 H 1281.08 -3.34762 -2.49648 0
M  V30 13767 N 1281.51 0.0200419 -1.57587 0
M  V30 13768 C 1282.74 0.720556 -1.93947 0
M  V30 13769 C 1283.16 1.68407 -0.853499 0
M  V30 13770 O 1282.51 1.81713 0.169337 0
M  V30 13771 C 1282.56 1.46982 -3.3027 0
M  V30 13772 O 1282.28 0.544971 -4.34697 0
M  V30 13773 C 1283.79 2.26667 -3.80968 0
M  V30 13774 H 1281.01 0.201956 -0.639887 0
M  V30 13775 H 1283.55 -0.0251175 -2.04485 0
M  V30 13776 H 1281.7 2.16729 -3.21103 0
M  V30 13777 H 1282.12 1.07139 -5.13441 0
M  V30 13778 H 1283.59 2.74621 -4.78839 0
M  V30 13779 H 1284.07 3.0848 -3.12629 0
M  V30 13780 H 1284.68 1.61976 -3.93248 0
M  V30 13781 N 1282.99 1.54862 0.292472 0
M  V30 13782 C 1283.95 1.8565 1.34413 0
M  V30 13783 C 1284.95 0.729868 1.43281 0
M  V30 13784 O 1286.14 0.998128 1.42769 0
M  V30 13785 C 1283.28 2.0444 2.72795 0
M  V30 13786 H 1284.47 2.79642 1.08354 0
M  V30 13787 H 1282.02 1.47055 0.529574 0
M  V30 13788 H 1282.76 1.12765 3.04063 0
M  V30 13789 H 1282.54 2.86451 2.67747 0
M  V30 13790 H 1284.03 2.296 3.48817 0
M  V30 13791 N 1284.47 -0.556076 1.47464 0
M  V30 13792 C 1285.69 -1.3434 1.58011 0
M  V30 13793 C 1286.12 -1.86674 0.231138 0
M  V30 13794 O 1285.48 -1.63029 -0.793174 0
M  V30 13795 C 1285.52 -2.48844 2.60977 0
M  V30 13796 O 1284.63 -3.51108 2.16326 0
M  V30 13797 H 1283.97 -0.398986 0.53076 0
M  V30 13798 H 1286.5 -0.671898 1.93253 0
M  V30 13799 H 1286.51 -2.95398 2.81432 0
M  V30 13800 H 1285.18 -2.10109 3.58925 0
M  V30 13801 H 1283.76 -3.10852 2.05975 0
M  V30 13802 N 1285.95 -1.35615 -0.802897 0
M  V30 13803 C 1286.86 -1.3096 -1.94645 0
M  V30 13804 C 1287.87 -0.213909 -1.7268 0
M  V30 13805 O 1289.05 -0.443932 -1.96446 0
M  V30 13806 C 1286.11 -1.08483 -3.2929 0
M  V30 13807 C 1285.18 -2.27401 -3.64126 0
M  V30 13808 C 1284.41 -2.05987 -4.92347 0
M  V30 13809 O 1284.63 -1.02819 -5.61057 0
M  V30 13810 O 1283.57 -2.93439 -5.25526 0
M  V30 13811 H 1287.39 -2.27209 -2.01519 0
M  V30 13812 H 1284.98 -1.16024 -0.941214 0
M  V30 13813 H 1286.86 -0.978118 -4.09891 0
M  V30 13814 H 1285.53 -0.152885 -3.23339 0
M  V30 13815 H 1284.44 -2.43638 -2.83886 0
M  V30 13816 H 1285.77 -3.19055 -3.74786 0
M  V30 13817 N 1287.43 1.02549 -1.19673 0
M  V30 13818 C 1288.66 1.79363 -1.02531 0
M  V30 13819 C 1289.06 1.84274 0.42893 0
M  V30 13820 O 1288.41 1.28813 1.30969 0
M  V30 13821 C 1288.47 3.2567 -1.52248 0
M  V30 13822 C 1288.13 3.44386 -3.00412 0
M  V30 13823 C 1289.13 3.34329 -3.98146 0
M  V30 13824 C 1286.81 3.70491 -3.39178 0
M  V30 13825 C 1288.81 3.50106 -5.3264 0
M  V30 13826 C 1286.5 3.85912 -4.7383 0
M  V30 13827 C 1287.49 3.75723 -5.70369 0
M  V30 13828 O 1287.18 3.90685 -7.02581 0
M  V30 13829 H 1286.91 0.571194 -0.361544 0
M  V30 13830 H 1289.47 1.30029 -1.59002 0
M  V30 13831 H 1287.7 3.76044 -0.901548 0
M  V30 13832 H 1289.39 3.8409 -1.31262 0
M  V30 13833 H 1290.15 3.14109 -3.69541 0
M  V30 13834 H 1286.03 3.77513 -2.64585 0
M  V30 13835 H 1289.58 3.42069 -6.07976 0
M  V30 13836 H 1285.47 4.05631 -5.02129 0
M  V30 13837 H 1286.24 4.07756 -7.09702 0
M  V30 13838 N 1288.9 1.00119 1.21713 0
M  V30 13839 C 1289.85 0.558388 2.23943 0
M  V30 13840 C 1290.82 -0.413576 1.60869 0
M  V30 13841 O 1292.01 -0.316478 1.88157 0
M  V30 13842 C 1289.15 -0.112618 3.44916 0
M  V30 13843 C 1288.26 0.902071 4.22477 0
M  V30 13844 C 1287.39 0.203722 5.30809 0
M  V30 13845 C 1286.43 1.20622 6.00097 0
M  V30 13846 N 1285.57 0.535607 7.00054 0
M  V30 13847 H 1290.41 1.43486 2.61182 0
M  V30 13848 H 1287.95 0.718572 1.28355 0
M  V30 13849 H 1289.9 -0.51865 4.13964 0
M  V30 13850 H 1288.53 -0.952827 3.08417 0
M  V30 13851 H 1287.59 1.42637 3.52645 0
M  V30 13852 H 1288.9 1.66513 4.70186 0
M  V30 13853 H 1288.05 -0.258614 6.06149 0
M  V30 13854 H 1286.79 -0.591773 4.84096 0
M  V30 13855 H 1285.8 1.6791 5.23532 0
M  V30 13856 H 1287.02 2.00273 6.48897 0
M  V30 13857 H 1284.97 -0.2403 6.5556 0
M  V30 13858 H 1284.88 1.23698 7.45812 0
M  V30 13859 H 1286.15 0.0963489 7.7944 0
M  V30 13860 N 1290.38 -1.37203 0.775435 0
M  V30 13861 C 1291.34 -2.28566 0.170406 0
M  V30 13862 C 1292.34 -1.48195 -0.624085 0
M  V30 13863 O 1293.53 -1.68364 -0.447132 0
M  V30 13864 C 1290.67 -3.32186 -0.765829 0
M  V30 13865 H 1291.86 -2.8358 0.975824 0
M  V30 13866 H 1289.41 -1.46531 0.543895 0
M  V30 13867 H 1290.15 -2.82303 -1.59611 0
M  V30 13868 H 1289.93 -3.91598 -0.198251 0
M  V30 13869 H 1291.42 -4.0045 -1.18446 0
M  V30 13870 N 1291.86 -0.526279 -1.48553 0
M  V30 13871 C 1292.79 0.227364 -2.3239 0
M  V30 13872 C 1293.77 0.93862 -1.41859 0
M  V30 13873 O 1294.96 0.925119 -1.70749 0
M  V30 13874 C 1292.09 1.277 -3.22971 0
M  V30 13875 C 1291.04 0.684107 -4.22497 0
M  V30 13876 C 1290.37 1.83612 -5.02186 0
M  V30 13877 C 1291.67 -0.341723 -5.21181 0
M  V30 13878 H 1293.36 -0.472486 -2.95648 0
M  V30 13879 H 1290.91 -0.228669 -1.42173 0
M  V30 13880 H 1292.86 1.81215 -3.80446 0
M  V30 13881 H 1291.58 2.00638 -2.57705 0
M  V30 13882 H 1290.24 0.170505 -3.66203 0
M  V30 13883 H 1289.89 2.55379 -4.33348 0
M  V30 13884 H 1289.59 1.44536 -5.69547 0
M  V30 13885 H 1291.11 2.37513 -5.62512 0
M  V30 13886 H 1292.53 0.106207 -5.73202 0
M  V30 13887 H 1290.92 -0.649673 -5.96573 0
M  V30 13888 H 1291.99 -1.2488 -4.68543 0
M  V30 13889 N 1293.34 1.5542 -0.261239 0
M  V30 13890 C 1294.27 2.18043 0.673222 0
M  V30 13891 C 1295.25 1.13696 1.16242 0
M  V30 13892 O 1296.43 1.42153 1.23793 0
M  V30 13893 C 1293.56 2.7926 1.91655 0
M  V30 13894 C 1292.61 3.96788 1.56402 0
M  V30 13895 S 1293.44 5.31489 0.654191 0
M  V30 13896 C 1294.59 5.96167 1.9062 0
M  V30 13897 H 1294.83 2.96965 0.141076 0
M  V30 13898 H 1292.36 1.54333 -0.0455871 0
M  V30 13899 H 1294.32 3.15162 2.63026 0
M  V30 13900 H 1292.98 2.00257 2.41983 0
M  V30 13901 H 1292.17 4.38262 2.48882 0
M  V30 13902 H 1291.77 3.62237 0.930618 0
M  V30 13903 H 1294.07 6.14556 2.8518 0
M  V30 13904 H 1295.01 6.91269 1.53471 0
M  V30 13905 H 1295.42 5.25381 2.06483 0
M  V30 13906 N 1294.82 -0.0116844 1.57596 0
M  V30 13907 C 1296.04 -0.71026 1.94327 0
M  V30 13908 C 1296.46 -1.67952 0.862418 0
M  V30 13909 O 1295.82 -1.818 -0.159698 0
M  V30 13910 C 1295.87 -1.45228 3.31045 0
M  V30 13911 O 1295.59 -0.52191 4.3498 0
M  V30 13912 C 1297.09 -2.24644 3.82165 0
M  V30 13913 H 1294.31 -0.198559 0.640949 0
M  V30 13914 H 1296.85 0.0359615 2.04468 0
M  V30 13915 H 1295.01 -2.15023 3.22248 0
M  V30 13916 H 1295.42 -1.04415 5.14002 0
M  V30 13917 H 1296.9 -2.72078 4.80289 0
M  V30 13918 H 1297.37 -3.06817 3.14261 0
M  V30 13919 H 1297.98 -1.59888 3.94101 0
M  V30 13920 N 1296.29 -1.55015 -0.284256 0
M  V30 13921 C 1297.2 -1.90203 -1.37332 0
M  V30 13922 C 1298.22 -0.797994 -1.54622 0
M  V30 13923 O 1299.4 -1.09602 -1.68965 0
M  V30 13924 C 1296.46 -2.15687 -2.71441 0
M  V30 13925 C 1295.52 -3.39313 -2.62993 0
M  V30 13926 C 1294.75 -3.63571 -3.90707 0
M  V30 13927 O 1294.98 -2.90538 -4.9086 0
M  V30 13928 O 1293.91 -4.57102 -3.91589 0
M  V30 13929 H 1297.74 -2.82888 -1.1049 0
M  V30 13930 H 1295.32 -1.41418 -0.481798 0
M  V30 13931 H 1297.2 -2.33553 -3.50758 0
M  V30 13932 H 1295.88 -1.26185 -2.98092 0
M  V30 13933 H 1294.79 -3.26793 -1.82091 0
M  V30 13934 H 1296.12 -4.28997 -2.41293 0
M  V30 13935 N 1297.77 0.548248 -1.47757 0
M  V30 13936 C 1298.7 1.66409 -1.63799 0
M  V30 13937 C 1299.68 1.62973 -0.487211 0
M  V30 13938 O 1300.87 1.80455 -0.717612 0
M  V30 13939 C 1298 3.05035 -1.66046 0
M  V30 13940 C 1296.95 3.23322 -2.80441 0
M  V30 13941 C 1296.28 4.62824 -2.67765 0
M  V30 13942 C 1297.58 3.07837 -4.2194 0
M  V30 13943 H 1299.27 1.53239 -2.57212 0
M  V30 13944 H 1296.82 0.735783 -1.23783 0
M  V30 13945 H 1298.77 3.82951 -1.75859 0
M  V30 13946 H 1297.49 3.19185 -0.69199 0
M  V30 13947 H 1296.15 2.47816 -2.70153 0
M  V30 13948 H 1295.8 4.73786 -1.68927 0
M  V30 13949 H 1295.5 4.76007 -3.44515 0
M  V30 13950 H 1297.03 5.42864 -2.7952 0
M  V30 13951 H 1298.44 3.75563 -4.33157 0
M  V30 13952 H 1296.84 3.32525 -4.99547 0
M  V30 13953 H 1297.91 2.04474 -4.3968 0
M  V30 13954 N 1299.25 1.36039 0.795694 0
M  V30 13955 C 1300.2 1.29853 1.90806 0
M  V30 13956 C 1301.17 0.168387 1.65244 0
M  V30 13957 O 1302.35 0.353879 1.8749 0
M  V30 13958 C 1299.49 1.08737 3.27521 0
M  V30 13959 C 1298.6 2.30771 3.65197 0
M  V30 13960 C 1297.74 2.02718 4.90998 0
M  V30 13961 C 1296.78 3.20746 5.21333 0
M  V30 13962 N 1295.92 2.92399 6.38316 0
M  V30 13963 H 1300.76 2.2497 1.95429 0
M  V30 13964 H 1298.29 1.11819 0.955771 0
M  V30 13965 H 1300.25 0.945236 4.06351 0
M  V30 13966 H 1298.88 0.172781 3.22337 0
M  V30 13967 H 1297.93 2.5581 2.81541 0
M  V30 13968 H 1299.24 3.18869 3.83568 0
M  V30 13969 H 1298.4 1.85398 5.77679 0
M  V30 13970 H 1297.14 1.11921 4.74684 0
M  V30 13971 H 1296.14 3.38632 4.33138 0
M  V30 13972 H 1297.37 4.1236 5.3957 0
M  V30 13973 H 1295.31 2.04207 6.23406 0
M  V30 13974 H 1295.23 3.74034 6.56989 0
M  V30 13975 H 1296.5 2.78643 7.27996 0
M  V30 13976 N 1300.73 -1.01913 1.20215 0
M  V30 13977 C 1301.98 -1.74878 1.00502 0
M  V30 13978 C 1302.29 -1.90022 -0.463792 0
M  V30 13979 O 1303.5 -2.60055 -0.779982 0
M  V30 13980 C 1301.95 -3.1452 1.74943 0
M  V30 13981 C 1301.56 -3.07397 3.259 0
M  V30 13982 C 1303.3 -3.91713 1.63589 0
M  V30 13983 C 1301.21 -4.42032 3.92889 0
M  V30 13984 H 1300.14 -0.655603 0.372426 0
M  V30 13985 H 1302.79 -1.13978 1.4381 0
M  V30 13986 H 1301.17 -3.75946 1.24421 0
M  V30 13987 H 1302.35 -2.55294 3.83617 0
M  V30 13988 H 1300.66 -2.43698 3.37639 0
M  V30 13989 H 1303.26 -4.91316 2.1098 0
M  V30 13990 H 1303.6 -4.12074 0.591665 0
M  V30 13991 H 1304.14 -3.3691 2.11511 0
M  V30 13992 H 1300.88 -4.26874 4.97453 0
M  V30 13993 H 1300.4 -4.94151 3.39962 0
M  V30 13994 H 1302.07 -5.10884 3.96997 0
M  V30 13995 N 1302.21 -1.00763 -1.2118 0
M  V30 13996 C 1303.14 -0.590493 -2.2591 0
M  V30 13997 C 1304.12 0.390002 -1.65569 0
M  V30 13998 O 1305.3 0.277406 -1.92208 0
M  V30 13999 C 1302.43 0.0810388 -3.47205 0
M  V30 14000 C 1301.39 -0.81951 -4.20081 0
M  V30 14001 C 1300.71 -0.014244 -5.34698 0
M  V30 14002 C 1302.01 -2.12336 -4.7719 0
M  V30 14003 H 1303.71 -1.46595 -2.61056 0
M  V30 14004 H 1301.25 -0.706321 -1.25487 0
M  V30 14005 H 1303.21 0.384355 -4.19644 0
M  V30 14006 H 1301.93 0.991145 -3.11197 0
M  V30 14007 H 1300.59 -1.10669 -3.49497 0
M  V30 14008 H 1300.24 0.897233 -4.94933 0
M  V30 14009 H 1299.94 -0.613883 -5.84384 0
M  V30 14010 H 1301.46 0.282827 -6.09945 0
M  V30 14011 H 1302.87 -1.88301 -5.41494 0
M  V30 14012 H 1301.27 -2.67308 -5.37277 0
M  V30 14013 H 1302.34 -2.79238 -3.96427 0
M  V30 14014 N 1303.68 1.3679 -0.7827 0
M  V30 14015 C 1304.91 2.03678 -0.363734 0
M  V30 14016 C 1305.33 1.59024 1.01768 0
M  V30 14017 O 1304.68 0.776541 1.65155 0
M  V30 14018 C 1304.74 3.59165 -0.410213 0
M  V30 14019 O 1304.46 4.02188 -1.73714 0
M  V30 14020 C 1305.96 4.43296 0.018972 0
M  V30 14021 H 1303.18 0.653828 -0.150829 0
M  V30 14022 H 1305.72 1.74903 -1.05968 0
M  V30 14023 H 1303.88 3.86673 0.237249 0
M  V30 14024 H 1304.29 4.96754 -1.68332 0
M  V30 14025 H 1305.76 5.51962 -0.0646943 0
M  V30 14026 H 1306.24 4.25948 1.07076 0
M  V30 14027 H 1306.85 4.21036 -0.600721 0
M  V30 14028 N 1305.16 0.53415 1.48272 0
M  V30 14029 C 1306.11 -0.246268 2.26666 0
M  V30 14030 C 1307.1 -0.906149 1.32958 0
M  V30 14031 O 1308.29 -0.808266 1.57468 0
M  V30 14032 C 1305.42 -1.29001 3.18141 0
M  V30 14033 C 1304.5 -0.634704 4.19324 0
M  V30 14034 N 1304.89 0.281972 5.05013 0
M  V30 14035 C 1303.19 -0.891412 4.37001 0
M  V30 14036 C 1303.89 0.660411 5.77939 0
M  V30 14037 N 1302.87 0.0205295 5.43596 0
M  V30 14038 H 1306.67 0.458881 2.90296 0
M  V30 14039 H 1304.19 0.352466 1.58529 0
M  V30 14040 H 1306.18 -1.86285 3.72966 0
M  V30 14041 H 1304.84 -1.99649 2.56067 0
M  V30 14042 H 1305.85 0.654819 5.13744 0
M  V30 14043 H 1302.53 -1.58815 3.86114 0
M  V30 14044 H 1303.92 1.41231 6.56889 0
M  V30 14045 N 1306.64 -1.55279 0.269478 0
M  V30 14046 C 1307.89 -1.98649 -0.349522 0
M  V30 14047 C 1308.2 -1.16125 -1.57399 0
M  V30 14048 O 1309.41 -1.49612 -2.26558 0
M  V30 14049 C 1307.86 -3.53547 -0.673224 0
M  V30 14050 C 1307.47 -4.44841 0.531119 0
M  V30 14051 C 1309.22 -4.05519 -1.25516 0
M  V30 14052 C 1307.12 -5.91119 0.182317 0
M  V30 14053 H 1306.05 -0.74193 -0.13437 0
M  V30 14054 H 1308.7 -1.79664 0.373246 0
M  V30 14055 H 1307.09 -3.68311 -1.45474 0
M  V30 14056 H 1308.26 -4.41843 1.3081 0
M  V30 14057 H 1306.58 -4.03472 1.02952 0
M  V30 14058 H 1309.17 -5.12347 -1.52984 0
M  V30 14059 H 1309.52 -3.54215 -2.18718 0
M  V30 14060 H 1310.05 -3.94172 -0.536059 0
M  V30 14061 H 1306.79 -6.46507 1.08206 0
M  V30 14062 H 1306.31 -5.97199 -0.558008 0
M  V30 14063 H 1307.99 -6.466 -0.227484 0
M  V30 14064 N 1308.12 0.00332656 -1.576 0
M  V30 14065 C 1309.37 0.687508 -1.90047 0
M  V30 14066 C 1309.69 1.74497 -0.870388 0
M  V30 14067 O 1308.96 1.95681 0.0926544 0
M  V30 14068 H 1307.54 0.256924 -0.701426 0
M  V30 14069 H 1310.2 -0.0368129 -1.94865 0
M  V30 14070 H 1309.3 1.16086 -2.89707 0
M  V30 14071 N 1309.6 1.55164 0.276031 0
M  V30 14072 C 1310.55 1.84223 1.34335 0
M  V30 14073 C 1311.53 0.700934 1.4483 0
M  V30 14074 O 1312.72 0.962204 1.48562 0
M  V30 14075 C 1309.85 2.11496 2.70415 0
M  V30 14076 C 1308.94 3.31877 2.64043 0
M  V30 14077 N 1309.33 4.51856 2.27289 0
M  V30 14078 C 1307.63 3.34406 2.95108 0
M  V30 14079 C 1308.33 5.33939 2.30833 0
M  V30 14080 N 1307.3 4.72271 2.69186 0
M  V30 14081 H 1311.11 2.74533 1.04922 0
M  V30 14082 H 1308.62 1.54999 0.484661 0
M  V30 14083 H 1310.62 2.3047 3.47404 0
M  V30 14084 H 1309.28 1.22468 3.00719 0
M  V30 14085 H 1310.29 4.78009 1.99318 0
M  V30 14086 H 1306.96 2.55561 3.30144 0
M  V30 14087 H 1308.35 6.39862 2.05004 0
M  V30 14088 N 1311.07 -0.540404 1.48045 0
M  V30 14089 C 1312.02 -1.64191 1.58194 0
M  V30 14090 C 1313.01 -1.54775 0.439703 0
M  V30 14091 O 1314.2 -1.62973 0.690572 0
M  V30 14092 C 1311.33 -3.02937 1.61505 0
M  V30 14093 C 1310.42 -3.17495 2.81172 0
M  V30 14094 N 1310.81 -3.02061 4.05701 0
M  V30 14095 C 1309.1 -3.4853 2.78286 0
M  V30 14096 C 1309.81 -3.19757 4.85932 0
M  V30 14097 N 1308.78 -3.46859 4.18557 0
M  V30 14098 H 1312.58 -1.50852 2.52232 0
M  V30 14099 H 1310.1 -0.745602 1.44272 0
M  V30 14100 H 1312.09 -3.82048 1.66868 0
M  V30 14101 H 1310.75 -3.17376 0.685753 0
M  V30 14102 H 1311.77 -2.79038 4.363 0
M  V30 14103 H 1308.44 -3.69391 1.94567 0
M  V30 14104 H 1309.83 -3.1265 5.94727 0
M  V30 14105 N 1312.55 -1.36459 -0.788468 0
M  V30 14106 C 1313.48 -1.33545 -1.91541 0
M  V30 14107 C 1314.46 -0.206762 -1.68839 0
M  V30 14108 O 1315.65 -0.404553 -1.89939 0
M  V30 14109 C 1312.78 -1.12492 -3.28577 0
M  V30 14110 C 1311.73 -2.22196 -3.65805 0
M  V30 14111 C 1311.06 -1.86285 -5.01201 0
M  V30 14112 C 1312.36 -3.64286 -3.7429 0
M  V30 14113 H 1314.05 -2.27844 -1.94236 0
M  V30 14114 H 1311.6 -1.09677 -0.933105 0
M  V30 14115 H 1313.55 -1.09089 -4.07035 0
M  V30 14116 H 1312.28 -0.146446 -3.26272 0
M  V30 14117 H 1310.93 -2.24727 -2.89644 0
M  V30 14118 H 1310.58 -0.87009 -4.95417 0
M  V30 14119 H 1310.28 -2.59734 -5.27079 0
M  V30 14120 H 1311.81 -1.84439 -5.82078 0
M  V30 14121 H 1313.22 -3.63977 -4.42937 0
M  V30 14122 H 1311.62 -4.36648 -4.11653 0
M  V30 14123 H 1312.69 -3.99123 -2.75371 0
M  V30 14124 N 1314.03 1.01274 -1.20754 0
M  V30 14125 C 1314.98 2.12012 -0.95675 0
M  V30 14126 C 1315.97 1.69143 0.0932738 0
M  V30 14127 O 1317.18 1.79908 -0.0574298 0
M  V30 14128 H 1313.55 0.692956 -0.292088 0
M  V30 14129 H 1315.52 2.30347 -1.89692 0
M  V30 14130 C 1314.27 3.43643 -0.529602 0
M  V30 14131 H 1313.6 3.77058 -1.32918 0
M  V30 14132 H 1315.04 4.22171 -0.393376 0
M  V30 14133 C 1313.5 3.2825 0.758505 0
M  V30 14134 O 1314.03 3.58309 1.81598 0
M  V30 14135 N 1312.23 2.81487 0.722022 0
M  V30 14136 H 1311.78 2.57226 -0.138807 0
M  V30 14137 H 1311.74 2.7157 1.58421 0
M  V30 14138 N 1315.51 1.01404 1.20644 0
M  V30 14139 C 1316.76 0.702949 1.90227 0
M  V30 14140 C 1317.09 -0.765243 1.78487 0
M  V30 14141 O 1316.36 -1.55569 1.16741 0
M  V30 14142 C 1316.65 1.13606 3.4171 0
M  V30 14143 C 1316.5 2.66437 3.62397 0
M  V30 14144 C 1317.82 0.705361 4.34411 0
M  V30 14145 H 1314.94 0.256842 0.690797 0
M  V30 14146 H 1317.58 1.26133 1.42093 0
M  V30 14147 H 1315.73 0.660977 3.82836 0
M  V30 14148 H 1317.4 3.21778 3.3054 0
M  V30 14149 H 1315.64 3.0753 3.05954 0
M  V30 14150 H 1316.32 2.91795 4.68572 0
M  V30 14151 H 1318.79 1.11375 4.00918 0
M  V30 14152 H 1317.67 1.03647 5.39026 0
M  V30 14153 H 1317.93 -0.393094 4.40349 0
M  V30 14154 N 1316.99 -1.36373 0.789944 0
M  V30 14155 C 1318.23 -1.99523 0.363119 0
M  V30 14156 C 1318.57 -1.6255 -1.0626 0
M  V30 14157 O 1317.84 -0.880551 -1.73426 0
M  V30 14158 C 1318.12 -3.56215 0.527526 0
M  V30 14159 C 1317.98 -4.0304 1.99697 0
M  V30 14160 C 1319.3 -4.40063 -0.0571079 0
M  V30 14161 H 1316.42 -0.724824 0.133412 0
M  V30 14162 H 1319.06 -1.61778 0.996381 0
M  V30 14163 H 1317.21 -3.88498 -0.0115636 0
M  V30 14164 H 1318.88 -3.81241 2.59717 0
M  V30 14165 H 1317.12 -3.54561 2.49939 0
M  V30 14166 H 1317.79 -5.12001 2.06297 0
M  V30 14167 H 1320.27 -4.14143 0.403082 0
M  V30 14168 H 1319.15 -5.4883 0.0879494 0
M  V30 14169 H 1319.41 -4.26901 -1.14926 0
M  V30 14170 N 1318.47 -0.542005 -1.47987 0
M  V30 14171 C 1319.41 0.227398 -2.31486 0
M  V30 14172 C 1320.41 0.923984 -1.41982 0
M  V30 14173 O 1321.61 0.847 -1.58827 0
M  V30 14174 H 1317.99 0.0922034 -0.746326 0
M  V30 14175 H 1319.96 -0.49625 -2.94245 0
M  V30 14176 C 1318.71 1.25384 -3.24306 0
M  V30 14177 H 1318.03 0.727243 -3.9313 0
M  V30 14178 H 1319.47 1.76337 -3.85592 0
M  V30 14179 C 1317.93 2.29378 -2.46754 0
M  V30 14180 O 1318.46 3.36034 -2.201 0
M  V30 14181 N 1316.67 2.02905 -2.08033 0
M  V30 14182 H 1316.21 1.16186 -2.2991 0
M  V30 14183 H 1316.17 2.72705 -1.56458 0
M  V30 14184 N 1319.94 1.55134 -0.277709 0
M  V30 14185 C 1320.87 2.256 0.602232 0
M  V30 14186 C 1321.85 1.24708 1.15681 0
M  V30 14187 O 1323.04 1.53433 1.19046 0
M  V30 14188 C 1320.17 2.97907 1.78519 0
M  V30 14189 C 1319.12 4.0575 1.36203 0
M  V30 14190 C 1318.45 4.65644 2.62829 0
M  V30 14191 C 1319.75 5.19801 0.510327 0
M  V30 14192 H 1321.44 2.99396 0.0145622 0
M  V30 14193 H 1318.99 1.43999 0.00556389 0
M  V30 14194 H 1320.94 3.45915 2.40668 0
M  V30 14195 H 1319.67 2.21649 2.39873 0
M  V30 14196 H 1318.33 3.58557 0.763726 0
M  V30 14197 H 1317.97 3.86053 3.22447 0
M  V30 14198 H 1317.67 5.38463 2.35227 0
M  V30 14199 H 1319.2 5.16403 3.25823 0
M  V30 14200 H 1320.61 5.63845 1.03689 0
M  V30 14201 H 1319.01 5.99197 0.329073 0
M  V30 14202 H 1320.08 4.82614 -0.470273 0
M  V30 14203 N 1321.42 0.00503138 1.57599 0
M  V30 14204 C 1322.35 -0.983586 2.11773 0
M  V30 14205 C 1323.33 -1.35518 1.02805 0
M  V30 14206 O 1324.52 -1.43804 1.30514 0
M  V30 14207 C 1321.65 -2.27383 2.62515 0
M  V30 14208 C 1320.6 -2.0437 3.76054 0
M  V30 14209 C 1319.93 -3.39451 4.1313 0
M  V30 14210 C 1321.23 -1.40223 5.03125 0
M  V30 14211 H 1322.92 -0.532501 2.94627 0
M  V30 14212 H 1320.47 -0.254696 1.4173 0
M  V30 14213 H 1322.42 -2.96903 2.99043 0
M  V30 14214 H 1321.14 -2.74614 1.7679 0
M  V30 14215 H 1319.8 -1.37275 3.39928 0
M  V30 14216 H 1319.45 -3.84395 3.24422 0
M  V30 14217 H 1319.15 -3.24868 4.89627 0
M  V30 14218 H 1320.68 -4.10279 4.52221 0
M  V30 14219 H 1322.09 -1.99708 5.37392 0
M  V30 14220 H 1320.49 -1.36112 5.8446 0
M  V30 14221 H 1321.56 -0.372073 4.8347 0
M  V30 14222 N 1322.9 -1.55308 -0.267798 0
M  V30 14223 C 1324.15 -1.75811 -0.996734 0
M  V30 14224 C 1324.47 -0.565161 -1.8663 0
M  V30 14225 O 1323.74 0.419775 -1.9135 0
M  V30 14226 H 1322.32 -0.648353 -0.371008 0
M  V30 14227 H 1324.98 -1.92719 -0.290775 0
M  V30 14228 H 1324.08 -2.66113 -1.63064 0
M  V30 14229 N 1324.38 0.532545 -1.4833 0
M  V30 14230 C 1325.34 1.61955 -1.62183 0
M  V30 14231 C 1326.34 1.52982 -0.495281 0
M  V30 14232 O 1327.53 1.56698 -0.761005 0
M  V30 14233 C 1324.66 3.0157 -1.58961 0
M  V30 14234 H 1325.86 1.51013 -2.59105 0
M  V30 14235 H 1323.41 0.754405 -1.36888 0
M  V30 14236 H 1324.14 3.18021 -0.635069 0
M  V30 14237 H 1323.93 3.09491 -2.40744 0
M  V30 14238 H 1325.42 3.80604 -1.71843 0
M  V30 14239 N 1325.86 1.36875 0.78122 0
M  V30 14240 C 1327.1 1.32949 1.55254 0
M  V30 14241 C 1327.46 -0.0879862 1.91798 0
M  V30 14242 O 1328.66 -0.251878 2.67617 0
M  V30 14243 C 1326.93 2.23382 2.78989 0
M  V30 14244 S 1328.49 2.37218 3.69152 0
M  V30 14245 H 1325.31 0.472105 0.531637 0
M  V30 14246 H 1327.91 1.72529 0.91945 0
M  V30 14247 H 1326.61 3.25307 2.50207 0
M  V30 14248 H 1326.15 1.84852 3.47266 0
M  V30 14249 H 1328.16 1.57575 4.70515 0
M  V30 14250 N 1327.33 -1.00632 1.21289 0
M  V30 14251 C 1328.56 -1.77967 1.05524 0
M  V30 14252 C 1328.98 -1.84621 -0.395023 0
M  V30 14253 O 1328.33 -1.30664 -1.27409 0
M  V30 14254 C 1328.38 -3.21939 1.64432 0
M  V30 14255 O 1328.11 -3.15669 3.03784 0
M  V30 14256 C 1329.61 -4.1578 1.5376 0
M  V30 14257 H 1326.83 -0.559341 0.370646 0
M  V30 14258 H 1329.37 -1.26604 1.60598 0
M  V30 14259 H 1327.53 -3.70415 1.13453 0
M  V30 14260 H 1327.94 -4.06112 3.31924 0
M  V30 14261 H 1329.41 -5.14602 1.99722 0
M  V30 14262 H 1329.89 -4.36438 0.491811 0
M  V30 14263 H 1330.5 -3.73192 2.0398 0
M  V30 14264 N 1328.81 -1.02043 -1.20104 0
M  V30 14265 C 1329.76 -0.593945 -2.23027 0
M  V30 14266 C 1330.73 0.387931 -1.61506 0
M  V30 14267 O 1331.91 0.286504 -1.88637 0
M  V30 14268 C 1329.05 0.0577309 -3.45052 0
M  V30 14269 C 1328.17 -0.969169 -4.20988 0
M  V30 14270 C 1327.3 -0.288143 -5.30418 0
M  V30 14271 C 1326.34 -1.30154 -5.98102 0
M  V30 14272 N 1325.48 -0.646912 -6.99113 0
M  V30 14273 H 1330.32 -1.47623 -2.58866 0
M  V30 14274 H 1327.85 -0.738901 -1.27195 0
M  V30 14275 H 1329.81 0.452726 -4.14736 0
M  V30 14276 H 1328.44 0.90364 -3.09894 0
M  V30 14277 H 1327.49 -1.48229 -3.50332 0
M  V30 14278 H 1328.81 -1.73972 -4.67477 0
M  V30 14279 H 1327.96 0.162149 -6.06483 0
M  V30 14280 H 1326.7 0.514683 -4.84977 0
M  V30 14281 H 1325.7 -1.76218 -5.20795 0
M  V30 14282 H 1326.93 -2.10571 -6.45629 0
M  V30 14283 H 1324.88 0.135976 -6.55859 0
M  V30 14284 H 1324.79 -1.35548 -7.43749 0
M  V30 14285 H 1326.06 -0.220339 -7.79189 0
M  V30 14286 N 1330.29 1.35952 -0.797165 0
M  V30 14287 C 1331.22 2.28649 -0.15877 0
M  V30 14288 C 1332.24 1.49842 0.636481 0
M  V30 14289 O 1333.42 1.72191 0.47039 0
M  V30 14290 C 1330.52 3.29373 0.797913 0
M  V30 14291 C 1329.7 4.3737 0.0510574 0
M  V30 14292 C 1328.76 5.18009 0.924826 0
M  V30 14293 O 1327.78 5.67935 0.379223 0
M  V30 14294 N 1328.98 5.352 2.24813 0
M  V30 14295 H 1331.75 2.84075 -0.955056 0
M  V30 14296 H 1329.31 1.48201 -0.651767 0
M  V30 14297 H 1331.3 3.80209 1.38646 0
M  V30 14298 H 1329.87 2.74531 1.49504 0
M  V30 14299 H 1329.09 3.87594 -0.718633 0
M  V30 14300 H 1330.38 5.0668 -0.464025 0
M  V30 14301 H 1329.78 4.96266 2.71545 0
M  V30 14302 H 1328.34 5.89252 2.78614 0
M  V30 14303 N 1331.77 0.549846 1.47697 0
M  V30 14304 C 1333.02 0.0230048 2.02087 0
M  V30 14305 C 1333.34 -1.32865 1.4273 0
M  V30 14306 O 1332.61 -1.86492 0.59981 0
M  V30 14307 H 1331.19 0.00551514 0.74698 0
M  V30 14308 H 1333.85 0.718185 1.81185 0
M  V30 14309 H 1332.95 -0.0705813 3.1202 0
M  V30 14310 N 1333.25 -1.54984 0.285932 0
M  V30 14311 C 1334.49 -1.99436 -0.32709 0
M  V30 14312 C 1334.82 -1.17582 -1.55562 0
M  V30 14313 O 1334.09 -0.268002 -1.94058 0
M  V30 14314 H 1332.67 -0.736662 -0.123846 0
M  V30 14315 H 1335.33 -1.90881 0.393774 0
M  V30 14316 H 1334.42 -3.0609 -0.609523 0
M  V30 14317 N 1334.72 -0.0133892 -1.57594 0
M  V30 14318 C 1336.14 0.527615 -1.7909 0
M  V30 14319 C 1336.49 1.73179 -0.922142 0
M  V30 14320 O 1335.61 2.1602 -0.128233 0
M  V30 14321 C 1336.21 0.963949 -3.24798 0
M  V30 14322 C 1334.77 1.45017 -3.47343 0
M  V30 14323 C 1333.91 0.407548 -2.74289 0
M  V30 14324 H 1336.86 -0.239505 -1.56882 0
M  V30 14325 H 1336.88 1.82924 -3.33645 0
M  V30 14326 H 1336.4 0.0873315 -3.88002 0
M  V30 14327 H 1334.5 2.34724 -2.89371 0
M  V30 14328 H 1334.61 1.4684 -4.56043 0
M  V30 14329 H 1332.97 0.872174 -2.39301 0
M  V30 14330 H 1333.76 -0.460333 -3.402 0
M  V30 14331 N 1336.2 1.55448 0.259558 0
M  V30 14332 C 1337.13 1.9226 1.32508 0
M  V30 14333 C 1338.11 0.786012 1.5085 0
M  V30 14334 O 1339.3 1.04526 1.6367 0
M  V30 14335 C 1336.43 2.20627 2.68218 0
M  V30 14336 C 1335.38 3.36418 2.64589 0
M  V30 14337 C 1334.71 3.50295 4.03977 0
M  V30 14338 C 1336.01 4.72452 2.2268 0
M  V30 14339 H 1337.7 2.81509 1.01945 0
M  V30 14340 H 1335.25 1.35444 0.488965 0
M  V30 14341 H 1337.2 2.44968 3.42883 0
M  V30 14342 H 1335.93 1.28191 3.00391 0
M  V30 14343 H 1334.58 3.12065 1.92382 0
M  V30 14344 H 1334.23 2.55302 4.33394 0
M  V30 14345 H 1333.93 4.28155 4.02439 0
M  V30 14346 H 1335.46 3.76944 4.8036 0
M  V30 14347 H 1336.87 4.96249 2.87071 0
M  V30 14348 H 1335.27 5.53323 2.32279 0
M  V30 14349 H 1336.34 4.70367 1.17826 0
M  V30 14350 N 1337.68 -0.524672 1.4861 0
M  V30 14351 C 1338.61 -1.64555 1.58104 0
M  V30 14352 C 1339.59 -1.56778 0.431205 0
M  V30 14353 O 1340.78 -1.77175 0.643537 0
M  V30 14354 C 1337.9 -3.02979 1.51398 0
M  V30 14355 C 1336.95 -3.29098 2.71287 0
M  V30 14356 S 1337.78 -3.14791 4.33206 0
M  V30 14357 C 1338.94 -4.55652 4.29107 0
M  V30 14358 H 1339.17 -1.56254 2.52927 0
M  V30 14359 H 1336.7 -0.708041 1.37208 0
M  V30 14360 H 1338.66 -3.82809 1.48215 0
M  V30 14361 H 1337.32 -3.08717 0.579026 0
M  V30 14362 H 1336.52 -4.30092 2.62749 0
M  V30 14363 H 1336.12 -2.56949 2.7176 0
M  V30 14364 H 1338.41 -5.47277 3.99367 0
M  V30 14365 H 1339.35 -4.69244 5.30298 0
M  V30 14366 H 1339.76 -4.35223 3.59501 0
M  V30 14367 N 1339.16 -1.37287 -0.77395 0
M  V30 14368 C 1340.4 -1.3257 -1.5347 0
M  V30 14369 C 1340.74 0.090346 -1.9399 0
M  V30 14370 O 1340.01 1.04719 -1.63903 0
M  V30 14371 C 1340.3 -2.26277 -2.80126 0
M  V30 14372 C 1340.15 -3.76651 -2.45874 0
M  V30 14373 C 1341.47 -2.18471 -3.82045 0
M  V30 14374 H 1338.59 -0.48289 -0.556764 0
M  V30 14375 H 1341.23 -1.6797 -0.888039 0
M  V30 14376 H 1339.38 -1.96219 -3.35306 0
M  V30 14377 H 1341.05 -4.17296 -1.96626 0
M  V30 14378 H 1339.29 -3.95327 -1.78602 0
M  V30 14379 H 1339.96 -4.3765 -3.36403 0
M  V30 14380 H 1342.44 -2.44962 -3.36352 0
M  V30 14381 H 1341.32 -2.86183 -4.68392 0
M  V30 14382 H 1341.58 -1.17692 -4.26147 0
M  V30 14383 N 1340.64 0.999871 -1.21821 0
M  V30 14384 C 1341.89 1.73257 -1.03271 0
M  V30 14385 C 1342.2 1.90736 0.433502 0
M  V30 14386 O 1343.4 2.61263 0.738511 0
M  V30 14387 C 1341.86 3.11697 -1.79925 0
M  V30 14388 C 1341.47 3.02173 -3.3075 0
M  V30 14389 C 1343.21 3.89061 -1.698 0
M  V30 14390 C 1341.12 4.35725 -3.99872 0
M  V30 14391 H 1340.05 0.649595 -0.382809 0
M  V30 14392 H 1342.7 1.11676 -1.45605 0
M  V30 14393 H 1341.08 3.73919 -1.30386 0
M  V30 14394 H 1342.26 2.49158 -3.8763 0
M  V30 14395 H 1340.57 2.38296 -3.41473 0
M  V30 14396 H 1343.17 4.87897 -2.1877 0
M  V30 14397 H 1343.51 4.11081 -0.657148 0
M  V30 14398 H 1344.04 3.33502 -2.16844 0
M  V30 14399 H 1340.78 4.18906 -5.04181 0
M  V30 14400 H 1340.3 4.8868 -3.47781 0
M  V30 14401 H 1341.98 5.04503 -4.05075 0
M  V30 14402 N 1342.11 1.02678 1.19562 0
M  V30 14403 C 1343.36 0.723086 1.89471 0
M  V30 14404 C 1343.69 -0.746269 1.79289 0
M  V30 14405 O 1342.97 -1.54322 1.18384 0
M  V30 14406 C 1343.25 1.17224 3.40486 0
M  V30 14407 C 1343.1 2.70266 3.5955 0
M  V30 14408 C 1344.42 0.751397 4.33638 0
M  V30 14409 H 1341.54 0.264155 0.688034 0
M  V30 14410 H 1344.18 1.27633 1.40747 0
M  V30 14411 H 1342.33 0.701544 3.82113 0
M  V30 14412 H 1344.01 3.25266 3.27108 0
M  V30 14413 H 1342.25 3.10758 3.02675 0
M  V30 14414 H 1342.92 2.96748 4.65451 0
M  V30 14415 H 1345.4 1.15621 3.99714 0
M  V30 14416 H 1344.27 1.09358 5.37896 0
M  V30 14417 H 1344.53 -0.346367 4.40741 0
M  V30 14418 N 1343.59 -1.35528 0.804364 0
M  V30 14419 C 1344.5 -2.33616 0.214663 0
M  V30 14420 C 1345.52 -1.61757 -0.64115 0
M  V30 14421 O 1346.69 -1.93647 -0.553424 0
M  V30 14422 C 1343.76 -3.40951 -0.628778 0
M  V30 14423 C 1342.82 -4.28587 0.247269 0
M  V30 14424 C 1342.05 -5.30796 -0.556012 0
M  V30 14425 O 1342.28 -5.41557 -1.79088 0
M  V30 14426 O 1341.21 -6.01878 0.0519437 0
M  V30 14427 H 1345.04 -2.85843 1.02605 0
M  V30 14428 H 1342.62 -1.38259 0.566108 0
M  V30 14429 H 1344.5 -4.06538 -1.10926 0
M  V30 14430 H 1343.18 -2.90999 -1.4178 0
M  V30 14431 H 1342.09 -3.65988 0.774835 0
M  V30 14432 H 1343.42 -4.81931 1.00017 0
M  V30 14433 N 1345.07 -0.557671 -1.47404 0
M  V30 14434 C 1346.3 -0.0386038 -2.06564 0
M  V30 14435 C 1346.71 1.26075 -1.41074 0
M  V30 14436 O 1346.05 1.76723 -0.501453 0
M  V30 14437 C 1346.11 0.22746 -3.5878 0
M  V30 14438 C 1345.78 -0.982526 -4.46313 0
M  V30 14439 C 1346.78 -1.88821 -4.84399 0
M  V30 14440 C 1344.46 -1.19733 -4.87821 0
M  V30 14441 C 1346.45 -2.99238 -5.62793 0
M  V30 14442 C 1344.14 -2.30459 -5.65979 0
M  V30 14443 C 1345.14 -3.20042 -6.03375 0
M  V30 14444 O 1344.83 -4.28849 -6.79959 0
M  V30 14445 H 1344.56 -0.0430229 -0.67463 0
M  V30 14446 H 1347.11 -0.770801 -1.90389 0
M  V30 14447 H 1345.34 1.01397 -3.73169 0
M  V30 14448 H 1347.03 0.691966 -3.99958 0
M  V30 14449 H 1347.8 -1.73431 -4.52931 0
M  V30 14450 H 1343.68 -0.509223 -4.58179 0
M  V30 14451 H 1347.22 -3.69187 -5.91901 0
M  V30 14452 H 1343.12 -2.45821 -5.9686 0
M  V30 14453 H 1343.89 -4.26903 -6.98353 0
M  V30 14454 N 1346.55 1.54831 -0.294147 0
M  V30 14455 C 1347.79 2.0191 0.318092 0
M  V30 14456 C 1348.15 1.178 1.51615 0
M  V30 14457 O 1349.35 1.54546 2.1993 0
M  V30 14458 C 1347.63 3.51018 0.672375 0
M  V30 14459 S 1349.18 4.20066 1.26845 0
M  V30 14460 H 1346 0.704215 0.0979881 0
M  V30 14461 H 1348.6 1.90926 -0.420422 0
M  V30 14462 H 1347.31 4.09872 -0.208159 0
M  V30 14463 H 1346.84 3.66025 1.44186 0
M  V30 14464 H 1348.85 4.25274 2.55649 0
M  V30 14465 N 1348.03 0.0217466 1.57585 0
M  V30 14466 C 1348.97 -0.962559 2.0977 0
M  V30 14467 C 1349.94 -1.32771 0.998053 0
M  V30 14468 O 1351.13 -1.42231 1.27181 0
M  V30 14469 C 1348.27 -2.24214 2.62339 0
M  V30 14470 C 1347.38 -1.9341 3.86286 0
M  V30 14471 C 1346.52 -3.15609 4.27275 0
M  V30 14472 C 1345.56 -2.8059 5.43999 0
M  V30 14473 N 1344.69 -3.95392 5.8018 0
M  V30 14474 H 1349.53 -0.510626 2.93593 0
M  V30 14475 H 1347.07 -0.240456 1.45121 0
M  V30 14476 H 1349.03 -2.99049 2.90905 0
M  V30 14477 H 1347.66 -2.67037 1.81358 0
M  V30 14478 H 1346.71 -1.08849 3.64494 0
M  V30 14479 H 1348.02 -1.63614 4.71203 0
M  V30 14480 H 1347.18 -3.9877 4.57239 0
M  V30 14481 H 1345.92 -3.48561 3.41111 0
M  V30 14482 H 1344.92 -1.9584 5.13738 0
M  V30 14483 H 1346.15 -2.48863 6.31858 0
M  V30 14484 H 1344.09 -4.282 4.96971 0
M  V30 14485 H 1344.01 -3.69195 6.59721 0
M  V30 14486 H 1345.28 -4.79279 6.14746 0
M  V30 14487 N 1349.51 -1.55583 -0.251311 0
M  V30 14488 C 1350.74 -1.80996 -0.99619 0
M  V30 14489 C 1351.14 -0.594534 -1.79616 0
M  V30 14490 O 1350.49 0.446197 -1.78199 0
M  V30 14491 C 1350.55 -2.99691 -1.98559 0
M  V30 14492 C 1350.21 -4.35888 -1.37297 0
M  V30 14493 C 1351.21 -5.14051 -0.777672 0
M  V30 14494 C 1348.89 -4.82579 -1.39366 0
M  V30 14495 C 1350.89 -6.3705 -0.211225 0
M  V30 14496 C 1348.58 -6.05528 -0.823357 0
M  V30 14497 C 1349.57 -6.82602 -0.233163 0
M  V30 14498 O 1349.26 -8.03229 0.328345 0
M  V30 14499 H 1348.99 -0.606287 -0.298985 0
M  V30 14500 H 1351.55 -2.03471 -0.280813 0
M  V30 14501 H 1349.78 -2.7296 -2.73915 0
M  V30 14502 H 1351.47 -3.12235 -2.59354 0
M  V30 14503 H 1352.23 -4.791 -0.754228 0
M  V30 14504 H 1348.11 -4.22582 -1.84243 0
M  V30 14505 H 1351.66 -6.97152 0.250073 0
M  V30 14506 H 1347.55 -6.39957 -0.844114 0
M  V30 14507 H 1348.32 -8.18205 0.219785 0
M  V30 14508 N 1350.98 0.516783 -1.48886 0
M  V30 14509 C 1352.23 1.26936 -1.57263 0
M  V30 14510 C 1352.55 1.93337 -0.254156 0
M  V30 14511 O 1351.82 1.81977 0.725345 0
M  V30 14512 H 1350.4 0.4715 -0.579393 0
M  V30 14513 H 1353.06 0.600289 -1.85425 0
M  V30 14514 H 1352.16 2.04167 -2.36055 0
M  V30 14515 N 1352.46 1.37696 0.766659 0
M  V30 14516 C 1353.41 1.33966 1.90147 0
M  V30 14517 C 1354.4 0.2276 1.67864 0
M  V30 14518 O 1355.61 0.395912 1.75592 0
M  V30 14519 H 1351.98 0.417611 0.625384 0
M  V30 14520 H 1353.96 2.29753 1.9041 0
M  V30 14521 C 1352.7 1.16859 3.27474 0
M  V30 14522 H 1352.03 2.01686 3.452 0
M  V30 14523 H 1353.47 1.18301 4.07162 0
M  V30 14524 C 1351.93 -0.125418 3.36666 0
M  V30 14525 O 1352.46 -1.10717 3.86141 0
M  V30 14526 N 1350.66 -0.17784 2.90055 0
M  V30 14527 H 1350.21 0.621737 2.49984 0
M  V30 14528 H 1350.17 -1.04325 2.96587 0
M  V30 14529 N 1353.94 -0.993397 1.22349 0
M  V30 14530 C 1354.87 -2.10171 1.01737 0
M  V30 14531 C 1355.85 -1.69989 -0.0615276 0
M  V30 14532 O 1357.04 -1.93939 0.100591 0
M  V30 14533 C 1354.17 -3.42186 0.593801 0
M  V30 14534 C 1353.12 -3.96215 1.61858 0
M  V30 14535 C 1352.45 -5.24272 1.05086 0
M  V30 14536 C 1353.75 -4.26956 3.00842 0
M  V30 14537 H 1355.44 -2.27673 1.94436 0
M  V30 14538 H 1352.99 -1.09408 0.936258 0
M  V30 14539 H 1354.94 -4.19131 0.436715 0
M  V30 14540 H 1353.66 -3.2451 -0.368855 0
M  V30 14541 H 1352.32 -3.21401 1.76343 0
M  V30 14542 H 1351.97 -5.02937 0.0795747 0
M  V30 14543 H 1351.67 -5.61387 1.73547 0
M  V30 14544 H 1353.19 -6.03851 0.905349 0
M  V30 14545 H 1354.61 -4.94699 2.89734 0
M  V30 14546 H 1353 -4.75242 3.66422 0
M  V30 14547 H 1354.07 -3.34752 3.50812 0
M  V30 14548 N 1355.42 -1.03311 -1.19015 0
M  V30 14549 C 1356.64 -0.751686 -1.93299 0
M  V30 14550 C 1357.07 0.68392 -1.75226 0
M  V30 14551 O 1356.43 1.47274 -1.05736 0
M  V30 14552 C 1356.47 -1.11335 -3.42982 0
M  V30 14553 O 1355.58 -0.234434 -4.11733 0
M  V30 14554 H 1354.92 -0.277331 -0.60331 0
M  V30 14555 H 1357.45 -1.38092 -1.5097 0
M  V30 14556 H 1357.46 -1.07204 -3.93664 0
M  V30 14557 H 1356.13 -2.15922 -3.55458 0
M  V30 14558 H 1354.71 -0.3347 -3.71395 0
M  V30 14559 N 1356.9 1.35099 -0.81154 0
M  V30 14560 C 1357.84 2.31618 -0.213536 0
M  V30 14561 C 1358.84 1.56868 0.63944 0
M  V30 14562 O 1360.04 1.71957 0.532051 0
M  V30 14563 H 1356.42 0.750316 -0.0502963 0
M  V30 14564 H 1358.39 2.79593 -1.04262 0
M  V30 14565 C 1357.14 3.4214 0.619293 0
M  V30 14566 H 1356.46 3.9979 -0.0277192 0
M  V30 14567 H 1357.9 4.11941 1.00401 0
M  V30 14568 C 1356.36 2.85607 1.7869 0
M  V30 14569 O 1356.89 2.7956 2.8846 0
M  V30 14570 N 1355.1 2.42587 1.6 0
M  V30 14571 H 1354.64 2.47705 0.707105 0
M  V30 14572 H 1354.6 2.0511 2.38279 0
M  V30 14573 N 1358.37 0.56548 1.47106 0
M  V30 14574 C 1359.6 0.0495579 2.06541 0
M  V30 14575 C 1360.01 -1.25325 1.4174 0
M  V30 14576 O 1359.35 -1.76455 0.510818 0
M  V30 14577 C 1359.42 -0.20843 3.58895 0
M  V30 14578 C 1359.08 1.00618 4.45786 0
M  V30 14579 C 1360.08 1.91387 4.83391 0
M  V30 14580 C 1357.76 1.22318 4.87179 0
M  V30 14581 C 1359.76 3.02218 5.61198 0
M  V30 14582 C 1357.44 2.33457 5.64749 0
M  V30 14583 C 1358.44 3.23238 6.0167 0
M  V30 14584 O 1358.13 4.32449 6.77675 0
M  V30 14585 H 1357.86 0.0466 0.674392 0
M  V30 14586 H 1360.42 0.780887 1.89977 0
M  V30 14587 H 1358.65 -0.994169 3.73702 0
M  V30 14588 H 1360.33 -0.670745 4.0032 0
M  V30 14589 H 1361.1 1.75831 4.52005 0
M  V30 14590 H 1356.98 0.533514 4.57902 0
M  V30 14591 H 1360.52 3.72321 5.89935 0
M  V30 14592 H 1356.42 2.48983 5.95548 0
M  V30 14593 H 1357.19 4.306 6.96079 0
M  V30 14594 N 1359.85 -1.54672 0.302354 0
M  V30 14595 C 1360.78 -2.2653 -0.566265 0
M  V30 14596 C 1361.76 -1.26532 -1.13682 0
M  V30 14597 O 1362.95 -1.55307 -1.1659 0
M  V30 14598 C 1360.08 -3.00709 -1.73757 0
M  V30 14599 C 1359.03 -4.07865 -1.29731 0
M  V30 14600 C 1358.36 -4.69767 -2.55388 0
M  V30 14601 C 1359.66 -5.20547 -0.427567 0
M  V30 14602 H 1361.35 -2.99382 0.033071 0
M  V30 14603 H 1358.9 -1.4399 0.0173458 0
M  V30 14604 H 1360.85 -3.497 -2.35134 0
M  V30 14605 H 1359.58 -2.25437 -2.36317 0
M  V30 14606 H 1358.23 -3.59726 -0.706586 0
M  V30 14607 H 1357.88 -3.91134 -3.16265 0
M  V30 14608 H 1357.58 -5.42137 -2.26631 0
M  V30 14609 H 1359.11 -5.21521 -3.17566 0
M  V30 14610 H 1360.52 -5.65424 -0.947053 0
M  V30 14611 H 1358.92 -5.99645 -0.233704 0
M  V30 14612 H 1359.99 -4.81805 0.546993 0
M  V30 14613 N 1361.33 -0.0301034 -1.57571 0
M  V30 14614 C 1362.28 0.951421 -2.10277 0
M  V30 14615 C 1363.25 1.3224 -1.00508 0
M  V30 14616 O 1364.43 1.41554 -1.27934 0
M  V30 14617 C 1361.57 2.2282 -2.63525 0
M  V30 14618 C 1360.69 1.91359 -3.87306 0
M  V30 14619 C 1359.82 3.13339 -4.28943 0
M  V30 14620 C 1358.86 2.77701 -5.4548 0
M  V30 14621 N 1358 3.9231 -5.82269 0
M  V30 14622 H 1362.84 0.495049 -2.93859 0
M  V30 14623 H 1360.37 0.232756 -1.45247 0
M  V30 14624 H 1362.33 2.97502 -2.92487 0
M  V30 14625 H 1360.96 2.66072 -1.82772 0
M  V30 14626 H 1360.01 1.06915 -3.65066 0
M  V30 14627 H 1361.33 1.61112 -4.72064 0
M  V30 14628 H 1360.48 3.9634 -4.59347 0
M  V30 14629 H 1359.22 3.46747 -3.42954 0
M  V30 14630 H 1358.22 1.93113 -5.14769 0
M  V30 14631 H 1359.45 2.45508 -6.33169 0
M  V30 14632 H 1357.39 4.25559 -4.99235 0
M  V30 14633 H 1357.31 3.65691 -6.61669 0
M  V30 14634 H 1358.58 4.76012 -6.17279 0
M  V30 14635 N 1362.81 1.55714 0.243056 0
M  V30 14636 C 1364.03 1.82126 0.992219 0
M  V30 14637 C 1364.46 0.607665 1.78014 0
M  V30 14638 O 1363.82 -0.443351 1.75796 0
M  V30 14639 C 1363.86 3.06314 1.90274 0
M  V30 14640 O 1362.97 2.83499 2.99503 0
M  V30 14641 H 1362.31 0.601082 0.282128 0
M  V30 14642 H 1364.84 2.02904 0.262881 0
M  V30 14643 H 1364.85 3.35849 2.31666 0
M  V30 14644 H 1363.52 3.94282 1.32344 0
M  V30 14645 H 1362.1 2.65141 2.62211 0
M  V30 14646 N 1364.29 -0.50888 1.49158 0
M  V30 14647 C 1365.23 -1.61129 1.65246 0
M  V30 14648 C 1366.2 -1.58582 0.49405 0
M  V30 14649 O 1367.39 -1.76689 0.720122 0
M  V30 14650 C 1364.53 -2.99311 1.71776 0
M  V30 14651 C 1363.64 -3.11933 2.98868 0
M  V30 14652 C 1362.78 -4.408 2.96426 0
M  V30 14653 C 1361.82 -4.47027 4.18131 0
M  V30 14654 N 1360.95 -5.67311 4.13645 0
M  V30 14655 H 1365.79 -1.4672 2.59379 0
M  V30 14656 H 1363.33 -0.713978 1.28611 0
M  V30 14657 H 1365.29 -3.79392 1.73543 0
M  V30 14658 H 1363.92 -3.12442 0.811159 0
M  V30 14659 H 1362.97 -2.24966 3.06748 0
M  V30 14660 H 1364.28 -3.12393 3.8886 0
M  V30 14661 H 1363.44 -5.29194 2.96712 0
M  V30 14662 H 1362.17 -4.42893 2.04199 0
M  V30 14663 H 1361.18 -3.57036 4.18097 0
M  V30 14664 H 1362.4 -4.46656 5.11542 0
M  V30 14665 H 1360.35 -5.70261 3.2425 0
M  V30 14666 H 1360.27 -5.69355 4.97364 0
M  V30 14667 H 1361.54 -6.57934 4.18022 0
M  V30 14668 N 1365.76 -1.381 -0.759346 0
M  V30 14669 C 1367.18 -1.19171 -1.06162 0
M  V30 14670 C 1367.38 -0.0364043 -2.01467 0
M  V30 14671 O 1366.44 0.619635 -2.44779 0
M  V30 14672 C 1367.75 -2.51569 -1.64723 0
M  V30 14673 C 1369.3 -2.58201 -1.76921 0
M  V30 14674 C 1369.77 -3.9076 -2.38894 0
M  V30 14675 N 1371.26 -3.92269 -2.46331 0
M  V30 14676 C 1372 -4.91595 -2.95164 0
M  V30 14677 N 1371.49 -6.01318 -3.44075 0
M  V30 14678 N 1373.29 -4.7899 -2.94152 0
M  V30 14679 H 1365.44 -2.12021 -0.126788 0
M  V30 14680 H 1367.7 -0.940517 -0.118877 0
M  V30 14681 H 1367.41 -3.36535 -1.02162 0
M  V30 14682 H 1367.28 -2.69551 -2.6386 0
M  V30 14683 H 1369.67 -1.73634 -2.38611 0
M  V30 14684 H 1369.75 -2.44092 -0.765047 0
M  V30 14685 H 1369.39 -4.75747 -1.7784 0
M  V30 14686 H 1369.32 -4.02179 -3.39941 0
M  V30 14687 H 1371.81 -3.13015 -2.11731 0
M  V30 14688 H 1372.13 -6.73046 -3.79776 0
M  V30 14689 H 1370.47 -6.04946 -3.42148 0
M  V30 14690 H 1373.66 -3.92385 -2.55248 0
M  V30 14691 H 1373.84 -5.5655 -3.31897 0
M  V30 14692 N 1367.24 0.986894 -1.22875 0
M  V30 14693 C 1368.52 1.70121 -0.965311 0
M  V30 14694 C 1368.9 2.04648 0.517924 0
M  V30 14695 O 1368.25 1.73453 1.48749 0
M  V30 14696 C 1368.46 2.94738 -1.86897 0
M  V30 14697 C 1369.81 3.6739 -2.12861 0
M  V30 14698 O 1370.83 3.04758 -1.84394 0
M  V30 14699 O 1369.69 4.8009 -2.61106 0
M  V30 14700 H 1366.78 0.742817 -0.363527 0
M  V30 14701 H 1369.33 1.0427 -1.33887 0
M  V30 14702 H 1368.1 2.65771 -2.87196 0
M  V30 14703 H 1367.72 3.68327 -1.49736 0
M  V30 14704 N 1368.72 1.0394 1.18466 0
M  V30 14705 C 1369.65 0.650182 2.24265 0
M  V30 14706 C 1370.63 -0.345968 1.66545 0
M  V30 14707 O 1371.82 -0.226348 1.92876 0
M  V30 14708 C 1368.95 0.0110451 3.47298 0
M  V30 14709 C 1367.9 0.930599 4.17761 0
M  V30 14710 C 1367.23 0.156005 5.34472 0
M  V30 14711 C 1368.53 2.24913 4.71393 0
M  V30 14712 H 1370.22 1.53465 2.57078 0
M  V30 14713 H 1367.77 0.739343 1.23571 0
M  V30 14714 H 1369.72 -0.272959 4.20515 0
M  V30 14715 H 1368.44 -0.908288 3.13716 0
M  V30 14716 H 1367.1 1.19897 3.4644 0
M  V30 14717 H 1366.75 -0.765695 4.97138 0
M  V30 14718 H 1366.45 0.768606 5.82551 0
M  V30 14719 H 1367.97 -0.121011 6.1048 0
M  V30 14720 H 1369.39 2.02592 5.36311 0
M  V30 14721 H 1367.79 2.81459 5.30001 0
M  V30 14722 H 1368.86 2.8965 3.88884 0
M  V30 14723 N 1370.2 -1.34667 0.818693 0
M  V30 14724 C 1371.45 -1.98414 0.404759 0
M  V30 14725 C 1371.77 -1.64919 -1.03112 0
M  V30 14726 O 1371.03 -0.910695 -1.73219 0
M  V30 14727 C 1371.33 -3.53157 0.549059 0
M  V30 14728 C 1370.99 -4.06552 1.95003 0
M  V30 14729 C 1369.66 -4.20846 2.33329 0
M  V30 14730 C 1372.01 -4.35324 2.86604 0
M  V30 14731 C 1369.34 -4.61236 3.62599 0
M  V30 14732 C 1371.69 -4.77159 4.15334 0
M  V30 14733 C 1370.35 -4.89658 4.53642 0
M  V30 14734 H 1369.62 -0.726047 0.148112 0
M  V30 14735 H 1372.27 -1.60681 1.04182 0
M  V30 14736 H 1370.57 -3.91425 -0.17141 0
M  V30 14737 H 1372.27 -4.00453 0.209374 0
M  V30 14738 H 1368.86 -3.95887 1.64231 0
M  V30 14739 H 1373.04 -4.23823 2.58239 0
M  V30 14740 H 1368.3 -4.69104 3.92112 0
M  V30 14741 H 1372.47 -4.98381 4.86404 0
M  V30 14742 H 1370.1 -5.20713 5.53861 0
M  V30 14743 N 1371.68 -0.573274 -1.46804 0
M  V30 14744 C 1372.92 -0.0552613 -2.02425 0
M  V30 14745 C 1373.25 1.30098 -1.44585 0
M  V30 14746 O 1372.51 1.86366 -0.597166 0
M  V30 14747 C 1372.81 0.0704285 -3.57331 0
M  V30 14748 C 1372.47 -1.217 -4.34166 0
M  V30 14749 C 1371.13 -1.56973 -4.54877 0
M  V30 14750 C 1373.49 -2.06939 -4.78357 0
M  V30 14751 C 1370.81 -2.77302 -5.1703 0
M  V30 14752 C 1373.17 -3.26486 -5.41839 0
M  V30 14753 C 1371.83 -3.62053 -5.6078 0
M  V30 14754 H 1371.1 -0.0202215 -0.740724 0
M  V30 14755 H 1373.75 -0.748016 -1.76287 0
M  V30 14756 H 1372.05 0.846254 -3.82552 0
M  V30 14757 H 1373.75 0.486841 -3.98034 0
M  V30 14758 H 1370.34 -0.932374 -4.18336 0
M  V30 14759 H 1374.52 -1.80992 -4.62121 0
M  V30 14760 H 1369.78 -3.05008 -5.29887 0
M  V30 14761 H 1373.95 -3.92811 -5.75042 0
M  V30 14762 H 1371.58 -4.55385 -6.08711 0
M  V30 14763 N 1373.15 1.5451 -0.310553 0
M  V30 14764 C 1374.08 2.26827 0.554243 0
M  V30 14765 C 1375.07 1.27133 1.13009 0
M  V30 14766 O 1376.25 1.55923 1.15765 0
M  V30 14767 C 1373.38 3.01626 1.7216 0
M  V30 14768 C 1372.33 4.08547 1.27566 0
M  V30 14769 C 1371.66 4.71115 2.52893 0
M  V30 14770 C 1372.96 5.20766 0.399955 0
M  V30 14771 H 1374.65 2.9936 -0.0489475 0
M  V30 14772 H 1372.2 1.43978 -0.0249817 0
M  V30 14773 H 1374.15 3.50942 2.33276 0
M  V30 14774 H 1372.88 2.26688 2.35118 0
M  V30 14775 H 1371.54 3.60096 0.687499 0
M  V30 14776 H 1371.18 3.92805 3.14186 0
M  V30 14777 H 1370.88 5.43331 2.23752 0
M  V30 14778 H 1372.41 5.23198 3.14796 0
M  V30 14779 H 1373.82 5.65918 0.917054 0
M  V30 14780 H 1372.22 5.9976 0.2019 0
M  V30 14781 H 1373.29 4.81508 -0.572537 0
M  V30 14782 N 1374.63 0.0384594 1.57553 0
M  V30 14783 C 1375.58 -0.958199 2.11946 0
M  V30 14784 C 1376.58 -1.33073 1.04823 0
M  V30 14785 O 1377.78 -1.31187 1.23247 0
M  V30 14786 H 1374.16 -0.326819 0.677269 0
M  V30 14787 H 1376.13 -0.474211 2.94608 0
M  V30 14788 C 1374.88 -2.22821 2.6692 0
M  V30 14789 H 1374.2 -1.95032 3.49002 0
M  V30 14790 H 1375.64 -2.90746 3.08614 0
M  V30 14791 C 1374.1 -2.96429 1.60098 0
M  V30 14792 O 1374.63 -3.88892 1.00628 0
M  V30 14793 N 1372.83 -2.58931 1.3192 0
M  V30 14794 H 1372.38 -1.83818 1.80468 0
M  V30 14795 H 1372.34 -3.0849 0.60674 0
M  V30 14796 N 1376.11 -1.55841 -0.234795 0
M  V30 14797 C 1377.06 -1.91326 -1.29086 0
M  V30 14798 C 1378.03 -0.768868 -1.47233 0
M  V30 14799 O 1379.21 -1.0236 -1.61019 0
M  V30 14800 C 1376.35 -2.22388 -2.6389 0
M  V30 14801 C 1375.47 -3.49693 -2.5365 0
M  V30 14802 C 1374.6 -3.70267 -3.80889 0
M  V30 14803 C 1373.64 -4.91132 -3.65317 0
M  V30 14804 N 1372.78 -5.08163 -4.84474 0
M  V30 14805 H 1377.62 -2.81382 -0.981246 0
M  V30 14806 H 1375.15 -1.3928 -0.47324 0
M  V30 14807 H 1377.11 -2.38404 -3.42373 0
M  V30 14808 H 1375.74 -1.35521 -2.92974 0
M  V30 14809 H 1374.79 -3.41943 -1.66672 0
M  V30 14810 H 1376.11 -4.38326 -2.38059 0
M  V30 14811 H 1375.26 -3.86308 -4.67815 0
M  V30 14812 H 1374 -2.7989 -3.9939 0
M  V30 14813 H 1373 -4.75054 -2.76774 0
M  V30 14814 H 1374.23 -5.8298 -3.48298 0
M  V30 14815 H 1372.18 -4.20726 -5.03314 0
M  V30 14816 H 1372.09 -5.90904 -4.71559 0
M  V30 14817 H 1373.36 -5.28627 -5.72865 0
M  V30 14818 N 1377.59 0.500963 -1.49426 0
M  V30 14819 C 1378.87 1.26231 -1.49416 0
M  V30 14820 C 1379.25 2.0993 -0.221908 0
M  V30 14821 O 1378.59 2.14198 0.795712 0
M  V30 14822 C 1378.8 2.11899 -2.77308 0
M  V30 14823 C 1380.15 2.71086 -3.26799 0
M  V30 14824 O 1381.18 2.22166 -2.78425 0
M  V30 14825 O 1380.04 3.60141 -4.11049 0
M  V30 14826 H 1377.13 0.571224 -0.598024 0
M  V30 14827 H 1379.68 0.51523 -1.61689 0
M  V30 14828 H 1378.45 1.50027 -3.61397 0
M  V30 14829 H 1378.07 2.93799 -2.67896 0
M  V30 14830 N 1379.07 1.38501 0.752011 0
M  V30 14831 C 1380.03 1.35655 1.84744 0
M  V30 14832 C 1381.03 0.256772 1.58737 0
M  V30 14833 O 1382.22 0.513749 1.66452 0
M  V30 14834 C 1379.35 1.11231 3.22243 0
M  V30 14835 H 1380.55 2.33114 1.88674 0
M  V30 14836 H 1378.1 1.23818 0.953882 0
M  V30 14837 H 1378.83 0.143848 3.23981 0
M  V30 14838 H 1378.62 1.90857 3.42515 0
M  V30 14839 H 1380.11 1.11939 4.02318 0
M  V30 14840 N 1380.55 -0.980364 1.23396 0
M  V30 14841 C 1381.51 -2.05433 1.01635 0
M  V30 14842 C 1382.51 -1.60785 -0.0218244 0
M  V30 14843 O 1383.7 -1.72832 0.217922 0
M  V30 14844 C 1380.83 -3.36631 0.537822 0
M  V30 14845 H 1382.02 -2.26172 1.96943 0
M  V30 14846 H 1379.58 -1.15378 1.05441 0
M  V30 14847 H 1380.31 -3.21581 -0.41903 0
M  V30 14848 H 1380.1 -3.70377 1.28698 0
M  V30 14849 H 1381.59 -4.1562 0.406213 0
M  V30 14850 N 1382.02 -1.04567 -1.17913 0
M  V30 14851 C 1382.95 -0.662066 -2.23917 0
M  V30 14852 C 1383.93 0.33713 -1.66726 0
M  V30 14853 O 1385.12 0.216116 -1.92994 0
M  V30 14854 C 1382.25 -0.029463 -3.47288 0
M  V30 14855 C 1381.2 -0.95274 -4.17261 0
M  V30 14856 C 1380.53 -0.184347 -5.34382 0
M  V30 14857 C 1381.83 -2.2741 -4.70194 0
M  V30 14858 H 1383.52 -1.54826 -2.5626 0
M  V30 14859 H 1381.07 -0.745886 -1.23177 0
M  V30 14860 H 1383.02 0.250654 -4.20654 0
M  V30 14861 H 1381.75 0.891638 -3.14193 0
M  V30 14862 H 1380.41 -1.21732 -3.45799 0
M  V30 14863 H 1380.05 0.73932 -4.97537 0
M  V30 14864 H 1379.75 -0.79949 -5.82136 0
M  V30 14865 H 1381.28 0.0886344 -6.10536 0
M  V30 14866 H 1382.69 -2.05433 -5.35229 0
M  V30 14867 H 1381.09 -2.84265 -5.28501 0
M  V30 14868 H 1382.16 -2.91708 -3.87342 0
M  V30 14869 N 1383.5 1.34231 -0.825823 0
M  V30 14870 C 1384.45 2.26916 -0.222038 0
M  V30 14871 C 1385.44 1.48667 0.615382 0
M  V30 14872 O 1386.63 1.7066 0.469487 0
M  V30 14873 C 1383.76 3.37787 0.612785 0
M  V30 14874 C 1382.84 4.23446 -0.235423 0
M  V30 14875 N 1383.23 4.88599 -1.30784 0
M  V30 14876 C 1381.53 4.45995 -0.0202477 0
M  V30 14877 C 1382.23 5.52254 -1.82729 0
M  V30 14878 N 1381.21 5.3171 -1.13074 0
M  V30 14879 H 1385.01 2.74796 -1.04232 0
M  V30 14880 H 1382.52 1.47983 -0.668928 0
M  V30 14881 H 1384.52 4.03159 1.06153 0
M  V30 14882 H 1383.18 2.91457 1.43119 0
M  V30 14883 H 1384.19 4.89528 -1.69066 0
M  V30 14884 H 1380.87 4.10417 0.765761 0
M  V30 14885 H 1382.26 6.14177 -2.72464 0
M  V30 14886 N 1384.98 0.581051 1.46498 0
M  V30 14887 C 1385.91 -0.201475 2.27309 0
M  V30 14888 C 1386.89 -0.898424 1.35525 0
M  V30 14889 O 1388.07 -0.912643 1.64934 0
M  V30 14890 C 1385.2 -1.28896 3.13215 0
M  V30 14891 C 1384.25 -0.698028 4.20749 0
M  V30 14892 S 1385.08 0.473812 5.334 0
M  V30 14893 C 1386.24 -0.614916 6.22872 0
M  V30 14894 H 1386.47 0.484205 2.9333 0
M  V30 14895 H 1384 0.367907 1.49953 0
M  V30 14896 H 1385.96 -1.91162 3.63273 0
M  V30 14897 H 1384.62 -1.94658 2.46509 0
M  V30 14898 H 1383.81 -1.51542 4.80678 0
M  V30 14899 H 1383.42 -0.151069 3.73695 0
M  V30 14900 H 1385.71 -1.501 6.60663 0
M  V30 14901 H 1386.65 -0.0524259 7.08081 0
M  V30 14902 H 1387.06 -0.918315 5.5698 0
M  V30 14903 N 1386.46 -1.54343 0.318742 0
M  V30 14904 C 1387.37 -2.27856 -0.558442 0
M  V30 14905 C 1388.38 -1.32029 -1.13333 0
M  V30 14906 O 1389.56 -1.65037 -1.15433 0
M  V30 14907 C 1386.62 -3.01842 -1.70565 0
M  V30 14908 C 1385.69 -4.13245 -1.16305 0
M  V30 14909 C 1384.92 -4.83693 -2.25559 0
M  V30 14910 O 1385.14 -4.53621 -3.4581 0
M  V30 14911 O 1384.08 -5.70708 -1.91249 0
M  V30 14912 H 1387.9 -3.03676 0.0384247 0
M  V30 14913 H 1385.49 -1.4916 0.0845936 0
M  V30 14914 H 1387.37 -3.48189 -2.37365 0
M  V30 14915 H 1386.04 -2.28902 -2.28879 0
M  V30 14916 H 1384.95 -3.71258 -0.460274 0
M  V30 14917 H 1386.28 -4.88214 -0.625111 0
M  V30 14918 N 1387.94 -0.0468143 -1.5753 0
M  V30 14919 C 1389.35 0.489509 -1.80169 0
M  V30 14920 C 1389.7 1.71184 -0.958669 0
M  V30 14921 O 1388.82 2.15699 -0.174025 0
M  V30 14922 C 1389.42 0.894838 -3.26769 0
M  V30 14923 C 1387.98 1.37617 -3.50341 0
M  V30 14924 C 1387.12 0.349275 -2.75092 0
M  V30 14925 H 1390.07 -0.272728 -1.56339 0
M  V30 14926 H 1390.1 1.75805 -3.3745 0
M  V30 14927 H 1389.61 0.00501096 -3.881 0
M  V30 14928 H 1387.71 2.28533 -2.94285 0
M  V30 14929 H 1387.82 1.37133 -4.59055 0
M  V30 14930 H 1386.19 0.821219 -2.41098 0
M  V30 14931 H 1386.97 -0.532391 -3.39147 0
M  V30 14932 N 1389.41 1.55964 0.226527 0
M  V30 14933 C 1390.36 1.92007 1.28069 0
M  V30 14934 C 1391.33 0.776666 1.46823 0
M  V30 14935 O 1392.52 1.03213 1.60474 0
M  V30 14936 C 1389.66 2.23784 2.62707 0
M  V30 14937 C 1388.77 3.51034 2.51792 0
M  V30 14938 C 1387.9 3.72281 3.7892 0
M  V30 14939 C 1386.94 4.93062 3.62707 0
M  V30 14940 N 1386.08 5.10725 4.81772 0
M  V30 14941 H 1390.92 2.81898 0.96631 0
M  V30 14942 H 1388.46 1.39529 0.465847 0
M  V30 14943 H 1390.42 2.40217 3.41104 0
M  V30 14944 H 1389.05 1.37073 2.92251 0
M  V30 14945 H 1388.1 3.42822 1.64856 0
M  V30 14946 H 1389.41 4.39582 2.35731 0
M  V30 14947 H 1388.56 3.88783 4.6576 0
M  V30 14948 H 1387.3 2.82004 3.97901 0
M  V30 14949 H 1386.31 4.76515 2.7425 0
M  V30 14950 H 1387.53 5.84819 3.45201 0
M  V30 14951 H 1385.48 4.2339 5.01076 0
M  V30 14952 H 1385.4 5.93397 4.68419 0
M  V30 14953 H 1386.66 5.31658 5.70053 0
M  V30 14954 N 1390.89 -0.493031 1.4969 0
M  V30 14955 C 1391.84 -1.59367 1.66945 0
M  V30 14956 C 1392.81 -1.58049 0.510842 0
M  V30 14957 O 1393.99 -1.75915 0.738822 0
M  V30 14958 C 1391.13 -2.97472 1.74941 0
M  V30 14959 C 1390.25 -3.08745 3.02159 0
M  V30 14960 C 1389.38 -4.37632 3.01085 0
M  V30 14961 C 1388.42 -4.42567 4.22849 0
M  V30 14962 N 1387.56 -5.62892 4.19639 0
M  V30 14963 H 1392.4 -1.4396 2.6092 0
M  V30 14964 H 1389.94 -0.700297 1.29361 0
M  V30 14965 H 1391.89 -3.7753 1.77558 0
M  V30 14966 H 1390.52 -3.11564 0.844252 0
M  V30 14967 H 1389.58 -2.217 3.09117 0
M  V30 14968 H 1390.89 -3.08251 3.92151 0
M  V30 14969 H 1390.04 -5.26018 3.02309 0
M  V30 14970 H 1388.78 -4.40702 2.08885 0
M  V30 14971 H 1387.79 -3.52581 4.21861 0
M  V30 14972 H 1389.01 -4.41205 5.1625 0
M  V30 14973 H 1386.96 -5.6679 3.30281 0
M  V30 14974 H 1386.87 -5.64048 5.03374 0
M  V30 14975 H 1388.14 -6.53464 4.24977 0
M  V30 14976 N 1392.37 -1.38898 -0.744656 0
M  V30 14977 C 1393.28 -1.39098 -1.88915 0
M  V30 14978 C 1394.3 -0.286956 -1.71617 0
M  V30 14979 O 1395.47 -0.526852 -1.94387 0
M  V30 14980 C 1392.54 -1.22352 -3.24393 0
M  V30 14981 C 1391.6 -2.4264 -3.54153 0
M  V30 14982 C 1390.83 -2.26683 -4.83167 0
M  V30 14983 O 1391.05 -1.26523 -5.56191 0
M  V30 14984 O 1389.99 -3.15464 -5.12607 0
M  V30 14985 H 1393.81 -2.35551 -1.91701 0
M  V30 14986 H 1391.4 -1.19911 -0.891158 0
M  V30 14987 H 1393.28 -1.15109 -4.05374 0
M  V30 14988 H 1391.96 -0.289886 -3.22399 0
M  V30 14989 H 1390.86 -2.55459 -2.73298 0
M  V30 14990 H 1392.2 -3.34664 -3.60917 0
M  V30 14991 N 1393.85 0.973806 -1.23914 0
M  V30 14992 C 1394.8 2.06734 -1.02614 0
M  V30 14993 C 1395.77 1.65997 0.0585705 0
M  V30 14994 O 1396.95 1.90564 -0.0948467 0
M  V30 14995 C 1394.09 3.39292 -0.630493 0
M  V30 14996 C 1393.2 3.9326 -1.78803 0
M  V30 14997 C 1392.34 5.14059 -1.33854 0
M  V30 14998 C 1391.38 5.60209 -2.46642 0
M  V30 14999 N 1390.51 6.72232 -2.02603 0
M  V30 15000 H 1395.35 2.24287 -1.96212 0
M  V30 15001 H 1392.89 1.09935 -0.977376 0
M  V30 15002 H 1394.85 4.15446 -0.382163 0
M  V30 15003 H 1393.48 3.21682 0.268483 0
M  V30 15004 H 1392.53 3.13801 -2.15019 0
M  V30 15005 H 1393.84 4.23475 -2.63573 0
M  V30 15006 H 1393 5.97567 -1.04873 0
M  V30 15007 H 1391.74 4.85513 -0.46131 0
M  V30 15008 H 1390.74 4.75278 -2.7639 0
M  V30 15009 H 1391.97 5.90771 -3.34912 0
M  V30 15010 H 1389.91 6.45433 -1.17269 0
M  V30 15011 H 1389.83 7.01865 -2.80929 0
M  V30 15012 H 1391.1 7.59198 -1.76745 0
M  V30 15013 N 1395.33 1.05191 1.17357 0
M  V30 15014 C 1396.26 0.597207 2.20247 0
M  V30 15015 C 1397.24 -0.374194 1.58236 0
M  V30 15016 O 1398.42 -0.285815 1.86321 0
M  V30 15017 C 1395.55 -0.126012 3.38466 0
M  V30 15018 C 1394.59 0.800401 4.18922 0
M  V30 15019 S 1395.43 2.28956 4.84086 0
M  V30 15020 C 1396.58 1.57751 6.05694 0
M  V30 15021 H 1396.82 1.46893 2.58476 0
M  V30 15022 H 1394.35 0.863874 1.27971 0
M  V30 15023 H 1396.31 -0.537086 4.06971 0
M  V30 15024 H 1394.97 -0.97377 2.98624 0
M  V30 15025 H 1394.16 0.240754 5.03425 0
M  V30 15026 H 1393.76 1.15084 3.55853 0
M  V30 15027 H 1396.06 0.876839 6.71802 0
M  V30 15028 H 1397 2.40001 6.66187 0
M  V30 15029 H 1397.41 1.06493 5.54364 0
M  V30 15030 N 1396.8 -1.33791 0.83293 0
M  V30 15031 C 1397.71 -2.33108 0.264169 0
M  V30 15032 C 1398.73 -1.6308 -0.606694 0
M  V30 15033 O 1399.91 -1.94777 -0.512225 0
M  V30 15034 C 1396.97 -3.42208 -0.556315 0
M  V30 15035 C 1396.03 -4.27966 0.338123 0
M  V30 15036 C 1395.27 -5.31856 -0.443297 0
M  V30 15037 O 1395.49 -5.45234 -1.6756 0
M  V30 15038 O 1394.42 -6.01632 0.179599 0
M  V30 15039 H 1398.25 -2.83602 1.08645 0
M  V30 15040 H 1395.83 -1.37027 0.595307 0
M  V30 15041 H 1397.72 -4.088 -1.02277 0
M  V30 15042 H 1396.39 -2.9394 -1.35575 0
M  V30 15043 H 1395.3 -3.64262 0.852293 0
M  V30 15044 H 1396.63 -4.79701 1.10217 0
M  V30 15045 N 1398.28 -0.588812 -1.46187 0
M  V30 15046 C 1399.69 -0.163897 -1.85979 0
M  V30 15047 C 1400.04 1.27458 -1.49161 0
M  V30 15048 O 1399.17 1.96365 -0.909372 0
M  V30 15049 C 1399.76 -0.29067 -3.37551 0
M  V30 15050 C 1398.32 0.0794165 -3.76316 0
M  V30 15051 C 1397.47 -0.623807 -2.70192 0
M  V30 15052 H 1400.42 -0.79666 -1.37255 0
M  V30 15053 H 1400.44 0.482316 -3.77431 0
M  V30 15054 H 1399.95 -1.33771 -3.64317 0
M  V30 15055 H 1398.06 1.12636 -3.55168 0
M  V30 15056 H 1398.17 -0.301153 -4.78153 0
M  V30 15057 H 1396.53 -0.0634124 -2.54621 0
M  V30 15058 H 1397.32 -1.67261 -2.99797 0
M  V30 15059 N 1399.76 1.54172 -0.326923 0
M  V30 15060 C 1401.01 2.00233 0.274098 0
M  V30 15061 C 1401.33 1.21665 1.5239 0
M  V30 15062 O 1400.6 0.319359 1.93279 0
M  V30 15063 H 1399.18 0.739687 0.104271 0
M  V30 15064 H 1401.84 1.8977 -0.444244 0
M  V30 15065 H 1400.94 3.07599 0.528154 0
M  V30 15066 N 1401.24 0.0551678 1.57503 0
M  V30 15067 C 1402.17 -0.915714 2.14795 0
M  V30 15068 C 1403.15 -1.32179 1.07065 0
M  V30 15069 O 1404.33 -1.39579 1.35023 0
M  V30 15070 C 1401.46 -2.18916 2.69616 0
M  V30 15071 C 1400.42 -1.92303 3.82366 0
M  V30 15072 C 1399.74 -3.26136 4.23721 0
M  V30 15073 C 1401.04 -1.24146 5.07331 0
M  V30 15074 H 1402.74 -0.438499 2.96171 0
M  V30 15075 H 1400.28 -0.209477 1.42468 0
M  V30 15076 H 1402.24 -2.87239 3.08337 0
M  V30 15077 H 1400.96 -2.6885 1.85437 0
M  V30 15078 H 1399.62 -1.26391 3.44123 0
M  V30 15079 H 1399.27 -3.73879 3.36487 0
M  V30 15080 H 1398.97 -3.09126 4.99715 0
M  V30 15081 H 1400.49 -3.95684 4.65045 0
M  V30 15082 H 1401.91 -1.8251 5.43473 0
M  V30 15083 H 1400.3 -1.17449 5.88494 0
M  V30 15084 H 1401.37 -0.218073 4.84409 0
M  V30 15085 N 1402.72 -1.56081 -0.218252 0
M  V30 15086 C 1403.63 -1.95856 -1.29141 0
M  V30 15087 C 1404.64 -0.862857 -1.51099 0
M  V30 15088 O 1405.82 -1.1667 -1.64165 0
M  V30 15089 C 1402.88 -2.27005 -2.62049 0
M  V30 15090 C 1401.94 -3.50162 -2.48365 0
M  V30 15091 C 1401.18 -3.79815 -3.74935 0
M  V30 15092 O 1401.4 -3.11095 -4.78096 0
M  V30 15093 O 1400.33 -4.73299 -3.71849 0
M  V30 15094 H 1404.16 -2.8732 -0.983922 0
M  V30 15095 H 1401.75 -1.43334 -0.421385 0
M  V30 15096 H 1403.63 -2.4822 -3.40536 0
M  V30 15097 H 1402.3 -1.38715 -2.92472 0
M  V30 15098 H 1401.21 -3.34222 -1.68066 0
M  V30 15099 H 1402.54 -4.38845 -2.22881 0
M  V30 15100 N 1404.2 0.485086 -1.49949 0
M  V30 15101 C 1405.13 1.60191 -1.63926 0
M  V30 15102 C 1406.14 1.5423 -0.521256 0
M  V30 15103 O 1407.33 1.59872 -0.79392 0
M  V30 15104 C 1404.43 2.99035 -1.59472 0
M  V30 15105 C 1403.6 3.30014 -2.87071 0
M  V30 15106 C 1402.66 4.48345 -2.75451 0
M  V30 15107 O 1401.69 4.49342 -3.494 0
M  V30 15108 N 1402.89 5.49192 -1.88064 0
M  V30 15109 H 1405.65 1.48622 -2.60253 0
M  V30 15110 H 1403.22 0.673258 -1.47237 0
M  V30 15111 H 1405.21 3.76142 -1.4933 0
M  V30 15112 H 1403.78 3.04445 -0.709373 0
M  V30 15113 H 1403 2.41652 -3.11445 0
M  V30 15114 H 1404.29 3.47515 -3.71632 0
M  V30 15115 H 1403.68 5.51198 -1.2727 0
M  V30 15116 H 1402.24 6.25338 -1.83835 0
M  V30 15117 N 1405.67 1.39291 0.737279 0
M  V30 15118 C 1406.92 1.36121 1.49384 0
M  V30 15119 C 1407.24 -0.0429406 1.94953 0
M  V30 15120 O 1406.51 -0.993756 1.68823 0
M  V30 15121 H 1405.09 0.500916 0.554159 0
M  V30 15122 H 1407.75 1.74134 0.875402 0
M  V30 15123 H 1406.85 2.02246 2.37704 0
M  V30 15124 N 1407.15 -0.967221 1.24429 0
M  V30 15125 C 1408.1 -2.06187 1.03709 0
M  V30 15126 C 1409.07 -1.66025 -0.0497665 0
M  V30 15127 O 1410.25 -1.90511 0.104951 0
M  V30 15128 C 1407.39 -3.38952 0.648477 0
M  V30 15129 C 1406.51 -3.92306 1.80886 0
M  V30 15130 C 1405.64 -5.13342 1.36579 0
M  V30 15131 C 1404.68 -5.58893 2.49609 0
M  V30 15132 N 1403.82 -6.71148 2.06165 0
M  V30 15133 H 1408.66 -2.23244 1.97399 0
M  V30 15134 H 1406.19 -1.09415 0.983192 0
M  V30 15135 H 1408.15 -4.15237 0.40419 0
M  V30 15136 H 1406.78 -3.21819 -0.25142 0
M  V30 15137 H 1405.83 -3.12656 2.1668 0
M  V30 15138 H 1407.15 -4.22071 2.65815 0
M  V30 15139 H 1406.3 -5.97003 1.0804 0
M  V30 15140 H 1405.04 -4.85262 0.487051 0
M  V30 15141 H 1404.04 -4.73805 2.78906 0
M  V30 15142 H 1405.27 -5.88987 3.3804 0
M  V30 15143 H 1403.22 -6.44802 1.20691 0
M  V30 15144 H 1403.13 -7.00366 2.84647 0
M  V30 15145 H 1404.4 -7.5825 1.80769 0
M  V30 15146 N 1408.63 -1.05812 -1.16797 0
M  V30 15147 C 1409.58 -0.664599 -2.21024 0
M  V30 15148 C 1410.55 0.336352 -1.62659 0
M  V30 15149 O 1411.73 0.226346 -1.89453 0
M  V30 15150 C 1408.87 -0.0520739 -3.45061 0
M  V30 15151 C 1407.98 -1.10261 -4.17692 0
M  V30 15152 C 1407.12 -0.456746 -5.29233 0
M  V30 15153 C 1406.16 -1.49116 -5.93659 0
M  V30 15154 N 1405.3 -0.869002 -6.96701 0
M  V30 15155 H 1410.14 -1.55784 -2.54038 0
M  V30 15156 H 1407.67 -0.778993 -1.2478 0
M  V30 15157 H 1409.63 0.320552 -4.15967 0
M  V30 15158 H 1408.26 0.804592 -3.12612 0
M  V30 15159 H 1407.31 -1.593 -3.45438 0
M  V30 15160 H 1408.62 -1.88757 -4.61706 0
M  V30 15161 H 1407.78 -0.0308814 -6.06692 0
M  V30 15162 H 1406.52 0.360131 -4.86369 0
M  V30 15163 H 1405.52 -1.92697 -5.14925 0
M  V30 15164 H 1406.75 -2.31005 -6.38603 0
M  V30 15165 H 1404.69 -0.0727494 -6.5596 0
M  V30 15166 H 1404.61 -1.59141 -7.3906 0
M  V30 15167 H 1405.88 -0.46812 -7.78093 0
M  V30 15168 N 1410.11 1.33347 -0.840014 0
M  V30 15169 C 1411.52 1.80077 -0.492851 0
M  V30 15170 C 1411.87 1.69495 0.988221 0
M  V30 15171 O 1410.99 1.2449 1.77006 0
M  V30 15172 C 1411.59 3.2696 -0.887827 0
M  V30 15173 C 1410.15 3.71703 -0.592785 0
M  V30 15174 C 1409.3 2.54742 -1.09554 0
M  V30 15175 H 1412.25 1.20853 -1.02861 0
M  V30 15176 H 1412.27 3.79983 -0.198327 0
M  V30 15177 H 1411.78 3.3463 -1.96581 0
M  V30 15178 H 1409.88 3.69559 0.475086 0
M  V30 15179 H 1409.99 4.65123 -1.14882 0
M  V30 15180 H 1408.36 2.49411 -0.516357 0
M  V30 15181 H 1409.14 2.65173 -2.18032 0
M  V30 15182 N 1411.59 0.596556 1.45873 0
M  V30 15183 C 1413 0.259317 1.57479 0
M  V30 15184 C 1413.2 -1.23829 1.58961 0
M  V30 15185 O 1412.26 -2.02076 1.51399 0
M  V30 15186 C 1413.57 0.920755 2.86256 0
M  V30 15187 C 1415.12 0.895638 2.99912 0
M  V30 15188 C 1415.59 1.53688 4.31444 0
M  V30 15189 N 1417.08 1.50186 4.38176 0
M  V30 15190 C 1417.82 1.96727 5.38596 0
M  V30 15191 N 1417.32 2.51304 6.45615 0
M  V30 15192 N 1419.11 1.87561 5.29884 0
M  V30 15193 H 1411.26 1.56909 1.43155 0
M  V30 15194 H 1413.52 0.656664 0.683737 0
M  V30 15195 H 1413.23 1.97481 2.91023 0
M  V30 15196 H 1413.1 0.437331 3.74656 0
M  V30 15197 H 1415.49 -0.149838 2.94719 0
M  V30 15198 H 1415.57 1.41722 2.12952 0
M  V30 15199 H 1415.21 2.58163 4.37395 0
M  V30 15200 H 1415.14 0.990408 5.17203 0
M  V30 15201 H 1417.64 1.10305 3.61443 0
M  V30 15202 H 1417.95 2.84639 7.18471 0
M  V30 15203 H 1416.29 2.55337 6.46396 0
M  V30 15204 H 1419.48 1.4467 4.45183 0
M  V30 15205 H 1419.66 2.24146 6.07999 0
M  V30 15206 N 1413.06 -1.53996 0.335095 0
M  V30 15207 C 1413.99 -2.2768 -0.518087 0
M  V30 15208 C 1414.97 -1.28915 -1.10972 0
M  V30 15209 O 1416.16 -1.57745 -1.1327 0
M  V30 15210 C 1413.29 -3.04327 -1.67339 0
M  V30 15211 C 1412.24 -4.10525 -1.2105 0
M  V30 15212 C 1411.57 -4.75078 -2.45366 0
M  V30 15213 C 1412.87 -5.21337 -0.317055 0
M  V30 15214 H 1414.56 -2.99244 0.0965669 0
M  V30 15215 H 1412.11 -1.4392 0.0478842 0
M  V30 15216 H 1414.06 -3.54608 -2.27664 0
M  V30 15217 H 1412.79 -2.30399 -2.31481 0
M  V30 15218 H 1411.45 -3.61144 -0.630124 0
M  V30 15219 H 1411.09 -3.97754 -3.07897 0
M  V30 15220 H 1410.79 -5.46822 -2.1508 0
M  V30 15221 H 1412.32 -5.2814 -3.06432 0
M  V30 15222 H 1413.73 -5.67305 -0.826905 0
M  V30 15223 H 1412.13 -6.00006 -0.106458 0
M  V30 15224 H 1413.2 -4.80536 0.649068 0
M  V30 15225 N 1414.54 -0.0635198 -1.57472 0
M  V30 15226 C 1415.82 0.648029 -1.84553 0
M  V30 15227 C 1416.2 1.88295 -0.954371 0
M  V30 15228 O 1415.55 2.28492 -0.0185351 0
M  V30 15229 C 1415.76 0.993573 -3.34558 0
M  V30 15230 C 1417.1 1.3706 -4.0187 0
M  V30 15231 O 1418.13 1.08555 -3.39255 0
M  V30 15232 O 1416.99 1.90309 -5.12294 0
M  V30 15233 H 1414.08 0.321047 -0.76214 0
M  V30 15234 H 1416.63 -0.0938223 -1.6944 0
M  V30 15235 H 1415.4 0.116139 -3.91128 0
M  V30 15236 H 1415.02 1.79246 -3.54904 0
M  V30 15237 N 1416.02 1.56195 0.209972 0
M  V30 15238 C 1417.24 1.84189 0.953364 0
M  V30 15239 C 1417.67 0.645288 1.76685 0
M  V30 15240 O 1417.03 -0.405962 1.76696 0
M  V30 15241 C 1417.08 3.10281 1.83733 0
M  V30 15242 O 1416.18 2.89788 2.93422 0
M  V30 15243 H 1415.52 0.606931 0.269314 0
M  V30 15244 H 1418.05 2.03416 0.219783 0
M  V30 15245 H 1418.06 3.40688 2.2449 0
M  V30 15246 H 1416.74 3.97 1.23951 0
M  V30 15247 H 1415.31 2.70643 2.56528 0
M  V30 15248 N 1417.5 -0.477127 1.50204 0
M  V30 15249 C 1418.74 -1.23147 1.6113 0
M  V30 15250 C 1419.08 -1.91743 0.307909 0
M  V30 15251 O 1418.35 -1.81841 -0.690223 0
M  V30 15252 C 1418.63 -2.27985 2.78738 0
M  V30 15253 C 1418.49 -1.63733 4.18941 0
M  V30 15254 C 1419.81 -3.29349 2.9192 0
M  V30 15255 H 1416.93 -0.446358 0.586459 0
M  V30 15256 H 1419.57 -0.52612 1.8257 0
M  V30 15257 H 1417.72 -2.88143 2.60588 0
M  V30 15258 H 1419.39 -1.07218 4.48667 0
M  V30 15259 H 1417.63 -0.940634 4.23479 0
M  V30 15260 H 1418.3 -2.39888 4.9715 0
M  V30 15261 H 1420.78 -2.79208 3.08516 0
M  V30 15262 H 1419.66 -4.0004 3.75845 0
M  V30 15263 H 1419.92 -3.93111 2.02278 0
M  V30 15264 N 1418.98 -1.3968 -0.729882 0
M  V30 15265 C 1420.2 -1.40467 -1.5191 0
M  V30 15266 C 1420.62 -0.000529943 -1.888 0
M  V30 15267 O 1419.98 0.972072 -1.54457 0
M  V30 15268 C 1420.03 -2.2823 -2.80345 0
M  V30 15269 O 1419.75 -3.63176 -2.4502 0
M  V30 15270 C 1421.25 -2.37455 -3.74339 0
M  V30 15271 H 1418.47 -0.479604 -0.469277 0
M  V30 15272 H 1421.01 -1.83558 -0.901484 0
M  V30 15273 H 1419.17 -1.88538 -3.38426 0
M  V30 15274 H 1419.58 -4.0964 -3.2756 0
M  V30 15275 H 1421.06 -3.031 -4.6134 0
M  V30 15276 H 1421.53 -1.39525 -4.16449 0
M  V30 15277 H 1422.14 -2.77638 -3.22176 0
M  V30 15278 N 1420.45 0.960609 -1.2494 0
M  V30 15279 C 1421.68 1.7446 -1.12153 0
M  V30 15280 C 1422.1 1.85335 0.321315 0
M  V30 15281 O 1421.46 1.32944 1.23271 0
M  V30 15282 C 1421.51 3.13945 -1.774 0
M  V30 15283 O 1420.61 3.9882 -1.04958 0
M  V30 15284 H 1419.96 0.536007 -0.391909 0
M  V30 15285 H 1422.49 1.2045 -1.65388 0
M  V30 15286 H 1422.5 3.64434 -1.83444 0
M  V30 15287 H 1421.17 3.05346 -2.82377 0
M  V30 15288 H 1419.75 3.57293 -1.06752 0
M  V30 15289 N 1421.93 1.0643 1.16234 0
M  V30 15290 C 1423.16 0.802671 1.91238 0
M  V30 15291 C 1423.58 -0.637222 1.76978 0
M  V30 15292 O 1422.94 -1.44419 1.09603 0
M  V30 15293 C 1422.99 1.20389 3.3991 0
M  V30 15294 O 1422.09 0.343516 4.10967 0
M  V30 15295 H 1421.43 0.29323 0.595745 0
M  V30 15296 H 1423.96 1.42046 1.47255 0
M  V30 15297 H 1423.97 1.17604 3.90683 0
M  V30 15298 H 1422.65 2.2527 3.49608 0
M  V30 15299 H 1421.23 0.433051 3.70377 0
M  V30 15300 N 1423.41 -1.329 0.847073 0
M  V30 15301 C 1424.32 -2.32815 0.288878 0
M  V30 15302 C 1425.34 -1.63715 -0.589363 0
M  V30 15303 O 1426.51 -1.9531 -0.491537 0
M  V30 15304 C 1423.58 -3.42778 -0.519988 0
M  V30 15305 C 1422.64 -4.27584 0.383496 0
M  V30 15306 C 1421.87 -5.32296 -0.386862 0
M  V30 15307 O 1422.09 -5.4698 -1.61768 0
M  V30 15308 O 1421.03 -6.01408 0.2434 0
M  V30 15309 H 1424.85 -2.82434 1.11647 0
M  V30 15310 H 1422.44 -1.36388 0.609807 0
M  V30 15311 H 1424.32 -4.09862 -0.979357 0
M  V30 15312 H 1423 -2.95362 -1.3245 0
M  V30 15313 H 1421.9 -3.63338 0.890879 0
M  V30 15314 H 1423.24 -4.78505 1.15299 0
M  V30 15315 N 1424.89 -0.604284 -1.45555 0
M  V30 15316 C 1426.11 -0.102634 -2.07146 0
M  V30 15317 C 1426.54 1.20239 -1.44652 0
M  V30 15318 O 1425.9 1.73133 -0.538033 0
M  V30 15319 C 1425.94 0.0270231 -3.6059 0
M  V30 15320 O 1425.05 1.0781 -3.98059 0
M  V30 15321 H 1424.39 -0.0725667 -0.660023 0
M  V30 15322 H 1426.92 -0.833355 -1.86859 0
M  V30 15323 H 1426.93 0.226299 -4.07372 0
M  V30 15324 H 1425.6 -0.925896 -4.05463 0
M  V30 15325 H 1424.18 0.855552 -3.62953 0
M  V30 15326 N 1426.37 1.53816 -0.343257 0
M  V30 15327 C 1427.61 2.00909 0.253346 0
M  V30 15328 C 1427.94 1.23109 1.5058 0
M  V30 15329 O 1427.2 0.306682 1.93282 0
M  V30 15330 C 1427.5 3.521 0.613243 0
M  V30 15331 C 1427.16 4.47627 -0.5423 0
M  V30 15332 C 1425.82 4.73463 -0.859418 0
M  V30 15333 C 1428.18 5.04272 -1.31754 0
M  V30 15334 C 1425.5 5.532 -1.95415 0
M  V30 15335 C 1427.86 5.85203 -2.40251 0
M  V30 15336 C 1426.52 6.09334 -2.72523 0
M  V30 15337 H 1425.79 0.735178 0.0927058 0
M  V30 15338 H 1428.44 1.85615 -0.471111 0
M  V30 15339 H 1426.74 3.65224 1.41841 0
M  V30 15340 H 1428.44 3.85994 1.08673 0
M  V30 15341 H 1425.03 4.27651 -0.285076 0
M  V30 15342 H 1429.21 4.84277 -1.0858 0
M  V30 15343 H 1424.47 5.70122 -2.20842 0
M  V30 15344 H 1428.64 6.28109 -3.00753 0
M  V30 15345 H 1426.27 6.70906 -3.57476 0
M  V30 15346 N 1427.84 0.0718701 1.57436 0
M  V30 15347 C 1428.81 -0.880671 2.11605 0
M  V30 15348 C 1429.81 -1.22632 1.0401 0
M  V30 15349 O 1431 -1.15958 1.29997 0
M  V30 15350 C 1428.13 -2.18407 2.61746 0
M  V30 15351 H 1429.32 -0.410712 2.97074 0
M  V30 15352 H 1426.88 -0.176836 1.55296 0
M  V30 15353 H 1427.61 -2.6994 1.79731 0
M  V30 15354 H 1427.4 -1.94616 3.40392 0
M  V30 15355 H 1428.89 -2.86596 3.03731 0
M  V30 15356 N 1429.32 -1.56304 -0.201686 0
M  V30 15357 C 1430.55 -1.84692 -0.943583 0
M  V30 15358 C 1430.97 -0.654649 -1.7634 0
M  V30 15359 O 1430.33 0.396586 -1.76909 0
M  V30 15360 C 1430.38 -3.11251 -1.82085 0
M  V30 15361 O 1429.48 -2.9134 -2.91881 0
M  V30 15362 H 1428.82 -0.608351 -0.266092 0
M  V30 15363 H 1431.35 -2.0353 -0.208992 0
M  V30 15364 H 1431.36 -3.41874 -2.2268 0
M  V30 15365 H 1430.04 -3.97652 -1.21844 0
M  V30 15366 H 1428.62 -2.72 -2.55089 0
M  V30 15367 N 1430.8 0.469154 -1.50455 0
M  V30 15368 C 1432.03 1.24899 -1.65575 0
M  V30 15369 C 1432.45 1.85009 -0.339581 0
M  V30 15370 O 1431.81 1.67376 0.696774 0
M  V30 15371 C 1431.86 2.33205 -2.75041 0
M  V30 15372 O 1430.96 3.37898 -2.36429 0
M  V30 15373 H 1430.3 0.367362 -0.553119 0
M  V30 15374 H 1432.83 0.558083 -1.96842 0
M  V30 15375 H 1432.84 2.78487 -2.98176 0
M  V30 15376 H 1431.52 1.88826 -3.70564 0
M  V30 15377 H 1430.09 2.98314 -2.23748 0
M  V30 15378 N 1432.28 1.40065 0.722464 0
M  V30 15379 C 1433.53 1.37698 1.47932 0
M  V30 15380 C 1433.85 -0.0222608 1.94987 0
M  V30 15381 O 1433.12 -0.975795 1.69868 0
M  V30 15382 H 1431.7 0.506766 0.548815 0
M  V30 15383 H 1434.36 1.75053 0.856884 0
M  V30 15384 H 1433.46 2.04756 2.35545 0
M  V30 15385 N 1433.76 -0.95397 1.25448 0
M  V30 15386 C 1435 -1.69866 1.10235 0
M  V30 15387 C 1435.33 -1.91204 -0.356552 0
M  V30 15388 O 1434.59 -1.4811 -1.27914 0
M  V30 15389 C 1434.89 -3.08613 1.80258 0
M  V30 15390 C 1434.55 -3.07072 3.30178 0
M  V30 15391 C 1433.21 -3.0636 3.71076 0
M  V30 15392 C 1435.57 -3.00351 4.25956 0
M  V30 15393 C 1432.89 -2.96675 5.06163 0
M  V30 15394 C 1435.25 -2.92209 5.61067 0
M  V30 15395 C 1433.91 -2.89832 6.01293 0
M  V30 15396 H 1433.18 -0.621583 0.40338 0
M  V30 15397 H 1435.83 -1.11448 1.55729 0
M  V30 15398 H 1434.13 -3.70578 1.27197 0
M  V30 15399 H 1435.83 -3.65055 1.6594 0
M  V30 15400 H 1432.42 -3.084 2.97637 0
M  V30 15401 H 1436.6 -3.0002 3.9535 0
M  V30 15402 H 1431.86 -2.93204 5.36508 0
M  V30 15403 H 1436.03 -2.8597 6.34976 0
M  V30 15404 H 1433.66 -2.82084 7.05927 0
M  V30 15405 N 1435.24 -1.07045 -1.15668 0
M  V30 15406 C 1436.17 -0.645945 -2.1991 0
M  V30 15407 C 1437.18 0.29995 -1.60013 0
M  V30 15408 O 1438.37 0.0897537 -1.78274 0
M  V30 15409 C 1435.47 0.0721917 -3.38823 0
M  V30 15410 C 1434.64 -0.889103 -4.28268 0
M  V30 15411 C 1433.7 -0.208829 -5.25785 0
M  V30 15412 O 1432.73 -0.848894 -5.62834 0
M  V30 15413 N 1433.93 1.04671 -5.70985 0
M  V30 15414 H 1436.69 -1.54266 -2.56948 0
M  V30 15415 H 1434.26 -0.954736 -1.30753 0
M  V30 15416 H 1436.25 0.537882 -4.0111 0
M  V30 15417 H 1434.82 0.870805 -3.00226 0
M  V30 15418 H 1434.04 -1.53399 -3.63129 0
M  V30 15419 H 1435.33 -1.54097 -4.84904 0
M  V30 15420 H 1434.72 1.58673 -5.42991 0
M  V30 15421 H 1433.28 1.45613 -6.35327 0
M  V30 15422 N 1436.71 1.32449 -0.85411 0
M  V30 15423 C 1437.62 2.32658 -0.301221 0
M  V30 15424 C 1438.64 1.64025 0.580673 0
M  V30 15425 O 1439.82 1.95568 0.481172 0
M  V30 15426 C 1436.88 3.43049 0.501803 0
M  V30 15427 C 1435.94 4.27374 -0.406166 0
M  V30 15428 C 1435.17 5.32494 0.358627 0
M  V30 15429 O 1435.4 5.4783 1.58865 0
M  V30 15430 O 1434.33 6.0127 -0.275291 0
M  V30 15431 H 1438.16 2.81838 -1.13143 0
M  V30 15432 H 1435.74 1.36063 -0.617032 0
M  V30 15433 H 1437.62 4.10375 0.957608 0
M  V30 15434 H 1436.3 2.9606 1.30882 0
M  V30 15435 H 1435.21 3.6286 -0.910136 0
M  V30 15436 H 1436.54 4.77887 -1.17835 0
M  V30 15437 N 1438.19 0.611994 1.45232 0
M  V30 15438 C 1439.47 0.0407 1.95558 0
M  V30 15439 C 1439.85 -1.42839 1.55436 0
M  V30 15440 O 1439.2 -2.13316 0.819055 0
M  V30 15441 C 1439.41 0.243436 3.4815 0
M  V30 15442 C 1440.75 0.126551 4.24411 0
M  V30 15443 O 1441.78 0.17379 3.55776 0
M  V30 15444 O 1440.64 0.0153526 5.46498 0
M  V30 15445 H 1437.73 -0.0332288 0.826332 0
M  V30 15446 H 1440.28 0.682364 1.55377 0
M  V30 15447 H 1439.05 1.26357 3.70337 0
M  V30 15448 H 1438.67 -0.43328 3.95232 0
M  V30 15449 N 1439.67 -1.53632 0.351409 0
M  V30 15450 C 1440.62 -2.25281 -0.501724 0
M  V30 15451 C 1441.59 -1.25406 -1.08915 0
M  V30 15452 O 1442.77 -1.54157 -1.1243 0
M  V30 15453 C 1439.91 -3.03491 -1.64278 0
M  V30 15454 C 1439.02 -4.18233 -1.0819 0
M  V30 15455 C 1438.16 -4.83914 -2.1909 0
M  V30 15456 C 1437.2 -5.90712 -1.60394 0
M  V30 15457 N 1436.34 -6.50141 -2.65068 0
M  V30 15458 H 1441.18 -2.97775 0.11579 0
M  V30 15459 H 1438.71 -1.46938 0.0689141 0
M  V30 15460 H 1440.67 -3.47101 -2.31467 0
M  V30 15461 H 1439.3 -2.33279 -2.23116 0
M  V30 15462 H 1438.35 -3.7921 -0.300713 0
M  V30 15463 H 1439.66 -4.95023 -0.612644 0
M  V30 15464 H 1438.82 -5.30635 -2.94128 0
M  V30 15465 H 1437.56 -4.06565 -2.69362 0
M  V30 15466 H 1436.56 -5.43366 -0.838646 0
M  V30 15467 H 1437.79 -6.69973 -1.10964 0
M  V30 15468 H 1435.73 -5.75652 -3.14581 0
M  V30 15469 H 1435.65 -7.22427 -2.22788 0
M  V30 15470 H 1436.92 -7.01513 -3.39852 0
M  V30 15471 N 1441.15 -0.0802183 -1.57396 0
M  V30 15472 C 1442.37 0.599179 -1.98556 0
M  V30 15473 C 1442.8 1.61844 -0.958555 0
M  V30 15474 O 1442.16 1.81146 0.0748226 0
M  V30 15475 C 1442.2 1.23675 -3.38728 0
M  V30 15476 O 1441.31 2.35262 -3.38712 0
M  V30 15477 H 1440.65 0.153366 -0.646045 0
M  V30 15478 H 1443.18 -0.157227 -2.03995 0
M  V30 15479 H 1443.19 1.5816 -3.76098 0
M  V30 15480 H 1441.86 0.489946 -4.13004 0
M  V30 15481 H 1440.44 2.02507 -3.13122 0
M  V30 15482 N 1442.63 1.56409 0.193394 0
M  V30 15483 C 1443.56 1.97707 1.24234 0
M  V30 15484 C 1444.54 0.849286 1.47381 0
M  V30 15485 O 1445.72 1.11374 1.59089 0
M  V30 15486 C 1442.85 2.31804 2.5862 0
M  V30 15487 C 1441.81 3.47337 2.50082 0
M  V30 15488 C 1441.13 3.67114 3.88756 0
M  V30 15489 C 1442.43 4.81472 2.02441 0
M  V30 15490 H 1444.13 2.8558 0.89914 0
M  V30 15491 H 1441.67 1.37396 0.431078 0
M  V30 15492 H 1443.62 2.5929 3.32185 0
M  V30 15493 H 1442.35 1.40816 2.94684 0
M  V30 15494 H 1441.01 3.19944 1.78973 0
M  V30 15495 H 1440.66 2.73454 4.22175 0
M  V30 15496 H 1440.36 4.44838 3.83918 0
M  V30 15497 H 1441.88 3.96978 4.6394 0
M  V30 15498 H 1443.29 5.07978 2.65766 0
M  V30 15499 H 1441.69 5.62677 2.08601 0
M  V30 15500 H 1442.76 4.74941 0.977704 0
M  V30 15501 N 1444.1 -0.461169 1.50702 0
M  V30 15502 C 1445.33 -1.24019 1.66235 0
M  V30 15503 C 1445.75 -1.84827 0.349388 0
M  V30 15504 O 1445.11 -1.67743 -0.687888 0
M  V30 15505 C 1445.16 -2.31743 2.76274 0
M  V30 15506 O 1444.26 -3.3664 2.38217 0
M  V30 15507 H 1443.6 -0.364424 0.55506 0
M  V30 15508 H 1446.13 -0.547636 1.97135 0
M  V30 15509 H 1446.14 -2.76902 2.99649 0
M  V30 15510 H 1444.82 -1.86858 3.7156 0
M  V30 15511 H 1443.4 -2.97123 2.25327 0
M  V30 15512 N 1445.58 -1.40446 -0.715026 0
M  V30 15513 C 1446.86 -1.29253 -1.4681 0
M  V30 15514 C 1447.24 0.0888738 -2.10913 0
M  V30 15515 O 1446.59 1.10172 -2.00186 0
M  V30 15516 C 1446.8 -2.43173 -2.50335 0
M  V30 15517 C 1448.14 -2.83433 -3.1615 0
M  V30 15518 O 1449.17 -2.4277 -2.60655 0
M  V30 15519 O 1448.03 -3.53687 -4.16615 0
M  V30 15520 H 1445.12 -0.507627 -0.652873 0
M  V30 15521 H 1447.67 -1.52367 -0.747153 0
M  V30 15522 H 1446.44 -3.35438 -2.01486 0
M  V30 15523 H 1446.06 -2.21832 -3.29964 0
M  V30 15524 N 1447.06 0.947303 -1.25952 0
M  V30 15525 C 1448.31 1.6953 -1.11299 0
M  V30 15526 C 1448.64 1.9113 0.343961 0
M  V30 15527 O 1447.91 1.48755 1.25309 0
M  V30 15528 C 1448.2 3.0738 -1.87588 0
M  V30 15529 C 1448.05 2.93145 -3.41154 0
M  V30 15530 C 1449.37 4.07396 -1.66483 0
M  V30 15531 H 1446.49 0.615281 -0.405707 0
M  V30 15532 H 1449.13 1.10064 -1.54874 0
M  V30 15533 H 1447.28 3.58143 -1.50553 0
M  V30 15534 H 1448.95 2.49651 -3.87907 0
M  V30 15535 H 1447.19 2.28902 -3.68492 0
M  V30 15536 H 1447.87 3.9089 -3.89755 0
M  V30 15537 H 1450.34 3.65572 -1.98738 0
M  V30 15538 H 1449.22 5.01876 -2.22287 0
M  V30 15539 H 1449.48 4.379 -0.607916 0
M  V30 15540 N 1448.54 1.07657 1.15099 0
M  V30 15541 C 1449.45 0.711198 2.2356 0
M  V30 15542 C 1450.46 -0.278932 1.7175 0
M  V30 15543 O 1451.64 -0.124788 2.01013 0
M  V30 15544 C 1448.71 0.117855 3.465 0
M  V30 15545 C 1447.77 1.16162 4.13286 0
M  V30 15546 C 1447 0.596494 5.30356 0
M  V30 15547 O 1447.22 -0.586474 5.67377 0
M  V30 15548 O 1446.16 1.34288 5.86729 0
M  V30 15549 H 1449.98 1.61578 2.5715 0
M  V30 15550 H 1447.57 0.84973 1.22882 0
M  V30 15551 H 1449.45 -0.210613 4.20873 0
M  V30 15552 H 1448.12 -0.760008 3.14652 0
M  V30 15553 H 1447.03 1.54249 3.4082 0
M  V30 15554 H 1448.36 2.01149 4.49221 0
M  V30 15555 N 1450.02 -1.31994 0.861122 0
M  V30 15556 C 1450.93 -2.32495 0.313555 0
M  V30 15557 C 1451.94 -1.64331 -0.571966 0
M  V30 15558 O 1453.12 -1.9582 -0.470794 0
M  V30 15559 C 1450.18 -3.43311 -0.483603 0
M  V30 15560 C 1449.24 -4.27153 0.428825 0
M  V30 15561 C 1448.48 -5.32676 -0.330383 0
M  V30 15562 O 1448.7 -5.48665 -1.55957 0
M  V30 15563 O 1447.63 -6.01116 0.307174 0
M  V30 15564 H 1451.46 -2.81234 1.14636 0
M  V30 15565 H 1449.05 -1.35734 0.624239 0
M  V30 15566 H 1450.93 -4.10877 -0.935831 0
M  V30 15567 H 1449.6 -2.9675 -1.2931 0
M  V30 15568 H 1448.51 -3.62372 0.929366 0
M  V30 15569 H 1449.84 -4.77255 1.20368 0
M  V30 15570 N 1451.49 -0.619688 -1.44906 0
M  V30 15571 C 1452.4 0.0935512 -2.34413 0
M  V30 15572 C 1453.42 0.847738 -1.51952 0
M  V30 15573 O 1454.6 0.802591 -1.84717 0
M  V30 15574 C 1451.66 1.07047 -3.2976 0
M  V30 15575 C 1450.72 0.31691 -4.28129 0
M  V30 15576 C 1449.96 1.24729 -5.1892 0
M  V30 15577 O 1450.18 2.4856 -5.13395 0
M  V30 15578 O 1449.11 0.737799 -5.97361 0
M  V30 15579 H 1452.94 -0.642335 -2.96829 0
M  V30 15580 H 1450.52 -0.379908 -1.44489 0
M  V30 15581 H 1452.41 1.63281 -3.88481 0
M  V30 15582 H 1451.08 1.78717 -2.69893 0
M  V30 15583 H 1449.99 -0.288192 -3.72988 0
M  V30 15584 H 1451.32 -0.359539 -4.90885 0
M  V30 15585 N 1452.97 1.53444 -0.359552 0
M  V30 15586 C 1453.88 2.29257 0.497834 0
M  V30 15587 C 1454.9 1.34987 1.09793 0
M  V30 15588 O 1456.07 1.68039 1.11017 0
M  V30 15589 C 1453.14 3.06258 1.62502 0
M  V30 15590 C 1452.2 4.16183 1.05308 0
M  V30 15591 C 1451.43 4.89503 2.12655 0
M  V30 15592 O 1451.66 4.6263 3.33661 0
M  V30 15593 O 1450.59 5.75578 1.76051 0
M  V30 15594 H 1454.42 3.03467 -0.118925 0
M  V30 15595 H 1452 1.48884 -0.124111 0
M  V30 15596 H 1453.88 3.5436 2.2805 0
M  V30 15597 H 1452.56 2.3489 2.22729 0
M  V30 15598 H 1451.47 3.72348 0.361679 0
M  V30 15599 H 1452.8 4.897 0.49545 0
M  V30 15600 N 1454.45 0.0885642 1.57351 0
M  V30 15601 C 1455.73 -0.618587 1.85561 0
M  V30 15602 C 1456.11 -1.86753 0.984206 0
M  V30 15603 O 1455.46 -2.28434 0.0548839 0
M  V30 15604 C 1455.67 -0.940222 3.36096 0
M  V30 15605 C 1457.01 -1.30649 4.04 0
M  V30 15606 O 1458.04 -1.03144 3.4094 0
M  V30 15607 O 1456.9 -1.82135 5.15256 0
M  V30 15608 H 1453.99 -0.308881 0.767152 0
M  V30 15609 H 1456.54 0.120767 1.6927 0
M  V30 15610 H 1455.31 -0.0538991 3.91263 0
M  V30 15611 H 1454.93 -1.73577 3.5771 0
M  V30 15612 N 1455.93 -1.56509 -0.185096 0
M  V30 15613 C 1457.15 -1.85683 -0.923941 0
M  V30 15614 C 1457.58 -0.673315 -1.75636 0
M  V30 15615 O 1456.94 0.3778 -1.7732 0
M  V30 15616 C 1456.98 -3.13165 -1.78774 0
M  V30 15617 O 1456.09 -2.9442 -2.88775 0
M  V30 15618 H 1455.43 -0.611139 -0.259624 0
M  V30 15619 H 1457.96 -2.0374 -0.187393 0
M  V30 15620 H 1457.97 -3.44216 -2.19042 0
M  V30 15621 H 1456.64 -3.98922 -1.17619 0
M  V30 15622 H 1455.22 -2.7469 -2.5219 0
M  V30 15623 N 1457.41 0.45317 -1.50944 0
M  V30 15624 C 1458.68 1.21413 -1.53357 0
M  V30 15625 C 1459.06 2.09118 -0.288584 0
M  V30 15626 O 1458.41 2.16621 0.727164 0
M  V30 15627 C 1458.62 2.02969 -2.83909 0
M  V30 15628 C 1459.97 2.60551 -3.35258 0
M  V30 15629 O 1460.99 2.13196 -2.85353 0
M  V30 15630 O 1459.85 3.46881 -4.22298 0
M  V30 15631 H 1456.95 0.551909 -0.615894 0
M  V30 15632 H 1459.49 0.463529 -1.63247 0
M  V30 15633 H 1458.26 1.38453 -3.65987 0
M  V30 15634 H 1457.89 2.85127 -2.77107 0
M  V30 15635 N 1458.88 1.40823 0.707568 0
M  V30 15636 C 1460.13 1.39259 1.46463 0
M  V30 15637 C 1460.45 -0.00157854 1.95 0
M  V30 15638 O 1459.72 -0.957723 1.70893 0
M  V30 15639 H 1458.3 0.512558 0.543409 0
M  V30 15640 H 1460.97 1.75952 0.838269 0
M  V30 15641 H 1460.06 2.07243 2.3336 0
M  V30 15642 N 1460.36 -0.94061 1.26453 0
M  V30 15643 C 1461.61 -1.68687 1.12031 0
M  V30 15644 C 1461.94 -1.91571 -0.336252 0
M  V30 15645 O 1461.19 -1.49458 -1.26336 0
M  V30 15646 C 1461.49 -3.06683 1.83521 0
M  V30 15647 C 1461.16 -3.03553 3.33416 0
M  V30 15648 C 1459.82 -3.02407 3.74304 0
M  V30 15649 C 1462.17 -2.95817 4.29118 0
M  V30 15650 C 1459.5 -2.9129 5.09281 0
M  V30 15651 C 1461.85 -2.86242 5.64135 0
M  V30 15652 C 1460.52 -2.83438 6.04333 0
M  V30 15653 H 1459.79 -0.61727 0.40995 0
M  V30 15654 H 1462.43 -1.0979 1.56902 0
M  V30 15655 H 1460.74 -3.69208 1.31121 0
M  V30 15656 H 1462.43 -3.63274 1.69802 0
M  V30 15657 H 1459.02 -3.05226 3.00891 0
M  V30 15658 H 1463.21 -2.9581 3.9851 0
M  V30 15659 H 1458.46 -2.87498 5.39588 0
M  V30 15660 H 1462.64 -2.79219 6.37973 0
M  V30 15661 H 1460.27 -2.74581 7.08879 0
M  V30 15662 N 1461.84 -1.08266 -1.14527 0
M  V30 15663 C 1463.07 -0.831673 -1.89121 0
M  V30 15664 C 1463.48 0.619702 -1.78763 0
M  V30 15665 O 1462.82 1.43748 -1.14377 0
M  V30 15666 C 1462.88 -1.17276 -3.39833 0
M  V30 15667 C 1462.55 -2.62662 -3.73975 0
M  V30 15668 C 1463.54 -3.60913 -3.74216 0
M  V30 15669 C 1461.23 -2.9848 -4.03999 0
M  V30 15670 C 1463.22 -4.93012 -4.04002 0
M  V30 15671 C 1460.91 -4.30773 -4.33448 0
M  V30 15672 C 1461.91 -5.27849 -4.33433 0
M  V30 15673 O 1461.6 -6.57765 -4.6217 0
M  V30 15674 H 1461.33 -0.299687 -0.60594 0
M  V30 15675 H 1463.88 -1.44498 -1.45978 0
M  V30 15676 H 1462.11 -0.502458 -3.83422 0
M  V30 15677 H 1463.8 -0.902831 -3.95732 0
M  V30 15678 H 1464.57 -3.34585 -3.5111 0
M  V30 15679 H 1460.45 -2.23561 -4.03164 0
M  V30 15680 H 1463.99 -5.68776 -4.03906 0
M  V30 15681 H 1459.89 -4.5685 -4.56024 0
M  V30 15682 H 1460.66 -6.63057 -4.79893 0
M  V30 15683 N 1463.32 1.31536 -0.86811 0
M  V30 15684 C 1464.27 2.28562 -0.320602 0
M  V30 15685 C 1465.24 1.55648 0.579902 0
M  V30 15686 O 1466.42 1.83804 0.51194 0
M  V30 15687 C 1463.56 3.41836 0.473499 0
M  V30 15688 C 1462.67 4.29604 -0.454311 0
M  V30 15689 C 1461.81 5.30021 0.353733 0
M  V30 15690 C 1460.85 6.09434 -0.570624 0
M  V30 15691 N 1459.99 7.01812 0.201058 0
M  V30 15692 H 1464.83 2.74782 -1.15322 0
M  V30 15693 H 1462.36 1.35179 -0.580088 0
M  V30 15694 H 1464.32 4.06248 0.949662 0
M  V30 15695 H 1462.95 2.96732 1.27083 0
M  V30 15696 H 1462 3.65653 -1.04892 0
M  V30 15697 H 1463.31 4.85048 -1.16316 0
M  V30 15698 H 1462.47 6.001 0.892484 0
M  V30 15699 H 1461.21 4.75228 1.09589 0
M  V30 15700 H 1460.21 5.38247 -1.12115 0
M  V30 15701 H 1461.44 6.66314 -1.3116 0
M  V30 15702 H 1459.38 6.49431 0.926058 0
M  V30 15703 H 1459.3 7.54668 -0.448494 0
M  V30 15704 H 1460.57 7.76157 0.7211 0
M  V30 15705 N 1464.8 0.627364 1.44575 0
M  V30 15706 C 1465.71 -0.0811184 2.3446 0
M  V30 15707 C 1466.72 -0.839668 1.52399 0
M  V30 15708 O 1467.9 -0.792784 1.8514 0
M  V30 15709 C 1464.96 -1.05296 3.30323 0
M  V30 15710 C 1464.03 -0.294201 4.28291 0
M  V30 15711 C 1463.26 -1.21975 5.19575 0
M  V30 15712 O 1463.48 -2.45834 5.14706 0
M  V30 15713 O 1462.42 -0.70611 5.97744 0
M  V30 15714 H 1466.24 0.658067 2.96485 0
M  V30 15715 H 1463.83 0.387565 1.44285 0
M  V30 15716 H 1465.71 -1.61218 3.89341 0
M  V30 15717 H 1464.38 -1.77283 2.70837 0
M  V30 15718 H 1463.29 0.307969 3.7283 0
M  V30 15719 H 1464.62 0.385567 4.90687 0
M  V30 15720 N 1466.28 -1.53251 0.367684 0
M  V30 15721 C 1467.69 -1.86369 -0.111073 0
M  V30 15722 C 1468.04 -1.2882 -1.47986 0
M  V30 15723 O 1467.16 -0.611058 -2.07593 0
M  V30 15724 C 1467.76 -3.38159 -0.208325 0
M  V30 15725 C 1466.32 -3.71067 -0.63134 0
M  V30 15726 C 1465.46 -2.76425 0.220144 0
M  V30 15727 H 1468.41 -1.47469 0.586398 0
M  V30 15728 H 1468.44 -3.66252 -1.03151 0
M  V30 15729 H 1467.95 -3.80015 0.788038 0
M  V30 15730 H 1466.05 -3.34769 -1.63586 0
M  V30 15731 H 1466.16 -4.77389 -0.404491 0
M  V30 15732 H 1464.53 -2.5279 -0.311298 0
M  V30 15733 H 1465.31 -3.21115 1.21409 0
M  V30 15734 N 1467.75 -0.0969077 -1.57302 0
M  V30 15735 C 1469 0.566072 -1.93594 0
M  V30 15736 C 1469.32 1.69226 -0.980922 0
M  V30 15737 O 1470.52 2.41651 -1.23763 0
M  V30 15738 C 1468.98 1.05832 -3.43988 0
M  V30 15739 C 1468.59 -0.038207 -4.47984 0
M  V30 15740 C 1470.33 1.69393 -3.89238 0
M  V30 15741 C 1468.24 0.4695 -5.89533 0
M  V30 15742 H 1467.17 0.215226 -0.72263 0
M  V30 15743 H 1469.82 -0.173202 -1.82681 0
M  V30 15744 H 1468.2 1.85134 -3.50059 0
M  V30 15745 H 1469.37 -0.813761 -4.53558 0
M  V30 15746 H 1467.69 -0.579113 -4.12353 0
M  V30 15747 H 1470.29 2.08454 -4.92393 0
M  V30 15748 H 1470.63 2.56381 -3.27986 0
M  V30 15749 H 1471.16 0.966709 -3.85875 0
M  V30 15750 H 1467.9 -0.363802 -6.5449 0
M  V30 15751 H 1467.42 1.21202 -5.87427 0
M  V30 15752 H 1469.1 0.937885 -6.40166 0
M  V30 15753 N 1469.23 1.56605 0.176793 0
M  V30 15754 C 1470.46 1.85812 0.910019 0
M  V30 15755 C 1470.87 0.68164 1.76066 0
M  V30 15756 O 1470.23 -0.34936 1.79125 0
M  V30 15757 C 1470.28 3.14001 1.79125 0
M  V30 15758 O 1470 4.27114 0.974931 0
M  V30 15759 C 1471.5 3.56516 2.6346 0
M  V30 15760 H 1468.72 0.616608 0.264643 0
M  V30 15761 H 1471.27 2.03719 0.178537 0
M  V30 15762 H 1469.42 2.97937 2.47613 0
M  V30 15763 H 1469.84 5.00227 1.57711 0
M  V30 15764 H 1471.31 4.49128 3.20918 0
M  V30 15765 H 1471.79 2.80373 3.38065 0
M  V30 15766 H 1472.39 3.75173 2.00313 0
M  V30 15767 N 1470.71 -0.445159 1.51182 0
M  V30 15768 C 1471.64 -1.55943 1.66604 0
M  V30 15769 C 1472.62 -1.54272 0.513703 0
M  V30 15770 O 1473.8 -1.73514 0.736548 0
M  V30 15771 C 1470.93 -2.94528 1.67245 0
M  V30 15772 C 1469.98 -3.14255 2.88351 0
M  V30 15773 S 1470.81 -2.91385 4.49283 0
M  V30 15774 C 1471.97 -4.32265 4.52656 0
M  V30 15775 H 1472.2 -1.42627 2.60854 0
M  V30 15776 H 1469.73 -0.634314 1.40769 0
M  V30 15777 H 1471.69 -3.74414 1.68299 0
M  V30 15778 H 1470.35 -3.05214 0.741856 0
M  V30 15779 H 1469.54 -4.1556 2.85177 0
M  V30 15780 H 1469.15 -2.42182 2.84998 0
M  V30 15781 H 1471.44 -5.25338 4.27816 0
M  V30 15782 H 1472.38 -4.40474 5.54426 0
M  V30 15783 H 1472.79 -4.15555 3.82066 0
M  V30 15784 N 1472.19 -1.41197 -0.700089 0
M  V30 15785 C 1473.1 -1.45038 -1.84394 0
M  V30 15786 C 1474.11 -0.34141 -1.70618 0
M  V30 15787 O 1475.29 -0.588428 -1.92612 0
M  V30 15788 C 1472.35 -1.32611 -3.20336 0
M  V30 15789 C 1471.42 -2.53784 -3.46254 0
M  V30 15790 C 1470.65 -2.4194 -4.75711 0
M  V30 15791 O 1470.87 -1.44153 -5.51884 0
M  V30 15792 O 1469.81 -3.31613 -5.02311 0
M  V30 15793 H 1473.63 -2.41531 -1.8411 0
M  V30 15794 H 1471.22 -1.22686 -0.852558 0
M  V30 15795 H 1473.1 -1.27947 -4.01507 0
M  V30 15796 H 1471.77 -0.392309 -3.21314 0
M  V30 15797 H 1470.68 -2.64024 -2.65032 0
M  V30 15798 H 1472.01 -3.45977 -3.50087 0
M  V30 15799 N 1473.67 0.933891 -1.2695 0
M  V30 15800 C 1474.94 1.65874 -1.0366 0
M  V30 15801 C 1475.32 2.0666 0.43066 0
M  V30 15802 O 1474.67 1.79606 1.41259 0
M  V30 15803 C 1474.88 2.86546 -1.99229 0
M  V30 15804 C 1476.23 3.58031 -2.28251 0
M  V30 15805 O 1477.25 2.96663 -1.97154 0
M  V30 15806 O 1476.11 4.68583 -2.81233 0
M  V30 15807 H 1473.21 0.72673 -0.394706 0
M  V30 15808 H 1475.75 0.984975 -1.38189 0
M  V30 15809 H 1474.52 2.53351 -2.9821 0
M  V30 15810 H 1474.15 3.61645 -1.65224 0
M  V30 15811 N 1475.14 1.08871 1.13951 0
M  V30 15812 C 1476.07 0.744715 2.21306 0
M  V30 15813 C 1477.05 -0.275019 1.67862 0
M  V30 15814 O 1478.24 -0.144339 1.93663 0
M  V30 15815 C 1475.37 0.158336 3.46939 0
M  V30 15816 C 1474.32 1.10695 4.13438 0
M  V30 15817 C 1473.65 0.382552 5.3333 0
M  V30 15818 C 1474.95 2.44704 4.61429 0
M  V30 15819 H 1476.64 1.6423 2.50337 0
M  V30 15820 H 1474.19 0.791088 1.20324 0
M  V30 15821 H 1476.14 -0.0943587 4.21294 0
M  V30 15822 H 1474.87 -0.774413 3.17286 0
M  V30 15823 H 1473.53 1.34482 3.41043 0
M  V30 15824 H 1473.17 -0.554153 4.99938 0
M  V30 15825 H 1472.87 1.01499 5.78767 0
M  V30 15826 H 1474.4 0.138023 6.10444 0
M  V30 15827 H 1475.81 2.25156 5.27236 0
M  V30 15828 H 1474.21 3.03684 5.17586 0
M  V30 15829 H 1475.28 3.05883 3.76249 0
M  V30 15830 N 1476.62 -1.31073 0.875073 0
M  V30 15831 C 1477.87 -1.95791 0.484661 0
M  V30 15832 C 1478.18 -1.69907 -0.969074 0
M  V30 15833 O 1479.39 -2.28527 -1.46587 0
M  V30 15834 C 1477.85 -3.50532 0.815804 0
M  V30 15835 C 1477.45 -3.85249 2.28664 0
M  V30 15836 C 1479.2 -4.21615 0.494111 0
M  V30 15837 C 1477.1 -5.33124 2.55993 0
M  V30 15838 H 1476.03 -0.732806 0.177516 0
M  V30 15839 H 1478.69 -1.49169 1.06868 0
M  V30 15840 H 1477.07 -3.95673 0.16098 0
M  V30 15841 H 1478.24 -3.51051 2.98496 0
M  V30 15842 H 1476.56 -3.27244 2.57488 0
M  V30 15843 H 1479.15 -5.30417 0.675456 0
M  V30 15844 H 1479.5 -4.12437 -0.565815 0
M  V30 15845 H 1480.03 -3.82125 1.1057 0
M  V30 15846 H 1476.77 -5.47343 3.60688 0
M  V30 15847 H 1476.29 -5.68657 1.90761 0
M  V30 15848 H 1477.97 -6.00446 2.40984 0
M  V30 15849 N 1478.1 -0.635022 -1.4424 0
M  V30 15850 C 1479.33 -0.146549 -2.06882 0
M  V30 15851 C 1479.75 1.17143 -1.4717 0
M  V30 15852 O 1479.11 1.71952 -0.574636 0
M  V30 15853 C 1479.16 -0.0494694 -3.60566 0
M  V30 15854 O 1478.26 0.993423 -4.00256 0
M  V30 15855 H 1477.6 -0.0865505 -0.658335 0
M  V30 15856 H 1480.13 -0.872803 -1.85049 0
M  V30 15857 H 1480.14 0.139839 -4.0776 0
M  V30 15858 H 1478.82 -1.01169 -4.03407 0
M  V30 15859 H 1477.39 0.778372 -3.64686 0
M  V30 15860 N 1479.58 1.53054 -0.375806 0
M  V30 15861 C 1480.81 2.05521 0.210828 0
M  V30 15862 C 1481.22 1.24837 1.4217 0
M  V30 15863 O 1480.56 0.284634 1.81481 0
M  V30 15864 C 1480.62 3.53417 0.658548 0
M  V30 15865 C 1480.29 4.54906 -0.437025 0
M  V30 15866 C 1481.28 5.03638 -1.29016 0
M  V30 15867 C 1478.97 4.98701 -0.600194 0
M  V30 15868 C 1480.96 5.94777 -2.29171 0
M  V30 15869 C 1478.65 5.89644 -1.6051 0
M  V30 15870 C 1479.65 6.37573 -2.44929 0
M  V30 15871 O 1479.33 7.26721 -3.43703 0
M  V30 15872 H 1479.07 0.674893 0.0386627 0
M  V30 15873 H 1481.62 1.98296 -0.535534 0
M  V30 15874 H 1479.85 3.58215 1.45667 0
M  V30 15875 H 1481.54 3.88692 1.16933 0
M  V30 15876 H 1482.31 4.70543 -1.17534 0
M  V30 15877 H 1478.18 4.60976 0.0471346 0
M  V30 15878 H 1481.73 6.3211 -2.95099 0
M  V30 15879 H 1477.63 6.22153 -1.72035 0
M  V30 15880 H 1478.39 7.44746 -3.39553 0
M  V30 15881 N 1481.06 0.105248 1.57248 0
M  V30 15882 C 1482.28 -0.567515 1.99484 0
M  V30 15883 C 1482.71 -1.60298 0.984182 0
M  V30 15884 O 1482.06 -1.81242 -0.0459944 0
M  V30 15885 C 1482.11 -1.18271 3.40653 0
M  V30 15886 O 1481.22 -2.29843 3.42412 0
M  V30 15887 H 1480.56 -0.143069 0.648404 0
M  V30 15888 H 1483.09 0.189661 2.03719 0
M  V30 15889 H 1483.1 -1.52157 3.78566 0
M  V30 15890 H 1481.77 -0.424179 4.13731 0
M  V30 15891 H 1480.35 -1.975 3.16304 0
M  V30 15892 N 1482.53 -1.56697 -0.168486 0
M  V30 15893 C 1483.78 -1.82154 -0.884654 0
M  V30 15894 C 1484.11 -0.682778 -1.82122 0
M  V30 15895 O 1483.36 0.32977 -1.92902 0
M  V30 15896 C 1483.66 -3.138 -1.71068 0
M  V30 15897 C 1483.33 -4.41356 -0.922793 0
M  V30 15898 C 1481.99 -4.76002 -0.705352 0
M  V30 15899 C 1484.34 -5.19883 -0.370323 0
M  V30 15900 C 1481.67 -5.86651 0.0756121 0
M  V30 15901 C 1484.02 -6.31349 0.397568 0
M  V30 15902 C 1482.69 -6.6456 0.625782 0
M  V30 15903 H 1481.96 -0.666549 -0.323718 0
M  V30 15904 H 1484.6 -1.90916 -0.149432 0
M  V30 15905 H 1482.91 -3.00393 -2.51538 0
M  V30 15906 H 1484.61 -3.30708 -2.2679 0
M  V30 15907 H 1481.2 -4.14182 -1.10231 0
M  V30 15908 H 1485.38 -4.93509 -0.525646 0
M  V30 15909 H 1480.64 -6.10838 0.262137 0
M  V30 15910 H 1484.81 -6.91401 0.832902 0
M  V30 15911 H 1482.44 -7.50137 1.23281 0
M  V30 15912 N 1484.01 0.437135 -1.51416 0
M  V30 15913 C 1484.94 1.54894 -1.68939 0
M  V30 15914 C 1485.96 1.52493 -0.570059 0
M  V30 15915 O 1487.15 1.57266 -0.844381 0
M  V30 15916 C 1484.25 2.9381 -1.68904 0
M  V30 15917 C 1483.42 3.20714 -2.97425 0
M  V30 15918 C 1482.48 4.39355 -2.89575 0
M  V30 15919 O 1481.5 4.37999 -3.63519 0
M  V30 15920 N 1482.71 5.42931 -2.05441 0
M  V30 15921 H 1485.47 1.40267 -2.64849 0
M  V30 15922 H 1483.03 0.626075 -1.49305 0
M  V30 15923 H 1485.02 3.71201 -1.61221 0
M  V30 15924 H 1483.59 3.02034 -0.805871 0
M  V30 15925 H 1482.81 2.31621 -3.18975 0
M  V30 15926 H 1484.1 3.35516 -3.825 0
M  V30 15927 H 1483.5 5.4687 -1.44742 0
M  V30 15928 H 1482.06 6.19173 -2.03636 0
M  V30 15929 N 1485.49 1.41566 0.692592 0
M  V30 15930 C 1486.74 1.41292 1.4548 0
M  V30 15931 C 1487.07 0.0229093 1.94186 0
M  V30 15932 O 1486.34 -0.949849 1.6973 0
M  V30 15933 C 1486.63 2.42225 2.66457 0
M  V30 15934 C 1486.48 3.90345 2.23496 0
M  V30 15935 C 1487.8 2.40374 3.68658 0
M  V30 15936 H 1484.92 0.51453 0.527663 0
M  V30 15937 H 1487.56 1.72862 0.788598 0
M  V30 15938 H 1485.71 2.15435 3.23296 0
M  V30 15939 H 1487.38 4.2805 1.71962 0
M  V30 15940 H 1485.63 4.05068 1.55249 0
M  V30 15941 H 1486.3 4.56518 3.10314 0
M  V30 15942 H 1488.77 2.64156 3.21498 0
M  V30 15943 H 1487.65 3.13004 4.5091 0
M  V30 15944 H 1487.91 1.42338 4.1856 0
M  V30 15945 N 1486.97 -0.927146 1.27443 0
M  V30 15946 C 1487.93 -2.00938 1.10257 0
M  V30 15947 C 1488.93 -1.60733 0.0463898 0
M  V30 15948 O 1490.12 -1.71752 0.291029 0
M  V30 15949 C 1487.25 -3.34047 0.680115 0
M  V30 15950 H 1488.45 -2.17615 2.06358 0
M  V30 15951 H 1486 -1.10802 1.10239 0
M  V30 15952 H 1486.73 -3.23069 -0.282259 0
M  V30 15953 H 1486.52 -3.64585 1.44291 0
M  V30 15954 H 1488.01 -4.13523 0.582126 0
M  V30 15955 N 1488.45 -1.09474 -1.13372 0
M  V30 15956 C 1489.86 -0.824541 -1.36651 0
M  V30 15957 C 1490.06 0.560903 -1.93536 0
M  V30 15958 O 1489.12 1.31567 -2.15514 0
M  V30 15959 C 1490.43 -1.91618 -2.31739 0
M  V30 15960 C 1491.98 -1.94346 -2.45354 0
M  V30 15961 C 1492.45 -3.02655 -3.4375 0
M  V30 15962 N 1493.95 -3.01898 -3.513 0
M  V30 15963 C 1494.68 -3.82344 -4.27318 0
M  V30 15964 N 1494.18 -4.727 -5.06484 0
M  V30 15965 N 1495.97 -3.70602 -4.22623 0
M  V30 15966 H 1488.12 -1.98793 -0.748005 0
M  V30 15967 H 1490.38 -0.863318 -0.391646 0
M  V30 15968 H 1490.09 -2.91282 -1.97098 0
M  V30 15969 H 1489.96 -1.79484 -3.31761 0
M  V30 15970 H 1492.35 -0.953206 -2.79281 0
M  V30 15971 H 1492.43 -2.10558 -1.45255 0
M  V30 15972 H 1492.08 -4.01894 -3.10553 0
M  V30 15973 H 1492.01 -2.83687 -4.43655 0
M  V30 15974 H 1494.5 -2.36417 -2.94814 0
M  V30 15975 H 1494.81 -5.30665 -5.61796 0
M  V30 15976 H 1493.15 -4.76736 -5.05715 0
M  V30 15977 H 1496.35 -2.99372 -3.59853 0
M  V30 15978 H 1496.52 -4.33535 -4.81614 0
M  V30 15979 N 1489.92 1.30607 -0.882012 0
M  V30 15980 C 1491.17 1.95869 -0.497978 0
M  V30 15981 C 1491.49 1.69991 0.955405 0
M  V30 15982 O 1490.76 1.02188 1.67136 0
M  V30 15983 H 1489.34 0.724699 -0.181165 0
M  V30 15984 H 1492.01 1.59193 -1.12444 0
M  V30 15985 H 1491.1 3.04917 -0.665754 0
M  V30 15986 N 1491.4 0.642663 1.43901 0
M  V30 15987 C 1492.34 -0.104884 2.27959 0
M  V30 15988 C 1493.31 -0.840134 1.39214 0
M  V30 15989 O 1494.5 -0.841868 1.68656 0
M  V30 15990 C 1491.62 -1.15496 3.184 0
M  V30 15991 C 1490.67 -0.518946 4.23331 0
M  V30 15992 S 1491.5 0.699619 5.3091 0
M  V30 15993 C 1492.66 -0.350181 6.2492 0
M  V30 15994 H 1492.89 0.608181 2.91013 0
M  V30 15995 H 1490.43 0.431176 1.48257 0
M  V30 15996 H 1492.38 -1.75582 3.71054 0
M  V30 15997 H 1491.04 -1.84028 2.54544 0
M  V30 15998 H 1490.24 -1.31018 4.86673 0
M  V30 15999 H 1489.84 0.00756354 3.73999 0
M  V30 16000 H 1492.13 -1.21944 6.66435 0
M  V30 16001 H 1493.07 0.247942 7.07666 0
M  V30 16002 H 1493.48 -0.681254 5.60374 0
M  V30 16003 N 1492.88 -1.52852 0.383918 0
M  V30 16004 C 1493.79 -2.3002 -0.461298 0
M  V30 16005 C 1494.81 -1.36717 -1.07631 0
M  V30 16006 O 1495.98 -1.69784 -1.08329 0
M  V30 16007 C 1493.05 -3.08804 -1.57609 0
M  V30 16008 C 1492.11 -4.17806 -0.986737 0
M  V30 16009 C 1491.34 -4.92825 -2.04841 0
M  V30 16010 O 1491.57 -4.67879 -3.26259 0
M  V30 16011 O 1490.5 -5.78306 -1.66871 0
M  V30 16012 H 1494.33 -3.03239 0.167189 0
M  V30 16013 H 1491.91 -1.48667 0.147781 0
M  V30 16014 H 1493.79 -3.57943 -2.22384 0
M  V30 16015 H 1492.47 -2.38404 -2.18964 0
M  V30 16016 H 1491.37 -3.72876 -0.302396 0
M  V30 16017 H 1492.71 -4.90426 -0.417481 0
M  V30 16018 N 1494.36 -0.113586 -1.5719 0
M  V30 16019 C 1495.61 0.54572 -1.95008 0
M  V30 16020 C 1495.93 1.67031 -0.996541 0
M  V30 16021 O 1495.19 1.9569 -0.0194353 0
M  V30 16022 C 1495.49 1.1238 -3.39272 0
M  V30 16023 C 1495.15 0.12112 -4.50737 0
M  V30 16024 C 1493.82 -0.154607 -4.80952 0
M  V30 16025 C 1496.17 -0.562502 -5.18156 0
M  V30 16026 C 1493.5 -1.12033 -5.75904 0
M  V30 16027 C 1495.85 -1.51682 -6.14146 0
M  V30 16028 C 1494.51 -1.80059 -6.42756 0
M  V30 16029 H 1493.78 0.199693 -0.713585 0
M  V30 16030 H 1496.43 -0.193344 -1.90521 0
M  V30 16031 H 1494.73 1.93951 -3.40426 0
M  V30 16032 H 1496.43 1.64195 -3.65843 0
M  V30 16033 H 1493.02 0.34621 -4.27199 0
M  V30 16034 H 1497.21 -0.362645 -4.94973 0
M  V30 16035 H 1492.46 -1.34699 -5.96377 0
M  V30 16036 H 1496.64 -2.05225 -6.65474 0
M  V30 16037 H 1494.26 -2.55046 -7.16139 0
M  V30 16038 N 1495.84 1.56784 0.160173 0
M  V30 16039 C 1496.77 2.00298 1.20012 0
M  V30 16040 C 1497.75 0.880356 1.45546 0
M  V30 16041 O 1498.93 1.14724 1.56691 0
M  V30 16042 C 1496.06 2.37238 2.53645 0
M  V30 16043 C 1495.02 3.52563 2.42658 0
M  V30 16044 C 1494.34 3.75278 3.80881 0
M  V30 16045 C 1495.64 4.85657 1.92183 0
M  V30 16046 H 1497.34 2.87423 0.838362 0
M  V30 16047 H 1494.88 1.3828 0.401838 0
M  V30 16048 H 1496.84 2.66278 3.2661 0
M  V30 16049 H 1495.56 1.47035 2.9163 0
M  V30 16050 H 1494.22 3.23669 1.72146 0
M  V30 16051 H 1493.87 2.82347 4.1628 0
M  V30 16052 H 1493.57 4.52882 3.74396 0
M  V30 16053 H 1495.09 4.0673 4.55415 0
M  V30 16054 H 1496.51 5.13501 2.54931 0
M  V30 16055 H 1494.9 5.66975 1.96619 0
M  V30 16056 H 1495.97 4.76908 0.876742 0
M  V30 16057 N 1497.32 -0.429099 1.51646 0
M  V30 16058 C 1498.54 -1.20465 1.68828 0
M  V30 16059 C 1498.97 -1.84044 0.388514 0
M  V30 16060 O 1498.32 -1.69165 -0.652152 0
M  V30 16061 C 1498.37 -2.25831 2.81128 0
M  V30 16062 O 1497.48 -3.31511 2.45305 0
M  V30 16063 H 1496.82 -0.352568 0.562665 0
M  V30 16064 H 1499.35 -0.505698 1.98252 0
M  V30 16065 H 1499.36 -2.70484 3.05455 0
M  V30 16066 H 1498.03 -1.78934 3.7544 0
M  V30 16067 H 1496.61 -2.92277 2.31579 0
M  V30 16068 N 1498.79 -1.41931 -0.685074 0
M  V30 16069 C 1500.02 -1.45432 -1.47866 0
M  V30 16070 C 1500.44 -0.0641302 -1.87991 0
M  V30 16071 O 1499.8 0.935081 -1.55325 0
M  V30 16072 C 1499.85 -2.37801 -2.71077 0
M  V30 16073 O 1498.95 -1.84229 -3.68963 0
M  V30 16074 H 1498.29 -0.493156 -0.444627 0
M  V30 16075 H 1500.82 -1.86508 -0.841177 0
M  V30 16076 H 1500.83 -2.54033 -3.19266 0
M  V30 16077 H 1499.51 -3.38807 -2.41211 0
M  V30 16078 H 1498.09 -1.775 -3.27945 0
M  V30 16079 N 1500.27 0.920374 -1.27933 0
M  V30 16080 C 1501.69 1.19761 -1.05496 0
M  V30 16081 C 1501.89 2.00435 0.206864 0
M  V30 16082 O 1500.94 2.35518 0.910356 0
M  V30 16083 C 1502.26 1.93863 -2.29864 0
M  V30 16084 C 1503.8 2.06773 -2.34976 0
M  V30 16085 C 1504.28 2.84282 -3.59093 0
M  V30 16086 N 1505.77 2.91847 -3.59694 0
M  V30 16087 C 1506.51 3.52303 -4.52404 0
M  V30 16088 N 1506 4.14092 -5.55427 0
M  V30 16089 N 1507.79 3.49778 -4.40013 0
M  V30 16090 H 1499.95 0.381596 -2.08944 0
M  V30 16091 H 1502.21 0.231451 -0.919312 0
M  V30 16092 H 1501.91 1.42008 -3.21756 0
M  V30 16093 H 1501.79 2.94446 -2.35757 0
M  V30 16094 H 1504.18 2.57812 -1.43586 0
M  V30 16095 H 1504.26 1.05388 -2.33082 0
M  V30 16096 H 1503.9 2.33925 -4.50823 0
M  V30 16097 H 1503.83 3.85968 -3.5824 0
M  V30 16098 H 1506.32 2.4794 -2.85191 0
M  V30 16099 H 1506.63 4.58183 -6.22325 0
M  V30 16100 H 1504.98 4.12616 -5.59261 0
M  V30 16101 H 1508.17 3.00712 -3.58733 0
M  V30 16102 H 1508.34 3.96603 -5.12455 0
M  V30 16103 N 1501.75 1.10074 1.1279 0
M  V30 16104 C 1502.7 0.746173 2.18405 0
M  V30 16105 C 1503.67 -0.275751 1.63795 0
M  V30 16106 O 1504.85 -0.155876 1.90162 0
M  V30 16107 C 1501.99 0.180105 3.4463 0
M  V30 16108 C 1501.1 1.25688 4.13312 0
M  V30 16109 C 1500.24 0.652852 5.27173 0
M  V30 16110 C 1499.28 1.71046 5.87716 0
M  V30 16111 N 1498.42 1.12698 6.92996 0
M  V30 16112 H 1503.26 1.65105 2.48081 0
M  V30 16113 H 1500.79 0.824768 1.21803 0
M  V30 16114 H 1502.75 -0.165948 4.1687 0
M  V30 16115 H 1501.38 -0.688014 3.15383 0
M  V30 16116 H 1500.43 1.72011 3.39288 0
M  V30 16117 H 1501.74 2.05762 4.54382 0
M  V30 16118 H 1500.9 0.25603 6.0616 0
M  V30 16119 H 1499.64 -0.17937 4.8737 0
M  V30 16120 H 1498.64 2.11676 5.07418 0
M  V30 16121 H 1499.87 2.54547 6.29589 0
M  V30 16122 H 1497.81 0.316154 6.55238 0
M  V30 16123 H 1497.73 1.86461 7.32645 0
M  V30 16124 H 1499 0.756582 7.7582 0
M  V30 16125 N 1503.23 -1.30138 0.888926 0
M  V30 16126 C 1504.47 -1.97776 0.516122 0
M  V30 16127 C 1504.83 -1.68613 -0.918358 0
M  V30 16128 O 1506.03 -2.29617 -1.39748 0
M  V30 16129 C 1504.3 -3.48608 0.787866 0
M  V30 16130 S 1505.86 -4.35735 0.517757 0
M  V30 16131 H 1502.68 -0.684617 0.191885 0
M  V30 16132 H 1505.28 -1.58168 1.14904 0
M  V30 16133 H 1503.99 -3.67326 1.8303 0
M  V30 16134 H 1503.52 -3.93141 0.142652 0
M  V30 16135 H 1505.53 -4.9203 -0.64192 0
M  V30 16136 N 1504.71 -0.650285 -1.43559 0
M  V30 16137 C 1505.95 -0.159832 -2.01066 0
M  V30 16138 C 1506.27 1.23246 -1.51887 0
M  V30 16139 O 1507.47 1.81797 -2.01648 0
M  V30 16140 C 1505.93 -0.23494 -3.59132 0
M  V30 16141 C 1505.54 -1.62975 -4.17305 0
M  V30 16142 C 1507.28 0.198061 -4.24038 0
M  V30 16143 C 1505.19 -1.65894 -5.67656 0
M  V30 16144 H 1504.12 -0.0559899 -0.751918 0
M  V30 16145 H 1506.77 -0.811891 -1.64562 0
M  V30 16146 H 1505.15 0.484573 -3.93024 0
M  V30 16147 H 1506.33 -2.37438 -3.94918 0
M  V30 16148 H 1504.64 -2.00847 -3.64759 0
M  V30 16149 H 1507.24 0.196054 -5.3434 0
M  V30 16150 H 1507.58 1.22896 -3.97747 0
M  V30 16151 H 1508.11 -0.469602 -3.95018 0
M  V30 16152 H 1504.85 -2.66883 -5.9871 0
M  V30 16153 H 1504.37 -0.957519 -5.92108 0
M  V30 16154 H 1506.05 -1.40137 -6.31641 0
M  V30 16155 N 1506.18 1.52647 -0.392018 0
M  V30 16156 C 1507.13 2.23336 0.458815 0
M  V30 16157 C 1508.12 1.23825 1.02743 0
M  V30 16158 O 1509.31 1.49148 0.953089 0
M  V30 16159 C 1506.44 3.04566 1.58412 0
M  V30 16160 C 1505.52 4.11474 1.02711 0
M  V30 16161 N 1505.92 5.05423 0.195282 0
M  V30 16162 C 1504.21 4.26654 1.29934 0
M  V30 16163 C 1504.91 5.81591 -0.112738 0
M  V30 16164 N 1503.89 5.4137 0.491926 0
M  V30 16165 H 1507.69 2.93328 -0.183222 0
M  V30 16166 H 1505.21 1.61145 -0.201476 0
M  V30 16167 H 1507.2 3.53747 2.2061 0
M  V30 16168 H 1505.86 2.36109 2.22896 0
M  V30 16169 H 1506.87 5.17628 -0.167677 0
M  V30 16170 H 1503.55 3.69426 1.94501 0
M  V30 16171 H 1504.94 6.67276 -0.786879 0
M  V30 16172 N 1507.66 0.121921 1.57128 0
M  V30 16173 C 1509.08 -0.234655 1.57866 0
M  V30 16174 C 1509.28 -1.66506 1.13482 0
M  V30 16175 O 1508.33 -2.38692 0.823544 0
M  V30 16176 C 1509.65 0.00131784 3.007 0
M  V30 16177 C 1511.2 -0.0643537 3.12934 0
M  V30 16178 C 1511.67 0.143964 4.57774 0
M  V30 16179 N 1513.16 0.0900323 4.63112 0
M  V30 16180 C 1513.9 0.22608 5.72954 0
M  V30 16181 N 1513.39 0.418461 6.91535 0
M  V30 16182 N 1515.19 0.165449 5.61856 0
M  V30 16183 H 1507.34 1.05618 1.84279 0
M  V30 16184 H 1509.6 0.416132 0.851785 0
M  V30 16185 H 1509.31 0.99031 3.3747 0
M  V30 16186 H 1509.18 -0.729266 3.70083 0
M  V30 16187 H 1511.57 -1.04387 2.7602 0
M  V30 16188 H 1511.65 0.698157 2.46088 0
M  V30 16189 H 1511.29 1.12047 4.95387 0
M  V30 16190 H 1511.22 -0.638569 5.22714 0
M  V30 16191 H 1513.71 -0.0550269 3.7786 0
M  V30 16192 H 1514.03 0.513057 7.71095 0
M  V30 16193 H 1512.37 0.454471 6.93512 0
M  V30 16194 H 1515.56 0.0160945 4.68097 0
M  V30 16195 H 1515.73 0.274917 6.47417 0
M  V30 16196 N 1509.14 -1.56867 -0.151857 0
M  V30 16197 C 1510.42 -1.7399 -0.893694 0
M  V30 16198 C 1510.8 -0.688628 -1.99552 0
M  V30 16199 O 1510.15 0.293289 -2.2661 0
M  V30 16200 C 1510.36 -3.1788 -1.44061 0
M  V30 16201 C 1511.7 -3.7942 -1.90592 0
M  V30 16202 O 1512.73 -3.21279 -1.53813 0
M  V30 16203 O 1511.59 -4.81549 -2.58404 0
M  V30 16204 H 1508.68 -0.711229 -0.421998 0
M  V30 16205 H 1511.23 -1.69137 -0.138162 0
M  V30 16206 H 1510 -3.85888 -0.648529 0
M  V30 16207 H 1509.62 -3.27139 -2.25978 0
M  V30 16208 N 1510.62 0.421051 -1.51871 0
M  V30 16209 C 1511.55 1.51928 -1.77313 0
M  V30 16210 C 1512.53 1.58258 -0.623579 0
M  V30 16211 O 1513.71 1.73724 -0.867967 0
M  V30 16212 C 1510.84 2.89865 -1.913 0
M  V30 16213 C 1509.8 2.98391 -3.06834 0
M  V30 16214 C 1509.12 4.38466 -3.06026 0
M  V30 16215 C 1510.42 2.7097 -4.46511 0
M  V30 16216 H 1512.12 1.30889 -2.69274 0
M  V30 16217 H 1509.66 0.628229 -1.29573 0
M  V30 16218 H 1511.62 3.66669 -2.07682 0
M  V30 16219 H 1510.34 3.12172 -0.960011 0
M  V30 16220 H 1509 2.24029 -2.90184 0
M  V30 16221 H 1508.65 4.57764 -2.08472 0
M  V30 16222 H 1508.35 4.45097 -3.83618 0
M  V30 16223 H 1509.87 5.17221 -3.24522 0
M  V30 16224 H 1511.29 3.37501 -4.63428 0
M  V30 16225 H 1509.68 2.88992 -5.25931 0
M  V30 16226 H 1510.75 1.66476 -4.55427 0
M  V30 16227 N 1512.1 1.42293 0.677538 0
M  V30 16228 C 1513.06 1.45258 1.77293 0
M  V30 16229 C 1514.06 0.340554 1.57152 0
M  V30 16230 O 1515.25 0.601259 1.63495 0
M  V30 16231 C 1512.38 1.28156 3.15894 0
M  V30 16232 H 1513.57 2.42787 1.76052 0
M  V30 16233 H 1511.13 1.287 0.886908 0
M  V30 16234 H 1511.86 0.315381 3.22763 0
M  V30 16235 H 1511.65 2.08744 3.31916 0
M  V30 16236 H 1513.14 1.33107 3.95818 0
M  V30 16237 N 1513.57 -0.913576 1.28419 0
M  V30 16238 C 1514.54 -1.99757 1.12382 0
M  V30 16239 C 1515.54 -1.60675 0.063435 0
M  V30 16240 O 1516.73 -1.71433 0.30923 0
M  V30 16241 C 1513.86 -3.33307 0.715506 0
M  V30 16242 H 1515.05 -2.15414 2.08655 0
M  V30 16243 H 1512.61 -1.09626 1.11408 0
M  V30 16244 H 1513.34 -3.23351 -0.247977 0
M  V30 16245 H 1513.13 -3.63034 1.4815 0
M  V30 16246 H 1514.62 -4.12882 0.625953 0
M  V30 16247 N 1515.05 -1.1067 -1.12204 0
M  V30 16248 C 1516.47 -0.838988 -1.35769 0
M  V30 16249 C 1516.67 0.540345 -1.9412 0
M  V30 16250 O 1515.72 1.29274 -2.16897 0
M  V30 16251 C 1517.04 -1.94065 -2.29694 0
M  V30 16252 C 1518.59 -1.96938 -2.43279 0
M  V30 16253 C 1519.06 -3.06284 -3.4052 0
M  V30 16254 N 1520.55 -3.05607 -3.48079 0
M  V30 16255 C 1521.29 -3.86855 -4.23238 0
M  V30 16256 N 1520.78 -4.78046 -5.01442 0
M  V30 16257 N 1522.58 -3.75064 -4.18669 0
M  V30 16258 H 1514.73 -1.99575 -0.726878 0
M  V30 16259 H 1516.99 -0.867423 -0.382467 0
M  V30 16260 H 1516.7 -2.93356 -1.93997 0
M  V30 16261 H 1516.57 -1.82992 -3.29839 0
M  V30 16262 H 1518.96 -0.982774 -2.78254 0
M  V30 16263 H 1519.04 -2.12087 -1.43014 0
M  V30 16264 H 1518.68 -4.05165 -3.06273 0
M  V30 16265 H 1518.61 -2.88376 -4.40621 0
M  V30 16266 H 1521.1 -2.39531 -2.9229 0
M  V30 16267 H 1521.42 -5.36594 -5.56136 0
M  V30 16268 H 1519.76 -4.82073 -5.0063 0
M  V30 16269 H 1522.95 -3.03172 -3.56657 0
M  V30 16270 H 1523.12 -4.38618 -4.76988 0
M  V30 16271 N 1516.53 1.29665 -0.895815 0
M  V30 16272 C 1517.48 2.29791 -0.360404 0
M  V30 16273 C 1518.47 1.60617 0.538384 0
M  V30 16274 O 1519.68 1.74993 0.421616 0
M  V30 16275 H 1516.05 0.745599 -0.0979118 0
M  V30 16276 H 1518.02 2.72396 -1.21832 0
M  V30 16277 C 1516.77 3.45386 0.400451 0
M  V30 16278 H 1516.1 3.98805 -0.281915 0
M  V30 16279 H 1517.54 4.17492 0.740003 0
M  V30 16280 C 1516 2.96393 1.60165 0
M  V30 16281 O 1516.53 2.97339 2.70097 0
M  V30 16282 N 1514.73 2.52271 1.44249 0
M  V30 16283 H 1514.28 2.51701 0.548142 0
M  V30 16284 H 1514.24 2.19849 2.24753 0
M  V30 16285 N 1518.01 0.657889 1.43212 0
M  V30 16286 C 1519.26 0.170493 2.00978 0
M  V30 16287 C 1519.57 -1.22439 1.52539 0
M  V30 16288 O 1520.78 -1.80725 2.02609 0
M  V30 16289 C 1519.23 0.253982 3.59003 0
M  V30 16290 C 1518.84 1.65185 4.16435 0
M  V30 16291 C 1520.58 -0.17557 4.24137 0
M  V30 16292 C 1518.49 1.68902 5.66768 0
M  V30 16293 H 1517.42 0.0599767 0.751611 0
M  V30 16294 H 1520.07 0.820606 1.64129 0
M  V30 16295 H 1518.45 -0.463723 3.93275 0
M  V30 16296 H 1519.63 2.39529 3.93653 0
M  V30 16297 H 1517.94 2.02779 3.63689 0
M  V30 16298 H 1520.54 -0.167714 5.34437 0
M  V30 16299 H 1520.88 -1.20784 3.98393 0
M  V30 16300 H 1521.42 0.490544 3.94764 0
M  V30 16301 H 1518.16 2.70055 5.97286 0
M  V30 16302 H 1517.68 0.988906 5.91592 0
M  V30 16303 H 1519.35 1.43485 6.30889 0
M  V30 16304 N 1519.49 -1.52437 0.400108 0
M  V30 16305 C 1520.42 -2.29672 -0.421054 0
M  V30 16306 C 1521.4 -1.33506 -1.05405 0
M  V30 16307 O 1522.58 -1.62408 -1.06477 0
M  V30 16308 C 1519.71 -3.1115 -1.54281 0
M  V30 16309 C 1518.67 -4.1529 -1.0353 0
M  V30 16310 C 1517.99 -4.85058 -2.24996 0
M  V30 16311 C 1519.29 -5.22212 -0.0956529 0
M  V30 16312 H 1520.99 -2.98565 0.2234 0
M  V30 16313 H 1518.53 -1.43588 0.108883 0
M  V30 16314 H 1520.49 -3.63945 -2.12419 0
M  V30 16315 H 1519.21 -2.4001 -2.21501 0
M  V30 16316 H 1517.87 -3.63492 -0.476383 0
M  V30 16317 H 1517.52 -4.10455 -2.9075 0
M  V30 16318 H 1517.22 -5.55452 -1.91694 0
M  V30 16319 H 1518.74 -5.40661 -2.83756 0
M  V30 16320 H 1520.15 -5.70302 -0.585548 0
M  V30 16321 H 1518.55 -5.99917 0.148121 0
M  V30 16322 H 1519.62 -4.77351 0.852296 0
M  V30 16323 N 1520.96 -0.130252 -1.57061 0
M  V30 16324 C 1521.89 0.812189 -2.18919 0
M  V30 16325 C 1522.88 1.2692 -1.13249 0
M  V30 16326 O 1524.06 1.32978 -1.41529 0
M  V30 16327 C 1521.19 2.05803 -2.79754 0
M  V30 16328 C 1520.14 1.73841 -3.91105 0
M  V30 16329 C 1519.47 3.05549 -4.38799 0
M  V30 16330 C 1520.77 0.997991 -5.12677 0
M  V30 16331 H 1522.46 0.296692 -2.97926 0
M  V30 16332 H 1520.01 0.141265 -1.43305 0
M  V30 16333 H 1521.96 2.72201 -3.21691 0
M  V30 16334 H 1520.69 2.59697 -1.98053 0
M  V30 16335 H 1519.35 1.09828 -3.49762 0
M  V30 16336 H 1518.99 3.57399 -3.53942 0
M  V30 16337 H 1518.69 2.84932 -5.13894 0
M  V30 16338 H 1520.22 3.73045 -4.83394 0
M  V30 16339 H 1521.63 1.56372 -5.51562 0
M  V30 16340 H 1520.03 0.892378 -5.93428 0
M  V30 16341 H 1521.1 -0.0132936 -4.84898 0
M  V30 16342 N 1522.44 1.56945 0.143535 0
M  V30 16343 C 1523.67 1.88067 0.874385 0
M  V30 16344 C 1524.09 0.719645 1.73789 0
M  V30 16345 O 1523.45 -0.330654 1.78259 0
M  V30 16346 C 1523.5 3.17795 1.70408 0
M  V30 16347 O 1522.6 3.01973 2.80867 0
M  V30 16348 H 1521.94 0.617808 0.24333 0
M  V30 16349 H 1524.47 2.04165 0.133309 0
M  V30 16350 H 1524.48 3.49903 2.09838 0
M  V30 16351 H 1523.16 4.019 1.07001 0
M  V30 16352 H 1521.74 2.8128 2.44818 0
M  V30 16353 N 1523.92 -0.412991 1.52093 0
M  V30 16354 C 1524.83 -1.52768 1.78042 0
M  V30 16355 C 1525.85 -1.60758 0.665791 0
M  V30 16356 O 1527.02 -1.77545 0.950772 0
M  V30 16357 C 1524.09 -2.8854 1.92213 0
M  V30 16358 C 1523.15 -2.90468 3.16112 0
M  V30 16359 C 1522.38 -4.19763 3.29598 0
M  V30 16360 O 1522.61 -5.13454 2.48438 0
M  V30 16361 O 1521.54 -4.2847 4.22726 0
M  V30 16362 H 1525.37 -1.33777 2.72649 0
M  V30 16363 H 1522.95 -0.598461 1.3689 0
M  V30 16364 H 1524.83 -3.69073 2.03379 0
M  V30 16365 H 1523.51 -3.07607 1.00795 0
M  V30 16366 H 1522.41 -2.08801 3.10408 0
M  V30 16367 H 1523.75 -2.76349 4.07298 0
M  V30 16368 N 1525.4 -1.4265 -0.669982 0
M  V30 16369 C 1526.35 -1.46746 -1.80467 0
M  V30 16370 C 1527.34 -0.342698 -1.65897 0
M  V30 16371 O 1528.55 -0.515933 -1.72447 0
M  V30 16372 H 1524.92 -0.4597 -0.59513 0
M  V30 16373 H 1526.89 -2.42325 -1.7413 0
M  V30 16374 C 1525.64 -1.39141 -3.18646 0
M  V30 16375 H 1524.97 -2.24987 -3.30486 0
M  V30 16376 H 1526.41 -1.46068 -3.98045 0
M  V30 16377 C 1524.86 -0.106802 -3.36731 0
M  V30 16378 O 1525.39 0.838535 -3.9285 0
M  V30 16379 N 1523.6 -0.0223958 -2.90591 0
M  V30 16380 H 1523.15 -0.792469 -2.45108 0
M  V30 16381 H 1523.11 0.836462 -3.03069 0
M  V30 16382 N 1526.88 0.906753 -1.28902 0
M  V30 16383 C 1527.83 2.03141 -1.13299 0
M  V30 16384 C 1528.82 1.69325 -0.0504114 0
M  V30 16385 O 1530.03 1.78774 -0.209696 0
M  V30 16386 H 1526.4 0.665709 -0.349766 0
M  V30 16387 H 1528.37 2.13441 -2.08531 0
M  V30 16388 C 1527.12 3.37918 -0.818935 0
M  V30 16389 H 1526.44 3.64437 -1.64395 0
M  V30 16390 H 1527.88 4.17318 -0.749753 0
M  V30 16391 C 1526.34 3.33498 0.477582 0
M  V30 16392 O 1526.87 3.7241 1.50578 0
M  V30 16393 N 1525.08 2.86594 0.480862 0
M  V30 16394 H 1524.63 2.55124 -0.356308 0
M  V30 16395 H 1524.58 2.84019 1.34835 0
M  V30 16396 N 1528.36 1.11264 1.11616 0
M  V30 16397 C 1529.6 0.861639 1.83585 0
M  V30 16398 C 1529.93 -0.611221 1.8433 0
M  V30 16399 O 1529.21 -1.45116 1.29505 0
M  V30 16400 C 1529.49 1.42157 3.30852 0
M  V30 16401 C 1529.35 2.96192 3.38512 0
M  V30 16402 C 1530.66 1.07099 4.2687 0
M  V30 16403 H 1527.78 0.314464 0.666545 0
M  V30 16404 H 1530.43 1.37722 1.30892 0
M  V30 16405 H 1528.58 0.983054 3.75857 0
M  V30 16406 H 1530.25 3.48634 3.0208 0
M  V30 16407 H 1528.49 3.32353 2.7879 0
M  V30 16408 H 1529.16 3.30457 4.42156 0
M  V30 16409 H 1531.64 1.44952 3.90036 0
M  V30 16410 H 1530.51 1.48957 5.28302 0
M  V30 16411 H 1530.77 -0.018482 4.42096 0
M  V30 16412 N 1529.83 -1.29188 0.902679 0
M  V30 16413 C 1531.08 -1.95727 0.530909 0
M  V30 16414 C 1531.41 -1.70971 -0.921014 0
M  V30 16415 O 1530.69 -1.02436 -1.65339 0
M  V30 16416 C 1530.97 -3.50463 0.827523 0
M  V30 16417 C 1530.82 -3.84665 2.33137 0
M  V30 16418 C 1532.14 -4.38964 0.316053 0
M  V30 16419 H 1529.26 -0.71091 0.194361 0
M  V30 16420 H 1531.9 -1.52752 1.1299 0
M  V30 16421 H 1530.05 -3.87199 0.317732 0
M  V30 16422 H 1531.73 -3.57859 2.91093 0
M  V30 16423 H 1529.97 -3.32102 2.79088 0
M  V30 16424 H 1530.64 -4.92676 2.48947 0
M  V30 16425 H 1533.12 -4.09237 0.75262 0
M  V30 16426 H 1531.99 -5.4611 0.552769 0
M  V30 16427 H 1532.25 -4.35105 -0.783329 0
M  V30 16428 N 1531.31 -0.665475 -1.42861 0
M  V30 16429 C 1532.26 0.0186204 -2.30792 0
M  V30 16430 C 1533.23 0.802249 -1.45441 0
M  V30 16431 O 1534.41 0.776383 -1.7429 0
M  V30 16432 C 1531.55 0.970499 -3.31173 0
M  V30 16433 C 1530.67 0.18168 -4.31618 0
M  V30 16434 C 1529.8 1.12846 -5.19075 0
M  V30 16435 C 1528.84 0.330788 -6.11206 0
M  V30 16436 N 1527.98 1.2298 -6.91246 0
M  V30 16437 H 1532.82 -0.737068 -2.88741 0
M  V30 16438 H 1530.35 -0.375225 -1.42234 0
M  V30 16439 H 1532.31 1.53611 -3.87891 0
M  V30 16440 H 1530.94 1.69292 -2.74845 0
M  V30 16441 H 1529.99 -0.500415 -3.77094 0
M  V30 16442 H 1531.31 -0.438041 -4.96873 0
M  V30 16443 H 1530.46 1.76431 -5.8048 0
M  V30 16444 H 1529.2 1.78208 -4.53975 0
M  V30 16445 H 1528.2 -0.318333 -5.48878 0
M  V30 16446 H 1529.43 -0.318599 -6.78352 0
M  V30 16447 H 1527.38 1.86999 -6.28783 0
M  V30 16448 H 1527.29 0.664933 -7.5307 0
M  V30 16449 H 1528.56 1.85341 -7.57145 0
M  V30 16450 N 1532.79 1.52222 -0.408187 0
M  V30 16451 C 1534.04 2.00989 0.169252 0
M  V30 16452 C 1534.35 1.29824 1.46305 0
M  V30 16453 O 1535.56 1.69402 2.12168 0
M  V30 16454 C 1534.01 3.58173 0.352179 0
M  V30 16455 C 1533.62 4.38252 -0.929468 0
M  V30 16456 C 1535.37 4.15173 0.88496 0
M  V30 16457 C 1533.27 5.87077 -0.713781 0
M  V30 16458 H 1532.2 0.751015 0.0670261 0
M  V30 16459 H 1534.85 1.75574 -0.533487 0
M  V30 16460 H 1533.24 3.79913 1.11723 0
M  V30 16461 H 1534.41 4.28272 -1.70059 0
M  V30 16462 H 1532.72 3.92565 -1.38859 0
M  V30 16463 H 1535.32 5.2404 1.06235 0
M  V30 16464 H 1535.66 3.72468 1.85938 0
M  V30 16465 H 1536.2 3.97397 0.178995 0
M  V30 16466 H 1532.94 6.3414 -1.65974 0
M  V30 16467 H 1532.46 5.99797 0.0180631 0
M  V30 16468 H 1534.14 6.46022 -0.355596 0
M  V30 16469 N 1534.27 0.138579 1.5699 0
M  V30 16470 C 1535.51 -0.517479 1.97741 0
M  V30 16471 C 1535.87 -1.62587 1.02125 0
M  V30 16472 O 1537.07 -2.3422 1.31888 0
M  V30 16473 C 1535.34 -1.01841 3.42583 0
M  V30 16474 S 1536.9 -1.68025 4.05355 0
M  V30 16475 H 1533.72 -0.167594 0.690965 0
M  V30 16476 H 1536.32 0.2283 1.94162 0
M  V30 16477 H 1535.03 -0.200832 4.09908 0
M  V30 16478 H 1534.56 -1.79901 3.49856 0
M  V30 16479 H 1536.57 -2.96708 3.97717 0
M  V30 16480 N 1535.75 -1.57019 -0.13521 0
M  V30 16481 C 1537.02 -1.74928 -0.875189 0
M  V30 16482 C 1537.4 -0.709755 -1.98811 0
M  V30 16483 O 1536.75 0.269237 -2.26908 0
M  V30 16484 C 1536.96 -3.1939 -1.40681 0
M  V30 16485 C 1538.31 -3.8142 -1.86557 0
M  V30 16486 O 1539.33 -3.22892 -1.50397 0
M  V30 16487 O 1538.19 -4.84263 -2.53282 0
M  V30 16488 H 1535.29 -0.715665 -0.414431 0
M  V30 16489 H 1537.83 -1.69274 -0.120215 0
M  V30 16490 H 1536.6 -3.86554 -0.607564 0
M  V30 16491 H 1536.23 -3.29517 -2.22496 0
M  V30 16492 N 1537.22 0.404919 -1.52309 0
M  V30 16493 C 1538.47 1.15148 -1.66575 0
M  V30 16494 C 1538.8 1.9039 -0.397754 0
M  V30 16495 O 1538.05 1.85639 0.619407 0
M  V30 16496 C 1538.35 2.16817 -2.84121 0
M  V30 16497 C 1538.02 1.58352 -4.22179 0
M  V30 16498 C 1536.68 1.42132 -4.5973 0
M  V30 16499 C 1539.03 1.15695 -5.08197 0
M  V30 16500 C 1536.36 0.817785 -5.80973 0
M  V30 16501 C 1538.71 0.56758 -6.30049 0
M  V30 16502 C 1537.38 0.392547 -6.66345 0
M  V30 16503 H 1536.65 0.421357 -0.60954 0
M  V30 16504 H 1539.29 0.438148 -1.8642 0
M  V30 16505 H 1537.6 2.94311 -2.58628 0
M  V30 16506 H 1539.3 2.74463 -2.92355 0
M  V30 16507 H 1535.89 1.71961 -3.92591 0
M  V30 16508 H 1540.07 1.27034 -4.79767 0
M  V30 16509 H 1535.33 0.670228 -6.07715 0
M  V30 16510 H 1539.5 0.228674 -6.96024 0
M  V30 16511 H 1537.13 -0.0772156 -7.60161 0
M  V30 16512 N 1538.7 1.43003 0.662408 0
M  V30 16513 C 1539.95 1.43848 1.41958 0
M  V30 16514 C 1540.27 0.06046 1.94906 0
M  V30 16515 O 1539.54 -0.90287 1.73854 0
M  V30 16516 H 1538.12 0.529587 0.526827 0
M  V30 16517 H 1540.78 1.7853 0.781867 0
M  V30 16518 H 1539.88 2.14562 2.26649 0
M  V30 16519 N 1540.18 -0.899904 1.29381 0
M  V30 16520 C 1541.11 -2.02045 1.17047 0
M  V30 16521 C 1542.09 -1.69977 0.0647354 0
M  V30 16522 O 1543.28 -1.92659 0.244173 0
M  V30 16523 C 1540.41 -3.36839 0.845991 0
M  V30 16524 C 1539.36 -3.83117 1.90802 0
M  V30 16525 C 1538.69 -5.15032 1.43686 0
M  V30 16526 C 1539.99 -4.03464 3.31684 0
M  V30 16527 H 1541.68 -2.12623 2.10789 0
M  V30 16528 H 1539.23 -1.02162 1.01484 0
M  V30 16529 H 1541.18 -4.14737 0.746413 0
M  V30 16530 H 1539.9 -3.26352 -0.127125 0
M  V30 16531 H 1538.56 -3.07435 1.99698 0
M  V30 16532 H 1538.21 -5.00961 0.452422 0
M  V30 16533 H 1537.91 -5.46967 2.14711 0
M  V30 16534 H 1539.43 -5.95472 1.35078 0
M  V30 16535 H 1540.85 -4.71845 3.25631 0
M  V30 16536 H 1539.25 -4.46752 4.00665 0
M  V30 16537 H 1540.32 -3.07807 3.74677 0
M  V30 16538 N 1541.66 -1.11854 -1.11024 0
M  V30 16539 C 1542.62 -0.784033 -2.15373 0
M  V30 16540 C 1543.62 0.198686 -1.59568 0
M  V30 16541 O 1544.81 -0.0263428 -1.7418 0
M  V30 16542 C 1541.94 -0.163987 -3.40505 0
M  V30 16543 H 1543.14 -1.70849 -2.46477 0
M  V30 16544 H 1540.69 -0.920988 -1.26283 0
M  V30 16545 H 1541.42 0.770483 -3.15014 0
M  V30 16546 H 1541.21 -0.871447 -3.82293 0
M  V30 16547 H 1542.7 0.0537739 -4.17565 0
M  V30 16548 N 1543.14 1.28707 -0.909517 0
M  V30 16549 C 1544.55 1.47605 -0.607045 0
M  V30 16550 C 1544.75 1.8275 0.848815 0
M  V30 16551 O 1543.81 1.92989 1.62823 0
M  V30 16552 C 1545.12 2.58194 -1.54131 0
M  V30 16553 C 1546.67 2.72065 -1.54757 0
M  V30 16554 C 1547.14 3.85793 -2.46835 0
M  V30 16555 N 1548.64 3.93141 -2.44937 0
M  V30 16556 C 1549.37 4.80512 -3.12883 0
M  V30 16557 N 1548.87 5.72504 -3.90142 0
M  V30 16558 N 1550.66 4.74086 -3.01991 0
M  V30 16559 H 1542.81 1.04174 -1.85099 0
M  V30 16560 H 1545.07 0.51843 -0.793684 0
M  V30 16561 H 1544.78 2.39119 -2.57905 0
M  V30 16562 H 1544.65 3.55205 -1.26921 0
M  V30 16563 H 1547.04 2.90532 -0.517219 0
M  V30 16564 H 1547.12 1.75598 -1.86008 0
M  V30 16565 H 1546.77 3.68082 -3.49969 0
M  V30 16566 H 1546.7 4.8165 -2.12888 0
M  V30 16567 H 1549.19 3.2735 -1.88813 0
M  V30 16568 H 1549.5 6.3599 -4.39017 0
M  V30 16569 H 1547.84 5.72358 -3.94248 0
M  V30 16570 H 1551.04 4.01209 -2.4114 0
M  V30 16571 H 1551.21 5.41964 -3.55217 0
M  V30 16572 N 1544.61 0.673042 1.42506 0
M  V30 16573 C 1545.89 0.123606 1.95209 0
M  V30 16574 C 1546.27 -1.36118 1.61354 0
M  V30 16575 O 1545.62 -2.0965 0.908793 0
M  V30 16576 C 1545.83 0.39088 3.46804 0
M  V30 16577 C 1547.18 0.306445 4.23493 0
M  V30 16578 O 1548.2 0.32453 3.54719 0
M  V30 16579 O 1547.06 0.247127 5.45941 0
M  V30 16580 H 1544.15 0.00184868 0.826998 0
M  V30 16581 H 1546.7 0.74765 1.52343 0
M  V30 16582 H 1545.47 1.41951 3.64645 0
M  V30 16583 H 1545.1 -0.265259 3.96714 0
M  V30 16584 N 1546.09 -1.52004 0.416254 0
M  V30 16585 C 1547.34 -2.01076 -0.158591 0
M  V30 16586 C 1547.65 -1.30598 -1.45614 0
M  V30 16587 O 1548.86 -1.70525 -2.11267 0
M  V30 16588 C 1547.32 -3.58354 -0.333179 0
M  V30 16589 C 1546.92 -4.37753 0.952696 0
M  V30 16590 C 1548.67 -4.15637 -0.86293 0
M  V30 16591 C 1546.58 -5.8669 0.744905 0
M  V30 16592 H 1545.51 -0.75136 -0.0630423 0
M  V30 16593 H 1548.16 -1.75288 0.542791 0
M  V30 16594 H 1546.54 -3.805 -1.09706 0
M  V30 16595 H 1547.71 -4.27364 1.72328 0
M  V30 16596 H 1546.03 -3.91823 1.40939 0
M  V30 16597 H 1548.62 -5.24596 -1.03454 0
M  V30 16598 H 1548.97 -3.73449 -1.8396 0
M  V30 16599 H 1549.5 -3.97486 -0.157918 0
M  V30 16600 H 1546.24 -6.3325 1.69334 0
M  V30 16601 H 1545.76 -5.99798 0.0137458 0
M  V30 16602 H 1547.44 -6.45824 0.389851 0
M  V30 16603 N 1547.57 -0.146903 -1.56914 0
M  V30 16604 C 1548.8 0.51044 -2.00195 0
M  V30 16605 C 1549.21 1.58966 -1.02599 0
M  V30 16606 O 1548.55 1.83694 -0.0149611 0
M  V30 16607 C 1548.61 1.17055 -3.39909 0
M  V30 16608 C 1548.28 0.235944 -4.56391 0
M  V30 16609 C 1549.27 -0.536351 -5.17126 0
M  V30 16610 C 1546.96 0.138878 -5.02108 0
M  V30 16611 C 1548.95 -1.39316 -6.21989 0
M  V30 16612 C 1546.64 -0.721538 -6.06825 0
M  V30 16613 C 1547.64 -1.48616 -6.66635 0
M  V30 16614 O 1547.33 -2.33224 -7.69325 0
M  V30 16615 H 1547.06 0.137381 -0.661893 0
M  V30 16616 H 1549.61 -0.23844 -2.04011 0
M  V30 16617 H 1547.84 1.96707 -3.32931 0
M  V30 16618 H 1549.53 1.72761 -3.67299 0
M  V30 16619 H 1550.3 -0.471393 -4.82704 0
M  V30 16620 H 1546.18 0.723769 -4.55283 0
M  V30 16621 H 1549.72 -1.99044 -6.68601 0
M  V30 16622 H 1545.62 -0.787788 -6.40675 0
M  V30 16623 H 1546.39 -2.26471 -7.86545 0
M  V30 16624 N 1549.05 1.57088 0.126881 0
M  V30 16625 C 1550 1.99764 1.15599 0
M  V30 16626 C 1550.97 0.868468 1.41587 0
M  V30 16627 O 1552.15 1.13209 1.53585 0
M  V30 16628 C 1549.29 2.40038 2.47943 0
M  V30 16629 C 1548.4 3.66336 2.28958 0
M  V30 16630 C 1547.54 3.95626 3.54477 0
M  V30 16631 C 1546.58 5.15131 3.30616 0
M  V30 16632 N 1545.71 5.4033 4.48317 0
M  V30 16633 H 1550.55 2.87473 0.785078 0
M  V30 16634 H 1548.09 1.42209 0.376169 0
M  V30 16635 H 1550.05 2.61423 3.25136 0
M  V30 16636 H 1548.68 1.55382 2.82942 0
M  V30 16637 H 1547.73 3.52612 1.4272 0
M  V30 16638 H 1549.04 4.53684 2.07298 0
M  V30 16639 H 1548.2 4.17617 4.40092 0
M  V30 16640 H 1546.94 3.06738 3.79161 0
M  V30 16641 H 1545.94 4.92992 2.43391 0
M  V30 16642 H 1547.17 6.05588 3.0731 0
M  V30 16643 H 1545.11 4.54399 4.73136 0
M  V30 16644 H 1545.03 6.21985 4.29733 0
M  V30 16645 H 1546.3 5.66835 5.35088 0
M  V30 16646 N 1550.53 -0.396836 1.52522 0
M  V30 16647 C 1551.47 -1.50474 1.77371 0
M  V30 16648 C 1552.47 -1.56792 0.641307 0
M  V30 16649 O 1553.67 -1.60052 0.823621 0
M  V30 16650 H 1550.05 -0.500667 0.561103 0
M  V30 16651 H 1552.02 -1.26706 2.70163 0
M  V30 16652 C 1550.77 -2.87702 1.95251 0
M  V30 16653 H 1550.09 -2.83588 2.81812 0
M  V30 16654 H 1551.53 -3.64482 2.16631 0
M  V30 16655 C 1549.99 -3.29053 0.722904 0
M  V30 16656 O 1550.52 -4.01567 -0.103398 0
M  V30 16657 N 1548.73 -2.85246 0.555263 0
M  V30 16658 H 1548.27 -2.26403 1.22879 0
M  V30 16659 H 1548.23 -3.13272 -0.266113 0
M  V30 16660 N 1552.01 -1.43353 -0.654814 0
M  V30 16661 C 1553.42 -1.39933 -1.23595 0
M  V30 16662 C 1553.77 -0.102592 -1.95932 0
M  V30 16663 O 1552.89 0.798021 -2.01148 0
M  V30 16664 C 1553.49 -2.53483 -2.24793 0
M  V30 16665 C 1552.05 -2.53333 -2.78387 0
M  V30 16666 C 1551.19 -2.31268 -1.53005 0
M  V30 16667 H 1554.14 -1.52277 -0.446932 0
M  V30 16668 H 1554.17 -2.2488 -3.06935 0
M  V30 16669 H 1553.68 -3.47847 -1.72116 0
M  V30 16670 H 1551.78 -1.62844 -3.35131 0
M  V30 16671 H 1551.89 -3.51047 -3.26041 0
M  V30 16672 H 1550.26 -1.79905 -1.80295 0
M  V30 16673 H 1551.04 -3.27714 -1.02266 0
M  V30 16674 N 1553.48 0.89303 -1.29857 0
M  V30 16675 C 1554.76 1.62492 -1.08884 0
M  V30 16676 C 1555.14 2.07926 0.364695 0
M  V30 16677 O 1554.49 1.84009 1.35473 0
M  V30 16678 C 1554.7 2.80063 -2.08245 0
M  V30 16679 C 1556.05 3.50589 -2.39526 0
M  V30 16680 O 1557.07 2.90241 -2.06492 0
M  V30 16681 O 1555.93 4.59399 -2.95998 0
M  V30 16682 H 1553.02 0.713805 -0.417626 0
M  V30 16683 H 1555.57 0.940513 -1.41253 0
M  V30 16684 H 1554.34 2.43735 -3.06119 0
M  V30 16685 H 1553.96 3.56205 -1.76645 0
M  V30 16686 N 1554.96 1.12442 1.10429 0
M  V30 16687 C 1556.19 0.901291 1.85904 0
M  V30 16688 C 1556.6 -0.552928 1.8094 0
M  V30 16689 O 1555.94 -1.39404 1.19633 0
M  V30 16690 C 1556 1.29808 3.35246 0
M  V30 16691 C 1555.67 2.76361 3.63969 0
M  V30 16692 C 1556.67 3.74553 3.60564 0
M  V30 16693 C 1554.35 3.13268 3.92643 0
M  V30 16694 C 1556.34 5.07667 3.85426 0
M  V30 16695 C 1554.03 4.46564 4.17162 0
M  V30 16696 C 1555.03 5.43572 4.13544 0
M  V30 16697 O 1554.72 6.74465 4.37439 0
M  V30 16698 H 1554.45 0.321969 0.5944 0
M  V30 16699 H 1557 1.49816 1.40514 0
M  V30 16700 H 1555.23 0.644416 3.81293 0
M  V30 16701 H 1556.92 1.04908 3.92108 0
M  V30 16702 H 1557.69 3.47385 3.3845 0
M  V30 16703 H 1553.57 2.3837 3.94589 0
M  V30 16704 H 1557.11 5.83375 3.82518 0
M  V30 16705 H 1553.01 4.73461 4.38754 0
M  V30 16706 H 1553.78 6.80412 4.54953 0
M  V30 16707 N 1556.44 -1.28223 0.91633 0
M  V30 16708 C 1557.69 -1.95153 0.551639 0
M  V30 16709 C 1558.02 -1.71938 -0.902829 0
M  V30 16710 O 1557.29 -1.04184 -1.64243 0
M  V30 16711 C 1557.58 -3.49565 0.864647 0
M  V30 16712 C 1557.43 -3.82171 2.37203 0
M  V30 16713 C 1558.75 -4.38604 0.362593 0
M  V30 16714 H 1555.87 -0.708808 0.20189 0
M  V30 16715 H 1558.51 -1.51545 1.14604 0
M  V30 16716 H 1556.66 -3.8684 0.358782 0
M  V30 16717 H 1558.33 -3.54751 2.94872 0
M  V30 16718 H 1556.57 -3.29124 2.82595 0
M  V30 16719 H 1557.25 -4.90007 2.54159 0
M  V30 16720 H 1559.72 -4.08416 0.795983 0
M  V30 16721 H 1558.6 -5.45493 0.61066 0
M  V30 16722 H 1558.86 -4.35911 -0.737137 0
M  V30 16723 N 1557.92 -0.68059 -1.42147 0
M  V30 16724 C 1559.33 -0.350691 -1.55699 0
M  V30 16725 C 1559.53 1.1435 -1.6591 0
M  V30 16726 O 1558.59 1.92905 -1.62923 0
M  V30 16727 C 1559.9 -1.08608 -2.80401 0
M  V30 16728 C 1561.45 -1.06897 -2.9418 0
M  V30 16729 C 1561.93 -1.78581 -4.2175 0
M  V30 16730 N 1563.42 -1.75477 -4.28675 0
M  V30 16731 C 1564.15 -2.27794 -5.26211 0
M  V30 16732 N 1563.65 -2.88518 -6.29865 0
M  V30 16733 N 1565.44 -2.18135 -5.18048 0
M  V30 16734 H 1557.59 -1.64988 -1.33763 0
M  V30 16735 H 1559.85 -0.695411 -0.644289 0
M  V30 16736 H 1559.56 -2.14113 -2.79014 0
M  V30 16737 H 1559.43 -0.655022 -3.71469 0
M  V30 16738 H 1561.82 -0.0222464 -2.95092 0
M  V30 16739 H 1561.9 -1.53897 -2.04327 0
M  V30 16740 H 1561.55 -2.83225 -4.21599 0
M  V30 16741 H 1561.48 -1.29027 -5.10548 0
M  V30 16742 H 1563.97 -1.31191 -3.54397 0
M  V30 16743 H 1564.28 -3.26043 -7.00654 0
M  V30 16744 H 1562.63 -2.92589 -6.3041 0
M  V30 16745 H 1565.82 -1.7038 -4.35991 0
M  V30 16746 H 1565.99 -2.59213 -5.93896 0
M  V30 16747 N 1559.4 1.51781 -0.424309 0
M  V30 16748 C 1560.34 2.27418 0.393668 0
M  V30 16749 C 1561.31 1.3046 1.02808 0
M  V30 16750 O 1562.5 1.59345 1.04946 0
M  V30 16751 C 1559.64 3.10983 1.49611 0
M  V30 16752 C 1558.75 4.22919 0.881123 0
M  V30 16753 C 1557.89 4.93816 1.95752 0
M  V30 16754 C 1556.92 5.97691 1.32028 0
M  V30 16755 N 1556.06 6.62047 2.33747 0
M  V30 16756 H 1560.9 2.96883 -0.257731 0
M  V30 16757 H 1558.44 1.46442 -0.138942 0
M  V30 16758 H 1560.4 3.57749 2.14642 0
M  V30 16759 H 1559.03 2.43658 2.11732 0
M  V30 16760 H 1558.08 3.80212 0.119445 0
M  V30 16761 H 1559.39 4.97383 0.375764 0
M  V30 16762 H 1558.54 5.44064 2.68476 0
M  V30 16763 H 1557.28 4.18954 2.49658 0
M  V30 16764 H 1556.29 5.46749 0.578444 0
M  V30 16765 H 1557.51 6.74504 0.788722 0
M  V30 16766 H 1555.46 5.90005 2.86757 0
M  V30 16767 H 1555.38 7.32234 1.88066 0
M  V30 16768 H 1556.64 7.16929 3.05995 0
M  V30 16769 N 1560.87 0.155222 1.56834 0
M  V30 16770 C 1562.12 -0.49285 1.95998 0
M  V30 16771 C 1562.44 -1.64857 1.0415 0
M  V30 16772 O 1561.71 -1.9562 0.104654 0
M  V30 16773 H 1560.29 -0.185063 0.723713 0
M  V30 16774 H 1562.95 0.232644 1.93507 0
M  V30 16775 H 1562.05 -0.863552 2.99915 0
M  V30 16776 N 1562.35 -1.57153 -0.118549 0
M  V30 16777 C 1563.63 -1.75846 -0.856587 0
M  V30 16778 C 1564.01 -0.730801 -1.98047 0
M  V30 16779 O 1563.36 0.245156 -2.27181 0
M  V30 16780 C 1563.57 -3.20864 -1.37286 0
M  V30 16781 C 1564.91 -3.83378 -1.82501 0
M  V30 16782 O 1565.94 -3.24469 -1.46964 0
M  V30 16783 O 1564.8 -4.86922 -2.48132 0
M  V30 16784 H 1561.89 -0.72002 -0.406817 0
M  V30 16785 H 1564.44 -1.69392 -0.102254 0
M  V30 16786 H 1563.21 -3.87177 -0.566531 0
M  V30 16787 H 1562.83 -3.31858 -2.18988 0
M  V30 16788 N 1563.83 0.388742 -1.5273 0
M  V30 16789 C 1565.06 1.15495 -1.71664 0
M  V30 16790 C 1565.47 1.83717 -0.435127 0
M  V30 16791 O 1564.83 1.72686 0.590411 0
M  V30 16792 C 1564.88 2.20279 -2.86635 0
M  V30 16793 O 1564.6 1.54838 -4.09825 0
M  V30 16794 C 1566.1 3.09625 -3.1725 0
M  V30 16795 H 1563.32 0.346271 -0.57475 0
M  V30 16796 H 1565.87 0.454729 -1.9938 0
M  V30 16797 H 1564.02 2.85936 -2.61379 0
M  V30 16798 H 1564.44 2.24466 -4.74042 0
M  V30 16799 H 1565.91 3.79177 -4.01159 0
M  V30 16800 H 1566.39 3.73147 -2.31643 0
M  V30 16801 H 1566.99 2.49612 -3.44345 0
M  V30 16802 N 1565.31 1.43698 0.647203 0
M  V30 16803 C 1566.72 1.27231 0.963563 0
M  V30 16804 C 1566.92 0.196385 2.00541 0
M  V30 16805 O 1565.98 -0.423162 2.48929 0
M  V30 16806 C 1567.29 2.63863 1.44211 0
M  V30 16807 C 1568.84 2.71444 1.55844 0
M  V30 16808 C 1569.32 4.08508 2.07087 0
M  V30 16809 N 1570.81 4.10603 2.14381 0
M  V30 16810 C 1571.54 5.13496 2.55166 0
M  V30 16811 N 1571.04 6.26759 2.95203 0
M  V30 16812 N 1572.83 5.0085 2.55158 0
M  V30 16813 H 1564.98 2.12358 -0.0420956 0
M  V30 16814 H 1567.24 0.946989 0.0437628 0
M  V30 16815 H 1566.95 3.43589 0.75096 0
M  V30 16816 H 1566.82 2.89666 2.41605 0
M  V30 16817 H 1569.21 1.92046 2.24058 0
M  V30 16818 H 1569.29 2.49399 0.56866 0
M  V30 16819 H 1568.94 4.88375 1.39472 0
M  V30 16820 H 1568.87 4.2792 3.06907 0
M  V30 16821 H 1571.36 3.2885 1.86188 0
M  V30 16822 H 1571.67 7.01096 3.25091 0
M  V30 16823 H 1570.02 6.30222 2.92993 0
M  V30 16824 H 1573.21 4.11428 2.2326 0
M  V30 16825 H 1573.38 5.81165 2.86621 0
M  V30 16826 N 1566.79 -0.886131 1.30328 0
M  V30 16827 C 1567.72 -2.00793 1.19183 0
M  V30 16828 C 1568.7 -1.69899 0.08276 0
M  V30 16829 O 1569.88 -1.92389 0.264593 0
M  V30 16830 C 1567.01 -3.35922 0.881669 0
M  V30 16831 C 1565.97 -3.81072 1.94855 0
M  V30 16832 C 1565.29 -5.1348 1.4914 0
M  V30 16833 C 1566.59 -3.99923 3.35944 0
M  V30 16834 H 1568.29 -2.10375 2.13032 0
M  V30 16835 H 1565.83 -1.0108 1.02561 0
M  V30 16836 H 1567.79 -4.13922 0.790359 0
M  V30 16837 H 1566.51 -3.26469 -0.0925037 0
M  V30 16838 H 1565.17 -3.053 2.02947 0
M  V30 16839 H 1564.82 -5.00453 0.50553 0
M  V30 16840 H 1564.52 -5.44659 2.205 0
M  V30 16841 H 1566.04 -5.94005 1.41386 0
M  V30 16842 H 1567.45 -4.68364 3.30617 0
M  V30 16843 H 1565.85 -4.42477 4.05381 0
M  V30 16844 H 1566.92 -3.03816 3.77921 0
M  V30 16845 N 1568.26 -1.13026 -1.09832 0
M  V30 16846 C 1569.68 -0.902826 -1.6342 0
M  V30 16847 C 1570.03 0.561547 -1.87992 0
M  V30 16848 O 1569.15 1.42735 -1.62652 0
M  V30 16849 C 1569.75 -1.6324 -2.96881 0
M  V30 16850 C 1568.31 -1.45095 -3.4731 0
M  V30 16851 C 1567.45 -1.66431 -2.21802 0
M  V30 16852 H 1570.4 -1.28414 -0.932492 0
M  V30 16853 H 1570.42 -1.08706 -3.64641 0
M  V30 16854 H 1569.94 -2.69816 -2.78964 0
M  V30 16855 H 1568.04 -0.408031 -3.70359 0
M  V30 16856 H 1568.15 -2.21123 -4.25019 0
M  V30 16857 H 1566.51 -1.08885 -2.30252 0
M  V30 16858 H 1567.3 -2.74317 -2.0641 0
M  V30 16859 N 1569.74 1.27735 -0.923117 0
M  V30 16860 C 1570.67 2.29395 -0.435907 0
M  V30 16861 C 1571.65 1.62542 0.501403 0
M  V30 16862 O 1572.84 1.89884 0.407135 0
M  V30 16863 C 1569.97 3.45856 0.316348 0
M  V30 16864 C 1568.92 4.24672 -0.532697 0
M  V30 16865 C 1568.25 5.33563 0.348454 0
M  V30 16866 C 1569.55 4.90494 -1.79481 0
M  V30 16867 H 1571.24 2.70398 -1.28551 0
M  V30 16868 H 1568.79 1.29989 -0.619581 0
M  V30 16869 H 1570.74 4.1607 0.668098 0
M  V30 16870 H 1569.47 3.03758 1.19994 0
M  V30 16871 H 1568.12 3.56198 -0.867093 0
M  V30 16872 H 1567.77 4.87708 1.23086 0
M  V30 16873 H 1567.47 5.87202 -0.216104 0
M  V30 16874 H 1569 6.06622 0.695878 0
M  V30 16875 H 1570.41 5.53019 -1.5114 0
M  V30 16876 H 1568.81 5.5417 -2.30251 0
M  V30 16877 H 1569.88 4.14454 -2.51707 0
M  V30 16878 N 1571.22 0.688118 1.41784 0
M  V30 16879 C 1572.17 0.018099 2.30793 0
M  V30 16880 C 1573.14 -0.779009 1.46699 0
M  V30 16881 O 1574.32 -0.748556 1.75503 0
M  V30 16882 C 1571.46 -0.91769 3.32675 0
M  V30 16883 C 1570.58 -0.11299 4.31852 0
M  V30 16884 C 1569.71 -1.04574 5.20805 0
M  V30 16885 C 1568.75 -0.233509 6.11654 0
M  V30 16886 N 1567.89 -1.11967 6.93115 0
M  V30 16887 H 1572.73 0.782911 2.87532 0
M  V30 16888 H 1570.26 0.397806 1.41619 0
M  V30 16889 H 1572.22 -1.47421 3.90286 0
M  V30 16890 H 1570.85 -1.64898 2.77504 0
M  V30 16891 H 1569.9 0.560344 3.7625 0
M  V30 16892 H 1571.22 0.517033 4.96113 0
M  V30 16893 H 1570.37 -1.67174 5.83213 0
M  V30 16894 H 1569.11 -1.70963 4.56753 0
M  V30 16895 H 1568.11 0.405614 5.48302 0
M  V30 16896 H 1569.34 0.426479 6.7776 0
M  V30 16897 H 1567.28 -1.76972 6.31678 0
M  V30 16898 H 1567.2 -0.545042 7.54033 0
M  V30 16899 H 1568.47 -1.73272 7.59998 0
M  V30 16900 N 1572.7 -1.51554 0.432352 0
M  V30 16901 C 1573.94 -2.02995 -0.128264 0
M  V30 16902 C 1574.3 -1.31104 -1.40817 0
M  V30 16903 O 1573.59 -0.415687 -1.87036 0
M  V30 16904 C 1573.79 -3.55076 -0.406915 0
M  V30 16905 C 1573.62 -4.41701 0.844433 0
M  V30 16906 C 1572.39 -4.8619 1.37649 0
M  V30 16907 C 1574.58 -4.8436 1.72917 0
M  V30 16908 N 1572.57 -5.57012 2.5809 0
M  V30 16909 C 1573.94 -5.54198 2.77966 0
M  V30 16910 C 1575.99 -4.66351 1.74418 0
M  V30 16911 C 1574.69 -6.07937 3.84455 0
M  V30 16912 C 1576.72 -5.21003 2.79839 0
M  V30 16913 C 1576.08 -5.90783 3.83608 0
M  V30 16914 H 1572.18 -0.78196 -0.00789942 0
M  V30 16915 H 1574.77 -1.85485 0.591906 0
M  V30 16916 H 1572.94 -3.72612 -1.09612 0
M  V30 16917 H 1574.67 -3.93187 -0.958451 0
M  V30 16918 H 1571.42 -4.64356 0.931141 0
M  V30 16919 H 1571.85 -5.97053 3.1915 0
M  V30 16920 H 1576.49 -4.11868 0.955235 0
M  V30 16921 H 1574.21 -6.61478 4.64191 0
M  V30 16922 H 1577.79 -5.08923 2.81936 0
M  V30 16923 H 1576.67 -6.32313 4.63842 0
M  V30 16924 N 1574.18 -0.163538 -1.56749 0
M  V30 16925 C 1575.11 0.808257 -2.13407 0
M  V30 16926 C 1576.09 1.23124 -1.06204 0
M  V30 16927 O 1577.27 1.3244 -1.34134 0
M  V30 16928 C 1574.4 2.08743 -2.66728 0
M  V30 16929 C 1573.44 1.80909 -3.86231 0
M  V30 16930 S 1574.28 0.985273 -5.26358 0
M  V30 16931 C 1575.43 2.27528 -5.8308 0
M  V30 16932 H 1575.67 0.326505 -2.95502 0
M  V30 16933 H 1573.2 0.0510128 -1.54316 0
M  V30 16934 H 1575.16 2.8222 -2.98097 0
M  V30 16935 H 1573.82 2.54032 -1.84733 0
M  V30 16936 H 1573.01 2.75802 -4.21841 0
M  V30 16937 H 1572.61 1.15532 -3.55708 0
M  V30 16938 H 1574.91 3.23053 -5.95519 0
M  V30 16939 H 1575.85 1.96399 -6.80318 0
M  V30 16940 H 1576.26 2.38933 -5.1144 0
M  V30 16941 N 1575.65 1.57214 0.110213 0
M  V30 16942 C 1576.62 2.00034 1.11888 0
M  V30 16943 C 1577.62 0.891697 1.33811 0
M  V30 16944 O 1578.81 1.15754 1.3018 0
M  V30 16945 C 1575.94 2.34806 2.47142 0
M  V30 16946 H 1577.13 2.90354 0.750647 0
M  V30 16947 H 1574.69 1.5222 0.35479 0
M  V30 16948 H 1575.42 1.47393 2.8887 0
M  V30 16949 H 1575.21 3.15671 2.32581 0
M  V30 16950 H 1576.7 2.68644 3.19719 0
M  V30 16951 N 1577.13 -0.380637 1.52934 0
M  V30 16952 C 1578.54 -0.958182 1.60237 0
M  V30 16953 C 1578.89 -1.90722 0.460393 0
M  V30 16954 O 1578.02 -2.12376 -0.415354 0
M  V30 16955 C 1578.61 -1.7446 2.90429 0
M  V30 16956 C 1577.17 -2.27172 3.00116 0
M  V30 16957 C 1576.32 -1.07969 2.55417 0
M  V30 16958 H 1579.27 -0.159908 1.57892 0
M  V30 16959 H 1579.29 -2.60456 2.77385 0
M  V30 16960 H 1578.8 -1.05362 3.73524 0
M  V30 16961 H 1576.91 -2.99557 2.21577 0
M  V30 16962 H 1577.02 -2.56086 4.04916 0
M  V30 16963 H 1575.38 -1.4422 2.09935 0
M  V30 16964 H 1576.17 -0.403925 3.40915 0
M  V30 16965 N 1578.61 -1.44039 -0.639573 0
M  V30 16966 C 1579.52 -1.52728 -1.78077 0
M  V30 16967 C 1580.54 -0.413467 -1.69016 0
M  V30 16968 O 1581.71 -0.669592 -1.89943 0
M  V30 16969 C 1578.78 -1.46078 -3.14424 0
M  V30 16970 C 1577.84 -2.68242 -3.35179 0
M  V30 16971 C 1577.07 -2.61899 -4.65021 0
M  V30 16972 O 1577.29 -1.67431 -5.45273 0
M  V30 16973 O 1576.23 -3.52619 -4.87795 0
M  V30 16974 H 1580.05 -2.49122 -1.737 0
M  V30 16975 H 1577.64 -1.26191 -0.799755 0
M  V30 16976 H 1579.52 -1.44861 -3.95719 0
M  V30 16977 H 1578.2 -0.528236 -3.19361 0
M  V30 16978 H 1577.1 -2.75028 -2.53595 0
M  V30 16979 H 1578.44 -3.60514 -3.35098 0
M  V30 16980 N 1580.09 0.879207 -1.30796 0
M  V30 16981 C 1581.31 1.66975 -1.23021 0
M  V30 16982 C 1581.74 1.87004 0.202798 0
M  V30 16983 O 1581.1 1.40514 1.14566 0
M  V30 16984 C 1581.14 3.02028 -1.97007 0
M  V30 16985 O 1580.25 3.91338 -1.30109 0
M  V30 16986 H 1579.59 0.509998 -0.425204 0
M  V30 16987 H 1582.12 1.09688 -1.72713 0
M  V30 16988 H 1582.13 3.5203 -2.06249 0
M  V30 16989 H 1580.8 2.8677 -3.01224 0
M  V30 16990 H 1579.38 3.49781 -1.29258 0
M  V30 16991 N 1581.57 1.13606 1.09231 0
M  V30 16992 C 1582.82 0.893694 1.8082 0
M  V30 16993 C 1583.13 -0.581713 1.8675 0
M  V30 16994 O 1584.34 -0.941079 2.54668 0
M  V30 16995 C 1582.79 1.54932 3.24845 0
M  V30 16996 C 1582.4 3.0604 3.27175 0
M  V30 16997 C 1584.14 1.38773 4.01176 0
M  V30 16998 C 1582.05 3.64478 4.65735 0
M  V30 16999 H 1580.98 0.330699 0.677609 0
M  V30 17000 H 1583.63 1.36401 1.22748 0
M  V30 17001 H 1582.01 1.00668 3.82991 0
M  V30 17002 H 1583.19 3.66901 2.78783 0
M  V30 17003 H 1581.5 3.21739 2.64335 0
M  V30 17004 H 1584.1 1.79843 5.03548 0
M  V30 17005 H 1584.44 0.33282 4.14967 0
M  V30 17006 H 1584.98 1.90028 3.49477 0
M  V30 17007 H 1581.71 4.69785 4.57146 0
M  V30 17008 H 1581.23 3.08396 5.14444 0
M  V30 17009 H 1582.91 3.64272 5.3471 0
M  V30 17010 N 1583.05 -1.27244 0.929878 0
M  V30 17011 C 1584.29 -1.94269 0.57146 0
M  V30 17012 C 1584.62 -1.73064 -0.887639 0
M  V30 17013 O 1583.88 -1.05422 -1.64878 0
M  V30 17014 C 1584.17 -3.47233 0.846386 0
M  V30 17015 C 1583.84 -3.88563 2.28757 0
M  V30 17016 C 1582.5 -3.99557 2.68156 0
M  V30 17017 C 1584.85 -4.09468 3.22467 0
M  V30 17018 C 1582.18 -4.28846 4.00385 0
M  V30 17019 C 1584.53 -4.40242 4.54279 0
M  V30 17020 C 1583.2 -4.4945 4.93509 0
M  V30 17021 H 1582.47 -0.710882 0.209112 0
M  V30 17022 H 1585.12 -1.51273 1.17425 0
M  V30 17023 H 1583.42 -3.91469 0.160941 0
M  V30 17024 H 1585.12 -3.97238 0.548006 0
M  V30 17025 H 1581.71 -3.80544 1.97192 0
M  V30 17026 H 1585.89 -4.00412 2.9323 0
M  V30 17027 H 1581.15 -4.34184 4.30458 0
M  V30 17028 H 1585.32 -4.55365 5.26892 0
M  V30 17029 H 1582.95 -4.71899 5.95999 0
M  V30 17030 N 1584.52 -0.695628 -1.41417 0
M  V30 17031 C 1585.8 -0.154646 -1.94988 0
M  V30 17032 C 1586.18 1.33534 -1.63499 0
M  V30 17033 O 1585.53 2.08178 -0.942031 0
M  V30 17034 C 1585.74 -0.446004 -3.46138 0
M  V30 17035 C 1587.09 -0.37378 -4.22952 0
M  V30 17036 O 1588.11 -0.380921 -3.54157 0
M  V30 17037 O 1586.97 -0.33395 -5.45479 0
M  V30 17038 H 1584.06 -0.0150053 -0.826864 0
M  V30 17039 H 1586.61 -0.771792 -1.51134 0
M  V30 17040 H 1585.38 -1.47734 -3.6234 0
M  V30 17041 H 1585 0.202111 -3.97086 0
M  V30 17042 N 1586 1.51322 -0.440383 0
M  V30 17043 C 1586.95 2.27823 0.369526 0
M  V30 17044 C 1587.92 1.31543 1.01418 0
M  V30 17045 O 1589.1 1.60449 1.03251 0
M  V30 17046 C 1586.24 3.12553 1.46304 0
M  V30 17047 C 1585.36 4.23829 0.836217 0
M  V30 17048 C 1584.49 4.95865 1.90504 0
M  V30 17049 C 1583.53 5.99058 1.25681 0
M  V30 17050 N 1582.67 6.64489 2.26712 0
M  V30 17051 H 1587.51 2.96593 -0.289205 0
M  V30 17052 H 1585.04 1.46287 -0.154466 0
M  V30 17053 H 1587 3.60006 2.10836 0
M  V30 17054 H 1585.63 2.4589 2.09136 0
M  V30 17055 H 1584.68 3.80318 0.0791116 0
M  V30 17056 H 1586 4.97753 0.322989 0
M  V30 17057 H 1585.15 5.46881 2.6269 0
M  V30 17058 H 1583.89 4.21578 2.452 0
M  V30 17059 H 1582.89 5.47331 0.520422 0
M  V30 17060 H 1584.12 6.75303 0.717138 0
M  V30 17061 H 1582.07 5.93014 2.80483 0
M  V30 17062 H 1581.98 7.34188 1.80289 0
M  V30 17063 H 1583.25 7.20134 2.98373 0
M  V30 17064 N 1587.48 0.171848 1.5666 0
M  V30 17065 C 1588.73 -0.473061 1.96074 0
M  V30 17066 C 1589.04 -1.64353 1.06054 0
M  V30 17067 O 1590.25 -2.35471 1.35151 0
M  V30 17068 C 1588.7 -0.892995 3.48645 0
M  V30 17069 C 1588.31 0.251902 4.47291 0
M  V30 17070 C 1590.06 -1.50629 3.96877 0
M  V30 17071 C 1587.96 -0.187691 5.91102 0
M  V30 17072 H 1586.89 -0.180503 0.732075 0
M  V30 17073 H 1589.54 0.260164 1.81646 0
M  V30 17074 H 1587.93 -1.68221 3.58494 0
M  V30 17075 H 1589.1 1.02923 4.49159 0
M  V30 17076 H 1587.41 0.775193 4.09121 0
M  V30 17077 H 1590.01 -1.84724 5.01778 0
M  V30 17078 H 1590.35 -2.4044 3.39844 0
M  V30 17079 H 1590.89 -0.781502 3.90048 0
M  V30 17080 H 1587.63 0.675653 6.52009 0
M  V30 17081 H 1587.15 -0.93037 5.9254 0
M  V30 17082 H 1588.83 -0.631385 6.43912 0
M  V30 17083 N 1588.96 -1.5727 -0.101874 0
M  V30 17084 C 1590.19 -1.89667 -0.81914 0
M  V30 17085 C 1590.6 -0.763027 -1.73132 0
M  V30 17086 O 1589.94 0.274317 -1.8164 0
M  V30 17087 C 1590 -3.17252 -1.6909 0
M  V30 17088 C 1589.66 -4.4699 -0.951257 0
M  V30 17089 C 1590.66 -5.19123 -0.28417 0
M  V30 17090 C 1588.35 -4.93665 -0.927349 0
M  V30 17091 C 1590.34 -6.36163 0.396934 0
M  V30 17092 C 1588.03 -6.10619 -0.242456 0
M  V30 17093 C 1589.03 -6.81717 0.418514 0
M  V30 17094 O 1588.71 -7.96443 1.09244 0
M  V30 17095 H 1588.45 -0.632024 -0.239836 0
M  V30 17096 H 1591 -2.05222 -0.0855979 0
M  V30 17097 H 1589.23 -2.97825 -2.46651 0
M  V30 17098 H 1590.92 -3.35533 -2.28413 0
M  V30 17099 H 1591.68 -4.84107 -0.294146 0
M  V30 17100 H 1587.56 -4.38219 -1.43126 0
M  V30 17101 H 1591.11 -6.91594 0.913417 0
M  V30 17102 H 1587 -6.45089 -0.230303 0
M  V30 17103 H 1587.77 -8.12385 0.998647 0
M  V30 17104 N 1590.44 0.372521 -1.53134 0
M  V30 17105 C 1591.66 1.14116 -1.73183 0
M  V30 17106 C 1592.09 1.82475 -0.456553 0
M  V30 17107 O 1591.44 1.71468 0.588919 0
M  V30 17108 C 1591.49 2.15241 -2.89316 0
M  V30 17109 O 1590.6 3.22178 -2.57439 0
M  V30 17110 H 1589.94 0.331442 -0.575362 0
M  V30 17111 H 1592.47 0.431769 -1.99992 0
M  V30 17112 H 1592.48 2.58961 -3.15283 0
M  V30 17113 H 1591.15 1.64877 -3.81822 0
M  V30 17114 H 1589.73 2.83481 -2.42267 0
M  V30 17115 N 1591.91 1.44376 0.631925 0
M  V30 17116 C 1593.14 1.50598 1.41873 0
M  V30 17117 C 1593.56 0.130589 1.88348 0
M  V30 17118 O 1592.91 -0.86336 1.60787 0
M  V30 17119 C 1592.96 2.47 2.63957 0
M  V30 17120 O 1592.69 3.79192 2.1942 0
M  V30 17121 C 1594.19 2.62678 3.57092 0
M  V30 17122 H 1591.41 0.510792 0.435124 0
M  V30 17123 H 1593.95 1.89332 0.772893 0
M  V30 17124 H 1592.11 2.11404 3.24634 0
M  V30 17125 H 1592.52 4.31231 2.98563 0
M  V30 17126 H 1593.99 3.34161 4.39364 0
M  V30 17127 H 1594.47 1.67881 4.05848 0
M  V30 17128 H 1595.08 2.99172 3.02285 0
M  V30 17129 N 1593.39 -0.872258 1.31261 0
M  V30 17130 C 1594.34 -1.97926 1.18718 0
M  V30 17131 C 1595.31 -1.65937 0.0735242 0
M  V30 17132 O 1596.49 -1.89208 0.245979 0
M  V30 17133 C 1593.63 -3.33208 0.898117 0
M  V30 17134 C 1592.75 -3.77808 2.09488 0
M  V30 17135 C 1591.88 -5.01796 1.74281 0
M  V30 17136 C 1590.92 -5.38838 2.90379 0
M  V30 17137 N 1590.06 -6.54007 2.55382 0
M  V30 17138 H 1594.9 -2.07986 2.13415 0
M  V30 17139 H 1592.43 -1.01821 1.06165 0
M  V30 17140 H 1594.39 -4.11095 0.711089 0
M  V30 17141 H 1593.02 -3.22798 -0.0120097 0
M  V30 17142 H 1592.07 -2.95722 2.39276 0
M  V30 17143 H 1593.39 -4.01191 2.96391 0
M  V30 17144 H 1592.54 -5.87344 1.52027 0
M  V30 17145 H 1591.28 -4.80312 0.845665 0
M  V30 17146 H 1590.28 -4.51811 3.13284 0
M  V30 17147 H 1591.51 -5.62289 3.80799 0
M  V30 17148 H 1589.46 -6.34073 1.68188 0
M  V30 17149 H 1589.37 -6.77322 3.35814 0
M  V30 17150 H 1590.64 -7.42752 2.36516 0
M  V30 17151 N 1594.87 -1.14184 -1.08627 0
M  V30 17152 C 1596.09 -0.932504 -1.85254 0
M  V30 17153 C 1596.52 0.513792 -1.80947 0
M  V30 17154 O 1595.88 1.36525 -1.19292 0
M  V30 17155 C 1595.93 -1.43519 -3.30809 0
M  V30 17156 O 1595.03 -0.625806 -4.07624 0
M  V30 17157 H 1594.37 -0.333573 -0.57413 0
M  V30 17158 H 1596.9 -1.51853 -1.3712 0
M  V30 17159 H 1596.91 -1.44238 -3.81654 0
M  V30 17160 H 1595.59 -2.48819 -3.3326 0
M  V30 17161 H 1594.16 -0.687168 -3.66514 0
M  V30 17162 N 1596.35 1.26749 -0.936613 0
M  V30 17163 C 1597.63 1.89106 -0.49981 0
M  V30 17164 C 1598.01 1.84687 1.02244 0
M  V30 17165 O 1597.35 1.2981 1.88047 0
M  V30 17166 C 1597.56 3.32641 -1.05598 0
M  V30 17167 C 1598.91 4.09511 -1.12187 0
M  V30 17168 O 1599.94 3.41692 -1.00624 0
M  V30 17169 O 1598.79 5.30785 -1.30113 0
M  V30 17170 H 1595.89 0.810941 -0.162185 0
M  V30 17171 H 1598.43 1.34952 -1.02888 0
M  V30 17172 H 1597.21 3.30196 -2.09968 0
M  V30 17173 H 1596.83 3.94327 -0.509086 0
M  V30 17174 N 1597.83 0.703118 1.41046 0
M  V30 17175 C 1599.07 0.237638 2.01403 0
M  V30 17176 C 1599.41 -1.16217 1.55587 0
M  V30 17177 O 1598.68 -1.78593 0.770377 0
M  V30 17178 C 1598.96 0.303738 3.58817 0
M  V30 17179 C 1598.82 1.74103 4.14739 0
M  V30 17180 C 1600.14 -0.332186 4.38845 0
M  V30 17181 H 1597.25 0.0878243 0.731749 0
M  V30 17182 H 1599.9 0.893264 1.67693 0
M  V30 17183 H 1598.05 -0.254485 3.87666 0
M  V30 17184 H 1599.72 2.35368 3.96736 0
M  V30 17185 H 1597.96 2.27277 3.69496 0
M  V30 17186 H 1598.63 1.73876 5.239 0
M  V30 17187 H 1601.11 0.143312 4.15853 0
M  V30 17188 H 1599.98 -0.255429 5.48305 0
M  V30 17189 H 1600.25 -1.41397 4.18878 0
M  V30 17190 N 1599.3 -1.51086 0.448402 0
M  V30 17191 C 1600.55 -2.0312 -0.106726 0
M  V30 17192 C 1600.91 -1.3259 -1.39419 0
M  V30 17193 O 1600.2 -0.435501 -1.86585 0
M  V30 17194 C 1600.39 -3.55488 -0.369232 0
M  V30 17195 C 1600.22 -4.4078 0.891233 0
M  V30 17196 C 1598.99 -4.84703 1.42798 0
M  V30 17197 C 1601.19 -4.82498 1.78044 0
M  V30 17198 N 1599.17 -5.54243 2.63984 0
M  V30 17199 C 1600.54 -5.51218 2.83828 0
M  V30 17200 C 1602.6 -4.64474 1.79354 0
M  V30 17201 C 1601.3 -6.03825 3.90881 0
M  V30 17202 C 1603.33 -5.18005 2.8535 0
M  V30 17203 C 1602.69 -5.86681 3.89853 0
M  V30 17204 H 1598.79 -0.782 0.000394759 0
M  V30 17205 H 1601.37 -1.84846 0.611546 0
M  V30 17206 H 1599.54 -3.73754 -1.05654 0
M  V30 17207 H 1601.27 -3.94181 -0.916694 0
M  V30 17208 H 1598.03 -4.63343 0.980339 0
M  V30 17209 H 1598.45 -5.93634 3.25465 0
M  V30 17210 H 1603.1 -4.10832 0.998865 0
M  V30 17211 H 1600.81 -6.56517 4.7118 0
M  V30 17212 H 1604.4 -5.05905 2.87318 0
M  V30 17213 H 1603.28 -6.27358 4.70522 0
M  V30 17214 N 1600.78 -0.180154 -1.56567 0
M  V30 17215 C 1602.01 0.471692 -2.01965 0
M  V30 17216 C 1602.43 1.5542 -1.05954 0
M  V30 17217 O 1601.79 1.81255 -0.0405307 0
M  V30 17218 C 1601.84 1.01883 -3.45908 0
M  V30 17219 O 1600.94 2.13245 -3.52988 0
M  V30 17220 H 1600.28 0.11197 -0.654491 0
M  V30 17221 H 1602.81 -0.286642 -2.02582 0
M  V30 17222 H 1602.82 1.33922 -3.85395 0
M  V30 17223 H 1601.5 0.226299 -4.15284 0
M  V30 17224 H 1600.08 1.82184 -3.25367 0
M  V30 17225 N 1602.26 1.57322 0.0935319 0
M  V30 17226 C 1603.49 1.90099 0.80907 0
M  V30 17227 C 1603.9 0.772198 1.72724 0
M  V30 17228 O 1603.24 -0.26468 1.81783 0
M  V30 17229 C 1603.3 3.18144 1.67405 0
M  V30 17230 C 1602.97 4.47488 0.927539 0
M  V30 17231 C 1603.96 5.19266 0.256635 0
M  V30 17232 C 1601.65 4.9415 0.901156 0
M  V30 17233 C 1603.64 6.35943 -0.430665 0
M  V30 17234 C 1601.33 6.10739 0.21007 0
M  V30 17235 C 1602.33 6.81485 -0.454661 0
M  V30 17236 O 1602.02 7.95852 -1.13466 0
M  V30 17237 H 1601.75 0.633287 0.236481 0
M  V30 17238 H 1604.3 2.05264 0.0747132 0
M  V30 17239 H 1602.53 2.99129 2.45068 0
M  V30 17240 H 1604.22 3.3674 2.2663 0
M  V30 17241 H 1604.99 4.84256 0.268468 0
M  V30 17242 H 1600.87 4.38972 1.408 0
M  V30 17243 H 1604.41 6.911 -0.950082 0
M  V30 17244 H 1600.31 6.45202 0.196089 0
M  V30 17245 H 1601.08 8.11844 -1.04172 0
M  V30 17246 N 1603.74 -0.364395 1.53329 0
M  V30 17247 C 1604.99 -1.10473 1.69234 0
M  V30 17248 C 1605.31 -1.89799 0.447347 0
M  V30 17249 O 1604.58 -1.8835 -0.538612 0
M  V30 17250 H 1603.16 -0.410826 0.623884 0
M  V30 17251 H 1605.82 -0.410721 1.90523 0
M  V30 17252 H 1604.92 -1.79387 2.55396 0
M  V30 17253 N 1605.22 -1.44709 -0.62426 0
M  V30 17254 C 1606.46 -1.48072 -1.38573 0
M  V30 17255 C 1606.8 -0.115532 -1.93856 0
M  V30 17256 O 1606.07 0.867787 -1.74068 0
M  V30 17257 C 1606.35 -2.54662 -2.54596 0
M  V30 17258 C 1606.21 -4.00564 -2.04618 0
M  V30 17259 C 1607.53 -2.57689 -3.56769 0
M  V30 17260 H 1604.64 -0.539119 -0.502513 0
M  V30 17261 H 1607.29 -1.76427 -0.705225 0
M  V30 17262 H 1605.44 -2.30614 -3.12649 0
M  V30 17263 H 1607.11 -4.35767 -1.51343 0
M  V30 17264 H 1605.35 -4.12014 -1.35746 0
M  V30 17265 H 1606.02 -4.70804 -2.8818 0
M  V30 17266 H 1608.5 -2.79194 -3.08529 0
M  V30 17267 H 1607.37 -3.34161 -4.35462 0
M  V30 17268 H 1607.64 -1.62146 -4.11292 0
M  V30 17269 N 1606.69 0.865285 -1.31722 0
M  V30 17270 C 1607.62 1.98871 -1.22362 0
M  V30 17271 C 1608.61 1.69745 -0.109779 0
M  V30 17272 O 1609.79 1.91944 -0.295167 0
M  V30 17273 C 1606.92 3.34477 -0.935 0
M  V30 17274 C 1605.87 3.77924 -2.00892 0
M  V30 17275 C 1605.2 5.11042 -1.57291 0
M  V30 17276 C 1606.5 3.94528 -3.42264 0
M  V30 17277 H 1608.19 2.06959 -2.16352 0
M  V30 17278 H 1605.74 0.994355 -1.04157 0
M  V30 17279 H 1607.69 4.12612 -0.856111 0
M  V30 17280 H 1606.42 3.26575 0.0405536 0
M  V30 17281 H 1605.08 3.02032 -2.07779 0
M  V30 17282 H 1604.72 4.99586 -0.585084 0
M  V30 17283 H 1604.42 5.41082 -2.29138 0
M  V30 17284 H 1605.95 5.91681 -1.50818 0
M  V30 17285 H 1607.36 4.63045 -3.38027 0
M  V30 17286 H 1605.76 4.35972 -4.12369 0
M  V30 17287 H 1606.83 2.97765 -3.82706 0
M  V30 17288 N 1608.17 1.14759 1.0802 0
M  V30 17289 C 1609.1 0.860977 2.17047 0
M  V30 17290 C 1610.08 -0.185652 1.69084 0
M  V30 17291 O 1611.27 -0.0414797 1.94156 0
M  V30 17292 C 1608.4 0.342018 3.45612 0
M  V30 17293 C 1607.35 1.32455 4.06989 0
M  V30 17294 C 1606.68 0.664721 5.30552 0
M  V30 17295 C 1607.98 2.68819 4.4781 0
M  V30 17296 H 1609.67 1.77269 2.4128 0
M  V30 17297 H 1607.22 0.853757 1.15961 0
M  V30 17298 H 1609.17 0.129093 4.21202 0
M  V30 17299 H 1607.9 -0.605138 3.20945 0
M  V30 17300 H 1606.55 1.52371 3.33435 0
M  V30 17301 H 1606.2 -0.288367 5.02173 0
M  V30 17302 H 1605.9 1.32036 5.72573 0
M  V30 17303 H 1607.43 0.461412 6.08854 0
M  V30 17304 H 1608.84 2.52787 5.14559 0
M  V30 17305 H 1607.24 3.30694 5.00761 0
M  V30 17306 H 1608.31 3.25398 3.59506 0
M  V30 17307 N 1609.65 -1.26251 0.943322 0
M  V30 17308 C 1610.9 -1.94274 0.602439 0
M  V30 17309 C 1611.25 -1.7263 -0.849506 0
M  V30 17310 O 1610.54 -1.054 -1.60004 0
M  V30 17311 C 1610.74 -3.46316 0.883167 0
M  V30 17312 C 1610.57 -3.82745 2.36085 0
M  V30 17313 C 1609.34 -4.05391 3.01639 0
M  V30 17314 C 1611.54 -3.91131 3.33947 0
M  V30 17315 N 1609.52 -4.28722 4.39398 0
M  V30 17316 C 1610.89 -4.19019 4.56971 0
M  V30 17317 C 1612.94 -3.73767 3.28942 0
M  V30 17318 C 1611.65 -4.3135 5.75613 0
M  V30 17319 C 1613.67 -3.8733 4.46911 0
M  V30 17320 C 1613.03 -4.1562 5.68717 0
M  V30 17321 H 1609.13 -0.733594 0.270859 0
M  V30 17322 H 1611.72 -1.52284 1.21317 0
M  V30 17323 H 1609.89 -3.87228 0.301466 0
M  V30 17324 H 1611.62 -4.01558 0.503336 0
M  V30 17325 H 1608.38 -4.00833 2.5225 0
M  V30 17326 H 1608.8 -4.44416 5.10709 0
M  V30 17327 H 1613.44 -3.50922 2.35825 0
M  V30 17328 H 1611.16 -4.53015 6.69181 0
M  V30 17329 H 1614.75 -3.75296 4.44572 0
M  V30 17330 H 1613.63 -4.25883 6.58478 0
M  V30 17331 N 1611.13 -0.710588 -1.40671 0
M  V30 17332 C 1612.04 -0.0557164 -2.34534 0
M  V30 17333 C 1613.06 0.749387 -1.57036 0
M  V30 17334 O 1614.23 0.683493 -1.89447 0
M  V30 17335 C 1611.3 0.858583 -3.35901 0
M  V30 17336 C 1610.36 0.043995 -4.29277 0
M  V30 17337 C 1609.59 0.91475 -5.25802 0
M  V30 17338 O 1609.81 2.15407 -5.28163 0
M  V30 17339 O 1608.75 0.356407 -6.00844 0
M  V30 17340 H 1612.57 -0.829807 -2.92144 0
M  V30 17341 H 1610.16 -0.471028 -1.4178 0
M  V30 17342 H 1612.04 1.38244 -3.98079 0
M  V30 17343 H 1610.72 1.61191 -2.80712 0
M  V30 17344 H 1609.62 -0.524815 -3.704 0
M  V30 17345 H 1610.96 -0.670996 -4.87605 0
M  V30 17346 N 1612.61 1.50847 -0.456408 0
M  V30 17347 C 1613.86 2.01425 0.105223 0
M  V30 17348 C 1614.17 1.34413 1.421 0
M  V30 17349 O 1615.38 1.76066 2.06671 0
M  V30 17350 C 1613.83 3.59112 0.238051 0
M  V30 17351 C 1613.44 4.35073 -1.06842 0
M  V30 17352 C 1615.18 4.17778 0.752428 0
M  V30 17353 C 1613.09 5.84509 -0.900194 0
M  V30 17354 H 1612.02 0.752767 0.0430992 0
M  V30 17355 H 1614.67 1.73788 -0.589075 0
M  V30 17356 H 1613.05 3.83275 0.995795 0
M  V30 17357 H 1614.23 4.22645 -1.83598 0
M  V30 17358 H 1612.54 3.87948 -1.51278 0
M  V30 17359 H 1615.14 5.27155 0.895088 0
M  V30 17360 H 1615.48 3.78195 1.73994 0
M  V30 17361 H 1616.02 3.97765 0.052476 0
M  V30 17362 H 1612.75 6.28538 -1.86064 0
M  V30 17363 H 1612.27 5.99551 -0.172767 0
M  V30 17364 H 1613.95 6.44564 -0.560943 0
M  V30 17365 N 1614.09 0.188454 1.56469 0
M  V30 17366 C 1615.33 -0.452058 1.9739 0
M  V30 17367 C 1615.66 -1.62086 1.0751 0
M  V30 17368 O 1614.92 -1.95375 0.11278 0
M  V30 17369 C 1615.21 -0.960652 3.44247 0
M  V30 17370 C 1614.88 0.0940708 4.50802 0
M  V30 17371 C 1613.54 0.383899 4.79666 0
M  V30 17372 C 1615.89 0.80908 5.14882 0
M  V30 17373 C 1613.22 1.39383 5.69903 0
M  V30 17374 C 1615.57 1.80811 6.0621 0
M  V30 17375 C 1614.24 2.10521 6.33433 0
M  V30 17376 H 1613.51 -0.16542 0.7223 0
M  V30 17377 H 1616.16 0.284024 1.89382 0
M  V30 17378 H 1614.46 -1.77488 3.49292 0
M  V30 17379 H 1616.16 -1.46553 3.7326 0
M  V30 17380 H 1612.75 -0.141993 4.28365 0
M  V30 17381 H 1616.93 0.598391 4.92679 0
M  V30 17382 H 1612.19 1.63 5.89272 0
M  V30 17383 H 1616.36 2.36742 6.54925 0
M  V30 17384 H 1613.99 2.88924 7.03155 0
M  V30 17385 N 1615.56 -1.5737 -0.0851874 0
M  V30 17386 C 1616.79 -1.91183 -0.803983 0
M  V30 17387 C 1617.21 -0.78365 -1.70999 0
M  V30 17388 O 1616.57 0.264266 -1.79364 0
M  V30 17389 C 1616.62 -3.239 -1.58496 0
M  V30 17390 O 1615.72 -3.12189 -2.69466 0
M  V30 17391 H 1615.06 -0.626413 -0.220233 0
M  V30 17392 H 1617.59 -2.04519 -0.0574426 0
M  V30 17393 H 1617.6 -3.5745 -1.96707 0
M  V30 17394 H 1616.28 -4.05594 -0.920111 0
M  V30 17395 H 1614.86 -2.90173 -2.3421 0
M  V30 17396 N 1617.04 0.356258 -1.53521 0
M  V30 17397 C 1617.97 1.44271 -1.83598 0
M  V30 17398 C 1618.95 1.5547 -0.690141 0
M  V30 17399 O 1620.14 1.69886 -0.940868 0
M  V30 17400 C 1617.27 2.8149 -2.03422 0
M  V30 17401 C 1616.22 2.85108 -3.19213 0
M  V30 17402 C 1615.55 4.25091 -3.24348 0
M  V30 17403 C 1616.85 2.51788 -4.57602 0
M  V30 17404 H 1618.54 1.1935 -2.74583 0
M  V30 17405 H 1616.09 0.572707 -1.32121 0
M  V30 17406 H 1618.04 3.57531 -2.23046 0
M  V30 17407 H 1616.76 3.07819 -1.09155 0
M  V30 17408 H 1615.42 2.1152 -2.99424 0
M  V30 17409 H 1615.07 4.4851 -2.277 0
M  V30 17410 H 1614.77 4.28426 -4.0215 0
M  V30 17411 H 1616.3 5.02992 -3.46167 0
M  V30 17412 H 1617.71 3.17542 -4.77326 0
M  V30 17413 H 1616.11 2.66426 -5.37715 0
M  V30 17414 H 1617.18 1.4701 -4.62078 0
M  V30 17415 N 1618.52 1.45038 0.616577 0
M  V30 17416 C 1619.77 1.48292 1.3731 0
M  V30 17417 C 1620.09 0.122437 1.94615 0
M  V30 17418 O 1619.36 -0.847103 1.76638 0
M  V30 17419 H 1617.94 0.546079 0.509712 0
M  V30 17420 H 1620.6 1.80927 0.724673 0
M  V30 17421 H 1619.7 2.21664 2.19708 0
M  V30 17422 N 1620 -0.858287 1.32179 0
M  V30 17423 C 1621.25 -1.60902 1.2229 0
M  V30 17424 C 1621.57 -1.93797 -0.216227 0
M  V30 17425 O 1620.84 -1.59312 -1.14002 0
M  V30 17426 H 1619.42 -0.596529 0.449624 0
M  V30 17427 H 1622.08 -1.02686 1.65655 0
M  V30 17428 H 1621.17 -2.54755 1.80295 0
M  V30 17429 N 1621.48 -1.1533 -1.07409 0
M  V30 17430 C 1622.7 -0.952101 -1.84255 0
M  V30 17431 C 1623.13 0.494571 -1.81482 0
M  V30 17432 O 1622.48 1.35253 -1.20733 0
M  V30 17433 C 1622.53 -1.47019 -3.29268 0
M  V30 17434 O 1621.64 -0.669005 -4.06937 0
M  V30 17435 H 1620.98 -0.339643 -0.57056 0
M  V30 17436 H 1623.51 -1.53298 -1.35502 0
M  V30 17437 H 1623.52 -1.48278 -3.80102 0
M  V30 17438 H 1622.19 -2.5234 -3.30602 0
M  V30 17439 H 1620.77 -0.726003 -3.65764 0
M  V30 17440 N 1622.95 1.25748 -0.950004 0
M  V30 17441 C 1624.36 1.75253 -0.643694 0
M  V30 17442 C 1624.72 1.77261 0.841017 0
M  V30 17443 O 1623.84 1.39043 1.65819 0
M  V30 17444 C 1624.44 3.1826 -1.16173 0
M  V30 17445 C 1622.99 3.65342 -0.905672 0
M  V30 17446 C 1622.14 2.4454 -1.30749 0
M  V30 17447 H 1625.09 1.117 -1.12733 0
M  V30 17448 H 1625.11 3.76935 -0.519651 0
M  V30 17449 H 1624.63 3.16766 -2.24234 0
M  V30 17450 H 1622.73 3.72256 0.160174 0
M  V30 17451 H 1622.84 4.53713 -1.53888 0
M  V30 17452 H 1621.2 2.44138 -0.725876 0
M  V30 17453 H 1621.99 2.45741 -2.39721 0
M  V30 17454 N 1624.43 0.718038 1.40292 0
M  V30 17455 C 1625.66 0.267937 2.04855 0
M  V30 17456 C 1626.07 -1.09615 1.54211 0
M  V30 17457 O 1625.41 -1.70055 0.694754 0
M  V30 17458 C 1625.47 0.172691 3.59085 0
M  V30 17459 C 1625.14 1.47246 4.32629 0
M  V30 17460 C 1626.14 2.41487 4.60413 0
M  V30 17461 C 1623.82 1.73207 4.71492 0
M  V30 17462 C 1625.81 3.59932 5.26049 0
M  V30 17463 C 1623.5 2.91933 5.3686 0
M  V30 17464 C 1624.5 3.85118 5.64068 0
M  V30 17465 O 1624.19 5.01762 6.28085 0
M  V30 17466 H 1623.92 0.117734 0.665669 0
M  V30 17467 H 1626.47 0.977621 1.80643 0
M  V30 17468 H 1624.7 -0.592957 3.82127 0
M  V30 17469 H 1626.39 -0.243171 4.05171 0
M  V30 17470 H 1627.16 2.22695 4.3085 0
M  V30 17471 H 1623.04 1.01528 4.49681 0
M  V30 17472 H 1626.58 4.32683 5.47203 0
M  V30 17473 H 1622.48 3.10633 5.65842 0
M  V30 17474 H 1623.25 5.01872 6.46581 0
M  V30 17475 N 1625.91 -1.50602 0.464402 0
M  V30 17476 C 1627.32 -1.86698 0.00767586 0
M  V30 17477 C 1627.67 -1.37971 -1.39494 0
M  V30 17478 O 1626.8 -0.741843 -2.03287 0
M  V30 17479 C 1627.39 -3.38799 0.00715323 0
M  V30 17480 C 1625.95 -3.74331 -0.394077 0
M  V30 17481 C 1625.1 -2.74465 0.395495 0
M  V30 17482 H 1628.05 -1.43441 0.678996 0
M  V30 17483 H 1628.07 -3.7207 -0.796497 0
M  V30 17484 H 1627.58 -3.74234 1.02812 0
M  V30 17485 H 1625.68 -3.44495 -1.41964 0
M  V30 17486 H 1625.8 -4.78995 -0.10007 0
M  V30 17487 H 1624.16 -2.54258 -0.149903 0
M  V30 17488 H 1624.94 -3.12744 1.41585 0
M  V30 17489 N 1627.39 -0.19675 -1.56367 0
M  V30 17490 C 1628.64 0.440711 -1.97236 0
M  V30 17491 C 1628.96 1.62037 -1.08485 0
M  V30 17492 O 1628.23 1.95274 -0.156483 0
M  V30 17493 H 1626.81 0.16581 -0.728365 0
M  V30 17494 H 1629.47 -0.283867 -1.92822 0
M  V30 17495 H 1628.57 0.783731 -3.02099 0
M  V30 17496 N 1628.87 1.57413 0.0768405 0
M  V30 17497 C 1630.11 1.87279 0.778099 0
M  V30 17498 C 1630.45 0.788359 1.77478 0
M  V30 17499 O 1629.72 -0.201876 1.9345 0
M  V30 17500 C 1630 3.27801 1.49059 0
M  V30 17501 C 1629.86 4.46892 0.510661 0
M  V30 17502 C 1631.18 3.66485 2.43674 0
M  V30 17503 H 1628.29 0.681159 0.281409 0
M  V30 17504 H 1630.94 1.89955 0.0413711 0
M  V30 17505 H 1629.09 3.2565 2.11859 0
M  V30 17506 H 1630.76 4.61165 -0.111734 0
M  V30 17507 H 1629 4.33449 -0.174445 0
M  V30 17508 H 1629.67 5.41985 1.04671 0
M  V30 17509 H 1632.15 3.69696 1.90955 0
M  V30 17510 H 1631.02 4.65706 2.90533 0
M  V30 17511 H 1631.29 2.96145 3.28254 0
M  V30 17512 N 1630.34 -0.348112 1.53707 0
M  V30 17513 C 1631.28 -1.44781 1.77682 0
M  V30 17514 C 1632.29 -1.4891 0.657997 0
M  V30 17515 O 1633.48 -1.52075 0.934635 0
M  V30 17516 C 1630.58 -2.83463 1.85747 0
M  V30 17517 C 1629.75 -3.02827 3.15618 0
M  V30 17518 C 1628.81 -4.21724 3.14698 0
M  V30 17519 O 1627.84 -4.16059 3.88437 0
M  V30 17520 N 1629.04 -5.3003 2.36746 0
M  V30 17521 H 1631.8 -1.24587 2.72577 0
M  V30 17522 H 1629.36 -0.537961 1.52701 0
M  V30 17523 H 1631.36 -3.6117 1.82589 0
M  V30 17524 H 1629.93 -2.96822 0.980595 0
M  V30 17525 H 1629.15 -2.1263 3.31937 0
M  V30 17526 H 1630.43 -3.12645 4.01411 0
M  V30 17527 H 1629.83 -5.375 1.7638 0
M  V30 17528 H 1628.39 -6.06247 2.39389 0
M  V30 17529 N 1631.82 -1.45363 -0.608876 0
M  V30 17530 C 1632.76 -1.48425 -1.73336 0
M  V30 17531 C 1633.73 -0.340757 -1.58989 0
M  V30 17532 O 1634.92 -0.541066 -1.80568 0
M  V30 17533 C 1632.04 -1.33807 -3.11149 0
M  V30 17534 C 1631.09 -2.52005 -3.44087 0
M  V30 17535 S 1631.92 -4.14477 -3.39071 0
M  V30 17536 C 1633.08 -4.02321 -4.79467 0
M  V30 17537 H 1633.31 -2.43568 -1.70475 0
M  V30 17538 H 1630.85 -1.32931 -0.785418 0
M  V30 17539 H 1632.8 -1.2606 -3.90665 0
M  V30 17540 H 1631.46 -0.401365 -3.11525 0
M  V30 17541 H 1630.66 -2.37699 -4.44427 0
M  V30 17542 H 1630.26 -2.56606 -2.72083 0
M  V30 17543 H 1632.55 -3.67386 -5.6924 0
M  V30 17544 H 1633.49 -5.02569 -4.98829 0
M  V30 17545 H 1633.9 -3.34 -4.55087 0
M  V30 17546 N 1633.3 0.851265 -1.32632 0
M  V30 17547 C 1634.58 1.58945 -1.13999 0
M  V30 17548 C 1634.96 2.08981 0.29836 0
M  V30 17549 O 1634.31 1.88226 1.2955 0
M  V30 17550 C 1634.52 2.73296 -2.17049 0
M  V30 17551 C 1635.86 3.42791 -2.50559 0
M  V30 17552 O 1636.89 2.83524 -2.15621 0
M  V30 17553 O 1635.75 4.49749 -3.10464 0
M  V30 17554 H 1632.84 0.700157 -0.440124 0
M  V30 17555 H 1635.39 0.895098 -1.44174 0
M  V30 17556 H 1634.16 2.33873 -3.13718 0
M  V30 17557 H 1633.78 3.50405 -1.87888 0
M  V30 17558 N 1634.78 1.15898 1.06796 0
M  V30 17559 C 1635.69 0.87507 2.17669 0
M  V30 17560 C 1636.7 -0.150763 1.73346 0
M  V30 17561 O 1637.88 0.0246621 2.01385 0
M  V30 17562 C 1634.95 0.374555 3.44671 0
M  V30 17563 C 1634.01 1.46498 4.0353 0
M  V30 17564 C 1633.24 0.988256 5.2447 0
M  V30 17565 O 1633.46 -0.163992 5.70164 0
M  V30 17566 O 1632.4 1.7744 5.75151 0
M  V30 17567 H 1636.22 1.80208 2.44456 0
M  V30 17568 H 1633.81 0.93854 1.1624 0
M  V30 17569 H 1635.69 0.102161 4.21276 0
M  V30 17570 H 1634.36 -0.524513 3.19422 0
M  V30 17571 H 1633.27 1.79105 3.28439 0
M  V30 17572 H 1634.6 2.33917 4.33063 0
M  V30 17573 N 1636.26 -1.25243 0.956659 0
M  V30 17574 C 1637.53 -1.88287 0.529832 0
M  V30 17575 C 1637.91 -1.8629 -0.992929 0
M  V30 17576 O 1637.26 -1.32785 -1.85958 0
M  V30 17577 C 1637.47 -3.30919 1.10877 0
M  V30 17578 C 1638.82 -4.07674 1.18687 0
M  V30 17579 O 1639.84 -3.40048 1.06047 0
M  V30 17580 O 1638.7 -5.28648 1.38541 0
M  V30 17581 H 1635.8 -0.808258 0.175066 0
M  V30 17582 H 1638.34 -1.33298 1.05022 0
M  V30 17583 H 1637.11 -3.26813 2.15195 0
M  V30 17584 H 1636.74 -3.93468 0.571755 0
M  V30 17585 N 1637.73 -0.725468 -1.3991 0
M  V30 17586 C 1638.98 -0.269251 -2.00702 0
M  V30 17587 C 1639.31 1.1406 -1.57545 0
M  V30 17588 O 1638.56 1.78997 -0.79111 0
M  V30 17589 C 1638.86 -0.308261 -3.56068 0
M  V30 17590 C 1638.53 -1.66979 -4.18842 0
M  V30 17591 C 1637.19 -2.04247 -4.35702 0
M  V30 17592 C 1639.54 -2.56418 -4.53761 0
M  V30 17593 C 1636.87 -3.3048 -4.84768 0
M  V30 17594 C 1639.22 -3.82014 -5.0423 0
M  V30 17595 C 1637.89 -4.19386 -5.19299 0
M  V30 17596 H 1637.16 -0.0985258 -0.734421 0
M  V30 17597 H 1639.8 -0.930441 -1.67377 0
M  V30 17598 H 1638.11 0.436504 -3.89361 0
M  V30 17599 H 1639.81 0.0627207 -4.00951 0
M  V30 17600 H 1636.4 -1.37001 -4.06114 0
M  V30 17601 H 1640.58 -2.28898 -4.40363 0
M  V30 17602 H 1635.84 -3.59392 -4.94619 0
M  V30 17603 H 1640.01 -4.51481 -5.30225 0
M  V30 17604 H 1637.64 -5.17268 -5.5708 0
M  V30 17605 N 1639.21 1.50354 -0.472382 0
M  V30 17606 C 1640.45 2.0424 0.0808914 0
M  V30 17607 C 1640.82 1.34648 1.36871 0
M  V30 17608 O 1642.02 1.79096 2.00444 0
M  V30 17609 C 1640.29 3.56459 0.259192 0
M  V30 17610 S 1641.85 4.31976 0.770836 0
M  V30 17611 H 1638.67 0.710834 0.015346 0
M  V30 17612 H 1641.27 1.84734 -0.639816 0
M  V30 17613 H 1639.97 4.04662 -0.683865 0
M  V30 17614 H 1639.5 3.80321 1.00598 0
M  V30 17615 H 1641.52 4.52142 2.04406 0
M  V30 17616 N 1640.69 0.205039 1.56261 0
M  V30 17617 C 1641.92 -0.439502 2.0269 0
M  V30 17618 C 1642.34 -1.53715 1.08413 0
M  V30 17619 O 1641.7 -1.81167 0.0693616 0
M  V30 17620 C 1641.75 -0.963672 3.47485 0
M  V30 17621 O 1640.85 -2.07602 3.56336 0
M  V30 17622 H 1640.19 -0.101543 0.65619 0
M  V30 17623 H 1642.72 0.318835 2.021 0
M  V30 17624 H 1642.73 -1.27773 3.87476 0
M  V30 17625 H 1641.41 -0.160203 4.15591 0
M  V30 17626 H 1639.98 -1.76985 3.28224 0
M  V30 17627 N 1642.17 -1.57451 -0.0684915 0
M  V30 17628 C 1643.59 -1.53883 -0.423354 0
M  V30 17629 C 1643.79 -0.925698 -1.78978 0
M  V30 17630 O 1642.84 -0.529629 -2.46883 0
M  V30 17631 C 1644.15 -2.98521 -0.361386 0
M  V30 17632 C 1645.7 -3.09873 -0.441334 0
M  V30 17633 C 1646.18 -4.56168 -0.409239 0
M  V30 17634 N 1647.67 -4.60817 -0.469216 0
M  V30 17635 C 1648.4 -5.71498 -0.466648 0
M  V30 17636 N 1647.9 -6.91534 -0.4187 0
M  V30 17637 N 1649.69 -5.5975 -0.513452 0
M  V30 17638 H 1641.84 -1.95672 0.8262 0
M  V30 17639 H 1644.11 -0.895759 0.310354 0
M  V30 17640 H 1643.81 -3.46951 0.576035 0
M  V30 17641 H 1643.69 -3.58585 -1.17032 0
M  V30 17642 H 1646.07 -2.61414 -1.36918 0
M  V30 17643 H 1646.15 -2.52712 0.396237 0
M  V30 17644 H 1645.8 -5.05285 0.514772 0
M  V30 17645 H 1645.73 -5.11195 -1.26439 0
M  V30 17646 H 1648.22 -3.74438 -0.510387 0
M  V30 17647 H 1648.53 -7.71654 -0.420757 0
M  V30 17648 H 1646.88 -6.93931 -0.385338 0
M  V30 17649 H 1650.07 -4.64874 -0.548626 0
M  V30 17650 H 1650.24 -6.46006 -0.507982 0
M  V30 17651 N 1643.65 0.339955 -1.5389 0
M  V30 17652 C 1644.58 1.42316 -1.85117 0
M  V30 17653 C 1645.56 1.5473 -0.706591 0
M  V30 17654 O 1646.74 1.68879 -0.958834 0
M  V30 17655 C 1643.87 2.79317 -2.06396 0
M  V30 17656 C 1642.83 2.81707 -3.22219 0
M  V30 17657 C 1642.15 4.21627 -3.28838 0
M  V30 17658 C 1643.45 2.46921 -4.60247 0
M  V30 17659 H 1645.15 1.16431 -2.75834 0
M  V30 17660 H 1642.69 0.558661 -1.32721 0
M  V30 17661 H 1644.65 3.55145 -2.26826 0
M  V30 17662 H 1643.37 3.06644 -1.12414 0
M  V30 17663 H 1642.03 2.08332 -3.01651 0
M  V30 17664 H 1641.68 4.4607 -2.32444 0
M  V30 17665 H 1641.38 4.24137 -4.06672 0
M  V30 17666 H 1642.9 4.99292 -3.51482 0
M  V30 17667 H 1644.32 3.12462 -4.80667 0
M  V30 17668 H 1642.71 2.60707 -5.40511 0
M  V30 17669 H 1643.78 1.421 -4.63611 0
M  V30 17670 N 1645.13 1.45684 0.601159 0
M  V30 17671 C 1646.54 1.30232 0.922598 0
M  V30 17672 C 1646.74 0.260086 1.99814 0
M  V30 17673 O 1645.8 -0.343753 2.50149 0
M  V30 17674 C 1647.11 2.68318 1.35743 0
M  V30 17675 C 1648.66 2.76264 1.47129 0
M  V30 17676 C 1649.13 4.1489 1.93986 0
M  V30 17677 N 1650.62 4.17216 2.01209 0
M  V30 17678 C 1651.36 5.21354 2.387 0
M  V30 17679 N 1650.86 6.35833 2.75114 0
M  V30 17680 N 1652.65 5.08714 2.39095 0
M  V30 17681 H 1644.8 2.12117 -0.109634 0
M  V30 17682 H 1647.06 0.947902 0.0136129 0
M  V30 17683 H 1646.77 3.45804 0.64127 0
M  V30 17684 H 1646.64 2.97206 2.32268 0
M  V30 17685 H 1649.03 1.99077 2.17835 0
M  V30 17686 H 1649.11 2.51082 0.489028 0
M  V30 17687 H 1648.75 4.92565 1.23864 0
M  V30 17688 H 1648.68 4.37468 2.93137 0
M  V30 17689 H 1651.18 3.34607 1.75632 0
M  V30 17690 H 1651.49 7.11084 3.02622 0
M  V30 17691 H 1649.83 6.39224 2.72795 0
M  V30 17692 H 1653.02 4.18322 2.10057 0
M  V30 17693 H 1653.2 5.89989 2.67987 0
M  V30 17694 N 1646.6 -0.84422 1.33082 0
M  V30 17695 C 1647.51 -1.9858 1.24913 0
M  V30 17696 C 1648.53 -1.73256 0.160708 0
M  V30 17697 O 1649.71 -1.97719 0.383313 0
M  V30 17698 C 1646.77 -3.32471 0.983063 0
M  V30 17699 C 1645.83 -3.70946 2.16096 0
M  V30 17700 C 1645.06 -4.98448 1.90749 0
M  V30 17701 O 1645.29 -5.63953 0.855173 0
M  V30 17702 O 1644.22 -5.34301 2.7714 0
M  V30 17703 H 1648.05 -2.0841 2.20905 0
M  V30 17704 H 1645.63 -0.976447 1.13075 0
M  V30 17705 H 1647.51 -4.12705 0.851612 0
M  V30 17706 H 1646.19 -3.23656 0.053384 0
M  V30 17707 H 1645.1 -2.91244 2.34793 0
M  V30 17708 H 1646.43 -3.8442 3.07379 0
M  V30 17709 N 1648.08 -1.16463 -1.0618 0
M  V30 17710 C 1649.33 -0.944975 -1.78647 0
M  V30 17711 C 1649.65 0.528486 -1.87702 0
M  V30 17712 O 1648.92 1.38391 -1.38653 0
M  V30 17713 H 1647.5 -0.346637 -0.661704 0
M  V30 17714 H 1650.16 -1.46752 -1.28257 0
M  V30 17715 H 1649.26 -1.36469 -2.80683 0
M  V30 17716 N 1649.56 1.24734 -0.963288 0
M  V30 17717 C 1650.49 2.24024 -0.434573 0
M  V30 17718 C 1651.47 1.55076 0.488889 0
M  V30 17719 O 1652.65 1.83732 0.421281 0
M  V30 17720 C 1649.78 3.36638 0.373148 0
M  V30 17721 C 1648.83 4.23653 -0.491959 0
M  V30 17722 S 1649.66 4.99531 -1.92949 0
M  V30 17723 C 1650.82 6.15607 -1.13043 0
M  V30 17724 H 1651.05 2.68524 -1.27601 0
M  V30 17725 H 1648.58 1.33945 -0.767994 0
M  V30 17726 H 1650.54 4.01955 0.833211 0
M  V30 17727 H 1649.2 2.90705 1.18951 0
M  V30 17728 H 1648.39 5.03837 0.127976 0
M  V30 17729 H 1648 3.63315 -0.887574 0
M  V30 17730 H 1650.29 6.76415 -0.383296 0
M  V30 17731 H 1651.23 6.81952 -1.9065 0
M  V30 17732 H 1651.64 5.60667 -0.656746 0
M  V30 17733 N 1651.04 0.732878 1.39523 0
M  V30 17734 C 1652.45 0.408236 1.54291 0
M  V30 17735 C 1652.65 -1.08114 1.7004 0
M  V30 17736 O 1651.71 -1.86726 1.6997 0
M  V30 17737 C 1653.02 1.1894 2.76177 0
M  V30 17738 C 1654.57 1.17742 2.9001 0
M  V30 17739 C 1655.05 1.94111 4.14831 0
M  V30 17740 N 1656.54 1.91266 4.21867 0
M  V30 17741 C 1657.27 2.47167 5.17394 0
M  V30 17742 N 1656.77 3.11696 6.18723 0
M  V30 17743 N 1658.56 2.37212 5.09595 0
M  V30 17744 H 1650.71 1.69839 1.27548 0
M  V30 17745 H 1652.97 0.718844 0.618035 0
M  V30 17746 H 1652.68 2.24321 2.70875 0
M  V30 17747 H 1652.55 0.792439 3.68782 0
M  V30 17748 H 1654.94 0.131752 2.94806 0
M  V30 17749 H 1655.02 1.61374 1.98474 0
M  V30 17750 H 1654.67 2.98677 4.10797 0
M  V30 17751 H 1654.6 1.47886 5.05408 0
M  V30 17752 H 1657.09 1.44254 3.49284 0
M  V30 17753 H 1657.4 3.51823 6.8807 0
M  V30 17754 H 1655.75 3.15785 6.19116 0
M  V30 17755 H 1658.94 1.86444 4.29367 0
M  V30 17756 H 1659.11 2.81076 5.83866 0
M  V30 17757 N 1652.52 -1.50101 0.480349 0
M  V30 17758 C 1653.45 -2.25419 -0.355186 0
M  V30 17759 C 1654.43 -1.2912 -0.988276 0
M  V30 17760 O 1655.61 -1.58364 -1.02241 0
M  V30 17761 C 1652.74 -3.03751 -1.49844 0
M  V30 17762 C 1651.78 -4.15046 -0.981799 0
M  V30 17763 S 1652.62 -5.35385 0.110936 0
M  V30 17764 C 1653.77 -6.17267 -1.03597 0
M  V30 17765 H 1654.01 -2.95939 0.284135 0
M  V30 17766 H 1651.54 -1.52103 0.265352 0
M  V30 17767 H 1653.5 -3.49471 -2.15361 0
M  V30 17768 H 1652.16 -2.32739 -2.1093 0
M  V30 17769 H 1651.35 -4.69292 -1.83795 0
M  V30 17770 H 1650.95 -3.7181 -0.404184 0
M  V30 17771 H 1653.24 -6.48961 -1.94565 0
M  V30 17772 H 1654.19 -7.06094 -0.532569 0
M  V30 17773 H 1654.6 -5.49469 -1.29398 0
M  V30 17774 N 1653.99 -0.213323 -1.5615 0
M  V30 17775 C 1655.41 0.142215 -1.58965 0
M  V30 17776 C 1655.61 1.59606 -1.22996 0
M  V30 17777 O 1654.67 2.33485 -0.961308 0
M  V30 17778 C 1655.98 -0.176632 -3.00181 0
M  V30 17779 C 1657.53 -0.118205 -3.12777 0
M  V30 17780 C 1658 -0.410614 -4.56156 0
M  V30 17781 N 1659.49 -0.359887 -4.618 0
M  V30 17782 C 1660.23 -0.559744 -5.70661 0
M  V30 17783 N 1659.72 -0.820934 -6.87919 0
M  V30 17784 N 1661.52 -0.492746 -5.59936 0
M  V30 17785 H 1653.67 -1.16182 -1.77807 0
M  V30 17786 H 1655.93 -0.465086 -0.826075 0
M  V30 17787 H 1655.64 -1.18538 -3.31122 0
M  V30 17788 H 1655.51 0.512256 -3.73705 0
M  V30 17789 H 1657.9 0.88117 -2.81637 0
M  V30 17790 H 1657.98 -0.840446 -2.41599 0
M  V30 17791 H 1657.62 -1.40739 -4.88011 0
M  V30 17792 H 1657.55 0.332725 -5.25548 0
M  V30 17793 H 1660.04 -0.16537 -3.77538 0
M  V30 17794 H 1660.36 -0.961755 -7.66792 0
M  V30 17795 H 1658.7 -0.858036 -6.89683 0
M  V30 17796 H 1661.89 -0.288981 -4.67207 0
M  V30 17797 H 1662.07 -0.651912 -6.44712 0
M  V30 17798 N 1655.47 1.57485 0.0601405 0
M  V30 17799 C 1656.44 2.03493 1.05467 0
M  V30 17800 C 1657.44 0.933816 1.30907 0
M  V30 17801 O 1658.63 1.19837 1.26431 0
M  V30 17802 C 1655.76 2.42549 2.39547 0
M  V30 17803 H 1656.95 2.92595 0.657893 0
M  V30 17804 H 1654.5 1.53272 0.306183 0
M  V30 17805 H 1655.24 1.56509 2.84034 0
M  V30 17806 H 1655.02 3.22911 2.22421 0
M  V30 17807 H 1656.51 2.7868 3.1101 0
M  V30 17808 N 1656.95 -0.331789 1.54068 0
M  V30 17809 C 1658.36 -0.906719 1.63204 0
M  V30 17810 C 1658.71 -1.89161 0.520837 0
M  V30 17811 O 1657.84 -2.1359 -0.347577 0
M  V30 17812 C 1658.43 -1.65132 2.95832 0
M  V30 17813 C 1656.99 -2.17509 3.07192 0
M  V30 17814 C 1656.14 -0.99788 2.58723 0
M  V30 17815 H 1659.09 -0.109595 1.58321 0
M  V30 17816 H 1659.11 -2.515 2.85531 0
M  V30 17817 H 1658.62 -0.934255 3.76687 0
M  V30 17818 H 1656.72 -2.92356 2.30995 0
M  V30 17819 H 1656.84 -2.43074 4.12858 0
M  V30 17820 H 1655.2 -1.37469 2.14417 0
M  V30 17821 H 1655.98 -0.295261 3.42028 0
M  V30 17822 N 1658.43 -1.46001 -0.593424 0
M  V30 17823 C 1659.34 -1.58316 -1.73128 0
M  V30 17824 C 1660.35 -0.467029 -1.67615 0
M  V30 17825 O 1661.53 -0.729682 -1.87717 0
M  V30 17826 C 1658.6 -1.56007 -3.09617 0
M  V30 17827 C 1657.66 -2.78769 -3.26475 0
M  V30 17828 C 1656.89 -2.76561 -4.56453 0
M  V30 17829 O 1657.11 -1.84694 -5.39671 0
M  V30 17830 O 1656.05 -3.67959 -4.76329 0
M  V30 17831 H 1659.87 -2.54522 -1.65686 0
M  V30 17832 H 1657.46 -1.28672 -0.759204 0
M  V30 17833 H 1659.34 -1.57377 -3.9091 0
M  V30 17834 H 1658.01 -0.629571 -3.17519 0
M  V30 17835 H 1656.92 -2.82956 -2.44717 0
M  V30 17836 H 1658.25 -3.70992 -3.23459 0
M  V30 17837 N 1659.91 0.83715 -1.33527 0
M  V30 17838 C 1661.14 1.6222 -1.27938 0
M  V30 17839 C 1661.54 1.88592 0.151584 0
M  V30 17840 O 1660.89 1.46772 1.1047 0
M  V30 17841 C 1660.95 2.99561 -1.98754 0
M  V30 17842 C 1660.61 2.96152 -3.48056 0
M  V30 17843 C 1661.61 2.71745 -4.43227 0
M  V30 17844 C 1659.3 3.16233 -3.90259 0
M  V30 17845 C 1661.29 2.67451 -5.78575 0
M  V30 17846 C 1658.98 3.11564 -5.2571 0
M  V30 17847 C 1659.97 2.87204 -6.1968 0
M  V30 17848 O 1659.66 2.82441 -7.5265 0
M  V30 17849 H 1659.39 0.511419 -0.442071 0
M  V30 17850 H 1661.95 1.05075 -1.76489 0
M  V30 17851 H 1660.18 3.58568 -1.44797 0
M  V30 17852 H 1661.87 3.60444 -1.86642 0
M  V30 17853 H 1662.63 2.5598 -4.11946 0
M  V30 17854 H 1658.51 3.34214 -3.17525 0
M  V30 17855 H 1662.06 2.48356 -6.51893 0
M  V30 17856 H 1657.95 3.26879 -5.56615 0
M  V30 17857 H 1658.72 2.98271 -7.62218 0
M  V30 17858 N 1661.38 1.17024 1.05561 0
M  V30 17859 C 1662.61 0.981293 1.82717 0
M  V30 17860 C 1663.03 -0.465636 1.82246 0
M  V30 17861 O 1662.39 -1.33315 1.22869 0
M  V30 17862 C 1662.44 1.52239 3.26888 0
M  V30 17863 O 1661.54 0.73366 4.05822 0
M  V30 17864 H 1660.89 0.348677 0.565084 0
M  V30 17865 H 1663.42 1.55435 1.33046 0
M  V30 17866 H 1663.43 1.54306 3.77695 0
M  V30 17867 H 1662.1 2.57567 3.26545 0
M  V30 17868 H 1660.68 0.784101 3.64563 0
M  V30 17869 N 1662.86 -1.24221 0.969889 0
M  V30 17870 C 1664.09 -1.96403 0.650658 0
M  V30 17871 C 1664.51 -1.71919 -0.780339 0
M  V30 17872 O 1663.86 -1.00427 -1.52383 0
M  V30 17873 C 1663.91 -3.49636 0.918542 0
M  V30 17874 O 1663.63 -3.73283 2.29328 0
M  V30 17875 C 1665.14 -4.3903 0.613803 0
M  V30 17876 H 1662.36 -0.625614 0.242587 0
M  V30 17877 H 1664.9 -1.57992 1.29842 0
M  V30 17878 H 1663.05 -3.86101 0.316959 0
M  V30 17879 H 1663.47 -4.67649 2.37496 0
M  V30 17880 H 1664.94 -5.4539 0.851679 0
M  V30 17881 H 1665.42 -4.36868 -0.451976 0
M  V30 17882 H 1666.03 -4.08155 1.19539 0
M  V30 17883 N 1664.34 -0.740267 -1.39132 0
M  V30 17884 C 1665.75 -0.359866 -1.83199 0
M  V30 17885 C 1666.1 1.1095 -1.61816 0
M  V30 17886 O 1665.23 1.85635 -1.11215 0
M  V30 17887 C 1665.82 -0.64639 -3.32577 0
M  V30 17888 C 1664.38 -0.319423 -3.75042 0
M  V30 17889 C 1663.53 -0.906345 -2.6207 0
M  V30 17890 H 1666.48 -0.93749 -1.2805 0
M  V30 17891 H 1666.5 0.080033 -3.80416 0
M  V30 17892 H 1666.01 -1.71588 -3.48108 0
M  V30 17893 H 1664.11 0.744022 -3.65096 0
M  V30 17894 H 1664.23 -0.805664 -4.72277 0
M  V30 17895 H 1662.59 -0.332615 -2.52519 0
M  V30 17896 H 1663.37 -1.9806 -2.80405 0
M  V30 17897 N 1665.82 1.49844 -0.488302 0
M  V30 17898 C 1666.73 2.32651 0.301746 0
M  V30 17899 C 1667.74 1.43807 0.979573 0
M  V30 17900 O 1668.92 1.76844 0.963758 0
M  V30 17901 C 1665.99 3.18928 1.35962 0
M  V30 17902 C 1665.05 4.23611 0.696575 0
M  V30 17903 C 1664.28 5.05765 1.70404 0
M  V30 17904 O 1664.5 4.89243 2.93253 0
M  V30 17905 O 1663.44 5.88427 1.26637 0
M  V30 17906 H 1667.26 3.01367 -0.375687 0
M  V30 17907 H 1664.85 1.47296 -0.249844 0
M  V30 17908 H 1666.73 3.72413 1.97198 0
M  V30 17909 H 1665.4 2.52921 2.02021 0
M  V30 17910 H 1664.31 3.74073 0.0448118 0
M  V30 17911 H 1665.64 4.92137 0.0786446 0
M  V30 17912 N 1667.3 0.221601 1.56034 0
M  V30 17913 C 1668.55 -0.410442 1.9748 0
M  V30 17914 C 1668.86 -1.60895 1.1123 0
M  V30 17915 O 1670.06 -2.31052 1.42574 0
M  V30 17916 C 1668.52 -0.781624 3.5131 0
M  V30 17917 C 1668.13 0.394077 4.46263 0
M  V30 17918 C 1669.87 -1.37927 4.01468 0
M  V30 17919 C 1667.78 0.000458181 5.914 0
M  V30 17920 H 1666.71 -0.157122 0.737447 0
M  V30 17921 H 1669.36 0.317821 1.80727 0
M  V30 17922 H 1667.74 -1.56731 3.63664 0
M  V30 17923 H 1668.92 1.17161 4.45657 0
M  V30 17924 H 1667.23 0.904959 4.06447 0
M  V30 17925 H 1669.83 -1.68667 5.07401 0
M  V30 17926 H 1670.17 -2.29507 3.47322 0
M  V30 17927 H 1670.7 -0.657015 3.92337 0
M  V30 17928 H 1667.44 0.882743 6.49529 0
M  V30 17929 H 1666.96 -0.741386 5.952 0
M  V30 17930 H 1668.64 -0.42621 6.45595 0
M  V30 17931 N 1668.77 -1.57515 -0.0517878 0
M  V30 17932 C 1670 -1.92177 -0.758384 0
M  V30 17933 C 1670.41 -0.817721 -1.70616 0
M  V30 17934 O 1669.76 0.216391 -1.82421 0
M  V30 17935 C 1669.82 -3.22471 -1.58912 0
M  V30 17936 C 1669.48 -4.4979 -0.808569 0
M  V30 17937 C 1670.48 -5.19764 -0.118871 0
M  V30 17938 C 1668.16 -4.96366 -0.769824 0
M  V30 17939 C 1670.16 -6.34578 0.599123 0
M  V30 17940 C 1667.84 -6.11081 -0.0480698 0
M  V30 17941 C 1668.84 -6.8004 0.635185 0
M  V30 17942 O 1668.53 -7.92564 1.34527 0
M  V30 17943 H 1668.26 -0.639335 -0.219607 0
M  V30 17944 H 1670.82 -2.0539 -0.0202648 0
M  V30 17945 H 1669.05 -3.05522 -2.37051 0
M  V30 17946 H 1670.74 -3.4263 -2.17622 0
M  V30 17947 H 1671.5 -4.84798 -0.139982 0
M  V30 17948 H 1667.38 -4.42551 -1.29112 0
M  V30 17949 H 1670.92 -6.88338 1.13298 0
M  V30 17950 H 1666.82 -6.45495 -0.0249563 0
M  V30 17951 H 1667.59 -8.08797 1.2566 0
M  V30 17952 N 1670.25 0.323614 -1.54242 0
M  V30 17953 C 1671.19 1.41936 -1.79963 0
M  V30 17954 C 1672.2 1.47845 -0.681604 0
M  V30 17955 O 1673.39 1.50569 -0.95871 0
M  V30 17956 C 1670.49 2.80472 -1.90233 0
M  V30 17957 C 1669.66 2.97768 -3.20395 0
M  V30 17958 C 1668.72 4.16664 -3.21368 0
M  V30 17959 O 1667.75 4.09827 -3.95007 0
M  V30 17960 N 1668.95 5.26196 -2.45148 0
M  V30 17961 H 1671.71 1.20235 -2.74524 0
M  V30 17962 H 1669.27 0.513599 -1.53538 0
M  V30 17963 H 1671.27 3.58219 -1.88312 0
M  V30 17964 H 1669.84 2.95224 -1.02769 0
M  V30 17965 H 1669.06 2.07322 -3.35278 0
M  V30 17966 H 1670.34 3.06219 -4.06334 0
M  V30 17967 H 1669.74 5.34626 -1.84909 0
M  V30 17968 H 1668.3 6.02362 -2.49004 0
M  V30 17969 N 1671.73 1.46313 0.585673 0
M  V30 17970 C 1672.98 1.50738 1.34019 0
M  V30 17971 C 1673.29 0.162245 1.94926 0
M  V30 17972 O 1674.5 0.0842676 2.71369 0
M  V30 17973 C 1672.96 2.65592 2.42876 0
M  V30 17974 C 1672.56 4.06513 1.88285 0
M  V30 17975 C 1674.31 2.79284 3.19689 0
M  V30 17976 C 1672.21 5.12712 2.94754 0
M  V30 17977 H 1671.14 0.560979 0.503804 0
M  V30 17978 H 1673.8 1.72516 0.625344 0
M  V30 17979 H 1672.18 2.37138 3.17146 0
M  V30 17980 H 1673.35 4.44744 1.20578 0
M  V30 17981 H 1671.67 3.97462 1.2415 0
M  V30 17982 H 1674.26 3.55795 3.99142 0
M  V30 17983 H 1674.61 1.86694 3.7209 0
M  V30 17984 H 1675.14 3.0737 2.52525 0
M  V30 17985 H 1671.88 6.07084 2.47244 0
M  V30 17986 H 1671.4 4.79028 3.6096 0
M  V30 17987 H 1673.08 5.38426 3.58757 0
M  V30 17988 N 1673.21 -0.830057 1.33969 0
M  V30 17989 C 1674.14 -1.94534 1.19297 0
M  V30 17990 C 1675.12 -1.62371 0.0862986 0
M  V30 17991 O 1676.3 -1.86833 0.250152 0
M  V30 17992 C 1673.43 -3.28329 0.831718 0
M  V30 17993 C 1672.48 -3.79459 1.94713 0
M  V30 17994 S 1673.31 -4.00075 3.5595 0
M  V30 17995 C 1674.47 -5.36808 3.21851 0
M  V30 17996 H 1674.7 -2.06683 2.13704 0
M  V30 17997 H 1672.23 -0.984833 1.18913 0
M  V30 17998 H 1674.19 -4.05636 0.630076 0
M  V30 17999 H 1672.85 -3.1396 -0.0939047 0
M  V30 18000 H 1672.04 -4.76297 1.64795 0
M  V30 18001 H 1671.65 -3.09076 2.10589 0
M  V30 18002 H 1673.94 -6.19964 2.73223 0
M  V30 18003 H 1674.88 -5.71705 4.17802 0
M  V30 18004 H 1675.29 -5.0198 2.58217 0
M  V30 18005 N 1674.69 -1.17582 -1.04939 0
M  V30 18006 C 1675.62 -0.918221 -2.14688 0
M  V30 18007 C 1676.6 0.140757 -1.69517 0
M  V30 18008 O 1677.78 -0.0100118 -1.94197 0
M  V30 18009 C 1674.91 -0.433531 -3.44584 0
M  V30 18010 C 1673.87 -1.43199 -4.03334 0
M  V30 18011 C 1673.19 -0.805154 -5.28603 0
M  V30 18012 C 1674.49 -2.80598 -4.40525 0
M  V30 18013 H 1676.19 -1.83604 -2.36495 0
M  V30 18014 H 1673.73 -0.884202 -1.13657 0
M  V30 18015 H 1675.69 -0.240722 -4.20712 0
M  V30 18016 H 1674.41 0.519832 -3.22437 0
M  V30 18017 H 1673.07 -1.61158 -3.29277 0
M  V30 18018 H 1672.72 0.155124 -5.02761 0
M  V30 18019 H 1672.42 -1.4717 -5.68871 0
M  V30 18020 H 1673.94 -0.622677 -6.07417 0
M  V30 18021 H 1675.36 -2.66341 -5.07676 0
M  V30 18022 H 1673.75 -3.43854 -4.91817 0
M  V30 18023 H 1674.82 -3.34815 -3.50752 0
M  V30 18024 N 1676.17 1.23705 -0.976463 0
M  V30 18025 C 1677.44 1.87421 -0.559719 0
M  V30 18026 C 1677.82 1.87847 0.963166 0
M  V30 18027 O 1677.17 1.35726 1.83822 0
M  V30 18028 C 1677.38 3.29113 -1.16128 0
M  V30 18029 C 1678.73 4.05735 -1.25158 0
M  V30 18030 O 1679.75 3.38317 -1.11444 0
M  V30 18031 O 1678.61 5.26377 -1.46933 0
M  V30 18032 H 1675.71 0.80537 -0.187903 0
M  V30 18033 H 1678.25 1.31611 -1.07129 0
M  V30 18034 H 1677.02 3.23348 -2.20367 0
M  V30 18035 H 1676.65 3.92508 -0.63428 0
M  V30 18036 N 1677.64 0.747635 1.38738 0
M  V30 18037 C 1678.88 0.305993 2.02097 0
M  V30 18038 C 1679.25 -1.09002 1.58059 0
M  V30 18039 O 1680.45 -1.63044 2.13705 0
M  V30 18040 C 1678.72 0.418156 3.54945 0
M  V30 18041 S 1680.28 0.0582187 4.38761 0
M  V30 18042 H 1677.1 0.119075 0.700958 0
M  V30 18043 H 1679.7 0.97694 1.6934 0
M  V30 18044 H 1678.4 1.43524 3.84486 0
M  V30 18045 H 1677.93 -0.270178 3.92471 0
M  V30 18046 H 1679.95 -1.15407 4.82593 0
M  V30 18047 N 1679.12 -1.49583 0.496242 0
M  V30 18048 C 1680.37 -2.03357 -0.0420511 0
M  V30 18049 C 1680.72 -1.36959 -1.3513 0
M  V30 18050 O 1680.02 -0.494641 -1.85105 0
M  V30 18051 C 1680.21 -3.56482 -0.255949 0
M  V30 18052 C 1680.04 -4.37722 1.03101 0
M  V30 18053 C 1678.81 -4.79914 1.58147 0
M  V30 18054 C 1681.01 -4.7659 1.93305 0
M  V30 18055 N 1678.99 -5.45564 2.81483 0
M  V30 18056 C 1680.36 -5.41909 3.01221 0
M  V30 18057 C 1682.41 -4.58533 1.9404 0
M  V30 18058 C 1681.12 -5.91083 4.09894 0
M  V30 18059 C 1683.14 -5.08665 3.01685 0
M  V30 18060 C 1682.51 -5.73981 4.0832 0
M  V30 18061 H 1678.6 -0.781591 0.0252733 0
M  V30 18062 H 1681.19 -1.82807 0.670044 0
M  V30 18063 H 1679.36 -3.76926 -0.937098 0
M  V30 18064 H 1681.09 -3.96898 -0.790825 0
M  V30 18065 H 1677.85 -4.59989 1.12725 0
M  V30 18066 H 1678.27 -5.82979 3.44186 0
M  V30 18067 H 1682.91 -4.07446 1.12906 0
M  V30 18068 H 1680.63 -6.41194 4.91829 0
M  V30 18069 H 1684.22 -4.96508 3.03268 0
M  V30 18070 H 1683.1 -6.12071 4.90243 0
M  V30 18071 N 1680.6 -0.229873 -1.55915 0
M  V30 18072 C 1681.55 0.690362 -2.17297 0
M  V30 18073 C 1682.53 1.15155 -1.12375 0
M  V30 18074 O 1683.73 1.10416 -1.38338 0
M  V30 18075 C 1680.85 1.89461 -2.86286 0
M  V30 18076 C 1679.94 1.45271 -3.98443 0
M  V30 18077 N 1680.33 0.723932 -5.00593 0
M  V30 18078 C 1678.63 1.73935 -4.10686 0
M  V30 18079 C 1679.33 0.497439 -5.79569 0
M  V30 18080 N 1678.31 1.05662 -5.33232 0
M  V30 18081 H 1682.11 0.12522 -2.93633 0
M  V30 18082 H 1679.62 -0.0314724 -1.6237 0
M  V30 18083 H 1681.62 2.5647 -3.28677 0
M  V30 18084 H 1680.28 2.46414 -2.11448 0
M  V30 18085 H 1681.29 0.375765 -5.16535 0
M  V30 18086 H 1677.97 2.32149 -3.47006 0
M  V30 18087 H 1679.36 -0.0831841 -6.71849 0
M  V30 18088 N 1682.08 1.5754 0.0434337 0
M  V30 18089 C 1683.49 1.54537 0.398819 0
M  V30 18090 C 1683.69 0.954055 1.77483 0
M  V30 18091 O 1682.75 0.568839 2.46009 0
M  V30 18092 C 1684.06 2.99058 0.313848 0
M  V30 18093 C 1685.61 3.10536 0.39198 0
M  V30 18094 C 1686.09 4.56761 0.336614 0
M  V30 18095 N 1687.58 4.61505 0.395844 0
M  V30 18096 C 1688.31 5.72168 0.375669 0
M  V30 18097 N 1687.81 6.92112 0.30863 0
M  V30 18098 N 1689.6 5.60496 0.424335 0
M  V30 18099 H 1681.75 1.94333 -0.857225 0
M  V30 18100 H 1684.01 0.890708 -0.324566 0
M  V30 18101 H 1683.72 3.4599 -0.631159 0
M  V30 18102 H 1683.59 3.60402 1.11313 0
M  V30 18103 H 1685.98 2.6356 1.32742 0
M  V30 18104 H 1686.06 2.5205 -0.436391 0
M  V30 18105 H 1685.71 5.04402 -0.595093 0
M  V30 18106 H 1685.64 5.13142 1.1829 0
M  V30 18107 H 1688.13 3.75202 0.450753 0
M  V30 18108 H 1688.44 7.72225 0.29794 0
M  V30 18109 H 1686.79 6.94456 0.274891 0
M  V30 18110 H 1689.98 4.65688 0.474599 0
M  V30 18111 H 1690.15 6.46732 0.405143 0
M  V30 18112 N 1683.56 -0.31543 1.54411 0
M  V30 18113 C 1684.83 -1.07113 1.63665 0
M  V30 18114 C 1685.21 -2.05671 0.475688 0
M  V30 18115 O 1684.56 -2.22288 -0.52918 0
M  V30 18116 C 1684.77 -1.76584 3.0103 0
M  V30 18117 C 1686.12 -2.29309 3.57355 0
M  V30 18118 O 1687.14 -1.86638 3.03388 0
M  V30 18119 O 1686 -3.07452 4.51814 0
M  V30 18120 H 1683.1 -0.494217 0.663083 0
M  V30 18121 H 1685.64 -0.31467 1.66757 0
M  V30 18122 H 1684.41 -1.0494 3.76966 0
M  V30 18123 H 1684.04 -2.5902 3.01653 0
M  V30 18124 N 1685.03 -1.46622 -0.577906 0
M  V30 18125 C 1686.45 -1.46287 -1.16004 0
M  V30 18126 C 1686.8 -0.206307 -1.95112 0
M  V30 18127 O 1685.92 0.690275 -2.05096 0
M  V30 18128 C 1686.52 -2.65042 -2.1104 0
M  V30 18129 C 1685.08 -2.67733 -2.64567 0
M  V30 18130 C 1684.22 -2.39053 -1.40531 0
M  V30 18131 H 1687.17 -1.54432 -0.365585 0
M  V30 18132 H 1687.19 -2.40834 -2.94583 0
M  V30 18133 H 1686.71 -3.56481 -1.53436 0
M  V30 18134 H 1684.81 -1.80379 -3.26028 0
M  V30 18135 H 1684.92 -3.67836 -3.06974 0
M  V30 18136 H 1683.28 -1.89209 -1.70506 0
M  V30 18137 H 1684.07 -3.32674 -0.847509 0
M  V30 18138 N 1686.51 0.822941 -1.34408 0
M  V30 18139 C 1687.46 1.93383 -1.25982 0
M  V30 18140 C 1688.43 1.6555 -0.13506 0
M  V30 18141 O 1689.61 1.88164 -0.316033 0
M  V30 18142 C 1686.75 3.29646 -1.02117 0
M  V30 18143 C 1685.87 3.69772 -2.23366 0
M  V30 18144 C 1685 4.94982 -1.92784 0
M  V30 18145 C 1684.04 5.2769 -3.10177 0
M  V30 18146 N 1683.18 6.44078 -2.79479 0
M  V30 18147 H 1688.02 1.99922 -2.20987 0
M  V30 18148 H 1685.56 0.978105 -1.0987 0
M  V30 18149 H 1687.51 4.08173 -0.863175 0
M  V30 18150 H 1686.14 3.2262 -0.107803 0
M  V30 18151 H 1685.2 2.86637 -2.50086 0
M  V30 18152 H 1686.51 3.89914 -3.11076 0
M  V30 18153 H 1685.66 5.81297 -1.73721 0
M  V30 18154 H 1684.4 4.76843 -1.02335 0
M  V30 18155 H 1683.41 4.39873 -3.29837 0
M  V30 18156 H 1684.63 5.47769 -4.01405 0
M  V30 18157 H 1682.58 6.27394 -1.91605 0
M  V30 18158 H 1682.49 6.64392 -3.60721 0
M  V30 18159 H 1683.76 7.33462 -2.63919 0
M  V30 18160 N 1687.99 1.18137 1.04314 0
M  V30 18161 C 1688.9 0.921044 2.15764 0
M  V30 18162 C 1689.92 -0.11396 1.73626 0
M  V30 18163 O 1691.09 0.0673733 2.01287 0
M  V30 18164 C 1688.16 0.447581 3.43799 0
M  V30 18165 C 1687.22 1.55025 4.00332 0
M  V30 18166 C 1686.45 1.09928 5.22256 0
M  V30 18167 O 1686.67 -0.0430152 5.70384 0
M  V30 18168 O 1685.61 1.896 5.71258 0
M  V30 18169 H 1689.43 1.85353 2.40579 0
M  V30 18170 H 1687.02 0.962985 1.14223 0
M  V30 18171 H 1688.9 0.191497 4.20965 0
M  V30 18172 H 1687.58 -0.456641 3.20463 0
M  V30 18173 H 1686.48 1.86032 3.24566 0
M  V30 18174 H 1687.82 2.4305 4.28004 0
M  V30 18175 N 1689.47 -1.23186 0.98301 0
M  V30 18176 C 1690.88 -1.43814 0.69207 0
M  V30 18177 C 1691.08 -1.87387 -0.740823 0
M  V30 18178 O 1690.14 -2.02154 -1.51295 0
M  V30 18179 C 1691.45 -2.48769 1.68922 0
M  V30 18180 C 1693 -2.62579 1.70356 0
M  V30 18181 C 1693.48 -3.70746 2.68908 0
M  V30 18182 N 1694.97 -3.78192 2.67442 0
M  V30 18183 C 1695.7 -4.61453 3.40366 0
M  V30 18184 N 1695.2 -5.48784 4.22857 0
M  V30 18185 N 1696.99 -4.55673 3.29118 0
M  V30 18186 H 1689.14 -0.932046 1.90858 0
M  V30 18187 H 1691.41 -0.471274 0.82256 0
M  V30 18188 H 1691.11 -2.23675 2.71408 0
M  V30 18189 H 1690.99 -3.47201 1.47415 0
M  V30 18190 H 1693.37 -2.87022 0.685728 0
M  V30 18191 H 1693.45 -1.64454 1.9593 0
M  V30 18192 H 1693.1 -3.47051 3.70834 0
M  V30 18193 H 1693.03 -4.68418 2.40607 0
M  V30 18194 H 1695.52 -3.15785 2.07577 0
M  V30 18195 H 1695.83 -6.09312 4.75351 0
M  V30 18196 H 1694.18 -5.48398 4.26948 0
M  V30 18197 H 1697.37 -3.86468 2.64122 0
M  V30 18198 H 1697.54 -5.20332 3.8621 0
M  V30 18199 N 1690.95 -0.754982 -1.38339 0
M  V30 18200 C 1692.36 -0.379276 -1.82807 0
M  V30 18201 C 1692.71 1.09228 -1.62984 0
M  V30 18202 O 1691.83 1.84445 -1.13177 0
M  V30 18203 C 1692.43 -0.681628 -3.31872 0
M  V30 18204 C 1690.99 -0.359183 -3.74682 0
M  V30 18205 C 1690.13 -0.93409 -2.61094 0
M  V30 18206 H 1693.09 -0.951019 -1.27048 0
M  V30 18207 H 1693.11 0.0396803 -3.80479 0
M  V30 18208 H 1692.62 -1.75271 -3.46268 0
M  V30 18209 H 1690.72 0.705257 -3.65865 0
M  V30 18210 H 1690.83 -0.85571 -4.71396 0
M  V30 18211 H 1689.2 -0.359379 -2.52152 0
M  V30 18212 H 1689.98 -2.01023 -2.78289 0
M  V30 18213 N 1692.42 1.49318 -0.504168 0
M  V30 18214 C 1693.84 1.58793 -0.160331 0
M  V30 18215 C 1694.04 1.50906 1.33527 0
M  V30 18216 O 1693.1 1.38466 2.11148 0
M  V30 18217 C 1694.41 2.91454 -0.739945 0
M  V30 18218 C 1695.96 3.04926 -0.706338 0
M  V30 18219 C 1696.43 4.4021 -1.26407 0
M  V30 18220 N 1697.92 4.46711 -1.22491 0
M  V30 18221 C 1698.66 5.49844 -1.62661 0
M  V30 18222 N 1698.15 6.60066 -2.10439 0
M  V30 18223 N 1699.95 5.40576 -1.54058 0
M  V30 18224 H 1692.1 1.52687 -1.4765 0
M  V30 18225 H 1694.36 0.723463 -0.612622 0
M  V30 18226 H 1694.07 3.02802 -1.78896 0
M  V30 18227 H 1693.94 3.76658 -0.202187 0
M  V30 18228 H 1696.33 2.93206 0.333845 0
M  V30 18229 H 1696.41 2.21398 -1.28128 0
M  V30 18230 H 1696.05 4.52683 -2.30305 0
M  V30 18231 H 1695.98 5.22384 -0.665041 0
M  V30 18232 H 1698.47 3.67634 -0.874869 0
M  V30 18233 H 1698.79 7.34865 -2.39153 0
M  V30 18234 H 1697.13 6.61098 -2.14415 0
M  V30 18235 H 1700.32 4.53359 -1.16548 0
M  V30 18236 H 1700.5 6.20826 -1.85687 0
M  V30 18237 N 1693.9 0.238138 1.5579 0
M  V30 18238 C 1695.15 -0.389031 1.98728 0
M  V30 18239 C 1695.48 -1.58584 1.12612 0
M  V30 18240 O 1694.73 -1.94917 0.174879 0
M  V30 18241 C 1695.03 -0.850646 3.47129 0
M  V30 18242 C 1694.7 0.237442 4.50274 0
M  V30 18243 C 1693.36 0.536307 4.78202 0
M  V30 18244 C 1695.71 0.972476 5.12047 0
M  V30 18245 C 1693.04 1.57443 5.6518 0
M  V30 18246 C 1695.39 2.00006 6.0015 0
M  V30 18247 C 1694.06 2.30566 6.26415 0
M  V30 18248 H 1693.33 -0.142357 0.727197 0
M  V30 18249 H 1695.97 0.34413 1.88383 0
M  V30 18250 H 1694.28 -1.66286 3.54762 0
M  V30 18251 H 1695.97 -1.34604 3.77734 0
M  V30 18252 H 1692.56 -0.00564033 4.286 0
M  V30 18253 H 1696.75 0.75483 4.90526 0
M  V30 18254 H 1692 1.81664 5.83788 0
M  V30 18255 H 1696.18 2.57458 6.47061 0
M  V30 18256 H 1693.81 3.11148 6.93607 0
M  V30 18257 N 1695.38 -1.57561 -0.0350783 0
M  V30 18258 C 1696.34 -2.05145 -1.02217 0
M  V30 18259 C 1697.34 -0.954524 -1.29404 0
M  V30 18260 O 1698.53 -1.21833 -1.24509 0
M  V30 18261 C 1695.67 -2.4633 -2.35658 0
M  V30 18262 H 1696.86 -2.93605 -0.61126 0
M  V30 18263 H 1694.41 -1.53739 -0.28176 0
M  V30 18264 H 1695.15 -1.61008 -2.81508 0
M  V30 18265 H 1694.93 -3.26408 -2.17256 0
M  V30 18266 H 1696.42 -2.83592 -3.06537 0
M  V30 18267 N 1696.86 0.307236 -1.54576 0
M  V30 18268 C 1697.77 1.4014 -1.88143 0
M  V30 18269 C 1698.78 1.5579 -0.774952 0
M  V30 18270 O 1699.96 1.70574 -1.07082 0
M  V30 18271 C 1697.03 2.74613 -2.11633 0
M  V30 18272 C 1696.09 2.68001 -3.35371 0
M  V30 18273 C 1695.32 3.96061 -3.57731 0
M  V30 18274 O 1695.54 4.95119 -2.83219 0
M  V30 18275 O 1694.48 3.98331 -4.51238 0
M  V30 18276 H 1698.3 1.14677 -2.81217 0
M  V30 18277 H 1695.89 0.502739 -1.40687 0
M  V30 18278 H 1697.77 3.54186 -2.2832 0
M  V30 18279 H 1696.44 2.99933 -1.21746 0
M  V30 18280 H 1695.35 1.86922 -3.24054 0
M  V30 18281 H 1696.68 2.47635 -4.25368 0
M  V30 18282 N 1698.34 1.46926 0.570122 0
M  V30 18283 C 1699.27 1.61311 1.68822 0
M  V30 18284 C 1700.25 0.462964 1.63678 0
M  V30 18285 O 1701.43 0.690745 1.815 0
M  V30 18286 C 1698.56 1.61499 3.07466 0
M  V30 18287 C 1697.52 2.7561 3.27449 0
M  V30 18288 C 1696.84 2.60865 4.66748 0
M  V30 18289 C 1698.14 4.17324 3.14067 0
M  V30 18290 H 1699.84 2.54909 1.5704 0
M  V30 18291 H 1697.38 1.22677 0.754077 0
M  V30 18292 H 1699.34 1.70155 3.8552 0
M  V30 18293 H 1698.06 0.64453 3.20177 0
M  V30 18294 H 1696.72 2.66444 2.51799 0
M  V30 18295 H 1696.37 1.61875 4.76241 0
M  V30 18296 H 1696.07 3.37411 4.81069 0
M  V30 18297 H 1697.59 2.7143 5.46954 0
M  V30 18298 H 1699 4.27534 3.81952 0
M  V30 18299 H 1697.4 4.94555 3.39905 0
M  V30 18300 H 1698.47 4.36596 2.10979 0
M  V30 18301 N 1699.82 -0.815801 1.34842 0
M  V30 18302 C 1701.06 -1.57474 1.27788 0
M  V30 18303 C 1701.39 -1.9362 -0.149956 0
M  V30 18304 O 1700.67 -1.60605 -1.0971 0
M  V30 18305 C 1700.95 -2.86952 2.17556 0
M  V30 18306 C 1700.81 -2.5734 3.68912 0
M  V30 18307 C 1702.12 -3.88582 2.0662 0
M  V30 18308 H 1699.24 -0.57135 0.465541 0
M  V30 18309 H 1701.89 -0.939271 1.6516 0
M  V30 18310 H 1700.04 -3.41182 1.85815 0
M  V30 18311 H 1701.71 -2.09365 4.11052 0
M  V30 18312 H 1699.95 -1.90674 3.89648 0
M  V30 18313 H 1700.62 -3.49702 4.27098 0
M  V30 18314 H 1703.1 -3.43726 2.34503 0
M  V30 18315 H 1701.97 -4.7697 2.71644 0
M  V30 18316 H 1702.23 -4.29564 1.04532 0
M  V30 18317 N 1701.29 -1.18689 -1.03686 0
M  V30 18318 C 1702.2 -0.932473 -2.15272 0
M  V30 18319 C 1703.22 0.104751 -1.73684 0
M  V30 18320 O 1704.4 -0.0780471 -2.01249 0
M  V30 18321 C 1701.46 -0.465807 -3.43557 0
M  V30 18322 C 1700.52 -1.57146 -3.99504 0
M  V30 18323 C 1699.75 -1.12696 -5.21666 0
M  V30 18324 O 1699.98 0.0127657 -5.70399 0
M  V30 18325 O 1698.91 -1.92627 -5.70244 0
M  V30 18326 H 1702.74 -1.86626 -2.39592 0
M  V30 18327 H 1700.32 -0.969029 -1.13711 0
M  V30 18328 H 1702.2 -0.213819 -4.20857 0
M  V30 18329 H 1700.88 0.43964 -3.20701 0
M  V30 18330 H 1699.79 -1.8775 -3.23575 0
M  V30 18331 H 1701.12 -2.45317 -4.26709 0
M  V30 18332 N 1702.77 1.22662 -0.989529 0
M  V30 18333 C 1703.72 2.24466 -0.536994 0
M  V30 18334 C 1704.69 1.60467 0.428907 0
M  V30 18335 O 1705.87 1.87846 0.334418 0
M  V30 18336 C 1703.01 3.44793 0.145526 0
M  V30 18337 C 1702.13 4.23318 -0.861716 0
M  V30 18338 C 1701.26 5.30979 -0.153062 0
M  V30 18339 C 1700.3 6.01221 -1.1489 0
M  V30 18340 N 1699.44 7.00533 -0.468782 0
M  V30 18341 H 1704.28 2.62539 -1.40987 0
M  V30 18342 H 1701.81 1.29035 -0.706291 0
M  V30 18343 H 1703.77 4.1345 0.558128 0
M  V30 18344 H 1702.4 3.07494 0.982213 0
M  V30 18345 H 1701.45 3.5399 -1.39266 0
M  V30 18346 H 1702.77 4.71753 -1.62019 0
M  V30 18347 H 1701.92 6.05874 0.316443 0
M  V30 18348 H 1700.66 4.8351 0.63794 0
M  V30 18349 H 1699.66 5.25111 -1.62907 0
M  V30 18350 H 1700.89 6.50779 -1.94072 0
M  V30 18351 H 1698.84 6.55301 0.302844 0
M  V30 18352 H 1698.75 7.46958 -1.16576 0
M  V30 18353 H 1700.02 7.79497 -0.0219686 0
M  V30 18354 N 1704.25 0.762308 1.37937 0
M  V30 18355 C 1705.18 0.156036 2.32978 0
M  V30 18356 C 1706.16 -0.693795 1.55308 0
M  V30 18357 O 1707.35 -0.633195 1.83587 0
M  V30 18358 C 1704.48 -0.731199 3.39515 0
M  V30 18359 C 1703.43 0.0165834 4.27997 0
M  V30 18360 C 1702.76 -0.989476 5.25465 0
M  V30 18361 C 1704.06 1.19009 5.08561 0
M  V30 18362 H 1705.75 0.949978 2.83929 0
M  V30 18363 H 1703.3 0.458269 1.36513 0
M  V30 18364 H 1705.25 -1.16507 4.04974 0
M  V30 18365 H 1703.97 -1.55756 2.87067 0
M  V30 18366 H 1702.63 0.431128 3.64056 0
M  V30 18367 H 1702.28 -1.81013 4.69301 0
M  V30 18368 H 1701.98 -0.493738 5.85522 0
M  V30 18369 H 1703.5 -1.42248 5.93799 0
M  V30 18370 H 1704.92 0.833336 5.67211 0
M  V30 18371 H 1703.31 1.61727 5.77896 0
M  V30 18372 H 1704.38 1.99879 4.41788 0
M  V30 18373 N 1705.73 -1.49049 0.51208 0
M  V30 18374 C 1706.98 -2.0208 -0.0284326 0
M  V30 18375 C 1707.3 -1.39303 -1.36454 0
M  V30 18376 O 1706.57 -0.552155 -1.87958 0
M  V30 18377 H 1705.15 -0.746878 -0.0134968 0
M  V30 18378 H 1707.81 -1.82954 0.671842 0
M  V30 18379 H 1706.9 -3.11739 -0.149966 0
M  V30 18380 N 1707.21 -0.246397 -1.55662 0
M  V30 18381 C 1708.48 0.42879 -1.90842 0
M  V30 18382 C 1708.86 1.75905 -1.16707 0
M  V30 18383 O 1708.21 2.26723 -0.284391 0
M  V30 18384 C 1708.42 0.597368 -3.4385 0
M  V30 18385 C 1709.77 0.893477 -4.15093 0
M  V30 18386 O 1710.79 0.683251 -3.49586 0
M  V30 18387 O 1709.65 1.2938 -5.30964 0
M  V30 18388 H 1706.75 0.230145 -0.794331 0
M  V30 18389 H 1709.29 -0.290426 -1.67196 0
M  V30 18390 H 1708.06 -0.339952 -3.8982 0
M  V30 18391 H 1707.69 1.36714 -3.73356 0
M  V30 18392 N 1708.68 1.57577 0.026722 0
M  V30 18393 C 1709.61 2.09748 1.02605 0
M  V30 18394 C 1710.59 1.00054 1.37562 0
M  V30 18395 O 1711.78 1.2759 1.46405 0
M  V30 18396 C 1708.91 2.57881 2.32626 0
M  V30 18397 C 1707.86 3.7186 2.11905 0
M  V30 18398 C 1707.19 4.06208 3.47706 0
M  V30 18399 C 1708.49 5.00198 1.50332 0
M  V30 18400 H 1710.18 2.93494 0.591753 0
M  V30 18401 H 1707.73 1.41188 0.283199 0
M  V30 18402 H 1709.68 2.93 3.02868 0
M  V30 18403 H 1708.41 1.71222 2.7812 0
M  V30 18404 H 1707.07 3.37094 1.44096 0
M  V30 18405 H 1706.71 3.16611 3.90853 0
M  V30 18406 H 1706.41 4.82982 3.34667 0
M  V30 18407 H 1707.94 4.43863 4.19306 0
M  V30 18408 H 1709.35 5.33259 2.10494 0
M  V30 18409 H 1707.75 5.81599 1.4786 0
M  V30 18410 H 1708.82 4.82623 0.469405 0
M  V30 18411 N 1710.16 -0.299034 1.54737 0
M  V30 18412 C 1711.09 -1.37358 1.88826 0
M  V30 18413 C 1712.07 -1.52802 0.747367 0
M  V30 18414 O 1713.26 -1.66277 1.00327 0
M  V30 18415 C 1710.39 -2.73746 2.13729 0
M  V30 18416 C 1709.34 -2.73065 3.29575 0
M  V30 18417 C 1708.67 -4.12761 3.39901 0
M  V30 18418 C 1709.97 -2.34631 4.66632 0
M  V30 18419 H 1711.66 -1.09077 2.78824 0
M  V30 18420 H 1709.21 -0.523276 1.34156 0
M  V30 18421 H 1711.16 -3.49006 2.36162 0
M  V30 18422 H 1709.88 -3.03556 1.20504 0
M  V30 18423 H 1708.54 -2.00261 3.07068 0
M  V30 18424 H 1708.19 -4.39751 2.44189 0
M  V30 18425 H 1707.89 -4.13205 4.17774 0
M  V30 18426 H 1709.42 -4.89797 3.64597 0
M  V30 18427 H 1710.83 -2.99608 4.88782 0
M  V30 18428 H 1709.23 -2.46285 5.47233 0
M  V30 18429 H 1710.3 -1.29759 4.67216 0
M  V30 18430 N 1711.64 -1.47227 -0.562322 0
M  V30 18431 C 1712.57 -1.55383 -1.6849 0
M  V30 18432 C 1713.58 -0.440437 -1.56729 0
M  V30 18433 O 1714.77 -0.709803 -1.63781 0
M  V30 18434 C 1711.87 -1.43723 -3.06915 0
M  V30 18435 C 1711.05 -2.69541 -3.4448 0
M  V30 18436 C 1710.11 -2.5179 -4.62048 0
M  V30 18437 O 1709.13 -3.25587 -4.66885 0
M  V30 18438 N 1710.33 -1.59282 -5.5822 0
M  V30 18439 H 1713.1 -2.52181 -1.61941 0
M  V30 18440 H 1710.66 -1.43541 -0.748832 0
M  V30 18441 H 1712.65 -1.2959 -3.83391 0
M  V30 18442 H 1711.22 -0.550272 -3.07719 0
M  V30 18443 H 1710.44 -2.98472 -2.57504 0
M  V30 18444 H 1711.73 -3.53079 -3.66351 0
M  V30 18445 H 1711.13 -0.984666 -5.57064 0
M  V30 18446 H 1709.68 -1.51103 -6.34043 0
M  V30 18447 N 1713.12 0.808639 -1.35273 0
M  V30 18448 C 1714.08 1.90195 -1.279 0
M  V30 18449 C 1715.08 1.59663 -0.190915 0
M  V30 18450 O 1716.27 1.68434 -0.444482 0
M  V30 18451 C 1713.4 3.26567 -0.978106 0
M  V30 18452 H 1714.6 1.98152 -2.25113 0
M  V30 18453 H 1712.15 1.00426 -1.19767 0
M  V30 18454 H 1712.88 3.24299 -0.00975789 0
M  V30 18455 H 1712.67 3.50114 -1.7653 0
M  V30 18456 H 1714.16 4.06602 -0.95207 0
M  V30 18457 N 1714.6 1.19237 1.03055 0
M  V30 18458 C 1715.54 0.925171 2.13409 0
M  V30 18459 C 1716.54 -0.118373 1.68986 0
M  V30 18460 O 1717.74 0.0307159 1.79974 0
M  V30 18461 H 1714.12 0.281769 0.697216 0
M  V30 18462 H 1716.09 1.86252 2.33137 0
M  V30 18463 C 1714.84 0.478529 3.44391 0
M  V30 18464 H 1714.16 1.27305 3.7899 0
M  V30 18465 H 1715.6 0.330661 4.22709 0
M  V30 18466 C 1714.06 -0.80715 3.27088 0
M  V30 18467 O 1714.59 -1.86897 3.55573 0
M  V30 18468 N 1712.8 -0.76373 2.80385 0
M  V30 18469 H 1712.34 0.100606 2.57403 0
M  V30 18470 H 1712.3 -1.62435 2.69188 0
M  V30 18471 N 1716.07 -1.22136 0.99602 0
M  V30 18472 C 1717.32 -1.9125 0.674632 0
M  V30 18473 C 1717.65 -1.77331 -0.791655 0
M  V30 18474 O 1716.93 -1.14419 -1.57285 0
M  V30 18475 C 1717.21 -3.43359 1.08521 0
M  V30 18476 C 1717.06 -3.66312 2.61028 0
M  V30 18477 C 1718.38 -4.3541 0.640795 0
M  V30 18478 H 1715.5 -0.694534 0.246559 0
M  V30 18479 H 1718.14 -1.4395 1.2401 0
M  V30 18480 H 1716.29 -3.83775 0.604071 0
M  V30 18481 H 1717.97 -3.3528 3.16836 0
M  V30 18482 H 1716.21 -3.10485 3.02954 0
M  V30 18483 H 1716.88 -4.72852 2.84807 0
M  V30 18484 H 1719.36 -4.02527 1.05411 0
M  V30 18485 H 1718.23 -5.40505 0.956337 0
M  V30 18486 H 1718.49 -4.39717 -0.458421 0
M  V30 18487 N 1717.55 -0.769612 -1.37531 0
M  V30 18488 C 1718.48 -0.11267 -2.28923 0
M  V30 18489 C 1719.5 0.666541 -1.4853 0
M  V30 18490 O 1720.69 0.504986 -1.71208 0
M  V30 18491 C 1717.79 0.864111 -3.27699 0
M  V30 18492 C 1716.96 0.139166 -4.37179 0
M  V30 18493 C 1716.02 1.029 -5.16041 0
M  V30 18494 O 1715.04 0.493571 -5.67056 0
M  V30 18495 N 1716.25 2.3555 -5.30562 0
M  V30 18496 H 1719.01 -0.897628 -2.85942 0
M  V30 18497 H 1716.57 -0.621776 -1.49484 0
M  V30 18498 H 1718.56 1.46279 -3.77339 0
M  V30 18499 H 1717.13 1.55005 -2.71463 0
M  V30 18500 H 1716.35 -0.640396 -3.88963 0
M  V30 18501 H 1717.64 -0.361847 -5.07512 0
M  V30 18502 H 1717.04 2.81489 -4.90694 0
M  V30 18503 H 1715.6 2.90429 -5.83519 0
M  V30 18504 N 1719.03 1.48775 -0.519977 0
M  V30 18505 C 1719.96 2.27418 0.285222 0
M  V30 18506 C 1720.98 1.34753 0.91354 0
M  V30 18507 O 1722.16 1.59885 0.793672 0
M  V30 18508 C 1719.26 3.07799 1.41821 0
M  V30 18509 C 1718.44 4.28173 0.893682 0
M  V30 18510 C 1717.5 4.90445 1.90658 0
M  V30 18511 O 1716.52 5.49957 1.46751 0
M  V30 18512 N 1717.72 4.8179 3.23819 0
M  V30 18513 H 1720.49 2.97162 -0.38921 0
M  V30 18514 H 1718.05 1.5799 -0.353684 0
M  V30 18515 H 1720.04 3.46329 2.09377 0
M  V30 18516 H 1718.61 2.4054 1.99648 0
M  V30 18517 H 1717.83 3.94177 0.0424379 0
M  V30 18518 H 1719.12 5.06116 0.521952 0
M  V30 18519 H 1718.52 4.34573 3.62164 0
M  V30 18520 H 1717.08 5.2445 3.87035 0
M  V30 18521 N 1720.51 0.254649 1.55529 0
M  V30 18522 C 1721.79 -0.418663 1.91067 0
M  V30 18523 C 1722.17 -1.75284 1.17638 0
M  V30 18524 O 1721.51 -2.26569 0.296411 0
M  V30 18525 C 1721.72 -0.579125 3.44162 0
M  V30 18526 C 1723.07 -0.871451 4.15561 0
M  V30 18527 O 1724.1 -0.664702 3.49943 0
M  V30 18528 O 1722.95 -1.26563 5.31643 0
M  V30 18529 H 1720.05 -0.22593 0.795541 0
M  V30 18530 H 1722.59 0.299288 1.6704 0
M  V30 18531 H 1721.37 0.36062 3.89635 0
M  V30 18532 H 1720.99 -1.34732 3.74076 0
M  V30 18533 N 1721.99 -1.57589 -0.0183649 0
M  V30 18534 C 1723.23 -1.89382 -0.705612 0
M  V30 18535 C 1723.56 -0.853698 -1.7532 0
M  V30 18536 O 1722.83 0.111322 -1.95583 0
M  V30 18537 H 1721.41 -0.698943 -0.263605 0
M  V30 18538 H 1724.07 -1.94891 0.0182168 0
M  V30 18539 H 1723.16 -2.88587 -1.18845 0
M  V30 18540 N 1723.46 0.290824 -1.54893 0
M  V30 18541 C 1724.41 1.35899 -1.86548 0
M  V30 18542 C 1725.38 1.49909 -0.71529 0
M  V30 18543 O 1726.57 1.64604 -0.964886 0
M  V30 18544 C 1723.71 2.71735 -2.1273 0
M  V30 18545 C 1722.82 2.66092 -3.40322 0
M  V30 18546 C 1721.95 3.93989 -3.56295 0
M  V30 18547 C 1720.99 3.82785 -4.77642 0
M  V30 18548 N 1720.13 5.02479 -4.90367 0
M  V30 18549 H 1724.97 1.08205 -2.77661 0
M  V30 18550 H 1722.51 0.523144 -1.37483 0
M  V30 18551 H 1724.47 3.50745 -2.25907 0
M  V30 18552 H 1723.1 2.97669 -1.24871 0
M  V30 18553 H 1722.15 1.78891 -3.35712 0
M  V30 18554 H 1723.46 2.53706 -4.29458 0
M  V30 18555 H 1722.61 4.81438 -3.69192 0
M  V30 18556 H 1721.35 4.09221 -2.6531 0
M  V30 18557 H 1720.36 2.9372 -4.64767 0
M  V30 18558 H 1721.58 3.69088 -5.70044 0
M  V30 18559 H 1719.53 5.18155 -4.02308 0
M  V30 18560 H 1719.45 4.92555 -5.7352 0
M  V30 18561 H 1720.71 5.9155 -5.07631 0
M  V30 18562 N 1724.94 1.47523 0.554506 0
M  V30 18563 C 1726.22 1.44768 1.31535 0
M  V30 18564 C 1726.6 0.146082 2.10594 0
M  V30 18565 O 1725.95 -0.872415 2.1119 0
M  V30 18566 C 1726.16 2.69489 2.21758 0
M  V30 18567 C 1727.51 3.16814 2.82691 0
M  V30 18568 O 1728.53 2.70235 2.32059 0
M  V30 18569 O 1727.39 3.97798 3.74725 0
M  V30 18570 H 1724.48 0.577042 0.592412 0
M  V30 18571 H 1727.03 1.59727 0.573186 0
M  V30 18572 H 1725.8 3.55753 1.62958 0
M  V30 18573 H 1725.42 2.5713 3.03266 0
M  V30 18574 N 1726.42 -0.801453 1.357 0
M  V30 18575 C 1727.65 -1.58771 1.32194 0
M  V30 18576 C 1728.06 -1.88927 -0.101529 0
M  V30 18577 O 1727.4 -1.49649 -1.0654 0
M  V30 18578 C 1727.46 -2.94186 2.06627 0
M  V30 18579 C 1727.13 -2.86819 3.55786 0
M  V30 18580 C 1728.12 -2.59898 4.50276 0
M  V30 18581 C 1725.81 -3.05775 3.98506 0
M  V30 18582 C 1727.8 -2.52017 5.85462 0
M  V30 18583 C 1725.49 -2.97516 5.33786 0
M  V30 18584 C 1726.49 -2.70673 6.27076 0
M  V30 18585 O 1726.18 -2.62387 7.59874 0
M  V30 18586 H 1725.91 -0.499518 0.455475 0
M  V30 18587 H 1728.46 -1.00358 1.79213 0
M  V30 18588 H 1726.69 -3.54602 1.54253 0
M  V30 18589 H 1728.38 -3.55368 1.96133 0
M  V30 18590 H 1729.15 -2.44968 4.18588 0
M  V30 18591 H 1725.03 -3.25678 3.26274 0
M  V30 18592 H 1728.57 -2.30985 6.58249 0
M  V30 18593 H 1724.47 -3.12006 5.65086 0
M  V30 18594 H 1725.24 -2.77957 7.69859 0
M  V30 18595 N 1727.9 -1.19782 -1.02421 0
M  V30 18596 C 1729.15 -0.997598 -1.75302 0
M  V30 18597 C 1729.46 0.471843 -1.89824 0
M  V30 18598 O 1730.67 0.790999 -2.59722 0
M  V30 18599 C 1729.12 -1.73608 -3.15259 0
M  V30 18600 C 1728.73 -3.24594 -3.08776 0
M  V30 18601 C 1730.47 -1.61927 -3.92403 0
M  V30 18602 C 1728.38 -3.91012 -4.43693 0
M  V30 18603 H 1727.31 -0.369643 -0.657176 0
M  V30 18604 H 1729.96 -1.43325 -1.14587 0
M  V30 18605 H 1728.34 -1.22826 -3.7647 0
M  V30 18606 H 1729.52 -3.82531 -2.56918 0
M  V30 18607 H 1727.83 -3.36603 -2.45127 0
M  V30 18608 H 1730.43 -2.08896 -4.92206 0
M  V30 18609 H 1730.77 -0.574192 -4.12321 0
M  V30 18610 H 1731.31 -2.10081 -3.37803 0
M  V30 18611 H 1728.05 -4.95639 -4.28979 0
M  V30 18612 H 1727.57 -3.37864 -4.95588 0
M  V30 18613 H 1729.24 -3.94828 -5.12562 0
M  V30 18614 N 1729.38 1.21606 -1.00248 0
M  V30 18615 C 1730.79 1.72365 -0.717446 0
M  V30 18616 C 1731.14 1.80668 0.765078 0
M  V30 18617 O 1730.26 1.45951 1.59772 0
M  V30 18618 C 1730.86 3.13046 -1.29567 0
M  V30 18619 C 1729.42 3.61172 -1.05981 0
M  V30 18620 C 1728.57 2.38775 -1.41003 0
M  V30 18621 H 1731.52 1.06818 -1.17369 0
M  V30 18622 H 1731.54 3.74392 -0.679054 0
M  V30 18623 H 1731.05 3.0697 -2.37467 0
M  V30 18624 H 1729.15 3.726 0.00214307 0
M  V30 18625 H 1729.26 4.46778 -1.72993 0
M  V30 18626 H 1727.63 2.40839 -0.82877 0
M  V30 18627 H 1728.41 2.35352 -2.49928 0
M  V30 18628 N 1730.86 0.776895 1.37121 0
M  V30 18629 C 1732.1 0.340209 1.9881 0
M  V30 18630 C 1732.42 -1.09071 1.62367 0
M  V30 18631 O 1733.62 -1.62904 2.17197 0
M  V30 18632 C 1732.08 0.557325 3.55559 0
M  V30 18633 C 1731.69 1.99884 4.00937 0
M  V30 18634 C 1733.43 0.184519 4.24099 0
M  V30 18635 C 1731.34 2.16328 5.50415 0
M  V30 18636 H 1730.27 0.12346 0.743824 0
M  V30 18637 H 1732.92 0.956754 1.56584 0
M  V30 18638 H 1731.3 -0.128752 3.95791 0
M  V30 18639 H 1732.48 2.72029 3.71937 0
M  V30 18640 H 1730.79 2.32872 3.45195 0
M  V30 18641 H 1733.39 0.285827 5.33935 0
M  V30 18642 H 1733.73 -0.865859 4.07196 0
M  V30 18643 H 1734.26 0.823343 3.89186 0
M  V30 18644 H 1731 3.19703 5.7225 0
M  V30 18645 H 1730.52 1.48673 5.81082 0
M  V30 18646 H 1732.2 1.96437 6.16459 0
M  V30 18647 N 1732.33 -1.48497 0.527859 0
M  V30 18648 C 1733.28 -2.31258 -0.249477 0
M  V30 18649 C 1734.28 -1.41094 -0.93749 0
M  V30 18650 O 1735.48 -1.58011 -0.862117 0
M  V30 18651 H 1731.86 -0.745412 -0.0993208 0
M  V30 18652 H 1733.83 -2.94705 0.46815 0
M  V30 18653 C 1732.58 -3.23095 -1.28472 0
M  V30 18654 H 1731.9 -3.92418 -0.764724 0
M  V30 18655 H 1733.34 -3.83892 -1.80008 0
M  V30 18656 C 1731.8 -2.44554 -2.31722 0
M  V30 18657 O 1732.33 -2.16883 -3.38119 0
M  V30 18658 N 1730.53 -2.06088 -2.04881 0
M  V30 18659 H 1730.08 -2.28791 -1.18374 0
M  V30 18660 H 1730.04 -1.53849 -2.74186 0
M  V30 18661 N 1733.81 -0.262893 -1.55392 0
M  V30 18662 C 1734.77 0.616662 -2.20749 0
M  V30 18663 C 1735.77 1.09066 -1.18158 0
M  V30 18664 O 1736.96 0.992797 -1.4314 0
M  V30 18665 C 1734.1 1.84937 -2.86376 0
M  V30 18666 H 1735.29 0.0462013 -2.99864 0
M  V30 18667 H 1732.84 -0.013432 -1.56294 0
M  V30 18668 H 1733.58 2.46066 -2.1124 0
M  V30 18669 H 1733.36 1.51754 -3.61543 0
M  V30 18670 H 1734.85 2.47511 -3.36345 0
M  V30 18671 N 1735.29 1.57597 0.0100073 0
M  V30 18672 C 1736.54 1.89308 0.696075 0
M  V30 18673 C 1736.85 0.863884 1.75489 0
M  V30 18674 O 1738.06 1.07087 2.49489 0
M  V30 18675 C 1736.51 3.36017 1.2892 0
M  V30 18676 C 1736.12 4.47211 0.265731 0
M  V30 18677 C 1737.87 3.76852 1.95404 0
M  V30 18678 C 1735.77 5.84991 0.868277 0
M  V30 18679 H 1734.7 0.706368 0.263744 0
M  V30 18680 H 1737.35 1.83435 -0.0488972 0
M  V30 18681 H 1735.74 3.36696 2.08451 0
M  V30 18682 H 1736.91 4.58033 -0.504256 0
M  V30 18683 H 1735.22 4.15332 -0.298096 0
M  V30 18684 H 1737.82 4.77121 2.41371 0
M  V30 18685 H 1738.16 3.09841 2.78036 0
M  V30 18686 H 1738.7 3.7843 1.22621 0
M  V30 18687 H 1735.44 6.5545 0.0809513 0
M  V30 18688 H 1734.96 5.77853 1.60766 0
M  V30 18689 H 1736.64 6.32331 1.36993 0
M  V30 18690 N 1736.77 -0.282606 1.55045 0
M  V30 18691 C 1737.7 -1.35347 1.90272 0
M  V30 18692 C 1738.68 -1.52001 0.763532 0
M  V30 18693 O 1739.86 -1.65204 1.02085 0
M  V30 18694 C 1736.99 -2.71464 2.16621 0
M  V30 18695 C 1735.95 -2.69554 3.32453 0
M  V30 18696 C 1735.27 -4.09132 3.4426 0
M  V30 18697 C 1736.57 -2.29669 4.69094 0
M  V30 18698 H 1738.27 -1.06113 2.79965 0
M  V30 18699 H 1735.81 -0.509018 1.34703 0
M  V30 18700 H 1737.77 -3.46482 2.39851 0
M  V30 18701 H 1736.49 -3.02261 1.23717 0
M  V30 18702 H 1735.15 -1.96993 3.09175 0
M  V30 18703 H 1734.8 -4.37136 2.4884 0
M  V30 18704 H 1734.5 -4.08751 4.22133 0
M  V30 18705 H 1736.02 -4.85903 3.69771 0
M  V30 18706 H 1737.44 -2.94407 4.91932 0
M  V30 18707 H 1735.83 -2.40467 5.49814 0
M  V30 18708 H 1736.9 -1.24796 4.68566 0
M  V30 18709 N 1738.25 -1.47815 -0.546675 0
M  V30 18710 C 1739.47 -1.58613 -1.32851 0
M  V30 18711 C 1739.89 -0.240179 -1.87266 0
M  V30 18712 O 1739.25 0.768148 -1.65547 0
M  V30 18713 C 1739.3 -2.61969 -2.49107 0
M  V30 18714 O 1739.02 -3.9134 -1.96938 0
M  V30 18715 C 1740.52 -2.83051 -3.4117 0
M  V30 18716 H 1737.74 -0.535292 -0.404603 0
M  V30 18717 H 1740.28 -1.93516 -0.661192 0
M  V30 18718 H 1738.44 -2.29971 -3.11756 0
M  V30 18719 H 1738.85 -4.47905 -2.72913 0
M  V30 18720 H 1740.33 -3.59209 -4.19134 0
M  V30 18721 H 1740.8 -1.91258 -3.95369 0
M  V30 18722 H 1741.41 -3.16287 -2.84328 0
M  V30 18723 N 1739.72 0.794246 -1.36123 0
M  V30 18724 C 1740.97 1.54885 -1.29827 0
M  V30 18725 C 1741.29 1.94608 0.123517 0
M  V30 18726 O 1740.56 1.6457 1.06272 0
M  V30 18727 H 1739.14 0.574398 -0.477573 0
M  V30 18728 H 1741.8 0.946658 -1.70365 0
M  V30 18729 H 1740.9 2.45863 -1.92244 0
M  V30 18730 N 1741.2 1.20323 1.01785 0
M  V30 18731 C 1742.15 0.947754 2.12416 0
M  V30 18732 C 1743.14 -0.100443 1.69102 0
M  V30 18733 O 1744.35 0.0498028 1.79931 0
M  V30 18734 H 1740.72 0.289148 0.694188 0
M  V30 18735 H 1742.7 1.88714 2.31149 0
M  V30 18736 C 1741.44 0.51503 3.43864 0
M  V30 18737 H 1740.77 1.31318 3.77618 0
M  V30 18738 H 1742.21 0.375476 4.22334 0
M  V30 18739 C 1740.67 -0.772413 3.27926 0
M  V30 18740 O 1741.2 -1.83115 3.57536 0
M  V30 18741 N 1739.4 -0.733948 2.81179 0
M  V30 18742 H 1738.95 0.127902 2.57282 0
M  V30 18743 H 1738.91 -1.59571 2.70896 0
M  V30 18744 N 1742.68 -1.21073 1.00892 0
M  V30 18745 C 1743.9 -1.94774 0.712588 0
M  V30 18746 C 1744.33 -1.73812 -0.719085 0
M  V30 18747 O 1743.69 -1.02747 -1.49374 0
M  V30 18748 C 1743.74 -3.45156 1.04402 0
M  V30 18749 O 1742.84 -4.12122 0.151433 0
M  V30 18750 H 1742.18 -0.608775 0.26512 0
M  V30 18751 H 1744.71 -1.53721 1.35022 0
M  V30 18752 H 1744.72 -3.95744 0.992511 0
M  V30 18753 H 1743.4 -3.59736 2.08716 0
M  V30 18754 H 1741.97 -3.71994 0.259805 0
M  V30 18755 N 1744.16 -0.784156 -1.36707 0
M  V30 18756 C 1745.41 -0.353434 -1.98986 0
M  V30 18757 C 1745.73 1.07714 -1.62551 0
M  V30 18758 O 1745 1.7416 -0.896938 0
M  V30 18759 H 1743.58 -0.127693 -0.736005 0
M  V30 18760 H 1746.24 -1.00503 -1.66988 0
M  V30 18761 H 1745.34 -0.441028 -3.08968 0
M  V30 18762 N 1745.64 1.48215 -0.535727 0
M  V30 18763 C 1746.88 2.025 -0.00372753 0
M  V30 18764 C 1747.21 1.41227 1.33735 0
M  V30 18765 O 1746.47 0.549544 1.87826 0
M  V30 18766 C 1746.77 3.57036 0.161344 0
M  V30 18767 C 1746.43 4.37122 -1.10611 0
M  V30 18768 C 1745.09 4.58724 -1.45346 0
M  V30 18769 C 1747.45 4.83469 -1.94698 0
M  V30 18770 C 1744.77 5.2392 -2.64055 0
M  V30 18771 C 1747.13 5.49973 -3.1259 0
M  V30 18772 C 1745.79 5.69812 -3.47664 0
M  V30 18773 H 1745.06 0.740999 -0.001364 0
M  V30 18774 H 1747.71 1.78133 -0.70291 0
M  V30 18775 H 1746.01 3.80274 0.943337 0
M  V30 18776 H 1747.71 3.96666 0.587981 0
M  V30 18777 H 1744.3 4.20573 -0.825608 0
M  V30 18778 H 1748.48 4.66577 -1.69173 0
M  V30 18779 H 1743.74 5.37477 -2.91424 0
M  V30 18780 H 1747.91 5.84852 -3.78049 0
M  V30 18781 H 1745.54 6.20103 -4.39746 0
M  V30 18782 N 1747.11 0.27113 1.5525 0
M  V30 18783 C 1748.34 -0.350248 2.03914 0
M  V30 18784 C 1748.76 -1.49763 1.14963 0
M  V30 18785 O 1748.11 -1.81717 0.168923 0
M  V30 18786 C 1748.17 -0.835056 3.51723 0
M  V30 18787 O 1747.89 0.266625 4.37288 0
M  V30 18788 C 1749.39 -1.52466 4.16256 0
M  V30 18789 H 1746.61 -0.0803955 0.666166 0
M  V30 18790 H 1749.15 0.402063 2.00509 0
M  V30 18791 H 1747.31 -1.53747 3.55585 0
M  V30 18792 H 1747.72 -0.105433 5.24394 0
M  V30 18793 H 1749.19 -1.81534 5.21296 0
M  V30 18794 H 1749.67 -2.45485 3.64189 0
M  V30 18795 H 1750.28 -0.8662 4.16386 0
M  V30 18796 N 1748.59 -1.576 -0.00164943 0
M  V30 18797 C 1749.82 -1.94493 -0.69686 0
M  V30 18798 C 1750.23 -0.871587 -1.67929 0
M  V30 18799 O 1749.57 0.158245 -1.83017 0
M  V30 18800 C 1749.64 -3.27363 -1.48572 0
M  V30 18801 C 1749.3 -4.52135 -0.665063 0
M  V30 18802 C 1750.3 -5.19879 0.0465481 0
M  V30 18803 C 1747.98 -4.98564 -0.611519 0
M  V30 18804 C 1749.98 -6.32351 0.800706 0
M  V30 18805 C 1747.66 -6.10925 0.146365 0
M  V30 18806 C 1748.66 -6.77675 0.851213 0
M  V30 18807 O 1748.35 -7.87883 1.59674 0
M  V30 18808 H 1748.08 -0.645998 -0.199156 0
M  V30 18809 H 1750.63 -2.05351 0.0450887 0
M  V30 18810 H 1748.86 -3.12909 -2.27211 0
M  V30 18811 H 1750.55 -3.4938 -2.06611 0
M  V30 18812 H 1751.32 -4.84998 0.014324 0
M  V30 18813 H 1747.2 -4.46434 -1.14967 0
M  V30 18814 H 1750.74 -6.84385 1.3514 0
M  V30 18815 H 1746.64 -6.45248 0.180416 0
M  V30 18816 H 1747.41 -8.04389 1.51327 0
M  V30 18817 N 1750.07 0.274379 -1.55193 0
M  V30 18818 C 1751.3 1.02871 -1.8009 0
M  V30 18819 C 1751.72 1.79202 -0.571676 0
M  V30 18820 O 1751.08 1.74867 0.478679 0
M  V30 18821 C 1751.13 1.96406 -3.02418 0
M  V30 18822 O 1750.23 3.05154 -2.77408 0
M  V30 18823 H 1749.57 0.294181 -0.595276 0
M  V30 18824 H 1752.1 0.303708 -2.02333 0
M  V30 18825 H 1752.11 2.38385 -3.31114 0
M  V30 18826 H 1750.79 1.40261 -3.91535 0
M  V30 18827 H 1749.36 2.675 -2.59805 0
M  V30 18828 N 1751.55 1.48103 0.538828 0
M  V30 18829 C 1752.78 1.59316 1.32008 0
M  V30 18830 C 1753.19 0.250107 1.87136 0
M  V30 18831 O 1752.55 -0.759358 1.65952 0
M  V30 18832 C 1752.6 2.63287 2.47714 0
M  V30 18833 O 1752.32 3.92379 1.9486 0
M  V30 18834 C 1753.82 2.84856 3.39664 0
M  V30 18835 H 1751.04 0.53743 0.401758 0
M  V30 18836 H 1753.59 1.93864 0.65092 0
M  V30 18837 H 1751.74 2.31621 3.10532 0
M  V30 18838 H 1752.15 4.49346 2.70534 0
M  V30 18839 H 1753.63 3.61426 4.17223 0
M  V30 18840 H 1754.11 1.93352 3.9435 0
M  V30 18841 H 1754.71 3.17791 2.82647 0
M  V30 18842 N 1753.03 -0.787016 1.36542 0
M  V30 18843 C 1754.44 -1.36234 1.2766 0
M  V30 18844 C 1754.79 -1.96026 -0.0825391 0
M  V30 18845 O 1753.91 -1.92731 -0.984059 0
M  V30 18846 C 1754.51 -2.47684 2.31167 0
M  V30 18847 C 1753.07 -3.01026 2.25966 0
M  V30 18848 C 1752.21 -1.74122 2.15816 0
M  V30 18849 H 1755.17 -0.58847 1.47386 0
M  V30 18850 H 1755.19 -3.26765 1.94949 0
M  V30 18851 H 1754.7 -2.04136 3.30076 0
M  V30 18852 H 1752.8 -3.48988 1.30531 0
M  V30 18853 H 1752.91 -3.57677 3.18754 0
M  V30 18854 H 1751.28 -1.9645 1.6211 0
M  V30 18855 H 1752.06 -1.32699 3.16616 0
M  V30 18856 N 1754.5 -1.20861 -1.01145 0
M  V30 18857 C 1755.47 -0.963742 -2.07954 0
M  V30 18858 C 1756.47 0.0627362 -1.60678 0
M  V30 18859 O 1757.66 -0.173867 -1.7333 0
M  V30 18860 C 1754.79 -0.451977 -3.3789 0
M  V30 18861 H 1755.98 -1.91123 -2.3111 0
M  V30 18862 H 1753.54 -1.0247 -1.18024 0
M  V30 18863 H 1754.27 0.500735 -3.20411 0
M  V30 18864 H 1754.06 -1.19231 -3.73532 0
M  V30 18865 H 1755.55 -0.300308 -4.16519 0
M  V30 18866 N 1755.98 1.20536 -1.01532 0
M  V30 18867 C 1757.23 1.89871 -0.70393 0
M  V30 18868 C 1757.56 1.78768 0.76631 0
M  V30 18869 O 1756.81 1.1653 1.57224 0
M  V30 18870 C 1757.11 3.40578 -1.08358 0
M  V30 18871 C 1756.78 3.71881 -2.54981 0
M  V30 18872 C 1755.44 3.80135 -2.95044 0
M  V30 18873 C 1757.79 3.86282 -3.49909 0
M  V30 18874 C 1755.12 4.00246 -4.28976 0
M  V30 18875 C 1757.47 4.07902 -4.83527 0
M  V30 18876 C 1756.14 4.14385 -5.23298 0
M  V30 18877 H 1755.41 0.694788 -0.257586 0
M  V30 18878 H 1758.05 1.42825 -1.27567 0
M  V30 18879 H 1756.36 3.89431 -0.430234 0
M  V30 18880 H 1758.05 3.92519 -0.820353 0
M  V30 18881 H 1754.64 3.66055 -2.22938 0
M  V30 18882 H 1758.83 3.79261 -3.20117 0
M  V30 18883 H 1754.08 4.03499 -4.59345 0
M  V30 18884 H 1758.26 4.17987 -5.5701 0
M  V30 18885 H 1755.89 4.29721 -6.27092 0
M  V30 18886 N 1757.46 0.791395 1.36289 0
M  V30 18887 C 1758.69 0.375566 2.03971 0
M  V30 18888 C 1759.11 -1.00061 1.59277 0
M  V30 18889 O 1758.47 -1.64501 0.762182 0
M  V30 18890 C 1758.52 0.449891 3.57783 0
M  V30 18891 O 1757.62 -0.54243 4.08817 0
M  V30 18892 H 1756.96 0.159181 0.644637 0
M  V30 18893 H 1759.49 1.07306 1.74203 0
M  V30 18894 H 1759.5 0.314206 4.06788 0
M  V30 18895 H 1758.18 1.45377 3.89665 0
M  V30 18896 H 1756.75 -0.368243 3.71077 0
M  V30 18897 N 1758.94 -1.47929 0.54358 0
M  V30 18898 C 1759.85 -2.33611 -0.215191 0
M  V30 18899 C 1760.87 -1.47343 -0.925526 0
M  V30 18900 O 1762.04 -1.80299 -0.897459 0
M  V30 18901 C 1759.11 -3.23755 -1.24031 0
M  V30 18902 C 1758.17 -4.25904 -0.538874 0
M  V30 18903 C 1757.4 -5.11741 -1.51516 0
M  V30 18904 O 1757.62 -4.9979 -2.74893 0
M  V30 18905 O 1756.56 -5.92722 -1.0471 0
M  V30 18906 H 1760.38 -2.99765 0.487279 0
M  V30 18907 H 1757.97 -1.46267 0.30434 0
M  V30 18908 H 1759.85 -3.79475 -1.8324 0
M  V30 18909 H 1758.53 -2.60245 -1.92495 0
M  V30 18910 H 1757.43 -3.73982 0.0940539 0
M  V30 18911 H 1758.77 -4.9209 0.104063 0
M  V30 18912 N 1760.42 -0.27936 -1.55104 0
M  V30 18913 C 1761.69 0.388213 -1.91709 0
M  V30 18914 C 1762.07 1.7339 -1.20412 0
M  V30 18915 O 1761.42 2.26069 -0.332419 0
M  V30 18916 C 1761.63 0.524298 -3.45039 0
M  V30 18917 C 1762.98 0.805229 -4.16895 0
M  V30 18918 O 1764 0.608944 -3.50956 0
M  V30 18919 O 1762.86 1.18089 -5.33589 0
M  V30 18920 H 1759.96 0.213245 -0.799034 0
M  V30 18921 H 1762.5 -0.325825 -1.66543 0
M  V30 18922 H 1761.28 -0.422562 -3.89012 0
M  V30 18923 H 1760.9 1.28764 -3.76172 0
M  V30 18924 N 1761.9 1.57599 -0.0067085 0
M  V30 18925 C 1763.14 1.90858 0.67673 0
M  V30 18926 C 1763.47 0.880956 1.73405 0
M  V30 18927 O 1762.73 -0.113339 1.95372 0
M  V30 18928 C 1763.02 3.30868 1.35133 0
M  V30 18929 C 1762.69 4.48878 0.426559 0
M  V30 18930 C 1761.35 4.80893 0.17196 0
M  V30 18931 C 1763.7 5.20778 -0.209761 0
M  V30 18932 C 1761.03 5.82177 -0.727139 0
M  V30 18933 C 1763.38 6.2302 -1.09678 0
M  V30 18934 C 1762.05 6.53488 -1.36049 0
M  V30 18935 H 1761.32 0.698397 0.247633 0
M  V30 18936 H 1763.97 1.91394 -0.0636748 0
M  V30 18937 H 1762.27 3.26487 2.16594 0
M  V30 18938 H 1763.97 3.53864 1.8863 0
M  V30 18939 H 1760.56 4.23867 0.635166 0
M  V30 18940 H 1764.74 4.96293 -0.0260888 0
M  V30 18941 H 1760 6.0414 -0.939389 0
M  V30 18942 H 1764.17 6.77861 -1.59616 0
M  V30 18943 H 1761.8 7.31789 -2.05886 0
M  V30 18944 N 1763.37 -0.266145 1.55336 0
M  V30 18945 C 1764.62 -0.996831 1.76265 0
M  V30 18946 C 1764.95 -1.86035 0.567553 0
M  V30 18947 O 1764.2 -1.90462 -0.449754 0
M  V30 18948 C 1764.5 -1.90357 3.02488 0
M  V30 18949 C 1764.17 -1.19699 4.34722 0
M  V30 18950 C 1762.83 -1.00164 4.7066 0
M  V30 18951 C 1765.18 -0.694703 5.16549 0
M  V30 18952 C 1762.51 -0.291394 5.85976 0
M  V30 18953 C 1764.86 0.00198006 6.326 0
M  V30 18954 C 1763.53 0.20898 6.67173 0
M  V30 18955 H 1762.8 -0.364766 0.645001 0
M  V30 18956 H 1765.44 -0.268528 1.89608 0
M  V30 18957 H 1763.75 -2.69831 2.84075 0
M  V30 18958 H 1765.45 -2.47026 3.15878 0
M  V30 18959 H 1762.04 -1.35916 4.06479 0
M  V30 18960 H 1766.22 -0.833229 4.89256 0
M  V30 18961 H 1761.48 -0.120359 6.11282 0
M  V30 18962 H 1765.65 0.398909 6.95257 0
M  V30 18963 H 1763.28 0.761301 7.56378 0
M  V30 18964 N 1764.85 -1.48386 -0.530967 0
M  V30 18965 C 1765.8 -1.62835 -1.63564 0
M  V30 18966 C 1766.77 -0.470453 -1.59298 0
M  V30 18967 O 1767.95 -0.693813 -1.77738 0
M  V30 18968 C 1765.09 -1.67314 -3.01828 0
M  V30 18969 C 1764.21 -2.94204 -3.16335 0
M  V30 18970 C 1763.34 -2.8985 -4.45152 0
M  V30 18971 C 1762.38 -4.11449 -4.53185 0
M  V30 18972 N 1761.52 -4.05178 -5.7339 0
M  V30 18973 H 1766.36 -2.57172 -1.50554 0
M  V30 18974 H 1763.89 -1.27537 -0.732991 0
M  V30 18975 H 1765.85 -1.67892 -3.81927 0
M  V30 18976 H 1764.48 -0.764688 -3.13612 0
M  V30 18977 H 1763.53 -3.03375 -2.29495 0
M  V30 18978 H 1764.85 -3.84179 -3.18132 0
M  V30 18979 H 1764 -2.88824 -5.33541 0
M  V30 18980 H 1762.74 -1.97602 -4.45875 0
M  V30 18981 H 1761.74 -4.12751 -3.63203 0
M  V30 18982 H 1762.97 -5.04855 -4.54201 0
M  V30 18983 H 1760.92 -3.15749 -5.75012 0
M  V30 18984 H 1760.83 -4.88857 -5.76676 0
M  V30 18985 H 1762.1 -4.08209 -6.64067 0
M  V30 18986 N 1766.33 0.779763 -1.36958 0
M  V30 18987 C 1767.24 1.92394 -1.34245 0
M  V30 18988 C 1768.26 1.72292 -0.243187 0
M  V30 18989 O 1769.43 1.95665 -0.477211 0
M  V30 18990 C 1766.5 3.27402 -1.14057 0
M  V30 18991 C 1765.56 3.60213 -2.33548 0
M  V30 18992 C 1764.79 4.88779 -2.14314 0
M  V30 18993 O 1765.01 5.59231 -1.12327 0
M  V30 18994 O 1763.95 5.20469 -3.02316 0
M  V30 18995 H 1767.77 1.97633 -2.30596 0
M  V30 18996 H 1765.36 0.921386 -1.17605 0
M  V30 18997 H 1767.24 4.08172 -1.04755 0
M  V30 18998 H 1765.92 3.23033 -0.207744 0
M  V30 18999 H 1764.82 2.7971 -2.48421 0
M  V30 19000 H 1766.16 3.69317 -3.25371 0
M  V30 19001 N 1767.81 1.21396 1.00503 0
M  V30 19002 C 1769.03 1.05791 1.7839 0
M  V30 19003 C 1769.46 -0.387921 1.84056 0
M  V30 19004 O 1768.82 -1.27983 1.28413 0
M  V30 19005 C 1768.86 1.65967 3.20137 0
M  V30 19006 O 1767.97 0.905123 4.02345 0
M  V30 19007 H 1767.31 0.372331 0.549787 0
M  V30 19008 H 1769.84 1.60938 1.26334 0
M  V30 19009 H 1769.85 1.70186 3.70811 0
M  V30 19010 H 1768.52 2.71185 3.15327 0
M  V30 19011 H 1767.1 0.938019 3.60909 0
M  V30 19012 N 1769.29 -1.19996 1.0217 0
M  V30 19013 C 1770.53 -1.88818 0.709281 0
M  V30 19014 C 1770.85 -1.80032 -0.764702 0
M  V30 19015 O 1772.05 -2.44037 -1.18988 0
M  V30 19016 C 1770.51 -3.38652 1.2183 0
M  V30 19017 C 1770.12 -3.56012 2.71955 0
M  V30 19018 C 1771.86 -4.12996 0.981542 0
M  V30 19019 C 1769.77 -4.997 3.16313 0
M  V30 19020 H 1768.7 -0.70716 0.261613 0
M  V30 19021 H 1771.35 -1.35715 1.23506 0
M  V30 19022 H 1769.73 -3.91109 0.620478 0
M  V30 19023 H 1770.91 -3.13918 3.37331 0
M  V30 19024 H 1769.22 -2.95046 2.93831 0
M  V30 19025 H 1771.82 -5.18948 1.28831 0
M  V30 19026 H 1772.16 -4.1622 -0.0818616 0
M  V30 19027 H 1772.69 -3.66656 1.543 0
M  V30 19028 H 1769.43 -5.01635 4.21951 0
M  V30 19029 H 1768.95 -5.42585 2.5566 0
M  V30 19030 H 1770.63 -5.68312 3.09242 0
M  V30 19031 N 1770.76 -0.798611 -1.35867 0
M  V30 19032 C 1771.99 -0.386378 -2.03769 0
M  V30 19033 C 1772.41 0.992154 -1.59806 0
M  V30 19034 O 1771.77 1.64094 -0.770895 0
M  V30 19035 C 1771.82 -0.468859 -3.57539 0
M  V30 19036 O 1770.92 0.520742 -4.09099 0
M  V30 19037 H 1770.26 -0.162597 -0.643784 0
M  V30 19038 H 1772.79 -1.08228 -1.73631 0
M  V30 19039 H 1772.8 -0.335775 -4.06616 0
M  V30 19040 H 1771.48 -1.47441 -3.88888 0
M  V30 19041 H 1770.06 0.348559 -3.71267 0
M  V30 19042 N 1772.24 1.47639 -0.551417 0
M  V30 19043 C 1773.2 2.28419 0.188996 0
M  V30 19044 C 1774.2 1.36617 0.84808 0
M  V30 19045 O 1775.39 1.59304 0.704831 0
M  V30 19046 C 1772.53 3.16131 1.27571 0
M  V30 19047 H 1773.72 2.95348 -0.520518 0
M  V30 19048 H 1771.27 1.53232 -0.308141 0
M  V30 19049 H 1772.01 2.5388 2.0178 0
M  V30 19050 H 1771.79 3.83685 0.807984 0
M  V30 19051 H 1773.28 3.77011 1.79591 0
M  V30 19052 N 1773.72 0.287581 1.54954 0
M  V30 19053 C 1775.13 -0.207733 1.85541 0
M  V30 19054 C 1775.48 -1.54478 1.20959 0
M  V30 19055 O 1774.61 -2.10487 0.502399 0
M  V30 19056 C 1775.2 -0.383701 3.3662 0
M  V30 19057 C 1773.76 -0.82324 3.67287 0
M  V30 19058 C 1772.91 0.0762579 2.77195 0
M  V30 19059 H 1775.86 0.509004 1.50316 0
M  V30 19060 H 1775.88 -1.22036 3.60399 0
M  V30 19061 H 1775.39 0.589575 3.83596 0
M  V30 19062 H 1773.49 -1.80754 3.2582 0
M  V30 19063 H 1773.61 -0.651925 4.74644 0
M  V30 19064 H 1771.97 -0.44219 2.50832 0
M  V30 19065 H 1772.75 1.04564 3.26988 0
M  V30 19066 N 1775.2 -1.57593 0.0150662 0
M  V30 19067 C 1776.15 -2.0936 -0.971443 0
M  V30 19068 C 1777.12 -0.992416 -1.33193 0
M  V30 19069 O 1778.3 -1.26577 -1.42769 0
M  V30 19070 C 1775.44 -2.61386 -2.25324 0
M  V30 19071 C 1774.55 -3.85462 -1.95046 0
M  V30 19072 C 1773.69 -4.25934 -3.17418 0
M  V30 19073 C 1772.73 -5.42805 -2.82894 0
M  V30 19074 N 1771.86 -5.78499 -3.97848 0
M  V30 19075 H 1776.7 -2.93373 -0.523068 0
M  V30 19076 H 1774.24 -1.45018 -0.246605 0
M  V30 19077 H 1776.2 -2.89635 -3.00279 0
M  V30 19078 H 1774.83 -1.80225 -2.67804 0
M  V30 19079 H 1773.88 -3.64029 -1.10394 0
M  V30 19080 H 1775.19 -4.70505 -1.6561 0
M  V30 19081 H 1774.35 -4.55544 -4.00705 0
M  V30 19082 H 1773.09 -3.3963 -3.50004 0
M  V30 19083 H 1772.09 -5.12903 -1.98016 0
M  V30 19084 H 1773.32 -6.30797 -2.51539 0
M  V30 19085 H 1771.26 -4.95152 -4.30303 0
M  V30 19086 H 1771.18 -6.5815 -3.71988 0
M  V30 19087 H 1772.45 -6.12708 -4.8188 0
M  V30 19088 N 1776.68 0.257904 -1.55475 0
M  V30 19089 C 1777.92 0.98747 -1.76792 0
M  V30 19090 C 1778.25 1.85732 -0.577411 0
M  V30 19091 O 1777.51 1.90698 0.439647 0
M  V30 19092 C 1777.81 1.8875 -3.03494 0
M  V30 19093 C 1777.47 1.17391 -4.35351 0
M  V30 19094 C 1776.13 0.976662 -4.71184 0
M  V30 19095 C 1778.49 0.667299 -5.16911 0
M  V30 19096 C 1775.81 0.260314 -5.86122 0
M  V30 19097 C 1778.17 -0.0355283 -6.3259 0
M  V30 19098 C 1776.83 -0.244359 -6.67053 0
M  V30 19099 H 1776.1 0.361341 -0.646926 0
M  V30 19100 H 1778.75 0.258469 -1.89748 0
M  V30 19101 H 1777.05 2.6832 -2.85502 0
M  V30 19102 H 1778.75 2.45348 -3.17184 0
M  V30 19103 H 1775.34 1.33758 -4.07194 0
M  V30 19104 H 1779.52 0.807271 -4.89691 0
M  V30 19105 H 1774.78 0.0879391 -6.11337 0
M  V30 19106 H 1778.95 -0.435775 -6.95035 0
M  V30 19107 H 1776.58 -0.801403 -7.55964 0
M  V30 19108 N 1778.15 1.48666 0.52309 0
M  V30 19109 C 1779.1 1.64155 1.6479 0
M  V30 19110 C 1780.1 0.507838 1.61609 0
M  V30 19111 O 1781.3 0.686784 1.66383 0
M  V30 19112 H 1777.68 0.517234 0.545869 0
M  V30 19113 H 1779.65 2.58611 1.48871 0
M  V30 19114 C 1778.4 1.70488 3.03033 0
M  V30 19115 H 1777.72 2.5709 3.06178 0
M  V30 19116 H 1779.16 1.85367 3.81333 0
M  V30 19117 C 1777.62 0.444984 3.33948 0
M  V30 19118 O 1778.15 -0.439107 3.99293 0
M  V30 19119 N 1776.36 0.314593 2.88892 0
M  V30 19120 H 1775.9 1.03501 2.35893 0
M  V30 19121 H 1775.86 -0.527357 3.09946 0
M  V30 19122 N 1779.63 -0.772489 1.37369 0
M  V30 19123 C 1780.86 -1.56671 1.35901 0
M  V30 19124 C 1781.28 -1.88024 -0.0535538 0
M  V30 19125 O 1780.64 -1.49174 -1.03038 0
M  V30 19126 C 1780.69 -2.85417 2.20384 0
M  V30 19127 O 1779.79 -3.79761 1.60796 0
M  V30 19128 H 1779.13 -0.474596 0.464386 0
M  V30 19129 H 1781.66 -0.956162 1.80883 0
M  V30 19130 H 1781.67 -3.34527 2.33571 0
M  V30 19131 H 1780.35 -2.61926 3.2306 0
M  V30 19132 H 1778.93 -3.38403 1.56645 0
M  V30 19133 N 1781.11 -1.21927 -0.998575 0
M  V30 19134 C 1782.36 -1.03834 -1.73386 0
M  V30 19135 C 1782.68 0.428247 -1.90239 0
M  V30 19136 O 1781.95 1.30847 -1.45794 0
M  V30 19137 H 1780.53 -0.381225 -0.642399 0
M  V30 19138 H 1783.19 -1.53344 -1.20298 0
M  V30 19139 H 1782.29 -1.51155 -2.73054 0
M  V30 19140 N 1782.59 1.19452 -1.02805 0
M  V30 19141 C 1783.81 1.93616 -0.743485 0
M  V30 19142 C 1784.24 1.74934 0.691342 0
M  V30 19143 O 1783.6 1.05111 1.47721 0
M  V30 19144 C 1783.64 3.43451 -1.0988 0
M  V30 19145 O 1782.75 4.11829 -0.216978 0
M  V30 19146 H 1782.09 0.60448 -0.274771 0
M  V30 19147 H 1784.62 1.51554 -1.37451 0
M  V30 19148 H 1784.63 3.94115 -1.05535 0
M  V30 19149 H 1783.3 3.5637 -2.14413 0
M  V30 19150 H 1781.88 3.71533 -0.318954 0
M  V30 19151 N 1784.07 0.805805 1.35442 0
M  V30 19152 C 1785.29 0.397179 2.03561 0
M  V30 19153 C 1785.72 -0.983665 1.6033 0
M  V30 19154 O 1785.07 -1.63683 0.779586 0
M  V30 19155 C 1785.12 0.487813 3.57285 0
M  V30 19156 O 1784.23 -0.499039 4.09369 0
M  V30 19157 H 1783.57 0.166009 0.642913 0
M  V30 19158 H 1786.1 1.09147 1.73055 0
M  V30 19159 H 1786.11 0.357334 4.06432 0
M  V30 19160 H 1784.78 1.49501 3.88101 0
M  V30 19161 H 1783.36 -0.328864 3.71447 0
M  V30 19162 N 1785.54 -1.47344 0.559239 0
M  V30 19163 C 1786.82 -1.95577 -0.0298268 0
M  V30 19164 C 1787.2 -1.50185 -1.4835 0
M  V30 19165 O 1786.55 -0.74162 -2.1613 0
M  V30 19166 C 1786.76 -3.48801 0.117767 0
M  V30 19167 C 1788.11 -4.24592 -0.026535 0
M  V30 19168 O 1789.13 -3.56171 0.0454163 0
M  V30 19169 O 1787.99 -5.46198 -0.181675 0
M  V30 19170 H 1785.08 -0.824597 -0.0629972 0
M  V30 19171 H 1787.63 -1.57736 0.625905 0
M  V30 19172 H 1786.4 -3.74652 1.12924 0
M  V30 19173 H 1786.03 -3.93413 -0.575483 0
M  V30 19174 N 1787.02 -0.295795 -1.54799 0
M  V30 19175 C 1788.3 0.367858 -1.9211 0
M  V30 19176 C 1788.68 1.72103 -1.22244 0
M  V30 19177 O 1788.03 2.25704 -0.356377 0
M  V30 19178 C 1788.24 0.487673 -3.45576 0
M  V30 19179 C 1789.59 0.760966 -4.17725 0
M  V30 19180 O 1790.61 0.571687 -3.51582 0
M  V30 19181 O 1789.47 1.12423 -5.34812 0
M  V30 19182 H 1786.56 0.204758 -0.801251 0
M  V30 19183 H 1789.11 -0.343471 -1.66188 0
M  V30 19184 H 1787.88 -0.463798 -3.88542 0
M  V30 19185 H 1787.5 1.24767 -3.77517 0
M  V30 19186 N 1788.5 1.57583 -0.0234236 0
M  V30 19187 C 1789.75 1.91848 0.657422 0
M  V30 19188 C 1790.08 0.899633 1.72105 0
M  V30 19189 O 1789.36 -0.0784409 1.94342 0
M  V30 19190 C 1789.64 3.36617 1.2791 0
M  V30 19191 C 1789.49 4.49235 0.225421 0
M  V30 19192 C 1790.81 3.81239 2.19874 0
M  V30 19193 H 1787.93 0.697677 0.23752 0
M  V30 19194 H 1790.57 1.89834 -0.0795169 0
M  V30 19195 H 1788.72 3.38465 1.90719 0
M  V30 19196 H 1790.39 4.59521 -0.404792 0
M  V30 19197 H 1788.64 4.31462 -0.449749 0
M  V30 19198 H 1789.31 5.47545 0.699906 0
M  V30 19199 H 1791.78 3.81092 1.67058 0
M  V30 19200 H 1790.66 4.8324 2.60328 0
M  V30 19201 H 1790.92 3.16421 3.08755 0
M  V30 19202 N 1789.98 -0.249655 1.5561 0
M  V30 19203 C 1791.4 -0.598032 1.47972 0
M  V30 19204 C 1791.6 -1.88461 0.713067 0
M  V30 19205 O 1790.65 -2.51344 0.241314 0
M  V30 19206 C 1791.96 -0.703318 2.92359 0
M  V30 19207 C 1793.51 -0.795828 3.02714 0
M  V30 19208 C 1793.99 -0.932698 4.48402 0
M  V30 19209 N 1795.48 -0.997638 4.52329 0
M  V30 19210 C 1796.21 -1.12276 5.623 0
M  V30 19211 N 1795.71 -1.21359 6.82088 0
M  V30 19212 N 1797.5 -1.1557 5.50091 0
M  V30 19213 H 1789.65 0.594976 2.03897 0
M  V30 19214 H 1791.92 0.204956 0.925579 0
M  V30 19215 H 1791.62 0.171981 3.51279 0
M  V30 19216 H 1791.5 -1.57614 3.42692 0
M  V30 19217 H 1793.88 -1.66158 2.43876 0
M  V30 19218 H 1793.96 0.102087 2.55596 0
M  V30 19219 H 1793.61 -0.0715123 5.0785 0
M  V30 19220 H 1793.54 -1.84561 4.93198 0
M  V30 19221 H 1796.03 -0.938895 3.66051 0
M  V30 19222 H 1796.34 -1.30805 7.61649 0
M  V30 19223 H 1794.69 -1.18322 6.84854 0
M  V30 19224 H 1797.88 -1.0812 4.55442 0
M  V30 19225 H 1798.05 -1.24976 6.35834 0
M  V30 19226 N 1791.46 -1.48941 -0.515198 0
M  V30 19227 C 1792.69 -1.61162 -1.29269 0
M  V30 19228 C 1793.1 -0.276697 -1.87166 0
M  V30 19229 O 1792.44 0.746082 -1.67867 0
M  V30 19230 C 1792.5 -2.61067 -2.47152 0
M  V30 19231 C 1792.16 -4.05773 -2.10232 0
M  V30 19232 C 1793.16 -4.93011 -1.65035 0
M  V30 19233 C 1790.85 -4.51412 -2.20302 0
M  V30 19234 C 1792.84 -6.2392 -1.30393 0
M  V30 19235 C 1790.53 -5.82338 -1.85271 0
M  V30 19236 C 1791.53 -6.68416 -1.4039 0
M  V30 19237 O 1791.21 -7.96904 -1.05826 0
M  V30 19238 H 1790.95 -0.545818 -0.398821 0
M  V30 19239 H 1793.5 -1.95608 -0.626638 0
M  V30 19240 H 1791.73 -2.21773 -3.16787 0
M  V30 19241 H 1793.42 -2.62967 -3.09198 0
M  V30 19242 H 1794.18 -4.58984 -1.56713 0
M  V30 19243 H 1790.06 -3.8459 -2.54189 0
M  V30 19244 H 1793.61 -6.91061 -0.952892 0
M  V30 19245 H 1789.5 -6.15897 -1.93238 0
M  V30 19246 H 1790.27 -8.09789 -1.19096 0
M  V30 19247 N 1792.94 0.765193 -1.37777 0
M  V30 19248 C 1794.18 1.52623 -1.33545 0
M  V30 19249 C 1794.51 1.94043 0.077992 0
M  V30 19250 O 1793.79 1.64566 1.03673 0
M  V30 19251 C 1794.07 2.78679 -2.28057 0
M  V30 19252 C 1793.93 2.43471 -3.78209 0
M  V30 19253 C 1795.24 3.80646 -2.20899 0
M  V30 19254 H 1792.36 0.553678 -0.486425 0
M  V30 19255 H 1795.01 0.877326 -1.68532 0
M  V30 19256 H 1793.16 3.3405 -1.9835 0
M  V30 19257 H 1794.83 1.93965 -4.1854 0
M  V30 19258 H 1793.07 1.76081 -3.96457 0
M  V30 19259 H 1793.74 3.33609 -4.39783 0
M  V30 19260 H 1796.22 3.34786 -2.47099 0
M  V30 19261 H 1795.09 4.6656 -2.89159 0
M  V30 19262 H 1795.35 4.25389 -1.20403 0
M  V30 19263 N 1794.41 1.22455 0.992094 0
M  V30 19264 C 1795.36 0.992597 2.10357 0
M  V30 19265 C 1796.36 -0.0645514 1.69277 0
M  V30 19266 O 1797.56 0.0879577 1.79785 0
M  V30 19267 H 1793.94 0.303808 0.687899 0
M  V30 19268 H 1795.91 1.93574 2.27094 0
M  V30 19269 C 1794.66 0.587852 3.42695 0
M  V30 19270 H 1793.98 1.39298 3.74748 0
M  V30 19271 H 1795.42 0.464975 4.21443 0
M  V30 19272 C 1793.88 -0.702681 3.29491 0
M  V30 19273 O 1794.41 -1.7549 3.61339 0
M  V30 19274 N 1792.61 -0.674141 2.82672 0
M  V30 19275 H 1792.16 0.182446 2.56953 0
M  V30 19276 H 1792.12 -1.53789 2.7422 0
M  V30 19277 N 1795.89 -1.18905 1.03437 0
M  V30 19278 C 1796.85 -2.20529 0.624461 0
M  V30 19279 C 1797.85 -1.57688 -0.314824 0
M  V30 19280 O 1799.04 -1.73906 -0.101082 0
M  V30 19281 C 1796.18 -3.40793 -0.0854166 0
M  V30 19282 H 1797.37 -2.58309 1.5237 0
M  V30 19283 H 1794.92 -1.32679 0.826189 0
M  V30 19284 H 1795.66 -3.08538 -0.998747 0
M  V30 19285 H 1795.44 -3.87642 0.589596 0
M  V30 19286 H 1796.93 -4.16055 -0.358938 0
M  V30 19287 N 1797.37 -0.812977 -1.35013 0
M  V30 19288 C 1798.62 -0.396345 -1.98583 0
M  V30 19289 C 1798.94 1.0381 -1.6448 0
M  V30 19290 O 1798.2 1.73604 -0.903344 0
M  V30 19291 C 1798.5 -0.534083 -3.53387 0
M  V30 19292 C 1798.16 -1.93278 -4.07375 0
M  V30 19293 C 1796.83 -2.31543 -4.21831 0
M  V30 19294 C 1799.18 -2.84756 -4.36535 0
M  V30 19295 C 1796.51 -3.60641 -4.62769 0
M  V30 19296 C 1798.86 -4.13308 -4.78915 0
M  V30 19297 C 1797.52 -4.51563 -4.91576 0
M  V30 19298 H 1796.79 -0.145033 -0.726668 0
M  V30 19299 H 1799.44 -1.035 -1.61121 0
M  V30 19300 H 1797.74 0.188002 -3.91349 0
M  V30 19301 H 1799.44 -0.192396 -4.00538 0
M  V30 19302 H 1796.03 -1.62551 -3.96579 0
M  V30 19303 H 1800.22 -2.56441 -4.24914 0
M  V30 19304 H 1795.47 -3.9012 -4.70761 0
M  V30 19305 H 1799.65 -4.84287 -5.00439 0
M  V30 19306 H 1797.27 -5.51649 -5.23056 0
M  V30 19307 N 1798.85 1.47045 -0.567045 0
M  V30 19308 C 1799.79 2.30135 0.175115 0
M  V30 19309 C 1800.76 1.39665 0.899049 0
M  V30 19310 O 1801.95 1.68623 0.892809 0
M  V30 19311 C 1799.09 3.23827 1.19289 0
M  V30 19312 C 1798.2 4.29392 0.474011 0
M  V30 19313 C 1797.34 5.10226 1.47793 0
M  V30 19314 C 1796.38 6.07554 0.744584 0
M  V30 19315 N 1795.51 6.81313 1.69581 0
M  V30 19316 H 1800.35 2.93075 -0.539529 0
M  V30 19317 H 1797.89 1.44451 -0.277889 0
M  V30 19318 H 1799.85 3.76579 1.79567 0
M  V30 19319 H 1798.48 2.6273 1.87544 0
M  V30 19320 H 1797.53 3.7962 -0.243494 0
M  V30 19321 H 1798.84 4.987 -0.100022 0
M  V30 19322 H 1798 5.67176 2.15397 0
M  V30 19323 H 1796.74 4.40842 2.08589 0
M  V30 19324 H 1795.74 5.49773 0.0546832 0
M  V30 19325 H 1796.97 6.78951 0.142235 0
M  V30 19326 H 1794.91 6.14651 2.29216 0
M  V30 19327 H 1794.83 7.46826 1.17418 0
M  V30 19328 H 1796.1 7.42831 2.36268 0
M  V30 19329 N 1800.33 0.304 1.5464 0
M  V30 19330 C 1801.57 -0.304394 2.00199 0
M  V30 19331 C 1801.9 -1.53665 1.19237 0
M  V30 19332 O 1801.16 -1.94 0.257393 0
M  V30 19333 C 1801.45 -0.702651 3.50425 0
M  V30 19334 C 1801.12 0.428205 4.48862 0
M  V30 19335 C 1799.78 0.738646 4.75497 0
M  V30 19336 C 1802.13 1.18878 5.07462 0
M  V30 19337 C 1799.46 1.81273 5.57994 0
M  V30 19338 C 1801.81 2.2528 5.91127 0
M  V30 19339 C 1800.48 2.56927 6.16072 0
M  V30 19340 H 1799.75 -0.111386 0.732581 0
M  V30 19341 H 1802.4 0.42372 1.86753 0
M  V30 19342 H 1800.7 -1.5109 3.61496 0
M  V30 19343 H 1802.4 -1.18461 3.83103 0
M  V30 19344 H 1798.99 0.176148 4.28238 0
M  V30 19345 H 1803.17 0.9622 4.86883 0
M  V30 19346 H 1798.43 2.06261 5.75557 0
M  V30 19347 H 1802.6 2.8467 6.3556 0
M  V30 19348 H 1800.23 3.40286 6.79786 0
M  V30 19349 N 1801.8 -1.57568 0.0317802 0
M  V30 19350 C 1802.74 -2.05894 -0.984021 0
M  V30 19351 C 1803.71 -0.955271 -1.3158 0
M  V30 19352 O 1804.9 -1.22579 -1.43201 0
M  V30 19353 C 1802.03 -2.48323 -2.30334 0
M  V30 19354 C 1801.07 -3.69736 -2.12598 0
M  V30 19355 S 1801.9 -5.16266 -1.42233 0
M  V30 19356 C 1803.06 -5.61992 -2.75528 0
M  V30 19357 H 1803.29 -2.91732 -0.572665 0
M  V30 19358 H 1800.83 -1.53347 -0.179981 0
M  V30 19359 H 1802.78 -2.73433 -3.06178 0
M  V30 19360 H 1801.45 -1.62825 -2.68602 0
M  V30 19361 H 1800.64 -3.97279 -3.10138 0
M  V30 19362 H 1800.24 -3.44792 -1.44896 0
M  V30 19363 H 1802.53 -5.66394 -3.71758 0
M  V30 19364 H 1803.48 -6.61495 -2.52646 0
M  V30 19365 H 1803.88 -4.8965 -2.80897 0
M  V30 19366 N 1803.28 0.241399 -1.5574 0
M  V30 19367 C 1804.51 0.99028 -1.82231 0
M  V30 19368 C 1804.93 1.77949 -0.609559 0
M  V30 19369 O 1804.29 1.75843 0.44148 0
M  V30 19370 C 1804.34 1.89947 -3.06516 0
M  V30 19371 O 1803.44 2.99201 -2.83818 0
M  V30 19372 H 1802.78 0.281488 -0.601382 0
M  V30 19373 H 1805.31 0.260721 -2.02932 0
M  V30 19374 H 1805.32 2.31308 -3.36096 0
M  V30 19375 H 1804 1.31924 -3.94422 0
M  V30 19376 H 1802.58 2.61929 -2.6542 0
M  V30 19377 N 1804.76 1.49212 0.507292 0
M  V30 19378 C 1805.69 1.68326 1.61829 0
M  V30 19379 C 1806.67 0.531969 1.61568 0
M  V30 19380 O 1807.86 0.767104 1.78407 0
M  V30 19381 C 1804.99 1.74394 3.0034 0
M  V30 19382 C 1803.94 2.89251 3.15465 0
M  V30 19383 C 1803.27 2.80426 4.55264 0
M  V30 19384 C 1804.57 4.30269 2.96085 0
M  V30 19385 H 1806.26 2.6134 1.46087 0
M  V30 19386 H 1803.81 1.25765 0.701367 0
M  V30 19387 H 1805.76 1.86353 3.77956 0
M  V30 19388 H 1804.48 0.779748 3.17155 0
M  V30 19389 H 1803.14 2.76884 2.40272 0
M  V30 19390 H 1802.79 1.81928 4.68947 0
M  V30 19391 H 1802.49 3.57511 4.66326 0
M  V30 19392 H 1804.01 2.94384 5.34949 0
M  V30 19393 H 1805.43 4.4335 3.63475 0
M  V30 19394 H 1803.83 5.08527 3.18623 0
M  V30 19395 H 1804.9 4.45151 1.92272 0
M  V30 19396 N 1806.24 -0.757876 1.38181 0
M  V30 19397 C 1807.15 -1.90234 1.37289 0
M  V30 19398 C 1808.16 -1.71883 0.270567 0
M  V30 19399 O 1809.34 -1.94881 0.508279 0
M  V30 19400 C 1806.41 -3.25546 1.19251 0
M  V30 19401 C 1805.47 -3.56452 2.39249 0
M  V30 19402 C 1804.7 -4.85308 2.22063 0
M  V30 19403 O 1804.92 -5.57373 1.2121 0
M  V30 19404 O 1803.86 -5.15594 3.10558 0
M  V30 19405 H 1807.68 -1.9394 2.33711 0
M  V30 19406 H 1805.27 -0.902559 1.19056 0
M  V30 19407 H 1807.15 -4.06454 1.11235 0
M  V30 19408 H 1805.82 -3.22661 0.259109 0
M  V30 19409 H 1804.73 -2.75723 2.52839 0
M  V30 19410 H 1806.06 -3.64094 3.31205 0
M  V30 19411 N 1807.72 -1.22979 -0.985586 0
M  V30 19412 C 1809.13 -0.991329 -1.25079 0
M  V30 19413 C 1809.33 0.310701 -1.9909 0
M  V30 19414 O 1808.39 1.03147 -2.30471 0
M  V30 19415 C 1809.7 -2.19483 -2.05542 0
M  V30 19416 C 1811.25 -2.23918 -2.187 0
M  V30 19417 C 1811.72 -3.43841 -3.02552 0
M  V30 19418 N 1813.22 -3.44048 -3.10137 0
M  V30 19419 C 1813.95 -4.33493 -3.75328 0
M  V30 19420 N 1813.45 -5.33167 -4.42385 0
M  V30 19421 N 1815.24 -4.2125 -3.72163 0
M  V30 19422 H 1807.39 -2.0668 -0.489617 0
M  V30 19423 H 1809.65 -0.906048 -0.278892 0
M  V30 19424 H 1809.36 -3.13945 -1.5853 0
M  V30 19425 H 1809.23 -2.20144 -3.06295 0
M  V30 19426 H 1811.62 -1.3 -2.64923 0
M  V30 19427 H 1811.7 -2.27293 -1.17353 0
M  V30 19428 H 1811.35 -4.38063 -2.57027 0
M  V30 19429 H 1811.28 -3.37707 -4.04056 0
M  V30 19430 H 1813.77 -2.71927 -2.6242 0
M  V30 19431 H 1814.08 -5.97684 -4.89892 0
M  V30 19432 H 1812.42 -5.37073 -4.4111 0
M  V30 19433 H 1815.62 -3.42629 -3.18941 0
M  V30 19434 H 1815.79 -4.91162 -4.22687 0
M  V30 19435 N 1809.19 1.18355 -1.04066 0
M  V30 19436 C 1810.44 1.87665 -0.73923 0
M  V30 19437 C 1810.76 1.81226 0.735963 0
M  V30 19438 O 1811.96 2.45899 1.15091 0
M  V30 19439 C 1810.42 3.36671 -1.27203 0
M  V30 19440 C 1810.03 3.5164 -2.77585 0
M  V30 19441 C 1811.77 4.11383 -1.04712 0
M  V30 19442 C 1809.68 4.94605 -3.24222 0
M  V30 19443 H 1808.61 0.702908 -0.27283 0
M  V30 19444 H 1811.26 1.33733 -1.25649 0
M  V30 19445 H 1809.64 3.90072 -0.682621 0
M  V30 19446 H 1810.81 3.08511 -3.42283 0
M  V30 19447 H 1809.13 2.90334 -2.98488 0
M  V30 19448 H 1811.73 5.16832 -1.37071 0
M  V30 19449 H 1812.07 4.16297 0.0156344 0
M  V30 19450 H 1812.6 3.64154 -1.60114 0
M  V30 19451 H 1809.34 4.94859 -4.29878 0
M  V30 19452 H 1808.86 5.38449 -2.6426 0
M  V30 19453 H 1810.54 5.6332 -3.18245 0
M  V30 19454 N 1810.67 0.820125 1.3458 0
M  V30 19455 C 1811.62 0.237994 2.2957 0
M  V30 19456 C 1812.59 -0.635637 1.53456 0
M  V30 19457 O 1813.77 -0.57787 1.81839 0
M  V30 19458 C 1810.91 -0.596426 3.39907 0
M  V30 19459 C 1810.03 0.29914 4.30963 0
M  V30 19460 C 1809.16 -0.54458 5.28401 0
M  V30 19461 C 1808.2 0.350546 6.11095 0
M  V30 19462 N 1807.34 -0.453936 7.00631 0
M  V30 19463 H 1812.18 1.0534 2.7876 0
M  V30 19464 H 1809.72 0.530977 1.37183 0
M  V30 19465 H 1811.67 -1.0955 4.0256 0
M  V30 19466 H 1810.3 -1.37697 2.91958 0
M  V30 19467 H 1809.36 0.916412 3.69196 0
M  V30 19468 H 1810.67 0.987544 4.88926 0
M  V30 19469 H 1809.82 -1.10825 5.96492 0
M  V30 19470 H 1808.56 -1.2665 4.70968 0
M  V30 19471 H 1807.57 0.926375 5.41939 0
M  V30 19472 H 1808.79 1.07054 6.70609 0
M  V30 19473 H 1806.74 -1.15958 6.4567 0
M  V30 19474 H 1806.65 0.176138 7.55795 0
M  V30 19475 H 1807.92 -1.00044 7.73053 0
M  V30 19476 N 1812.15 -1.46743 0.574835 0
M  V30 19477 C 1813.38 -2.06805 0.0627992 0
M  V30 19478 C 1813.79 -1.42482 -1.23872 0
M  V30 19479 O 1813.15 -0.527375 -1.74714 0
M  V30 19480 C 1813.2 -3.61307 -0.117983 0
M  V30 19481 O 1812.92 -4.23222 1.13201 0
M  V30 19482 C 1814.42 -4.3828 -0.665277 0
M  V30 19483 H 1811.64 -0.668835 0.0538616 0
M  V30 19484 H 1814.19 -1.88488 0.793265 0
M  V30 19485 H 1812.34 -3.79078 -0.798641 0
M  V30 19486 H 1812.76 -5.15992 0.940853 0
M  V30 19487 H 1814.23 -5.47004 -0.740985 0
M  V30 19488 H 1814.71 -4.05777 -1.68052 0
M  V30 19489 H 1815.31 -4.25295 -0.0197462 0
M  V30 19490 N 1813.63 -0.312197 -1.54477 0
M  V30 19491 C 1814.88 0.293772 -2.00358 0
M  V30 19492 C 1815.2 1.5303 -1.2005 0
M  V30 19493 O 1814.46 1.93861 -0.267678 0
M  V30 19494 C 1814.76 0.684057 -3.50793 0
M  V30 19495 C 1814.42 -0.452004 -4.48629 0
M  V30 19496 C 1813.09 -0.763853 -4.75099 0
M  V30 19497 C 1815.44 -1.21567 -5.06824 0
M  V30 19498 C 1812.77 -1.84229 -5.57025 0
M  V30 19499 C 1815.12 -2.28412 -5.89924 0
M  V30 19500 C 1813.78 -2.60191 -6.14701 0
M  V30 19501 H 1813.05 0.107499 -0.733161 0
M  V30 19502 H 1815.7 -0.433618 -1.86526 0
M  V30 19503 H 1814 1.4917 -3.62292 0
M  V30 19504 H 1815.7 1.16428 -3.83726 0
M  V30 19505 H 1812.29 -0.198857 -4.28138 0
M  V30 19506 H 1816.47 -0.988007 -4.86366 0
M  V30 19507 H 1811.73 -2.09311 -5.74455 0
M  V30 19508 H 1815.9 -2.88037 -6.34041 0
M  V30 19509 H 1813.53 -3.43887 -6.77972 0
M  V30 19510 N 1815.11 1.57549 -0.040136 0
M  V30 19511 C 1816.02 2.14351 0.953457 0
M  V30 19512 C 1817.03 1.09851 1.3494 0
M  V30 19513 O 1818.21 1.41965 1.42857 0
M  V30 19514 C 1815.27 2.66832 2.21363 0
M  V30 19515 C 1814.33 3.86088 1.87708 0
M  V30 19516 C 1813.57 4.36057 3.07718 0
M  V30 19517 O 1813.79 3.85147 4.20735 0
M  V30 19518 O 1812.72 5.27775 2.89374 0
M  V30 19519 H 1816.55 2.99549 0.500423 0
M  V30 19520 H 1814.14 1.48298 0.18112 0
M  V30 19521 H 1816.02 3.00605 2.95321 0
M  V30 19522 H 1814.69 1.84711 2.65826 0
M  V30 19523 H 1813.6 3.57222 1.11101 0
M  V30 19524 H 1814.93 4.69405 1.48053 0
M  V30 19525 N 1816.58 -0.233136 1.55866 0
M  V30 19526 C 1817.49 -1.31004 1.94615 0
M  V30 19527 C 1818.51 -1.51915 0.848399 0
M  V30 19528 O 1819.69 -1.6527 1.15098 0
M  V30 19529 C 1816.75 -2.64203 2.24494 0
M  V30 19530 C 1815.81 -2.51695 3.47776 0
M  V30 19531 C 1815.05 -3.78542 3.7622 0
M  V30 19532 O 1815.27 -4.81043 3.06519 0
M  V30 19533 O 1814.2 -3.76348 4.69729 0
M  V30 19534 H 1818.03 -1.01129 2.86368 0
M  V30 19535 H 1815.61 -0.435043 1.42926 0
M  V30 19536 H 1817.5 -3.42889 2.44959 0
M  V30 19537 H 1816.17 -2.93782 1.35918 0
M  V30 19538 H 1815.08 -1.71248 3.32603 0
M  V30 19539 H 1816.41 -2.27058 4.36698 0
M  V30 19540 N 1818.06 -1.49479 -0.499372 0
M  V30 19541 C 1818.99 -1.69182 -1.60934 0
M  V30 19542 C 1819.97 -0.54053 -1.61283 0
M  V30 19543 O 1821.16 -0.776554 -1.77998 0
M  V30 19544 C 1818.29 -1.75985 -2.99411 0
M  V30 19545 C 1817.24 -2.9092 -3.13926 0
M  V30 19546 C 1816.57 -2.82837 -4.5377 0
M  V30 19547 C 1817.87 -4.31833 -2.93799 0
M  V30 19548 H 1819.56 -2.62112 -1.44699 0
M  V30 19549 H 1817.11 -1.26135 -0.694688 0
M  V30 19550 H 1819.06 -1.88354 -3.76962 0
M  V30 19551 H 1817.79 -0.796557 -3.16737 0
M  V30 19552 H 1816.45 -2.78155 -2.388 0
M  V30 19553 H 1816.09 -1.84412 -4.67976 0
M  V30 19554 H 1815.79 -3.59979 -4.64423 0
M  V30 19555 H 1817.32 -2.97217 -5.3338 0
M  V30 19556 H 1818.73 -4.45271 -3.61119 0
M  V30 19557 H 1817.13 -5.10209 -3.15922 0
M  V30 19558 H 1818.2 -4.46165 -1.89908 0
M  V30 19559 N 1819.54 0.750537 -1.38581 0
M  V30 19560 C 1820.47 1.87785 -1.38777 0
M  V30 19561 C 1821.45 1.68204 -0.253244 0
M  V30 19562 O 1822.64 1.88752 -0.456779 0
M  V30 19563 C 1819.77 3.2535 -1.21511 0
M  V30 19564 C 1818.72 3.59538 -2.32199 0
M  V30 19565 C 1818.05 4.95873 -2.00036 0
M  V30 19566 C 1819.35 3.64102 -3.74469 0
M  V30 19567 H 1821.04 1.87879 -2.33113 0
M  V30 19568 H 1818.59 0.902504 -1.12209 0
M  V30 19569 H 1820.54 4.03872 -1.20272 0
M  V30 19570 H 1819.26 3.25744 -0.236366 0
M  V30 19571 H 1817.92 2.83336 -2.32629 0
M  V30 19572 H 1817.57 4.9283 -1.00638 0
M  V30 19573 H 1817.27 5.19716 -2.7417 0
M  V30 19574 H 1818.8 5.7677 -2.00421 0
M  V30 19575 H 1820.21 4.32731 -3.76054 0
M  V30 19576 H 1818.61 3.99455 -4.47834 0
M  V30 19577 H 1819.68 2.64259 -4.06565 0
M  V30 19578 N 1821.02 1.235 0.979051 0
M  V30 19579 C 1822.43 1.06263 1.53509 0
M  V30 19580 C 1822.78 -0.369594 1.92687 0
M  V30 19581 O 1821.91 -1.25649 1.76185 0
M  V30 19582 C 1822.5 1.92276 2.78954 0
M  V30 19583 C 1821.06 1.79296 3.30953 0
M  V30 19584 C 1820.21 1.87898 2.03935 0
M  V30 19585 H 1823.16 1.37143 0.798588 0
M  V30 19586 H 1823.18 1.44835 3.51857 0
M  V30 19587 H 1822.69 2.96509 2.50408 0
M  V30 19588 H 1820.79 0.778512 3.64376 0
M  V30 19589 H 1820.91 2.62755 4.0062 0
M  V30 19590 H 1819.27 1.31494 2.18131 0
M  V30 19591 H 1820.05 2.93689 1.77769 0
M  V30 19592 N 1822.5 -1.17802 1.04693 0
M  V30 19593 C 1823.45 -2.23698 0.637319 0
M  V30 19594 C 1824.44 -1.65974 -0.338957 0
M  V30 19595 O 1825.65 -1.78822 -0.205565 0
M  V30 19596 H 1822.02 -0.728146 0.187903 0
M  V30 19597 H 1823.99 -2.55549 1.5407 0
M  V30 19598 C 1822.74 -3.47693 0.0227662 0
M  V30 19599 H 1822.06 -3.92412 0.765058 0
M  V30 19600 H 1823.5 -4.23394 -0.22653 0
M  V30 19601 C 1821.96 -3.13679 -1.22912 0
M  V30 19602 O 1822.49 -3.27993 -2.31913 0
M  V30 19603 N 1820.7 -2.67948 -1.12483 0
M  V30 19604 H 1820.25 -2.565 -0.237818 0
M  V30 19605 H 1820.2 -2.45562 -1.96333 0
M  V30 19606 N 1823.98 -0.827251 -1.34143 0
M  V30 19607 C 1824.94 -0.257543 -2.27748 0
M  V30 19608 C 1825.94 0.567053 -1.5047 0
M  V30 19609 O 1827.13 0.382529 -1.69948 0
M  V30 19610 C 1824.26 0.638449 -3.34868 0
M  V30 19611 H 1825.45 -1.08338 -2.79648 0
M  V30 19612 H 1823.01 -0.599441 -1.44348 0
M  V30 19613 H 1823.74 1.48717 -2.8819 0
M  V30 19614 H 1823.53 0.0486033 -3.9207 0
M  V30 19615 H 1825.02 1.03071 -4.0468 0
M  V30 19616 N 1825.45 1.46436 -0.582609 0
M  V30 19617 C 1826.68 2.06768 -0.0737657 0
M  V30 19618 C 1827.1 1.43137 1.23115 0
M  V30 19619 O 1826.45 0.536633 1.74432 0
M  V30 19620 C 1826.5 3.61365 0.0988205 0
M  V30 19621 O 1826.23 4.22616 -1.15444 0
M  V30 19622 C 1827.73 4.38626 0.642025 0
M  V30 19623 H 1824.95 0.66854 -0.0574078 0
M  V30 19624 H 1827.49 1.88064 -0.80325 0
M  V30 19625 H 1825.65 3.79497 0.778526 0
M  V30 19626 H 1826.06 5.15486 -0.968204 0
M  V30 19627 H 1827.53 5.47389 0.711966 0
M  V30 19628 H 1828.01 4.06663 1.65897 0
M  V30 19629 H 1828.62 4.253 -0.00280852 0
M  V30 19630 N 1826.93 0.320385 1.54309 0
M  V30 19631 C 1828.16 -0.28794 2.05391 0
M  V30 19632 C 1828.58 -1.45249 1.19517 0
M  V30 19633 O 1827.94 -1.80154 0.203556 0
M  V30 19634 C 1827.99 -0.703261 3.53676 0
M  V30 19635 O 1827.09 -1.80598 3.70753 0
M  V30 19636 H 1826.43 -0.052589 0.661914 0
M  V30 19637 H 1828.96 0.46787 1.99179 0
M  V30 19638 H 1828.97 -0.986793 3.95887 0
M  V30 19639 H 1827.65 0.148514 4.15635 0
M  V30 19640 H 1826.22 -1.5215 3.40448 0
M  V30 19641 N 1828.41 -1.57525 0.0484906 0
M  V30 19642 C 1829.34 -2.06926 -0.962128 0
M  V30 19643 C 1830.32 -0.969173 -1.3056 0
M  V30 19644 O 1831.5 -1.24091 -1.41893 0
M  V30 19645 C 1828.63 -2.50752 -2.27687 0
M  V30 19646 C 1827.68 -3.7197 -2.08664 0
M  V30 19647 S 1828.51 -5.17745 -1.36749 0
M  V30 19648 C 1829.67 -5.64883 -2.69552 0
M  V30 19649 H 1829.9 -2.92323 -0.541691 0
M  V30 19650 H 1827.43 -1.5353 -0.163706 0
M  V30 19651 H 1829.39 -2.76665 -3.03261 0
M  V30 19652 H 1828.05 -1.65665 -2.66859 0
M  V30 19653 H 1827.24 -4.00546 -3.05907 0
M  V30 19654 H 1826.85 -3.46309 -1.41231 0
M  V30 19655 H 1829.14 -5.70305 -3.6573 0
M  V30 19656 H 1830.08 -6.64138 -2.45615 0
M  V30 19657 H 1830.49 -4.92602 -2.75688 0
M  V30 19658 N 1829.89 0.224867 -1.55988 0
M  V30 19659 C 1831.13 0.949747 -1.78846 0
M  V30 19660 C 1831.46 1.84465 -0.616678 0
M  V30 19661 O 1830.72 1.91587 0.399098 0
M  V30 19662 C 1831.02 1.8227 -3.07429 0
M  V30 19663 C 1830.68 1.08131 -4.37743 0
M  V30 19664 C 1829.34 0.876497 -4.7315 0
M  V30 19665 C 1831.7 0.557505 -5.1821 0
M  V30 19666 C 1829.02 0.13593 -5.86543 0
M  V30 19667 C 1831.38 -0.169702 -6.32372 0
M  V30 19668 C 1830.04 -0.385796 -6.66384 0
M  V30 19669 H 1829.31 0.347537 -0.654446 0
M  V30 19670 H 1831.96 0.218162 -1.90253 0
M  V30 19671 H 1830.26 2.62204 -2.91129 0
M  V30 19672 H 1831.96 2.38564 -3.22317 0
M  V30 19673 H 1828.55 1.25091 -4.09939 0
M  V30 19674 H 1832.73 0.703218 -4.91293 0
M  V30 19675 H 1827.99 -0.0417543 -6.11386 0
M  V30 19676 H 1832.16 -0.583104 -6.93955 0
M  V30 19677 H 1829.79 -0.961574 -7.54094 0
M  V30 19678 N 1831.37 1.49742 0.491438 0
M  V30 19679 C 1832.64 1.50217 1.25277 0
M  V30 19680 C 1833.02 0.235271 2.09785 0
M  V30 19681 O 1832.37 -0.782057 2.147 0
M  V30 19682 C 1832.58 2.78652 2.10129 0
M  V30 19683 C 1833.93 3.28519 2.68999 0
M  V30 19684 O 1834.95 2.79834 2.20389 0
M  V30 19685 O 1833.81 4.13333 3.57516 0
M  V30 19686 H 1830.91 0.601649 0.567405 0
M  V30 19687 H 1833.45 1.62014 0.504924 0
M  V30 19688 H 1832.22 3.62345 1.47723 0
M  V30 19689 H 1831.85 2.69761 2.92087 0
M  V30 19690 N 1832.84 -0.743177 1.38977 0
M  V30 19691 C 1834.12 -1.49384 1.26269 0
M  V30 19692 C 1834.5 -2.10691 -0.131349 0
M  V30 19693 O 1833.85 -1.97925 -1.14183 0
M  V30 19694 C 1834.06 -2.55184 2.3808 0
M  V30 19695 C 1835.41 -3.21796 2.77006 0
M  V30 19696 O 1836.43 -2.65493 2.37469 0
M  V30 19697 O 1835.29 -4.23656 3.45222 0
M  V30 19698 H 1832.38 -0.662968 0.49437 0
M  V30 19699 H 1834.93 -0.7777 1.50831 0
M  V30 19700 H 1833.7 -2.08204 3.31311 0
M  V30 19701 H 1833.33 -3.34366 2.15139 0
M  V30 19702 N 1834.32 -1.24018 -0.972487 0
M  V30 19703 C 1835.55 -1.10232 -1.74736 0
M  V30 19704 C 1835.96 0.348409 -1.85964 0
M  V30 19705 O 1835.3 1.25245 -1.34386 0
M  V30 19706 C 1835.37 -1.66263 -3.18743 0
M  V30 19707 C 1835.03 -3.151 -3.31 0
M  V30 19708 C 1836.03 -4.12305 -3.16703 0
M  V30 19709 C 1833.71 -3.54965 -3.55394 0
M  V30 19710 C 1835.71 -5.47357 -3.26617 0
M  V30 19711 C 1833.39 -4.9016 -3.64947 0
M  V30 19712 C 1834.39 -5.86165 -3.5057 0
M  V30 19713 O 1834.08 -7.18903 -3.5977 0
M  V30 19714 H 1833.81 -0.386036 -0.554935 0
M  V30 19715 H 1836.36 -1.64505 -1.22993 0
M  V30 19716 H 1834.59 -1.06419 -3.71769 0
M  V30 19717 H 1836.28 -1.47837 -3.7802 0
M  V30 19718 H 1837.05 -3.82848 -2.97745 0
M  V30 19719 H 1832.93 -2.80747 -3.65653 0
M  V30 19720 H 1836.47 -6.22273 -3.15312 0
M  V30 19721 H 1832.37 -5.1929 -3.83416 0
M  V30 19722 H 1833.14 -7.26759 -3.76515 0
M  V30 19723 N 1835.8 1.17245 -1.05316 0
M  V30 19724 C 1836.73 2.20844 -0.613228 0
M  V30 19725 C 1837.75 1.5955 0.323671 0
M  V30 19726 O 1838.93 1.78121 0.116209 0
M  V30 19727 C 1836.03 3.38679 0.122482 0
M  V30 19728 C 1835.21 4.29541 -0.825429 0
M  V30 19729 C 1834.27 5.26038 -0.130752 0
M  V30 19730 O 1833.29 5.64032 -0.765248 0
M  V30 19731 N 1834.49 5.69369 1.13136 0
M  V30 19732 H 1837.26 2.5921 -1.50434 0
M  V30 19733 H 1834.82 1.32156 -0.935221 0
M  V30 19734 H 1836.81 4.00267 0.597368 0
M  V30 19735 H 1835.38 2.989 0.915278 0
M  V30 19736 H 1834.6 3.65366 -1.47991 0
M  V30 19737 H 1835.89 4.87138 -1.46882 0
M  V30 19738 H 1835.29 5.40576 1.66716 0
M  V30 19739 H 1833.85 6.33095 1.55029 0
M  V30 19740 N 1837.28 0.834353 1.33702 0
M  V30 19741 C 1838.53 0.427042 1.97537 0
M  V30 19742 C 1838.85 -1.01607 1.66436 0
M  V30 19743 O 1838.12 -1.70711 0.960958 0
M  V30 19744 H 1836.7 0.154921 0.730759 0
M  V30 19745 H 1839.36 1.06632 1.63143 0
M  V30 19746 H 1838.46 0.555396 3.07118 0
M  V30 19747 N 1838.76 -1.46125 0.590367 0
M  V30 19748 C 1840.03 -1.95597 0.0116648 0
M  V30 19749 C 1840.41 -1.53298 -1.45131 0
M  V30 19750 O 1839.76 -0.787298 -2.14508 0
M  V30 19751 C 1839.97 -3.48473 0.191727 0
M  V30 19752 C 1841.32 -4.24552 0.0635332 0
M  V30 19753 O 1842.34 -3.55995 0.120955 0
M  V30 19754 O 1841.2 -5.4646 -0.0657772 0
M  V30 19755 H 1838.3 -0.825748 -0.0454921 0
M  V30 19756 H 1840.84 -1.56372 0.659223 0
M  V30 19757 H 1839.61 -3.72172 1.20846 0
M  V30 19758 H 1839.24 -3.94545 -0.491905 0
M  V30 19759 N 1840.23 -0.328564 -1.54137 0
M  V30 19760 C 1841.46 0.277044 -2.05541 0
M  V30 19761 C 1841.88 1.44613 -1.20285 0
M  V30 19762 O 1841.24 1.80043 -0.213107 0
M  V30 19763 C 1841.29 0.684495 -3.54044 0
M  V30 19764 O 1840.39 1.78629 -3.71706 0
M  V30 19765 H 1839.74 0.049078 -0.662184 0
M  V30 19766 H 1842.27 -0.478426 -1.98928 0
M  V30 19767 H 1842.28 0.965784 -3.96405 0
M  V30 19768 H 1840.95 -0.170554 -4.1555 0
M  V30 19769 H 1839.53 1.50343 -3.4125 0
M  V30 19770 N 1841.71 1.57497 -0.0568439 0
M  V30 19771 C 1842.94 1.97645 0.628589 0
M  V30 19772 C 1843.36 0.934424 1.63249 0
M  V30 19773 O 1842.72 -0.101706 1.81015 0
M  V30 19774 C 1842.77 3.36855 1.2869 0
M  V30 19775 O 1841.87 3.35182 2.40264 0
M  V30 19776 H 1841.21 0.643698 0.16294 0
M  V30 19777 H 1843.74 2.04206 -0.126927 0
M  V30 19778 H 1843.75 3.73708 1.63726 0
M  V30 19779 H 1842.43 4.12231 0.551203 0
M  V30 19780 H 1841.01 3.10081 2.07133 0
M  V30 19781 N 1843.19 -0.216591 1.56105 0
M  V30 19782 C 1844.42 -0.957013 1.83436 0
M  V30 19783 C 1844.83 -1.77743 0.636612 0
M  V30 19784 O 1844.19 -1.78178 -0.394833 0
M  V30 19785 C 1844.24 -1.87058 3.09341 0
M  V30 19786 O 1843.96 -1.08331 4.24495 0
M  V30 19787 C 1845.46 -2.72448 3.49695 0
M  V30 19788 H 1842.68 -0.280249 0.609673 0
M  V30 19789 H 1845.23 -0.230324 2.03199 0
M  V30 19790 H 1843.38 -2.55116 2.91539 0
M  V30 19791 H 1843.8 -1.70391 4.96052 0
M  V30 19792 H 1845.27 -3.32244 4.40815 0
M  V30 19793 H 1845.75 -3.4509 2.71679 0
M  V30 19794 H 1846.35 -2.09796 3.69954 0
M  V30 19795 N 1844.67 -1.5 -0.48349 0
M  V30 19796 C 1845.6 -1.70879 -1.5913 0
M  V30 19797 C 1846.58 -0.557606 -1.60701 0
M  V30 19798 O 1847.76 -0.79539 -1.77164 0
M  V30 19799 C 1844.89 -1.7915 -2.97527 0
M  V30 19800 C 1843.85 -2.94233 -3.10823 0
M  V30 19801 C 1843.17 -2.87634 -4.50745 0
M  V30 19802 C 1844.47 -4.34925 -2.89202 0
M  V30 19803 H 1846.17 -2.63632 -1.41911 0
M  V30 19804 H 1843.71 -1.26865 -0.68127 0
M  V30 19805 H 1845.67 -1.92342 -3.74943 0
M  V30 19806 H 1844.39 -0.830106 -3.15875 0
M  V30 19807 H 1843.05 -2.80672 -2.35837 0
M  V30 19808 H 1842.7 -1.89365 -4.65993 0
M  V30 19809 H 1842.4 -3.64885 -4.60579 0
M  V30 19810 H 1843.92 -3.02857 -5.30198 0
M  V30 19811 H 1845.34 -4.49076 -3.56376 0
M  V30 19812 H 1843.73 -5.13531 -3.10492 0
M  V30 19813 H 1844.8 -4.48154 -1.85165 0
M  V30 19814 N 1846.15 0.735796 -1.39369 0
M  V30 19815 C 1847.08 1.86303 -1.4076 0
M  V30 19816 C 1848.06 1.67926 -0.27107 0
M  V30 19817 O 1849.24 1.88257 -0.476773 0
M  V30 19818 C 1846.37 3.24043 -1.24955 0
M  V30 19819 C 1845.33 3.57055 -2.35999 0
M  V30 19820 C 1844.65 4.93723 -2.05284 0
M  V30 19821 C 1845.95 3.60109 -3.7831 0
M  V30 19822 H 1847.65 1.85396 -2.35093 0
M  V30 19823 H 1845.19 0.890552 -1.1316 0
M  V30 19824 H 1847.15 4.02574 -1.24549 0
M  V30 19825 H 1845.87 3.25475 -0.270902 0
M  V30 19826 H 1844.53 2.80853 -2.35621 0
M  V30 19827 H 1844.18 4.91734 -1.05859 0
M  V30 19828 H 1843.88 5.16779 -2.79667 0
M  V30 19829 H 1845.4 5.74612 -2.06527 0
M  V30 19830 H 1846.81 4.28718 -3.80622 0
M  V30 19831 H 1845.21 3.94683 -4.52046 0
M  V30 19832 H 1846.28 2.59932 -4.09345 0
M  V30 19833 N 1847.63 1.24532 0.965897 0
M  V30 19834 C 1848.59 1.04026 2.04233 0
M  V30 19835 C 1849.59 -0.00305855 1.608 0
M  V30 19836 O 1850.78 0.238077 1.72565 0
M  V30 19837 C 1847.91 0.577072 3.3598 0
M  V30 19838 H 1849.1 1.99569 2.23858 0
M  V30 19839 H 1846.66 1.0678 1.14139 0
M  V30 19840 H 1847.39 -0.381471 3.22049 0
M  V30 19841 H 1847.18 1.33012 3.6885 0
M  V30 19842 H 1848.67 0.45469 4.15117 0
M  V30 19843 N 1849.1 -1.16685 1.05936 0
M  V30 19844 C 1850.33 -1.91576 0.794558 0
M  V30 19845 C 1850.75 -1.76706 -0.644718 0
M  V30 19846 O 1850.11 -1.0899 -1.44882 0
M  V30 19847 C 1850.16 -3.40417 1.18947 0
M  V30 19848 O 1849.26 -4.11109 0.326091 0
M  V30 19849 H 1848.6 -0.596983 0.290702 0
M  V30 19850 H 1851.13 -1.47856 1.4142 0
M  V30 19851 H 1851.14 -3.91178 1.15947 0
M  V30 19852 H 1849.82 -3.5056 2.23786 0
M  V30 19853 H 1848.4 -3.70557 0.417347 0
M  V30 19854 N 1850.58 -0.841432 -1.33258 0
M  V30 19855 C 1851.99 -0.494767 -1.80025 0
M  V30 19856 C 1852.34 0.986416 -1.696 0
M  V30 19857 O 1851.47 1.76874 -1.24678 0
M  V30 19858 C 1852.06 -0.891306 -3.26866 0
M  V30 19859 C 1850.62 -0.59674 -3.7164 0
M  V30 19860 C 1849.77 -1.09825 -2.54625 0
M  V30 19861 H 1852.72 -1.02989 -1.20743 0
M  V30 19862 H 1852.74 -0.202371 -3.79961 0
M  V30 19863 H 1852.25 -1.96937 -3.34421 0
M  V30 19864 H 1850.35 0.471153 -3.69609 0
M  V30 19865 H 1850.47 -1.15377 -4.65 0
M  V30 19866 H 1848.83 -0.519011 -2.49356 0
M  V30 19867 H 1849.61 -2.18314 -2.64941 0
M  V30 19868 N 1852.06 1.4581 -0.598108 0
M  V30 19869 C 1852.99 2.27529 0.174933 0
M  V30 19870 C 1853.97 1.36565 0.882546 0
M  V30 19871 O 1855.15 1.65987 0.893332 0
M  V30 19872 C 1852.28 3.14698 1.25232 0
M  V30 19873 C 1851.33 4.21535 0.648877 0
M  V30 19874 S 1852.16 5.3281 -0.53603 0
M  V30 19875 C 1853.32 6.23547 0.542182 0
M  V30 19876 H 1853.55 2.92745 -0.518405 0
M  V30 19877 H 1851.08 1.49513 -0.385382 0
M  V30 19878 H 1853.04 3.65479 1.86909 0
M  V30 19879 H 1851.7 2.48764 1.91768 0
M  V30 19880 H 1850.89 4.82414 1.45922 0
M  V30 19881 H 1850.5 3.73846 0.107447 0
M  V30 19882 H 1852.79 6.6237 1.4238 0
M  V30 19883 H 1853.73 7.08094 -0.0302138 0
M  V30 19884 H 1854.14 5.58014 0.85325 0
M  V30 19885 N 1853.54 0.336733 1.53961 0
M  V30 19886 C 1854.47 -0.515664 2.27735 0
M  V30 19887 C 1855.45 -1.10835 1.29033 0
M  V30 19888 O 1856.63 -1.13102 1.57866 0
M  V30 19889 C 1853.76 -1.67015 3.04505 0
M  V30 19890 C 1852.72 -1.20613 4.10654 0
M  V30 19891 C 1852.04 -2.44861 4.75339 0
M  V30 19892 C 1853.34 -0.311507 5.2137 0
M  V30 19893 H 1855.04 0.0997513 2.99234 0
M  V30 19894 H 1852.58 0.0494157 1.43915 0
M  V30 19895 H 1854.54 -2.27286 3.54851 0
M  V30 19896 H 1853.26 -2.31236 2.30646 0
M  V30 19897 H 1851.92 -0.62628 3.61211 0
M  V30 19898 H 1851.57 -3.07474 3.98081 0
M  V30 19899 H 1851.27 -2.14498 5.47051 0
M  V30 19900 H 1852.79 -3.0587 5.28466 0
M  V30 19901 H 1854.21 -0.820868 5.67393 0
M  V30 19902 H 1852.6 -0.100073 6.00017 0
M  V30 19903 H 1853.67 0.654181 4.80467 0
M  V30 19904 N 1855.02 -1.57465 0.0651956 0
M  V30 19905 C 1855.96 -2.12345 -0.904345 0
M  V30 19906 C 1856.93 -1.03429 -1.29968 0
M  V30 19907 O 1858.12 -1.31055 -1.38669 0
M  V30 19908 C 1855.26 -2.68423 -2.16895 0
M  V30 19909 C 1854.37 -3.91472 -1.82684 0
M  V30 19910 C 1853.51 -4.35816 -3.03706 0
M  V30 19911 C 1852.54 -5.5153 -2.65482 0
M  V30 19912 N 1851.68 -5.90863 -3.79242 0
M  V30 19913 H 1856.52 -2.94889 -0.429468 0
M  V30 19914 H 1854.06 -1.45729 -0.200344 0
M  V30 19915 H 1856.02 -2.99041 -2.90913 0
M  V30 19916 H 1854.65 -1.88654 -2.61934 0
M  V30 19917 H 1853.7 -3.67357 -0.987564 0
M  V30 19918 H 1855.01 -4.75536 -1.50557 0
M  V30 19919 H 1854.16 -4.68062 -3.86009 0
M  V30 19920 H 1852.9 -3.50593 -3.39022 0
M  V30 19921 H 1851.91 -5.18943 -1.81598 0
M  V30 19922 H 1853.13 -6.3848 -2.31343 0
M  V30 19923 H 1851.08 -5.08591 -4.14332 0
M  V30 19924 H 1851 -6.69651 -3.50861 0
M  V30 19925 H 1852.26 -6.27729 -4.62144 0
M  V30 19926 N 1856.49 0.20831 -1.56217 0
M  V30 19927 C 1857.91 0.55859 -1.49506 0
M  V30 19928 C 1858.11 1.86504 -0.762784 0
M  V30 19929 O 1857.17 2.50616 -0.307868 0
M  V30 19930 C 1858.48 0.625557 -2.94121 0
M  V30 19931 C 1860.03 0.715289 -3.04717 0
M  V30 19932 C 1860.5 0.813485 -4.50718 0
M  V30 19933 N 1861.99 0.87736 -4.54815 0
M  V30 19934 C 1862.73 0.973279 -5.65079 0
M  V30 19935 N 1862.22 1.03232 -6.85066 0
M  V30 19936 N 1864.02 1.00944 -5.52962 0
M  V30 19937 H 1856.17 -0.648826 -2.02247 0
M  V30 19938 H 1858.43 -0.229425 -0.91982 0
M  V30 19939 H 1858.14 -0.265056 -3.507 0
M  V30 19940 H 1858.01 1.48473 -3.4675 0
M  V30 19941 H 1860.4 1.59634 -2.48196 0
M  V30 19942 H 1860.48 -0.169818 -2.55236 0
M  V30 19943 H 1860.12 -0.0631602 -5.07861 0
M  V30 19944 H 1860.05 1.7142 -4.97918 0
M  V30 19945 H 1862.54 0.841513 -3.68411 0
M  V30 19946 H 1862.86 1.10566 -7.6485 0
M  V30 19947 H 1861.2 1.00122 -6.8775 0
M  V30 19948 H 1864.39 0.960065 -4.58149 0
M  V30 19949 H 1864.57 1.08074 -6.38924 0
M  V30 19950 N 1857.97 1.50255 0.475528 0
M  V30 19951 C 1859.22 1.61022 1.22793 0
M  V30 19952 C 1859.55 0.308508 1.92038 0
M  V30 19953 O 1858.8 -0.70533 1.82547 0
M  V30 19954 C 1859.1 2.73698 2.29835 0
M  V30 19955 C 1858.77 4.14333 1.77873 0
M  V30 19956 C 1857.43 4.526 1.63423 0
M  V30 19957 C 1859.78 5.02247 1.39275 0
M  V30 19958 C 1857.11 5.76525 1.08791 0
M  V30 19959 C 1859.46 6.26715 0.860869 0
M  V30 19960 C 1858.12 6.63788 0.702959 0
M  V30 19961 H 1857.39 0.589221 0.449332 0
M  V30 19962 H 1860.04 1.84173 0.524633 0
M  V30 19963 H 1858.35 2.44617 3.06055 0
M  V30 19964 H 1860.04 2.79233 2.87802 0
M  V30 19965 H 1856.63 3.84142 1.90087 0
M  V30 19966 H 1860.82 4.73319 1.49276 0
M  V30 19967 H 1856.07 6.03927 0.952987 0
M  V30 19968 H 1860.25 6.942 0.553109 0
M  V30 19969 H 1857.87 7.59693 0.277471 0
M  V30 19970 N 1859.45 -0.728395 1.39758 0
M  V30 19971 C 1860.68 -1.5176 1.40629 0
M  V30 19972 C 1861.09 -1.888 0.00253909 0
M  V30 19973 O 1860.45 -1.54561 -0.970428 0
M  V30 19974 C 1860.5 -2.80102 2.28528 0
M  V30 19975 O 1860.22 -2.44633 3.63436 0
M  V30 19976 C 1861.72 -3.74087 2.37853 0
M  V30 19977 H 1858.94 -0.468767 0.480103 0
M  V30 19978 H 1861.49 -0.89953 1.83654 0
M  V30 19979 H 1859.64 -3.38225 1.88898 0
M  V30 19980 H 1860.06 -3.27124 4.09988 0
M  V30 19981 H 1861.53 -4.61017 3.03591 0
M  V30 19982 H 1862.01 -4.163 1.39968 0
M  V30 19983 H 1862.61 -3.2188 2.7798 0
M  V30 19984 N 1860.93 -1.25042 -0.959279 0
M  V30 19985 C 1862.17 -1.10684 -1.70647 0
M  V30 19986 C 1862.53 0.349371 -1.89201 0
M  V30 19987 O 1861.82 1.25413 -1.44852 0
M  V30 19988 C 1862.02 -1.78948 -3.09374 0
M  V30 19989 C 1861.84 -3.31058 -3.04353 0
M  V30 19990 C 1860.61 -4.00297 -3.08367 0
M  V30 19991 C 1862.81 -4.27526 -2.85878 0
M  V30 19992 N 1860.79 -5.3922 -2.93454 0
M  V30 19993 C 1862.17 -5.53502 -2.79349 0
M  V30 19994 C 1864.22 -4.17998 -2.70523 0
M  V30 19995 C 1862.92 -6.7104 -2.59033 0
M  V30 19996 C 1864.95 -5.35222 -2.51577 0
M  V30 19997 C 1864.31 -6.60136 -2.45764 0
M  V30 19998 H 1860.41 -0.4597 -0.632613 0
M  V30 19999 H 1862.99 -1.58077 -1.13665 0
M  V30 20000 H 1861.17 -1.34057 -3.64532 0
M  V30 20001 H 1862.9 -1.57374 -3.72848 0
M  V30 20002 H 1859.65 -3.51523 -3.17378 0
M  V30 20003 H 1860.08 -6.12114 -2.89215 0
M  V30 20004 H 1864.72 -3.22175 -2.73794 0
M  V30 20005 H 1862.44 -7.66977 -2.54504 0
M  V30 20006 H 1866.02 -5.29707 -2.40627 0
M  V30 20007 H 1864.9 -7.49315 -2.31294 0
M  V30 20008 N 1862.41 1.16121 -1.06553 0
M  V30 20009 C 1863.63 1.90611 -0.804673 0
M  V30 20010 C 1864.05 1.77576 0.641255 0
M  V30 20011 O 1863.41 1.12218 1.43921 0
M  V30 20012 C 1863.46 3.41231 -1.19348 0
M  V30 20013 O 1863.18 3.53879 -2.58266 0
M  V30 20014 C 1864.68 4.32764 -0.960738 0
M  V30 20015 H 1861.9 0.604358 -0.291534 0
M  V30 20016 H 1864.44 1.47174 -1.41986 0
M  V30 20017 H 1862.6 3.82361 -0.622772 0
M  V30 20018 H 1863.01 4.47298 -2.73907 0
M  V30 20019 H 1864.49 5.36898 -1.28238 0
M  V30 20020 H 1864.96 4.39078 0.103389 0
M  V30 20021 H 1865.57 3.97365 -1.51595 0
M  V30 20022 N 1863.88 0.848487 1.3281 0
M  V30 20023 C 1865.16 0.370395 1.92061 0
M  V30 20024 C 1865.54 -1.14535 1.77327 0
M  V30 20025 O 1864.89 -1.96419 1.16756 0
M  V30 20026 C 1865.1 0.827934 3.39037 0
M  V30 20027 C 1866.45 0.841527 4.16177 0
M  V30 20028 O 1867.47 0.772167 3.4773 0
M  V30 20029 O 1866.33 0.938119 5.38388 0
M  V30 20030 H 1863.42 0.106809 0.820074 0
M  V30 20031 H 1865.97 0.934979 1.4162 0
M  V30 20032 H 1864.74 1.87089 3.43676 0
M  V30 20033 H 1864.37 0.240456 3.96872 0
M  V30 20034 N 1865.36 -1.4549 0.605832 0
M  V30 20035 C 1866.59 -2.07135 0.104838 0
M  V30 20036 C 1867.01 -1.4478 -1.20085 0
M  V30 20037 O 1866.37 -0.539875 -1.73075 0
M  V30 20038 C 1866.42 -3.60593 -0.0231858 0
M  V30 20039 O 1865.52 -3.98173 -1.07386 0
M  V30 20040 H 1864.86 -0.659945 0.0732691 0
M  V30 20041 H 1867.39 -1.8677 0.835343 0
M  V30 20042 H 1867.4 -4.07396 -0.221964 0
M  V30 20043 H 1866.08 -4.05364 0.930211 0
M  V30 20044 H 1864.66 -3.63044 -0.851689 0
M  V30 20045 N 1866.84 -0.344893 -1.5378 0
M  V30 20046 C 1867.79 0.511269 -2.25066 0
M  V30 20047 C 1868.76 1.09446 -1.24944 0
M  V30 20048 O 1869.94 1.13082 -1.53679 0
M  V30 20049 C 1867.08 1.65563 -3.02792 0
M  V30 20050 C 1866.2 1.09962 -4.17771 0
M  V30 20051 C 1865.33 2.21139 -4.82981 0
M  V30 20052 C 1864.37 1.62897 -5.90026 0
M  V30 20053 N 1863.51 2.67822 -6.49011 0
M  V30 20054 H 1868.35 -0.103166 -2.97821 0
M  V30 20055 H 1865.88 -0.0626846 -1.46966 0
M  V30 20056 H 1867.84 2.32936 -3.46117 0
M  V30 20057 H 1866.47 2.24103 -2.32331 0
M  V30 20058 H 1865.52 0.316786 -3.79079 0
M  V30 20059 H 1866.84 0.633622 -4.94759 0
M  V30 20060 H 1865.99 2.96375 -5.29383 0
M  V30 20061 H 1864.73 2.71083 -4.0542 0
M  V30 20062 H 1863.73 0.861672 -5.43006 0
M  V30 20063 H 1864.96 1.13803 -6.69497 0
M  V30 20064 H 1862.9 3.17018 -5.74313 0
M  V30 20065 H 1862.82 2.25848 -7.21477 0
M  V30 20066 H 1864.09 3.42822 -7.00066 0
M  V30 20067 N 1868.32 1.57428 -0.0735454 0
M  V30 20068 C 1869.73 1.80973 0.458858 0
M  V30 20069 C 1870.08 0.987586 1.69532 0
M  V30 20070 O 1869.21 0.210611 2.15373 0
M  V30 20071 C 1869.8 3.28241 0.839246 0
M  V30 20072 C 1868.36 3.52626 1.3165 0
M  V30 20073 C 1867.51 2.75645 0.302533 0
M  V30 20074 H 1870.46 1.55854 -0.299225 0
M  V30 20075 H 1870.48 3.40386 1.70052 0
M  V30 20076 H 1869.99 3.88052 -0.0608625 0
M  V30 20077 H 1868.09 2.98121 2.23505 0
M  V30 20078 H 1868.2 4.61316 1.29322 0
M  V30 20079 H 1866.57 2.42457 0.780179 0
M  V30 20080 H 1867.35 3.38194 -0.589878 0
M  V30 20081 N 1869.8 -0.200022 1.56326 0
M  V30 20082 C 1870.74 -1.24792 1.94154 0
M  V30 20083 C 1871.71 -1.45484 0.801474 0
M  V30 20084 O 1872.9 -1.58699 1.05921 0
M  V30 20085 C 1870.04 -2.5887 2.28211 0
M  V30 20086 C 1869.15 -2.45798 3.55257 0
M  V30 20087 C 1868.29 -3.72546 3.78659 0
M  V30 20088 C 1867.33 -3.54286 4.99147 0
M  V30 20089 N 1866.46 -4.73034 5.18829 0
M  V30 20090 H 1871.3 -0.918324 2.83497 0
M  V30 20091 H 1868.84 -0.442097 1.40299 0
M  V30 20092 H 1870.8 -3.36977 2.45972 0
M  V30 20093 H 1869.43 -2.89883 1.42014 0
M  V30 20094 H 1868.48 -1.59013 3.4557 0
M  V30 20095 H 1869.79 -2.28236 4.4352 0
M  V30 20096 H 1868.95 -4.59094 3.96633 0
M  V30 20097 H 1867.68 -3.93057 2.88717 0
M  V30 20098 H 1866.69 -2.66123 4.81102 0
M  V30 20099 H 1867.91 -3.35225 5.90594 0
M  V30 20100 H 1865.86 -4.93818 4.31834 0
M  V30 20101 H 1865.78 -4.58279 6.01262 0
M  V30 20102 H 1867.05 -5.60947 5.41257 0
M  V30 20103 N 1871.27 -1.50505 -0.467553 0
M  V30 20104 C 1872.24 -1.69071 -1.54751 0
M  V30 20105 C 1873.24 -0.561325 -1.50684 0
M  V30 20106 O 1874.43 -0.828412 -1.53242 0
M  V30 20107 C 1871.56 -1.71922 -2.94373 0
M  V30 20108 H 1872.75 -2.65425 -1.39605 0
M  V30 20109 H 1870.31 -1.40039 -0.694177 0
M  V30 20110 H 1871.04 -0.772734 -3.14959 0
M  V30 20111 H 1870.83 -2.53972 -2.98732 0
M  V30 20112 H 1872.32 -1.88228 -3.72773 0
M  V30 20113 N 1872.75 0.720973 -1.40142 0
M  V30 20114 C 1873.98 1.51519 -1.41622 0
M  V30 20115 C 1874.4 1.88093 -0.0162669 0
M  V30 20116 O 1873.76 1.52895 0.974307 0
M  V30 20117 C 1873.81 2.77041 -2.30826 0
M  V30 20118 O 1872.91 3.73532 -1.74779 0
M  V30 20119 H 1872.25 0.457034 -0.481681 0
M  V30 20120 H 1874.78 0.88837 -1.84307 0
M  V30 20121 H 1874.79 3.25628 -2.45826 0
M  V30 20122 H 1873.47 2.49755 -3.32558 0
M  V30 20123 H 1872.05 3.32356 -1.69097 0
M  V30 20124 N 1874.23 1.25549 0.952634 0
M  V30 20125 C 1875.16 1.08592 2.06712 0
M  V30 20126 C 1876.14 -0.00560571 1.70099 0
M  V30 20127 O 1877.33 0.164299 1.93504 0
M  V30 20128 C 1874.46 0.705984 3.40049 0
M  V30 20129 C 1873.41 1.74797 3.90679 0
M  V30 20130 C 1872.74 1.22266 5.20533 0
M  V30 20131 C 1874.04 3.14717 4.16834 0
M  V30 20132 H 1875.73 2.01816 2.21157 0
M  V30 20133 H 1873.28 0.971723 1.06271 0
M  V30 20134 H 1875.23 0.57428 4.17469 0
M  V30 20135 H 1873.95 -0.261964 3.25548 0
M  V30 20136 H 1872.61 1.86815 3.1543 0
M  V30 20137 H 1872.26 0.244887 5.02404 0
M  V30 20138 H 1871.96 1.9191 5.55377 0
M  V30 20139 H 1873.48 1.10339 6.00548 0
M  V30 20140 H 1874.9 3.05842 4.84906 0
M  V30 20141 H 1873.3 3.81849 4.62938 0
M  V30 20142 H 1874.37 3.61629 3.23037 0
M  V30 20143 N 1875.71 -1.15554 1.07168 0
M  V30 20144 C 1876.66 -2.20234 0.690348 0
M  V30 20145 C 1877.63 -1.6304 -0.317346 0
M  V30 20146 O 1878.81 -1.89704 -0.20422 0
M  V30 20147 C 1875.95 -3.44976 0.0923404 0
M  V30 20148 C 1875.06 -4.16377 1.15128 0
M  V30 20149 C 1874.2 -5.28664 0.518478 0
M  V30 20150 C 1873.24 -5.91878 1.56034 0
M  V30 20151 N 1872.37 -6.9564 0.950251 0
M  V30 20152 H 1877.21 -2.52203 1.58738 0
M  V30 20153 H 1874.75 -1.23863 0.793502 0
M  V30 20154 H 1876.71 -4.16312 -0.271985 0
M  V30 20155 H 1875.34 -3.1353 -0.768054 0
M  V30 20156 H 1874.39 -3.43556 1.63321 0
M  V30 20157 H 1875.7 -4.59472 1.94132 0
M  V30 20158 H 1874.86 -6.06615 0.101683 0
M  V30 20159 H 1873.6 -4.86756 -0.303345 0
M  V30 20160 H 1872.6 -5.12641 1.98694 0
M  V30 20161 H 1873.83 -6.35864 2.38442 0
M  V30 20162 H 1871.77 -6.5583 0.149298 0
M  V30 20163 H 1871.69 -7.37153 1.67755 0
M  V30 20164 H 1872.96 -7.77494 0.558895 0
M  V30 20165 N 1877.19 -0.855519 -1.32358 0
M  V30 20166 C 1878.44 -0.455543 -1.96488 0
M  V30 20167 C 1878.75 0.99419 -1.68449 0
M  V30 20168 O 1879.96 1.49964 -2.26325 0
M  V30 20169 C 1878.41 -0.763678 -3.51704 0
M  V30 20170 C 1878.02 -2.2292 -3.88601 0
M  V30 20171 C 1879.76 -0.431467 -4.22302 0
M  V30 20172 C 1877.67 -2.48051 -5.36866 0
M  V30 20173 H 1876.6 -0.166617 -0.73536 0
M  V30 20174 H 1879.25 -1.04642 -1.50739 0
M  V30 20175 H 1877.63 -0.102224 -3.95868 0
M  V30 20176 H 1878.81 -2.93251 -3.55444 0
M  V30 20177 H 1877.12 -2.52602 -3.31031 0
M  V30 20178 H 1879.72 -0.596641 -5.31361 0
M  V30 20179 H 1880.06 0.62698 -4.11552 0
M  V30 20180 H 1880.6 -1.04885 -3.83724 0
M  V30 20181 H 1877.33 -3.52523 -5.52637 0
M  V30 20182 H 1876.85 -1.82298 -5.71426 0
M  V30 20183 H 1878.53 -2.32044 -6.03957 0
M  V30 20184 N 1878.67 1.45167 -0.61354 0
M  V30 20185 C 1879.94 1.95553 -0.042781 0
M  V30 20186 C 1880.32 1.55588 1.42673 0
M  V30 20187 O 1879.67 0.821325 2.13229 0
M  V30 20188 C 1879.88 3.48124 -0.247141 0
M  V30 20189 C 1881.23 4.24398 -0.131068 0
M  V30 20190 O 1882.25 3.55757 -0.177576 0
M  V30 20191 O 1881.11 5.46496 -0.0211683 0
M  V30 20192 H 1878.21 0.826367 0.0323494 0
M  V30 20193 H 1880.75 1.55304 -0.684017 0
M  V30 20194 H 1879.52 3.70202 -1.26751 0
M  V30 20195 H 1879.15 3.95278 0.429074 0
M  V30 20196 N 1880.14 0.353044 1.53595 0
M  V30 20197 C 1881.07 -0.491481 2.28269 0
M  V30 20198 C 1882.05 -1.0946 1.30201 0
M  V30 20199 O 1883.24 -1.11421 1.59056 0
M  V30 20200 C 1880.37 -1.63776 3.06259 0
M  V30 20201 C 1879.32 -1.16251 4.1191 0
M  V30 20202 C 1878.65 -2.39805 4.7791 0
M  V30 20203 C 1879.95 -0.256191 5.21671 0
M  V30 20204 H 1881.64 0.131483 2.99111 0
M  V30 20205 H 1879.19 0.0646771 1.43855 0
M  V30 20206 H 1881.14 -2.2351 3.57241 0
M  V30 20207 H 1879.87 -2.28777 2.33085 0
M  V30 20208 H 1878.53 -0.587934 3.61855 0
M  V30 20209 H 1878.17 -3.03234 4.0132 0
M  V30 20210 H 1877.87 -2.08684 5.49295 0
M  V30 20211 H 1879.4 -3.00248 5.3168 0
M  V30 20212 H 1880.81 -0.760642 5.68232 0
M  V30 20213 H 1879.21 -0.0364273 6.00089 0
M  V30 20214 H 1880.28 0.705105 4.79746 0
M  V30 20215 N 1881.62 -1.57387 0.0818932 0
M  V30 20216 C 1883.04 -1.57217 -0.274755 0
M  V30 20217 C 1883.24 -1.09207 -1.6934 0
M  V30 20218 O 1882.29 -0.762532 -2.40711 0
M  V30 20219 C 1883.61 -3.00606 -0.075209 0
M  V30 20220 C 1885.15 -3.12669 -0.143973 0
M  V30 20221 C 1885.63 -4.57992 0.0274161 0
M  V30 20222 N 1887.12 -4.63192 -0.0278563 0
M  V30 20223 C 1887.86 -5.73344 0.0801936 0
M  V30 20224 N 1887.35 -6.92376 0.242334 0
M  V30 20225 N 1889.14 -5.62096 0.0224057 0
M  V30 20226 H 1881.3 -1.86907 1.00894 0
M  V30 20227 H 1883.56 -0.8621 0.39432 0
M  V30 20228 H 1883.26 -3.39881 0.904105 0
M  V30 20229 H 1883.14 -3.68107 -0.823213 0
M  V30 20230 H 1885.53 -2.73274 -1.11378 0
M  V30 20231 H 1885.61 -2.47785 0.635303 0
M  V30 20232 H 1885.25 -4.98078 0.994034 0
M  V30 20233 H 1885.18 -5.2092 -0.77139 0
M  V30 20234 H 1887.67 -3.77598 -0.151172 0
M  V30 20235 H 1887.98 -7.72151 0.316652 0
M  V30 20236 H 1886.33 -6.94444 0.277829 0
M  V30 20237 H 1889.52 -4.67987 -0.103039 0
M  V30 20238 H 1889.69 -6.47907 0.110065 0
M  V30 20239 N 1883.1 0.191729 -1.56429 0
M  V30 20240 C 1884.35 0.912948 -1.81089 0
M  V30 20241 C 1884.68 1.82767 -0.656483 0
M  V30 20242 O 1883.95 1.91456 0.342779 0
M  V30 20243 C 1884.24 1.72628 -3.16025 0
M  V30 20244 C 1884.09 0.836045 -4.41962 0
M  V30 20245 C 1885.41 2.69818 -3.47687 0
M  V30 20246 H 1882.53 0.33046 -0.658761 0
M  V30 20247 H 1885.17 0.180148 -1.89144 0
M  V30 20248 H 1883.32 2.35102 -3.09289 0
M  V30 20249 H 1884.99 0.225751 -4.60747 0
M  V30 20250 H 1883.23 0.142944 -4.33564 0
M  V30 20251 H 1883.91 1.44019 -5.32881 0
M  V30 20252 H 1886.38 2.17475 -3.54745 0
M  V30 20253 H 1885.26 3.23806 -4.43216 0
M  V30 20254 H 1885.52 3.49028 -2.71352 0
M  V30 20255 N 1884.58 1.50751 0.459565 0
M  V30 20256 C 1885.81 1.66089 1.23377 0
M  V30 20257 C 1886.22 0.348952 1.85547 0
M  V30 20258 O 1885.58 -0.670323 1.69744 0
M  V30 20259 C 1885.63 2.76047 2.3341 0
M  V30 20260 O 1885.35 4.02156 1.73787 0
M  V30 20261 C 1886.85 3.02461 3.24087 0
M  V30 20262 H 1884.07 0.557971 0.372705 0
M  V30 20263 H 1886.61 1.97042 0.547242 0
M  V30 20264 H 1884.77 2.47756 2.97818 0
M  V30 20265 H 1885.18 4.63055 2.46335 0
M  V30 20266 H 1886.66 3.83034 3.97478 0
M  V30 20267 H 1887.13 2.13984 3.83546 0
M  V30 20268 H 1887.74 3.32326 2.65404 0
M  V30 20269 N 1886.06 -0.713531 1.40522 0
M  V30 20270 C 1887.28 -1.50766 1.42423 0
M  V30 20271 C 1887.71 -1.88082 0.0262417 0
M  V30 20272 O 1887.06 -1.5341 -0.966185 0
M  V30 20273 C 1887.11 -2.75813 2.32291 0
M  V30 20274 O 1886.22 -3.726 1.76758 0
M  V30 20275 H 1885.56 -0.454473 0.484098 0
M  V30 20276 H 1888.09 -0.878583 1.84776 0
M  V30 20277 H 1888.1 -3.2432 2.47549 0
M  V30 20278 H 1886.77 -2.47988 3.33878 0
M  V30 20279 H 1885.35 -3.31455 1.70857 0
M  V30 20280 N 1887.53 -1.26053 -0.945962 0
M  V30 20281 C 1888.48 -1.07194 -2.04397 0
M  V30 20282 C 1889.45 0.0215796 -1.66086 0
M  V30 20283 O 1890.64 -0.137272 -1.90306 0
M  V30 20284 C 1887.78 -0.705915 -3.37803 0
M  V30 20285 C 1886.89 -1.87519 -3.89179 0
M  V30 20286 C 1886.02 -1.45272 -5.1095 0
M  V30 20287 C 1885.06 -2.59059 -5.54576 0
M  V30 20288 N 1884.2 -2.17527 -6.67552 0
M  V30 20289 H 1889.04 -2.01159 -2.19861 0
M  V30 20290 H 1886.58 -1.00162 -1.07731 0
M  V30 20291 H 1888.53 -0.474611 -4.14492 0
M  V30 20292 H 1887.16 0.196761 -3.222 0
M  V30 20293 H 1886.22 -2.21956 -3.08933 0
M  V30 20294 H 1887.53 -2.7294 -4.17499 0
M  V30 20295 H 1886.68 -1.18158 -5.95083 0
M  V30 20296 H 1885.42 -0.569345 -4.84365 0
M  V30 20297 H 1884.43 -2.86908 -4.69003 0
M  V30 20298 H 1885.65 -3.47989 -5.83164 0
M  V30 20299 H 1883.6 -1.31618 -6.42661 0
M  V30 20300 H 1883.51 -2.96493 -6.95433 0
M  V30 20301 H 1884.78 -1.93612 -7.55073 0
M  V30 20302 N 1889.01 1.14984 -1.07779 0
M  V30 20303 C 1890.24 1.90288 -0.824935 0
M  V30 20304 C 1890.66 1.77709 0.616524 0
M  V30 20305 O 1890.02 1.11281 1.4313 0
M  V30 20306 C 1890.07 3.38482 -1.24348 0
M  V30 20307 O 1889.17 4.10538 -0.391454 0
M  V30 20308 H 1888.51 0.592283 -0.300162 0
M  V30 20309 H 1891.04 1.45588 -1.43755 0
M  V30 20310 H 1891.05 3.89284 -1.22155 0
M  V30 20311 H 1889.73 3.46956 -2.29335 0
M  V30 20312 H 1888.3 3.69846 -0.476247 0
M  V30 20313 N 1890.49 0.862526 1.31902 0
M  V30 20314 C 1891.44 0.31091 2.28696 0
M  V30 20315 C 1892.41 -0.586495 1.55401 0
M  V30 20316 O 1893.59 -0.519727 1.83585 0
M  V30 20317 C 1890.73 -0.487986 3.41632 0
M  V30 20318 C 1889.84 0.436096 4.29793 0
M  V30 20319 C 1888.98 -0.376197 5.29866 0
M  V30 20320 C 1888.02 0.544784 6.09671 0
M  V30 20321 N 1887.16 -0.230806 7.01721 0
M  V30 20322 H 1892 1.14156 2.75268 0
M  V30 20323 H 1889.53 0.574352 1.35424 0
M  V30 20324 H 1891.49 -0.966875 4.05842 0
M  V30 20325 H 1890.12 -1.28339 2.96191 0
M  V30 20326 H 1889.17 1.03341 3.66094 0
M  V30 20327 H 1890.48 1.14259 4.85537 0
M  V30 20328 H 1889.64 -0.917915 5.99716 0
M  V30 20329 H 1888.38 -1.11602 4.74759 0
M  V30 20330 H 1887.38 1.09832 5.38718 0
M  V30 20331 H 1888.61 1.28334 6.66864 0
M  V30 20332 H 1886.55 -0.95358 6.49032 0
M  V30 20333 H 1886.47 0.416499 7.54852 0
M  V30 20334 H 1887.74 -0.753996 7.75845 0
M  V30 20335 N 1891.97 -1.4484 0.62123 0
M  V30 20336 C 1892.88 -2.34423 -0.0910566 0
M  V30 20337 C 1893.89 -1.52042 -0.846121 0
M  V30 20338 O 1895.07 -1.84802 -0.800625 0
M  V30 20339 C 1892.14 -3.29874 -1.06696 0
M  V30 20340 C 1891.2 -4.28162 -0.312354 0
M  V30 20341 C 1890.43 -5.19053 -1.24177 0
M  V30 20342 O 1890.65 -5.13659 -2.48014 0
M  V30 20343 O 1889.59 -5.97439 -0.731442 0
M  V30 20344 H 1893.41 -2.96761 0.645493 0
M  V30 20345 H 1891 -1.44448 0.381445 0
M  V30 20346 H 1892.88 -3.88654 -1.62867 0
M  V30 20347 H 1891.55 -2.70083 -1.78429 0
M  V30 20348 H 1890.46 -3.72957 0.292161 0
M  V30 20349 H 1891.79 -4.90847 0.364763 0
M  V30 20350 N 1893.45 -0.361184 -1.53405 0
M  V30 20351 C 1894.67 0.233383 -2.06083 0
M  V30 20352 C 1895.1 1.42029 -1.23326 0
M  V30 20353 O 1894.45 1.79551 -0.251249 0
M  V30 20354 C 1894.5 0.609243 -3.55416 0
M  V30 20355 O 1893.61 1.70705 -3.75411 0
M  V30 20356 H 1892.95 0.035021 -0.663076 0
M  V30 20357 H 1895.48 -0.520514 -1.97868 0
M  V30 20358 H 1895.49 0.881483 -3.98364 0
M  V30 20359 H 1894.16 -0.25866 -4.15095 0
M  V30 20360 H 1892.74 1.4307 -3.44362 0
M  V30 20361 N 1894.92 1.57341 -0.0902386 0
M  V30 20362 C 1896.17 1.93793 0.573474 0
M  V30 20363 C 1896.49 0.972444 1.69022 0
M  V30 20364 O 1895.76 0.0236753 1.95886 0
M  V30 20365 H 1894.34 0.715442 0.21483 0
M  V30 20366 H 1897.01 1.94303 -0.15243 0
M  V30 20367 H 1896.1 2.96088 0.986829 0
M  V30 20368 N 1896.4 -0.183431 1.56529 0
M  V30 20369 C 1897.33 -1.22973 1.98494 0
M  V30 20370 C 1898.31 -1.46837 0.858653 0
M  V30 20371 O 1899.5 -1.58377 1.12385 0
M  V30 20372 C 1896.63 -2.57138 2.33446 0
M  V30 20373 C 1895.58 -2.47865 3.48922 0
M  V30 20374 C 1894.91 -3.8641 3.69582 0
M  V30 20375 C 1896.21 -1.99371 4.82751 0
M  V30 20376 H 1897.9 -0.880938 2.86147 0
M  V30 20377 H 1895.45 -0.422321 1.37668 0
M  V30 20378 H 1897.4 -3.30527 2.614 0
M  V30 20379 H 1896.13 -2.93781 1.42689 0
M  V30 20380 H 1894.78 -1.76932 3.21077 0
M  V30 20381 H 1894.43 -4.20426 2.76136 0
M  V30 20382 H 1894.13 -3.81077 4.47274 0
M  V30 20383 H 1895.66 -4.61403 3.99924 0
M  V30 20384 H 1897.07 -2.62526 5.0966 0
M  V30 20385 H 1895.47 -2.05014 5.63994 0
M  V30 20386 H 1896.54 -0.947442 4.75554 0
M  V30 20387 N 1897.88 -1.50992 -0.451564 0
M  V30 20388 C 1899.11 -1.67021 -1.22958 0
M  V30 20389 C 1899.53 -0.36115 -1.846 0
M  V30 20390 O 1898.89 0.677193 -1.68178 0
M  V30 20391 C 1898.94 -2.77744 -2.29979 0
M  V30 20392 O 1898.04 -2.40356 -3.35116 0
M  V30 20393 H 1897.38 -0.557369 -0.360882 0
M  V30 20394 H 1899.91 -1.97479 -0.535073 0
M  V30 20395 H 1899.92 -3.01406 -2.74988 0
M  V30 20396 H 1898.6 -3.72742 -1.84488 0
M  V30 20397 H 1897.17 -2.27214 -2.95683 0
M  V30 20398 N 1899.36 0.706069 -1.40899 0
M  V30 20399 C 1900.64 1.45984 -1.30185 0
M  V30 20400 C 1901.02 2.10965 0.0754423 0
M  V30 20401 O 1900.36 2.00883 1.08896 0
M  V30 20402 C 1900.57 2.48782 -2.44762 0
M  V30 20403 C 1901.92 3.14339 -2.85441 0
M  V30 20404 O 1902.95 2.59104 -2.44425 0
M  V30 20405 O 1901.8 4.14354 -3.56333 0
M  V30 20406 H 1898.9 0.649628 -0.511774 0
M  V30 20407 H 1901.44 0.737436 -1.5284 0
M  V30 20408 H 1900.22 1.99346 -3.36715 0
M  V30 20409 H 1899.84 3.28545 -2.23929 0
M  V30 20410 N 1900.84 1.26553 0.939264 0
M  V30 20411 C 1902.08 1.12376 1.68818 0
M  V30 20412 C 1902.42 -0.331784 1.91345 0
M  V30 20413 O 1901.69 -1.24359 1.4955 0
M  V30 20414 C 1901.97 1.89541 3.0618 0
M  V30 20415 C 1901.83 3.43014 2.90966 0
M  V30 20416 C 1903.15 1.69074 4.06327 0
M  V30 20417 H 1900.26 0.409616 0.612686 0
M  V30 20418 H 1902.91 1.55571 1.09076 0
M  V30 20419 H 1901.06 1.5283 3.57177 0
M  V30 20420 H 1902.73 3.89489 2.47176 0
M  V30 20421 H 1900.97 3.69942 2.26551 0
M  V30 20422 H 1901.64 3.92236 3.88401 0
M  V30 20423 H 1904.12 2.01061 3.64299 0
M  V30 20424 H 1902.99 2.25478 5.00451 0
M  V30 20425 H 1903.26 0.635787 4.37504 0
M  V30 20426 N 1902.31 -1.14411 1.08387 0
M  V30 20427 C 1903.54 -1.89848 0.835015 0
M  V30 20428 C 1903.96 -1.78034 -0.607091 0
M  V30 20429 O 1903.32 -1.12039 -1.42538 0
M  V30 20430 C 1903.37 -3.37818 1.26141 0
M  V30 20431 O 1902.47 -4.10325 0.41322 0
M  V30 20432 H 1901.82 -0.590682 0.303299 0
M  V30 20433 H 1904.35 -1.44823 1.44525 0
M  V30 20434 H 1904.36 -3.88631 1.24218 0
M  V30 20435 H 1903.03 -3.45735 2.31172 0
M  V30 20436 H 1901.61 -3.69589 0.495854 0
M  V30 20437 N 1903.79 -0.869509 -1.31443 0
M  V30 20438 C 1905.21 -0.561369 -1.49402 0
M  V30 20439 C 1905.41 0.90461 -1.80053 0
M  V30 20440 O 1904.46 1.68681 -1.87891 0
M  V30 20441 C 1905.78 -1.46118 -2.62812 0
M  V30 20442 C 1907.33 -1.46317 -2.76695 0
M  V30 20443 C 1907.8 -2.34855 -3.93201 0
M  V30 20444 N 1909.29 -2.32732 -4.00487 0
M  V30 20445 C 1910.03 -2.97959 -4.89906 0
M  V30 20446 N 1909.52 -3.72353 -5.8423 0
M  V30 20447 N 1911.32 -2.8727 -4.83149 0
M  V30 20448 H 1903.47 -1.81808 -1.09816 0
M  V30 20449 H 1905.73 -0.777367 -0.542591 0
M  V30 20450 H 1905.44 -2.5043 -2.46936 0
M  V30 20451 H 1905.31 -1.15938 -3.5894 0
M  V30 20452 H 1907.7 -0.427634 -2.91985 0
M  V30 20453 H 1907.78 -1.8052 -1.81235 0
M  V30 20454 H 1907.42 -3.38485 -3.78669 0
M  V30 20455 H 1907.35 -1.97976 -4.87968 0
M  V30 20456 H 1909.84 -1.78657 -3.33002 0
M  V30 20457 H 1910.16 -4.19253 -6.4919 0
M  V30 20458 H 1908.5 -3.76461 -5.8421 0
M  V30 20459 H 1911.69 -2.28689 -4.08435 0
M  V30 20460 H 1911.86 -3.38383 -5.52631 0
M  V30 20461 N 1905.27 1.44508 -0.628902 0
M  V30 20462 C 1906.68 1.85457 -0.215122 0
M  V30 20463 C 1907.03 1.52619 1.23296 0
M  V30 20464 O 1906.16 0.963178 1.93783 0
M  V30 20465 C 1906.75 3.36621 -0.383645 0
M  V30 20466 C 1905.31 3.76392 -0.0243904 0
M  V30 20467 C 1904.46 2.68369 -0.698081 0
M  V30 20468 H 1907.41 1.35006 -0.834208 0
M  V30 20469 H 1907.43 3.78617 0.378049 0
M  V30 20470 H 1906.94 3.6049 -1.43767 0
M  V30 20471 H 1905.04 3.58139 1.02798 0
M  V30 20472 H 1905.16 4.7714 -0.432898 0
M  V30 20473 H 1903.52 2.54349 -0.133605 0
M  V30 20474 H 1904.3 2.95071 -1.75465 0
M  V30 20475 N 1906.75 0.369315 1.53212 0
M  V30 20476 C 1907.97 -0.222451 2.06204 0
M  V30 20477 C 1908.4 -1.41373 1.24077 0
M  V30 20478 O 1907.76 -1.79415 0.260767 0
M  V30 20479 C 1907.81 -0.590386 3.55734 0
M  V30 20480 O 1906.91 -1.68711 3.76311 0
M  V30 20481 H 1906.25 -0.0315041 0.663252 0
M  V30 20482 H 1908.78 0.531 1.97589 0
M  V30 20483 H 1908.79 -0.860345 3.98826 0
M  V30 20484 H 1907.47 0.28067 4.14952 0
M  V30 20485 H 1906.04 -1.41242 3.45116 0
M  V30 20486 N 1908.23 -1.57291 0.0985816 0
M  V30 20487 C 1909.47 -1.94478 -0.564304 0
M  V30 20488 C 1909.8 -0.980557 -1.67974 0
M  V30 20489 O 1909.06 -0.000761176 -1.957 0
M  V30 20490 C 1909.36 -3.38184 -1.15613 0
M  V30 20491 C 1909.02 -4.50601 -0.164125 0
M  V30 20492 C 1907.68 -4.81077 0.108706 0
M  V30 20493 C 1910.04 -5.18669 0.513033 0
M  V30 20494 C 1907.36 -5.76947 1.06533 0
M  V30 20495 C 1909.72 -6.15565 1.45815 0
M  V30 20496 C 1908.38 -6.44445 1.73918 0
M  V30 20497 H 1907.65 -0.711647 -0.206493 0
M  V30 20498 H 1910.3 -1.90697 0.175155 0
M  V30 20499 H 1908.6 -3.3856 -1.97191 0
M  V30 20500 H 1910.3 -3.6426 -1.67678 0
M  V30 20501 H 1906.89 -4.2685 -0.386958 0
M  V30 20502 H 1911.07 -4.95297 0.315398 0
M  V30 20503 H 1906.33 -5.97636 1.29002 0
M  V30 20504 H 1910.5 -6.67402 1.98865 0
M  V30 20505 H 1908.13 -7.1854 2.48201 0
M  V30 20506 N 1909.71 0.175127 -1.56624 0
M  V30 20507 C 1910.95 0.898905 -1.83573 0
M  V30 20508 C 1911.31 1.79594 -0.678963 0
M  V30 20509 O 1912.51 2.55703 -0.828812 0
M  V30 20510 C 1910.78 1.67681 -3.15623 0
M  V30 20511 S 1912.34 2.44988 -3.64042 0
M  V30 20512 H 1909.16 0.301138 -0.644078 0
M  V30 20513 H 1911.76 0.160814 -1.94837 0
M  V30 20514 H 1910.46 1.00879 -3.97809 0
M  V30 20515 H 1910 2.45635 -3.0729 0
M  V30 20516 H 1912.01 3.69608 -3.31065 0
M  V30 20517 N 1911.18 1.5123 0.44355 0
M  V30 20518 C 1912.13 1.68479 1.53619 0
M  V30 20519 C 1913.12 0.538858 1.51608 0
M  V30 20520 O 1914.31 0.794502 1.58167 0
M  V30 20521 C 1911.44 1.80754 2.91861 0
M  V30 20522 C 1910.52 3.01112 2.98651 0
M  V30 20523 N 1910.92 4.24382 2.75197 0
M  V30 20524 C 1909.21 3.00239 3.29807 0
M  V30 20525 C 1909.91 5.0559 2.87668 0
M  V30 20526 N 1908.89 4.40109 3.1907 0
M  V30 20527 H 1912.69 2.61458 1.34227 0
M  V30 20528 H 1910.21 1.48791 0.650758 0
M  V30 20529 H 1912.2 1.91221 3.70459 0
M  V30 20530 H 1910.86 0.889528 3.12278 0
M  V30 20531 H 1911.87 4.53429 2.50244 0
M  V30 20532 H 1908.55 2.18044 3.56038 0
M  V30 20533 H 1909.94 6.13698 2.73541 0
M  V30 20534 N 1912.66 -0.698586 1.41271 0
M  V30 20535 C 1913.89 -1.49247 1.44014 0
M  V30 20536 C 1914.31 -1.88043 0.0461888 0
M  V30 20537 O 1913.67 -1.54426 -0.94986 0
M  V30 20538 C 1913.72 -2.73334 2.35204 0
M  V30 20539 O 1912.82 -3.70704 1.807 0
M  V30 20540 H 1912.16 -0.449313 0.488891 0
M  V30 20541 H 1914.69 -0.858936 1.85697 0
M  V30 20542 H 1914.7 -3.21676 2.50975 0
M  V30 20543 H 1913.38 -2.44433 3.3649 0
M  V30 20544 H 1911.95 -3.29624 1.74363 0
M  V30 20545 N 1914.14 -1.27049 -0.93254 0
M  V30 20546 C 1915.36 -1.16011 -1.71919 0
M  V30 20547 C 1915.79 0.279951 -1.86005 0
M  V30 20548 O 1915.15 1.20279 -1.35657 0
M  V30 20549 C 1915.2 -1.84349 -3.09916 0
M  V30 20550 O 1914.3 -1.13816 -3.96383 0
M  V30 20551 H 1913.64 -0.403752 -0.527144 0
M  V30 20552 H 1916.17 -1.6803 -1.16736 0
M  V30 20553 H 1916.18 -1.91516 -3.60258 0
M  V30 20554 H 1914.86 -2.89109 -2.9898 0
M  V30 20555 H 1913.43 -1.14684 -3.54827 0
M  V30 20556 N 1915.62 1.13835 -1.08993 0
M  V30 20557 C 1916.86 1.86663 -0.832848 0
M  V30 20558 C 1917.22 1.81369 0.630021 0
M  V30 20559 O 1918.42 2.49392 1.00285 0
M  V30 20560 C 1916.69 3.31013 -1.34778 0
M  V30 20561 S 1918.25 4.21386 -1.22391 0
M  V30 20562 H 1915.07 0.643982 -0.301344 0
M  V30 20563 H 1917.67 1.3723 -1.39241 0
M  V30 20564 H 1916.38 3.32418 -2.4068 0
M  V30 20565 H 1915.91 3.85506 -0.78415 0
M  V30 20566 H 1917.92 4.95902 -0.172001 0
M  V30 20567 N 1917.1 0.876467 1.3098 0
M  V30 20568 C 1918.34 0.489671 1.96078 0
M  V30 20569 C 1918.66 -0.962603 1.69585 0
M  V30 20570 O 1917.93 -1.67568 1.01478 0
M  V30 20571 H 1916.51 0.178091 0.72546 0
M  V30 20572 H 1919.18 1.11768 1.59668 0
M  V30 20573 H 1918.27 0.652822 3.05196 0
M  V30 20574 N 1918.57 -1.44173 0.636557 0
M  V30 20575 C 1919.52 -2.27834 -0.087113 0
M  V30 20576 C 1920.51 -1.3897 -0.810926 0
M  V30 20577 O 1921.7 -1.62736 -0.696139 0
M  V30 20578 C 1918.83 -3.26385 -1.06431 0
M  V30 20579 C 1917.91 -4.22736 -0.339835 0
M  V30 20580 N 1918.31 -5.01804 0.634535 0
M  V30 20581 C 1916.6 -4.42166 -0.583549 0
M  V30 20582 C 1917.3 -5.71904 1.06306 0
M  V30 20583 N 1916.28 -5.42121 0.400722 0
M  V30 20584 H 1920.08 -2.86375 0.660817 0
M  V30 20585 H 1917.6 -1.55675 0.462493 0
M  V30 20586 H 1919.59 -3.85083 -1.5974 0
M  V30 20587 H 1918.25 -2.69405 -1.81248 0
M  V30 20588 H 1919.26 -5.07905 1.01258 0
M  V30 20589 H 1915.94 -3.96277 -1.31417 0
M  V30 20590 H 1917.33 -6.45401 1.86835 0
M  V30 20591 N 1920.05 -0.377435 -1.53014 0
M  V30 20592 C 1921.3 0.208838 -2.01722 0
M  V30 20593 C 1921.63 1.47446 -1.26385 0
M  V30 20594 O 1920.91 1.91122 -0.360903 0
M  V30 20595 C 1921.19 0.4888 -3.56767 0
M  V30 20596 C 1921.04 -0.791285 -4.42785 0
M  V30 20597 C 1922.36 1.28443 -4.2094 0
M  V30 20598 H 1919.48 0.0744281 -0.733232 0
M  V30 20599 H 1922.12 -0.504664 -1.83175 0
M  V30 20600 H 1920.27 1.09662 -3.72702 0
M  V30 20601 H 1921.94 -1.42848 -4.38625 0
M  V30 20602 H 1920.19 -1.40914 -4.10275 0
M  V30 20603 H 1920.86 -0.550199 -5.49251 0
M  V30 20604 H 1923.33 0.770147 -4.08911 0
M  V30 20605 H 1922.21 1.44906 -5.29427 0
M  V30 20606 H 1922.47 2.29631 -3.77786 0
M  V30 20607 N 1921.53 1.57237 -0.106922 0
M  V30 20608 C 1922.76 1.99545 0.565392 0
M  V30 20609 C 1923.18 0.985887 1.60193 0
M  V30 20610 O 1922.54 -0.0440657 1.81246 0
M  V30 20611 C 1922.59 3.40779 1.17908 0
M  V30 20612 O 1921.69 3.42656 2.29479 0
M  V30 20613 H 1921.03 0.648556 0.142379 0
M  V30 20614 H 1923.56 2.03699 -0.191829 0
M  V30 20615 H 1923.57 3.78728 1.51754 0
M  V30 20616 H 1922.25 4.13776 0.419776 0
M  V30 20617 H 1920.82 3.16514 1.97164 0
M  V30 20618 N 1923.01 -0.166818 1.56715 0
M  V30 20619 C 1923.92 -1.22632 1.99996 0
M  V30 20620 C 1924.93 -1.4818 0.912068 0
M  V30 20621 O 1926.11 -1.6024 1.22005 0
M  V30 20622 C 1923.18 -2.54444 2.35498 0
M  V30 20623 C 1922.24 -2.36718 3.58138 0
M  V30 20624 C 1921.47 -3.62244 3.91937 0
M  V30 20625 O 1921.69 -4.67609 3.26646 0
M  V30 20626 O 1920.63 -3.56087 4.85269 0
M  V30 20627 H 1924.45 -0.888926 2.90399 0
M  V30 20628 H 1922.04 -0.374032 1.44642 0
M  V30 20629 H 1923.92 -3.32191 2.59281 0
M  V30 20630 H 1922.59 -2.87753 1.48256 0
M  V30 20631 H 1921.5 -1.56987 3.39567 0
M  V30 20632 H 1922.83 -2.08332 4.45936 0
M  V30 20633 N 1924.49 -1.51463 -0.435524 0
M  V30 20634 C 1925.73 -1.63897 -1.18247 0
M  V30 20635 C 1926.06 -0.358322 -1.9168 0
M  V30 20636 O 1925.33 0.625888 -1.85633 0
M  V30 20637 H 1923.91 -0.60404 -0.439482 0
M  V30 20638 H 1926.57 -1.884 -0.49915 0
M  V30 20639 H 1925.66 -2.46749 -1.91105 0
M  V30 20640 N 1925.96 0.691085 -1.4164 0
M  V30 20641 C 1926.91 1.80495 -1.43841 0
M  V30 20642 C 1927.88 1.63509 -0.292237 0
M  V30 20643 O 1929.07 1.84296 -0.493941 0
M  V30 20644 C 1926.21 3.18412 -1.33072 0
M  V30 20645 C 1925.32 3.46799 -2.57594 0
M  V30 20646 C 1924.45 4.74354 -2.39085 0
M  V30 20647 C 1923.49 4.95723 -3.59061 0
M  V30 20648 N 1922.63 6.14507 -3.39596 0
M  V30 20649 H 1927.47 1.77949 -2.39036 0
M  V30 20650 H 1925.01 0.86893 -1.18693 0
M  V30 20651 H 1926.97 3.98087 -1.24829 0
M  V30 20652 H 1925.6 3.20124 -0.414814 0
M  V30 20653 H 1924.65 2.61496 -2.76268 0
M  V30 20654 H 1925.96 3.58489 -3.46824 0
M  V30 20655 H 1925.11 5.62092 -2.28336 0
M  V30 20656 H 1923.85 4.64918 -1.47319 0
M  V30 20657 H 1922.86 4.06432 -3.70261 0
M  V30 20658 H 1924.08 5.07015 -4.51788 0
M  V30 20659 H 1922.03 6.06275 -2.50532 0
M  V30 20660 H 1921.95 6.26985 -4.22405 0
M  V30 20661 H 1923.21 7.04968 -3.32627 0
M  V30 20662 N 1927.44 1.27542 0.925789 0
M  V30 20663 C 1928.86 1.04988 1.20207 0
M  V30 20664 C 1929.06 -0.215359 2.00346 0
M  V30 20665 O 1928.11 -0.920331 2.3513 0
M  V30 20666 C 1929.43 2.2904 1.94836 0
M  V30 20667 C 1930.98 2.34098 2.07767 0
M  V30 20668 C 1931.45 3.57884 2.85802 0
M  V30 20669 N 1932.94 3.58453 2.93369 0
M  V30 20670 C 1933.68 4.50907 3.54218 0
M  V30 20671 N 1933.17 5.53667 4.16443 0
M  V30 20672 N 1934.97 4.38527 3.5164 0
M  V30 20673 H 1927.12 2.0878 0.390449 0
M  V30 20674 H 1929.38 0.918323 0.235346 0
M  V30 20675 H 1929.09 3.21151 1.4337 0
M  V30 20676 H 1928.96 2.34507 2.95442 0
M  V30 20677 H 1931.35 1.42492 2.58418 0
M  V30 20678 H 1931.43 2.32633 1.06375 0
M  V30 20679 H 1931.07 4.49828 2.35834 0
M  V30 20680 H 1931 3.56601 3.87484 0
M  V30 20681 H 1933.49 2.84138 2.49147 0
M  V30 20682 H 1933.81 6.20377 4.60817 0
M  V30 20683 H 1932.15 5.57507 4.14983 0
M  V30 20684 H 1935.34 3.57455 3.0223 0
M  V30 20685 H 1935.51 5.10769 3.98772 0
M  V30 20686 N 1928.92 -1.13255 1.09595 0
M  V30 20687 C 1930.34 -1.36563 0.825994 0
M  V30 20688 C 1930.54 -1.93595 -0.558844 0
M  V30 20689 O 1929.59 -2.15654 -1.31338 0
M  V30 20690 C 1930.91 -2.31535 1.91864 0
M  V30 20691 C 1932.45 -2.45147 1.94607 0
M  V30 20692 C 1932.93 -3.43427 3.03021 0
M  V30 20693 N 1934.42 -3.50979 3.02271 0
M  V30 20694 C 1935.15 -4.2691 3.82799 0
M  V30 20695 N 1934.65 -5.05981 4.73239 0
M  V30 20696 N 1936.44 -4.22229 3.71051 0
M  V30 20697 H 1928.59 -0.745889 1.98872 0
M  V30 20698 H 1930.86 -0.390727 0.863734 0
M  V30 20699 H 1930.56 -1.96788 2.91492 0
M  V30 20700 H 1930.44 -3.3157 1.79837 0
M  V30 20701 H 1932.82 -2.7918 0.956178 0
M  V30 20702 H 1932.91 -1.45031 2.10712 0
M  V30 20703 H 1932.55 -3.10126 4.02225 0
M  V30 20704 H 1932.48 -4.43352 2.84159 0
M  V30 20705 H 1934.97 -2.94562 2.36731 0
M  V30 20706 H 1935.28 -5.61231 5.31262 0
M  V30 20707 H 1933.63 -5.05208 4.77274 0
M  V30 20708 H 1936.82 -3.59534 2.99755 0
M  V30 20709 H 1936.99 -4.81152 4.34047 0
M  V30 20710 N 1930.4 -0.883401 -1.30514 0
M  V30 20711 C 1931.65 -0.501052 -1.96203 0
M  V30 20712 C 1931.97 0.949454 -1.69752 0
M  V30 20713 O 1931.23 1.68571 -0.994097 0
M  V30 20714 C 1931.53 -0.720655 -3.50059 0
M  V30 20715 C 1931.19 -2.146 -3.96557 0
M  V30 20716 C 1929.86 -2.53577 -4.08964 0
M  V30 20717 C 1932.21 -3.07496 -4.20827 0
M  V30 20718 C 1929.54 -3.84664 -4.43002 0
M  V30 20719 C 1931.89 -4.38113 -4.56333 0
M  V30 20720 C 1930.55 -4.76985 -4.66949 0
M  V30 20721 H 1929.82 -0.183348 -0.717959 0
M  V30 20722 H 1932.47 -1.11895 -1.55408 0
M  V30 20723 H 1930.77 -0.0197082 -3.91795 0
M  V30 20724 H 1932.47 -0.404442 -3.98955 0
M  V30 20725 H 1929.06 -1.83345 -3.87405 0
M  V30 20726 H 1933.24 -2.78604 -4.10723 0
M  V30 20727 H 1928.5 -4.14526 -4.4942 0
M  V30 20728 H 1932.67 -5.10133 -4.74064 0
M  V30 20729 H 1930.3 -5.786 -4.93079 0
M  V30 20730 N 1931.88 1.43833 -0.644194 0
M  V30 20731 C 1933.1 2.0627 -0.161397 0
M  V30 20732 C 1933.52 1.4823 1.16933 0
M  V30 20733 O 1932.88 0.610133 1.71999 0
M  V30 20734 C 1932.93 3.61459 -0.0545357 0
M  V30 20735 O 1932.65 4.17339 -1.33265 0
M  V30 20736 C 1934.15 4.40955 0.455411 0
M  V30 20737 H 1931.37 0.665503 -0.0857112 0
M  V30 20738 H 1933.91 1.84488 -0.882291 0
M  V30 20739 H 1932.07 3.82457 0.616868 0
M  V30 20740 H 1932.48 5.10916 -1.18597 0
M  V30 20741 H 1933.96 5.49916 0.479159 0
M  V30 20742 H 1934.43 4.13333 1.485 0
M  V30 20743 H 1935.04 4.24905 -0.18319 0
M  V30 20744 N 1933.35 0.385544 1.52811 0
M  V30 20745 C 1934.58 -0.197738 2.05652 0
M  V30 20746 C 1934.99 -1.41373 1.2574 0
M  V30 20747 O 1934.34 -1.81297 0.296184 0
M  V30 20748 C 1934.4 -0.636031 3.53829 0
M  V30 20749 C 1934.06 0.465981 4.54618 0
M  V30 20750 C 1935.06 1.3222 5.02806 0
M  V30 20751 C 1932.74 0.631936 4.98309 0
M  V30 20752 C 1934.74 2.32954 5.93305 0
M  V30 20753 C 1932.42 1.64261 5.8861 0
M  V30 20754 C 1933.42 2.48983 6.36 0
M  V30 20755 O 1933.11 3.48324 7.24518 0
M  V30 20756 H 1932.84 -0.0343646 0.675126 0
M  V30 20757 H 1935.4 0.548149 1.97951 0
M  V30 20758 H 1933.63 -1.43384 3.59135 0
M  V30 20759 H 1935.32 -1.14456 3.89429 0
M  V30 20760 H 1936.08 1.20528 4.69785 0
M  V30 20761 H 1931.96 -0.0177815 4.60997 0
M  V30 20762 H 1935.5 2.99118 6.30218 0
M  V30 20763 H 1931.4 1.75993 6.21045 0
M  V30 20764 H 1932.17 3.44288 7.42569 0
M  V30 20765 N 1934.83 -1.57178 0.115259 0
M  V30 20766 C 1936.11 -1.86584 -0.587002 0
M  V30 20767 C 1936.49 -1.01576 -1.85055 0
M  V30 20768 O 1935.84 -0.0936485 -2.28308 0
M  V30 20769 C 1936.05 -3.37644 -0.883041 0
M  V30 20770 C 1937.4 -4.06159 -1.23773 0
M  V30 20771 O 1938.42 -3.42641 -0.973422 0
M  V30 20772 O 1937.28 -5.18274 -1.73363 0
M  V30 20773 H 1934.37 -0.772284 -0.295816 0
M  V30 20774 H 1936.92 -1.6904 0.14948 0
M  V30 20775 H 1935.69 -3.91298 0.0125183 0
M  V30 20776 H 1935.31 -3.60605 -1.67481 0
M  V30 20777 N 1936.31 0.158505 -1.56801 0
M  V30 20778 C 1937.26 1.20094 -1.93808 0
M  V30 20779 C 1938.25 1.39146 -0.807916 0
M  V30 20780 O 1939.44 1.40901 -1.07125 0
M  V30 20781 C 1936.57 2.53736 -2.31243 0
M  V30 20782 C 1935.65 2.38324 -3.50803 0
M  V30 20783 N 1936.04 1.92648 -4.67676 0
M  V30 20784 C 1934.34 2.69112 -3.55661 0
M  V30 20785 C 1935.04 1.90005 -5.49793 0
M  V30 20786 N 1934.02 2.3289 -4.91186 0
M  V30 20787 H 1937.82 0.839694 -2.81649 0
M  V30 20788 H 1935.33 0.366668 -1.58207 0
M  V30 20789 H 1937.33 3.29079 -2.55955 0
M  V30 20790 H 1935.99 2.90652 -1.44747 0
M  V30 20791 H 1937 1.62788 -4.91651 0
M  V30 20792 H 1933.68 3.0998 -2.79676 0
M  V30 20793 H 1935.07 1.5628 -6.53472 0
M  V30 20794 N 1937.79 1.51692 0.427485 0
M  V30 20795 C 1938.75 1.73114 1.50214 0
M  V30 20796 C 1939.75 0.601079 1.49143 0
M  V30 20797 O 1940.94 0.86875 1.50991 0
M  V30 20798 C 1938.07 1.79666 2.89712 0
M  V30 20799 H 1939.27 2.69033 1.32518 0
M  V30 20800 H 1936.82 1.4183 0.656804 0
M  V30 20801 H 1937.56 0.855968 3.128 0
M  V30 20802 H 1937.34 2.61803 2.91893 0
M  V30 20803 H 1938.83 1.98045 3.67652 0
M  V30 20804 N 1939.27 -0.683564 1.42004 0
M  V30 20805 C 1940.18 -1.82689 1.4718 0
M  V30 20806 C 1941.19 -1.70208 0.361298 0
M  V30 20807 O 1942.37 -1.91912 0.610867 0
M  V30 20808 C 1939.43 -3.18767 1.3634 0
M  V30 20809 C 1938.5 -3.43269 2.57808 0
M  V30 20810 C 1937.73 -4.72855 2.47476 0
M  V30 20811 O 1937.95 -5.50164 1.50584 0
M  V30 20812 O 1936.89 -4.98407 3.37452 0
M  V30 20813 H 1940.71 -1.81279 2.43663 0
M  V30 20814 H 1938.3 -0.838182 1.23672 0
M  V30 20815 H 1940.18 -3.99986 1.32624 0
M  V30 20816 H 1938.85 -3.20834 0.429781 0
M  V30 20817 H 1937.76 -2.61933 2.67099 0
M  V30 20818 H 1939.09 -3.46025 3.50039 0
M  V30 20819 N 1940.75 -1.28031 -0.919012 0
M  V30 20820 C 1941.68 -1.14034 -2.03761 0
M  V30 20821 C 1942.66 -0.039495 -1.70054 0
M  V30 20822 O 1943.84 -0.215546 -1.93 0
M  V30 20823 C 1940.97 -0.795894 -3.38057 0
M  V30 20824 C 1939.93 -1.85093 -3.85907 0
M  V30 20825 C 1939.25 -1.36024 -5.17109 0
M  V30 20826 C 1940.55 -3.25658 -4.08343 0
M  V30 20827 H 1942.25 -2.07609 -2.15729 0
M  V30 20828 H 1939.79 -0.999558 -1.03657 0
M  V30 20829 H 1941.74 -0.684762 -4.15799 0
M  V30 20830 H 1940.47 0.175558 -3.26128 0
M  V30 20831 H 1939.13 -1.95112 -3.10366 0
M  V30 20832 H 1938.78 -0.378004 -5.01578 0
M  V30 20833 H 1938.48 -2.06568 -5.50094 0
M  V30 20834 H 1940 -1.26223 -5.97411 0
M  V30 20835 H 1941.41 -3.1859 -4.76627 0
M  V30 20836 H 1939.81 -3.93989 -4.52651 0
M  V30 20837 H 1940.88 -3.70066 -3.13335 0
M  V30 20838 N 1942.22 1.12672 -1.10194 0
M  V30 20839 C 1943.13 2.2192 -0.76082 0
M  V30 20840 C 1944.15 1.72328 0.240604 0
M  V30 20841 O 1945.33 2.01241 0.0799808 0
M  V30 20842 C 1942.39 3.46151 -0.19501 0
M  V30 20843 C 1941.45 4.10595 -1.25339 0
M  V30 20844 C 1940.68 5.28896 -0.714485 0
M  V30 20845 O 1940.91 5.68543 0.459943 0
M  V30 20846 O 1939.84 5.83592 -1.47324 0
M  V30 20847 H 1943.67 2.53487 -1.67266 0
M  V30 20848 H 1941.25 1.20959 -0.876892 0
M  V30 20849 H 1943.13 4.21238 0.116809 0
M  V30 20850 H 1941.81 3.16266 0.689729 0
M  V30 20851 H 1940.72 3.37299 -1.61803 0
M  V30 20852 H 1942.05 4.44629 -2.11106 0
M  V30 20853 N 1943.7 0.89031 1.30043 0
M  V30 20854 C 1945.12 0.585066 1.4849 0
M  V30 20855 C 1945.32 -0.87585 1.81469 0
M  V30 20856 O 1944.37 -1.6567 1.90551 0
M  V30 20857 C 1945.69 1.50281 2.60454 0
M  V30 20858 C 1947.23 1.50701 2.74332 0
M  V30 20859 C 1947.71 2.41081 3.89415 0
M  V30 20860 N 1949.2 2.39074 3.96734 0
M  V30 20861 C 1949.94 3.05715 4.85104 0
M  V30 20862 N 1949.43 3.81601 5.78232 0
M  V30 20863 N 1951.22 2.9492 4.78517 0
M  V30 20864 H 1943.38 1.83532 1.0691 0
M  V30 20865 H 1945.64 0.785901 0.530155 0
M  V30 20866 H 1945.34 2.54327 2.42921 0
M  V30 20867 H 1945.22 1.21634 3.5705 0
M  V30 20868 H 1947.61 0.474032 2.91268 0
M  V30 20869 H 1947.69 1.83381 1.7834 0
M  V30 20870 H 1947.33 3.44466 3.73236 0
M  V30 20871 H 1947.26 2.05714 4.84757 0
M  V30 20872 H 1949.75 1.83932 3.30117 0
M  V30 20873 H 1950.06 4.29528 6.42437 0
M  V30 20874 H 1948.41 3.85708 5.78147 0
M  V30 20875 H 1951.6 2.35158 4.04745 0
M  V30 20876 H 1951.77 3.47132 5.47178 0
M  V30 20877 N 1945.18 -1.43489 0.651812 0
M  V30 20878 C 1946.13 -2.30764 -0.0406423 0
M  V30 20879 C 1947.1 -1.44669 -0.816091 0
M  V30 20880 O 1948.28 -1.73541 -0.792978 0
M  V30 20881 C 1945.42 -3.30232 -1.00206 0
M  V30 20882 C 1944.53 -4.31425 -0.222857 0
M  V30 20883 C 1943.67 -5.17975 -1.17794 0
M  V30 20884 C 1942.71 -6.10862 -0.389096 0
M  V30 20885 N 1941.85 -6.90041 -1.2957 0
M  V30 20886 H 1946.69 -2.89431 0.709482 0
M  V30 20887 H 1944.22 -1.42585 0.361636 0
M  V30 20888 H 1946.18 -3.86408 -1.57306 0
M  V30 20889 H 1944.81 -2.73217 -1.71907 0
M  V30 20890 H 1943.86 -3.77554 0.464409 0
M  V30 20891 H 1945.17 -4.97268 0.390608 0
M  V30 20892 H 1944.33 -5.7877 -1.81962 0
M  V30 20893 H 1943.07 -4.52254 -1.82532 0
M  V30 20894 H 1942.07 -5.49156 0.265943 0
M  V30 20895 H 1943.3 -6.78625 0.253855 0
M  V30 20896 H 1941.24 -6.2697 -1.9299 0
M  V30 20897 H 1941.16 -7.52401 -0.736762 0
M  V30 20898 H 1942.43 -7.55342 -1.92557 0
M  V30 20899 N 1946.66 -0.393643 -1.52605 0
M  V30 20900 C 1947.91 0.188423 -2.00818 0
M  V30 20901 C 1948.22 1.47537 -1.28422 0
M  V30 20902 O 1949.43 2.13775 -1.6737 0
M  V30 20903 C 1947.88 0.386341 -3.5782 0
M  V30 20904 C 1947.49 -0.887606 -4.39119 0
M  V30 20905 C 1949.23 0.924537 -4.1431 0
M  V30 20906 C 1947.14 -0.657729 -5.87731 0
M  V30 20907 H 1946.07 0.0741894 -0.750341 0
M  V30 20908 H 1948.72 -0.516709 -1.76075 0
M  V30 20909 H 1947.1 1.15343 -3.7883 0
M  V30 20910 H 1948.28 -1.65965 -4.29875 0
M  V30 20911 H 1946.59 -1.35107 -3.93872 0
M  V30 20912 H 1949.19 1.1123 -5.23003 0
M  V30 20913 H 1949.53 1.89484 -3.70677 0
M  V30 20914 H 1950.07 0.216908 -3.97208 0
M  V30 20915 H 1946.8 -1.59915 -6.35694 0
M  V30 20916 H 1946.32 0.0752963 -5.99753 0
M  V30 20917 H 1948 -0.293935 -6.46332 0
M  V30 20918 N 1948.14 1.57115 -0.123593 0
M  V30 20919 C 1949.1 2.14386 0.810624 0
M  V30 20920 C 1950.1 1.07985 1.19146 0
M  V30 20921 O 1951.29 1.33739 1.11622 0
M  V30 20922 C 1948.42 2.68785 2.09683 0
M  V30 20923 H 1949.61 2.98264 0.312818 0
M  V30 20924 H 1947.17 1.55794 0.125682 0
M  V30 20925 H 1947.9 1.88509 2.63884 0
M  V30 20926 H 1947.69 3.46607 1.8332 0
M  V30 20927 H 1949.18 3.12989 2.76455 0
M  V30 20928 N 1949.61 -0.150187 1.56883 0
M  V30 20929 C 1950.85 -0.869587 1.8498 0
M  V30 20930 C 1951.22 -1.78491 0.707449 0
M  V30 20931 O 1952.42 -2.54352 0.869387 0
M  V30 20932 C 1950.69 -1.62639 3.1825 0
M  V30 20933 S 1952.25 -2.39165 3.67893 0
M  V30 20934 H 1949.07 -0.290853 0.648788 0
M  V30 20935 H 1951.67 -0.129797 1.95069 0
M  V30 20936 H 1950.37 -0.945372 3.99363 0
M  V30 20937 H 1949.9 -2.40715 3.11159 0
M  V30 20938 H 1951.92 -3.64294 3.36904 0
M  V30 20939 N 1951.09 -1.51916 -0.419434 0
M  V30 20940 C 1952.33 -1.67139 -1.17661 0
M  V30 20941 C 1952.7 -0.387862 -1.88042 0
M  V30 20942 O 1953.9 -0.416066 -2.6556 0
M  V30 20943 C 1952.17 -2.853 -2.15264 0
M  V30 20944 S 1953.73 -3.2095 -2.99227 0
M  V30 20945 H 1950.55 -0.58866 -0.398748 0
M  V30 20946 H 1953.15 -1.89879 -0.46544 0
M  V30 20947 H 1951.85 -3.76975 -1.62228 0
M  V30 20948 H 1951.38 -2.64803 -2.90935 0
M  V30 20949 H 1953.4 -2.68772 -4.17104 0
M  V30 20950 N 1952.57 0.676023 -1.42365 0
M  V30 20951 C 1953.8 1.46937 -1.46371 0
M  V30 20952 C 1954.22 1.87946 -0.076099 0
M  V30 20953 O 1953.58 1.55917 0.925172 0
M  V30 20954 C 1953.63 2.69558 -2.39523 0
M  V30 20955 O 1952.73 3.67782 -1.86575 0
M  V30 20956 H 1952.07 0.441478 -0.495977 0
M  V30 20957 H 1954.6 0.829284 -1.8704 0
M  V30 20958 H 1954.61 3.17642 -2.56061 0
M  V30 20959 H 1953.29 2.39049 -3.40336 0
M  V30 20960 H 1951.86 3.26808 -1.79585 0
M  V30 20961 N 1954.05 1.28517 0.912209 0
M  V30 20962 C 1955.46 1.14251 1.4766 0
M  V30 20963 C 1955.81 -0.266935 1.94376 0
M  V30 20964 O 1954.94 -1.16134 1.82598 0
M  V30 20965 C 1955.53 2.06792 2.6837 0
M  V30 20966 C 1954.09 1.96587 3.20984 0
M  V30 20967 C 1953.24 1.98444 1.93689 0
M  V30 20968 H 1956.19 1.41184 0.724769 0
M  V30 20969 H 1956.21 1.63282 3.43685 0
M  V30 20970 H 1955.72 3.09365 2.34339 0
M  V30 20971 H 1953.82 0.970565 3.59737 0
M  V30 20972 H 1953.93 2.83622 3.86129 0
M  V30 20973 H 1952.3 1.42872 2.10855 0
M  V30 20974 H 1953.08 3.02699 1.61951 0
M  V30 20975 N 1955.53 -1.12086 1.1079 0
M  V30 20976 C 1956.94 -1.65205 0.869718 0
M  V30 20977 C 1957.29 -1.86823 -0.599309 0
M  V30 20978 O 1956.41 -1.59743 -1.45983 0
M  V30 20979 C 1957.01 -3.00109 1.57226 0
M  V30 20980 C 1955.57 -3.50163 1.38068 0
M  V30 20981 C 1954.71 -2.2511 1.61928 0
M  V30 20982 H 1957.67 -0.958175 1.2651 0
M  V30 20983 H 1957.69 -3.66757 1.01337 0
M  V30 20984 H 1957.2 -2.84344 2.64141 0
M  V30 20985 H 1955.3 -3.71106 0.33333 0
M  V30 20986 H 1955.41 -4.29388 2.12515 0
M  V30 20987 H 1953.78 -2.32399 1.04224 0
M  V30 20988 H 1954.56 -2.11895 2.70103 0
M  V30 20989 N 1957 -0.897194 -1.29569 0
M  V30 20990 C 1958.42 -0.570676 -1.77764 0
M  V30 20991 C 1958.77 0.913595 -1.73631 0
M  V30 20992 O 1957.89 1.71426 -1.32068 0
M  V30 20993 C 1958.49 -1.02914 -3.22791 0
M  V30 20994 C 1957.05 -0.753828 -3.68774 0
M  V30 20995 C 1956.19 -1.20525 -2.49738 0
M  V30 20996 H 1959.14 -1.08018 -1.16266 0
M  V30 20997 H 1959.16 -0.363343 -3.78761 0
M  V30 20998 H 1958.68 -2.10944 -3.25767 0
M  V30 20999 H 1956.78 0.313965 -3.71275 0
M  V30 21000 H 1956.89 -1.34995 -4.59688 0
M  V30 21001 H 1955.25 -0.624304 -2.4693 0
M  V30 21002 H 1956.04 -2.29355 -2.55443 0
M  V30 21003 N 1958.48 1.43142 -0.659413 0
M  V30 21004 C 1959.76 1.95318 -0.104973 0
M  V30 21005 C 1960.14 1.60048 1.37651 0
M  V30 21006 O 1959.49 0.888746 2.10508 0
M  V30 21007 C 1959.7 3.47161 -0.357769 0
M  V30 21008 C 1961.05 4.23766 -0.26602 0
M  V30 21009 O 1962.07 3.55012 -0.290667 0
M  V30 21010 O 1960.93 5.46152 -0.195021 0
M  V30 21011 H 1958.02 0.826978 0.0060428 0
M  V30 21012 H 1960.57 1.53049 -0.733079 0
M  V30 21013 H 1959.34 3.65983 -1.38465 0
M  V30 21014 H 1958.96 3.96443 0.303102 0
M  V30 21015 N 1959.96 0.40173 1.52394 0
M  V30 21016 C 1961.19 -0.175915 2.0585 0
M  V30 21017 C 1961.6 -1.40031 1.27232 0
M  V30 21018 O 1960.94 -1.80972 0.315396 0
M  V30 21019 C 1961 -0.598467 3.54484 0
M  V30 21020 C 1960.67 0.514174 4.54098 0
M  V30 21021 C 1961.66 1.37546 5.01375 0
M  V30 21022 C 1959.35 0.684753 4.97611 0
M  V30 21023 C 1961.34 2.39233 5.90801 0
M  V30 21024 C 1959.03 1.70495 5.86834 0
M  V30 21025 C 1960.03 2.55715 6.33324 0
M  V30 21026 O 1959.72 3.55989 7.20782 0
M  V30 21027 H 1959.45 -0.0272021 0.675452 0
M  V30 21028 H 1962 0.569114 1.97358 0
M  V30 21029 H 1960.23 -1.39566 3.60636 0
M  V30 21030 H 1961.92 -1.10319 3.90621 0
M  V30 21031 H 1962.69 1.25504 4.6848 0
M  V30 21032 H 1958.57 0.0311144 4.60989 0
M  V30 21033 H 1962.11 3.05785 6.2701 0
M  V30 21034 H 1958.01 1.82571 6.19143 0
M  V30 21035 H 1958.78 3.52145 7.38875 0
M  V30 21036 N 1961.44 -1.57047 0.131923 0
M  V30 21037 C 1962.39 -2.17261 -0.830686 0
M  V30 21038 C 1963.38 -1.12538 -1.26616 0
M  V30 21039 O 1964.59 -1.30818 -1.23639 0
M  V30 21040 H 1960.96 -0.695476 -0.286037 0
M  V30 21041 H 1962.93 -2.96903 -0.29848 0
M  V30 21042 C 1961.68 -2.79677 -2.06582 0
M  V30 21043 H 1961 -3.59965 -1.73969 0
M  V30 21044 H 1962.44 -3.2533 -2.71912 0
M  V30 21045 C 1960.9 -1.77413 -2.86402 0
M  V30 21046 O 1961.43 -1.23537 -3.82232 0
M  V30 21047 N 1959.64 -1.47059 -2.50643 0
M  V30 21048 H 1959.19 -1.91062 -1.7278 0
M  V30 21049 H 1959.14 -0.788806 -3.04344 0
M  V30 21050 N 1962.92 0.141865 -1.5696 0
M  V30 21051 C 1964.14 0.872384 -1.8816 0
M  V30 21052 C 1964.57 1.73713 -0.721494 0
M  V30 21053 O 1963.92 1.78294 0.328757 0
M  V30 21054 C 1963.97 1.7007 -3.17976 0
M  V30 21055 O 1963.08 2.80545 -3.02271 0
M  V30 21056 H 1962.42 0.242672 -0.618066 0
M  V30 21057 H 1964.95 0.131136 -2.04179 0
M  V30 21058 H 1964.96 2.09466 -3.50126 0
M  V30 21059 H 1963.63 1.06573 -4.02014 0
M  V30 21060 H 1962.21 2.44519 -2.81541 0
M  V30 21061 N 1964.39 1.52136 0.411372 0
M  V30 21062 C 1965.64 1.66331 1.16025 0
M  V30 21063 C 1965.97 0.390981 1.90223 0
M  V30 21064 O 1965.25 -0.610512 1.8467 0
M  V30 21065 C 1965.53 2.88386 2.15651 0
M  V30 21066 C 1965.38 4.25664 1.45364 0
M  V30 21067 C 1966.7 3.05963 3.16346 0
M  V30 21068 H 1963.82 0.60531 0.420439 0
M  V30 21069 H 1966.46 1.84685 0.446247 0
M  V30 21070 H 1964.61 2.72869 2.76541 0
M  V30 21071 H 1966.29 4.52904 0.876105 0
M  V30 21072 H 1964.53 4.27168 0.75563 0
M  V30 21073 H 1965.2 5.07109 2.18047 0
M  V30 21074 H 1967.68 3.20363 2.65531 0
M  V30 21075 H 1966.55 3.92882 3.83321 0
M  V30 21076 H 1966.81 2.19177 3.83945 0
M  V30 21077 N 1965.87 -0.668464 1.42721 0
M  V30 21078 C 1967.12 -1.43061 1.43741 0
M  V30 21079 C 1967.45 -1.9412 0.0558656 0
M  V30 21080 O 1966.73 -1.71317 -0.920904 0
M  V30 21081 C 1967.01 -2.62307 2.46712 0
M  V30 21082 C 1966.86 -2.16839 3.94082 0
M  V30 21083 C 1968.18 -3.64525 2.46596 0
M  V30 21084 H 1965.3 -0.518854 0.523412 0
M  V30 21085 H 1967.94 -0.759144 1.74175 0
M  V30 21086 H 1966.09 -3.19593 2.20891 0
M  V30 21087 H 1967.77 -1.64672 4.30907 0
M  V30 21088 H 1966.01 -1.48352 4.07645 0
M  V30 21089 H 1966.68 -3.02521 4.6172 0
M  V30 21090 H 1969.16 -3.16968 2.69574 0
M  V30 21091 H 1968.03 -4.45532 3.20613 0
M  V30 21092 H 1968.29 -4.16084 1.49421 0
M  V30 21093 N 1967.35 -1.28999 -0.905381 0
M  V30 21094 C 1968.28 -1.16189 -2.0254 0
M  V30 21095 C 1969.26 -0.0575293 -1.70003 0
M  V30 21096 O 1970.45 -0.236004 -1.92761 0
M  V30 21097 C 1967.58 -0.831704 -3.37194 0
M  V30 21098 C 1966.53 -1.89176 -3.83922 0
M  V30 21099 C 1965.86 -1.41501 -5.15637 0
M  V30 21100 C 1967.16 -3.29971 -4.04866 0
M  V30 21101 H 1968.85 -2.09886 -2.13514 0
M  V30 21102 H 1966.4 -1.0105 -1.02591 0
M  V30 21103 H 1968.35 -0.728825 -4.1505 0
M  V30 21104 H 1967.07 0.140958 -3.26296 0
M  V30 21105 H 1965.73 -1.98393 -3.08279 0
M  V30 21106 H 1965.38 -0.431182 -5.01149 0
M  V30 21107 H 1965.08 -2.12391 -5.47872 0
M  V30 21108 H 1966.61 -1.32552 -5.96039 0
M  V30 21109 H 1968.02 -3.23628 -4.73221 0
M  V30 21110 H 1966.42 -3.98768 -4.48447 0
M  V30 21111 H 1967.49 -3.73369 -3.09393 0
M  V30 21112 N 1968.83 1.11497 -1.11383 0
M  V30 21113 C 1970.06 1.86756 -0.88351 0
M  V30 21114 C 1970.47 1.80404 0.570169 0
M  V30 21115 O 1969.81 1.18298 1.40539 0
M  V30 21116 C 1969.87 3.3647 -1.26603 0
M  V30 21117 C 1969.54 3.6659 -2.72876 0
M  V30 21118 C 1970.53 3.64121 -3.71095 0
M  V30 21119 C 1968.22 3.95614 -3.09507 0
M  V30 21120 C 1970.21 3.90253 -5.03966 0
M  V30 21121 C 1967.9 4.21404 -4.42563 0
M  V30 21122 C 1968.9 4.18712 -5.39601 0
M  V30 21123 O 1968.59 4.43855 -6.7026 0
M  V30 21124 H 1968.32 0.597446 -0.316283 0
M  V30 21125 H 1970.87 1.41938 -1.48469 0
M  V30 21126 H 1969.1 3.8189 -0.608003 0
M  V30 21127 H 1970.79 3.93092 -1.01162 0
M  V30 21128 H 1971.56 3.41749 -3.4414 0
M  V30 21129 H 1967.44 3.96846 -2.34594 0
M  V30 21130 H 1970.98 3.88067 -5.79698 0
M  V30 21131 H 1966.88 4.43252 -4.69252 0
M  V30 21132 H 1967.64 4.61425 -6.76039 0
M  V30 21133 N 1970.31 0.904053 1.29092 0
M  V30 21134 C 1971.53 0.547082 2.00054 0
M  V30 21135 C 1971.96 -0.862026 1.67185 0
M  V30 21136 O 1971.32 -1.57449 0.898855 0
M  V30 21137 C 1971.36 0.751495 3.52682 0
M  V30 21138 O 1970.47 -0.194004 4.11943 0
M  V30 21139 H 1969.81 0.213241 0.628828 0
M  V30 21140 H 1972.34 1.21683 1.64482 0
M  V30 21141 H 1972.35 0.657831 4.02662 0
M  V30 21142 H 1971.02 1.77878 3.75942 0
M  V30 21143 H 1969.6 -0.0524281 3.72863 0
M  V30 21144 N 1971.79 -1.4279 0.666995 0
M  V30 21145 C 1973.01 -2.05987 0.194192 0
M  V30 21146 C 1973.43 -1.50071 -1.1456 0
M  V30 21147 O 1972.79 -0.637419 -1.71006 0
M  V30 21148 C 1972.84 -3.61326 0.112034 0
M  V30 21149 O 1972.56 -4.15166 1.39888 0
M  V30 21150 C 1974.06 -4.41623 -0.385201 0
M  V30 21151 H 1971.28 -0.664055 0.096288 0
M  V30 21152 H 1973.82 -1.83061 0.91153 0
M  V30 21153 H 1971.98 -3.8339 -0.555944 0
M  V30 21154 H 1972.39 -5.08964 1.2671 0
M  V30 21155 H 1973.87 -5.50609 -0.391611 0
M  V30 21156 H 1974.34 -4.15643 -1.41906 0
M  V30 21157 H 1974.95 -4.2456 0.250766 0
M  V30 21158 N 1973.26 -0.409806 -1.52179 0
M  V30 21159 C 1974.67 0.0596356 -1.86605 0
M  V30 21160 C 1975.03 1.44377 -1.32852 0
M  V30 21161 O 1974.15 2.05829 -0.668074 0
M  V30 21162 C 1974.75 0.114992 -3.38605 0
M  V30 21163 C 1973.3 0.528771 -3.72667 0
M  V30 21164 C 1972.45 -0.29629 -2.75713 0
M  V30 21165 H 1975.4 -0.626843 -1.45796 0
M  V30 21166 H 1975.42 0.930114 -3.68957 0
M  V30 21167 H 1974.94 -0.892535 -3.77698 0
M  V30 21168 H 1973.04 1.54291 -3.39153 0
M  V30 21169 H 1973.15 0.272687 -4.78323 0
M  V30 21170 H 1971.51 0.241468 -2.53553 0
M  V30 21171 H 1972.3 -1.30218 -3.17645 0
M  V30 21172 N 1974.74 1.56975 -0.14025 0
M  V30 21173 C 1976.15 1.82757 0.381688 0
M  V30 21174 C 1976.5 1.0586 1.65191 0
M  V30 21175 O 1975.63 0.301768 2.14286 0
M  V30 21176 C 1976.22 3.31505 0.699272 0
M  V30 21177 C 1974.78 3.57892 1.16576 0
M  V30 21178 C 1973.93 2.7668 0.185351 0
M  V30 21179 H 1976.88 1.54444 -0.365058 0
M  V30 21180 H 1976.9 3.47292 1.55462 0
M  V30 21181 H 1976.41 3.87445 -0.225394 0
M  V30 21182 H 1974.51 3.07332 2.1066 0
M  V30 21183 H 1974.63 4.66386 1.0964 0
M  V30 21184 H 1972.99 2.45548 0.676642 0
M  V30 21185 H 1973.77 3.35388 -0.732787 0
M  V30 21186 N 1976.22 -0.133539 1.57033 0
M  V30 21187 C 1977.47 -0.842358 1.83268 0
M  V30 21188 C 1977.78 -1.81722 0.723634 0
M  V30 21189 O 1978.99 -2.57117 0.871969 0
M  V30 21190 C 1977.44 -1.54868 3.24875 0
M  V30 21191 C 1977.05 -0.615546 4.43751 0
M  V30 21192 C 1978.8 -2.24349 3.60372 0
M  V30 21193 C 1976.7 -1.32426 5.76383 0
M  V30 21194 H 1975.63 -0.318314 0.683515 0
M  V30 21195 H 1978.28 -0.0950741 1.83254 0
M  V30 21196 H 1976.67 -2.34207 3.19316 0
M  V30 21197 H 1977.84 0.143586 4.60576 0
M  V30 21198 H 1976.15 -0.0284595 4.1639 0
M  V30 21199 H 1978.75 -2.78037 4.56727 0
M  V30 21200 H 1979.09 -3.01473 2.87088 0
M  V30 21201 H 1979.63 -1.51914 3.67651 0
M  V30 21202 H 1976.37 -0.594603 6.52798 0
M  V30 21203 H 1975.89 -2.05577 5.6347 0
M  V30 21204 H 1977.57 -1.86148 6.19643 0
M  V30 21205 O 1977.74 -1.59088 -0.278064 0
M  V30 21206 H 1978.43 -1.70262 -0.923609 0
M  V30 END ATOM
M  V30 BEGIN BOND
M  V30 END BOND
M  V30 END CTAB
M  END
$$$$
