drugbank_target|P45984 Mitogen-activated protein kinase 9 (DB07020; DB12010)
 OpenBabel12092120393D

  0  0  0     0  0            999 V3000
M  V30 BEGIN CTAB
M  V30 COUNTS 6728 6799 0 0 0
M  V30 BEGIN ATOM
M  V30 1 H -0.908 1.98254 -0.117106 0
M  V30 2 N 0 1.576 0 0
M  V30 3 C 0.933 2.03868 1.02534 0
M  V30 4 C 1.911 0.928543 1.3348 0
M  V30 5 O 3.095 1.19667 1.45644 0
M  V30 6 C 0.222 2.43627 2.35294 0
M  V30 7 C -0.732 3.65373 2.2001 0
M  V30 8 S 0.101 5.13292 1.52614 0
M  V30 9 C 1.257 5.56322 2.86805 0
M  V30 10 H 1.49 2.90518 0.631377 0
M  V30 11 H -0.977 1.52953 0.210867 0
M  V30 12 H 0.981 2.67203 3.11629 0
M  V30 13 H -0.358 1.57376 2.7183 0
M  V30 14 H -1.165 3.90944 3.18086 0
M  V30 15 H -1.563 3.418 1.51819 0
M  V30 16 H 0.729 5.58782 3.83104 0
M  V30 17 H 1.672 6.56266 2.65933 0
M  V30 18 H 2.08 4.83886 2.90714 0
M  V30 19 N 1.4781 -0.272755 1.55222 0
M  V30 20 C 2.7031 -1.02683 1.80197 0
M  V30 21 C 3.1281 -1.79142 0.573551 0
M  V30 22 O 2.4861 -1.74917 -0.476849 0
M  V30 23 C 2.5341 -1.9609 3.02624 0
M  V30 24 O 1.6381 -3.04863 2.77727 0
M  V30 25 H 0.9791 -0.293557 0.595584 0
M  V30 26 H 3.5091 -0.30159 2.02365 0
M  V30 27 H 3.5191 -2.38039 3.31363 0
M  V30 28 H 2.1941 -1.39851 3.91682 0
M  V30 29 H 0.7711 -2.67228 2.60084 0
M  V30 30 N 2.9562 -1.48159 -0.537278 0
M  V30 31 C 4.2332 -1.46291 -1.29839 0
M  V30 32 C 4.6132 -0.170613 -2.10409 0
M  V30 33 O 3.9612 0.847746 -2.12192 0
M  V30 34 C 4.1712 -2.72055 -2.18603 0
M  V30 35 C 5.5192 -3.20087 -2.7898 0
M  V30 36 O 6.5432 -2.72921 -2.28894 0
M  V30 37 O 5.4022 -4.02138 -3.70064 0
M  V30 38 H 2.4962 -0.583906 -0.585647 0
M  V30 39 H 5.0422 -1.60384 -0.554534 0
M  V30 40 H 3.8142 -3.57628 -1.58801 0
M  V30 41 H 3.4372 -2.60646 -3.00249 0
M  V30 42 N 4.4343 0.785586 -1.36625 0
M  V30 43 C 5.6593 1.57963 -1.34397 0
M  V30 44 C 6.0843 1.87964 0.071526 0
M  V30 45 O 5.4423 1.48182 1.0446 0
M  V30 46 C 5.4903 2.87511 -2.17646 0
M  V30 47 O 4.5943 3.81281 -1.57158 0
M  V30 48 H 3.9353 0.479014 -0.459828 0
M  V30 49 H 6.4653 0.973411 -1.79961 0
M  V30 50 H 6.4753 3.36745 -2.30362 0
M  V30 51 H 5.1503 2.65002 -3.20541 0
M  V30 52 H 3.7273 3.39885 -1.53403 0
M  V30 53 N 5.9124 1.20967 1.01018 0
M  V30 54 C 6.8594 0.964281 2.09691 0
M  V30 55 C 7.8294 -0.107853 1.65749 0
M  V30 56 O 9.0144 0.0381987 1.90762 0
M  V30 57 C 6.1544 0.52943 3.41015 0
M  V30 58 C 5.2674 1.67043 3.98398 0
M  V30 59 C 4.4024 1.18525 5.17808 0
M  V30 60 C 3.4414 2.29892 5.67288 0
M  V30 61 N 2.5784 1.82546 6.77954 0
M  V30 62 H 7.4184 1.89463 2.30017 0
M  V30 63 H 4.9554 0.944289 1.1279 0
M  V30 64 H 6.9134 0.258588 4.16398 0
M  V30 65 H 5.5434 -0.363919 3.20742 0
M  V30 66 H 4.5954 2.05603 3.20049 0
M  V30 67 H 5.9074 2.50877 4.31117 0
M  V30 68 H 5.0614 0.870762 6.00419 0
M  V30 69 H 3.8004 0.316887 4.86669 0
M  V30 70 H 2.8054 2.6215 4.83278 0
M  V30 71 H 4.0304 3.17216 6.00459 0
M  V30 72 H 1.9764 0.980454 6.48632 0
M  V30 73 H 1.8934 2.59956 7.09901 0
M  V30 74 H 3.1614 1.54115 7.64113 0
M  V30 75 N 7.3905 -1.2043 1.01659 0
M  V30 76 C 8.6305 -1.91507 0.714456 0
M  V30 77 C 8.9945 -1.77073 -0.742237 0
M  V30 78 O 10.1955 -2.42631 -1.15688 0
M  V30 79 C 8.4665 -3.38795 1.13809 0
M  V30 80 S 10.0255 -4.28216 0.957925 0
M  V30 81 H 6.8435 -0.661571 0.260471 0
M  V30 82 H 9.4455 -1.45671 1.30384 0
M  V30 83 H 8.1495 -3.46822 2.19415 0
M  V30 84 H 7.6805 -3.89656 0.541474 0
M  V30 85 H 9.6955 -4.96007 -0.138531 0
M  V30 86 N 8.8686 -0.792821 -1.36206 0
M  V30 87 C 10.1456 -0.290627 -1.93429 0
M  V30 88 C 10.5256 1.21773 -1.72437 0
M  V30 89 O 9.8736 2.0108 -1.08531 0
M  V30 90 C 10.0836 -0.686973 -3.42172 0
M  V30 91 C 11.4316 -0.668643 -4.19302 0
M  V30 92 O 12.4556 -0.627658 -3.50626 0
M  V30 93 O 11.3146 -0.714597 -5.41808 0
M  V30 94 H 8.4086 -0.0727927 -0.82379 0
M  V30 95 H 10.9546 -0.875593 -1.45367 0
M  V30 96 H 9.7266 -1.72711 -3.51122 0
M  V30 97 H 9.3496 -0.0760733 -3.97527 0
M  V30 98 N 10.3467 1.47872 -0.545128 0
M  V30 99 C 11.5717 2.07391 -0.0190611 0
M  V30 100 C 11.9967 1.39688 1.25971 0
M  V30 101 O 11.3547 0.467816 1.7516 0
M  V30 102 C 11.4027 3.60188 0.172335 0
M  V30 103 O 10.5067 3.9339 1.23766 0
M  V30 104 H 9.8477 0.662411 -0.0459059 0
M  V30 105 H 12.3777 1.90066 -0.757365 0
M  V30 106 H 12.3877 4.06129 0.390305 0
M  V30 107 H 11.0627 4.08865 -0.761725 0
M  V30 108 H 9.6397 3.5921 1.00114 0
M  V30 109 N 11.8248 0.280983 1.55075 0
M  V30 110 C 12.7568 -0.637268 2.20163 0
M  V30 111 C 13.7698 -1.11298 1.18813 0
M  V30 112 O 14.9588 -1.03388 1.4551 0
M  V30 113 C 12.0588 -1.88199 2.81841 0
M  V30 114 C 11.2318 -1.55211 4.08936 0
M  V30 115 C 10.2908 -2.64991 4.54606 0
M  V30 116 O 9.3168 -2.30929 5.2025 0
M  V30 117 N 10.5188 -3.95161 4.25238 0
M  V30 118 H 13.2838 -0.0801694 2.99593 0
M  V30 119 H 10.8448 0.102329 1.61576 0
M  V30 120 H 12.8368 -2.60948 3.09335 0
M  V30 121 H 11.4068 -2.34799 2.06369 0
M  V30 122 H 10.6268 -0.658185 3.88666 0
M  V30 123 H 11.9148 -1.30681 4.91732 0
M  V30 124 H 11.3128 -4.25653 3.72607 0
M  V30 125 H 9.8698 -4.6427 4.5749 0
M  V30 126 N 13.3029 -1.57598 0.00835791 0
M  V30 127 C 14.5499 -1.90928 -0.674732 0
M  V30 128 C 14.8779 -0.88277 -1.73313 0
M  V30 129 O 14.1329 0.111294 -1.95383 0
M  V30 130 C 14.4319 -3.3101 -1.34787 0
M  V30 131 C 14.0979 -4.48922 -0.421861 0
M  V30 132 C 12.7599 -4.8091 -0.166927 0
M  V30 133 C 15.1119 -5.20755 0.215211 0
M  V30 134 C 12.4399 -5.821 0.733232 0
M  V30 135 C 14.7919 -6.22905 1.1033 0
M  V30 136 C 13.4559 -6.53346 1.36733 0
M  V30 137 H 12.7259 -0.698656 -0.246902 0
M  V30 138 H 15.3729 -1.91387 0.0656779 0
M  V30 139 H 13.6779 -3.26714 -2.16253 0
M  V30 140 H 15.3749 -3.54061 -1.8826 0
M  V30 141 H 11.9649 -4.23934 -0.630729 0
M  V30 142 H 16.1489 -4.9629 0.0312829 0
M  V30 143 H 11.4049 -6.04042 0.945712 0
M  V30 144 H 15.5789 -6.77694 1.60325 0
M  V30 145 H 13.2059 -7.31573 2.06652 0
M  V30 146 N 14.781 0.264519 -1.55364 0
M  V30 147 C 16.011 1.01153 -1.80143 0
M  V30 148 C 16.419 1.80115 -0.579253 0
M  V30 149 O 15.762 1.77813 0.46132 0
M  V30 150 C 15.824 2.01098 -2.97993 0
M  V30 151 C 15.488 1.40995 -4.34706 0
M  V30 152 C 16.485 0.821316 -5.13372 0
M  V30 153 C 14.17 1.43461 -4.81378 0
M  V30 154 C 16.164 0.265339 -6.36847 0
M  V30 155 C 13.851 0.874771 -6.04807 0
M  V30 156 C 14.849 0.291146 -6.82379 0
M  V30 157 O 14.537 -0.260093 -8.03479 0
M  V30 158 H 14.269 0.304125 -0.603725 0
M  V30 159 H 16.823 0.298089 -2.03225 0
M  V30 160 H 15.053 2.76224 -2.70623 0
M  V30 161 H 16.742 2.61997 -3.1002 0
M  V30 162 H 17.508 0.794903 -4.78442 0
M  V30 163 H 13.387 1.87826 -4.21002 0
M  V30 164 H 16.931 -0.190837 -6.97339 0
M  V30 165 H 12.828 0.898452 -6.39217 0
M  V30 166 H 13.596 -0.150265 -8.18362 0
M  V30 167 N 16.2591 1.48442 0.529413 0
M  V30 168 C 17.4841 1.60406 1.31471 0
M  V30 169 C 17.9091 0.264738 1.86228 0
M  V30 170 O 17.2671 -0.763668 1.64432 0
M  V30 171 C 17.3151 2.65419 2.44101 0
M  V30 172 O 16.4191 2.22618 3.47153 0
M  V30 173 H 15.7601 0.537863 0.389357 0
M  V30 174 H 18.2901 1.94432 0.636965 0
M  V30 175 H 18.3001 2.86709 2.90279 0
M  V30 176 H 16.9751 3.62652 2.03608 0
M  V30 177 H 15.5521 2.11543 3.0709 0
M  V30 178 N 17.7372 -0.778329 1.37039 0
M  V30 179 C 18.9832 -1.53892 1.32079 0
M  V30 180 C 19.3162 -1.9396 -0.0965386 0
M  V30 181 O 18.5912 -1.63568 -1.05242 0
M  V30 182 C 18.8742 -2.80847 2.25382 0
M  V30 183 C 18.7272 -2.47076 3.75864 0
M  V30 184 C 20.0462 -3.82741 2.1725 0
M  V30 185 H 17.1652 -0.558303 0.48111 0
M  V30 186 H 19.8072 -0.893397 1.67685 0
M  V30 187 H 17.9572 -3.35931 1.95148 0
M  V30 188 H 19.6292 -1.97957 4.16666 0
M  V30 189 H 17.8722 -1.79863 3.94755 0
M  V30 190 H 18.5432 -3.37798 4.36574 0
M  V30 191 H 21.0192 -3.37133 2.43887 0
M  V30 192 H 19.8952 -4.69303 2.84686 0
M  V30 193 H 20.1562 -4.2652 1.16331 0
M  V30 194 N 19.2153 -1.21501 -1.00376 0
M  V30 195 C 20.1473 -0.933174 -2.09343 0
M  V30 196 C 21.1603 0.0840896 -1.62583 0
M  V30 197 O 22.3493 -0.148563 -1.77881 0
M  V30 198 C 19.4493 -0.379869 -3.36764 0
M  V30 199 C 18.6223 -1.45176 -4.12605 0
M  V30 200 C 17.6813 -0.907476 -5.18316 0
M  V30 201 O 16.7073 -1.5912 -5.46507 0
M  V30 202 N 17.9093 0.276649 -5.7984 0
M  V30 203 H 20.6743 -1.87124 -2.34104 0
M  V30 204 H 18.2353 -1.12043 -1.16867 0
M  V30 205 H 20.2273 -0.00131488 -4.047 0
M  V30 206 H 18.7973 0.463048 -3.09151 0
M  V30 207 H 18.0173 -2.00411 -3.39454 0
M  V30 208 H 19.3053 -2.17328 -4.6005 0
M  V30 209 H 18.7033 0.849147 -5.59291 0
M  V30 210 H 17.2603 0.596702 -6.49063 0
M  V30 211 N 20.6934 1.19889 -1.02296 0
M  V30 212 C 21.9394 1.89701 -0.717033 0
M  V30 213 C 22.2724 1.7905 0.751989 0
M  V30 214 O 21.5474 1.17891 1.547 0
M  V30 215 C 21.8304 3.40858 -1.16136 0
M  V30 216 C 21.6834 3.60411 -2.69117 0
M  V30 217 C 23.0024 4.33876 -0.737549 0
M  V30 218 H 20.1214 0.688874 -0.261957 0
M  V30 219 H 22.7634 1.41154 -1.27183 0
M  V30 220 H 20.9134 3.82335 -0.689342 0
M  V30 221 H 22.5854 3.28145 -3.2422 0
M  V30 222 H 20.8284 3.03665 -3.0979 0
M  V30 223 H 21.4994 4.66396 -2.95261 0
M  V30 224 H 23.9754 4.00081 -1.14344 0
M  V30 225 H 22.8514 5.38242 -1.0764 0
M  V30 226 H 23.1124 4.40628 0.360436 0
M  V30 227 N 22.1715 0.800033 1.35784 0
M  V30 228 C 23.1345 0.211565 2.28221 0
M  V30 229 C 24.1345 -0.59728 1.49296 0
M  V30 230 O 25.3245 -0.416721 1.69142 0
M  V30 231 C 22.4565 -0.705846 3.33513 0
M  V30 232 H 23.6495 1.02677 2.81776 0
M  V30 233 H 21.2025 0.570211 1.45528 0
M  V30 234 H 21.9375 -1.54498 2.85133 0
M  V30 235 H 21.7225 -0.127655 3.91892 0
M  V30 236 H 23.2125 -1.11211 4.02519 0
M  V30 237 N 23.6496 -1.47581 0.552962 0
M  V30 238 C 24.9266 -1.95563 -0.0381515 0
M  V30 239 C 25.3066 -1.49552 -1.48988 0
M  V30 240 O 24.6546 -0.732414 -2.16444 0
M  V30 241 C 24.8646 -3.48848 0.102919 0
M  V30 242 C 26.2126 -4.24577 -0.0446082 0
M  V30 243 O 27.2366 -3.56187 0.0302548 0
M  V30 244 O 26.0956 -5.46116 -0.204923 0
M  V30 245 H 23.1896 -0.824321 -0.0665067 0
M  V30 246 H 25.7356 -1.58001 0.619186 0
M  V30 247 H 24.5076 -3.75129 1.11328 0
M  V30 248 H 24.1306 -3.93165 -0.592224 0
M  V30 249 N 25.1277 -0.289203 -1.54924 0
M  V30 250 C 26.3527 0.329299 -2.04769 0
M  V30 251 C 26.7777 1.4763 -1.16564 0
M  V30 252 O 26.1357 1.80527 -0.167186 0
M  V30 253 C 26.1837 0.774438 -3.52186 0
M  V30 254 O 25.2877 1.88038 -3.67036 0
M  V30 255 H 24.6287 0.0659259 -0.660719 0
M  V30 256 H 27.1587 -0.42761 -2.00082 0
M  V30 257 H 27.1687 1.06642 -3.93816 0
M  V30 258 H 25.8437 -0.0646707 -4.1585 0
M  V30 259 H 24.4207 1.58985 -3.3731 0
M  V30 260 N 26.6058 1.57591 -0.0167156 0
M  V30 261 C 27.8338 1.95575 0.675128 0
M  V30 262 C 28.2488 0.892542 1.6637 0
M  V30 263 O 27.6058 -0.126912 1.82058 0
M  V30 264 C 27.6568 3.33608 1.39239 0
M  V30 265 O 27.3778 4.3585 0.443444 0
M  V30 266 C 28.8788 3.86151 2.17721 0
M  V30 267 H 26.0988 0.644423 0.186978 0
M  V30 268 H 28.6428 2.0437 -0.0728 0
M  V30 269 H 26.7978 3.2607 2.09182 0
M  V30 270 H 27.2118 5.158 0.951358 0
M  V30 271 H 28.6858 4.85114 2.63379 0
M  V30 272 H 29.1628 3.19738 3.01105 0
M  V30 273 H 29.7688 3.96918 1.52761 0
M  V30 274 N 28.0839 -0.256276 1.55502 0
M  V30 275 C 29.3309 -0.985619 1.76895 0
M  V30 276 C 29.6589 -1.85671 0.579355 0
M  V30 277 O 28.9139 -1.90744 -0.437651 0
M  V30 278 C 29.2129 -1.88432 3.03691 0
M  V30 279 C 28.8789 -1.16936 4.35473 0
M  V30 280 C 27.5409 -0.97173 4.71286 0
M  V30 281 C 29.8929 -0.661889 5.1698 0
M  V30 282 C 27.2209 -0.254179 5.86149 0
M  V30 283 C 29.5729 0.042149 6.32586 0
M  V30 284 C 28.2369 0.25134 6.67027 0
M  V30 285 H 27.5069 -0.360663 0.647304 0
M  V30 286 H 30.1539 -0.256483 1.89775 0
M  V30 287 H 28.4589 -2.68021 2.85783 0
M  V30 288 H 30.1559 -2.45015 3.1744 0
M  V30 289 H 26.7459 -1.33332 4.07333 0
M  V30 290 H 30.9299 -0.802145 4.89775 0
M  V30 291 H 26.1859 -0.0815408 6.11346 0
M  V30 292 H 30.3599 0.443049 6.94989 0
M  V30 293 H 27.9869 0.809314 7.5588 0
M  V30 294 N 29.562 -1.4872 -0.521534 0
M  V30 295 C 30.79 -1.60843 -1.30142 0
M  V30 296 C 31.205 -0.271897 -1.86832 0
M  V30 297 O 30.562 0.739969 -1.66825 0
M  V30 298 C 30.613 -2.66155 -2.4463 0
M  V30 299 O 30.334 -3.94623 -1.90275 0
M  V30 300 C 31.835 -2.88795 -3.36322 0
M  V30 301 H 29.055 -0.542075 -0.395468 0
M  V30 302 H 31.599 -1.94609 -0.628285 0
M  V30 303 H 29.754 -2.35224 -3.07812 0
M  V30 304 H 30.168 -4.52468 -2.65279 0
M  V30 305 H 31.642 -3.66264 -4.12983 0
M  V30 306 H 32.119 -1.97934 -3.9207 0
M  V30 307 H 32.725 -3.21063 -2.78924 0
M  V30 308 N 31.0401 0.771051 -1.3745 0
M  V30 309 C 32.2861 1.5319 -1.32894 0
M  V30 310 C 32.6191 1.94008 0.0862511 0
M  V30 311 O 31.8941 1.64124 1.04373 0
M  V30 312 C 32.1771 2.79648 -2.26868 0
M  V30 313 C 32.0301 2.45079 -3.77169 0
M  V30 314 C 33.3491 3.81583 -2.19277 0
M  V30 315 H 30.4681 0.555744 -0.484064 0
M  V30 316 H 33.1101 0.884492 -1.68157 0
M  V30 317 H 31.2601 3.34891 -1.96926 0
M  V30 318 H 32.9321 1.95745 -4.1771 0
M  V30 319 H 31.1751 1.77767 -3.95704 0
M  V30 320 H 31.8461 3.35478 -4.38359 0
M  V30 321 H 34.3221 3.35835 -2.45671 0
M  V30 322 H 33.1981 4.67787 -2.87171 0
M  V30 323 H 33.4591 4.25897 -1.18592 0
M  V30 324 N 32.5182 1.22032 0.997298 0
M  V30 325 C 33.4482 1.01065 2.10495 0
M  V30 326 C 34.4292 -0.0669542 1.69968 0
M  V30 327 O 35.6142 0.0943987 1.9397 0
M  V30 328 C 32.7442 0.582874 3.42374 0
M  V30 329 C 31.6982 1.60592 3.96729 0
M  V30 330 C 31.0242 1.03412 5.24605 0
M  V30 331 C 32.3242 2.99478 4.27914 0
M  V30 332 H 34.0182 1.93708 2.28292 0
M  V30 333 H 31.5642 0.932761 1.09707 0
M  V30 334 H 33.5172 0.423332 4.19268 0
M  V30 335 H 32.2412 -0.379213 3.24391 0
M  V30 336 H 30.9002 1.75316 3.21963 0
M  V30 337 H 30.5482 0.063518 5.0296 0
M  V30 338 H 30.2482 1.71754 5.61938 0
M  V30 339 H 31.7722 0.886066 6.04137 0
M  V30 340 H 33.1862 2.88153 4.95622 0
M  V30 341 H 31.5832 3.64903 4.76409 0
M  V30 342 H 32.6532 3.49742 3.3587 0
M  V30 343 N 33.9963 -1.19345 1.0293 0
M  V30 344 C 34.9433 -2.2258 0.610464 0
M  V30 345 C 35.9133 -1.6179 -0.375946 0
M  V30 346 O 37.0983 -1.88844 -0.272511 0
M  V30 347 C 34.2383 -3.45085 -0.0321473 0
M  V30 348 C 33.3513 -4.20258 1.00035 0
M  V30 349 C 32.4863 -5.3019 0.32746 0
M  V30 350 C 31.5253 -5.97121 1.34584 0
M  V30 351 N 30.6623 -6.98615 0.698726 0
M  V30 352 H 35.5023 -2.57764 1.49538 0
M  V30 353 H 33.0393 -1.26644 0.748311 0
M  V30 354 H 34.9973 -4.15061 -0.421966 0
M  V30 355 H 33.6273 -3.10555 -0.88064 0
M  V30 356 H 32.6793 -3.49223 1.50823 0
M  V30 357 H 33.9913 -4.66175 1.77433 0
M  V30 358 H 33.1453 -6.06587 -0.11718 0
M  V30 359 H 31.8843 -4.85345 -0.478713 0
M  V30 360 H 30.8893 -5.19474 1.80074 0
M  V30 361 H 32.1143 -6.4405 2.15352 0
M  V30 362 H 30.0603 -6.55942 -0.0873471 0
M  V30 363 H 29.9773 -7.42724 1.41058 0
M  V30 364 H 31.2453 -7.79004 0.278102 0
M  V30 365 N 35.4744 -0.807222 -1.35358 0
M  V30 366 C 36.8904 -0.491038 -1.51858 0
M  V30 367 C 37.0904 0.987648 -1.75635 0
M  V30 368 O 36.1464 1.77265 -1.79815 0
M  V30 369 C 37.4594 -1.33695 -2.69344 0
M  V30 370 C 39.0074 -1.33246 -2.83222 0
M  V30 371 C 39.4824 -2.1625 -4.03733 0
M  V30 372 N 40.9734 -2.1379 -4.10911 0
M  V30 373 C 41.7084 -2.74772 -5.03277 0
M  V30 374 N 41.2044 -3.44684 -6.0097 0
M  V30 375 N 42.9974 -2.6441 -4.96028 0
M  V30 376 H 35.1484 -1.76485 -1.18181 0
M  V30 377 H 37.4114 -0.751199 -0.578276 0
M  V30 378 H 37.1174 -2.38634 -2.58354 0
M  V30 379 H 36.9914 -0.990618 -3.6396 0
M  V30 380 H 39.3784 -0.290911 -2.93663 0
M  V30 381 H 39.4594 -1.71866 -1.89461 0
M  V30 382 H 39.1034 -3.20445 -3.94052 0
M  V30 383 H 39.0334 -1.74989 -4.96675 0
M  V30 384 H 41.5244 -1.62923 -3.40976 0
M  V30 385 H 41.8374 -3.88501 -6.68047 0
M  V30 386 H 40.1824 -3.48788 -6.01142 0
M  V30 387 H 43.3734 -2.0938 -4.18662 0
M  V30 388 H 43.5464 -3.12225 -5.6782 0
M  V30 389 N 36.9525 1.47285 -0.560781 0
M  V30 390 C 38.1825 2.06555 -0.0429638 0
M  V30 391 C 38.5905 1.41339 1.25777 0
M  V30 392 O 37.9335 0.505182 1.76617 0
M  V30 393 C 37.9955 3.58827 0.219887 0
M  V30 394 C 37.6595 4.46105 -0.991944 0
M  V30 395 C 38.6565 4.84 -1.89843 0
M  V30 396 C 36.3415 4.87567 -1.20762 0
M  V30 397 C 38.3355 5.6216 -3.00425 0
M  V30 398 C 36.0225 5.65491 -2.31653 0
M  V30 399 C 37.0205 6.02699 -3.21315 0
M  V30 400 O 36.7085 6.79052 -4.30283 0
M  V30 401 H 36.4405 0.674537 -0.0444468 0
M  V30 402 H 38.9945 1.90225 -0.774818 0
M  V30 403 H 37.2245 3.73383 1.00609 0
M  V30 404 H 38.9135 4.00103 0.683522 0
M  V30 405 H 39.6795 4.52564 -1.74387 0
M  V30 406 H 35.5585 4.5807 -0.518893 0
M  V30 407 H 39.1025 5.9112 -3.70436 0
M  V30 408 H 34.9995 5.9634 -2.47081 0
M  V30 409 H 35.7675 6.9745 -4.28376 0
M  V30 410 N 38.4306 0.297415 1.54768 0
M  V30 411 C 39.3626 -0.613881 2.20826 0
M  V30 412 C 40.3756 -1.10032 1.19987 0
M  V30 413 O 41.5646 -1.01839 1.46598 0
M  V30 414 C 38.6646 -1.852 2.83821 0
M  V30 415 C 37.8376 -1.50865 4.10559 0
M  V30 416 C 36.8966 -2.60154 4.57391 0
M  V30 417 O 35.9226 -2.25398 5.2267 0
M  V30 418 N 37.1246 -3.90629 4.29406 0
M  V30 419 H 39.8896 -0.048389 2.99661 0
M  V30 420 H 37.4506 0.11946 1.61459 0
M  V30 421 H 39.4426 -2.57652 3.12086 0
M  V30 422 H 38.0126 -2.32597 2.08847 0
M  V30 423 H 37.2326 -0.616925 3.89343 0
M  V30 424 H 38.5206 -1.25458 4.9309 0
M  V30 425 H 37.9186 -4.21677 3.77101 0
M  V30 426 H 36.4756 -4.59391 4.62388 0
M  V30 427 N 39.9087 -1.5758 0.0250728 0
M  V30 428 C 40.8407 -2.06869 -0.986796 0
M  V30 429 C 41.8537 -0.991332 -1.29137 0
M  V30 430 O 43.0427 -1.26761 -1.25674 0
M  V30 431 C 40.1427 -2.47486 -2.31525 0
M  V30 432 C 39.3157 -3.78253 -2.19643 0
M  V30 433 C 38.3747 -4.05464 -3.35388 0
M  V30 434 O 37.4007 -4.75774 -3.12454 0
M  V30 435 N 38.6027 -3.55321 -4.59051 0
M  V30 436 H 41.3677 -2.94302 -0.566276 0
M  V30 437 H 38.9287 -1.6109 -0.161776 0
M  V30 438 H 40.9207 -2.62785 -3.07776 0
M  V30 439 H 39.4907 -1.65441 -2.65232 0
M  V30 440 H 38.7107 -3.7279 -1.28144 0
M  V30 441 H 39.9987 -4.63936 -2.08903 0
M  V30 442 H 39.3967 -2.98431 -4.80578 0
M  V30 443 H 37.9537 -3.75905 -5.32483 0
M  V30 444 N 41.3868 0.248026 -1.55636 0
M  V30 445 C 42.3168 1.31079 -1.93237 0
M  V30 446 C 43.2978 1.50264 -0.797174 0
M  V30 447 O 44.4828 1.62891 -1.05737 0
M  V30 448 C 41.6128 2.66575 -2.22609 0
M  V30 449 C 40.5668 2.62087 -3.3837 0
M  V30 450 C 39.8928 4.01369 -3.53281 0
M  V30 451 C 41.1928 2.19171 -4.7409 0
M  V30 452 H 42.8868 0.998556 -2.82257 0
M  V30 453 H 40.4328 0.47891 -1.35803 0
M  V30 454 H 42.3858 3.41057 -2.47503 0
M  V30 455 H 41.1098 2.99432 -1.30414 0
M  V30 456 H 39.7688 1.90063 -3.13483 0
M  V30 457 H 39.4168 4.31489 -2.58508 0
M  V30 458 H 39.1168 3.99254 -4.31127 0
M  V30 459 H 40.6408 4.77552 -3.80495 0
M  V30 460 H 42.0548 2.83384 -4.98363 0
M  V30 461 H 40.4518 2.2817 -5.5503 0
M  V30 462 H 41.5218 1.14336 -4.71227 0
M  V30 463 N 42.8649 1.48995 0.513639 0
M  V30 464 C 43.8119 1.6473 1.61656 0
M  V30 465 C 44.7819 0.488984 1.58739 0
M  V30 466 O 45.9669 0.714478 1.76918 0
M  V30 467 C 43.1069 1.7082 2.99858 0
M  V30 468 C 42.2199 2.9787 3.12885 0
M  V30 469 C 41.3549 2.95017 4.41744 0
M  V30 470 C 40.3939 4.16702 4.48359 0
M  V30 471 N 39.5309 4.11832 5.68629 0
M  V30 472 H 44.3709 2.58909 1.47547 0
M  V30 473 H 41.9079 1.28382 0.71808 0
M  V30 474 H 43.8659 1.72331 3.79944 0
M  V30 475 H 42.4959 0.801181 3.12699 0
M  V30 476 H 41.5479 3.06029 2.25944 0
M  V30 477 H 42.8599 3.8786 3.13633 0
M  V30 478 H 42.0139 2.95021 5.30139 0
M  V30 479 H 40.7529 2.02784 4.43542 0
M  V30 480 H 39.7579 4.16955 3.58369 0
M  V30 481 H 40.9829 5.10113 4.48287 0
M  V30 482 H 38.9289 3.22428 5.71293 0
M  V30 483 H 38.8459 4.95543 5.7094 0
M  V30 484 H 40.1139 4.1592 6.59266 0
M  V30 485 N 44.343 -0.763751 1.37857 0
M  V30 486 C 45.754 -1.3405 1.29952 0
M  V30 487 C 46.105 -1.96138 -0.0492898 0
M  V30 488 O 45.23 -1.94372 -0.951239 0
M  V30 489 C 45.825 -2.43729 2.35333 0
M  V30 490 C 44.384 -2.97151 2.31037 0
M  V30 491 C 43.531 -1.70438 2.18738 0
M  V30 492 H 46.482 -0.563396 1.48363 0
M  V30 493 H 46.503 -3.23412 2.00462 0
M  V30 494 H 46.015 -1.9851 3.33489 0
M  V30 495 H 44.116 -3.46724 1.3643 0
M  V30 496 H 44.229 -3.52221 3.24772 0
M  V30 497 H 42.593 -1.93673 1.65418 0
M  V30 498 H 43.376 -1.27312 3.18821 0
M  V30 499 N 45.8211 -1.22559 -0.990812 0
M  V30 500 C 47.0701 -1.04553 -1.72486 0
M  V30 501 C 47.3831 0.419349 -1.91052 0
M  V30 502 O 48.5891 0.719121 -2.61803 0
M  V30 503 C 47.0451 -1.82231 -3.10355 0
M  V30 504 C 46.6531 -3.32981 -2.99713 0
M  V30 505 C 48.3971 -1.7268 -3.87791 0
M  V30 506 C 46.3041 -4.03091 -4.32748 0
M  V30 507 H 45.2341 -0.387614 -0.646739 0
M  V30 508 H 47.8851 -1.46429 -1.10593 0
M  V30 509 H 46.2671 -1.33155 -3.72942 0
M  V30 510 H 47.4411 -3.89466 -2.46278 0
M  V30 511 H 45.7561 -3.43231 -2.35758 0
M  V30 512 H 48.3531 -2.22381 -4.86262 0
M  V30 513 H 48.6961 -0.687607 -4.10582 0
M  V30 514 H 49.2291 -2.1931 -3.31885 0
M  V30 515 H 45.9681 -5.07273 -4.15156 0
M  V30 516 H 45.4881 -3.51394 -4.86089 0
M  V30 517 H 47.1671 -4.08804 -5.01486 0
M  V30 518 N 47.2992 1.18797 -1.03562 0
M  V30 519 C 48.5472 1.88278 -0.734569 0
M  V30 520 C 48.8682 1.8043 0.739586 0
M  V30 521 O 48.1382 1.21925 1.53333 0
M  V30 522 H 46.7182 0.696991 -0.268725 0
M  V30 523 H 49.3802 1.44192 -1.31129 0
M  V30 524 H 48.4762 2.94443 -1.03489 0
M  V30 525 N 48.7773 0.814389 1.34928 0
M  V30 526 C 50.0023 0.410097 2.03305 0
M  V30 527 C 50.4273 -0.973464 1.60951 0
M  V30 528 O 49.7853 -1.63185 0.789964 0
M  V30 529 C 49.8333 0.51049 3.56968 0
M  V30 530 O 48.9373 -0.473035 4.09678 0
M  V30 531 H 48.2783 0.170088 0.641846 0
M  V30 532 H 50.8083 1.10244 1.72358 0
M  V30 533 H 50.8183 0.383135 4.06197 0
M  V30 534 H 49.4933 1.51963 3.87144 0
M  V30 535 H 48.0703 -0.305272 3.71648 0
M  V30 536 N 50.2554 -1.46986 0.568584 0
M  V30 537 C 51.5034 -2.02041 0.0487022 0
M  V30 538 C 51.8244 -1.44408 -1.31039 0
M  V30 539 O 51.0944 -0.623477 -1.85714 0
M  V30 540 H 49.6744 -0.746849 0.015014 0
M  V30 541 H 52.3364 -1.80257 0.741168 0
M  V30 542 H 51.4324 -3.12085 -0.0308961 0
M  V30 543 N 51.7335 -0.305618 -1.54608 0
M  V30 544 C 52.6965 0.555591 -2.22364 0
M  V30 545 C 53.6965 1.05768 -1.21119 0
M  V30 546 O 54.8865 0.952972 -1.45822 0
M  V30 547 C 52.0185 1.76974 -2.91364 0
M  V30 548 H 53.2115 -0.0364572 -2.99878 0
M  V30 549 H 50.7645 -0.0565007 -1.56198 0
M  V30 550 H 51.4995 2.40151 -2.17941 0
M  V30 551 H 51.2845 1.41732 -3.65588 0
M  V30 552 H 52.7745 2.38148 -3.43038 0
M  V30 553 N 53.2116 1.57565 -0.0334293 0
M  V30 554 C 54.1436 2.0739 0.975811 0
M  V30 555 C 55.1566 0.998166 1.2861 0
M  V30 556 O 56.3456 1.27426 1.25 0
M  V30 557 C 53.4456 2.4871 2.30209 0
M  V30 558 C 52.6186 3.79413 2.17634 0
M  V30 559 C 51.6776 4.07237 3.33233 0
M  V30 560 O 50.7036 4.77425 3.09927 0
M  V30 561 N 51.9056 3.5775 4.5716 0
M  V30 562 H 54.6706 2.94598 0.55066 0
M  V30 563 H 52.2316 1.61173 0.15323 0
M  V30 564 H 54.2236 2.64413 3.06378 0
M  V30 565 H 52.7936 1.66845 2.64351 0
M  V30 566 H 52.0136 3.73465 1.26165 0
M  V30 567 H 53.3016 4.65038 2.0644 0
M  V30 568 H 52.6996 3.00976 4.78989 0
M  V30 569 H 51.2566 3.78724 5.30482 0
M  V30 570 N 54.6897 -0.239769 1.55765 0
M  V30 571 C 55.9377 -0.964892 1.77579 0
M  V30 572 C 56.2587 -1.85582 0.598699 0
M  V30 573 O 55.5287 -1.92075 -0.385226 0
M  V30 574 H 54.1087 -0.359265 0.654933 0
M  V30 575 H 56.7707 -0.256001 1.93211 0
M  V30 576 H 55.8667 -1.58243 2.69009 0
M  V30 577 N 56.1678 -1.49265 -0.50573 0
M  V30 578 C 57.4168 -1.57761 -1.25675 0
M  V30 579 C 57.7298 -0.267371 -1.93764 0
M  V30 580 O 58.9358 -0.230827 -2.70517 0
M  V30 581 C 57.3918 -2.78332 -2.28165 0
M  V30 582 C 56.9998 -4.16096 -1.66037 0
M  V30 583 C 58.7438 -2.96155 -3.04125 0
M  V30 584 C 56.6508 -5.27895 -2.6661 0
M  V30 585 H 55.5808 -0.587391 -0.472745 0
M  V30 586 H 58.2318 -1.75644 -0.53118 0
M  V30 587 H 56.6138 -2.53934 -3.03865 0
M  V30 588 H 57.7878 -4.50612 -0.963622 0
M  V30 589 H 56.1028 -4.03591 -1.02484 0
M  V30 590 H 58.6998 -3.76849 -3.79327 0
M  V30 591 H 59.0428 -2.06534 -3.61455 0
M  V30 592 H 59.5758 -3.2057 -2.35541 0
M  V30 593 H 56.3148 -6.1956 -2.14068 0
M  V30 594 H 55.8348 -4.97839 -3.34539 0
M  V30 595 H 57.5138 -5.57031 -3.29129 0
M  V30 596 N 57.6459 0.756429 -1.3826 0
M  V30 597 C 58.8919 1.51772 -1.34511 0
M  V30 598 C 59.2249 1.94089 0.0656691 0
M  V30 599 O 58.4999 1.65221 1.02626 0
M  V30 600 C 58.7829 2.77226 -2.29821 0
M  V30 601 C 58.6359 2.41065 -3.79747 0
M  V30 602 C 59.9549 3.79236 -2.23312 0
M  V30 603 H 57.0739 0.550578 -0.489931 0
M  V30 604 H 59.7159 0.866607 -1.69086 0
M  V30 605 H 57.8659 3.32784 -2.00467 0
M  V30 606 H 59.5379 1.91303 -4.19763 0
M  V30 607 H 57.7809 1.7356 -3.97567 0
M  V30 608 H 58.4519 3.3081 -4.41892 0
M  V30 609 H 60.9279 3.3321 -2.49219 0
M  V30 610 H 59.8039 4.64714 -2.92116 0
M  V30 611 H 60.0649 4.24615 -1.23102 0
M  V30 612 N 59.124 1.23083 0.984299 0
M  V30 613 C 60.364 1.07226 1.74017 0
M  V30 614 C 60.728 -0.384766 1.88105 0
M  V30 615 O 61.929 -0.664411 2.60459 0
M  V30 616 C 60.2 1.77348 3.10294 0
M  V30 617 S 61.759 1.77014 4.01512 0
M  V30 618 H 58.577 0.383819 0.598502 0
M  V30 619 H 61.179 1.56158 1.17622 0
M  V30 620 H 59.883 2.82506 2.97689 0
M  V30 621 H 59.414 1.28682 3.71759 0
M  V30 622 H 61.429 0.825956 4.89277 0
M  V30 623 N 60.6021 -1.18246 1.0419 0
M  V30 624 C 61.5651 -2.20128 0.638452 0
M  V30 625 C 62.5651 -1.57885 -0.304805 0
M  V30 626 O 63.7551 -1.73967 -0.0900369 0
M  V30 627 C 60.8871 -3.4084 -0.0637751 0
M  V30 628 H 62.0801 -2.57336 1.54007 0
M  V30 629 H 59.6331 -1.32152 0.834598 0
M  V30 630 H 60.3681 -3.09166 -0.979136 0
M  V30 631 H 60.1531 -3.8726 0.614198 0
M  V30 632 H 61.6431 -4.16274 -0.332512 0
M  V30 633 N 62.0802 -0.821533 -1.34494 0
M  V30 634 C 63.0432 -0.247847 -2.27856 0
M  V30 635 C 64.0432 0.573453 -1.50227 0
M  V30 636 O 65.2332 0.389759 -1.69784 0
M  V30 637 C 62.3652 0.652698 -3.34593 0
M  V30 638 H 63.5582 -1.07146 -2.80107 0
M  V30 639 H 61.1112 -0.593291 -1.44602 0
M  V30 640 H 61.8462 1.49943 -2.87555 0
M  V30 641 H 61.6312 0.065292 -3.92046 0
M  V30 642 H 63.1212 1.04793 -4.04238 0
M  V30 643 N 63.5583 1.46682 -0.576371 0
M  V30 644 C 64.8053 2.02412 -0.0595339 0
M  V30 645 C 65.1333 1.44859 1.29793 0
M  V30 646 O 64.3883 0.601099 1.8624 0
M  V30 647 C 64.6873 3.57345 0.062886 0
M  V30 648 C 64.3533 4.33908 -1.22616 0
M  V30 649 C 63.0153 4.54544 -1.57933 0
M  V30 650 C 65.3673 4.77919 -2.07948 0
M  V30 651 C 62.6953 5.16444 -2.78393 0
M  V30 652 C 65.0473 5.41149 -3.27629 0
M  V30 653 C 63.7113 5.60014 -3.63236 0
M  V30 654 H 62.9813 0.74068 -0.021785 0
M  V30 655 H 65.6283 1.76128 -0.751735 0
M  V30 656 H 63.9333 3.82729 0.838178 0
M  V30 657 H 65.6303 3.98136 0.478439 0
M  V30 658 H 62.2203 4.18138 -0.941202 0
M  V30 659 H 66.4043 4.61738 -1.81967 0
M  V30 660 H 61.6603 5.29242 -3.06126 0
M  V30 661 H 65.8343 5.74211 -3.94023 0
M  V30 662 H 63.4613 6.07748 -4.56669 0
M  V30 663 N 65.0364 0.313813 1.54444 0
M  V30 664 C 66.3134 -0.345447 1.92525 0
M  V30 665 C 66.6934 -1.70667 1.24242 0
M  V30 666 O 66.0414 -2.25273 0.382654 0
M  V30 667 C 66.2514 -0.44737 3.46121 0
M  V30 668 C 67.5994 -0.712238 4.18584 0
M  V30 669 O 68.6234 -0.530678 3.52225 0
M  V30 670 O 67.4824 -1.06183 5.36085 0
M  V30 671 H 64.5764 -0.195407 0.803583 0
M  V30 672 H 67.1224 0.362813 1.65776 0
M  V30 673 H 65.8944 0.509043 3.87975 0
M  V30 674 H 65.5174 -1.20359 3.78945 0
M  V30 675 N 66.5145 -1.57545 0.0417849 0
M  V30 676 C 67.7425 -1.96624 -0.643928 0
M  V30 677 C 68.1575 -0.918897 -1.64929 0
M  V30 678 O 67.5145 0.0979323 -1.82237 0
M  V30 679 C 67.5655 -3.35781 -1.33914 0
M  V30 680 O 67.2865 -4.365 -0.374048 0
M  V30 681 C 68.7875 -3.89566 -2.1155 0
M  V30 682 H 66.0075 -0.647316 -0.176702 0
M  V30 683 H 68.5515 -2.04229 0.105304 0
M  V30 684 H 66.7065 -3.29357 -2.03968 0
M  V30 685 H 67.1205 -5.17248 -0.869179 0
M  V30 686 H 68.5945 -4.89242 -2.55628 0
M  V30 687 H 69.0715 -3.24488 -2.9598 0
M  V30 688 H 69.6775 -3.99298 -1.46427 0
M  V30 689 N 67.9926 0.231505 -1.5589 0
M  V30 690 C 69.2386 0.95877 -1.78705 0
M  V30 691 C 69.5716 1.8438 -0.609725 0
M  V30 692 O 68.8466 1.90521 0.391426 0
M  V30 693 C 69.1296 1.8062 -3.11526 0
M  V30 694 C 68.9826 0.948328 -4.39689 0
M  V30 695 C 70.3016 2.78585 -3.40703 0
M  V30 696 H 67.4206 0.347129 -0.650131 0
M  V30 697 H 70.0626 0.228259 -1.88624 0
M  V30 698 H 68.2126 2.42902 -3.03201 0
M  V30 699 H 69.8846 0.343016 -4.60023 0
M  V30 700 H 68.1276 0.253314 -4.3306 0
M  V30 701 H 68.7986 1.57543 -5.29041 0
M  V30 702 H 71.2746 2.26439 -3.49091 0
M  V30 703 H 70.1506 3.34988 -4.34826 0
M  V30 704 H 70.4116 3.55825 -2.62375 0
M  V30 705 N 69.4707 1.49531 0.497807 0
M  V30 706 C 70.4007 1.6935 1.60757 0
M  V30 707 C 71.3817 0.542218 1.61227 0
M  V30 708 O 72.5667 0.778417 1.77917 0
M  V30 709 C 69.6967 1.76298 2.99226 0
M  V30 710 C 68.6507 2.91248 3.13622 0
M  V30 711 C 67.9767 2.83312 4.53474 0
M  V30 712 C 69.2767 4.3214 2.93346 0
M  V30 713 H 70.9707 2.62263 1.44425 0
M  V30 714 H 68.5167 1.26208 0.693367 0
M  V30 715 H 70.4697 1.88749 3.76765 0
M  V30 716 H 69.1937 0.799871 3.16654 0
M  V30 717 H 67.8527 2.78404 2.38509 0
M  V30 718 H 67.5007 1.84902 4.67782 0
M  V30 719 H 67.2007 3.60465 4.64046 0
M  V30 720 H 68.7247 2.97775 5.33069 0
M  V30 721 H 70.1387 4.45649 3.60652 0
M  V30 722 H 68.5357 5.1054 3.15387 0
M  V30 723 H 69.6057 4.46363 1.89441 0
M  V30 724 N 70.9488 -0.749086 1.3866 0
M  V30 725 C 72.1968 -1.50535 1.34847 0
M  V30 726 C 72.5178 -1.94909 -0.0595016 0
M  V30 727 O 71.7878 -1.67973 -1.00806 0
M  V30 728 H 70.3678 -0.558395 0.49619 0
M  V30 729 H 73.0298 -0.890165 1.73384 0
M  V30 730 H 72.1258 -2.39413 2.00219 0
M  V30 731 N 72.4269 -1.23603 -0.977757 0
M  V30 732 C 73.6759 -1.06377 -1.71368 0
M  V30 733 C 73.9889 0.399062 -1.91486 0
M  V30 734 O 75.1949 0.691312 -2.62551 0
M  V30 735 C 73.6509 -1.85512 -3.08404 0
M  V30 736 C 73.2589 -3.36141 -2.96164 0
M  V30 737 C 75.0029 -1.76783 -3.85938 0
M  V30 738 C 72.9099 -4.07659 -4.28449 0
M  V30 739 H 71.8399 -0.394452 -0.642591 0
M  V30 740 H 74.4909 -1.47594 -1.09034 0
M  V30 741 H 72.8729 -1.37103 -3.71509 0
M  V30 742 H 74.0469 -3.92056 -2.42133 0
M  V30 743 H 72.3619 -3.45712 -2.32104 0
M  V30 744 H 74.9589 -2.27526 -4.83876 0
M  V30 745 H 75.3019 -0.731116 -4.0983 0
M  V30 746 H 75.8349 -2.22818 -3.2954 0
M  V30 747 H 72.5739 -5.11648 -4.09752 0
M  V30 748 H 72.0939 -3.5653 -4.82334 0
M  V30 749 H 73.7729 -4.141 -4.97122 0
M  V30 750 N 73.905 1.17692 -1.04816 0
M  V30 751 C 74.853 2.23632 -0.63966 0
M  V30 752 C 75.847 1.6601 0.337219 0
M  V30 753 O 77.053 1.78844 0.203693 0
M  V30 754 H 73.428 0.727949 -0.188665 0
M  V30 755 H 75.399 2.55387 -1.54337 0
M  V30 756 C 74.148 3.4769 -0.0264051 0
M  V30 757 H 73.471 3.92331 -0.769164 0
M  V30 758 H 74.911 4.23418 0.222098 0
M  V30 759 C 73.37 3.13807 1.22584 0
M  V30 760 O 73.9 3.28236 2.31569 0
M  V30 761 N 72.106 2.68065 1.12202 0
M  V30 762 H 71.653 2.56525 0.235133 0
M  V30 763 H 71.611 2.45767 1.96076 0
M  V30 764 N 75.3831 0.828654 1.34056 0
M  V30 765 C 76.6291 0.42008 1.98402 0
M  V30 766 C 76.9621 -1.01564 1.65525 0
M  V30 767 O 76.2371 -1.70834 0.929831 0
M  V30 768 C 76.5201 0.62927 3.54559 0
M  V30 769 C 76.3731 2.11152 3.97159 0
M  V30 770 C 77.6921 0.0688756 4.40046 0
M  V30 771 H 74.8111 0.154104 0.720709 0
M  V30 772 H 77.4531 1.04228 1.5886 0
M  V30 773 H 75.6031 0.0996418 3.88372 0
M  V30 774 H 77.2751 2.70522 3.73651 0
M  V30 775 H 75.5181 2.59985 3.47261 0
M  V30 776 H 76.1891 2.20868 5.05887 0
M  V30 777 H 78.6651 0.521458 4.1282 0
M  V30 778 H 77.5411 0.245006 5.48353 0
M  V30 779 H 77.8021 -1.0266 4.30015 0
M  V30 780 N 76.8612 -1.46375 0.584142 0
M  V30 781 C 77.8242 -2.28784 -0.138108 0
M  V30 782 C 78.8242 -1.38471 -0.817462 0
M  V30 783 O 80.0142 -1.60833 -0.669199 0
M  V30 784 C 77.1462 -3.18892 -1.20503 0
M  V30 785 H 78.3392 -2.94117 0.586127 0
M  V30 786 H 75.8922 -1.52509 0.342171 0
M  V30 787 H 76.6272 -2.58309 -1.96079 0
M  V30 788 H 76.4122 -3.85388 -0.722384 0
M  V30 789 H 77.9022 -3.80914 -1.71155 0
M  V30 790 N 78.3393 -0.321999 -1.54275 0
M  V30 791 C 79.5853 0.281461 -2.00837 0
M  V30 792 C 79.9183 1.51909 -1.20985 0
M  V30 793 O 79.1933 1.923 -0.291733 0
M  V30 794 C 79.4763 0.617162 -3.54772 0
M  V30 795 C 79.3293 -0.631064 -4.45351 0
M  V30 796 C 80.6483 1.43542 -4.16033 0
M  V30 797 H 77.7673 0.100826 -0.730071 0
M  V30 798 H 80.4093 -0.438268 -1.84876 0
M  V30 799 H 78.5593 1.23034 -3.68504 0
M  V30 800 H 80.2313 -1.26934 -4.43492 0
M  V30 801 H 78.4743 -1.26025 -4.15091 0
M  V30 802 H 79.1453 -0.351735 -5.50878 0
M  V30 803 H 81.6213 0.917134 -4.05867 0
M  V30 804 H 80.4973 1.63907 -5.23856 0
M  V30 805 H 80.7583 2.43108 -3.69257 0
M  V30 806 N 79.8174 1.5752 -0.0501392 0
M  V30 807 C 80.7644 2.1147 0.924603 0
M  V30 808 C 81.7344 1.02182 1.30951 0
M  V30 809 O 82.9194 1.29723 1.39916 0
M  V30 810 C 80.0594 2.66337 2.19451 0
M  V30 811 C 79.1724 3.89708 1.86418 0
M  V30 812 C 78.3074 4.32893 3.07859 0
M  V30 813 C 77.3464 5.48967 2.70742 0
M  V30 814 N 76.4834 5.87211 3.84874 0
M  V30 815 H 81.3234 2.94465 0.457639 0
M  V30 816 H 78.8604 1.45531 0.214266 0
M  V30 817 H 80.8184 2.96247 2.93758 0
M  V30 818 H 79.4484 1.86141 2.63726 0
M  V30 819 H 78.5004 3.66396 1.02264 0
M  V30 820 H 79.8124 4.74074 1.55096 0
M  V30 821 H 78.9664 4.6435 3.90466 0
M  V30 822 H 77.7054 3.47336 3.42358 0
M  V30 823 H 76.7104 5.17183 1.86551 0
M  V30 824 H 77.9354 6.3624 2.37436 0
M  V30 825 H 75.8814 5.04607 4.19175 0
M  V30 826 H 75.7984 6.66266 3.57247 0
M  V30 827 H 77.0664 6.23282 4.68123 0
M  V30 828 N 81.2955 -0.223234 1.56011 0
M  V30 829 C 82.2425 -1.27664 1.92277 0
M  V30 830 C 83.2125 -1.46659 0.779763 0
M  V30 831 O 84.3975 -1.60256 1.03551 0
M  V30 832 C 81.5375 -2.62234 2.24338 0
M  V30 833 C 80.6505 -2.51051 3.51564 0
M  V30 834 C 79.7855 -3.78133 3.7308 0
M  V30 835 C 78.8245 -3.61665 4.93827 0
M  V30 836 N 77.9615 -4.80693 5.11741 0
M  V30 837 H 82.8015 -0.960358 2.82101 0
M  V30 838 H 80.3385 -0.462901 1.39627 0
M  V30 839 H 82.2965 -3.40596 2.40936 0
M  V30 840 H 80.9265 -2.91961 1.3769 0
M  V30 841 H 79.9785 -1.64132 3.43169 0
M  V30 842 H 81.2905 -2.34803 4.40079 0
M  V30 843 H 80.4445 -4.64938 3.89766 0
M  V30 844 H 79.1835 -3.97304 2.82844 0
M  V30 845 H 78.1885 -2.73244 4.77093 0
M  V30 846 H 79.4135 -3.43966 5.85546 0
M  V30 847 H 77.3595 -5.00181 4.24446 0
M  V30 848 H 77.2765 -4.67165 5.94384 0
M  V30 849 H 78.5445 -5.6893 5.3286 0
M  V30 850 N 82.7736 -1.49793 -0.48987 0
M  V30 851 C 83.7036 -1.70201 -1.59856 0
M  V30 852 C 84.6846 -0.55076 -1.60937 0
M  V30 853 O 85.8696 -0.787841 -1.77501 0
M  V30 854 C 82.9996 -1.77882 -2.98287 0
M  V30 855 C 81.9536 -2.92907 -3.12073 0
M  V30 856 C 81.2796 -2.85712 -4.51965 0
M  V30 857 C 82.5796 -4.3369 -2.91051 0
M  V30 858 H 84.2736 -2.63025 -1.43032 0
M  V30 859 H 81.8196 -1.26574 -0.686664 0
M  V30 860 H 83.7726 -1.90744 -3.75759 0
M  V30 861 H 82.4966 -0.816653 -3.16225 0
M  V30 862 H 81.1556 -2.79665 -2.37029 0
M  V30 863 H 80.8036 -1.8738 -4.66795 0
M  V30 864 H 80.5036 -3.62921 -4.62128 0
M  V30 865 H 82.0276 -3.00598 -5.31482 0
M  V30 866 H 83.4416 -4.47555 -3.58284 0
M  V30 867 H 81.8386 -5.12205 -3.12675 0
M  V30 868 H 82.9086 -4.47362 -1.87071 0
M  V30 869 N 84.2517 0.741722 -1.39055 0
M  V30 870 C 85.4767 1.53607 -1.39354 0
M  V30 871 C 85.9017 1.88096 0.0116905 0
M  V30 872 O 85.2597 1.5143 0.996924 0
M  V30 873 C 85.3077 2.80441 -2.26682 0
M  V30 874 O 84.4117 3.76088 -1.69208 0
M  V30 875 H 83.7527 0.464142 -0.474835 0
M  V30 876 H 86.2827 0.915665 -1.82967 0
M  V30 877 H 86.2927 3.29246 -2.40959 0
M  V30 878 H 84.9677 2.5467 -3.2881 0
M  V30 879 H 83.5447 3.34833 -1.64138 0
M  V30 880 N 85.7298 1.2412 0.971189 0
M  V30 881 C 87.1458 1.00584 1.23916 0
M  V30 882 C 87.3458 -0.287481 1.99439 0
M  V30 883 O 86.4018 -1.00454 2.31658 0
M  V30 884 C 87.7148 2.21864 2.0297 0
M  V30 885 C 89.2628 2.26452 2.16076 0
M  V30 886 C 89.7378 3.47343 2.98524 0
M  V30 887 N 91.2288 3.47639 3.06107 0
M  V30 888 C 91.9638 4.37837 3.70251 0
M  V30 889 N 91.4598 5.38286 4.36142 0
M  V30 890 N 93.2528 4.25558 3.67228 0
M  V30 891 H 85.4038 2.07236 0.465499 0
M  V30 892 H 87.6668 0.909236 0.268315 0
M  V30 893 H 87.3728 3.15771 1.54861 0
M  V30 894 H 87.2468 2.23698 3.03709 0
M  V30 895 H 89.6338 1.33078 2.6339 0
M  V30 896 H 89.7148 2.28645 1.14696 0
M  V30 897 H 89.3588 4.41029 2.51905 0
M  V30 898 H 89.2888 3.42393 4.00093 0
M  V30 899 H 91.7798 2.74966 2.59233 0
M  V30 900 H 92.0928 6.03352 4.82894 0
M  V30 901 H 90.4378 5.42176 4.34822 0
M  V30 902 H 93.6288 3.46322 3.14927 0
M  V30 903 H 93.8018 4.96054 4.16935 0
M  V30 904 N 87.2079 -1.17134 1.05439 0
M  V30 905 C 88.6189 -1.69084 0.791676 0
M  V30 906 C 88.9699 -1.83822 -0.685839 0
M  V30 907 O 88.0949 -1.52757 -1.53278 0
M  V30 908 C 88.6899 -3.07119 1.4305 0
M  V30 909 C 87.2489 -3.56225 1.21577 0
M  V30 910 C 86.3959 -2.32421 1.51247 0
M  V30 911 H 89.3469 -1.01617 1.219 0
M  V30 912 H 89.3679 -3.71087 0.84112 0
M  V30 913 H 88.8799 -2.9636 2.50584 0
M  V30 914 H 86.9809 -3.72257 0.159787 0
M  V30 915 H 87.0939 -4.38837 1.92246 0
M  V30 916 H 85.4579 -2.3701 0.932653 0
M  V30 917 H 86.2409 -2.24268 2.5992 0
M  V30 918 N 88.686 -0.835752 -1.33615 0
M  V30 919 C 89.933 -0.429959 -1.97883 0
M  V30 920 C 90.261 1.01006 -1.66217 0
M  V30 921 O 89.516 1.72047 -0.93265 0
M  V30 922 C 89.815 -0.593925 -3.52431 0
M  V30 923 C 89.481 -2.00158 -4.04039 0
M  V30 924 C 88.143 -2.38662 -4.17844 0
M  V30 925 C 90.495 -2.92117 -4.31644 0
M  V30 926 C 87.823 -3.68435 -4.56588 0
M  V30 927 C 90.175 -4.21368 -4.71838 0
M  V30 928 C 88.839 -4.59833 -4.83849 0
M  V30 929 H 88.109 -0.157333 -0.724104 0
M  V30 930 H 90.756 -1.06217 -1.59343 0
M  V30 931 H 89.061 0.121619 -3.91611 0
M  V30 932 H 90.758 -0.260282 -4.00154 0
M  V30 933 H 87.348 -1.69252 -3.93766 0
M  V30 934 H 91.532 -2.63608 -4.20505 0
M  V30 935 H 86.788 -3.98046 -4.64079 0
M  V30 936 H 90.962 -4.92703 -4.92155 0
M  V30 937 H 88.589 -5.60438 -5.13627 0
M  V30 938 N 90.1641 1.46063 -0.591896 0
M  V30 939 C 91.0961 2.28539 0.174001 0
M  V30 940 C 92.1091 1.39047 0.846753 0
M  V30 941 O 93.2981 1.63564 0.714774 0
M  V30 942 C 90.3981 3.14347 1.26645 0
M  V30 943 C 89.5711 4.32021 0.683856 0
M  V30 944 C 88.6301 4.99157 1.66518 0
M  V30 945 O 87.6561 5.56458 1.19763 0
M  V30 946 N 88.8581 4.97005 2.99943 0
M  V30 947 H 91.6231 2.94911 -0.533633 0
M  V30 948 H 89.1841 1.56077 -0.430294 0
M  V30 949 H 91.1761 3.56125 1.92242 0
M  V30 950 H 89.7461 2.49988 1.87682 0
M  V30 951 H 88.9661 3.93915 -0.1498 0
M  V30 952 H 90.2541 5.08059 0.274567 0
M  V30 953 H 89.6521 4.51714 3.40545 0
M  V30 954 H 88.2091 5.42696 3.61004 0
M  V30 955 N 91.6422 0.330177 1.54103 0
M  V30 956 C 92.5902 -0.548226 2.26047 0
M  V30 957 C 93.5842 -1.11309 1.27698 0
M  V30 958 O 94.7902 -1.06036 1.45452 0
M  V30 959 H 91.1652 -0.195456 0.726155 0
M  V30 960 H 93.1362 0.0807567 2.98291 0
M  V30 961 C 91.8852 -1.69415 3.03634 0
M  V30 962 H 91.2082 -1.26876 3.79134 0
M  V30 963 H 92.6482 -2.28423 3.5721 0
M  V30 964 C 91.1072 -2.61569 2.12328 0
M  V30 965 O 91.6372 -3.63462 1.7105 0
M  V30 966 N 89.8432 -2.29952 1.77681 0
M  V30 967 H 89.3902 -1.47134 2.11446 0
M  V30 968 H 89.3482 -2.91871 1.16869 0
M  V30 969 N 93.1203 -1.57491 0.0584922 0
M  V30 970 C 94.0523 -2.08916 -0.942694 0
M  V30 971 C 95.0653 -1.0185 -1.27006 0
M  V30 972 O 96.2543 -1.29398 -1.22957 0
M  V30 973 C 93.3543 -2.52341 -2.26224 0
M  V30 974 C 92.5273 -3.82827 -2.1157 0
M  V30 975 C 91.5863 -4.12487 -3.26712 0
M  V30 976 O 90.6123 -4.82295 -3.02292 0
M  V30 977 N 91.8143 -3.64978 -4.5141 0
M  V30 978 H 94.5793 -2.95437 -0.503722 0
M  V30 979 H 92.1403 -1.61397 -0.12757 0
M  V30 980 H 94.1323 -2.69254 -3.02133 0
M  V30 981 H 92.7023 -1.7103 -2.61663 0
M  V30 982 H 91.9223 -3.75425 -1.20208 0
M  V30 983 H 93.2103 -4.68263 -1.99015 0
M  V30 984 H 92.6083 -3.08558 -4.7414 0
M  V30 985 H 91.1653 -3.87115 -5.2439 0
M  V30 986 N 94.5984 0.214957 -1.56127 0
M  V30 987 C 95.8264 0.955092 -1.83536 0
M  V30 988 C 96.2414 1.77677 -0.638472 0
M  V30 989 O 95.5984 1.78219 0.392968 0
M  V30 990 C 95.6494 1.86734 -3.09536 0
M  V30 991 O 95.3704 1.07887 -4.24608 0
M  V30 992 C 96.8714 2.72082 -3.4998 0
M  V30 993 H 94.0914 0.279611 -0.609966 0
M  V30 994 H 96.6354 0.228197 -2.03223 0
M  V30 995 H 94.7904 2.5481 -2.91806 0
M  V30 996 H 95.2044 1.69872 -4.9623 0
M  V30 997 H 96.6784 3.31782 -4.41163 0
M  V30 998 H 97.1554 3.44806 -2.7204 0
M  V30 999 H 97.7614 2.09409 -3.70173 0
M  V30 1000 N 96.0765 1.50051 0.48192 0
M  V30 1001 C 97.0265 1.64512 1.5786 0
M  V30 1002 C 98.0105 0.500073 1.52932 0
M  V30 1003 O 99.2025 0.753964 1.60139 0
M  V30 1004 C 96.3315 1.73263 2.9637 0
M  V30 1005 C 95.4175 2.93409 3.06222 0
M  V30 1006 N 95.8085 4.17236 2.85915 0
M  V30 1007 C 94.1065 2.91742 3.37346 0
M  V30 1008 C 94.8075 4.981 3.00451 0
M  V30 1009 N 93.7835 4.3184 3.30174 0
M  V30 1010 H 97.5855 2.57955 1.40842 0
M  V30 1011 H 95.0995 1.47086 0.688439 0
M  V30 1012 H 97.0965 1.81724 3.75209 0
M  V30 1013 H 95.7565 0.809711 3.14442 0
M  V30 1014 H 96.7675 4.46909 2.6171 0
M  V30 1015 H 93.4445 2.08907 3.61475 0
M  V30 1016 H 94.8345 6.06532 2.89082 0
M  V30 1017 N 97.5546 -0.734337 1.39446 0
M  V30 1018 C 98.5176 -1.83004 1.37994 0
M  V30 1019 C 99.5176 -1.58397 0.276938 0
M  V30 1020 O 100.708 -1.65785 0.534875 0
M  V30 1021 C 97.8396 -3.20802 1.1532 0
M  V30 1022 H 99.0326 -1.85694 2.35494 0
M  V30 1023 H 96.5856 -0.938059 1.25021 0
M  V30 1024 H 97.3206 -3.23772 0.185036 0
M  V30 1025 H 97.1056 -3.4006 1.95197 0
M  V30 1026 H 98.5956 -4.00862 1.17046 0
M  V30 1027 N 99.0327 -1.24633 -0.964593 0
M  V30 1028 C 99.9797 -1.04144 -2.05968 0
M  V30 1029 C 100.95 0.046262 -1.66036 0
M  V30 1030 O 102.135 -0.108972 -1.90489 0
M  V30 1031 C 99.2747 -0.65563 -3.38815 0
M  V30 1032 C 98.3877 -1.81714 -3.91923 0
M  V30 1033 C 97.5227 -1.37662 -5.13052 0
M  V30 1034 C 96.5617 -2.50788 -5.58365 0
M  V30 1035 N 95.6987 -2.07582 -6.70712 0
M  V30 1036 H 100.539 -1.9787 -2.22827 0
M  V30 1037 H 98.0757 -0.9855 -1.09208 0
M  V30 1038 H 100.034 -0.412954 -4.15151 0
M  V30 1039 H 98.6637 0.244627 -3.21872 0
M  V30 1040 H 97.7157 -2.1734 -3.12198 0
M  V30 1041 H 99.0277 -2.66705 -4.21509 0
M  V30 1042 H 98.1817 -1.093 -5.96773 0
M  V30 1043 H 96.9207 -0.497293 -4.85158 0
M  V30 1044 H 95.9257 -2.79906 -4.73215 0
M  V30 1045 H 97.1507 -3.39283 -5.88272 0
M  V30 1046 H 95.0967 -1.22051 -6.44546 0
M  V30 1047 H 95.0137 -2.86125 -6.99763 0
M  V30 1048 H 96.2817 -1.82369 -7.57867 0
M  V30 1049 N 100.511 1.16574 -1.06058 0
M  V30 1050 C 101.927 1.3904 -0.783585 0
M  V30 1051 C 102.127 1.91784 0.618145 0
M  V30 1052 O 101.183 2.11511 1.37911 0
M  V30 1053 C 102.496 2.37329 -1.84649 0
M  V30 1054 C 104.044 2.51018 -1.86973 0
M  V30 1055 C 104.519 3.52588 -2.92311 0
M  V30 1056 N 106.01 3.60113 -2.91329 0
M  V30 1057 C 106.745 4.38486 -3.69482 0
M  V30 1058 N 106.241 5.20302 -4.57447 0
M  V30 1059 N 108.034 4.33446 -3.57885 0
M  V30 1060 H 100.185 0.806725 -1.96483 0
M  V30 1061 H 102.448 0.417117 -0.851303 0
M  V30 1062 H 102.154 2.05663 -2.85299 0
M  V30 1063 H 102.028 3.36946 -1.6955 0
M  V30 1064 H 104.415 2.81989 -0.869827 0
M  V30 1065 H 104.496 1.51445 -2.0615 0
M  V30 1066 H 104.14 3.22354 -3.92492 0
M  V30 1067 H 104.07 4.51886 -2.70383 0
M  V30 1068 H 106.561 3.01707 -2.27555 0
M  V30 1069 H 106.874 5.77311 -5.13743 0
M  V30 1070 H 105.219 5.19653 -4.61503 0
M  V30 1071 H 108.41 3.68586 -2.88551 0
M  V30 1072 H 108.583 4.94279 -4.19037 0
M  V30 1073 N 101.989 0.842826 1.3317 0
M  V30 1074 C 102.952 0.284065 2.27433 0
M  V30 1075 C 103.952 -0.54948 1.5112 0
M  V30 1076 O 105.142 -0.362699 1.70382 0
M  V30 1077 C 102.274 -0.599384 3.35589 0
M  V30 1078 H 103.467 1.11589 2.78366 0
M  V30 1079 H 101.02 0.616221 1.4364 0
M  V30 1080 H 101.755 -1.45349 2.89904 0
M  V30 1081 H 101.54 -0.00291266 3.921 0
M  V30 1082 H 103.03 -0.983488 4.05854 0
M  V30 1083 N 103.467 -1.45747 0.599634 0
M  V30 1084 C 104.697 -2.06369 0.0977132 0
M  V30 1085 C 105.105 -1.44624 -1.21985 0
M  V30 1086 O 104.448 -0.551831 -1.75216 0
M  V30 1087 C 104.51 -3.59284 -0.124673 0
M  V30 1088 C 104.174 -4.43318 1.10987 0
M  V30 1089 C 105.171 -4.78796 2.02609 0
M  V30 1090 C 102.856 -4.84194 1.33647 0
M  V30 1091 C 104.85 -5.53997 3.15224 0
M  V30 1092 C 102.537 -5.5915 2.46565 0
M  V30 1093 C 103.535 -5.93968 3.37182 0
M  V30 1094 O 103.223 -6.67405 4.48136 0
M  V30 1095 H 102.955 -0.673122 0.0623153 0
M  V30 1096 H 105.509 -1.88104 0.824981 0
M  V30 1097 H 103.739 -3.75919 -0.906745 0
M  V30 1098 H 105.428 -4.01775 -0.577201 0
M  V30 1099 H 106.194 -4.47781 1.86325 0
M  V30 1100 H 102.073 -4.56534 0.64016 0
M  V30 1101 H 105.617 -5.81091 3.85978 0
M  V30 1102 H 101.514 -5.89579 2.62805 0
M  V30 1103 H 102.282 -6.85847 4.46717 0
M  V30 1104 N 104.945 -0.338344 -1.53925 0
M  V30 1105 C 106.361 0.0137736 -1.59594 0
M  V30 1106 C 106.561 1.49186 -1.35447 0
M  V30 1107 O 105.617 2.24987 -1.14616 0
M  V30 1108 C 106.93 -0.41773 -2.97784 0
M  V30 1109 C 108.478 -0.369633 -3.1081 0
M  V30 1110 C 108.953 -0.776524 -4.51369 0
M  V30 1111 N 110.444 -0.730506 -4.57403 0
M  V30 1112 C 111.179 -1.01736 -5.64303 0
M  V30 1113 N 110.675 -1.3721 -6.79077 0
M  V30 1114 N 112.468 -0.941942 -5.54151 0
M  V30 1115 H 104.619 -1.3012 -1.67876 0
M  V30 1116 H 106.882 -0.530082 -0.78595 0
M  V30 1117 H 106.588 -1.44811 -3.20504 0
M  V30 1118 H 106.462 0.209729 -3.76616 0
M  V30 1119 H 108.849 0.651568 -2.87817 0
M  V30 1120 H 108.93 -1.03223 -2.34049 0
M  V30 1121 H 108.574 -1.79571 -4.75096 0
M  V30 1122 H 108.504 -0.0914649 -5.26521 0
M  V30 1123 H 110.995 -0.468783 -3.74981 0
M  V30 1124 H 111.308 -1.57597 -7.5656 0
M  V30 1125 H 109.653 -1.4105 -6.80536 0
M  V30 1126 H 112.844 -0.664184 -4.63364 0
M  V30 1127 H 113.017 -1.16884 -6.37371 0
M  V30 1128 N 106.423 1.57458 -0.0668435 0
M  V30 1129 C 107.333 2.15937 0.916975 0
M  V30 1130 C 108.349 1.12123 1.33058 0
M  V30 1131 O 109.525 1.44366 1.40429 0
M  V30 1132 C 106.59 2.70547 2.16807 0
M  V30 1133 C 105.651 3.89215 1.81135 0
M  V30 1134 C 104.884 4.41211 3.0028 0
M  V30 1135 O 105.107 3.92225 4.14144 0
M  V30 1136 O 104.041 5.32605 2.80384 0
M  V30 1137 H 107.867 3.00354 0.449561 0
M  V30 1138 H 105.452 1.48584 0.155949 0
M  V30 1139 H 107.334 3.0557 2.90181 0
M  V30 1140 H 106.009 1.89192 2.62656 0
M  V30 1141 H 104.916 3.59054 1.05028 0
M  V30 1142 H 106.249 4.71848 1.40073 0
M  V30 1143 N 107.901 -0.206675 1.56239 0
M  V30 1144 C 108.831 -1.25909 1.96645 0
M  V30 1145 C 109.812 -1.48097 0.836734 0
M  V30 1146 O 110.997 -1.6003 1.10019 0
M  V30 1147 C 108.127 -2.6058 2.29599 0
M  V30 1148 C 107.081 -2.53024 3.452 0
M  V30 1149 C 106.407 -3.91861 3.63798 0
M  V30 1150 C 107.707 -2.06524 4.79734 0
M  V30 1151 H 109.401 -0.923369 2.84806 0
M  V30 1152 H 106.947 -0.442735 1.37025 0
M  V30 1153 H 108.9 -3.34375 2.56459 0
M  V30 1154 H 107.624 -2.95869 1.38307 0
M  V30 1155 H 106.283 -1.81684 3.18412 0
M  V30 1156 H 105.931 -4.24483 2.69857 0
M  V30 1157 H 105.631 -3.87683 4.4156 0
M  V30 1158 H 107.155 -4.67296 3.93022 0
M  V30 1159 H 108.569 -2.70072 5.05702 0
M  V30 1160 H 106.966 -2.13374 5.60885 0
M  V30 1161 H 108.036 -1.01802 4.74093 0
M  V30 1162 N 109.379 -1.50304 -0.473955 0
M  V30 1163 C 110.625 -1.61389 -1.22806 0
M  V30 1164 C 110.958 -0.311955 -1.91678 0
M  V30 1165 O 110.233 0.686384 -1.81986 0
M  V30 1166 C 110.516 -2.79219 -2.27396 0
M  V30 1167 C 110.369 -4.19286 -1.62848 0
M  V30 1168 C 111.688 -2.92614 -3.28732 0
M  V30 1169 H 108.807 -0.587399 -0.445119 0
M  V30 1170 H 111.449 -1.82681 -0.522265 0
M  V30 1171 H 109.599 -2.61195 -2.87592 0
M  V30 1172 H 111.271 -4.48892 -1.06271 0
M  V30 1173 H 109.514 -4.23677 -0.931693 0
M  V30 1174 H 110.185 -4.97655 -2.38838 0
M  V30 1175 H 112.661 -3.09105 -2.78556 0
M  V30 1176 H 111.537 -3.76688 -3.99246 0
M  V30 1177 H 111.798 -2.03107 -3.92683 0
M  V30 1178 N 110.857 0.726932 -1.39834 0
M  V30 1179 C 111.787 1.85405 -1.41941 0
M  V30 1180 C 112.768 1.67751 -0.281728 0
M  V30 1181 O 113.953 1.8795 -0.488717 0
M  V30 1182 C 111.083 3.23243 -1.2701 0
M  V30 1183 C 110.037 3.55549 -2.38262 0
M  V30 1184 C 109.363 4.9241 -2.08415 0
M  V30 1185 C 110.663 3.577 -3.80589 0
M  V30 1186 H 112.357 1.83899 -2.36266 0
M  V30 1187 H 109.903 0.883349 -1.13723 0
M  V30 1188 H 111.856 4.01775 -1.27103 0
M  V30 1189 H 110.58 3.25296 -0.291564 0
M  V30 1190 H 109.239 2.79351 -2.37399 0
M  V30 1191 H 108.887 4.91052 -1.0898 0
M  V30 1192 H 108.587 5.14992 -2.82943 0
M  V30 1193 H 110.111 5.73289 -2.10171 0
M  V30 1194 H 111.525 4.26293 -3.83337 0
M  V30 1195 H 109.922 3.91804 -4.54543 0
M  V30 1196 H 110.992 2.57328 -4.10987 0
M  V30 1197 N 112.336 1.25143 0.95797 0
M  V30 1198 C 113.266 1.07711 2.07173 0
M  V30 1199 C 114.247 -0.0128462 1.70095 0
M  V30 1200 O 115.432 0.156061 1.93572 0
M  V30 1201 C 112.562 0.691503 3.40346 0
M  V30 1202 C 111.516 1.73132 3.9142 0
M  V30 1203 C 110.842 1.20049 5.21049 0
M  V30 1204 C 112.142 3.1294 4.1817 0
M  V30 1205 H 113.836 2.00873 2.22014 0
M  V30 1206 H 111.382 0.967191 1.06684 0
M  V30 1207 H 113.335 0.556505 4.17709 0
M  V30 1208 H 112.059 -0.275819 3.25433 0
M  V30 1209 H 110.718 1.8547 3.16222 0
M  V30 1210 H 110.366 0.223499 5.02503 0
M  V30 1211 H 110.066 1.89545 5.56189 0
M  V30 1212 H 111.59 1.07782 6.01012 0
M  V30 1213 H 113.004 3.03775 4.86203 0
M  V30 1214 H 111.401 3.79875 4.64559 0
M  V30 1215 H 112.471 3.6025 3.24573 0
M  V30 1216 N 113.814 -1.1601 1.06675 0
M  V30 1217 C 114.761 -2.20525 0.680967 0
M  V30 1218 C 115.731 -1.62904 -0.324283 0
M  V30 1219 O 116.916 -1.89615 -0.212294 0
M  V30 1220 C 114.056 -3.45013 0.0776551 0
M  V30 1221 C 113.169 -4.16863 1.13355 0
M  V30 1222 C 112.304 -5.2888 0.49597 0
M  V30 1223 C 111.343 -5.92537 1.53513 0
M  V30 1224 N 110.48 -6.96038 0.920631 0
M  V30 1225 H 115.32 -2.52876 1.57663 0
M  V30 1226 H 112.857 -1.24199 0.788223 0
M  V30 1227 H 114.815 -4.16193 -0.289704 0
M  V30 1228 H 113.445 -3.132 -0.781393 0
M  V30 1229 H 112.497 -3.44248 1.61857 0
M  V30 1230 H 113.809 -4.60294 1.92174 0
M  V30 1231 H 112.963 -6.06653 0.0758604 0
M  V30 1232 H 111.702 -4.86622 -0.324062 0
M  V30 1233 H 110.707 -5.13482 1.9651 0
M  V30 1234 H 111.932 -6.36873 2.35733 0
M  V30 1235 H 109.878 -6.55888 0.12138 0
M  V30 1236 H 109.795 -7.3786 1.64616 0
M  V30 1237 H 111.063 -7.77725 0.525795 0
M  V30 1238 N 115.292 -0.849877 -1.32721 0
M  V30 1239 C 116.532 -0.457146 -1.99222 0
M  V30 1240 C 116.896 0.968038 -1.6581 0
M  V30 1241 O 118.097 1.46507 -2.25364 0
M  V30 1242 C 116.368 -0.683966 -3.50794 0
M  V30 1243 S 117.927 -0.388095 -4.3708 0
M  V30 1244 H 114.745 -0.171464 -0.690015 0
M  V30 1245 H 117.347 -1.10155 -1.61512 0
M  V30 1246 H 116.051 -1.72038 -3.726 0
M  V30 1247 H 115.582 -0.0258086 -3.93392 0
M  V30 1248 H 117.597 0.787791 -4.89906 0
M  V30 1249 N 116.77 1.45427 -0.607355 0
M  V30 1250 C 118.016 2.0254 -0.102607 0
M  V30 1251 C 118.349 1.47478 1.26348 0
M  V30 1252 O 117.624 0.64939 1.83339 0
M  V30 1253 C 117.907 3.60044 -0.0634347 0
M  V30 1254 C 117.76 4.2544 -1.46017 0
M  V30 1255 C 119.079 4.35646 0.624514 0
M  V30 1256 H 116.198 0.73598 -0.0387607 0
M  V30 1257 H 118.84 1.73284 -0.779282 0
M  V30 1258 H 116.99 3.85101 0.512808 0
M  V30 1259 H 118.662 4.11569 -2.08347 0
M  V30 1260 H 116.905 3.83849 -2.02094 0
M  V30 1261 H 117.576 5.34342 -1.385 0
M  V30 1262 H 120.052 4.15882 0.134723 0
M  V30 1263 H 118.928 5.45376 0.621028 0
M  V30 1264 H 119.189 4.08501 1.69055 0
M  V30 1265 N 118.248 0.346503 1.53744 0
M  V30 1266 C 119.196 -0.52422 2.26616 0
M  V30 1267 C 120.19 -1.09948 1.28871 0
M  V30 1268 O 121.396 -1.04488 1.46568 0
M  V30 1269 H 117.771 -0.187743 0.728187 0
M  V30 1270 H 119.742 0.11239 2.98188 0
M  V30 1271 C 118.491 -1.66186 3.05414 0
M  V30 1272 H 117.814 -1.22848 3.80458 0
M  V30 1273 H 119.254 -2.24622 3.59612 0
M  V30 1274 C 117.713 -2.59302 2.1509 0
M  V30 1275 O 118.243 -3.61628 1.74895 0
M  V30 1276 N 116.449 -2.28055 1.8011 0
M  V30 1277 H 115.996 -1.44883 2.12994 0
M  V30 1278 H 115.954 -2.90615 1.19958 0
M  V30 1279 N 119.726 -1.57421 0.075193 0
M  V30 1280 C 120.676 -2.09441 -0.901025 0
M  V30 1281 C 121.66 -1.00486 -1.25663 0
M  V30 1282 O 122.852 -1.2679 -1.23504 0
M  V30 1283 C 119.981 -2.66233 -2.16737 0
M  V30 1284 C 119.067 -3.82198 -1.83808 0
M  V30 1285 N 119.458 -4.91028 -1.21345 0
M  V30 1286 C 117.756 -3.91558 -2.13538 0
M  V30 1287 C 118.457 -5.71852 -1.06585 0
M  V30 1288 N 117.433 -5.20233 -1.57667 0
M  V30 1289 H 121.235 -2.90972 -0.413815 0
M  V30 1290 H 118.749 -1.6189 -0.128601 0
M  V30 1291 H 120.746 -3.01819 -2.87595 0
M  V30 1292 H 119.406 -1.8615 -2.66042 0
M  V30 1293 H 120.417 -5.10323 -0.88268 0
M  V30 1294 H 117.094 -3.22454 -2.65197 0
M  V30 1295 H 118.484 -6.69401 -0.578933 0
M  V30 1296 N 121.204 0.198386 -1.56346 0
M  V30 1297 C 122.151 1.24589 -1.94284 0
M  V30 1298 C 123.121 1.454 -0.802997 0
M  V30 1299 O 124.306 1.58588 -1.06087 0
M  V30 1300 C 121.446 2.58631 -2.28482 0
M  V30 1301 C 120.559 2.45426 -3.55514 0
M  V30 1302 C 119.694 3.7215 -3.79049 0
M  V30 1303 C 118.733 3.53763 -4.99518 0
M  V30 1304 N 117.87 4.72491 -5.19323 0
M  V30 1305 H 122.71 0.915356 -2.83593 0
M  V30 1306 H 120.247 0.440629 -1.40346 0
M  V30 1307 H 122.205 3.3672 -2.46324 0
M  V30 1308 H 120.835 2.89734 -1.42317 0
M  V30 1309 H 119.887 1.58652 -3.45737 0
M  V30 1310 H 121.199 2.27772 -4.43758 0
M  V30 1311 H 120.353 4.58679 -3.97113 0
M  V30 1312 H 119.092 3.92754 -2.89129 0
M  V30 1313 H 118.097 2.65619 -4.8138 0
M  V30 1314 H 119.322 3.34607 -5.90944 0
M  V30 1315 H 117.268 4.93365 -4.3235 0
M  V30 1316 H 117.185 4.5765 -6.01741 0
M  V30 1317 H 118.453 5.6038 -5.41843 0
M  V30 1318 N 122.682 1.50554 0.465978 0
M  V30 1319 C 123.63 1.70324 1.58406 0
M  V30 1320 C 124.624 0.569139 1.59553 0
M  V30 1321 O 125.83 0.749776 1.63641 0
M  V30 1322 H 122.205 0.537688 0.525734 0
M  V30 1323 H 124.176 2.64104 1.38894 0
M  V30 1324 C 122.925 1.81928 2.96307 0
M  V30 1325 H 122.248 2.68586 2.96144 0
M  V30 1326 H 123.688 1.99784 3.73982 0
M  V30 1327 C 122.147 0.572095 3.32007 0
M  V30 1328 O 122.677 -0.286416 4.00678 0
M  V30 1329 N 120.883 0.424606 2.87481 0
M  V30 1330 H 120.43 1.12427 2.31771 0
M  V30 1331 H 120.388 -0.408697 3.11732 0
M  V30 1332 N 124.16 -0.719506 1.40217 0
M  V30 1333 C 125.409 -1.47486 1.37589 0
M  V30 1334 C 125.722 -1.9559 -0.0201568 0
M  V30 1335 O 126.928 -2.70973 -0.169049 0
M  V30 1336 C 125.384 -2.66575 2.41796 0
M  V30 1337 C 124.992 -2.25358 3.87192 0
M  V30 1338 C 126.736 -3.4433 2.48269 0
M  V30 1339 C 124.643 -3.41262 4.83005 0
M  V30 1340 H 123.573 -0.553901 0.511576 0
M  V30 1341 H 126.224 -0.783427 1.65936 0
M  V30 1342 H 124.606 -3.3787 2.06543 0
M  V30 1343 H 125.78 -1.61509 4.31569 0
M  V30 1344 H 124.095 -1.60657 3.84159 0
M  V30 1345 H 126.692 -4.30569 3.17041 0
M  V30 1346 H 127.035 -3.87872 1.51198 0
M  V30 1347 H 127.568 -2.80076 2.82493 0
M  V30 1348 H 124.307 -3.02755 5.81394 0
M  V30 1349 H 123.827 -4.0404 4.43297 0
M  V30 1350 H 125.506 -4.07383 5.02641 0
M  V30 1351 N 125.638 -1.25649 -0.95132 0
M  V30 1352 C 126.887 -1.09988 -1.69073 0
M  V30 1353 C 127.2 0.358355 -1.92289 0
M  V30 1354 O 128.406 0.635466 -2.63958 0
M  V30 1355 C 126.862 -1.92012 -3.044 0
M  V30 1356 C 126.47 -3.42347 -2.88968 0
M  V30 1357 C 128.214 -1.8493 -3.82101 0
M  V30 1358 C 126.121 -4.16655 -4.19705 0
M  V30 1359 H 125.051 -0.407993 -0.63408 0
M  V30 1360 H 127.702 -1.49873 -1.05879 0
M  V30 1361 H 126.084 -1.44952 -3.68517 0
M  V30 1362 H 127.258 -3.97104 -2.33762 0
M  V30 1363 H 125.573 -3.50557 -2.24719 0
M  V30 1364 H 128.17 -2.37739 -4.78941 0
M  V30 1365 H 128.513 -0.817883 -4.08187 0
M  V30 1366 H 129.046 -2.29758 -3.2474 0
M  V30 1367 H 125.785 -5.20224 -3.98807 0
M  V30 1368 H 125.305 -3.66681 -4.74663 0
M  V30 1369 H 126.984 -4.24551 -4.88227 0
M  V30 1370 N 127.117 1.15442 -1.07289 0
M  V30 1371 C 128.342 1.90638 -0.816828 0
M  V30 1372 C 128.767 1.77445 0.624083 0
M  V30 1373 O 128.125 1.10671 1.43602 0
M  V30 1374 C 128.173 3.39008 -1.22906 0
M  V30 1375 O 127.277 4.10701 -0.373975 0
M  V30 1376 H 126.618 0.593555 -0.297638 0
M  V30 1377 H 129.148 1.46198 -1.43134 0
M  V30 1378 H 129.158 3.89801 -1.20497 0
M  V30 1379 H 127.833 3.47929 -2.27856 0
M  V30 1380 H 126.41 3.70046 -0.460499 0
M  V30 1381 N 128.595 0.856903 1.32268 0
M  V30 1382 C 129.525 0.31858 2.31316 0
M  V30 1383 C 130.506 -0.583487 1.59779 0
M  V30 1384 O 131.691 -0.503259 1.87566 0
M  V30 1385 C 128.821 -0.491979 3.43798 0
M  V30 1386 C 127.775 0.315849 4.26833 0
M  V30 1387 C 127.101 -0.619586 5.31098 0
M  V30 1388 C 128.401 1.54282 4.98993 0
M  V30 1389 H 130.095 1.14621 2.76591 0
M  V30 1390 H 127.641 0.552613 1.32974 0
M  V30 1391 H 129.594 -0.879012 4.1213 0
M  V30 1392 H 128.318 -1.35299 2.97257 0
M  V30 1393 H 126.977 0.684664 3.6015 0
M  V30 1394 H 126.625 -1.47751 4.8081 0
M  V30 1395 H 126.325 -0.0830621 5.87541 0
M  V30 1396 H 127.849 -1.00375 6.02293 0
M  V30 1397 H 129.263 1.22796 5.59995 0
M  V30 1398 H 127.66 2.01745 5.65172 0
M  V30 1399 H 128.73 2.30285 4.26728 0
M  V30 1400 N 130.073 -1.45103 0.615059 0
M  V30 1401 C 131.003 -2.33339 -0.0865619 0
M  V30 1402 C 131.984 -1.4727 -0.851209 0
M  V30 1403 O 133.169 -1.76026 -0.820281 0
M  V30 1404 C 130.299 -3.30095 -1.07956 0
M  V30 1405 C 129.253 -4.25858 -0.427628 0
M  V30 1406 C 128.579 -5.12361 -1.5294 0
M  V30 1407 C 129.879 -5.18165 0.655944 0
M  V30 1408 H 131.573 -2.92254 0.650224 0
M  V30 1409 H 129.119 -1.40532 0.314138 0
M  V30 1410 H 131.072 -3.90698 -1.57901 0
M  V30 1411 H 129.796 -2.69355 -1.84703 0
M  V30 1412 H 128.455 -3.66564 0.0510292 0
M  V30 1413 H 128.103 -4.47984 -2.28734 0
M  V30 1414 H 127.803 -5.77238 -1.09865 0
M  V30 1415 H 129.327 -5.75833 -2.03098 0
M  V30 1416 H 130.741 -5.72796 0.240257 0
M  V30 1417 H 129.138 -5.91559 1.00888 0
M  V30 1418 H 130.208 -4.60144 1.52957 0
M  V30 1419 N 131.551 -0.354651 -1.53558 0
M  V30 1420 C 132.499 0.512195 -2.26891 0
M  V30 1421 C 133.493 1.09263 -1.29452 0
M  V30 1422 O 134.699 1.03709 -1.47121 0
M  V30 1423 H 131.074 0.183878 -0.729173 0
M  V30 1424 H 133.045 -0.128202 -2.98124 0
M  V30 1425 C 131.794 1.64563 -3.06291 0
M  V30 1426 H 131.117 1.20829 -3.81104 0
M  V30 1427 H 132.557 2.22711 -3.60799 0
M  V30 1428 C 131.016 2.58158 -2.16462 0
M  V30 1429 O 131.546 3.60695 -1.76811 0
M  V30 1430 N 129.752 2.27096 -1.81317 0
M  V30 1431 H 129.299 1.43751 -2.1376 0
M  V30 1432 H 129.257 2.89975 -1.21498 0
M  V30 1433 N 133.029 1.57378 -0.0835403 0
M  V30 1434 C 134.275 1.94217 0.583733 0
M  V30 1435 C 134.608 0.964653 1.68547 0
M  V30 1436 O 133.883 -0.00422258 1.945 0
M  V30 1437 C 134.166 3.41253 1.14972 0
M  V30 1438 C 134.019 4.49768 0.0538277 0
M  V30 1439 C 135.338 3.89352 2.05166 0
M  V30 1440 H 132.457 0.706233 0.210724 0
M  V30 1441 H 135.099 1.89392 -0.1519 0
M  V30 1442 H 133.249 3.45496 1.77665 0
M  V30 1443 H 134.921 4.57641 -0.579851 0
M  V30 1444 H 133.164 4.29432 -0.614068 0
M  V30 1445 H 133.835 5.49817 0.490452 0
M  V30 1446 H 136.311 3.87189 1.52393 0
M  V30 1447 H 135.187 4.92822 2.41698 0
M  V30 1448 H 135.448 3.27973 2.96456 0
M  V30 1449 N 134.507 -0.190092 1.56449 0
M  V30 1450 C 135.754 -0.909705 1.80916 0
M  V30 1451 C 136.082 -1.83047 0.657583 0
M  V30 1452 O 135.337 -1.92428 -0.356356 0
M  V30 1453 C 135.636 -1.75382 3.1141 0
M  V30 1454 C 135.302 -0.983606 4.40041 0
M  V30 1455 C 133.964 -0.770967 4.74984 0
M  V30 1456 C 136.316 -0.442024 5.19322 0
M  V30 1457 C 133.644 -0.0053448 5.867 0
M  V30 1458 C 135.996 0.310412 6.31838 0
M  V30 1459 C 134.66 0.534023 6.6536 0
M  V30 1460 H 133.93 -0.332885 0.662019 0
M  V30 1461 H 136.577 -0.175762 1.90692 0
M  V30 1462 H 134.882 -2.55659 2.96893 0
M  V30 1463 H 136.579 -2.31331 3.27547 0
M  V30 1464 H 133.169 -1.15936 4.12622 0
M  V30 1465 H 137.353 -0.593693 4.92736 0
M  V30 1466 H 132.609 0.177825 6.11141 0
M  V30 1467 H 136.783 0.737419 6.92485 0
M  V30 1468 H 134.41 1.12918 7.51767 0
M  V30 1469 N 135.985 -1.50799 -0.457987 0
M  V30 1470 C 137.213 -1.66218 -1.23203 0
M  V30 1471 C 137.628 -0.350894 -1.85511 0
M  V30 1472 O 136.985 0.668546 -1.69814 0
M  V30 1473 C 137.036 -2.76291 -2.33121 0
M  V30 1474 O 136.757 -4.02338 -1.73366 0
M  V30 1475 C 138.258 -3.028 -3.2377 0
M  V30 1476 H 135.478 -0.558361 -0.372121 0
M  V30 1477 H 138.022 -1.97099 -0.545179 0
M  V30 1478 H 136.177 -2.48068 -2.97558 0
M  V30 1479 H 136.591 -4.63312 -2.4585 0
M  V30 1480 H 138.065 -3.8345 -3.97077 0
M  V30 1481 H 138.542 -2.14385 -3.83322 0
M  V30 1482 H 139.148 -3.32604 -2.65056 0
M  V30 1483 N 137.463 0.71206 -1.40597 0
M  V30 1484 C 138.874 1.29135 -1.34837 0
M  V30 1485 C 139.225 1.96186 -0.0235395 0
M  V30 1486 O 138.35 1.97768 0.878444 0
M  V30 1487 C 138.945 2.34827 -2.44217 0
M  V30 1488 C 137.504 2.88371 -2.41907 0
M  V30 1489 C 136.651 1.62202 -2.24913 0
M  V30 1490 H 139.602 0.507944 -1.50352 0
M  V30 1491 H 139.623 3.15749 -2.12327 0
M  V30 1492 H 139.135 1.85996 -3.40627 0
M  V30 1493 H 137.236 3.41422 -1.49204 0
M  V30 1494 H 137.349 3.39925 -3.37621 0
M  V30 1495 H 135.713 1.874 -1.72492 0
M  V30 1496 H 136.496 1.15391 -3.23326 0
M  V30 1497 N 138.941 1.26152 0.944643 0
M  V30 1498 C 139.873 1.03199 2.04652 0
M  V30 1499 C 140.886 -0.00642356 1.62799 0
M  V30 1500 O 142.075 0.233263 1.76969 0
M  V30 1501 C 139.175 0.540111 3.34568 0
M  V30 1502 C 138.348 1.64697 4.05208 0
M  V30 1503 C 137.407 1.15374 5.13396 0
M  V30 1504 O 136.433 1.85013 5.38293 0
M  V30 1505 N 137.635 0.00031529 5.805 0
M  V30 1506 H 140.4 1.9808 2.2491 0
M  V30 1507 H 137.961 1.17491 1.11389 0
M  V30 1508 H 139.953 0.194401 4.04233 0
M  V30 1509 H 138.523 -0.315021 3.11009 0
M  V30 1510 H 137.743 2.16379 3.29506 0
M  V30 1511 H 139.031 2.3903 4.49157 0
M  V30 1512 H 138.429 -0.581336 5.62705 0
M  V30 1513 H 136.986 -0.286346 6.51171 0
M  V30 1514 N 140.419 -1.14872 1.07899 0
M  V30 1515 C 141.366 -2.19791 0.704319 0
M  V30 1516 C 142.336 -1.63238 -0.306987 0
M  V30 1517 O 143.521 -1.8983 -0.192171 0
M  V30 1518 C 140.661 -3.44911 0.114244 0
M  V30 1519 C 139.774 -4.15637 1.1777 0
M  V30 1520 C 138.909 -5.28324 0.552037 0
M  V30 1521 C 137.948 -5.90875 1.59789 0
M  V30 1522 N 137.085 -6.95022 0.994404 0
M  V30 1523 H 141.925 -2.5119 1.60336 0
M  V30 1524 H 139.462 -1.23356 0.801352 0
M  V30 1525 H 141.42 -4.16477 -0.245544 0
M  V30 1526 H 140.05 -3.14011 -0.74813 0
M  V30 1527 H 139.102 -3.42512 1.65499 0
M  V30 1528 H 140.414 -4.5823 1.97046 0
M  V30 1529 H 139.568 -6.06538 0.1402 0
M  V30 1530 H 138.307 -4.86939 -0.272431 0
M  V30 1531 H 137.312 -5.11369 2.01945 0
M  V30 1532 H 138.537 -6.34337 2.42474 0
M  V30 1533 H 136.483 -6.55722 0.190939 0
M  V30 1534 H 136.4 -7.36073 1.72432 0
M  V30 1535 H 137.668 -7.77123 0.608253 0
M  V30 1536 N 141.898 -0.863906 -1.31812 0
M  V30 1537 C 143.126 -0.486111 -2.01108 0
M  V30 1538 C 143.541 0.919755 -1.64882 0
M  V30 1539 O 142.898 1.60162 -0.874893 0
M  V30 1540 C 142.949 -0.626435 -3.56031 0
M  V30 1541 O 142.67 -1.97693 -3.90959 0
M  V30 1542 C 144.171 -0.248857 -4.42601 0
M  V30 1543 H 141.391 -0.190052 -0.643523 0
M  V30 1544 H 143.935 -1.1634 -1.68182 0
M  V30 1545 H 142.09 0.00322717 -3.874 0
M  V30 1546 H 142.504 -1.98034 -4.85678 0
M  V30 1547 H 143.978 -0.398016 -5.50563 0
M  V30 1548 H 144.455 0.811489 -4.31638 0
M  V30 1549 H 145.061 -0.853971 -4.16638 0
M  V30 1550 N 143.376 1.44774 -0.622745 0
M  V30 1551 C 144.306 2.33382 0.0741861 0
M  V30 1552 C 145.287 1.47719 0.843387 0
M  V30 1553 O 146.472 1.76458 0.810934 0
M  V30 1554 C 143.602 3.30663 1.06204 0
M  V30 1555 C 142.556 4.26079 0.405037 0
M  V30 1556 C 141.882 5.13165 1.5022 0
M  V30 1557 C 143.182 5.1781 -0.683414 0
M  V30 1558 H 144.876 2.91905 -0.665713 0
M  V30 1559 H 142.422 1.40363 -0.321587 0
M  V30 1560 H 144.375 3.9153 1.55827 0
M  V30 1561 H 143.099 2.70331 1.83272 0
M  V30 1562 H 141.758 3.66532 -0.0704683 0
M  V30 1563 H 141.406 4.49191 2.26355 0
M  V30 1564 H 141.106 5.77812 1.06803 0
M  V30 1565 H 142.63 5.76902 2.00041 0
M  V30 1566 H 144.044 5.72661 -0.270631 0
M  V30 1567 H 142.441 5.91015 -1.04023 0
M  V30 1568 H 143.511 4.59326 -1.55395 0
M  V30 1569 N 144.854 0.36279 1.53368 0
M  V30 1570 C 145.764 -0.492994 2.29362 0
M  V30 1571 C 146.78 -1.09507 1.35219 0
M  V30 1572 O 147.956 -1.10662 1.68273 0
M  V30 1573 C 145.021 -1.61855 3.066 0
M  V30 1574 C 144.082 -1.04429 4.16405 0
M  V30 1575 C 143.315 -2.11621 4.89951 0
M  V30 1576 O 143.538 -3.32684 4.63333 0
M  V30 1577 O 142.472 -1.74835 5.75948 0
M  V30 1578 H 146.298 0.125331 3.03441 0
M  V30 1579 H 143.883 0.127253 1.48857 0
M  V30 1580 H 145.765 -2.27302 3.54841 0
M  V30 1581 H 144.44 -2.22233 2.3536 0
M  V30 1582 H 143.347 -0.353819 3.72423 0
M  V30 1583 H 144.68 -0.485113 4.89804 0
M  V30 1584 N 146.332 -1.57332 0.0918853 0
M  V30 1585 C 147.242 -2.17368 -0.882505 0
M  V30 1586 C 148.258 -1.14226 -1.31257 0
M  V30 1587 O 149.434 -1.46582 -1.38115 0
M  V30 1588 C 146.499 -2.73962 -2.12476 0
M  V30 1589 C 145.56 -3.92048 -1.7492 0
M  V30 1590 C 144.793 -4.45933 -2.93223 0
M  V30 1591 O 145.016 -3.98764 -4.07852 0
M  V30 1592 O 143.95 -5.36999 -2.71875 0
M  V30 1593 H 147.776 -3.01031 -0.40172 0
M  V30 1594 H 145.361 -1.48813 -0.132291 0
M  V30 1595 H 147.243 -3.10147 -2.85283 0
M  V30 1596 H 145.918 -1.93347 -2.59613 0
M  V30 1597 H 144.825 -3.6068 -0.993025 0
M  V30 1598 H 146.158 -4.74017 -1.32548 0
M  V30 1599 N 147.81 0.181792 -1.56548 0
M  V30 1600 C 149.057 0.900097 -1.81396 0
M  V30 1601 C 149.385 1.82695 -0.667281 0
M  V30 1602 O 148.64 1.92614 0.346146 0
M  V30 1603 C 148.939 1.73728 -3.12335 0
M  V30 1604 C 148.605 0.960255 -4.40556 0
M  V30 1605 C 147.267 0.745766 -4.75386 0
M  V30 1606 C 149.619 0.414477 -5.19549 0
M  V30 1607 C 146.947 -0.0257694 -5.86694 0
M  V30 1608 C 149.299 -0.343916 -6.31664 0
M  V30 1609 C 147.963 -0.569301 -6.65068 0
M  V30 1610 H 147.233 0.329369 -0.663775 0
M  V30 1611 H 149.88 0.165647 -1.90782 0
M  V30 1612 H 148.185 2.54081 -2.98245 0
M  V30 1613 H 149.882 2.29591 -3.28769 0
M  V30 1614 H 146.472 1.13746 -4.13231 0
M  V30 1615 H 150.656 0.567554 -4.93044 0
M  V30 1616 H 145.912 -0.210233 -6.11038 0
M  V30 1617 H 150.086 -0.774133 -6.92084 0
M  V30 1618 H 147.713 -1.16903 -7.51158 0
M  V30 1619 N 149.288 1.51039 0.449983 0
M  V30 1620 C 150.22 1.67617 1.56324 0
M  V30 1621 C 151.233 0.557083 1.52972 0
M  V30 1622 O 152.422 0.830989 1.57977 0
M  V30 1623 C 149.522 1.66402 2.95235 0
M  V30 1624 C 148.695 2.9469 3.23229 0
M  V30 1625 C 147.754 2.85832 4.41799 0
M  V30 1626 O 146.78 3.59785 4.41071 0
M  V30 1627 N 147.982 2.00821 5.44657 0
M  V30 1628 H 150.747 2.63648 1.42512 0
M  V30 1629 H 148.308 1.48767 0.638737 0
M  V30 1630 H 150.3 1.58062 3.72557 0
M  V30 1631 H 148.87 0.780182 3.02708 0
M  V30 1632 H 148.09 3.16996 2.34323 0
M  V30 1633 H 149.378 3.79636 3.38754 0
M  V30 1634 H 148.776 1.40091 5.48079 0
M  V30 1635 H 147.333 1.98368 6.20881 0
M  V30 1636 N 150.766 -0.704594 1.40972 0
M  V30 1637 C 152.043 -1.45847 1.30338 0
M  V30 1638 C 152.423 -2.10973 -0.0732344 0
M  V30 1639 O 151.771 -2.00997 -1.08685 0
M  V30 1640 C 151.981 -2.48525 2.45023 0
M  V30 1641 C 153.329 -3.1404 2.8577 0
M  V30 1642 O 154.353 -2.58848 2.44696 0
M  V30 1643 O 153.212 -4.13981 3.56766 0
M  V30 1644 H 150.306 -0.649092 0.512454 0
M  V30 1645 H 152.852 -0.735836 1.52917 0
M  V30 1646 H 151.624 -1.98994 3.36923 0
M  V30 1647 H 151.247 -3.2831 2.24272 0
M  V30 1648 N 152.244 -1.26651 -0.937939 0
M  V30 1649 C 153.49 -1.12553 -1.687 0
M  V30 1650 C 153.823 0.329782 -1.91379 0
M  V30 1651 O 153.098 1.24202 -1.4968 0
M  V30 1652 C 153.381 -1.89862 -3.05981 0
M  V30 1653 C 153.234 -3.43318 -2.90607 0
M  V30 1654 C 154.553 -1.69499 -4.0615 0
M  V30 1655 H 151.672 -0.410257 -0.612257 0
M  V30 1656 H 154.314 -1.55685 -1.08913 0
M  V30 1657 H 152.464 -1.53204 -3.57017 0
M  V30 1658 H 154.136 -3.89747 -2.46769 0
M  V30 1659 H 152.379 -3.70179 -2.26164 0
M  V30 1660 H 153.05 -3.92642 -3.8799 0
M  V30 1661 H 155.526 -2.01442 -3.64088 0
M  V30 1662 H 154.402 -2.26002 -5.00214 0
M  V30 1663 H 154.663 -0.640365 -4.37438 0
M  V30 1664 N 153.722 1.14298 -1.08507 0
M  V30 1665 C 154.952 1.88945 -0.835663 0
M  V30 1666 C 155.36 1.78894 0.615928 0
M  V30 1667 O 154.703 1.1468 1.43506 0
M  V30 1668 C 154.765 3.39585 -1.17994 0
M  V30 1669 C 154.429 3.7342 -2.63451 0
M  V30 1670 C 155.426 3.73454 -3.61702 0
M  V30 1671 C 153.111 4.03368 -2.99332 0
M  V30 1672 C 155.105 4.02961 -4.93864 0
M  V30 1673 C 152.792 4.32538 -4.31687 0
M  V30 1674 C 153.79 4.32318 -5.28763 0
M  V30 1675 O 153.478 4.6078 -6.58739 0
M  V30 1676 H 153.21 0.605307 -0.300965 0
M  V30 1677 H 155.764 1.45673 -1.44806 0
M  V30 1678 H 153.994 3.83315 -0.51055 0
M  V30 1679 H 155.683 3.9554 -0.911182 0
M  V30 1680 H 156.449 3.50403 -3.35325 0
M  V30 1681 H 152.328 4.02692 -2.24411 0
M  V30 1682 H 155.872 4.02704 -5.69627 0
M  V30 1683 H 151.769 4.55059 -4.57812 0
M  V30 1684 H 152.537 4.78492 -6.64069 0
M  V30 1685 N 155.201 0.870884 1.31352 0
M  V30 1686 C 156.131 0.343096 2.30966 0
M  V30 1687 C 157.112 -0.566507 1.60389 0
M  V30 1688 O 158.297 -0.483336 1.88089 0
M  V30 1689 C 155.427 -0.455487 3.443 0
M  V30 1690 C 154.381 0.361103 4.26474 0
M  V30 1691 C 153.707 -0.563221 5.31725 0
M  V30 1692 C 155.007 1.59566 4.97329 0
M  V30 1693 H 156.701 1.17548 2.75359 0
M  V30 1694 H 154.247 0.566686 1.32381 0
M  V30 1695 H 156.2 -0.83525 4.13039 0
M  V30 1696 H 154.924 -1.32139 2.98675 0
M  V30 1697 H 153.583 0.722825 3.59403 0
M  V30 1698 H 153.231 -1.42643 4.82351 0
M  V30 1699 H 152.931 -0.0207409 5.87596 0
M  V30 1700 H 154.455 -0.939808 6.03324 0
M  V30 1701 H 155.869 1.28728 5.58661 0
M  V30 1702 H 154.266 2.07728 5.63 0
M  V30 1703 H 155.336 2.34798 4.24262 0
M  V30 1704 N 156.679 -1.44442 0.630414 0
M  V30 1705 C 157.925 -2.02351 0.134816 0
M  V30 1706 C 158.258 -1.4947 -1.23986 0
M  V30 1707 O 157.533 -0.678475 -1.82283 0
M  V30 1708 C 157.816 -3.59898 0.120707 0
M  V30 1709 C 157.669 -4.23063 1.52767 0
M  V30 1710 C 158.988 -4.36585 -0.555127 0
M  V30 1711 H 156.107 -0.73527 0.0504646 0
M  V30 1712 H 158.749 -1.72022 0.806751 0
M  V30 1713 H 156.899 -3.85868 -0.451477 0
M  V30 1714 H 158.571 -4.08202 2.14869 0
M  V30 1715 H 156.814 -3.80586 2.08175 0
M  V30 1716 H 157.485 -5.32071 1.46984 0
M  V30 1717 H 159.961 -4.16044 -0.0685429 0
M  V30 1718 H 158.837 -5.46294 -0.534185 0
M  V30 1719 H 159.098 -4.11138 -1.62535 0
M  V30 1720 N 158.157 -0.370918 -1.53173 0
M  V30 1721 C 159.09 0.516727 -2.22273 0
M  V30 1722 C 160.068 1.07877 -1.21661 0
M  V30 1723 O 161.252 1.13389 -1.50583 0
M  V30 1724 C 158.379 1.71346 -2.92161 0
M  V30 1725 C 157.425 1.27838 -4.0689 0
M  V30 1726 S 158.258 0.275217 -5.34792 0
M  V30 1727 C 159.414 1.47816 -6.08195 0
M  V30 1728 H 159.647 -0.0701054 -2.97217 0
M  V30 1729 H 157.18 -0.155038 -1.5362 0
M  V30 1730 H 159.138 2.39988 -3.3304 0
M  V30 1731 H 157.799 2.27156 -2.16931 0
M  V30 1732 H 156.992 2.17141 -4.54825 0
M  V30 1733 H 156.594 0.671105 -3.6793 0
M  V30 1734 H 158.886 2.40831 -6.33251 0
M  V30 1735 H 159.829 1.04008 -7.0042 0
M  V30 1736 H 160.237 1.68663 -5.38714 0
M  V30 1737 N 159.635 1.57281 -0.100228 0
M  V30 1738 C 160.545 2.17833 0.870965 0
M  V30 1739 C 161.561 1.14921 1.30649 0
M  V30 1740 O 162.737 1.47313 1.37335 0
M  V30 1741 C 159.802 2.75085 2.1102 0
M  V30 1742 C 158.863 3.9297 1.72838 0
M  V30 1743 C 158.096 4.47482 2.90854 0
M  V30 1744 O 158.319 4.00922 4.05731 0
M  V30 1745 O 157.253 5.38433 2.69023 0
M  V30 1746 H 161.079 3.0124 0.38575 0
M  V30 1747 H 158.664 1.48881 0.124397 0
M  V30 1748 H 160.546 3.11656 2.83634 0
M  V30 1749 H 159.221 1.94721 2.58584 0
M  V30 1750 H 158.128 3.61201 0.973883 0
M  V30 1751 H 159.461 4.74713 1.30033 0
M  V30 1752 N 161.113 -0.173488 1.56642 0
M  V30 1753 C 162.043 -1.2171 1.99271 0
M  V30 1754 C 163.024 -1.46289 0.867959 0
M  V30 1755 O 164.209 -1.5766 1.13388 0
M  V30 1756 C 161.339 -2.55651 2.35074 0
M  V30 1757 C 160.293 -2.45645 3.50489 0
M  V30 1758 C 159.619 -3.84056 3.72028 0
M  V30 1759 C 160.919 -1.96302 4.84007 0
M  V30 1760 H 162.613 -0.86275 2.867 0
M  V30 1761 H 160.159 -0.413571 1.37933 0
M  V30 1762 H 162.112 -3.2886 2.63494 0
M  V30 1763 H 160.836 -2.92869 1.44552 0
M  V30 1764 H 159.495 -1.7489 3.22194 0
M  V30 1765 H 159.143 -4.18664 2.788 0
M  V30 1766 H 158.843 -3.7823 4.49684 0
M  V30 1767 H 160.367 -4.58854 4.02846 0
M  V30 1768 H 161.781 -2.59284 5.11317 0
M  V30 1769 H 160.178 -2.01429 5.65284 0
M  V30 1770 H 161.248 -0.917226 4.76146 0
M  V30 1771 N 162.591 -1.51276 -0.441967 0
M  V30 1772 C 163.524 -1.66933 -1.55591 0
M  V30 1773 C 164.502 -0.516958 -1.54163 0
M  V30 1774 O 165.686 -0.740209 -1.73358 0
M  V30 1775 C 162.813 -1.67866 -2.94174 0
M  V30 1776 C 161.859 -2.89013 -3.13646 0
M  V30 1777 S 162.692 -4.49897 -2.90436 0
M  V30 1778 C 163.848 -4.53568 -4.31308 0
M  V30 1779 H 164.081 -2.61155 -1.42076 0
M  V30 1780 H 161.614 -1.40902 -0.631341 0
M  V30 1781 H 163.572 -1.69089 -3.74058 0
M  V30 1782 H 162.233 -0.748296 -3.05056 0
M  V30 1783 H 161.426 -2.86054 -4.14957 0
M  V30 1784 H 161.028 -2.85509 -2.4158 0
M  V30 1785 H 163.32 -4.28924 -5.24434 0
M  V30 1786 H 164.263 -5.55355 -4.39303 0
M  V30 1787 H 164.671 -3.82943 -4.14747 0
M  V30 1788 N 164.069 0.697108 -1.41344 0
M  V30 1789 C 165.346 1.45154 -1.31109 0
M  V30 1790 C 165.726 2.11009 0.0620449 0
M  V30 1791 O 165.074 2.01571 1.07618 0
M  V30 1792 C 165.284 2.47223 -2.46337 0
M  V30 1793 C 166.632 3.1252 -2.87431 0
M  V30 1794 O 167.656 2.57547 -2.46065 0
M  V30 1795 O 166.515 4.12083 -3.58957 0
M  V30 1796 H 163.609 0.646365 -0.515889 0
M  V30 1797 H 166.155 0.727716 -1.53305 0
M  V30 1798 H 164.927 1.97204 -3.37974 0
M  V30 1799 H 164.55 3.27116 -2.2601 0
M  V30 1800 N 165.547 1.27147 0.931209 0
M  V30 1801 C 166.51 1.09615 2.01289 0
M  V30 1802 C 167.51 0.0412581 1.60747 0
M  V30 1803 O 168.7 0.285545 1.71844 0
M  V30 1804 C 165.832 0.669447 3.34262 0
M  V30 1805 H 167.025 2.05662 2.18273 0
M  V30 1806 H 164.578 1.09885 1.11153 0
M  V30 1807 H 165.313 -0.292572 3.22978 0
M  V30 1808 H 165.098 1.43127 3.65044 0
M  V30 1809 H 166.588 0.568921 4.13706 0
M  V30 1810 N 167.025 -1.13721 1.09112 0
M  V30 1811 C 167.973 -2.21103 0.722219 0
M  V30 1812 C 168.967 -1.67147 -0.275374 0
M  V30 1813 O 170.173 -1.79477 -0.137176 0
M  V30 1814 H 166.548 -0.720445 0.215553 0
M  V30 1815 H 168.519 -2.49483 1.63709 0
M  V30 1816 C 167.268 -3.47352 0.15543 0
M  V30 1817 H 166.591 -3.89206 0.914246 0
M  V30 1818 H 168.031 -4.2395 -0.0647967 0
M  V30 1819 C 166.49 -3.1814 -1.10852 0
M  V30 1820 O 167.02 -3.36604 -2.19227 0
M  V30 1821 N 165.226 -2.72045 -1.02176 0
M  V30 1822 H 164.773 -2.57221 -0.139764 0
M  V30 1823 H 164.731 -2.52875 -1.8682 0
M  V30 1824 N 168.503 -0.877838 -1.30888 0
M  V30 1825 C 169.433 -0.35534 -2.3078 0
M  V30 1826 C 170.414 0.557994 -1.60687 0
M  V30 1827 O 171.599 0.473355 -1.88343 0
M  V30 1828 C 168.729 0.437221 -3.44537 0
M  V30 1829 C 167.683 -0.383715 -4.26276 0
M  V30 1830 C 167.009 0.535014 -5.32017 0
M  V30 1831 C 168.309 -1.62201 -4.96476 0
M  V30 1832 H 170.003 -1.19007 -2.74732 0
M  V30 1833 H 167.549 -0.573698 -1.32078 0
M  V30 1834 H 169.502 0.813334 -4.13477 0
M  V30 1835 H 168.226 1.30553 -2.99372 0
M  V30 1836 H 166.885 -0.741874 -3.59015 0
M  V30 1837 H 166.533 1.40083 -4.831 0
M  V30 1838 H 166.233 -0.0104211 -5.87599 0
M  V30 1839 H 167.757 0.907799 -6.03814 0
M  V30 1840 H 169.171 -1.31689 -5.5797 0
M  V30 1841 H 167.568 -2.10711 -5.61891 0
M  V30 1842 H 168.638 -2.37044 -4.23011 0
M  V30 1843 N 169.982 1.44106 -0.638065 0
M  V30 1844 C 171.222 2.03858 -0.148733 0
M  V30 1845 C 171.586 1.49153 1.20903 0
M  V30 1846 O 172.787 2.00452 1.79088 0
M  V30 1847 C 171.058 3.57117 -0.142314 0
M  V30 1848 S 172.617 4.37897 0.281385 0
M  V30 1849 H 169.435 0.708069 -0.0644912 0
M  V30 1850 H 172.037 1.7639 -0.843009 0
M  V30 1851 H 170.741 3.94436 -1.13349 0
M  V30 1852 H 170.272 3.89205 0.572988 0
M  V30 1853 H 172.287 4.72218 1.52395 0
M  V30 1854 N 171.46 0.379036 1.52974 0
M  V30 1855 C 172.392 -0.495963 2.2377 0
M  V30 1856 C 173.405 -1.03517 1.25651 0
M  V30 1857 O 174.594 -0.939249 1.51791 0
M  V30 1858 C 171.694 -1.69894 2.93239 0
M  V30 1859 C 170.867 -1.2889 4.17979 0
M  V30 1860 C 169.926 -2.35543 4.70538 0
M  V30 1861 O 168.952 -1.97375 5.33883 0
M  V30 1862 N 170.154 -3.67318 4.49508 0
M  V30 1863 H 172.919 0.110523 2.99496 0
M  V30 1864 H 170.48 0.204878 1.60598 0
M  V30 1865 H 172.472 -2.40747 3.25304 0
M  V30 1866 H 171.042 -2.212 2.20883 0
M  V30 1867 H 170.262 -0.409676 3.92065 0
M  V30 1868 H 171.55 -0.991443 4.99047 0
M  V30 1869 H 170.948 -4.01095 3.98923 0
M  V30 1870 H 169.505 -4.34235 4.8609 0
M  V30 1871 N 172.938 -1.57226 0.108567 0
M  V30 1872 C 174.184 -1.95121 -0.552761 0
M  V30 1873 C 174.517 -0.991345 -1.66991 0
M  V30 1874 O 173.792 -0.0267211 -1.94482 0
M  V30 1875 C 174.075 -3.43039 -1.09528 0
M  V30 1876 C 173.928 -4.49797 0.0177332 0
M  V30 1877 C 175.247 -3.92567 -1.98945 0
M  V30 1878 H 172.366 -0.709496 -0.199461 0
M  V30 1879 H 175.008 -1.89126 0.182011 0
M  V30 1880 H 173.158 -3.48279 -1.72146 0
M  V30 1881 H 174.83 -4.56661 0.652584 0
M  V30 1882 H 173.073 -4.284 0.682309 0
M  V30 1883 H 173.744 -5.50528 -0.402919 0
M  V30 1884 H 176.22 -3.89565 -1.46214 0
M  V30 1885 H 175.096 -4.96605 -2.33827 0
M  V30 1886 H 175.357 -3.32648 -2.91201 0
M  V30 1887 N 174.416 0.165178 -1.56732 0
M  V30 1888 C 175.665 0.879143 -1.81532 0
M  V30 1889 C 175.978 1.83144 -0.686842 0
M  V30 1890 O 177.184 2.58823 -0.819944 0
M  V30 1891 C 175.64 1.61388 -3.21686 0
M  V30 1892 C 175.248 0.704904 -4.4242 0
M  V30 1893 C 176.992 2.3157 -3.55774 0
M  V30 1894 C 174.899 1.44022 -5.73595 0
M  V30 1895 H 173.829 0.332033 -0.676957 0
M  V30 1896 H 176.48 0.132008 -1.83025 0
M  V30 1897 H 174.862 2.40599 -3.14529 0
M  V30 1898 H 176.036 -0.0506815 -4.60772 0
M  V30 1899 H 174.351 0.112419 -4.16248 0
M  V30 1900 H 176.948 2.8719 -4.51028 0
M  V30 1901 H 177.291 3.07201 -2.8095 0
M  V30 1902 H 177.824 1.59297 -3.64513 0
M  V30 1903 H 174.563 0.72612 -6.51466 0
M  V30 1904 H 174.083 2.16898 -5.5921 0
M  V30 1905 H 175.762 1.98606 -6.15764 0
M  V30 1906 N 175.894 1.51508 0.433938 0
M  V30 1907 C 176.844 1.69451 1.52546 0
M  V30 1908 C 177.828 0.548474 1.51263 0
M  V30 1909 O 179.02 0.804529 1.57659 0
M  V30 1910 C 176.149 1.82604 2.90707 0
M  V30 1911 C 175.235 3.03002 2.96733 0
M  V30 1912 N 175.626 4.26121 2.72496 0
M  V30 1913 C 173.924 3.02327 3.27894 0
M  V30 1914 C 174.625 5.07407 2.84452 0
M  V30 1915 N 173.601 4.42126 3.16269 0
M  V30 1916 H 177.403 2.62305 1.32564 0
M  V30 1917 H 174.917 1.49202 0.641297 0
M  V30 1918 H 176.914 1.93569 3.69238 0
M  V30 1919 H 175.574 0.909339 3.11707 0
M  V30 1920 H 176.585 4.55009 2.4736 0
M  V30 1921 H 173.262 2.20301 3.54646 0
M  V30 1922 H 174.652 6.15422 2.69639 0
M  V30 1923 N 177.372 -0.689602 1.41712 0
M  V30 1924 C 178.305 -1.81403 1.3845 0
M  V30 1925 C 179.283 -1.60653 0.250874 0
M  V30 1926 O 180.467 -1.83323 0.43874 0
M  V30 1927 C 177.594 -3.18176 1.1611 0
M  V30 1928 C 176.64 -3.57705 2.3227 0
M  V30 1929 S 177.473 -3.61827 3.94767 0
M  V30 1930 C 178.629 -5.01318 3.74742 0
M  V30 1931 H 178.862 -1.83893 2.33603 0
M  V30 1932 H 176.395 -0.858878 1.28307 0
M  V30 1933 H 178.353 -3.97132 1.03907 0
M  V30 1934 H 177.014 -3.13288 0.225668 0
M  V30 1935 H 176.207 -4.57082 2.12349 0
M  V30 1936 H 175.809 -2.86073 2.40911 0
M  V30 1937 H 178.101 -5.88986 3.34817 0
M  V30 1938 H 179.044 -5.26283 4.73743 0
M  V30 1939 H 179.452 -4.73138 3.07898 0
M  V30 1940 N 178.85 -1.27639 -0.924453 0
M  V30 1941 C 179.76 -1.12466 -2.05885 0
M  V30 1942 C 180.776 -0.053869 -1.73917 0
M  V30 1943 O 181.952 -0.261012 -1.99702 0
M  V30 1944 C 179.017 -0.776768 -3.37886 0
M  V30 1945 C 178.078 -1.92878 -3.83532 0
M  V30 1946 C 177.311 -1.59739 -5.09234 0
M  V30 1947 O 177.534 -0.506782 -5.68144 0
M  V30 1948 O 176.468 -2.43761 -5.50331 0
M  V30 1949 H 180.294 -2.07671 -2.21599 0
M  V30 1950 H 177.879 -1.06857 -1.04413 0
M  V30 1951 H 179.761 -0.596229 -4.17161 0
M  V30 1952 H 178.436 0.145732 -3.23372 0
M  V30 1953 H 177.343 -2.1644 -3.0513 0
M  V30 1954 H 178.676 -2.8316 -4.02593 0
M  V30 1955 N 180.328 1.1314 -1.09713 0
M  V30 1956 C 181.258 2.20748 -0.761102 0
M  V30 1957 C 182.239 1.68061 0.262566 0
M  V30 1958 O 183.424 1.93765 0.129977 0
M  V30 1959 C 180.554 3.46812 -0.184054 0
M  V30 1960 C 179.508 4.12606 -1.13757 0
M  V30 1961 C 178.834 5.33031 -0.422083 0
M  V30 1962 C 180.134 4.59603 -2.48118 0
M  V30 1963 H 181.828 2.49113 -1.66082 0
M  V30 1964 H 179.374 1.19734 -0.799987 0
M  V30 1965 H 181.327 4.21353 0.0631215 0
M  V30 1966 H 180.051 3.17851 0.750868 0
M  V30 1967 H 178.71 3.40036 -1.37007 0
M  V30 1968 H 178.358 5.00335 0.517072 0
M  V30 1969 H 178.058 5.77999 -1.05788 0
M  V30 1970 H 179.582 6.10325 -0.183277 0
M  V30 1971 H 180.996 5.25552 -2.29059 0
M  V30 1972 H 179.393 5.15321 -3.07514 0
M  V30 1973 H 180.463 3.73971 -3.08665 0
M  V30 1974 N 181.806 0.884767 1.30421 0
M  V30 1975 C 183.083 0.423185 1.90967 0
M  V30 1976 C 183.463 -1.09605 1.80416 0
M  V30 1977 O 182.811 -1.93126 1.22125 0
M  V30 1978 C 183.021 0.921056 3.36627 0
M  V30 1979 C 184.369 0.955903 4.137 0
M  V30 1980 O 185.393 0.867706 3.4547 0
M  V30 1981 O 184.252 1.08614 5.35598 0
M  V30 1982 H 181.346 0.129369 0.816819 0
M  V30 1983 H 183.892 0.973653 1.3899 0
M  V30 1984 H 182.664 1.96489 3.3839 0
M  V30 1985 H 182.287 0.349741 3.96059 0
M  V30 1986 N 183.284 -1.43765 0.645699 0
M  V30 1987 C 184.234 -2.27884 -0.0726442 0
M  V30 1988 C 185.218 -1.39483 -0.802086 0
M  V30 1989 O 186.41 -1.63174 -0.685791 0
M  V30 1990 C 183.539 -3.27055 -1.04356 0
M  V30 1991 C 182.625 -4.22944 -0.312985 0
M  V30 1992 N 183.016 -5.01391 0.666386 0
M  V30 1993 C 181.314 -4.42528 -0.55546 0
M  V30 1994 C 182.015 -5.71217 1.09935 0
M  V30 1995 N 180.991 -5.41856 0.435137 0
M  V30 1996 H 184.793 -2.85949 0.678988 0
M  V30 1997 H 182.307 -1.55378 0.472368 0
M  V30 1998 H 184.304 -3.86089 -1.57292 0
M  V30 1999 H 182.964 -2.70551 -1.79534 0
M  V30 2000 H 183.975 -5.07252 1.04481 0
M  V30 2001 H 180.652 -3.97104 -1.28899 0
M  V30 2002 H 182.042 -6.44202 1.90929 0
M  V30 2003 N 184.763 -0.387143 -1.52771 0
M  V30 2004 C 185.673 0.456442 -2.30117 0
M  V30 2005 C 186.689 1.07342 -1.36944 0
M  V30 2006 O 187.865 1.07971 -1.70013 0
M  V30 2007 C 184.93 1.56957 -3.09136 0
M  V30 2008 C 183.991 0.977916 -4.18014 0
M  V30 2009 C 183.224 2.038 -4.93256 0
M  V30 2010 O 183.447 3.25271 -4.68567 0
M  V30 2011 O 182.381 1.6565 -5.78657 0
M  V30 2012 H 186.207 -0.17359 -3.03203 0
M  V30 2013 H 183.792 -0.150919 -1.48636 0
M  V30 2014 H 185.674 2.21628 -3.58412 0
M  V30 2015 H 184.349 2.18461 -2.38865 0
M  V30 2016 H 183.256 0.294525 -3.72939 0
M  V30 2017 H 184.589 0.407128 -4.90513 0
M  V30 2018 N 186.241 1.57166 -0.116904 0
M  V30 2019 C 187.657 1.5779 0.239693 0
M  V30 2020 C 187.857 1.1295 1.66867 0
M  V30 2021 O 186.913 0.81592 2.38954 0
M  V30 2022 C 188.226 3.00699 0.00828202 0
M  V30 2023 C 189.774 3.12912 0.0743438 0
M  V30 2024 C 190.249 4.57817 -0.129348 0
M  V30 2025 N 191.74 4.63139 -0.075247 0
M  V30 2026 C 192.475 5.73023 -0.207788 0
M  V30 2027 N 191.971 6.91665 -0.396382 0
M  V30 2028 N 193.764 5.61906 -0.14751 0
M  V30 2029 H 185.915 1.84615 -1.05029 0
M  V30 2030 H 188.178 0.85311 -0.41341 0
M  V30 2031 H 187.884 3.37784 -0.979531 0
M  V30 2032 H 187.758 3.69848 0.741077 0
M  V30 2033 H 190.145 2.75686 1.05268 0
M  V30 2034 H 190.226 2.4631 -0.690297 0
M  V30 2035 H 189.87 4.95742 -1.10465 0
M  V30 2036 H 189.8 5.22507 0.655253 0
M  V30 2037 H 192.291 3.7784 0.0670898 0
M  V30 2038 H 192.604 7.71255 -0.488437 0
M  V30 2039 H 190.949 6.93654 -0.432329 0
M  V30 2040 H 194.14 4.681 -0.00115036 0
M  V30 2041 H 194.313 6.47501 -0.254247 0
M  V30 2042 N 187.719 -0.156864 1.56817 0
M  V30 2043 C 188.652 -1.22316 1.9265 0
M  V30 2044 C 189.63 -1.42059 0.791076 0
M  V30 2045 O 190.814 -1.56831 1.04576 0
M  V30 2046 C 187.941 -2.58375 2.18998 0
M  V30 2047 C 186.987 -2.55284 3.41661 0
M  V30 2048 S 187.82 -2.02946 4.95553 0
M  V30 2049 C 188.976 -3.40753 5.25013 0
M  V30 2050 H 189.209 -0.917403 2.82791 0
M  V30 2051 H 186.742 -0.362059 1.50095 0
M  V30 2052 H 188.7 -3.36677 2.34859 0
M  V30 2053 H 187.361 -2.86145 1.29538 0
M  V30 2054 H 186.554 -3.55418 3.57343 0
M  V30 2055 H 186.156 -1.85086 3.24991 0
M  V30 2056 H 188.448 -4.36819 5.17876 0
M  V30 2057 H 189.391 -3.29933 6.26538 0
M  V30 2058 H 189.799 -3.37433 4.52548 0
M  V30 2059 N 189.197 -1.51736 -0.425897 0
M  V30 2060 C 190.422 -1.69082 -1.20108 0
M  V30 2061 C 190.847 -0.392398 -1.83962 0
M  V30 2062 O 190.205 0.64858 -1.69302 0
M  V30 2063 C 190.253 -2.81604 -2.25237 0
M  V30 2064 O 189.357 -2.46004 -3.30992 0
M  V30 2065 H 188.698 -0.563408 -0.35138 0
M  V30 2066 H 191.228 -1.98358 -0.501512 0
M  V30 2067 H 191.238 -3.06025 -2.69838 0
M  V30 2068 H 189.913 -3.75817 -1.78142 0
M  V30 2069 H 188.49 -2.32195 -2.91787 0
M  V30 2070 N 190.675 0.682077 -1.42076 0
M  V30 2071 C 191.905 1.46844 -1.45329 0
M  V30 2072 C 192.313 1.89102 -0.0609328 0
M  V30 2073 O 191.656 1.58238 0.933082 0
M  V30 2074 C 191.718 2.75375 -2.31104 0
M  V30 2075 C 191.382 2.55238 -3.79081 0
M  V30 2076 C 192.379 2.20309 -4.70914 0
M  V30 2077 C 190.064 2.70459 -4.2327 0
M  V30 2078 C 192.058 2.00859 -6.04925 0
M  V30 2079 C 189.745 2.50624 -5.57343 0
M  V30 2080 C 190.743 2.15876 -6.47986 0
M  V30 2081 O 190.431 1.96227 -7.79583 0
M  V30 2082 H 190.163 0.4586 -0.496651 0
M  V30 2083 H 192.717 0.846131 -1.87162 0
M  V30 2084 H 190.947 3.40061 -1.84107 0
M  V30 2085 H 192.636 3.37231 -2.25898 0
M  V30 2086 H 193.402 2.08153 -4.38061 0
M  V30 2087 H 189.281 2.96485 -3.53012 0
M  V30 2088 H 192.825 1.7366 -6.75639 0
M  V30 2089 H 188.722 2.62375 -5.89771 0
M  V30 2090 H 189.49 2.10883 -7.90867 0
M  V30 2091 N 192.153 1.28127 0.917671 0
M  V30 2092 C 193.083 1.14248 2.03641 0
M  V30 2093 C 194.064 0.0412748 1.7005 0
M  V30 2094 O 195.249 0.217566 1.92977 0
M  V30 2095 C 192.379 0.799431 3.37974 0
M  V30 2096 C 191.333 1.85497 3.85713 0
M  V30 2097 C 190.659 1.36565 5.16966 0
M  V30 2098 C 191.959 3.26085 4.08002 0
M  V30 2099 H 193.653 2.07835 2.15511 0
M  V30 2100 H 191.199 1.00064 1.03553 0
M  V30 2101 H 193.152 0.689114 4.15727 0
M  V30 2102 H 191.876 -0.172145 3.26146 0
M  V30 2103 H 190.535 1.95437 3.10161 0
M  V30 2104 H 190.183 0.383253 5.01538 0
M  V30 2105 H 189.883 2.07143 5.49878 0
M  V30 2106 H 191.407 1.26848 5.97279 0
M  V30 2107 H 192.821 3.19089 4.76293 0
M  V30 2108 H 191.218 3.94462 4.52238 0
M  V30 2109 H 192.288 3.70394 3.12948 0
M  V30 2110 N 193.631 -1.12557 1.10312 0
M  V30 2111 C 194.561 -2.20341 0.772798 0
M  V30 2112 C 195.542 -1.68198 -0.25365 0
M  V30 2113 O 196.727 -1.93831 -0.119699 0
M  V30 2114 C 193.857 -3.46709 0.202443 0
M  V30 2115 C 192.811 -4.11996 1.15943 0
M  V30 2116 C 192.137 -5.328 0.450345 0
M  V30 2117 C 193.437 -4.5828 2.50552 0
M  V30 2118 H 195.131 -2.48229 1.674 0
M  V30 2119 H 192.677 -1.19308 0.806326 0
M  V30 2120 H 194.63 -4.2138 -0.0407752 0
M  V30 2121 H 193.354 -3.18245 -0.734001 0
M  V30 2122 H 192.013 -3.39305 1.38808 0
M  V30 2123 H 191.661 -5.00602 -0.490531 0
M  V30 2124 H 191.361 -5.7743 1.08851 0
M  V30 2125 H 192.885 -6.10219 0.215642 0
M  V30 2126 H 194.299 -5.2433 2.31843 0
M  V30 2127 H 192.696 -5.13683 3.10242 0
M  V30 2128 H 193.766 -3.72329 3.10643 0
M  V30 2129 N 195.109 -0.891671 -1.2995 0
M  V30 2130 C 196.339 -0.527893 -1.99742 0
M  V30 2131 C 196.747 0.88979 -1.66971 0
M  V30 2132 O 196.09 1.59766 -0.906667 0
M  V30 2133 C 196.152 -0.630804 -3.53922 0
M  V30 2134 C 195.816 -2.01401 -4.10228 0
M  V30 2135 C 196.813 -2.98422 -4.25724 0
M  V30 2136 C 194.498 -2.32121 -4.45449 0
M  V30 2137 C 196.492 -4.24293 -4.75662 0
M  V30 2138 C 194.179 -3.58237 -4.95086 0
M  V30 2139 C 195.177 -4.54137 -5.10146 0
M  V30 2140 O 194.865 -5.78014 -5.58708 0
M  V30 2141 H 194.597 -0.201953 -0.645129 0
M  V30 2142 H 197.151 -1.20076 -1.66646 0
M  V30 2143 H 195.381 0.0990616 -3.86573 0
M  V30 2144 H 197.07 -0.277338 -4.04951 0
M  V30 2145 H 197.836 -2.76001 -3.98809 0
M  V30 2146 H 193.715 -1.5824 -4.32991 0
M  V30 2147 H 197.259 -4.99153 -4.87332 0
M  V30 2148 H 193.156 -3.80491 -5.21437 0
M  V30 2149 H 193.924 -5.8049 -5.77039 0
M  V30 2150 N 196.587 1.43421 -0.653314 0
M  V30 2151 C 197.519 2.29071 0.0769134 0
M  V30 2152 C 198.532 1.42513 0.787017 0
M  V30 2153 O 199.721 1.66449 0.644757 0
M  V30 2154 C 196.821 3.19436 1.13199 0
M  V30 2155 C 195.994 4.34533 0.500006 0
M  V30 2156 C 195.053 5.05771 1.45198 0
M  V30 2157 O 194.079 5.61037 0.960538 0
M  V30 2158 N 195.281 5.0928 2.78594 0
M  V30 2159 H 198.046 2.92382 -0.658235 0
M  V30 2160 H 195.607 1.54112 -0.496104 0
M  V30 2161 H 197.599 3.63958 1.76964 0
M  V30 2162 H 196.169 2.57724 1.7691 0
M  V30 2163 H 195.389 3.92925 -0.316738 0
M  V30 2164 H 196.677 5.08766 0.0588345 0
M  V30 2165 H 196.075 4.65751 3.2108 0
M  V30 2166 H 194.632 5.57519 3.37662 0
M  V30 2167 N 198.065 0.39524 1.52563 0
M  V30 2168 C 198.998 -0.4813 2.23067 0
M  V30 2169 C 199.976 -1.05927 1.23362 0
M  V30 2170 O 201.16 -1.10979 1.52368 0
M  V30 2171 C 198.287 -1.66676 2.9485 0
M  V30 2172 C 197.333 -1.21348 4.08873 0
M  V30 2173 S 198.166 -0.190102 5.35162 0
M  V30 2174 C 199.322 -1.38121 6.1047 0
M  V30 2175 H 199.555 0.117381 2.97068 0
M  V30 2176 H 197.088 0.179458 1.53354 0
M  V30 2177 H 199.046 -2.3466 3.36816 0
M  V30 2178 H 197.707 -2.23676 2.20518 0
M  V30 2179 H 196.9 -2.09877 4.58222 0
M  V30 2180 H 196.502 -0.612486 3.68951 0
M  V30 2181 H 198.794 -2.30726 6.37002 0
M  V30 2182 H 199.737 -0.928521 7.01986 0
M  V30 2183 H 200.145 -1.60071 5.41329 0
M  V30 2184 N 199.544 -1.57102 0.125237 0
M  V30 2185 C 200.474 -2.18659 -0.819174 0
M  V30 2186 C 201.455 -1.12843 -1.27281 0
M  V30 2187 O 202.64 -1.41104 -1.33429 0
M  V30 2188 C 199.77 -2.79096 -2.06695 0
M  V30 2189 C 198.724 -3.90548 -1.75088 0
M  V30 2190 C 198.05 -4.37821 -3.06948 0
M  V30 2191 C 199.35 -5.12356 -1.01435 0
M  V30 2192 H 201.044 -2.9783 -0.306202 0
M  V30 2193 H 198.59 -1.4326 -0.145839 0
M  V30 2194 H 200.543 -3.2082 -2.73226 0
M  V30 2195 H 199.267 -1.97223 -2.60328 0
M  V30 2196 H 197.926 -3.49409 -1.10944 0
M  V30 2197 H 197.574 -3.52799 -3.58527 0
M  V30 2198 H 197.274 -5.12982 -2.86571 0
M  V30 2199 H 198.798 -4.822 -3.74587 0
M  V30 2200 H 200.212 -5.5106 -1.58132 0
M  V30 2201 H 198.609 -5.9314 -0.911319 0
M  V30 2202 H 199.679 -4.849 -0.00218681 0
M  V30 2203 N 201.022 0.148545 -1.56898 0
M  V30 2204 C 202.262 0.86765 -1.85071 0
M  V30 2205 C 202.626 1.78417 -0.709317 0
M  V30 2206 O 203.827 2.54261 -0.872049 0
M  V30 2207 C 202.098 1.62306 -3.1842 0
M  V30 2208 S 203.657 2.3878 -3.68143 0
M  V30 2209 H 200.475 0.290174 -0.649092 0
M  V30 2210 H 203.077 0.127755 -1.95082 0
M  V30 2211 H 201.781 0.941192 -3.99462 0
M  V30 2212 H 201.312 2.4039 -3.1141 0
M  V30 2213 H 203.327 3.63942 -3.37285 0
M  V30 2214 N 202.5 1.5196 0.417844 0
M  V30 2215 C 203.748 1.65263 1.16329 0
M  V30 2216 C 204.069 0.380634 1.91249 0
M  V30 2217 O 203.339 -0.604214 1.86349 0
M  V30 2218 H 201.919 0.60912 0.432414 0
M  V30 2219 H 204.581 1.88969 0.477162 0
M  V30 2220 H 203.677 2.4896 1.88217 0
M  V30 2221 N 203.978 -0.674533 1.42435 0
M  V30 2222 C 205.227 -1.43034 1.42212 0
M  V30 2223 C 205.54 -1.95555 0.0420788 0
M  V30 2224 O 206.746 -2.71374 -0.0827558 0
M  V30 2225 C 205.202 -2.58748 2.50155 0
M  V30 2226 C 204.81 -2.12925 3.94166 0
M  V30 2227 C 206.554 -3.36257 2.59098 0
M  V30 2228 C 204.461 -3.25723 4.93618 0
M  V30 2229 H 203.391 -0.537345 0.528939 0
M  V30 2230 H 206.042 -0.73024 1.68344 0
M  V30 2231 H 204.424 -3.31128 2.17188 0
M  V30 2232 H 205.598 -1.47697 4.36488 0
M  V30 2233 H 203.913 -1.48354 3.89076 0
M  V30 2234 H 206.51 -4.20264 3.30578 0
M  V30 2235 H 206.853 -3.82866 1.63461 0
M  V30 2236 H 207.386 -2.70947 2.9126 0
M  V30 2237 H 204.125 -2.84105 5.90732 0
M  V30 2238 H 203.645 -3.89732 4.55926 0
M  V30 2239 H 205.324 -3.91186 5.15347 0
M  V30 2240 N 205.456 -1.28612 -0.910864 0
M  V30 2241 C 206.403 -1.12786 -2.01365 0
M  V30 2242 C 207.373 -0.024201 -1.66082 0
M  V30 2243 O 208.558 -0.189667 -1.89855 0
M  V30 2244 C 205.698 -0.798743 -3.35729 0
M  V30 2245 C 204.811 -1.98173 -3.83864 0
M  V30 2246 C 203.946 -1.59298 -5.06752 0
M  V30 2247 C 202.985 -2.74245 -5.47226 0
M  V30 2248 N 202.122 -2.35842 -6.61304 0
M  V30 2249 H 206.962 -2.07142 -2.14234 0
M  V30 2250 H 204.499 -1.03093 -1.0493 0
M  V30 2251 H 206.457 -0.588662 -4.13026 0
M  V30 2252 H 205.087 0.10789 -3.2262 0
M  V30 2253 H 204.139 -2.30386 -3.02699 0
M  V30 2254 H 205.451 -2.84343 -4.09818 0
M  V30 2255 H 204.605 -1.34513 -5.916 0
M  V30 2256 H 203.344 -0.702618 -4.82612 0
M  V30 2257 H 202.349 -2.99725 -4.60918 0
M  V30 2258 H 203.574 -3.63928 -5.73353 0
M  V30 2259 H 201.52 -1.49279 -6.38789 0
M  V30 2260 H 201.437 -3.15546 -6.86998 0
M  V30 2261 H 202.705 -2.14348 -7.4945 0
M  V30 2262 N 206.934 1.1197 -1.10907 0
M  V30 2263 C 207.884 2.15946 -0.731538 0
M  V30 2264 C 208.868 1.58758 0.261699 0
M  V30 2265 O 210.06 1.76863 0.0696722 0
M  V30 2266 C 207.189 3.42877 -0.170299 0
M  V30 2267 C 206.275 4.07037 -1.19087 0
M  V30 2268 N 206.666 4.46135 -2.38322 0
M  V30 2269 C 204.964 4.33884 -1.03252 0
M  V30 2270 C 205.665 4.96331 -3.03366 0
M  V30 2271 N 204.641 4.9214 -2.30865 0
M  V30 2272 H 208.443 2.43947 -1.63912 0
M  V30 2273 H 205.957 1.28927 -0.987505 0
M  V30 2274 H 207.954 4.16732 0.118271 0
M  V30 2275 H 206.614 3.16343 0.731935 0
M  V30 2276 H 207.625 4.38345 -2.75815 0
M  V30 2277 H 204.302 4.17084 -0.186256 0
M  V30 2278 H 205.692 5.36257 -4.04818 0
M  V30 2279 N 208.412 0.89855 1.29475 0
M  V30 2280 C 209.342 0.39201 2.30186 0
M  V30 2281 C 210.323 -0.532359 1.61555 0
M  V30 2282 O 211.508 -0.443331 1.89072 0
M  V30 2283 C 208.638 -0.382353 3.45189 0
M  V30 2284 C 207.592 0.451483 4.25612 0
M  V30 2285 C 206.918 -0.450307 5.328 0
M  V30 2286 C 208.218 1.70079 4.93832 0
M  V30 2287 H 209.912 1.23362 2.72804 0
M  V30 2288 H 207.458 0.594638 1.31149 0
M  V30 2289 H 209.411 -0.747451 4.14718 0
M  V30 2290 H 208.135 -1.25774 3.01411 0
M  V30 2291 H 206.794 0.798897 3.57789 0
M  V30 2292 H 206.442 -1.32379 4.85268 0
M  V30 2293 H 206.142 0.103902 5.87508 0
M  V30 2294 H 207.666 -0.811623 6.05182 0
M  V30 2295 H 209.08 1.40549 5.55805 0
M  V30 2296 H 207.477 2.19623 5.58467 0
M  V30 2297 H 208.547 2.43744 4.19186 0
M  V30 2298 N 209.89 -1.43072 0.660911 0
M  V30 2299 C 210.84 -2.27948 -0.04847 0
M  V30 2300 C 211.824 -1.40325 -0.787246 0
M  V30 2301 O 213.016 -1.63893 -0.668446 0
M  V30 2302 C 210.145 -3.28143 -1.00881 0
M  V30 2303 C 209.231 -4.23252 -0.268108 0
M  V30 2304 N 209.622 -5.00656 0.719528 0
M  V30 2305 C 207.92 -4.43092 -0.508493 0
M  V30 2306 C 208.621 -5.70019 1.15988 0
M  V30 2307 N 207.597 -5.41364 0.492584 0
M  V30 2308 H 211.399 -2.85213 0.709279 0
M  V30 2309 H 208.913 -1.54869 0.488822 0
M  V30 2310 H 210.91 -3.87736 -1.53188 0
M  V30 2311 H 209.57 -2.7244 -1.76654 0
M  V30 2312 H 210.581 -5.06115 1.09855 0
M  V30 2313 H 207.258 -3.98449 -1.24679 0
M  V30 2314 H 208.648 -6.4214 1.97751 0
M  V30 2315 N 211.368 -0.403325 -1.52352 0
M  V30 2316 C 212.593 0.176499 -2.06648 0
M  V30 2317 C 213.018 1.38577 -1.27193 0
M  V30 2318 O 212.376 1.7879 -0.300637 0
M  V30 2319 C 212.424 0.511061 -3.5696 0
M  V30 2320 O 211.528 1.60294 -3.79973 0
M  V30 2321 H 210.869 0.0167337 -0.663789 0
M  V30 2322 H 213.399 -0.574848 -1.96359 0
M  V30 2323 H 213.409 0.771362 -4.00642 0
M  V30 2324 H 212.084 -0.37296 -4.14224 0
M  V30 2325 H 210.661 1.33526 -3.48174 0
M  V30 2326 N 212.846 1.57033 -0.133567 0
M  V30 2327 C 213.809 2.14897 0.796995 0
M  V30 2328 C 214.809 1.0874 1.18458 0
M  V30 2329 O 215.999 1.34446 1.1077 0
M  V30 2330 C 213.131 2.70112 2.07973 0
M  V30 2331 H 214.324 2.98457 0.293873 0
M  V30 2332 H 211.877 1.55871 0.115787 0
M  V30 2333 H 212.612 1.9018 2.62682 0
M  V30 2334 H 212.397 3.47764 1.81115 0
M  V30 2335 H 213.887 3.14738 2.74462 0
M  V30 2336 N 214.325 -0.140222 1.56975 0
M  V30 2337 C 215.573 -0.850005 1.83356 0
M  V30 2338 C 215.894 -1.81399 0.71551 0
M  V30 2339 O 215.164 -1.94136 -0.262294 0
M  V30 2340 H 213.744 -0.316886 0.676456 0
M  V30 2341 H 216.406 -0.132608 1.94448 0
M  V30 2342 H 215.502 -1.40814 2.78528 0
M  V30 2343 N 215.803 -1.52179 -0.40978 0
M  V30 2344 C 217.052 -1.65434 -1.15388 0
M  V30 2345 C 217.365 -0.390056 -1.91671 0
M  V30 2346 O 218.571 -0.402399 -2.68501 0
M  V30 2347 C 217.027 -2.92279 -2.10003 0
M  V30 2348 C 216.635 -4.25813 -1.39239 0
M  V30 2349 C 218.379 -3.14897 -2.84675 0
M  V30 2350 C 216.286 -5.43782 -2.32498 0
M  V30 2351 H 215.216 -0.616267 -0.434432 0
M  V30 2352 H 217.867 -1.78666 -0.418401 0
M  V30 2353 H 216.249 -2.72744 -2.871 0
M  V30 2354 H 217.423 -4.55828 -0.675099 0
M  V30 2355 H 215.738 -4.09292 -0.766097 0
M  V30 2356 H 218.335 -4.0021 -3.54593 0
M  V30 2357 H 218.678 -2.29103 -3.47588 0
M  V30 2358 H 219.211 -3.34901 -2.14677 0
M  V30 2359 H 215.95 -6.3192 -1.74233 0
M  V30 2360 H 215.47 -5.18106 -3.02201 0
M  V30 2361 H 217.149 -5.76834 -2.93038 0
M  V30 2362 N 217.281 0.66697 -1.42791 0
M  V30 2363 C 218.53 1.42278 -1.42968 0
M  V30 2364 C 218.843 1.9553 -0.0524489 0
M  V30 2365 O 220.049 2.71414 0.068363 0
M  V30 2366 C 218.505 2.57418 -2.51524 0
M  V30 2367 C 218.113 2.10832 -3.9529 0
M  V30 2368 C 219.857 3.34878 -2.60877 0
M  V30 2369 C 217.764 3.23101 -4.95338 0
M  V30 2370 H 216.694 0.534533 -0.531781 0
M  V30 2371 H 219.345 0.721302 -1.68729 0
M  V30 2372 H 217.727 3.29971 -2.18941 0
M  V30 2373 H 218.901 1.4538 -4.37266 0
M  V30 2374 H 217.216 1.46289 -3.89857 0
M  V30 2375 H 219.813 4.18505 -3.32802 0
M  V30 2376 H 220.156 3.81993 -1.6549 0
M  V30 2377 H 220.689 2.69398 -2.92693 0
M  V30 2378 H 217.428 2.80969 -5.9223 0
M  V30 2379 H 216.948 3.87309 -4.57987 0
M  V30 2380 H 218.627 3.88447 -5.17415 0
M  V30 2381 N 218.759 1.29093 0.90403 0
M  V30 2382 C 219.709 1.10482 1.99443 0
M  V30 2383 C 220.693 0.0255401 1.6088 0
M  V30 2384 O 221.885 0.24677 1.75271 0
M  V30 2385 C 219.014 0.778882 3.34348 0
M  V30 2386 C 218.1 1.89749 3.79284 0
M  V30 2387 N 218.491 3.14045 3.96497 0
M  V30 2388 C 216.789 1.78955 4.08523 0
M  V30 2389 C 217.49 3.86996 4.34292 0
M  V30 2390 N 216.466 3.14909 4.43095 0
M  V30 2391 H 220.268 2.04778 2.10815 0
M  V30 2392 H 217.782 1.20155 1.09255 0
M  V30 2393 H 219.779 0.62661 4.12164 0
M  V30 2394 H 218.439 -0.156205 3.24324 0
M  V30 2395 H 219.45 3.49548 3.82148 0
M  V30 2396 H 216.127 0.926886 4.07081 0
M  V30 2397 H 217.517 4.93941 4.55491 0
M  V30 2398 N 220.237 -1.11381 1.11499 0
M  V30 2399 C 221.653 -1.35143 0.849031 0
M  V30 2400 C 221.853 -1.94515 -0.525938 0
M  V30 2401 O 220.909 -2.1785 -1.27662 0
M  V30 2402 C 222.222 -2.28249 1.95762 0
M  V30 2403 C 223.77 -2.41812 1.98736 0
M  V30 2404 C 224.245 -3.3824 3.088 0
M  V30 2405 N 225.736 -3.45803 3.08179 0
M  V30 2406 C 226.471 -4.20358 3.89982 0
M  V30 2407 N 225.967 -4.97884 4.8175 0
M  V30 2408 N 227.76 -4.15877 3.78157 0
M  V30 2409 H 219.911 -0.712062 2.00109 0
M  V30 2410 H 222.174 -0.376025 0.870235 0
M  V30 2411 H 221.88 -1.91817 2.94787 0
M  V30 2412 H 221.754 -3.28473 1.85433 0
M  V30 2413 H 224.141 -2.77518 1.00338 0
M  V30 2414 H 224.222 -1.41437 2.13141 0
M  V30 2415 H 223.866 -3.03261 4.07425 0
M  V30 2416 H 223.796 -4.38471 2.91635 0
M  V30 2417 H 226.287 -2.90506 2.41691 0
M  V30 2418 H 226.6 -5.52142 5.40702 0
M  V30 2419 H 224.945 -4.97043 4.85771 0
M  V30 2420 H 228.136 -3.544 3.05808 0
M  V30 2421 H 228.309 -4.73723 4.42143 0
M  V30 2422 N 221.715 -0.905404 -1.28997 0
M  V30 2423 C 222.992 -0.453513 -1.9027 0
M  V30 2424 C 223.372 1.06721 -1.82137 0
M  V30 2425 O 222.72 1.91159 -1.25182 0
M  V30 2426 C 222.93 -0.974494 -3.35119 0
M  V30 2427 C 224.278 -1.0216 -4.12127 0
M  V30 2428 O 225.302 -0.922557 -3.44046 0
M  V30 2429 O 224.161 -1.17121 -5.33802 0
M  V30 2430 H 221.255 -0.142347 -0.814657 0
M  V30 2431 H 223.801 -0.995642 -1.37423 0
M  V30 2432 H 222.573 -2.01848 -3.35221 0
M  V30 2433 H 222.196 -0.412706 -3.95452 0
M  V30 2434 N 223.193 1.4272 -0.668489 0
M  V30 2435 C 224.123 2.335 -0.000100175 0
M  V30 2436 C 225.104 1.50328 0.795964 0
M  V30 2437 O 226.289 1.78949 0.754385 0
M  V30 2438 C 223.419 3.33874 0.956302 0
M  V30 2439 C 222.373 4.27152 0.269278 0
M  V30 2440 C 221.699 5.17684 1.33818 0
M  V30 2441 C 222.999 5.15373 -0.847805 0
M  V30 2442 H 224.693 2.89639 -0.758244 0
M  V30 2443 H 222.239 1.39269 -0.366079 0
M  V30 2444 H 224.192 3.9629 1.43292 0
M  V30 2445 H 222.916 2.76025 1.74579 0
M  V30 2446 H 221.575 3.66123 -0.187042 0
M  V30 2447 H 221.223 4.56165 2.1195 0
M  V30 2448 H 220.923 5.80918 0.883659 0
M  V30 2449 H 222.447 5.82974 1.81586 0
M  V30 2450 H 223.861 5.7151 -0.452681 0
M  V30 2451 H 222.258 5.87407 -1.22773 0
M  V30 2452 H 223.328 4.5415 -1.69929 0
M  V30 2453 N 224.671 0.411399 1.52136 0
M  V30 2454 C 225.618 -0.412975 2.27075 0
M  V30 2455 C 226.588 -1.03912 1.29582 0
M  V30 2456 O 227.773 -1.06296 1.58448 0
M  V30 2457 C 224.913 -1.52247 3.09701 0
M  V30 2458 C 224.026 -0.917021 4.22155 0
M  V30 2459 C 223.161 -1.9994 4.92135 0
M  V30 2460 C 222.2 -1.37101 5.96548 0
M  V30 2461 N 221.337 -2.39364 6.60038 0
M  V30 2462 H 226.177 0.232499 2.97092 0
M  V30 2463 H 223.714 0.126496 1.46555 0
M  V30 2464 H 225.672 -2.17674 3.55913 0
M  V30 2465 H 224.302 -2.13794 2.41851 0
M  V30 2466 H 223.354 -0.151742 3.80097 0
M  V30 2467 H 224.666 -0.418006 4.97045 0
M  V30 2468 H 223.82 -2.73088 5.41763 0
M  V30 2469 H 222.559 -2.53208 4.16818 0
M  V30 2470 H 221.564 -0.624873 5.46237 0
M  V30 2471 H 222.789 -0.845998 6.7381 0
M  V30 2472 H 220.735 -2.91759 5.87548 0
M  V30 2473 H 220.652 -1.9428 7.3061 0
M  V30 2474 H 221.92 -3.12074 7.14304 0
M  V30 2475 N 226.149 -1.5696 0.141893 0
M  V30 2476 C 227.56 -1.82797 -0.379776 0
M  V30 2477 C 227.911 -1.06033 -1.6508 0
M  V30 2478 O 227.036 -0.304011 -2.14254 0
M  V30 2479 C 227.631 -3.31578 -0.695802 0
M  V30 2480 C 226.19 -3.58014 -1.16201 0
M  V30 2481 C 225.337 -2.76699 -0.182455 0
M  V30 2482 H 228.288 -1.54406 0.366675 0
M  V30 2483 H 228.309 -3.47454 -1.55099 0
M  V30 2484 H 227.821 -3.87421 0.229449 0
M  V30 2485 H 225.922 -3.07553 -2.10338 0
M  V30 2486 H 226.035 -4.66501 -1.09151 0
M  V30 2487 H 224.399 -2.45618 -0.674072 0
M  V30 2488 H 225.182 -3.35311 0.736297 0
M  V30 2489 N 227.627 0.131896 -1.57047 0
M  V30 2490 C 228.852 0.860418 -1.8871 0
M  V30 2491 C 229.277 1.73251 -0.73251 0
M  V30 2492 O 228.635 1.785 0.317429 0
M  V30 2493 C 228.683 1.68047 -3.19049 0
M  V30 2494 O 227.787 2.7862 -3.04047 0
M  V30 2495 H 227.128 0.238743 -0.619595 0
M  V30 2496 H 229.658 0.118169 -2.04258 0
M  V30 2497 H 229.668 2.07238 -3.51449 0
M  V30 2498 H 228.343 1.04018 -4.02682 0
M  V30 2499 H 226.92 2.42726 -2.83088 0
M  V30 2500 N 229.106 1.52395 0.401703 0
M  V30 2501 C 230.054 1.7689 1.51039 0
M  V30 2502 C 231.048 0.636298 1.56996 0
M  V30 2503 O 232.254 0.818507 1.60314 0
M  V30 2504 H 228.629 0.559502 0.502456 0
M  V30 2505 H 230.6 2.69757 1.27568 0
M  V30 2506 C 229.349 1.94331 2.88324 0
M  V30 2507 H 228.672 2.80905 2.84486 0
M  V30 2508 H 230.112 2.15466 3.65172 0
M  V30 2509 C 228.571 0.712396 3.29282 0
M  V30 2510 O 229.101 -0.116218 4.01532 0
M  V30 2511 N 227.307 0.546154 2.85422 0
M  V30 2512 H 226.854 1.22156 2.26794 0
M  V30 2513 H 226.812 -0.276113 3.13185 0
M  V30 2514 N 230.584 -0.659388 1.43143 0
M  V30 2515 C 231.833 -1.41518 1.43721 0
M  V30 2516 C 232.146 -1.95499 0.0628176 0
M  V30 2517 O 233.352 -2.71446 -0.0539683 0
M  V30 2518 C 231.808 -2.5608 2.52885 0
M  V30 2519 C 231.416 -2.08733 3.96402 0
M  V30 2520 C 233.16 -3.3349 2.62649 0
M  V30 2521 C 231.067 -3.20469 4.97045 0
M  V30 2522 H 229.997 -0.531705 0.534608 0
M  V30 2523 H 232.648 -0.712343 1.69109 0
M  V30 2524 H 231.03 -3.28805 2.20688 0
M  V30 2525 H 232.204 -1.43059 4.3803 0
M  V30 2526 H 230.519 -1.44219 3.90627 0
M  V30 2527 H 233.116 -4.16734 3.35017 0
M  V30 2528 H 233.459 -3.8111 1.67513 0
M  V30 2529 H 233.992 -2.67842 2.94118 0
M  V30 2530 H 230.731 -2.77824 5.93712 0
M  V30 2531 H 230.251 -3.84874 4.60034 0
M  V30 2532 H 231.93 -3.85698 5.19467 0
M  V30 2533 N 232.062 -1.29571 -0.897171 0
M  V30 2534 C 233.308 -1.17863 -1.65034 0
M  V30 2535 C 233.641 0.268729 -1.92332 0
M  V30 2536 O 232.916 1.19378 -1.53555 0
M  V30 2537 C 233.199 -1.995 -2.99786 0
M  V30 2538 C 233.052 -3.5239 -2.79538 0
M  V30 2539 C 234.371 -1.82335 -4.00552 0
M  V30 2540 H 231.49 -0.429528 -0.598895 0
M  V30 2541 H 234.132 -1.59072 -1.03905 0
M  V30 2542 H 232.282 -1.64485 -3.51962 0
M  V30 2543 H 233.954 -3.97401 -2.34244 0
M  V30 2544 H 232.197 -3.77187 -2.14273 0
M  V30 2545 H 232.868 -4.04787 -3.75302 0
M  V30 2546 H 235.344 -2.12924 -3.57495 0
M  V30 2547 H 234.22 -2.41801 -4.92771 0
M  V30 2548 H 234.481 -0.779209 -4.35179 0
M  V30 2549 N 233.54 1.10788 -1.12088 0
M  V30 2550 C 234.786 1.82942 -0.875226 0
M  V30 2551 C 235.119 1.84779 0.597538 0
M  V30 2552 O 234.394 1.30578 1.44152 0
M  V30 2553 C 234.677 3.29789 -1.44606 0
M  V30 2554 C 234.53 3.36307 -2.98693 0
M  V30 2555 C 235.849 4.26064 -1.10261 0
M  V30 2556 H 232.968 0.664195 -0.319397 0
M  V30 2557 H 235.61 1.29867 -1.38689 0
M  V30 2558 H 233.76 3.75118 -1.01089 0
M  V30 2559 H 235.432 2.99487 -3.50864 0
M  V30 2560 H 233.675 2.76318 -3.34411 0
M  V30 2561 H 234.346 4.39694 -3.33726 0
M  V30 2562 H 236.822 3.88951 -1.4784 0
M  V30 2563 H 235.698 5.27183 -1.52869 0
M  V30 2564 H 235.959 4.42098 -0.0142953 0
M  V30 2565 N 235.018 0.912232 1.28515 0
M  V30 2566 C 235.965 0.397954 2.27343 0
M  V30 2567 C 236.935 -0.526766 1.57526 0
M  V30 2568 O 238.12 -0.449292 1.85435 0
M  V30 2569 C 235.26 -0.357263 3.43246 0
M  V30 2570 C 234.373 0.599788 4.27816 0
M  V30 2571 C 233.508 -0.173725 5.30916 0
M  V30 2572 C 232.547 0.777039 6.07148 0
M  V30 2573 N 231.684 0.0371398 7.0209 0
M  V30 2574 H 236.524 1.24577 2.70711 0
M  V30 2575 H 234.061 0.625612 1.33133 0
M  V30 2576 H 236.019 -0.8113 4.09236 0
M  V30 2577 H 234.649 -1.16943 3.00872 0
M  V30 2578 H 233.701 1.17235 3.61884 0
M  V30 2579 H 235.013 1.32704 4.80823 0
M  V30 2580 H 234.167 -0.688394 6.02782 0
M  V30 2581 H 232.906 -0.934041 4.78672 0
M  V30 2582 H 231.911 1.3031 5.34134 0
M  V30 2583 H 233.136 1.53689 6.61481 0
M  V30 2584 H 231.082 -0.705213 6.52198 0
M  V30 2585 H 230.999 0.704249 7.52713 0
M  V30 2586 H 232.267 -0.457383 7.78157 0
M  V30 2587 N 236.496 -1.42363 0.676048 0
M  V30 2588 C 237.721 -2.06377 0.205705 0
M  V30 2589 C 238.146 -1.50463 -1.12883 0
M  V30 2590 O 237.504 -0.623619 -1.70237 0
M  V30 2591 C 237.552 -3.60277 0.152655 0
M  V30 2592 O 236.656 -4.02935 -0.87845 0
M  V30 2593 H 235.997 -0.655588 0.105359 0
M  V30 2594 H 238.527 -1.82475 0.925412 0
M  V30 2595 H 238.537 -4.07993 -0.0230675 0
M  V30 2596 H 237.212 -4.00346 1.12675 0
M  V30 2597 H 235.789 -3.66764 -0.673668 0
M  V30 2598 N 237.974 -0.419461 -1.51915 0
M  V30 2599 C 239.251 0.211999 -1.94448 0
M  V30 2600 C 239.631 1.61703 -1.35703 0
M  V30 2601 O 238.979 2.22102 -0.536931 0
M  V30 2602 C 239.189 0.207872 -3.4838 0
M  V30 2603 C 240.537 0.422192 -4.22496 0
M  V30 2604 O 241.561 0.286778 -3.55044 0
M  V30 2605 O 240.42 0.690009 -5.42126 0
M  V30 2606 H 237.514 0.139586 -0.815135 0
M  V30 2607 H 240.06 -0.476151 -1.62883 0
M  V30 2608 H 238.832 -0.775102 -3.83546 0
M  V30 2609 H 238.455 0.939688 -3.86336 0
M  V30 2610 N 239.452 1.56882 -0.150215 0
M  V30 2611 C 240.692 1.98119 0.502804 0
M  V30 2612 C 241.056 1.03327 1.61826 0
M  V30 2613 O 242.257 1.33621 2.33236 0
M  V30 2614 C 240.528 3.43329 0.992988 0
M  V30 2615 S 242.087 4.0659 1.65015 0
M  V30 2616 H 238.905 0.692189 0.162467 0
M  V30 2617 H 241.507 1.93988 -0.242689 0
M  V30 2618 H 240.211 4.10046 0.170436 0
M  V30 2619 H 239.742 3.5118 1.77303 0
M  V30 2620 H 241.757 3.99906 2.93752 0
M  V30 2621 N 240.93 -0.123565 1.57115 0
M  V30 2622 C 242.158 -0.846461 1.88793 0
M  V30 2623 C 242.573 -1.73652 0.740976 0
M  V30 2624 O 241.93 -1.80207 -0.288393 0
M  V30 2625 C 241.981 -1.6837 3.19897 0
M  V30 2626 O 241.702 -0.829477 4.30176 0
M  V30 2627 C 243.203 -2.51214 3.65248 0
M  V30 2628 H 240.423 -0.243573 0.625231 0
M  V30 2629 H 242.967 -0.109324 2.04208 0
M  V30 2630 H 241.122 -2.37364 3.06165 0
M  V30 2631 H 241.536 -1.40651 5.0529 0
M  V30 2632 H 243.01 -3.05497 4.59756 0
M  V30 2633 H 243.487 -3.28359 2.9168 0
M  V30 2634 H 244.093 -1.8747 3.81752 0
M  V30 2635 N 242.408 -1.52605 -0.393616 0
M  V30 2636 C 243.338 -1.80022 -1.48709 0
M  V30 2637 C 244.319 -0.651995 -1.57108 0
M  V30 2638 O 245.504 -0.89913 -1.72132 0
M  V30 2639 C 242.634 -1.96492 -2.86371 0
M  V30 2640 C 241.588 -3.12161 -2.92813 0
M  V30 2641 C 240.914 -3.13877 -4.3288 0
M  V30 2642 C 242.214 -4.51322 -2.6288 0
M  V30 2643 H 243.908 -2.71589 -1.26015 0
M  V30 2644 H 241.454 -1.30684 -0.604778 0
M  V30 2645 H 243.407 -2.14255 -3.62867 0
M  V30 2646 H 242.131 -1.01611 -3.10391 0
M  V30 2647 H 240.79 -2.94173 -2.18764 0
M  V30 2648 H 240.438 -2.16687 -4.53933 0
M  V30 2649 H 240.138 -3.91576 -4.38112 0
M  V30 2650 H 241.662 -3.33789 -5.1129 0
M  V30 2651 H 243.076 -4.69435 -3.29096 0
M  V30 2652 H 241.473 -5.31053 -2.79468 0
M  V30 2653 H 242.543 -4.58353 -1.58242 0
M  V30 2654 N 243.887 0.651787 -1.4349 0
M  V30 2655 C 244.834 1.76462 -1.4876 0
M  V30 2656 C 245.804 1.62641 -0.337189 0
M  V30 2657 O 246.989 1.82864 -0.544544 0
M  V30 2658 C 244.129 3.14623 -1.41796 0
M  V30 2659 C 243.242 3.39568 -2.67053 0
M  V30 2660 C 242.377 4.67585 -2.52068 0
M  V30 2661 C 241.416 4.85639 -3.72587 0
M  V30 2662 N 240.553 6.04915 -3.56402 0
M  V30 2663 H 245.393 1.71293 -2.43849 0
M  V30 2664 H 242.93 0.835889 -1.21043 0
M  V30 2665 H 244.888 3.94496 -1.35753 0
M  V30 2666 H 243.518 3.18859 -0.50288 0
M  V30 2667 H 242.57 2.53783 -2.8337 0
M  V30 2668 H 243.882 3.48795 -3.56572 0
M  V30 2669 H 243.036 5.55586 -2.4374 0
M  V30 2670 H 241.775 4.60681 -1.60075 0
M  V30 2671 H 240.78 3.96073 -3.81321 0
M  V30 2672 H 242.005 4.94372 -4.65589 0
M  V30 2673 H 239.951 5.9914 -2.67146 0
M  V30 2674 H 239.868 6.15106 -4.39524 0
M  V30 2675 H 241.136 6.95533 -3.51929 0
M  V30 2676 N 245.365 1.30045 0.890287 0
M  V30 2677 C 246.614 1.17929 1.63633 0
M  V30 2678 C 246.927 -0.266204 1.9378 0
M  V30 2679 O 248.133 -0.508804 2.6669 0
M  V30 2680 C 246.589 2.06317 2.94892 0
M  V30 2681 C 246.197 3.55745 2.72305 0
M  V30 2682 C 247.941 2.0295 3.72843 0
M  V30 2683 C 245.848 4.36205 3.99348 0
M  V30 2684 H 244.778 0.437782 0.613892 0
M  V30 2685 H 247.429 1.54754 0.986075 0
M  V30 2686 H 245.811 1.6237 3.61182 0
M  V30 2687 H 246.985 4.07805 2.1455 0
M  V30 2688 H 245.3 3.6088 2.07737 0
M  V30 2689 H 247.897 2.60319 4.67053 0
M  V30 2690 H 248.24 1.0117 4.0382 0
M  V30 2691 H 248.773 2.4499 3.13408 0
M  V30 2692 H 245.512 5.38659 3.73533 0
M  V30 2693 H 245.032 3.8891 4.56628 0
M  V30 2694 H 246.711 4.47362 4.67415 0
M  V30 2695 N 246.843 -1.10192 1.12674 0
M  V30 2696 C 247.773 -2.18652 0.819362 0
M  V30 2697 C 248.754 -1.68698 -0.217915 0
M  V30 2698 O 249.939 -1.94041 -0.0785581 0
M  V30 2699 C 247.069 -3.46202 0.27594 0
M  V30 2700 C 246.023 -4.09444 1.24656 0
M  V30 2701 C 245.349 -5.31725 0.563258 0
M  V30 2702 C 246.649 -4.52863 2.60217 0
M  V30 2703 H 248.343 -2.44622 1.72628 0
M  V30 2704 H 245.889 -1.17571 0.831451 0
M  V30 2705 H 247.842 -4.21372 0.0486149 0
M  V30 2706 H 246.566 -3.1973 -0.666331 0
M  V30 2707 H 245.225 -3.36284 1.45974 0
M  V30 2708 H 244.873 -5.0153 -0.384235 0
M  V30 2709 H 244.573 -5.74991 1.21075 0
M  V30 2710 H 246.097 -6.09624 0.34503 0
M  V30 2711 H 247.511 -5.19294 2.42913 0
M  V30 2712 H 245.908 -5.06986 3.21068 0
M  V30 2713 H 246.978 -3.65656 3.18471 0
M  V30 2714 N 248.321 -0.919034 -1.28029 0
M  V30 2715 C 249.598 -0.473668 -1.89778 0
M  V30 2716 C 249.978 1.04783 -1.83259 0
M  V30 2717 O 249.326 1.8982 -1.27202 0
M  V30 2718 C 249.536 -1.00998 -3.34066 0
M  V30 2719 C 250.884 -1.06525 -4.1102 0
M  V30 2720 O 251.908 -0.958996 -3.43048 0
M  V30 2721 O 250.767 -1.22776 -5.3253 0
M  V30 2722 H 247.861 -0.15098 -0.813101 0
M  V30 2723 H 250.407 -1.01016 -1.36359 0
M  V30 2724 H 249.179 -2.05392 -3.33061 0
M  V30 2725 H 248.802 -0.454626 -3.94992 0
M  V30 2726 N 249.799 1.42003 -0.683588 0
M  V30 2727 C 251.046 2.01413 -0.209514 0
M  V30 2728 C 251.374 1.54088 1.1869 0
M  V30 2729 O 250.629 0.737591 1.81268 0
M  V30 2730 C 250.928 3.56827 -0.202357 0
M  V30 2731 C 250.594 4.23617 -1.54464 0
M  V30 2732 C 249.256 4.41577 -1.91215 0
M  V30 2733 C 251.608 4.61178 -2.42826 0
M  V30 2734 C 248.936 4.9437 -3.15935 0
M  V30 2735 C 251.288 5.15355 -3.66867 0
M  V30 2736 C 249.952 5.31528 -4.03776 0
M  V30 2737 H 249.222 0.737023 -0.0766668 0
M  V30 2738 H 251.869 1.70067 -0.880312 0
M  V30 2739 H 250.174 3.87892 0.551969 0
M  V30 2740 H 251.871 4.00588 0.181793 0
M  V30 2741 H 248.461 4.10004 -1.24877 0
M  V30 2742 H 252.645 4.46968 -2.15717 0
M  V30 2743 H 247.901 5.05076 -3.44541 0
M  V30 2744 H 252.075 5.43402 -4.35531 0
M  V30 2745 H 249.702 5.72199 -5.00492 0
M  V30 2746 N 251.277 0.427512 1.51691 0
M  V30 2747 C 252.525 -0.141948 2.01601 0
M  V30 2748 C 252.846 -1.44067 1.31414 0
M  V30 2749 O 252.116 -1.90763 0.445658 0
M  V30 2750 H 250.696 -0.0554468 0.744939 0
M  V30 2751 H 253.358 0.567968 1.86441 0
M  V30 2752 H 252.454 -0.324913 3.10404 0
M  V30 2753 N 252.755 -1.56801 0.158532 0
M  V30 2754 C 253.685 -2.20347 -0.772609 0
M  V30 2755 C 254.666 -1.15518 -1.24859 0
M  V30 2756 O 255.851 -1.43902 -1.30406 0
M  V30 2757 C 252.981 -2.83417 -2.00729 0
M  V30 2758 C 251.935 -3.94174 -1.66765 0
M  V30 2759 C 251.261 -4.44233 -2.97592 0
M  V30 2760 C 252.561 -5.14392 -0.905447 0
M  V30 2761 H 254.255 -2.98413 -0.242959 0
M  V30 2762 H 251.801 -1.43537 -0.115419 0
M  V30 2763 H 253.754 -3.26543 -2.6636 0
M  V30 2764 H 252.478 -2.02701 -2.56086 0
M  V30 2765 H 251.137 -3.51684 -1.03508 0
M  V30 2766 H 250.785 -3.60325 -3.50963 0
M  V30 2767 H 250.485 -5.18945 -2.75626 0
M  V30 2768 H 252.009 -4.90037 -3.64274 0
M  V30 2769 H 253.423 -5.5429 -1.46408 0
M  V30 2770 H 251.82 -5.9494 -0.7853 0
M  V30 2771 H 252.89 -4.84795 0.100668 0
M  V30 2772 N 254.233 0.115231 -1.57178 0
M  V30 2773 C 255.196 1.12526 -1.99676 0
M  V30 2774 C 256.196 1.34095 -0.88742 0
M  V30 2775 O 257.386 1.30548 -1.15337 0
M  V30 2776 C 254.518 2.4789 -2.34015 0
M  V30 2777 H 255.711 0.759912 -2.90113 0
M  V30 2778 H 253.264 0.359648 -1.52106 0
M  V30 2779 H 253.999 2.89339 -1.4647 0
M  V30 2780 H 253.784 2.33588 -3.14927 0
M  V30 2781 H 255.274 3.20575 -2.67622 0
M  V30 2782 N 255.711 1.52812 0.385517 0
M  V30 2783 C 257.127 1.4214 0.725829 0
M  V30 2784 C 257.327 0.544589 1.94001 0
M  V30 2785 O 256.383 0.0193693 2.52493 0
M  V30 2786 C 257.696 2.85042 0.957668 0
M  V30 2787 C 259.244 2.94543 1.05892 0
M  V30 2788 C 259.719 4.38464 1.32337 0
M  V30 2789 N 261.21 4.41804 1.39151 0
M  V30 2790 C 261.945 5.5025 1.61285 0
M  V30 2791 N 261.441 6.68775 1.80866 0
M  V30 2792 N 263.234 5.37798 1.63492 0
M  V30 2793 H 255.385 2.08338 -0.413383 0
M  V30 2794 H 257.648 0.940016 -0.122775 0
M  V30 2795 H 257.354 3.51431 0.137568 0
M  V30 2796 H 257.228 3.27505 1.87137 0
M  V30 2797 H 259.615 2.28321 1.86959 0
M  V30 2798 H 259.696 2.55504 0.123057 0
M  V30 2799 H 259.34 5.05254 0.517793 0
M  V30 2800 H 259.27 4.75059 2.27214 0
M  V30 2801 H 261.761 3.56377 1.25713 0
M  V30 2802 H 262.074 7.47197 1.97271 0
M  V30 2803 H 260.419 6.71797 1.78083 0
M  V30 2804 H 263.61 4.44171 1.47749 0
M  V30 2805 H 263.783 6.22382 1.80402 0
M  V30 2806 N 257.189 -0.644168 1.43834 0
M  V30 2807 C 258.417 -1.43147 1.49387 0
M  V30 2808 C 258.832 -1.88452 0.114583 0
M  V30 2809 O 258.189 -1.60047 -0.876989 0
M  V30 2810 C 258.24 -2.66046 2.44748 0
M  V30 2811 O 257.961 -2.22633 3.77314 0
M  V30 2812 C 259.462 -3.59311 2.59635 0
M  V30 2813 H 256.682 -0.439447 0.507077 0
M  V30 2814 H 259.226 -0.78895 1.88669 0
M  V30 2815 H 257.381 -3.26418 2.08638 0
M  V30 2816 H 257.795 -3.02216 4.28679 0
M  V30 2817 H 259.269 -4.42187 3.30416 0
M  V30 2818 H 259.746 -4.07259 1.64427 0
M  V30 2819 H 260.352 -3.04816 2.96593 0
M  V30 2820 N 258.668 -1.30515 -0.883378 0
M  V30 2821 C 259.631 -1.1701 -1.97082 0
M  V30 2822 C 260.631 -0.10089 -1.60483 0
M  V30 2823 O 261.821 -0.349127 -1.70666 0
M  V30 2824 C 258.953 -0.793045 -3.31547 0
M  V30 2825 H 260.146 -2.13622 -2.10489 0
M  V30 2826 H 257.699 -1.13935 -1.06998 0
M  V30 2827 H 258.434 0.172499 -3.23841 0
M  V30 2828 H 258.219 -1.56576 -3.5948 0
M  V30 2829 H 259.709 -0.722073 -4.1131 0
M  V30 2830 N 260.146 1.09593 -1.13257 0
M  V30 2831 C 261.386 1.83349 -0.903472 0
M  V30 2832 C 261.75 1.83641 0.560351 0
M  V30 2833 O 262.951 2.53037 0.906947 0
M  V30 2834 C 261.222 3.25629 -1.47311 0
M  V30 2835 S 262.781 4.16408 -1.38382 0
M  V30 2836 H 259.599 0.632014 -0.325699 0
M  V30 2837 H 262.201 1.31817 -1.44376 0
M  V30 2838 H 260.905 3.22991 -2.53189 0
M  V30 2839 H 260.436 3.82233 -0.930689 0
M  V30 2840 H 262.451 4.94884 -0.361113 0
M  V30 2841 N 261.624 0.925811 1.2754 0
M  V30 2842 C 262.852 0.581509 1.9856 0
M  V30 2843 C 263.267 -0.840041 1.69082 0
M  V30 2844 O 262.624 -1.55805 0.950312 0
M  V30 2845 C 262.675 0.795589 3.52637 0
M  V30 2846 O 262.396 2.16121 3.81082 0
M  V30 2847 C 263.897 0.459744 4.4091 0
M  V30 2848 H 261.117 0.220538 0.633722 0
M  V30 2849 H 263.661 1.24232 1.6244 0
M  V30 2850 H 261.816 0.18161 3.86974 0
M  V30 2851 H 262.23 2.2098 4.75676 0
M  V30 2852 H 263.704 0.660244 5.48037 0
M  V30 2853 H 264.181 -0.604625 4.35018 0
M  V30 2854 H 264.787 1.05178 4.12089 0
M  V30 2855 N 263.102 -1.41638 0.69111 0
M  V30 2856 C 264.05 -2.32597 0.0115199 0
M  V30 2857 C 265.044 -1.5072 -0.773296 0
M  V30 2858 O 266.25 -1.66685 -0.67942 0
M  V30 2859 H 262.625 -0.751849 -0.0150746 0
M  V30 2860 H 264.596 -2.87593 0.795791 0
M  V30 2861 C 263.345 -3.35467 -0.914172 0
M  V30 2862 H 262.668 -3.9852 -0.319687 0
M  V30 2863 H 264.108 -4.01662 -1.35808 0
M  V30 2864 C 262.567 -2.69004 -2.02826 0
M  V30 2865 O 263.097 -2.53444 -3.11655 0
M  V30 2866 N 261.303 -2.2777 -1.80469 0
M  V30 2867 H 260.85 -2.40626 -0.919615 0
M  V30 2868 H 260.808 -1.83635 -2.55197 0
M  V30 2869 N 264.58 -0.43555 -1.51462 0
M  V30 2870 C 265.827 0.131514 -2.02072 0
M  V30 2871 C 266.155 1.42868 -1.31981 0
M  V30 2872 O 265.41 1.91076 -0.422883 0
M  V30 2873 C 265.709 0.39942 -3.55161 0
M  V30 2874 C 265.375 -0.81172 -4.43533 0
M  V30 2875 C 264.037 -1.14387 -4.67407 0
M  V30 2876 C 266.389 -1.61976 -4.95392 0
M  V30 2877 C 263.717 -2.28477 -5.40384 0
M  V30 2878 C 266.069 -2.75164 -5.6962 0
M  V30 2879 C 264.733 -3.08835 -5.91758 0
M  V30 2880 H 264.003 0.0481244 -0.739436 0
M  V30 2881 H 266.65 -0.58238 -1.8243 0
M  V30 2882 H 264.955 1.19519 -3.73125 0
M  V30 2883 H 266.652 0.85157 -3.91854 0
M  V30 2884 H 263.242 -0.542898 -4.25148 0
M  V30 2885 H 267.426 -1.37637 -4.76833 0
M  V30 2886 H 262.682 -2.5488 -5.55739 0
M  V30 2887 H 266.856 -3.38147 -6.08793 0
M  V30 2888 H 264.483 -3.97353 -6.48086 0
M  V30 2889 N 266.058 1.56714 -0.166846 0
M  V30 2890 C 266.991 2.13577 0.80375 0
M  V30 2891 C 267.969 1.06464 1.22899 0
M  V30 2892 O 269.153 1.34413 1.32157 0
M  V30 2893 C 266.28 2.67168 2.0818 0
M  V30 2894 C 265.326 3.86612 1.80093 0
M  V30 2895 S 266.159 5.26565 0.97416 0
M  V30 2896 C 267.315 5.83558 2.26297 0
M  V30 2897 H 267.548 2.9557 0.320267 0
M  V30 2898 H 265.081 1.54326 0.0477555 0
M  V30 2899 H 267.039 2.98692 2.8159 0
M  V30 2900 H 265.7 1.85269 2.53642 0
M  V30 2901 H 264.893 4.22422 2.7491 0
M  V30 2902 H 264.495 3.55951 1.14781 0
M  V30 2903 H 266.787 5.962 3.21795 0
M  V30 2904 H 267.73 6.80731 1.94962 0
M  V30 2905 H 268.138 5.11944 2.37853 0
M  V30 2906 N 267.536 -0.106894 1.57237 0
M  V30 2907 C 268.469 -1.16125 1.96444 0
M  V30 2908 C 269.447 -1.3947 0.835871 0
M  V30 2909 O 270.631 -1.53425 1.09513 0
M  V30 2910 C 267.758 -2.51277 2.27107 0
M  V30 2911 C 266.804 -2.44285 3.4961 0
M  V30 2912 S 267.637 -1.87077 5.01759 0
M  V30 2913 C 268.793 -3.23877 5.35588 0
M  V30 2914 H 269.026 -0.826971 2.85567 0
M  V30 2915 H 266.559 -0.314124 1.51171 0
M  V30 2916 H 268.517 -3.29035 2.45451 0
M  V30 2917 H 267.178 -2.81879 1.38576 0
M  V30 2918 H 266.371 -3.4387 3.68469 0
M  V30 2919 H 265.973 -1.74652 3.30715 0
M  V30 2920 H 268.265 -4.20122 5.31511 0
M  V30 2921 H 269.208 -3.09833 6.36717 0
M  V30 2922 H 269.616 -3.22864 4.63054 0
M  V30 2923 N 269.014 -1.53014 -0.377408 0
M  V30 2924 C 270.242 -1.72515 -1.14219 0
M  V30 2925 C 270.657 -0.448735 -1.8339 0
M  V30 2926 O 270.014 0.577592 -1.73119 0
M  V30 2927 C 270.065 -2.8826 -2.18148 0
M  V30 2928 O 269.786 -4.10962 -1.51795 0
M  V30 2929 C 271.287 -3.19536 -3.07264 0
M  V30 2930 H 268.507 -0.577301 -0.342001 0
M  V30 2931 H 271.051 -1.99712 -0.439935 0
M  V30 2932 H 269.206 -2.63492 -2.83991 0
M  V30 2933 H 269.62 -4.75693 -2.20945 0
M  V30 2934 H 271.094 -4.03959 -3.76193 0
M  V30 2935 H 271.571 -2.34403 -3.71419 0
M  V30 2936 H 272.177 -3.46186 -2.47053 0
M  V30 2937 N 270.492 0.636531 -1.44174 0
M  V30 2938 C 271.903 1.21806 -1.41493 0
M  V30 2939 C 272.254 1.95785 -0.1275 0
M  V30 2940 O 271.379 2.02147 0.772376 0
M  V30 2941 C 271.974 2.21551 -2.56321 0
M  V30 2942 C 270.533 2.75143 -2.56853 0
M  V30 2943 C 269.68 1.50052 -2.33195 0
M  V30 2944 H 272.631 0.427531 -1.52833 0
M  V30 2945 H 272.652 3.0405 -2.28765 0
M  V30 2946 H 272.164 1.67679 -3.50008 0
M  V30 2947 H 270.265 3.33033 -1.67093 0
M  V30 2948 H 270.378 3.2155 -3.55165 0
M  V30 2949 H 268.742 1.77993 -1.82183 0
M  V30 2950 H 269.525 0.980903 -3.28988 0
M  V30 2951 N 271.97 1.30982 0.876444 0
M  V30 2952 C 273.2 1.23063 1.65949 0
M  V30 2953 C 273.608 -0.207537 1.88058 0
M  V30 2954 O 272.951 -1.14781 1.43426 0
M  V30 2955 C 273.013 1.89768 3.05333 0
M  V30 2956 C 272.677 3.39106 3.0636 0
M  V30 2957 C 273.674 4.3496 2.84791 0
M  V30 2958 C 271.359 3.80693 3.27686 0
M  V30 2959 C 273.353 5.70375 2.84519 0
M  V30 2960 C 271.04 5.16223 3.27043 0
M  V30 2961 C 272.038 6.10875 3.05485 0
M  V30 2962 O 271.726 7.43928 3.04674 0
M  V30 2963 H 271.458 0.426685 0.524324 0
M  V30 2964 H 274.012 1.7329 1.10271 0
M  V30 2965 H 272.242 1.34082 3.6271 0
M  V30 2966 H 273.931 1.75853 3.65829 0
M  V30 2967 H 274.697 4.0416 2.68103 0
M  V30 2968 H 270.576 3.07457 3.43499 0
M  V30 2969 H 274.12 6.44228 2.67611 0
M  V30 2970 H 270.017 5.4666 3.43269 0
M  V30 2971 H 270.785 7.53022 3.2078 0
M  V30 2972 N 273.449 -1.08991 1.13837 0
M  V30 2973 C 274.695 -1.81526 0.90422 0
M  V30 2974 C 275.028 -1.85706 -0.568066 0
M  V30 2975 O 274.303 -1.32855 -1.42056 0
M  V30 2976 C 274.586 -3.27447 1.49835 0
M  V30 2977 C 274.439 -3.31512 3.04006 0
M  V30 2978 C 275.758 -4.24256 1.17025 0
M  V30 2979 H 272.877 -0.659029 0.329923 0
M  V30 2980 H 275.519 -1.27644 1.40737 0
M  V30 2981 H 273.669 -3.73462 1.07044 0
M  V30 2982 H 275.341 -2.93867 3.55584 0
M  V30 2983 H 273.584 -2.70963 3.38765 0
M  V30 2984 H 274.255 -4.34329 3.40679 0
M  V30 2985 H 276.731 -3.86549 1.54009 0
M  V30 2986 H 275.607 -5.24684 1.61237 0
M  V30 2987 H 275.868 -4.42019 0.0846274 0
M  V30 2988 N 274.927 -0.932562 -1.27047 0
M  V30 2989 C 276.173 -0.576412 -1.94436 0
M  V30 2990 C 276.506 0.880891 -1.73072 0
M  V30 2991 O 275.781 1.62905 -1.06264 0
M  V30 2992 C 276.064 -0.909031 -3.48437 0
M  V30 2993 C 275.917 -2.42044 -3.79123 0
M  V30 2994 C 277.236 -0.418341 -4.38107 0
M  V30 2995 H 274.355 -0.210888 -0.706184 0
M  V30 2996 H 276.997 -1.16522 -1.50075 0
M  V30 2997 H 275.147 -0.407947 -3.86352 0
M  V30 2998 H 276.819 -2.99359 -3.50973 0
M  V30 2999 H 275.062 -2.86758 -3.25503 0
M  V30 3000 H 275.733 -2.6037 -4.86736 0
M  V30 3001 H 278.209 -0.847856 -4.0737 0
M  V30 3002 H 277.085 -0.679981 -5.44672 0
M  V30 3003 H 277.346 0.681642 -4.36814 0
M  V30 3004 N 276.405 1.4127 -0.698611 0
M  V30 3005 C 277.633 2.05503 -0.239992 0
M  V30 3006 C 278.048 1.52584 1.11191 0
M  V30 3007 O 277.405 0.675323 1.69545 0
M  V30 3008 C 277.456 3.60987 -0.192429 0
M  V30 3009 O 277.177 4.1195 -1.49094 0
M  V30 3010 C 278.678 4.42371 0.28681 0
M  V30 3011 H 275.898 0.661748 -0.111045 0
M  V30 3012 H 278.442 1.80987 -0.95205 0
M  V30 3013 H 276.597 3.84533 0.470472 0
M  V30 3014 H 277.011 5.06018 -1.38007 0
M  V30 3015 H 278.485 5.51344 0.26896 0
M  V30 3016 H 278.962 4.18699 1.32619 0
M  V30 3017 H 279.568 4.23897 -0.345201 0
M  V30 3018 N 277.883 0.443576 1.51229 0
M  V30 3019 C 279.299 0.0962001 1.5931 0
M  V30 3020 C 279.499 -1.39501 1.45402 0
M  V30 3021 O 278.555 -2.16557 1.29843 0
M  V30 3022 C 279.868 0.621875 2.94199 0
M  V30 3023 C 281.416 0.582865 3.07525 0
M  V30 3024 C 281.891 1.08562 4.44948 0
M  V30 3025 N 283.382 1.04387 4.51284 0
M  V30 3026 C 284.117 1.40368 5.55954 0
M  V30 3027 N 283.613 1.83664 6.68011 0
M  V30 3028 N 285.406 1.32145 5.46346 0
M  V30 3029 H 277.557 1.41376 1.58514 0
M  V30 3030 H 279.82 0.582965 0.747567 0
M  V30 3031 H 279.526 1.66546 3.09767 0
M  V30 3032 H 279.4 0.0502125 3.77167 0
M  V30 3033 H 281.787 -0.451749 2.91622 0
M  V30 3034 H 281.868 1.191 2.26382 0
M  V30 3035 H 281.512 2.11873 4.61598 0
M  V30 3036 H 281.442 0.453956 5.2464 0
M  V30 3037 H 283.933 0.725986 3.70861 0
M  V30 3038 H 284.246 2.0934 7.43906 0
M  V30 3039 H 282.591 1.87596 6.69203 0
M  V30 3040 H 285.782 0.981808 4.57688 0
M  V30 3041 H 285.955 1.60514 6.27805 0
M  V30 3042 N 279.361 -1.56624 0.175154 0
M  V30 3043 C 280.591 -2.01082 -0.474283 0
M  V30 3044 C 280.999 -1.05447 -1.57091 0
M  V30 3045 O 280.342 -0.0480595 -1.83637 0
M  V30 3046 C 280.404 -3.41963 -1.10911 0
M  V30 3047 C 280.068 -4.56742 -0.153666 0
M  V30 3048 C 281.065 -5.16076 0.629448 0
M  V30 3049 C 278.75 -5.02277 -0.0483776 0
M  V30 3050 C 280.744 -6.19377 1.50501 0
M  V30 3051 C 278.431 -6.05427 0.830768 0
M  V30 3052 C 279.429 -6.63849 1.60605 0
M  V30 3053 O 279.117 -7.64998 2.47049 0
M  V30 3054 H 278.849 -0.664261 -0.125432 0
M  V30 3055 H 281.403 -2.03549 0.275163 0
M  V30 3056 H 279.633 -3.36422 -1.90676 0
M  V30 3057 H 281.322 -3.70352 -1.66114 0
M  V30 3058 H 282.088 -4.81776 0.558297 0
M  V30 3059 H 277.967 -4.56513 -0.641611 0
M  V30 3060 H 281.511 -6.64906 2.1106 0
M  V30 3061 H 277.408 -6.39151 0.903107 0
M  V30 3062 H 278.176 -7.82336 2.40607 0
M  V30 3063 N 280.839 0.0985539 -1.57292 0
M  V30 3064 C 282.069 0.815135 -1.8984 0
M  V30 3065 C 282.477 1.7297 -0.766679 0
M  V30 3066 O 281.82 1.81698 0.270483 0
M  V30 3067 C 281.882 1.6842 -3.17608 0
M  V30 3068 C 281.546 0.94182 -4.4719 0
M  V30 3069 C 282.543 0.273212 -5.19182 0
M  V30 3070 C 280.228 0.916927 -4.9386 0
M  V30 3071 C 282.222 -0.410361 -6.36078 0
M  V30 3072 C 279.909 0.229567 -6.10669 0
M  V30 3073 C 280.907 -0.432902 -6.81627 0
M  V30 3074 O 280.595 -1.10925 -7.9621 0
M  V30 3075 H 280.327 0.238501 -0.632529 0
M  V30 3076 H 282.881 0.0812659 -2.05239 0
M  V30 3077 H 281.111 2.46022 -2.98345 0
M  V30 3078 H 282.8 2.27704 -3.36015 0
M  V30 3079 H 283.566 0.283927 -4.84168 0
M  V30 3080 H 279.445 1.42201 -4.3852 0
M  V30 3081 H 282.989 -0.928013 -6.914 0
M  V30 3082 H 278.886 0.216686 -6.45136 0
M  V30 3083 H 279.654 -1.01579 -8.12172 0
M  V30 3084 N 282.317 1.53212 0.369288 0
M  V30 3085 C 283.733 1.42902 0.710712 0
M  V30 3086 C 283.933 0.565135 1.93413 0
M  V30 3087 O 282.989 0.0461484 2.52458 0
M  V30 3088 C 284.302 2.86042 0.927382 0
M  V30 3089 C 285.85 2.9565 1.02762 0
M  V30 3090 C 286.325 4.39843 1.27679 0
M  V30 3091 N 287.816 4.43256 1.34457 0
M  V30 3092 C 288.551 5.51929 1.55439 0
M  V30 3093 N 288.047 6.70655 1.73762 0
M  V30 3094 N 289.84 5.39502 1.57779 0
M  V30 3095 H 281.991 2.07888 -0.435457 0
M  V30 3096 H 284.254 0.938661 -0.132739 0
M  V30 3097 H 283.96 3.51557 0.100287 0
M  V30 3098 H 283.834 3.29472 1.83653 0
M  V30 3099 H 286.221 2.30291 1.84527 0
M  V30 3100 H 286.302 2.5562 0.0959504 0
M  V30 3101 H 285.946 5.05774 0.464175 0
M  V30 3102 H 285.876 4.77443 2.22162 0
M  V30 3103 H 288.367 3.5769 1.21926 0
M  V30 3104 H 288.68 7.49248 1.89335 0
M  V30 3105 H 287.025 6.73648 1.70948 0
M  V30 3106 H 290.216 4.45713 1.43029 0
M  V30 3107 H 290.389 6.2426 1.7379 0
M  V30 3108 N 283.795 -0.628877 1.44509 0
M  V30 3109 C 284.758 -1.72263 1.51188 0
M  V30 3110 C 285.758 -1.55907 0.39367 0
M  V30 3111 O 286.948 -1.61361 0.656377 0
M  V30 3112 C 284.08 -3.11365 1.38798 0
M  V30 3113 H 285.273 -1.67714 2.4862 0
M  V30 3114 H 282.826 -0.842737 1.31634 0
M  V30 3115 H 283.561 -3.21507 0.424693 0
M  V30 3116 H 283.346 -3.24644 2.19884 0
M  V30 3117 H 284.836 -3.91075 1.46458 0
M  V30 3118 N 285.273 -1.31445 -0.869486 0
M  V30 3119 C 286.684 -1.19042 -1.43826 0
M  V30 3120 C 287.035 0.202919 -1.95148 0
M  V30 3121 O 286.16 1.10071 -1.86315 0
M  V30 3122 C 286.755 -2.15499 -2.6143 0
M  V30 3123 C 285.314 -2.07028 -3.14351 0
M  V30 3124 C 284.461 -2.04701 -1.87063 0
M  V30 3125 H 287.412 -1.43489 -0.677984 0
M  V30 3126 H 287.433 -1.74488 -3.38134 0
M  V30 3127 H 286.945 -3.16899 -2.24046 0
M  V30 3128 H 285.046 -1.08825 -3.56354 0
M  V30 3129 H 285.159 -2.96157 -3.766 0
M  V30 3130 H 283.523 -1.49724 -2.06046 0
M  V30 3131 H 284.306 -3.07857 -1.51917 0
M  V30 3132 N 286.751 1.08385 -1.14413 0
M  V30 3133 C 287.661 2.18856 -0.844951 0
M  V30 3134 C 288.677 1.73121 0.174668 0
M  V30 3135 O 289.853 2.014 0.00312857 0
M  V30 3136 C 286.918 3.45155 -0.32696 0
M  V30 3137 C 285.979 4.05513 -1.40916 0
M  V30 3138 C 285.212 5.25784 -0.915793 0
M  V30 3139 O 285.435 5.69884 0.242651 0
M  V30 3140 O 284.369 5.77545 -1.69487 0
M  V30 3141 H 288.195 2.46919 -1.76818 0
M  V30 3142 H 285.78 1.17524 -0.922411 0
M  V30 3143 H 287.662 4.21377 -0.0440211 0
M  V30 3144 H 286.337 3.18668 0.568539 0
M  V30 3145 H 285.244 3.30879 -1.74556 0
M  V30 3146 H 286.577 4.3625 -2.27919 0
M  V30 3147 N 288.23 0.939286 1.26551 0
M  V30 3148 C 289.476 0.586715 1.94128 0
M  V30 3149 C 289.809 -0.8717 1.73537 0
M  V30 3150 O 289.084 -1.62339 1.07127 0
M  V30 3151 C 289.367 0.927497 3.4795 0
M  V30 3152 C 289.22 2.44052 3.77834 0
M  V30 3153 C 290.539 0.441569 4.37879 0
M  V30 3154 H 287.658 0.21463 0.705055 0
M  V30 3155 H 290.3 1.17316 1.49455 0
M  V30 3156 H 288.45 0.428431 3.8613 0
M  V30 3157 H 290.122 3.01216 3.4938 0
M  V30 3158 H 288.365 2.8848 3.23978 0
M  V30 3159 H 289.036 2.62947 4.85348 0
M  V30 3160 H 291.512 0.869448 4.06915 0
M  V30 3161 H 290.388 0.708856 5.44304 0
M  V30 3162 H 290.649 -0.658467 4.37169 0
M  V30 3163 N 289.708 -1.40897 0.706093 0
M  V30 3164 C 290.957 -2.00284 0.238574 0
M  V30 3165 C 291.27 -1.56604 -1.17194 0
M  V30 3166 O 292.476 -2.08624 -1.73748 0
M  V30 3167 C 290.932 -3.57934 0.375623 0
M  V30 3168 C 290.54 -4.10591 1.79217 0
M  V30 3169 C 292.284 -4.24488 -0.0315857 0
M  V30 3170 C 290.191 -5.60712 1.88032 0
M  V30 3171 H 289.121 -0.749144 0.0854398 0
M  V30 3172 H 291.772 -1.61251 0.875813 0
M  V30 3173 H 290.154 -3.94622 -0.330042 0
M  V30 3174 H 291.328 -3.85301 2.52745 0
M  V30 3175 H 289.643 -3.56601 2.15 0
M  V30 3176 H 292.24 -5.34698 0.0136842 0
M  V30 3177 H 292.583 -4.02261 -1.072 0
M  V30 3178 H 293.116 -3.92873 0.624181 0
M  V30 3179 H 289.855 -5.87781 2.90161 0
M  V30 3180 H 289.375 -5.87896 1.18903 0
M  V30 3181 H 291.054 -6.25658 1.64805 0
M  V30 3182 N 291.186 -0.45159 -1.50991 0
M  V30 3183 C 292.116 0.342898 -2.30969 0
M  V30 3184 C 293.097 1.00815 -1.37005 0
M  V30 3185 O 294.282 1.00907 -1.65926 0
M  V30 3186 C 291.412 1.43637 -3.16205 0
M  V30 3187 C 290.366 0.893818 -4.18563 0
M  V30 3188 C 289.692 2.08411 -4.92411 0
M  V30 3189 C 290.992 -0.0815568 -5.22236 0
M  V30 3190 H 292.686 -0.324556 -2.97636 0
M  V30 3191 H 290.232 -0.157531 -1.43136 0
M  V30 3192 H 292.185 1.9995 -3.70942 0
M  V30 3193 H 290.909 2.13232 -2.47386 0
M  V30 3194 H 289.568 0.352798 -3.64898 0
M  V30 3195 H 289.216 2.76658 -4.20082 0
M  V30 3196 H 288.916 1.72741 -5.61636 0
M  V30 3197 H 290.44 2.65251 -5.49976 0
M  V30 3198 H 291.854 0.391742 -5.7196 0
M  V30 3199 H 290.251 -0.351551 -5.99069 0
M  V30 3200 H 291.321 -1.01374 -4.74185 0
M  V30 3201 N 292.664 1.56529 -0.183458 0
M  V30 3202 C 293.912 1.96855 0.457452 0
M  V30 3203 C 294.233 1.07104 1.62953 0
M  V30 3204 O 293.503 0.139887 1.954 0
M  V30 3205 H 292.083 0.72693 0.171992 0
M  V30 3206 H 294.745 1.93056 -0.267476 0
M  V30 3207 H 293.841 3.01423 0.809368 0
M  V30 3208 N 294.142 -0.090211 1.57342 0
M  V30 3209 C 295.075 -1.14035 1.97664 0
M  V30 3210 C 296.053 -1.38576 0.850616 0
M  V30 3211 O 297.237 -1.52255 1.11134 0
M  V30 3212 C 294.364 -2.48854 2.2976 0
M  V30 3213 C 293.41 -2.40564 3.52181 0
M  V30 3214 S 294.243 -1.81745 5.03715 0
M  V30 3215 C 295.399 -3.18178 5.38993 0
M  V30 3216 H 295.632 -0.796636 2.86428 0
M  V30 3217 H 293.165 -0.298072 1.51496 0
M  V30 3218 H 295.123 -3.26413 2.48927 0
M  V30 3219 H 293.784 -2.80393 1.41558 0
M  V30 3220 H 292.977 -3.39942 3.72096 0
M  V30 3221 H 292.579 -1.71135 3.32549 0
M  V30 3222 H 294.871 -4.14461 5.35937 0
M  V30 3223 H 295.814 -3.03062 6.39968 0
M  V30 3224 H 296.222 -3.17935 4.66452 0
M  V30 3225 N 295.62 -1.53406 -0.361157 0
M  V30 3226 C 296.868 -1.69467 -1.10115 0
M  V30 3227 C 297.189 -0.451352 -1.89705 0
M  V30 3228 O 296.459 0.534636 -1.88463 0
M  V30 3229 H 295.039 -0.624749 -0.409508 0
M  V30 3230 H 297.701 -1.90609 -0.406699 0
M  V30 3231 H 296.797 -2.55774 -1.78847 0
M  V30 3232 N 297.098 0.621204 -1.44841 0
M  V30 3233 C 298.328 1.40548 -1.51426 0
M  V30 3234 C 298.736 1.88673 -0.141083 0
M  V30 3235 O 298.079 1.62053 0.865128 0
M  V30 3236 C 298.141 2.65325 -2.42576 0
M  V30 3237 C 297.805 2.3893 -3.89566 0
M  V30 3238 C 298.802 2.00138 -4.79834 0
M  V30 3239 C 296.487 2.52263 -4.3436 0
M  V30 3240 C 298.481 1.75021 -6.129 0
M  V30 3241 C 296.168 2.2676 -5.67471 0
M  V30 3242 C 297.166 1.88199 -6.56559 0
M  V30 3243 O 296.854 1.62986 -7.87204 0
M  V30 3244 H 296.586 0.437122 -0.515655 0
M  V30 3245 H 299.14 0.765987 -1.90583 0
M  V30 3246 H 297.37 3.31947 -1.98364 0
M  V30 3247 H 299.059 3.27347 -2.39998 0
M  V30 3248 H 299.825 1.89386 -4.46495 0
M  V30 3249 H 295.704 2.81246 -3.65269 0
M  V30 3250 H 299.248 1.44848 -6.82396 0
M  V30 3251 H 295.145 2.37125 -6.00368 0
M  V30 3252 H 295.913 1.7715 -7.991 0
M  V30 3253 N 298.576 1.31904 0.862503 0
M  V30 3254 C 299.523 1.20182 1.9704 0
M  V30 3255 C 300.493 0.0858247 1.65878 0
M  V30 3256 O 301.678 0.26 1.8902 0
M  V30 3257 C 298.818 0.922797 3.32533 0
M  V30 3258 C 297.931 2.12284 3.76244 0
M  V30 3259 C 297.066 1.77996 5.00491 0
M  V30 3260 C 296.105 2.94366 5.36671 0
M  V30 3261 N 295.242 2.60223 6.52095 0
M  V30 3262 H 300.082 2.14951 2.06398 0
M  V30 3263 H 297.619 1.06917 1.01031 0
M  V30 3264 H 299.577 0.741548 4.10557 0
M  V30 3265 H 298.207 0.0119227 3.22798 0
M  V30 3266 H 297.259 2.41461 2.9394 0
M  V30 3267 H 298.571 2.99357 3.98982 0
M  V30 3268 H 297.725 1.56377 5.862 0
M  V30 3269 H 296.464 0.881252 4.79672 0
M  V30 3270 H 295.469 3.16625 4.49476 0
M  V30 3271 H 296.694 3.84957 5.59451 0
M  V30 3272 H 294.64 1.72884 6.32809 0
M  V30 3273 H 294.557 3.40827 6.74814 0
M  V30 3274 H 295.825 2.42016 7.40978 0
M  V30 3275 N 300.054 -1.07777 1.14986 0
M  V30 3276 C 300.964 -2.18404 0.856546 0
M  V30 3277 C 301.98 -1.73211 -0.165485 0
M  V30 3278 O 303.156 -2.01399 0.00755219 0
M  V30 3279 C 300.221 -3.44977 0.34526 0
M  V30 3280 C 299.282 -4.0476 1.43065 0
M  V30 3281 C 298.515 -5.25291 0.943663 0
M  V30 3282 O 298.738 -5.70004 -0.212426 0
M  V30 3283 O 297.672 -5.76638 1.72547 0
M  V30 3284 H 301.498 -2.45978 1.78125 0
M  V30 3285 H 299.083 -1.17033 0.928631 0
M  V30 3286 H 300.965 -4.21348 0.0663671 0
M  V30 3287 H 299.64 -3.18965 -0.551631 0
M  V30 3288 H 298.547 -3.29949 1.76309 0
M  V30 3289 H 299.88 -4.35035 2.30229 0
M  V30 3290 N 301.532 -0.945985 -1.26051 0
M  V30 3291 C 302.48 -0.450259 -2.282 0
M  V30 3292 C 303.474 0.47497 -1.62605 0
M  V30 3293 O 304.68 0.352653 -1.76512 0
M  V30 3294 H 301.055 -0.127081 -0.741184 0
M  V30 3295 H 303.026 -1.32422 -2.67408 0
M  V30 3296 C 301.775 0.26467 -3.46691 0
M  V30 3297 H 301.098 -0.438123 -3.97392 0
M  V30 3298 H 302.538 0.575678 -4.20074 0
M  V30 3299 C 300.997 1.48416 -3.02447 0
M  V30 3300 O 301.527 2.58227 -3.07704 0
M  V30 3301 N 299.733 1.34243 -2.57735 0
M  V30 3302 H 299.28 0.448994 -2.53657 0
M  V30 3303 H 299.238 2.15957 -2.28495 0
M  V30 3304 N 303.011 1.40521 -0.713556 0
M  V30 3305 C 304.257 2.01221 -0.252564 0
M  V30 3306 C 304.59 1.56444 1.1506 0
M  V30 3307 O 303.865 0.783597 1.78017 0
M  V30 3308 C 304.148 3.58582 -0.330332 0
M  V30 3309 C 304.001 4.13437 -1.77173 0
M  V30 3310 C 305.32 4.39079 0.299641 0
M  V30 3311 H 302.439 0.731077 -0.0932471 0
M  V30 3312 H 305.081 1.67026 -0.905673 0
M  V30 3313 H 303.231 3.87844 0.225737 0
M  V30 3314 H 304.903 3.9498 -2.38303 0
M  V30 3315 H 303.146 3.67801 -2.3001 0
M  V30 3316 H 303.817 5.22597 -1.77755 0
M  V30 3317 H 306.293 4.15735 -0.174139 0
M  V30 3318 H 305.169 5.4848 0.214771 0
M  V30 3319 H 305.43 4.19915 1.38288 0
M  V30 3320 N 304.489 0.459591 1.5075 0
M  V30 3321 C 305.766 -0.160371 1.94941 0
M  V30 3322 C 306.146 -1.58048 1.39943 0
M  V30 3323 O 305.494 -2.206 0.595629 0
M  V30 3324 C 305.704 -0.115432 3.48809 0
M  V30 3325 C 307.052 -0.310026 4.23467 0
M  V30 3326 O 308.076 -0.192543 3.55679 0
M  V30 3327 O 306.935 -0.546031 5.43765 0
M  V30 3328 H 304.029 -0.117925 0.818549 0
M  V30 3329 H 306.575 0.519169 1.61563 0
M  V30 3330 H 305.347 0.87652 3.81357 0
M  V30 3331 H 304.97 -0.836928 3.88692 0
M  V30 3332 N 305.967 -1.56429 0.191757 0
M  V30 3333 C 307.216 -1.9666 -0.448088 0
M  V30 3334 C 307.529 -1.08136 -1.62991 0
M  V30 3335 O 308.735 -1.38135 -2.33733 0
M  V30 3336 C 307.191 -3.49753 -0.848585 0
M  V30 3337 C 306.799 -4.46935 0.308764 0
M  V30 3338 C 308.543 -3.9876 -1.4557 0
M  V30 3339 C 306.45 -5.91293 -0.112506 0
M  V30 3340 H 305.38 -0.734312 -0.171179 0
M  V30 3341 H 308.031 -1.81301 0.283242 0
M  V30 3342 H 306.413 -3.60604 -1.63649 0
M  V30 3343 H 307.587 -4.47813 1.08627 0
M  V30 3344 H 305.902 -4.08102 0.827158 0
M  V30 3345 H 308.499 -5.04086 -1.78328 0
M  V30 3346 H 308.842 -3.42875 -2.36099 0
M  V30 3347 H 309.375 -3.9101 -0.731836 0
M  V30 3348 H 306.114 -6.51097 0.758514 0
M  V30 3349 H 305.634 -5.93676 -0.854941 0
M  V30 3350 H 307.313 -6.44663 -0.549448 0
M  V30 3351 N 307.445 0.0818655 -1.57387 0
M  V30 3352 C 308.691 0.778884 -1.87896 0
M  V30 3353 C 309.046 1.75692 -0.784229 0
M  V30 3354 O 308.339 1.90417 0.212567 0
M  V30 3355 C 308.533 1.53513 -3.22752 0
M  V30 3356 C 308.362 0.631838 -4.45239 0
M  V30 3357 C 307.132 0.272571 -5.04564 0
M  V30 3358 C 309.33 -0.0670191 -5.14256 0
M  V30 3359 N 307.312 -0.637498 -6.10581 0
M  V30 3360 C 308.683 -0.834653 -6.14356 0
M  V30 3361 C 310.738 -0.139551 -4.97704 0
M  V30 3362 C 309.441 -1.66806 -6.99691 0
M  V30 3363 C 311.467 -0.959903 -5.83558 0
M  V30 3364 C 310.829 -1.71561 -6.83188 0
M  V30 3365 H 306.928 0.260764 -0.737242 0
M  V30 3366 H 309.512 0.0408227 -1.94657 0
M  V30 3367 H 307.683 2.24398 -3.17018 0
M  V30 3368 H 309.415 2.18038 -3.40942 0
M  V30 3369 H 306.17 0.62319 -4.69482 0
M  V30 3370 H 306.594 -1.08548 -6.68241 0
M  V30 3371 H 311.236 0.430376 -4.20604 0
M  V30 3372 H 308.954 -2.249 -7.76174 0
M  V30 3373 H 312.54 -1.01887 -5.72809 0
M  V30 3374 H 311.42 -2.34017 -7.48469 0
M  V30 3375 N 308.923 1.53595 0.353017 0
M  V30 3376 C 310.148 1.7462 1.11904 0
M  V30 3377 C 310.573 0.479721 1.8188 0
M  V30 3378 O 309.931 -0.567066 1.72204 0
M  V30 3379 C 309.979 2.92029 2.11545 0
M  V30 3380 O 309.083 2.61516 3.18878 0
M  V30 3381 H 308.424 0.579531 0.324099 0
M  V30 3382 H 310.954 2.00525 0.406301 0
M  V30 3383 H 310.964 3.18551 2.5493 0
M  V30 3384 H 309.639 3.83888 1.60008 0
M  V30 3385 H 308.216 2.45852 2.80377 0
M  V30 3386 N 310.401 -0.613514 1.45168 0
M  V30 3387 C 311.647 -1.37471 1.49096 0
M  V30 3388 C 311.98 -1.93765 0.129901 0
M  V30 3389 O 311.255 -1.74707 -0.854858 0
M  V30 3390 C 311.538 -2.52701 2.56542 0
M  V30 3391 C 311.391 -2.01643 4.0207 0
M  V30 3392 C 312.71 -3.54849 2.60327 0
M  V30 3393 H 309.829 -0.498502 0.54283 0
M  V30 3394 H 312.471 -0.692125 1.76945 0
M  V30 3395 H 310.621 -3.10931 2.32926 0
M  V30 3396 H 312.293 -1.48108 4.36877 0
M  V30 3397 H 310.536 -1.32688 4.13009 0
M  V30 3398 H 311.207 -2.84681 4.72928 0
M  V30 3399 H 313.683 -3.0645 2.81474 0
M  V30 3400 H 312.559 -4.32973 3.37381 0
M  V30 3401 H 312.82 -4.10079 1.6519 0
M  V30 3402 N 311.879 -1.3236 -0.855495 0
M  V30 3403 C 313.127 -1.22629 -1.60644 0
M  V30 3404 C 313.448 0.212136 -1.93843 0
M  V30 3405 O 312.718 1.13666 -1.59552 0
M  V30 3406 H 311.298 -0.450882 -0.595579 0
M  V30 3407 H 313.96 -1.65871 -1.02337 0
M  V30 3408 H 313.056 -1.80832 -2.54374 0
M  V30 3409 N 313.357 1.07166 -1.15556 0
M  V30 3410 C 314.597 1.81391 -0.94216 0
M  V30 3411 C 314.961 1.84788 0.521272 0
M  V30 3412 O 316.162 2.54904 0.85307 0
M  V30 3413 C 314.433 3.22431 -1.54185 0
M  V30 3414 S 315.992 4.13379 -1.47183 0
M  V30 3415 H 312.81 0.624963 -0.339031 0
M  V30 3416 H 315.412 1.28725 -1.4714 0
M  V30 3417 H 314.116 3.17548 -2.59984 0
M  V30 3418 H 313.647 3.80172 -1.01156 0
M  V30 3419 H 315.662 4.94007 -0.466004 0
M  V30 3420 N 314.835 0.952656 1.25548 0
M  V30 3421 C 316.084 0.602053 1.92505 0
M  V30 3422 C 316.397 -0.864663 1.75451 0
M  V30 3423 O 317.603 -1.32514 2.36965 0
M  V30 3424 C 316.059 1.02607 3.44963 0
M  V30 3425 C 315.667 2.51519 3.70732 0
M  V30 3426 C 317.411 0.747905 4.1786 0
M  V30 3427 C 315.318 2.87732 5.16686 0
M  V30 3428 H 314.248 0.22146 0.720744 0
M  V30 3429 H 316.899 1.15684 1.42441 0
M  V30 3430 H 315.281 0.399712 3.93978 0
M  V30 3431 H 316.455 3.19157 3.32378 0
M  V30 3432 H 314.77 2.76786 3.11092 0
M  V30 3433 H 317.367 0.994647 5.25367 0
M  V30 3434 H 317.71 -0.315629 4.15102 0
M  V30 3435 H 318.243 1.33452 3.74747 0
M  V30 3436 H 314.982 3.93095 5.24554 0
M  V30 3437 H 314.502 2.24765 5.56094 0
M  V30 3438 H 316.181 2.76817 5.84792 0
M  V30 3439 N 316.313 -1.40141 0.720998 0
M  V30 3440 C 317.246 -2.2819 0.020916 0
M  V30 3441 C 318.224 -1.43633 -0.762129 0
M  V30 3442 O 319.408 -1.7304 -0.747633 0
M  V30 3443 C 316.535 -3.24281 -0.977715 0
M  V30 3444 C 315.581 -4.25548 -0.284836 0
M  V30 3445 S 316.414 -5.26247 0.991169 0
M  V30 3446 C 317.57 -6.259 -0.0052214 0
M  V30 3447 H 317.803 -2.87218 0.767649 0
M  V30 3448 H 315.336 -1.45656 0.512233 0
M  V30 3449 H 317.294 -3.80167 -1.54865 0
M  V30 3450 H 315.955 -2.643 -1.69719 0
M  V30 3451 H 315.148 -4.93154 -1.03996 0
M  V30 3452 H 314.75 -3.73389 0.213684 0
M  V30 3453 H 317.042 -6.72143 -0.850279 0
M  V30 3454 H 317.985 -7.05224 0.637599 0
M  V30 3455 H 318.393 -5.63277 -0.371366 0
M  V30 3456 N 317.792 -0.46758 -1.50504 0
M  V30 3457 C 319.04 0.0884469 -2.01906 0
M  V30 3458 C 319.361 1.40532 -1.35188 0
M  V30 3459 O 318.631 1.89515 -0.496079 0
M  V30 3460 H 317.211 0.0356765 -0.746148 0
M  V30 3461 H 319.873 -0.6172 -1.84869 0
M  V30 3462 H 318.969 0.2425 -3.11156 0
M  V30 3463 N 319.27 1.56325 -0.20005 0
M  V30 3464 C 320.18 2.22931 0.730668 0
M  V30 3465 C 321.196 1.22997 1.23076 0
M  V30 3466 O 322.372 1.55748 1.27689 0
M  V30 3467 C 319.437 2.87948 1.93098 0
M  V30 3468 C 318.498 4.03166 1.47497 0
M  V30 3469 C 317.731 4.65073 2.61807 0
M  V30 3470 O 317.954 4.25913 3.79413 0
M  V30 3471 O 316.888 5.54452 2.34237 0
M  V30 3472 H 320.714 3.03084 0.193391 0
M  V30 3473 H 318.299 1.49371 0.0294621 0
M  V30 3474 H 320.181 3.29063 2.6324 0
M  V30 3475 H 318.856 2.10771 2.45677 0
M  V30 3476 H 317.763 3.66664 0.742201 0
M  V30 3477 H 319.096 4.82022 0.995796 0
M  V30 3478 N 320.748 -0.0735177 1.57428 0
M  V30 3479 C 321.678 -1.0879 2.06608 0
M  V30 3480 C 322.659 -1.40473 0.959237 0
M  V30 3481 O 323.844 -1.5013 1.23185 0
M  V30 3482 C 320.974 -2.40183 2.50857 0
M  V30 3483 C 319.928 -2.22858 3.65402 0
M  V30 3484 C 319.254 -3.59619 3.957 0
M  V30 3485 C 320.554 -1.65123 4.95511 0
M  V30 3486 H 322.248 -0.678673 2.91607 0
M  V30 3487 H 319.794 -0.325013 1.40284 0
M  V30 3488 H 321.747 -3.11437 2.83874 0
M  V30 3489 H 320.471 -2.83083 1.62885 0
M  V30 3490 H 319.13 -1.54045 3.32664 0
M  V30 3491 H 318.778 -4.00086 3.04861 0
M  V30 3492 H 318.478 -3.48866 4.72828 0
M  V30 3493 H 320.002 -4.32306 4.31212 0
M  V30 3494 H 321.416 -2.26241 5.26771 0
M  V30 3495 H 319.813 -1.65071 5.7695 0
M  V30 3496 H 320.883 -0.612559 4.81015 0
M  V30 3497 N 322.226 -1.5378 -0.344866 0
M  V30 3498 C 323.472 -1.71216 -1.08687 0
M  V30 3499 C 323.805 -0.473281 -1.88345 0
M  V30 3500 O 323.08 0.52968 -1.87149 0
M  V30 3501 C 323.363 -2.97486 -2.02914 0
M  V30 3502 C 323.216 -4.31579 -1.26727 0
M  V30 3503 C 324.535 -3.19422 -3.0275 0
M  V30 3504 H 321.654 -0.62301 -0.393735 0
M  V30 3505 H 324.296 -1.8645 -0.365563 0
M  V30 3506 H 322.446 -2.84629 -2.64421 0
M  V30 3507 H 324.118 -4.56284 -0.67845 0
M  V30 3508 H 322.361 -4.30049 -0.569273 0
M  V30 3509 H 323.032 -5.16106 -1.95803 0
M  V30 3510 H 325.508 -3.316 -2.51357 0
M  V30 3511 H 324.384 -4.09169 -3.65885 0
M  V30 3512 H 324.645 -2.35656 -3.74057 0
M  V30 3513 N 323.704 0.605807 -1.45491 0
M  V30 3514 C 324.651 1.7164 -1.54299 0
M  V30 3515 C 325.621 1.61486 -0.388761 0
M  V30 3516 O 326.806 1.81039 -0.602445 0
M  V30 3517 C 323.946 3.09953 -1.51734 0
M  V30 3518 C 323.059 3.309 -2.77721 0
M  V30 3519 C 322.194 4.59329 -2.66816 0
M  V30 3520 C 321.233 4.7354 -3.87848 0
M  V30 3521 N 320.37 5.9327 -3.75467 0
M  V30 3522 H 325.21 1.63449 -2.49176 0
M  V30 3523 H 322.747 0.796957 -1.23641 0
M  V30 3524 H 324.705 3.89977 -1.48235 0
M  V30 3525 H 323.335 3.17098 -0.604068 0
M  V30 3526 H 322.387 2.44639 -2.913 0
M  V30 3527 H 323.699 3.37274 -3.67488 0
M  V30 3528 H 322.853 5.4755 -2.61292 0
M  V30 3529 H 321.592 4.55355 -1.74651 0
M  V30 3530 H 320.597 3.83741 -3.93729 0
M  V30 3531 H 321.822 4.79309 -4.81082 0
M  V30 3532 H 319.768 5.90338 -2.86072 0
M  V30 3533 H 319.685 6.00811 -4.5887 0
M  V30 3534 H 320.953 6.83984 -3.73879 0
M  V30 3535 N 325.182 1.32811 0.848464 0
M  V30 3536 C 326.43 1.23479 1.59991 0
M  V30 3537 C 326.751 -0.201853 1.93952 0
M  V30 3538 O 326.021 -1.12818 1.60153 0
M  V30 3539 H 324.601 0.454034 0.593179 0
M  V30 3540 H 327.263 1.66412 1.01455 0
M  V30 3541 H 326.359 1.82178 2.53412 0
M  V30 3542 N 326.66 -1.06551 1.16123 0
M  V30 3543 C 327.9 -1.80889 0.951766 0
M  V30 3544 C 328.264 -1.85062 -0.511465 0
M  V30 3545 O 329.465 -2.55353 -0.83954 0
M  V30 3546 C 327.736 -3.21609 1.55893 0
M  V30 3547 S 329.295 -4.12593 1.49373 0
M  V30 3548 H 326.113 -0.623156 0.342341 0
M  V30 3549 H 328.715 -1.27943 1.47821 0
M  V30 3550 H 327.419 -3.16165 2.61664 0
M  V30 3551 H 326.95 -3.79631 1.0317 0
M  V30 3552 H 328.965 -4.93753 0.492196 0
M  V30 3553 N 328.138 -0.959301 -1.25041 0
M  V30 3554 C 329.384 -0.617525 -1.9317 0
M  V30 3555 C 329.717 0.843981 -1.74902 0
M  V30 3556 O 328.992 1.60615 -1.09696 0
M  V30 3557 C 329.275 -0.982736 -3.46431 0
M  V30 3558 C 329.128 -2.50032 -3.73904 0
M  V30 3559 C 330.447 -0.511176 -4.37121 0
M  V30 3560 H 327.566 -0.22582 -0.701552 0
M  V30 3561 H 330.208 -1.19679 -1.4757 0
M  V30 3562 H 328.358 -0.489806 -3.854 0
M  V30 3563 H 330.03 -3.06737 -3.44544 0
M  V30 3564 H 328.273 -2.93598 -3.19348 0
M  V30 3565 H 328.944 -2.70635 -4.81103 0
M  V30 3566 H 331.42 -0.934075 -4.0548 0
M  V30 3567 H 330.296 -0.795361 -5.43107 0
M  V30 3568 H 330.557 0.588834 -4.38161 0
M  V30 3569 N 329.616 1.39756 -0.72842 0
M  V30 3570 C 330.865 1.99879 -0.270407 0
M  V30 3571 C 331.178 1.58449 1.14688 0
M  V30 3572 O 332.384 2.11362 1.70407 0
M  V30 3573 C 330.84 3.57292 -0.43252 0
M  V30 3574 C 330.448 4.07688 -1.85727 0
M  V30 3575 C 332.192 4.24485 -0.0359507 0
M  V30 3576 C 330.099 5.5765 -1.96928 0
M  V30 3577 H 329.029 0.747689 -0.0973472 0
M  V30 3578 H 331.68 1.59837 -0.901355 0
M  V30 3579 H 330.062 3.95097 0.267219 0
M  V30 3580 H 331.236 3.81231 -2.58843 0
M  V30 3581 H 329.551 3.53135 -2.20646 0
M  V30 3582 H 332.148 5.34609 -0.0987484 0
M  V30 3583 H 332.491 4.03915 1.00787 0
M  V30 3584 H 333.024 3.9183 -0.686604 0
M  V30 3585 H 329.763 5.8309 -2.99476 0
M  V30 3586 H 329.283 5.8593 -1.28241 0
M  V30 3587 H 330.962 6.22957 -1.74737 0
M  V30 3588 N 331.094 0.475555 1.50254 0
M  V30 3589 C 332.341 -0.0778919 2.0235 0
M  V30 3590 C 332.669 -1.39319 1.35722 0
M  V30 3591 O 331.924 -1.89888 0.473395 0
M  V30 3592 C 332.223 -0.305114 3.56095 0
M  V30 3593 C 331.889 0.92903 4.41225 0
M  V30 3594 C 330.551 1.26739 4.6421 0
M  V30 3595 C 332.903 1.75054 4.90923 0
M  V30 3596 C 330.231 2.42724 5.34137 0
M  V30 3597 C 332.583 2.9017 5.62125 0
M  V30 3598 C 331.247 3.24416 5.83362 0
M  V30 3599 H 330.517 -0.0285027 0.740452 0
M  V30 3600 H 333.164 0.630543 1.80821 0
M  V30 3601 H 331.469 -1.09584 3.76163 0
M  V30 3602 H 333.166 -0.747377 3.93974 0
M  V30 3603 H 329.756 0.655428 4.23559 0
M  V30 3604 H 333.94 1.50231 4.73016 0
M  V30 3605 H 329.196 2.69525 5.48786 0
M  V30 3606 H 333.37 3.54169 5.99614 0
M  V30 3607 H 330.997 4.14396 6.37323 0
M  V30 3608 N 332.573 -1.56217 0.208337 0
M  V30 3609 C 333.505 -2.1695 -0.739276 0
M  V30 3610 C 334.518 -1.13492 -1.1672 0
M  V30 3611 O 335.707 -1.40529 -1.10063 0
M  V30 3612 C 332.807 -2.72755 -2.01142 0
M  V30 3613 C 331.98 -4.0125 -1.74118 0
M  V30 3614 C 331.039 -4.41749 -2.85909 0
M  V30 3615 O 330.065 -5.08912 -2.54946 0
M  V30 3616 N 331.267 -4.06342 -4.14568 0
M  V30 3617 H 334.032 -2.98893 -0.219837 0
M  V30 3618 H 331.593 -1.61878 0.0268445 0
M  V30 3619 H 333.585 -2.96826 -2.75094 0
M  V30 3620 H 332.155 -1.95191 -2.4417 0
M  V30 3621 H 331.375 -3.85173 -0.838775 0
M  V30 3622 H 332.663 -4.851 -1.53477 0
M  V30 3623 H 332.061 -3.52345 -4.42571 0
M  V30 3624 H 330.618 -4.35335 -4.85105 0
M  V30 3625 N 334.051 0.0651679 -1.57465 0
M  V30 3626 C 335.299 0.761555 -1.87202 0
M  V30 3627 C 335.62 1.77778 -0.801243 0
M  V30 3628 O 334.89 1.95166 0.16937 0
M  V30 3629 H 333.47 0.284251 -0.690804 0
M  V30 3630 H 336.132 0.0396827 -1.9486 0
M  V30 3631 H 335.228 1.27365 -2.84929 0
M  V30 3632 N 335.529 1.53961 0.336706 0
M  V30 3633 C 336.757 1.75483 1.09605 0
M  V30 3634 C 337.172 0.4972 1.82136 0
M  V30 3635 O 336.529 -0.53149 1.74589 0
M  V30 3636 C 336.58 2.93943 2.10428 0
M  V30 3637 O 336.301 4.14842 1.40846 0
M  V30 3638 C 337.802 3.27571 2.98684 0
M  V30 3639 H 335.022 0.586166 0.326574 0
M  V30 3640 H 337.566 2.00808 0.38683 0
M  V30 3641 H 335.721 2.70929 2.76905 0
M  V30 3642 H 336.135 4.81383 2.08255 0
M  V30 3643 H 337.609 4.13791 3.6535 0
M  V30 3644 H 338.086 2.44168 3.65074 0
M  V30 3645 H 338.692 3.52615 2.37787 0
M  V30 3646 N 337.007 -0.598083 1.45811 0
M  V30 3647 C 338.284 -1.35777 1.40797 0
M  V30 3648 C 338.664 -2.10935 0.083462 0
M  V30 3649 O 338.012 -2.08505 -0.934763 0
M  V30 3650 C 338.222 -2.29666 2.62783 0
M  V30 3651 C 339.57 -2.91977 3.08277 0
M  V30 3652 O 340.594 -2.39984 2.63223 0
M  V30 3653 O 339.453 -3.86376 3.86491 0
M  V30 3654 H 336.547 -0.609291 0.55919 0
M  V30 3655 H 339.093 -0.620379 1.57954 0
M  V30 3656 H 337.865 -1.73454 3.50756 0
M  V30 3657 H 337.488 -3.1077 2.48008 0
M  V30 3658 N 338.485 -1.33259 -0.841409 0
M  V30 3659 C 339.435 -1.19872 -1.93945 0
M  V30 3660 C 340.419 -0.102269 -1.60575 0
M  V30 3661 O 341.611 -0.330114 -1.73894 0
M  V30 3662 C 338.74 -0.937517 -3.30251 0
M  V30 3663 C 337.826 -2.07629 -3.69799 0
M  V30 3664 N 338.217 -3.32604 -3.81062 0
M  V30 3665 C 336.515 -1.98242 -3.9952 0
M  V30 3666 C 337.216 -4.07275 -4.15333 0
M  V30 3667 N 336.192 -3.35691 -4.27566 0
M  V30 3668 H 339.994 -2.14604 -2.00805 0
M  V30 3669 H 337.508 -1.2523 -1.03398 0
M  V30 3670 H 339.505 -0.822545 -4.08705 0
M  V30 3671 H 338.165 0.00128798 -3.247 0
M  V30 3672 H 339.176 -3.67382 -3.65035 0
M  V30 3673 H 335.853 -1.12005 -4.02195 0
M  V30 3674 H 337.243 -5.1511 -4.31406 0
M  V30 3675 N 339.963 1.05934 -1.16686 0
M  V30 3676 C 341.212 1.78188 -0.945085 0
M  V30 3677 C 341.525 1.88338 0.528021 0
M  V30 3678 O 342.731 2.57258 0.867799 0
M  V30 3679 C 341.187 3.20277 -1.64167 0
M  V30 3680 C 340.795 3.18281 -3.15279 0
M  V30 3681 C 342.539 3.97039 -1.502 0
M  V30 3682 C 340.446 4.55112 -3.7766 0
M  V30 3683 H 339.376 0.667866 -0.349959 0
M  V30 3684 H 342.027 1.18794 -1.39858 0
M  V30 3685 H 340.409 3.79952 -1.11589 0
M  V30 3686 H 341.583 2.68167 -3.74731 0
M  V30 3687 H 339.898 2.55018 -3.29173 0
M  V30 3688 H 342.495 4.98194 -1.94183 0
M  V30 3689 H 342.838 4.13845 -0.451461 0
M  V30 3690 H 343.371 3.43894 -1.99954 0
M  V30 3691 H 340.11 4.43512 -4.82677 0
M  V30 3692 H 339.63 5.05406 -3.22994 0
M  V30 3693 H 341.309 5.24064 -3.79428 0
M  V30 3694 N 341.441 0.965919 1.2453 0
M  V30 3695 C 342.718 0.543777 1.87889 0
M  V30 3696 C 343.098 -0.97909 1.87021 0
M  V30 3697 O 342.446 -1.84969 1.3416 0
M  V30 3698 C 342.656 1.13327 3.30088 0
M  V30 3699 C 344.004 1.21707 4.06783 0
M  V30 3700 O 345.028 1.08566 3.39252 0
M  V30 3701 O 343.887 1.42456 5.27606 0
M  V30 3702 H 340.981 0.181054 0.806938 0
M  V30 3703 H 343.527 1.06007 1.32516 0
M  V30 3704 H 342.299 2.17612 3.25209 0
M  V30 3705 H 341.922 0.600911 3.93033 0
M  V30 3706 N 342.919 -1.39368 0.735821 0
M  V30 3707 C 343.851 -2.2913 0.0567723 0
M  V30 3708 C 344.864 -1.46859 -0.702589 0
M  V30 3709 O 346.053 -1.69925 -0.546616 0
M  V30 3710 C 343.153 -3.25492 -0.943823 0
M  V30 3711 C 342.326 -4.36709 -0.24581 0
M  V30 3712 C 341.385 -5.13376 -1.15463 0
M  V30 3713 O 340.411 -5.65683 -0.631803 0
M  V30 3714 N 341.613 -5.24656 -2.48427 0
M  V30 3715 H 344.378 -2.88047 0.827582 0
M  V30 3716 H 341.939 -1.50957 0.585112 0
M  V30 3717 H 343.931 -3.73657 -1.55443 0
M  V30 3718 H 342.501 -2.676 -1.61583 0
M  V30 3719 H 341.721 -3.9041 0.545286 0
M  V30 3720 H 343.009 -5.08244 0.237891 0
M  V30 3721 H 342.407 -4.83679 -2.93379 0
M  V30 3722 H 340.964 -5.76258 -3.04582 0
M  V30 3723 N 344.397 -0.483516 -1.5 0
M  V30 3724 C 345.643 0.0593261 -2.03313 0
M  V30 3725 C 345.998 1.36288 -1.35806 0
M  V30 3726 O 345.291 1.85519 -0.478897 0
M  V30 3727 C 345.485 0.286226 -3.56252 0
M  V30 3728 C 345.314 -0.993788 -4.38582 0
M  V30 3729 C 344.084 -1.54064 -4.81241 0
M  V30 3730 C 346.282 -1.89249 -4.78215 0
M  V30 3731 N 344.264 -2.76838 -5.47936 0
M  V30 3732 C 345.635 -2.96606 -5.44449 0
M  V30 3733 C 347.69 -1.90138 -4.60165 0
M  V30 3734 C 346.393 -4.04857 -5.94544 0
M  V30 3735 C 348.419 -2.97353 -5.1121 0
M  V30 3736 C 347.781 -4.03429 -5.77429 0
M  V30 3737 H 343.88 -0.0186322 -0.781778 0
M  V30 3738 H 346.464 -0.654489 -1.8337 0
M  V30 3739 H 344.635 0.969086 -3.76116 0
M  V30 3740 H 346.367 0.824515 -3.96212 0
M  V30 3741 H 343.122 -1.08813 -4.6093 0
M  V30 3742 H 343.546 -3.39221 -5.85882 0
M  V30 3743 H 348.188 -1.09441 -4.0839 0
M  V30 3744 H 345.906 -4.86363 -6.4535 0
M  V30 3745 H 349.492 -2.99039 -4.99066 0
M  V30 3746 H 348.372 -4.85025 -6.16214 0
M  V30 3747 N 345.875 1.56104 -0.216619 0
M  V30 3748 C 346.823 2.21434 0.712036 0
M  V30 3749 C 347.817 1.19218 1.20348 0
M  V30 3750 O 349.023 1.3731 1.16387 0
M  V30 3751 H 345.398 0.70992 0.248026 0
M  V30 3752 H 347.369 2.98083 0.137558 0
M  V30 3753 C 346.118 2.90434 1.91163 0
M  V30 3754 H 345.441 3.68842 1.54258 0
M  V30 3755 H 346.881 3.39552 2.5393 0
M  V30 3756 C 345.34 1.92635 2.76394 0
M  V30 3757 O 345.87 1.44017 3.74996 0
M  V30 3758 N 344.076 1.60392 2.42328 0
M  V30 3759 H 343.623 2.00122 1.622 0
M  V30 3760 H 343.581 0.952159 2.99635 0
M  V30 3761 N 347.353 -0.0568162 1.57498 0
M  V30 3762 C 348.3 -1.06591 2.04712 0
M  V30 3763 C 349.27 -1.3758 0.930644 0
M  V30 3764 O 350.455 -1.48392 1.19935 0
M  V30 3765 C 347.595 -2.3701 2.50839 0
M  V30 3766 C 346.708 -2.12421 3.76167 0
M  V30 3767 C 345.843 -3.36511 4.11015 0
M  V30 3768 C 344.882 -3.07353 5.2934 0
M  V30 3769 N 344.019 -4.23816 5.59754 0
M  V30 3770 H 348.859 -0.65631 2.90683 0
M  V30 3771 H 346.396 -0.312481 1.43743 0
M  V30 3772 H 348.354 -3.13175 2.7564 0
M  V30 3773 H 346.984 -2.75744 1.67825 0
M  V30 3774 H 346.036 -1.2688 3.58616 0
M  V30 3775 H 347.348 -1.86894 4.62463 0
M  V30 3776 H 346.502 -4.21062 4.36797 0
M  V30 3777 H 345.241 -3.65128 3.23315 0
M  V30 3778 H 344.246 -2.212 5.03339 0
M  V30 3779 H 345.471 -2.80043 6.1867 0
M  V30 3780 H 343.417 -4.52436 4.75014 0
M  V30 3781 H 343.334 -4.01614 6.40501 0
M  V30 3782 H 344.602 -5.0932 5.90096 0
M  V30 3783 N 348.832 -1.54138 -0.328536 0
M  V30 3784 C 350.078 -1.7236 -1.06865 0
M  V30 3785 C 350.411 -0.493231 -1.87832 0
M  V30 3786 O 349.686 0.5098 -1.877 0
M  V30 3787 C 349.969 -2.99621 -1.99747 0
M  V30 3788 C 349.822 -4.32899 -1.22143 0
M  V30 3789 C 351.141 -3.22615 -2.99345 0
M  V30 3790 H 348.26 -0.627151 -0.387105 0
M  V30 3791 H 350.902 -1.86827 -0.345767 0
M  V30 3792 H 349.052 -2.87418 -2.61387 0
M  V30 3793 H 350.724 -4.56978 -0.630017 0
M  V30 3794 H 348.967 -4.30628 -0.523628 0
M  V30 3795 H 349.638 -5.18154 -1.90318 0
M  V30 3796 H 352.114 -3.34248 -2.47826 0
M  V30 3797 H 350.99 -4.13027 -3.61524 0
M  V30 3798 H 351.251 -2.3961 -3.71536 0
M  V30 3799 N 350.31 0.590341 -1.46126 0
M  V30 3800 C 351.559 1.34499 -1.50309 0
M  V30 3801 C 351.872 1.94977 -0.156021 0
M  V30 3802 O 353.078 2.71395 -0.0756037 0
M  V30 3803 C 351.534 2.43723 -2.64815 0
M  V30 3804 C 351.142 1.89582 -4.0591 0
M  V30 3805 C 352.886 3.20579 -2.78262 0
M  V30 3806 C 350.793 2.9639 -5.11769 0
M  V30 3807 H 349.723 0.505593 -0.559368 0
M  V30 3808 H 352.374 0.630848 -1.72315 0
M  V30 3809 H 350.756 3.17902 -2.36124 0
M  V30 3810 H 351.93 1.21997 -4.44357 0
M  V30 3811 H 350.245 1.25418 -3.97063 0
M  V30 3812 H 352.842 4.00276 -3.54519 0
M  V30 3813 H 353.185 3.72684 -1.85505 0
M  V30 3814 H 353.718 2.53505 -3.06562 0
M  V30 3815 H 350.457 2.49181 -6.06291 0
M  V30 3816 H 349.977 3.62487 -4.77873 0
M  V30 3817 H 351.656 3.60474 -5.37278 0
M  V30 3818 N 351.788 1.33704 0.83433 0
M  V30 3819 C 352.698 1.26382 1.97648 0
M  V30 3820 C 353.714 0.173548 1.73132 0
M  V30 3821 O 354.89 0.397962 1.97429 0
M  V30 3822 C 351.955 1.00769 3.31733 0
M  V30 3823 C 351.016 2.1884 3.69334 0
M  V30 3824 C 350.249 1.9444 4.9702 0
M  V30 3825 O 350.472 0.896961 5.63303 0
M  V30 3826 O 349.406 2.81093 5.32231 0
M  V30 3827 H 353.232 2.22444 2.06767 0
M  V30 3828 H 350.817 1.13795 0.968037 0
M  V30 3829 H 352.699 0.882186 4.12062 0
M  V30 3830 H 351.374 0.0773783 3.23608 0
M  V30 3831 H 350.281 2.36946 2.89495 0
M  V30 3832 H 351.614 3.10221 3.82131 0
M  V30 3833 N 353.266 -1.05314 1.17247 0
M  V30 3834 C 354.198 -2.13023 0.845812 0
M  V30 3835 C 355.211 -1.62096 -0.151246 0
M  V30 3836 O 356.4 -1.78343 0.0748818 0
M  V30 3837 C 353.5 -3.38047 0.240292 0
M  V30 3838 C 352.673 -4.18255 1.27991 0
M  V30 3839 C 351.732 -5.21625 0.692375 0
M  V30 3840 O 350.758 -5.52619 1.36385 0
M  V30 3841 N 351.96 -5.78201 -0.516178 0
M  V30 3842 H 354.725 -2.41642 1.77283 0
M  V30 3843 H 352.286 -1.21401 1.07115 0
M  V30 3844 H 354.278 -4.04359 -0.16603 0
M  V30 3845 H 352.848 -3.06972 -0.590487 0
M  V30 3846 H 352.068 -3.47451 1.86203 0
M  V30 3847 H 353.356 -4.68643 1.98119 0
M  V30 3848 H 352.754 -5.55301 -1.07969 0
M  V30 3849 H 351.311 -6.4604 -0.86458 0
M  V30 3850 N 354.744 -0.972509 -1.24016 0
M  V30 3851 C 355.674 -0.525548 -2.27509 0
M  V30 3852 C 356.655 0.437262 -1.64384 0
M  V30 3853 O 357.84 0.332343 -1.91335 0
M  V30 3854 C 354.97 0.180448 -3.46831 0
M  V30 3855 C 353.924 -0.698859 -4.22256 0
M  V30 3856 C 353.25 0.138903 -5.3452 0
M  V30 3857 C 354.55 -1.98582 -4.83076 0
M  V30 3858 H 356.244 -1.39058 -2.65148 0
M  V30 3859 H 353.79 -0.67009 -1.27459 0
M  V30 3860 H 355.743 0.504387 -4.18371 0
M  V30 3861 H 354.467 1.07987 -3.08231 0
M  V30 3862 H 353.126 -1.00614 -3.52523 0
M  V30 3863 H 352.774 1.03862 -4.9216 0
M  V30 3864 H 352.474 -0.446259 -5.85903 0
M  V30 3865 H 353.998 0.457404 -6.08884 0
M  V30 3866 H 355.412 -1.72715 -5.46665 0
M  V30 3867 H 353.809 -2.5181 -5.44713 0
M  V30 3868 H 354.879 -2.67769 -4.04262 0
M  V30 3869 N 356.222 1.38976 -0.743202 0
M  V30 3870 C 357.47 1.99948 -0.29417 0
M  V30 3871 C 357.791 1.59279 1.12495 0
M  V30 3872 O 357.061 0.844808 1.76748 0
M  V30 3873 H 355.641 0.739473 -0.105774 0
M  V30 3874 H 358.303 1.699 -0.954986 0
M  V30 3875 H 357.399 3.10142 -0.349056 0
M  V30 3876 N 357.7 0.491464 1.49741 0
M  V30 3877 C 358.928 -0.0535151 2.06831 0
M  V30 3878 C 359.343 -1.31683 1.35296 0
M  V30 3879 O 358.7 -1.77402 0.42836 0
M  V30 3880 C 358.751 -0.320835 3.60073 0
M  V30 3881 O 358.472 0.892394 4.28915 0
M  V30 3882 C 359.973 -0.910519 4.33848 0
M  V30 3883 H 357.193 0.0161909 0.670805 0
M  V30 3884 H 359.737 0.68609 1.92647 0
M  V30 3885 H 357.892 -1.0104 3.73991 0
M  V30 3886 H 358.306 0.649401 5.20464 0
M  V30 3887 H 359.78 -1.04721 5.41976 0
M  V30 3888 H 360.257 -1.90589 3.95692 0
M  V30 3889 H 360.863 -0.258712 4.24512 0
M  V30 3890 N 359.178 -1.55987 0.224894 0
M  V30 3891 C 360.589 -1.84553 -0.282345 0
M  V30 3892 C 360.94 -1.14634 -1.59227 0
M  V30 3893 O 360.065 -0.417155 -2.12341 0
M  V30 3894 C 360.66 -3.348 -0.519062 0
M  V30 3895 C 359.219 -3.63671 -0.970604 0
M  V30 3896 C 358.366 -2.77277 -0.0355261 0
M  V30 3897 H 361.317 -1.52245 0.448006 0
M  V30 3898 H 361.338 -3.55187 -1.36463 0
M  V30 3899 H 360.85 -3.8566 0.43449 0
M  V30 3900 H 358.951 -3.1827 -1.9374 0
M  V30 3901 H 359.064 -4.71631 -0.842698 0
M  V30 3902 H 357.428 -2.48846 -0.542927 0
M  V30 3903 H 358.211 -3.30937 0.913003 0
M  V30 3904 N 360.656 0.0484629 -1.57525 0
M  V30 3905 C 361.881 0.759177 -1.93006 0
M  V30 3906 C 362.306 1.69125 -0.823317 0
M  V30 3907 O 361.664 1.79931 0.222364 0
M  V30 3908 C 361.712 1.50899 -3.27509 0
M  V30 3909 O 360.816 2.62112 -3.18388 0
M  V30 3910 H 360.157 0.205564 -0.631379 0
M  V30 3911 H 362.687 0.00972959 -2.04598 0
M  V30 3912 H 362.697 1.88317 -3.6194 0
M  V30 3913 H 361.372 0.825269 -4.0763 0
M  V30 3914 H 359.949 2.27379 -2.95556 0
M  V30 3915 N 362.134 1.5431 0.320358 0
M  V30 3916 C 363.097 1.83195 1.3774 0
M  V30 3917 C 364.097 0.703906 1.44575 0
M  V30 3918 O 365.287 0.972214 1.44546 0
M  V30 3919 C 362.419 1.99487 2.76438 0
M  V30 3920 H 363.612 2.77642 1.1338 0
M  V30 3921 H 361.165 1.46076 0.556012 0
M  V30 3922 H 361.9 1.07262 3.06048 0
M  V30 3923 H 361.685 2.81575 2.7287 0
M  V30 3924 H 363.175 2.23271 3.52902 0
M  V30 3925 N 363.613 -0.582584 1.46437 0
M  V30 3926 C 364.523 -1.71949 1.59595 0
M  V30 3927 C 365.539 -1.67264 0.479443 0
M  V30 3928 O 366.715 -1.87171 0.743579 0
M  V30 3929 C 363.78 -3.08452 1.58298 0
M  V30 3930 C 362.841 -3.244 2.81182 0
M  V30 3931 C 362.074 -4.54391 2.79937 0
M  V30 3932 O 362.297 -5.38287 1.8869 0
M  V30 3933 O 361.231 -4.73588 3.71481 0
M  V30 3934 H 365.057 -1.63795 2.55744 0
M  V30 3935 H 362.642 -0.749643 1.29231 0
M  V30 3936 H 364.524 -3.89732 1.60271 0
M  V30 3937 H 363.199 -3.17043 0.653094 0
M  V30 3938 H 362.106 -2.42613 2.84763 0
M  V30 3939 H 363.439 -3.20699 3.7338 0
M  V30 3940 N 365.091 -1.34144 -0.827227 0
M  V30 3941 C 366.338 -1.26258 -1.58319 0
M  V30 3942 C 366.666 0.168595 -1.93768 0
M  V30 3943 O 365.921 1.12877 -1.59866 0
M  V30 3944 C 366.22 -2.09464 -2.89585 0
M  V30 3945 C 365.886 -3.58521 -2.73448 0
M  V30 3946 C 364.548 -3.99155 -2.68754 0
M  V30 3947 C 366.9 -4.53189 -2.57428 0
M  V30 3948 C 364.228 -5.32656 -2.45957 0
M  V30 3949 C 366.58 -5.86864 -2.36163 0
M  V30 3950 C 365.244 -6.26667 -2.29879 0
M  V30 3951 H 364.514 -0.462013 -0.579332 0
M  V30 3952 H 367.161 -1.65845 -0.95748 0
M  V30 3953 H 365.466 -1.62692 -3.56425 0
M  V30 3954 H 367.163 -2.00712 -3.47154 0
M  V30 3955 H 363.753 -3.26264 -2.77939 0
M  V30 3956 H 367.937 -4.22696 -2.60081 0
M  V30 3957 H 363.193 -5.62519 -2.39546 0
M  V30 3958 H 367.367 -6.59813 -2.22754 0
M  V30 3959 H 364.994 -7.30049 -2.11975 0
M  V30 3960 N 366.569 1.04691 -1.17803 0
M  V30 3961 C 367.502 2.12068 -0.842765 0
M  V30 3962 C 368.48 1.61455 0.192608 0
M  V30 3963 O 369.664 1.88359 0.072995 0
M  V30 3964 C 366.791 3.37715 -0.258063 0
M  V30 3965 C 365.837 4.07164 -1.26962 0
M  V30 3966 S 366.67 4.55047 -2.82299 0
M  V30 3967 C 367.826 5.83935 -2.25323 0
M  V30 3968 H 368.059 2.4018 -1.75217 0
M  V30 3969 H 365.592 1.17366 -1.00323 0
M  V30 3970 H 367.55 4.10435 0.0727935 0
M  V30 3971 H 366.211 3.0773 0.629357 0
M  V30 3972 H 365.404 4.9746 -0.809263 0
M  V30 3973 H 365.006 3.40533 -1.54639 0
M  V30 3974 H 367.298 6.57552 -1.63192 0
M  V30 3975 H 368.241 6.34725 -3.13894 0
M  V30 3976 H 368.649 5.3874 -1.68582 0
M  V30 3977 N 368.047 0.979072 1.23499 0
M  V30 3978 C 368.994 0.517904 2.24914 0
M  V30 3979 C 369.964 -0.442525 1.60097 0
M  V30 3980 O 371.149 -0.350365 1.87556 0
M  V30 3981 C 368.289 -0.174813 3.44657 0
M  V30 3982 C 367.402 0.825721 4.24035 0
M  V30 3983 C 366.537 0.107946 5.3109 0
M  V30 3984 C 365.576 1.09778 6.02175 0
M  V30 3985 N 364.713 0.40925 7.00906 0
M  V30 3986 H 369.553 1.38751 2.63727 0
M  V30 3987 H 367.09 0.695303 1.2963 0
M  V30 3988 H 369.048 -0.593233 4.12961 0
M  V30 3989 H 367.678 -1.0083 3.06648 0
M  V30 3990 H 366.73 1.36253 3.55161 0
M  V30 3991 H 368.042 1.58005 4.73113 0
M  V30 3992 H 367.196 -0.367904 6.05583 0
M  V30 3993 H 365.935 -0.678994 4.8295 0
M  V30 3994 H 364.94 1.5844 5.26476 0
M  V30 3995 H 366.165 1.88536 6.52404 0
M  V30 3996 H 364.111 -0.358506 6.5502 0
M  V30 3997 H 364.028 1.10226 7.47921 0
M  V30 3998 H 365.296 -0.0442557 7.79487 0
M  V30 3999 N 369.525 -1.3858 0.750561 0
M  V30 4000 C 370.472 -2.30483 0.120835 0
M  V30 4001 C 371.442 -1.50022 -0.712923 0
M  V30 4002 O 372.627 -1.78662 -0.669676 0
M  V30 4003 C 369.767 -3.36431 -0.768666 0
M  V30 4004 C 368.88 -4.31927 0.0793922 0
M  V30 4005 C 368.015 -5.24944 -0.81283 0
M  V30 4006 C 367.054 -6.12088 0.0390447 0
M  V30 4007 N 366.191 -6.97412 -0.809969 0
M  V30 4008 H 371.031 -2.83761 0.91015 0
M  V30 4009 H 368.568 -1.39707 0.460463 0
M  V30 4010 H 370.526 -3.96462 -1.29898 0
M  V30 4011 H 369.156 -2.8457 -1.5238 0
M  V30 4012 H 368.208 -3.73382 0.727303 0
M  V30 4013 H 369.52 -4.93319 0.737401 0
M  V30 4014 H 368.674 -5.90078 -1.41042 0
M  V30 4015 H 367.413 -4.63911 -1.50458 0
M  V30 4016 H 366.418 -5.45952 0.649328 0
M  V30 4017 H 367.643 -6.75189 0.727809 0
M  V30 4018 H 365.589 -6.38931 -1.48672 0
M  V30 4019 H 365.506 -7.55712 -0.208789 0
M  V30 4020 H 366.774 -7.66959 -1.39263 0
M  V30 4021 N 371.003 -0.499398 -1.49478 0
M  V30 4022 C 371.933 0.269244 -2.31943 0
M  V30 4023 C 372.914 0.964054 -1.40143 0
M  V30 4024 O 374.099 0.955767 -1.69052 0
M  V30 4025 C 371.229 1.33504 -3.20615 0
M  V30 4026 C 370.183 0.760202 -4.21195 0
M  V30 4027 C 369.509 1.9264 -4.98792 0
M  V30 4028 C 370.809 -0.247661 -5.21712 0
M  V30 4029 H 372.503 -0.419082 -2.96452 0
M  V30 4030 H 370.049 -0.202988 -1.42562 0
M  V30 4031 H 372.002 1.88048 -3.77115 0
M  V30 4032 H 370.726 2.05253 -2.54045 0
M  V30 4033 H 369.385 0.23653 -3.65836 0
M  V30 4034 H 369.033 2.63154 -4.28671 0
M  V30 4035 H 368.733 1.54785 -5.66847 0
M  V30 4036 H 370.257 2.4762 -5.58137 0
M  V30 4037 H 371.671 0.209579 -5.72917 0
M  V30 4038 H 370.068 -0.541962 -5.97648 0
M  V30 4039 H 371.138 -1.16409 -4.7072 0
M  V30 4040 N 372.481 1.55866 -0.233164 0
M  V30 4041 C 373.413 2.18099 0.704668 0
M  V30 4042 C 374.426 1.15334 1.14899 0
M  V30 4043 O 375.615 1.42262 1.07814 0
M  V30 4044 C 372.715 2.7592 1.96777 0
M  V30 4045 C 371.888 4.03969 1.67713 0
M  V30 4046 C 370.947 4.46242 2.78845 0
M  V30 4047 O 369.973 5.12903 2.46818 0
M  V30 4048 N 371.175 4.12886 4.08051 0
M  V30 4049 H 373.94 2.99205 0.172258 0
M  V30 4050 H 371.501 1.61815 -0.0525945 0
M  V30 4051 H 373.493 3.01165 2.70337 0
M  V30 4052 H 372.063 1.99051 2.41034 0
M  V30 4053 H 371.283 3.86459 0.777391 0
M  V30 4054 H 372.571 4.8748 1.4574 0
M  V30 4055 H 371.969 3.59342 4.3691 0
M  V30 4056 H 370.526 4.42997 4.78118 0
M  V30 4057 N 373.959 -0.0401083 1.57549 0
M  V30 4058 C 375.37 -0.588097 1.77196 0
M  V30 4059 C 375.721 -1.76209 0.862832 0
M  V30 4060 O 374.846 -2.16331 0.0548389 0
M  V30 4061 C 375.441 -1.07363 3.21339 0
M  V30 4062 C 374 -1.56723 3.42221 0
M  V30 4063 C 373.147 -0.50041 2.72747 0
M  V30 4064 H 376.098 0.186119 1.57605 0
M  V30 4065 H 376.119 -1.94143 3.27244 0
M  V30 4066 H 375.631 -0.218975 3.87482 0
M  V30 4067 H 373.732 -2.4441 2.81237 0
M  V30 4068 H 373.845 -1.62234 4.50796 0
M  V30 4069 H 372.209 -0.952894 2.36203 0
M  V30 4070 H 372.992 0.344599 3.41566 0
M  V30 4071 N 375.437 -1.54477 -0.31217 0
M  V30 4072 C 376.665 -1.77205 -1.068 0
M  V30 4073 C 377.08 -0.526114 -1.81321 0
M  V30 4074 O 376.437 0.503647 -1.75413 0
M  V30 4075 C 376.488 -2.97253 -2.05725 0
M  V30 4076 O 376.209 -4.1703 -1.34228 0
M  V30 4077 C 377.71 -3.32281 -2.93435 0
M  V30 4078 H 374.93 -0.591287 -0.317208 0
M  V30 4079 H 377.474 -2.01398 -0.354834 0
M  V30 4080 H 375.629 -2.753 -2.72559 0
M  V30 4081 H 376.043 -4.84636 -2.00571 0
M  V30 4082 H 377.517 -4.19551 -3.58721 0
M  V30 4083 H 377.994 -2.49945 -3.61143 0
M  V30 4084 H 378.6 -3.56353 -2.32147 0
M  V30 4085 N 376.915 0.57481 -1.46744 0
M  V30 4086 C 378.161 1.3347 -1.52688 0
M  V30 4087 C 378.494 1.93353 -0.181229 0
M  V30 4088 O 377.769 1.76912 0.808237 0
M  V30 4089 C 378.052 2.45811 -2.63152 0
M  V30 4090 C 377.905 1.90912 -4.07275 0
M  V30 4091 C 379.224 3.47822 -2.69644 0
M  V30 4092 H 376.343 0.483935 -0.555856 0
M  V30 4093 H 378.985 0.644968 -1.78718 0
M  V30 4094 H 377.135 3.04646 -2.41088 0
M  V30 4095 H 378.807 1.36473 -4.4065 0
M  V30 4096 H 377.05 1.21691 -4.16382 0
M  V30 4097 H 377.721 2.72042 -4.80309 0
M  V30 4098 H 380.197 2.9888 -2.895 0
M  V30 4099 H 379.073 4.23876 -3.48742 0
M  V30 4100 H 379.334 4.05555 -1.76005 0
M  V30 4101 N 378.394 1.34581 0.820102 0
M  V30 4102 C 379.81 1.14325 1.11364 0
M  V30 4103 C 380.01 -0.0533648 2.01429 0
M  V30 4104 O 379.066 -0.728044 2.41776 0
M  V30 4105 C 380.379 2.43983 1.75764 0
M  V30 4106 C 381.927 2.50065 1.88246 0
M  V30 4107 C 382.402 3.79732 2.56061 0
M  V30 4108 N 383.893 3.80908 2.63558 0
M  V30 4109 C 384.628 4.77961 3.16766 0
M  V30 4110 N 384.124 5.85397 3.70517 0
M  V30 4111 N 385.917 4.65413 3.15194 0
M  V30 4112 H 378.068 2.11246 0.221096 0
M  V30 4113 H 380.331 0.934289 0.160649 0
M  V30 4114 H 380.037 3.31651 1.1705 0
M  V30 4115 H 379.911 2.57531 2.75604 0
M  V30 4116 H 382.298 1.62834 2.46108 0
M  V30 4117 H 382.379 2.40442 0.873006 0
M  V30 4118 H 382.023 4.67354 1.98853 0
M  V30 4119 H 381.953 3.86639 3.57516 0
M  V30 4120 H 384.444 3.03274 2.25463 0
M  V30 4121 H 384.757 6.55463 4.09376 0
M  V30 4122 H 383.102 5.89107 3.68752 0
M  V30 4123 H 386.293 3.80627 2.72471 0
M  V30 4124 H 386.466 5.41216 3.56356 0
M  V30 4125 N 379.872 -1.04064 1.18357 0
M  V30 4126 C 380.82 -2.14187 0.907007 0
M  V30 4127 C 381.814 -1.68879 -0.132725 0
M  V30 4128 O 383.02 -1.79993 0.0154248 0
M  V30 4129 H 379.395 -0.699585 0.275835 0
M  V30 4130 H 381.366 -2.34711 1.84264 0
M  V30 4131 C 380.115 -3.44785 0.449254 0
M  V30 4132 H 379.438 -3.80058 1.24081 0
M  V30 4133 H 380.878 -4.22974 0.294737 0
M  V30 4134 C 379.337 -3.26391 -0.834909 0
M  V30 4135 O 379.867 -3.53973 -1.89911 0
M  V30 4136 N 378.073 -2.79726 -0.787523 0
M  V30 4137 H 377.62 -2.5748 0.0787347 0
M  V30 4138 H 377.578 -2.67798 -1.64716 0
M  V30 4139 N 381.35 -0.985608 -1.22978 0
M  V30 4140 C 382.58 -0.674603 -1.95276 0
M  V30 4141 C 382.988 0.763483 -1.73111 0
M  V30 4142 O 382.331 1.52601 -1.02268 0
M  V30 4143 C 382.393 -0.891597 -3.48268 0
M  V30 4144 C 382.057 -2.31275 -3.94158 0
M  V30 4145 C 383.054 -3.29179 -4.02415 0
M  V30 4146 C 380.739 -2.64524 -4.27004 0
M  V30 4147 C 382.733 -4.58407 -4.42879 0
M  V30 4148 C 380.42 -3.93974 -4.67149 0
M  V30 4149 C 381.418 -4.90727 -4.75053 0
M  V30 4150 O 381.106 -6.17865 -5.14294 0
M  V30 4151 H 380.838 -0.249251 -0.628371 0
M  V30 4152 H 383.392 -1.32106 -1.5728 0
M  V30 4153 H 381.622 -0.187962 -3.86243 0
M  V30 4154 H 383.311 -0.576957 -4.01779 0
M  V30 4155 H 384.077 -3.04823 -3.77237 0
M  V30 4156 H 379.956 -1.89923 -4.2006 0
M  V30 4157 H 383.5 -5.33926 -4.48964 0
M  V30 4158 H 379.397 -4.18122 -4.91777 0
M  V30 4159 H 380.165 -6.21694 -5.32389 0
M  V30 4160 N 382.828 1.3818 -0.7579 0
M  V30 4161 C 384.074 2.00316 -0.316453 0
M  V30 4162 C 384.407 1.60026 1.10025 0
M  V30 4163 O 383.682 0.839835 1.75434 0
M  V30 4164 C 383.965 3.57349 -0.444245 0
M  V30 4165 C 383.818 4.07591 -1.90236 0
M  V30 4166 C 385.137 4.3981 0.1598 0
M  V30 4167 H 382.256 0.727741 -0.116459 0
M  V30 4168 H 384.898 1.6406 -0.958352 0
M  V30 4169 H 383.048 3.88365 0.102233 0
M  V30 4170 H 384.72 3.87199 -2.50748 0
M  V30 4171 H 382.963 3.60297 -2.41595 0
M  V30 4172 H 383.634 5.16677 -1.94291 0
M  V30 4173 H 386.11 4.14971 -0.306314 0
M  V30 4174 H 384.986 5.48885 0.0401675 0
M  V30 4175 H 385.247 4.24102 1.24859 0
M  V30 4176 N 384.306 0.507319 1.49211 0
M  V30 4177 C 385.216 -0.272136 2.33016 0
M  V30 4178 C 386.232 -0.961206 1.45041 0
M  V30 4179 O 387.408 -0.941191 1.78055 0
M  V30 4180 C 384.473 -1.31895 3.20631 0
M  V30 4181 C 383.534 -0.642648 4.24463 0
M  V30 4182 C 382.767 -1.63959 5.07891 0
M  V30 4183 O 382.99 -2.87007 4.92933 0
M  V30 4184 O 381.924 -1.19143 5.8999 0
M  V30 4185 H 385.75 0.413982 3.00865 0
M  V30 4186 H 383.335 0.268556 1.46966 0
M  V30 4187 H 385.217 -1.92446 3.7489 0
M  V30 4188 H 383.892 -1.98788 2.5547 0
M  V30 4189 H 382.799 0.00276252 3.741 0
M  V30 4190 H 384.132 -0.0160534 4.92197 0
M  V30 4191 N 385.784 -1.5574 0.241426 0
M  V30 4192 C 386.732 -2.22538 -0.676718 0
M  V30 4193 C 387.726 -1.21117 -1.18436 0
M  V30 4194 O 388.932 -1.39144 -1.14188 0
M  V30 4195 H 385.307 -0.713776 -0.236701 0
M  V30 4196 H 387.278 -2.98264 -0.0901187 0
M  V30 4197 C 386.027 -2.93439 -1.86518 0
M  V30 4198 H 385.35 -3.7125 -1.4837 0
M  V30 4199 H 386.79 -3.43549 -2.48495 0
M  V30 4200 C 385.249 -1.97008 -2.73294 0
M  V30 4201 O 385.779 -1.49965 -3.72657 0
M  V30 4202 N 383.985 -1.64227 -2.39745 0
M  V30 4203 H 383.532 -2.02677 -1.58996 0
M  V30 4204 H 383.49 -0.999708 -2.98083 0
M  V30 4205 N 387.262 0.0317525 -1.57568 0
M  V30 4206 C 388.678 0.38735 -1.54828 0
M  V30 4207 C 388.878 1.7677 -0.967187 0
M  V30 4208 O 387.934 2.45581 -0.587063 0
M  V30 4209 C 389.247 0.291667 -2.99282 0
M  V30 4210 C 390.795 0.368946 -3.10818 0
M  V30 4211 C 391.27 0.302741 -4.56998 0
M  V30 4212 N 392.761 0.361617 -4.61786 0
M  V30 4213 C 393.496 0.333238 -5.72431 0
M  V30 4214 N 392.992 0.257308 -6.92322 0
M  V30 4215 N 394.785 0.382769 -5.60795 0
M  V30 4216 H 386.936 -0.871609 -1.93692 0
M  V30 4217 H 389.199 -0.331161 -0.888277 0
M  V30 4218 H 388.905 -0.656794 -3.45513 0
M  V30 4219 H 388.779 1.08638 -3.61217 0
M  V30 4220 H 391.166 1.30784 -2.64536 0
M  V30 4221 H 391.247 -0.455066 -2.5172 0
M  V30 4222 H 390.891 -0.632473 -5.03947 0
M  V30 4223 H 390.821 1.14482 -5.14005 0
M  V30 4224 H 393.312 0.422923 -3.75526 0
M  V30 4225 H 393.625 0.24068 -7.72425 0
M  V30 4226 H 391.97 0.223396 -6.94641 0
M  V30 4227 H 395.161 0.44006 -4.66027 0
M  V30 4228 H 395.334 0.357184 -6.47015 0
M  V30 4229 N 388.74 1.54641 0.303973 0
M  V30 4230 C 390.151 1.64811 0.877163 0
M  V30 4231 C 390.502 0.554838 1.88191 0
M  V30 4232 O 389.627 -0.309033 2.14182 0
M  V30 4233 C 390.222 2.9876 1.59775 0
M  V30 4234 C 388.781 3.11061 2.11938 0
M  V30 4235 C 387.928 2.60479 0.951097 0
M  V30 4236 H 390.879 1.58493 0.0810486 0
M  V30 4237 H 390.9 2.90017 2.46314 0
M  V30 4238 H 390.412 3.7831 0.866226 0
M  V30 4239 H 388.513 2.36225 2.88146 0
M  V30 4240 H 388.626 4.17171 2.35595 0
M  V30 4241 H 386.99 2.16859 1.33583 0
M  V30 4242 H 387.773 3.42504 0.233581 0
M  V30 4243 N 390.218 -0.567019 1.47046 0
M  V30 4244 C 391.165 -1.67489 1.58796 0
M  V30 4245 C 392.135 -1.60399 0.43144 0
M  V30 4246 O 393.32 -1.79378 0.650233 0
M  V30 4247 C 390.46 -3.05821 1.59899 0
M  V30 4248 C 389.573 -3.2342 2.86397 0
M  V30 4249 C 388.708 -4.52093 2.789 0
M  V30 4250 C 387.747 -4.6309 4.00267 0
M  V30 4251 N 386.884 -5.83106 3.91064 0
M  V30 4252 H 391.724 -1.56785 2.53422 0
M  V30 4253 H 389.261 -0.763896 1.2571 0
M  V30 4254 H 391.219 -3.8591 1.58522 0
M  V30 4255 H 389.849 -3.15384 0.687929 0
M  V30 4256 H 388.901 -2.3683 2.97684 0
M  V30 4257 H 390.213 -3.27412 3.76301 0
M  V30 4258 H 389.367 -5.4043 2.75718 0
M  V30 4259 H 388.106 -4.50565 1.86662 0
M  V30 4260 H 387.111 -3.73168 4.03765 0
M  V30 4261 H 388.336 -4.66386 4.93621 0
M  V30 4262 H 386.282 -5.82546 3.01623 0
M  V30 4263 H 386.199 -5.88434 4.74638 0
M  V30 4264 H 387.467 -6.73831 3.91882 0
M  V30 4265 N 391.696 -1.35014 -0.812953 0
M  V30 4266 C 392.926 -1.30841 -1.59888 0
M  V30 4267 C 393.334 0.117576 -1.88834 0
M  V30 4268 O 392.677 1.07807 -1.48739 0
M  V30 4269 C 392.739 -2.0412 -2.95931 0
M  V30 4270 C 392.403 -3.53336 -2.89832 0
M  V30 4271 C 393.4 -4.48052 -2.63714 0
M  V30 4272 C 391.085 -3.95894 -3.0915 0
M  V30 4273 C 393.079 -5.833 -2.56982 0
M  V30 4274 C 390.766 -5.31239 -3.0204 0
M  V30 4275 C 391.764 -6.24754 -2.75991 0
M  V30 4276 O 391.452 -7.57617 -2.68833 0
M  V30 4277 H 391.184 -0.451215 -0.50337 0
M  V30 4278 H 393.738 -1.78354 -1.01877 0
M  V30 4279 H 391.968 -1.51235 -3.559 0
M  V30 4280 H 393.657 -1.93107 -3.57022 0
M  V30 4281 H 394.423 -4.16492 -2.48515 0
M  V30 4282 H 390.302 -3.23495 -3.28438 0
M  V30 4283 H 393.846 -6.56263 -2.36569 0
M  V30 4284 H 389.743 -5.62415 -3.16796 0
M  V30 4285 H 390.511 -7.67469 -2.84487 0
M  V30 4286 N 393.175 1.03435 -1.18907 0
M  V30 4287 C 394.586 1.58195 -0.991523 0
M  V30 4288 C 394.937 1.90801 0.457081 0
M  V30 4289 O 394.062 1.70272 1.33553 0
M  V30 4290 C 394.657 2.87432 -1.79355 0
M  V30 4291 C 393.216 3.38785 -1.64017 0
M  V30 4292 C 392.363 2.12292 -1.78402 0
M  V30 4293 H 395.314 0.860299 -1.33359 0
M  V30 4294 H 395.335 3.58096 -1.28638 0
M  V30 4295 H 394.847 2.63669 -2.84781 0
M  V30 4296 H 392.948 3.67547 -0.611536 0
M  V30 4297 H 393.061 4.12186 -2.44212 0
M  V30 4298 H 391.425 2.23901 -1.2141 0
M  V30 4299 H 392.208 1.90977 -2.85277 0
M  V30 4300 N 394.653 0.992116 1.22453 0
M  V30 4301 C 395.901 0.666215 1.90804 0
M  V30 4302 C 396.222 -0.804152 1.77647 0
M  V30 4303 O 395.492 -1.57629 1.16318 0
M  V30 4304 H 394.072 0.243423 0.706225 0
M  V30 4305 H 396.734 1.25845 1.48825 0
M  V30 4306 H 395.83 0.928069 2.97982 0
M  V30 4307 N 396.131 -1.37776 0.765217 0
M  V30 4308 C 397.38 -1.99092 0.323307 0
M  V30 4309 C 397.693 -1.61434 -1.10446 0
M  V30 4310 O 398.899 -2.15805 -1.64743 0
M  V30 4311 C 397.355 -3.56019 0.527098 0
M  V30 4312 C 396.963 -4.0262 1.96471 0
M  V30 4313 C 398.707 -4.2424 0.148483 0
M  V30 4314 C 396.614 -5.52233 2.11644 0
M  V30 4315 H 395.544 -0.744846 0.117137 0
M  V30 4316 H 398.195 -1.57391 0.943417 0
M  V30 4317 H 396.577 -3.95667 -0.162372 0
M  V30 4318 H 397.751 -3.74234 2.68859 0
M  V30 4319 H 396.066 -3.47161 2.29931 0
M  V30 4320 H 398.663 -5.34159 0.240456 0
M  V30 4321 H 399.006 -4.06446 -0.900422 0
M  V30 4322 H 399.539 -3.89872 0.79025 0
M  V30 4323 H 396.278 -5.74945 3.1483 0
M  V30 4324 H 395.798 -5.82324 1.4373 0
M  V30 4325 H 397.477 -6.18106 1.91193 0
M  V30 4326 N 397.609 -0.515225 -1.4894 0
M  V30 4327 C 398.556 0.255567 -2.29381 0
M  V30 4328 C 399.526 0.947387 -1.36432 0
M  V30 4329 O 400.711 0.951288 -1.65394 0
M  V30 4330 C 397.851 1.30551 -3.19453 0
M  V30 4331 C 396.964 0.624029 -4.27469 0
M  V30 4332 C 396.099 1.65563 -5.0474 0
M  V30 4333 C 395.138 0.956802 -6.04576 0
M  V30 4334 N 394.275 1.93326 -6.74959 0
M  V30 4335 H 399.115 -0.436607 -2.94784 0
M  V30 4336 H 396.652 -0.227154 -1.45336 0
M  V30 4337 H 398.61 1.92639 -3.70062 0
M  V30 4338 H 397.24 1.96626 -2.56004 0
M  V30 4339 H 396.292 -0.110459 -3.8024 0
M  V30 4340 H 397.604 0.0746092 -4.98744 0
M  V30 4341 H 396.758 2.35119 -5.59289 0
M  V30 4342 H 395.497 2.23893 -4.3327 0
M  V30 4343 H 394.502 0.247097 -5.49244 0
M  V30 4344 H 395.727 0.379814 -6.78037 0
M  V30 4345 H 393.673 2.50591 -6.06251 0
M  V30 4346 H 393.59 1.43489 -7.42258 0
M  V30 4347 H 394.858 2.62126 -7.34105 0
M  V30 4348 N 399.087 1.5561 -0.249682 0
M  V30 4349 C 400.334 1.99011 0.374287 0
M  V30 4350 C 400.662 1.13785 1.57744 0
M  V30 4351 O 399.917 0.189326 1.94782 0
M  V30 4352 C 400.216 3.4775 0.824887 0
M  V30 4353 C 399.882 4.50086 -0.270819 0
M  V30 4354 C 398.544 4.77791 -0.571746 0
M  V30 4355 C 400.896 5.11312 -1.01041 0
M  V30 4356 C 398.224 5.63997 -1.61629 0
M  V30 4357 C 400.576 5.98651 -2.0445 0
M  V30 4358 C 399.24 6.24688 -2.35204 0
M  V30 4359 H 398.51 0.728233 0.136961 0
M  V30 4360 H 401.157 1.88122 -0.358087 0
M  V30 4361 H 399.462 3.55985 1.63651 0
M  V30 4362 H 401.159 3.78721 1.31799 0
M  V30 4363 H 397.749 4.28592 -0.026136 0
M  V30 4364 H 401.933 4.89953 -0.791177 0
M  V30 4365 H 397.189 5.82425 -1.85988 0
M  V30 4366 H 401.363 6.45135 -2.62248 0
M  V30 4367 H 398.99 6.91281 -3.16282 0
M  V30 4368 N 400.565 -0.0233959 1.57583 0
M  V30 4369 C 401.475 -1.03907 2.10334 0
M  V30 4370 C 402.491 -1.39257 1.04323 0
M  V30 4371 O 403.667 -1.48462 1.36091 0
M  V30 4372 C 400.732 -2.31938 2.57693 0
M  V30 4373 C 399.793 -2.03117 3.78209 0
M  V30 4374 C 399.026 -3.25043 4.233 0
M  V30 4375 O 399.249 -4.35916 3.67876 0
M  V30 4376 O 398.183 -3.10411 5.15683 0
M  V30 4377 H 402.009 -0.620748 2.97288 0
M  V30 4378 H 399.594 -0.240743 1.47448 0
M  V30 4379 H 401.476 -3.07196 2.88458 0
M  V30 4380 H 400.151 -2.73055 1.73847 0
M  V30 4381 H 399.058 -1.25408 3.52454 0
M  V30 4382 H 400.391 -1.66852 4.63056 0
M  V30 4383 N 402.043 -1.548 -0.295768 0
M  V30 4384 C 402.953 -1.89177 -1.38742 0
M  V30 4385 C 403.969 -0.786481 -1.55211 0
M  V30 4386 O 405.145 -1.08344 -1.69775 0
M  V30 4387 C 402.21 -2.13663 -2.73036 0
M  V30 4388 C 401.271 -3.37349 -2.65508 0
M  V30 4389 C 400.504 -3.60658 -3.93398 0
M  V30 4390 O 400.727 -2.86882 -4.93006 0
M  V30 4391 O 399.661 -4.54179 -3.94975 0
M  V30 4392 H 403.487 -2.82059 -1.12589 0
M  V30 4393 H 401.072 -1.41056 -0.492295 0
M  V30 4394 H 402.954 -2.3094 -3.52484 0
M  V30 4395 H 401.629 -1.23967 -2.99022 0
M  V30 4396 H 400.536 -3.25431 -1.84514 0
M  V30 4397 H 401.869 -4.27192 -2.44474 0
M  V30 4398 N 403.521 0.559213 -1.47345 0
M  V30 4399 C 404.451 1.67622 -1.62558 0
M  V30 4400 C 405.432 1.63331 -0.475087 0
M  V30 4401 O 406.617 1.80983 -0.704182 0
M  V30 4402 C 403.747 3.0626 -1.63774 0
M  V30 4403 C 402.701 3.25397 -2.7803 0
M  V30 4404 C 402.027 4.64801 -2.64318 0
M  V30 4405 C 403.327 3.10965 -4.19641 0
M  V30 4406 H 405.021 1.55146 -2.56067 0
M  V30 4407 H 402.567 0.744961 -1.23233 0
M  V30 4408 H 404.52 3.84247 -1.73008 0
M  V30 4409 H 403.244 3.1969 -0.66825 0
M  V30 4410 H 401.903 2.49817 -2.68304 0
M  V30 4411 H 401.551 4.75028 -1.65401 0
M  V30 4412 H 401.251 4.78555 -3.40968 0
M  V30 4413 H 402.775 5.44926 -2.75478 0
M  V30 4414 H 404.189 3.78772 -4.30354 0
M  V30 4415 H 402.586 3.36229 -4.97062 0
M  V30 4416 H 403.656 2.07736 -4.38148 0
M  V30 4417 N 404.999 1.35443 0.805782 0
M  V30 4418 C 406.246 1.28761 1.56291 0
M  V30 4419 C 406.574 -0.137747 1.94012 0
M  V30 4420 O 405.829 -1.1032 1.61642 0
M  V30 4421 C 406.128 2.14045 2.86216 0
M  V30 4422 C 405.794 3.62826 2.67709 0
M  V30 4423 C 404.456 4.0338 2.6237 0
M  V30 4424 C 406.808 4.57227 2.50186 0
M  V30 4425 C 404.136 5.36501 2.37451 0
M  V30 4426 C 406.488 5.90547 2.26797 0
M  V30 4427 C 405.152 6.30245 2.1988 0
M  V30 4428 H 404.422 0.471171 0.571908 0
M  V30 4429 H 407.069 1.67347 0.930974 0
M  V30 4430 H 405.374 1.68342 3.53791 0
M  V30 4431 H 407.071 2.0621 3.43917 0
M  V30 4432 H 403.661 3.30644 2.72713 0
M  V30 4433 H 407.845 4.2678 2.53323 0
M  V30 4434 H 403.101 5.66259 2.30567 0
M  V30 4435 H 407.275 6.63274 2.12228 0
M  V30 4436 H 404.902 7.33328 2.00333 0
M  V30 4437 N 406.477 -1.02803 1.19454 0
M  V30 4438 C 407.888 -1.57667 0.999899 0
M  V30 4439 C 408.239 -1.91041 -0.446956 0
M  V30 4440 O 407.364 -1.70978 -1.32648 0
M  V30 4441 C 407.959 -2.86477 1.80877 0
M  V30 4442 C 406.518 -3.37911 1.65811 0
M  V30 4443 C 405.665 -2.11343 1.79526 0
M  V30 4444 H 408.616 -0.853214 1.33813 0
M  V30 4445 H 408.637 -3.57408 1.30536 0
M  V30 4446 H 408.149 -2.62155 2.86175 0
M  V30 4447 H 406.25 -3.67218 0.63102 0
M  V30 4448 H 406.363 -4.10885 2.46395 0
M  V30 4449 H 404.727 -2.23254 1.22596 0
M  V30 4450 H 405.51 -1.89461 2.86285 0
M  V30 4451 N 407.956 -0.998596 -1.21925 0
M  V30 4452 C 409.233 -0.593401 -1.86382 0
M  V30 4453 C 409.613 0.92916 -1.89552 0
M  V30 4454 O 408.961 1.81347 -1.39017 0
M  V30 4455 C 409.171 -1.22039 -3.26967 0
M  V30 4456 C 410.519 -1.32449 -4.03413 0
M  V30 4457 O 411.543 -1.17522 -3.36254 0
M  V30 4458 O 410.402 -1.56395 -5.23644 0
M  V30 4459 H 407.496 -0.202385 -0.801854 0
M  V30 4460 H 410.042 -1.09484 -1.29659 0
M  V30 4461 H 408.814 -2.26158 -3.19325 0
M  V30 4462 H 408.437 -0.704906 -3.91301 0
M  V30 4463 N 409.434 1.37368 -0.772513 0
M  V30 4464 C 410.68 2.00423 -0.3467 0
M  V30 4465 C 411.035 1.60224 1.06518 0
M  V30 4466 O 410.328 0.838712 1.72268 0
M  V30 4467 C 410.522 3.54817 -0.428876 0
M  V30 4468 C 410.351 4.10011 -1.84719 0
M  V30 4469 C 409.121 4.40927 -2.46803 0
M  V30 4470 C 411.319 4.30955 -2.80681 0
M  V30 4471 N 409.301 4.8184 -3.80399 0
M  V30 4472 C 410.672 4.74486 -3.99078 0
M  V30 4473 C 412.727 4.1309 -2.77958 0
M  V30 4474 C 411.43 5.02023 -5.15136 0
M  V30 4475 C 413.456 4.41764 -3.9319 0
M  V30 4476 C 412.818 4.85535 -5.10328 0
M  V30 4477 H 408.917 0.762413 -0.173927 0
M  V30 4478 H 411.501 1.66666 -1.00651 0
M  V30 4479 H 409.672 3.87881 0.200757 0
M  V30 4480 H 411.404 4.04696 0.0190668 0
M  V30 4481 H 408.159 4.30033 -1.98415 0
M  V30 4482 H 408.583 5.06604 -4.49089 0
M  V30 4483 H 413.225 3.7842 -1.88568 0
M  V30 4484 H 410.943 5.35582 -6.05126 0
M  V30 4485 H 414.529 4.29528 -3.92425 0
M  V30 4486 H 413.409 5.07296 -5.98013 0
M  V30 4487 N 410.912 0.523116 1.48665 0
M  V30 4488 C 412.161 -0.01544 2.01694 0
M  V30 4489 C 412.474 -1.35975 1.40606 0
M  V30 4490 O 413.68 -1.98627 1.85093 0
M  V30 4491 C 412.136 -0.0779303 3.59816 0
M  V30 4492 C 411.744 1.26107 4.29885 0
M  V30 4493 C 413.488 -0.565678 4.20714 0
M  V30 4494 C 411.395 1.15954 5.79921 0
M  V30 4495 H 410.325 -0.00954163 0.75394 0
M  V30 4496 H 412.976 0.665865 1.70993 0
M  V30 4497 H 411.358 -0.824165 3.87329 0
M  V30 4498 H 412.532 2.02233 4.14051 0
M  V30 4499 H 410.847 1.68401 3.80828 0
M  V30 4500 H 413.444 -0.6595 5.30617 0
M  V30 4501 H 413.787 -1.56984 3.85567 0
M  V30 4502 H 414.32 0.12467 3.97605 0
M  V30 4503 H 411.059 2.13864 6.19631 0
M  V30 4504 H 410.579 0.439529 5.98187 0
M  V30 4505 H 412.258 0.847361 6.41427 0
M  V30 4506 N 412.39 -1.55475 0.257931 0
M  V30 4507 C 413.637 -1.99207 -0.363728 0
M  V30 4508 C 413.965 -1.1462 -1.57139 0
M  V30 4509 O 413.22 -0.199653 -1.94679 0
M  V30 4510 C 413.519 -3.48183 -0.806433 0
M  V30 4511 C 413.185 -4.49936 0.294684 0
M  V30 4512 C 411.847 -4.77481 0.597076 0
M  V30 4513 C 414.199 -5.10769 1.03751 0
M  V30 4514 C 411.527 -5.63132 1.64618 0
M  V30 4515 C 413.879 -5.97558 2.07622 0
M  V30 4516 C 412.543 -6.23432 2.38514 0
M  V30 4517 H 411.813 -0.728949 -0.133097 0
M  V30 4518 H 414.46 -1.8793 0.368059 0
M  V30 4519 H 412.765 -3.56848 -1.61761 0
M  V30 4520 H 414.462 -3.79415 -1.29789 0
M  V30 4521 H 411.052 -4.28572 0.0488649 0
M  V30 4522 H 415.236 -4.89527 0.817149 0
M  V30 4523 H 410.492 -5.8143 1.89074 0
M  V30 4524 H 414.666 -6.43735 2.65666 0
M  V30 4525 H 412.293 -6.89594 3.19943 0
M  V30 4526 N 413.868 0.0150385 -1.57593 0
M  V30 4527 C 415.279 0.559832 -1.78109 0
M  V30 4528 C 415.63 1.74814 -0.890756 0
M  V30 4529 O 414.755 2.16216 -0.0892482 0
M  V30 4530 C 415.35 1.02238 -3.23006 0
M  V30 4531 C 413.909 1.51258 -3.44671 0
M  V30 4532 C 413.056 0.456955 -2.73509 0
M  V30 4533 H 416.007 -0.211169 -1.57289 0
M  V30 4534 H 416.028 1.88912 -3.30292 0
M  V30 4535 H 415.54 0.157302 -3.87781 0
M  V30 4536 H 413.641 2.39905 -2.8509 0
M  V30 4537 H 413.754 1.55042 -4.5332 0
M  V30 4538 H 412.118 0.915196 -2.37689 0
M  V30 4539 H 412.901 -0.398896 -3.40975 0
M  V30 4540 N 415.346 1.54954 0.287554 0
M  V30 4541 C 416.571 1.79209 1.04397 0
M  V30 4542 C 416.996 0.556431 1.79682 0
M  V30 4543 O 416.354 -0.493518 1.74454 0
M  V30 4544 C 416.402 3.00739 1.98969 0
M  V30 4545 O 415.506 2.74805 3.075 0
M  V30 4546 H 414.847 0.592755 0.299227 0
M  V30 4547 H 417.377 2.02068 0.320886 0
M  V30 4548 H 417.387 3.29077 2.4119 0
M  V30 4549 H 416.062 3.90329 1.43582 0
M  V30 4550 H 414.639 2.57523 2.69697 0
M  V30 4551 N 416.824 -0.551391 1.4764 0
M  V30 4552 C 417.734 -1.68525 1.63207 0
M  V30 4553 C 418.75 -1.6621 0.514815 0
M  V30 4554 O 419.926 -1.85551 0.783113 0
M  V30 4555 C 416.991 -3.05025 1.64805 0
M  V30 4556 C 416.052 -3.18362 2.88 0
M  V30 4557 C 415.285 -4.4835 2.89513 0
M  V30 4558 O 415.508 -5.34163 2.00065 0
M  V30 4559 O 414.442 -4.65602 3.81443 0
M  V30 4560 H 418.268 -1.58333 2.59161 0
M  V30 4561 H 415.853 -0.722063 1.30792 0
M  V30 4562 H 417.735 -3.86245 1.68502 0
M  V30 4563 H 416.41 -3.15587 0.720197 0
M  V30 4564 H 415.317 -2.36518 2.89845 0
M  V30 4565 H 416.65 -3.12707 3.80099 0
M  V30 4566 N 418.302 -1.35869 -0.798587 0
M  V30 4567 C 419.527 -1.32883 -1.59238 0
M  V30 4568 C 419.952 0.0894587 -1.87887 0
M  V30 4569 O 419.31 1.05869 -1.47178 0
M  V30 4570 C 419.358 -2.14892 -2.89575 0
M  V30 4571 O 418.462 -1.53512 -3.82763 0
M  V30 4572 H 417.803 -0.455236 -0.48338 0
M  V30 4573 H 420.333 -1.79024 -0.990539 0
M  V30 4574 H 420.343 -2.27139 -3.38928 0
M  V30 4575 H 419.018 -3.17998 -2.68049 0
M  V30 4576 H 417.595 -1.50153 -3.41334 0
M  V30 4577 N 419.78 1.02168 -1.19998 0
M  V30 4578 C 420.69 2.14069 -0.959774 0
M  V30 4579 C 421.706 1.73804 0.082655 0
M  V30 4580 O 422.882 2.01133 -0.103633 0
M  V30 4581 C 419.947 3.42936 -0.509459 0
M  V30 4582 C 419.008 3.97474 -1.62213 0
M  V30 4583 C 418.241 5.2019 -1.19321 0
M  V30 4584 O 418.464 5.70369 -0.0597726 0
M  V30 4585 O 417.398 5.67749 -1.99863 0
M  V30 4586 H 421.224 2.37199 -1.89658 0
M  V30 4587 H 418.809 1.12469 -0.983411 0
M  V30 4588 H 420.691 4.20551 -0.267322 0
M  V30 4589 H 419.366 3.21234 0.398821 0
M  V30 4590 H 418.273 3.21161 -1.9185 0
M  V30 4591 H 419.606 4.23555 -2.50723 0
M  V30 4592 N 421.258 1.00505 1.21394 0
M  V30 4593 C 422.674 0.717873 1.42544 0
M  V30 4594 C 422.874 -0.706936 1.88692 0
M  V30 4595 O 421.93 -1.47627 2.04847 0
M  V30 4596 C 423.243 1.73377 2.45684 0
M  V30 4597 C 424.791 1.75059 2.59467 0
M  V30 4598 C 425.266 2.75545 3.6584 0
M  V30 4599 N 426.757 2.74213 3.73311 0
M  V30 4600 C 427.492 3.48626 4.55245 0
M  V30 4601 N 426.988 4.32678 5.41075 0
M  V30 4602 N 428.781 3.37276 4.49668 0
M  V30 4603 H 420.932 1.92506 0.897503 0
M  V30 4604 H 423.195 0.830919 0.456375 0
M  V30 4605 H 422.901 2.75395 2.18748 0
M  V30 4606 H 422.775 1.53647 3.44489 0
M  V30 4607 H 425.162 0.737337 2.8574 0
M  V30 4608 H 425.243 1.98861 1.60897 0
M  V30 4609 H 424.887 3.77028 3.40313 0
M  V30 4610 H 424.817 2.49009 4.64007 0
M  V30 4611 H 427.308 2.13234 3.11993 0
M  V30 4612 H 427.621 4.86253 6.00648 0
M  V30 4613 H 425.966 4.3676 5.40616 0
M  V30 4614 H 429.157 2.71043 3.81646 0
M  V30 4615 H 429.33 3.95524 5.13288 0
M  V30 4616 N 422.737 -1.36956 0.779787 0
M  V30 4617 C 424.014 -1.93697 0.272156 0
M  V30 4618 C 424.394 -1.71267 -1.23413 0
M  V30 4619 O 423.742 -1.06607 -2.02107 0
M  V30 4620 C 423.952 -3.42812 0.654291 0
M  V30 4621 C 425.3 -4.19921 0.628602 0
M  V30 4622 O 426.324 -3.51209 0.594172 0
M  V30 4623 O 425.183 -5.42465 0.662864 0
M  V30 4624 H 422.277 -0.824447 0.0649286 0
M  V30 4625 H 424.823 -1.46196 0.861682 0
M  V30 4626 H 423.595 -3.52754 1.69353 0
M  V30 4627 H 423.218 -3.97582 0.0381369 0
M  V30 4628 N 424.215 -0.530993 -1.48385 0
M  V30 4629 C 425.162 0.231223 -2.29639 0
M  V30 4630 C 426.132 0.932864 -1.37429 0
M  V30 4631 O 427.317 0.933692 -1.66394 0
M  V30 4632 C 424.457 1.27155 -3.2082 0
M  V30 4633 C 423.57 0.578655 -4.28107 0
M  V30 4634 C 422.705 1.602 -5.06467 0
M  V30 4635 C 421.744 0.892625 -6.05556 0
M  V30 4636 N 420.881 1.86157 -6.76971 0
M  V30 4637 H 425.721 -0.467848 -2.94305 0
M  V30 4638 H 423.258 -0.242556 -1.45086 0
M  V30 4639 H 425.216 1.88703 -3.72085 0
M  V30 4640 H 423.846 1.939 -2.58075 0
M  V30 4641 H 422.898 -0.150782 -3.80101 0
M  V30 4642 H 424.21 0.0217065 -4.98795 0
M  V30 4643 H 423.364 2.29173 -5.61751 0
M  V30 4644 H 422.103 2.19285 -4.35621 0
M  V30 4645 H 421.108 0.188829 -5.49476 0
M  V30 4646 H 422.333 0.307878 -6.78402 0
M  V30 4647 H 420.279 2.44147 -6.08875 0
M  V30 4648 H 420.196 1.35608 -7.43738 0
M  V30 4649 H 421.464 2.54325 -7.36844 0
M  V30 4650 N 425.693 1.55336 -0.266172 0
M  V30 4651 C 426.942 1.98574 0.353749 0
M  V30 4652 C 427.255 1.15789 1.57646 0
M  V30 4653 O 428.461 1.49129 2.26876 0
M  V30 4654 C 426.917 3.53403 0.680747 0
M  V30 4655 C 426.525 4.44953 -0.52165 0
M  V30 4656 C 428.269 4.05251 1.26379 0
M  V30 4657 C 426.176 5.91156 -0.169736 0
M  V30 4658 H 425.106 0.741643 0.135949 0
M  V30 4659 H 427.757 1.79743 -0.369421 0
M  V30 4660 H 426.139 3.68001 1.46257 0
M  V30 4661 H 427.313 4.42121 -1.29869 0
M  V30 4662 H 425.628 4.03691 -1.02093 0
M  V30 4663 H 428.225 5.12021 1.54074 0
M  V30 4664 H 428.568 3.53749 2.19471 0
M  V30 4665 H 429.101 3.94057 0.544447 0
M  V30 4666 H 425.84 6.46736 -1.0683 0
M  V30 4667 H 425.36 5.97079 0.570717 0
M  V30 4668 H 427.039 6.4655 0.241245 0
M  V30 4669 N 427.171 -0.0066808 1.57599 0
M  V30 4670 C 428.118 -1.00024 2.08 0
M  V30 4671 C 429.088 -1.34549 0.973943 0
M  V30 4672 O 430.273 -1.44502 1.24595 0
M  V30 4673 C 427.413 -2.2891 2.58252 0
M  V30 4674 C 426.526 -2.00346 3.82734 0
M  V30 4675 C 425.661 -3.23265 4.21513 0
M  V30 4676 C 424.7 -2.90357 5.3885 0
M  V30 4677 N 423.837 -4.05793 5.72954 0
M  V30 4678 H 428.677 -0.563499 2.92624 0
M  V30 4679 H 426.214 -0.266592 1.44664 0
M  V30 4680 H 428.172 -3.04247 2.85464 0
M  V30 4681 H 426.802 -2.70265 1.76512 0
M  V30 4682 H 425.854 -1.15406 3.62471 0
M  V30 4683 H 427.166 -1.72086 4.68175 0
M  V30 4684 H 426.32 -4.06953 4.49971 0
M  V30 4685 H 425.059 -3.54657 3.34768 0
M  V30 4686 H 424.064 -2.05075 5.10122 0
M  V30 4687 H 425.289 -2.60219 6.27266 0
M  V30 4688 H 423.235 -4.37094 4.89167 0
M  V30 4689 H 423.152 -3.81034 6.52954 0
M  V30 4690 H 424.42 -4.90289 6.06001 0
M  V30 4691 N 428.649 -1.55105 -0.279332 0
M  V30 4692 C 429.877 -1.7943 -1.03017 0
M  V30 4693 C 430.292 -0.564456 -1.80165 0
M  V30 4694 O 429.649 0.466326 -1.76442 0
M  V30 4695 C 429.7 -3.0155 -1.99374 0
M  V30 4696 O 429.421 -4.19784 -1.25352 0
M  V30 4697 C 430.922 -3.3843 -2.86321 0
M  V30 4698 H 428.142 -0.597882 -0.304594 0
M  V30 4699 H 430.686 -2.02105 -0.312035 0
M  V30 4700 H 428.841 -2.81019 -2.66659 0
M  V30 4701 H 429.255 -4.88781 -1.90246 0
M  V30 4702 H 430.729 -4.27066 -3.49741 0
M  V30 4703 H 431.206 -2.57549 -3.5576 0
M  V30 4704 H 431.812 -3.61197 -2.24536 0
M  V30 4705 N 430.127 0.543554 -1.4793 0
M  V30 4706 C 431.352 1.32995 -1.59145 0
M  V30 4707 C 431.777 1.86472 -0.246956 0
M  V30 4708 O 431.135 1.63696 0.779324 0
M  V30 4709 C 431.183 2.46623 -2.63077 0
M  V30 4710 O 430.287 3.49261 -2.19295 0
M  V30 4711 H 429.628 0.394472 -0.534124 0
M  V30 4712 H 432.158 0.655489 -1.93816 0
M  V30 4713 H 432.168 2.93001 -2.83926 0
M  V30 4714 H 430.843 2.07059 -3.60693 0
M  V30 4715 H 429.42 3.09094 -2.08603 0
M  V30 4716 N 431.605 1.3629 0.791371 0
M  V30 4717 C 432.537 1.26321 1.91248 0
M  V30 4718 C 433.55 0.18313 1.61767 0
M  V30 4719 O 434.739 0.437682 1.73051 0
M  V30 4720 C 431.839 0.925901 3.26007 0
M  V30 4721 C 431.012 2.10746 3.83281 0
M  V30 4722 C 430.071 1.74352 4.96475 0
M  V30 4723 O 429.097 2.46416 5.13096 0
M  V30 4724 N 430.299 0.676058 5.7655 0
M  V30 4725 H 433.064 2.22915 2.00323 0
M  V30 4726 H 430.625 1.29659 0.969546 0
M  V30 4727 H 432.617 0.663636 3.99222 0
M  V30 4728 H 431.187 0.0491581 3.12561 0
M  V30 4729 H 430.407 2.53264 3.02077 0
M  V30 4730 H 431.695 2.8969 4.18279 0
M  V30 4731 H 431.093 0.0776467 5.65647 0
M  V30 4732 H 429.65 0.473612 6.50077 0
M  V30 4733 N 433.083 -1.0153 1.20538 0
M  V30 4734 C 434.046 -2.0826 0.957098 0
M  V30 4735 C 435.046 -1.60657 -0.0678655 0
M  V30 4736 O 436.236 -1.73385 0.168332 0
M  V30 4737 C 433.368 -3.38033 0.441188 0
M  V30 4738 H 434.561 -2.31719 1.90384 0
M  V30 4739 H 432.114 -1.1835 1.02093 0
M  V30 4740 H 432.849 -3.20249 -0.510961 0
M  V30 4741 H 432.634 -3.73911 1.18038 0
M  V30 4742 H 434.124 -4.16613 0.287009 0
M  V30 4743 N 434.561 -1.01147 -1.20859 0
M  V30 4744 C 435.977 -0.725422 -1.42161 0
M  V30 4745 C 436.177 0.696919 -1.89064 0
M  V30 4746 O 435.233 1.46539 -2.05627 0
M  V30 4747 C 436.546 -1.74678 -2.44761 0
M  V30 4748 C 438.094 -1.76433 -2.58535 0
M  V30 4749 C 438.569 -2.77481 -3.64374 0
M  V30 4750 N 440.06 -2.76189 -3.71852 0
M  V30 4751 C 440.795 -3.51035 -4.53389 0
M  V30 4752 N 440.291 -4.35541 -5.38773 0
M  V30 4753 N 442.084 -3.39655 -4.47873 0
M  V30 4754 H 434.235 -1.92979 -0.887282 0
M  V30 4755 H 436.498 -0.833327 -0.451962 0
M  V30 4756 H 436.204 -2.76551 -2.17285 0
M  V30 4757 H 436.078 -1.55472 -3.43669 0
M  V30 4758 H 438.465 -0.75248 -2.85345 0
M  V30 4759 H 438.546 -1.99712 -1.5984 0
M  V30 4760 H 438.19 -3.78827 -3.38308 0
M  V30 4761 H 438.12 -2.51466 -4.6268 0
M  V30 4762 H 440.611 -2.14885 -3.10858 0
M  V30 4763 H 440.924 -4.89432 -5.98061 0
M  V30 4764 H 439.269 -4.39621 -5.38292 0
M  V30 4765 H 442.46 -2.73063 -3.80203 0
M  V30 4766 H 442.633 -3.9824 -5.11184 0
M  V30 4767 N 436.039 1.36541 -0.78704 0
M  V30 4768 C 437.316 1.9355 -0.282424 0
M  V30 4769 C 437.696 1.71919 1.22503 0
M  V30 4770 O 437.044 1.07677 2.01539 0
M  V30 4771 C 437.254 3.4246 -0.672462 0
M  V30 4772 C 438.602 4.19582 -0.650863 0
M  V30 4773 O 439.626 3.50889 -0.612789 0
M  V30 4774 O 438.485 5.42106 -0.691623 0
M  V30 4775 H 435.579 0.824091 -0.0693 0
M  V30 4776 H 438.125 1.45736 -0.869423 0
M  V30 4777 H 436.897 3.51851 -1.71221 0
M  V30 4778 H 436.52 3.97556 -0.0592211 0
M  V30 4779 N 437.518 0.538854 1.48102 0
M  V30 4780 C 438.448 -0.207654 2.32575 0
M  V30 4781 C 439.429 -0.926559 1.4265 0
M  V30 4782 O 440.614 -0.91061 1.71527 0
M  V30 4783 C 437.744 -1.24957 3.24042 0
M  V30 4784 C 436.698 -0.648263 4.23062 0
M  V30 4785 C 436.024 -1.79348 5.03725 0
M  V30 4786 C 437.324 0.385897 5.20872 0
M  V30 4787 H 439.018 0.497534 2.95237 0
M  V30 4788 H 436.564 0.240715 1.41974 0
M  V30 4789 H 438.517 -1.77983 3.81969 0
M  V30 4790 H 437.241 -1.98446 2.59397 0
M  V30 4791 H 435.9 -0.139452 3.66335 0
M  V30 4792 H 435.548 -2.51696 4.35498 0
M  V30 4793 H 435.248 -1.39702 5.70751 0
M  V30 4794 H 436.772 -2.32735 5.64506 0
M  V30 4795 H 438.186 -0.057607 5.73271 0
M  V30 4796 H 436.583 0.700227 5.96001 0
M  V30 4797 H 437.653 1.28848 4.67468 0
M  V30 4798 N 438.996 -1.55193 0.274407 0
M  V30 4799 C 439.926 -2.25471 -0.607032 0
M  V30 4800 C 440.907 -1.24461 -1.15946 0
M  V30 4801 O 442.092 -1.53179 -1.19373 0
M  V30 4802 C 439.222 -2.97526 -1.79153 0
M  V30 4803 C 438.176 -4.05459 -1.37067 0
M  V30 4804 C 437.502 -4.65084 -2.6382 0
M  V30 4805 C 438.802 -5.19691 -0.521389 0
M  V30 4806 H 440.496 -2.99393 -0.0209343 0
M  V30 4807 H 438.042 -1.43997 -0.00862866 0
M  V30 4808 H 439.995 -3.45402 -2.41404 0
M  V30 4809 H 438.719 -2.21138 -2.40344 0
M  V30 4810 H 437.378 -3.58393 -0.771355 0
M  V30 4811 H 437.026 -3.85365 -3.23268 0
M  V30 4812 H 436.726 -5.37961 -2.36372 0
M  V30 4813 H 438.25 -5.15708 -3.26921 0
M  V30 4814 H 439.664 -5.63623 -1.04889 0
M  V30 4815 H 438.061 -5.99126 -0.341825 0
M  V30 4816 H 439.131 -4.82713 0.46 0
M  V30 4817 N 440.474 -0.00167713 -1.576 0
M  V30 4818 C 441.699 0.69739 -1.95323 0
M  V30 4819 C 442.124 1.6642 -0.876706 0
M  V30 4820 O 441.482 1.80548 0.165007 0
M  V30 4821 C 441.53 1.40403 -3.32144 0
M  V30 4822 O 440.634 2.5185 -3.26566 0
M  V30 4823 H 439.975 0.185373 -0.637599 0
M  V30 4824 H 442.505 -0.0553665 -2.04525 0
M  V30 4825 H 442.515 1.76707 -3.67748 0
M  V30 4826 H 441.19 0.695167 -4.10049 0
M  V30 4827 H 439.767 2.17861 -3.0264 0
M  V30 4828 N 441.952 1.55251 0.271103 0
M  V30 4829 C 442.899 1.88261 1.33516 0
M  V30 4830 C 443.869 0.734296 1.48988 0
M  V30 4831 O 445.054 0.985741 1.63364 0
M  V30 4832 C 442.194 2.16168 2.69008 0
M  V30 4833 C 441.307 3.43678 2.61743 0
M  V30 4834 C 440.442 3.61276 3.89427 0
M  V30 4835 C 439.481 4.82472 3.7668 0
M  V30 4836 N 438.618 4.96717 4.96202 0
M  V30 4837 H 443.458 2.79015 1.04665 0
M  V30 4838 H 440.995 1.38137 0.505618 0
M  V30 4839 H 442.953 2.30349 3.47844 0
M  V30 4840 H 441.583 1.28646 2.96057 0
M  V30 4841 H 440.635 3.37959 1.74607 0
M  V30 4842 H 441.947 4.3265 2.48224 0
M  V30 4843 H 441.101 3.75284 4.76704 0
M  V30 4844 H 439.84 2.70492 4.05814 0
M  V30 4845 H 438.845 4.68465 2.87786 0
M  V30 4846 H 440.07 5.74692 3.61809 0
M  V30 4847 H 438.016 4.08865 5.12997 0
M  V30 4848 H 437.933 5.79738 4.85222 0
M  V30 4849 H 439.201 5.15113 5.85046 0
M  V30 4850 N 443.43 -0.535701 1.48216 0
M  V30 4851 C 444.363 -1.65726 1.56876 0
M  V30 4852 C 445.341 -1.57094 0.419542 0
M  V30 4853 O 446.525 -1.77648 0.630352 0
M  V30 4854 C 443.652 -3.04096 1.49142 0
M  V30 4855 C 442.698 -3.31105 2.68834 0
M  V30 4856 S 443.531 -3.18001 4.30854 0
M  V30 4857 C 444.687 -4.58828 4.25709 0
M  V30 4858 H 444.92 -1.58129 2.51759 0
M  V30 4859 H 442.453 -0.718218 1.36678 0
M  V30 4860 H 444.411 -3.839 1.45366 0
M  V30 4861 H 443.072 -3.09139 0.556067 0
M  V30 4862 H 442.265 -4.32033 2.59545 0
M  V30 4863 H 441.867 -2.58961 2.69843 0
M  V30 4864 H 444.159 -5.5023 3.95289 0
M  V30 4865 H 445.102 -4.73172 5.26796 0
M  V30 4866 H 445.51 -4.37883 3.56257 0
M  V30 4867 N 444.908 -1.36708 -0.784132 0
M  V30 4868 C 445.838 -1.34153 -1.91116 0
M  V30 4869 C 446.819 -0.212121 -1.68772 0
M  V30 4870 O 448.004 -0.410581 -1.8981 0
M  V30 4871 C 445.134 -1.13535 -3.28218 0
M  V30 4872 C 444.088 -2.23356 -3.65097 0
M  V30 4873 C 443.414 -1.87875 -5.00607 0
M  V30 4874 C 444.714 -3.65473 -3.73131 0
M  V30 4875 H 446.408 -2.28459 -1.93512 0
M  V30 4876 H 443.954 -1.09973 -0.929618 0
M  V30 4877 H 445.907 -1.10381 -4.06687 0
M  V30 4878 H 444.631 -0.156804 -3.26223 0
M  V30 4879 H 443.29 -2.25645 -2.88929 0
M  V30 4880 H 442.938 -0.885814 -4.95139 0
M  V30 4881 H 442.638 -2.61406 -5.26252 0
M  V30 4882 H 444.162 -1.86286 -5.81489 0
M  V30 4883 H 445.576 -3.65382 -4.41779 0
M  V30 4884 H 443.973 -4.37953 -4.10265 0
M  V30 4885 H 445.043 -3.99995 -2.74102 0
M  V30 4886 N 446.386 1.0089 -1.21074 0
M  V30 4887 C 447.632 1.74866 -1.02712 0
M  V30 4888 C 447.965 1.89178 0.438787 0
M  V30 4889 O 447.24 1.42325 1.32567 0
M  V30 4890 C 447.523 3.16347 -1.72036 0
M  V30 4891 C 447.376 3.09782 -3.26121 0
M  V30 4892 C 448.695 4.15187 -1.45973 0
M  V30 4893 H 445.814 0.634736 -0.374539 0
M  V30 4894 H 448.456 1.17646 -1.49196 0
M  V30 4895 H 446.606 3.65201 -1.32517 0
M  V30 4896 H 448.278 2.68673 -3.74983 0
M  V30 4897 H 446.521 2.46982 -3.56626 0
M  V30 4898 H 447.192 4.09829 -3.6979 0
M  V30 4899 H 449.668 3.75022 -1.80272 0
M  V30 4900 H 448.544 5.12331 -1.96999 0
M  V30 4901 H 448.805 4.40386 -0.388924 0
M  V30 4902 N 447.864 1.01787 1.20321 0
M  V30 4903 C 449.113 0.703249 1.89043 0
M  V30 4904 C 449.426 -0.770445 1.79787 0
M  V30 4905 O 450.632 -1.19767 2.43656 0
M  V30 4906 C 449.088 1.20749 3.3904 0
M  V30 4907 C 448.696 2.70817 3.56878 0
M  V30 4908 C 450.44 0.968352 4.13308 0
M  V30 4909 C 448.347 3.14716 5.00708 0
M  V30 4910 H 447.277 0.259354 0.707991 0
M  V30 4911 H 449.928 1.23072 1.36108 0
M  V30 4912 H 448.31 0.607989 3.91305 0
M  V30 4913 H 449.484 3.36327 3.14993 0
M  V30 4914 H 447.799 2.92888 2.95983 0
M  V30 4915 H 450.396 1.27173 5.19356 0
M  V30 4916 H 450.739 -0.095149 4.16191 0
M  V30 4917 H 451.272 1.53129 3.67146 0
M  V30 4918 H 448.011 4.20347 5.02979 0
M  V30 4919 H 447.531 2.53927 5.43398 0
M  V30 4920 H 449.21 3.07426 5.69296 0
M  V30 4921 N 449.342 -1.36122 0.79427 0
M  V30 4922 C 450.619 -1.93398 0.292685 0
M  V30 4923 C 450.999 -1.72567 -1.21589 0
M  V30 4924 O 450.347 -1.08745 -2.00965 0
M  V30 4925 C 450.557 -3.42099 0.690614 0
M  V30 4926 C 451.905 -4.19231 0.673105 0
M  V30 4927 O 452.929 -3.50559 0.631389 0
M  V30 4928 O 451.788 -5.41732 0.720362 0
M  V30 4929 H 448.882 -0.823712 0.0736693 0
M  V30 4930 H 451.428 -1.45273 0.87714 0
M  V30 4931 H 450.2 -3.50938 1.73085 0
M  V30 4932 H 449.823 -3.97519 0.0803036 0
M  V30 4933 N 450.82 -0.546701 -1.47814 0
M  V30 4934 C 452.231 -0.110564 -1.86372 0
M  V30 4935 C 452.582 1.31678 -1.45449 0
M  V30 4936 O 451.707 1.98889 -0.852758 0
M  V30 4937 C 452.302 -0.193873 -3.38245 0
M  V30 4938 C 450.861 0.187164 -3.75934 0
M  V30 4939 C 450.008 -0.546166 -2.71868 0
M  V30 4940 H 452.959 -0.757022 -1.39481 0
M  V30 4941 H 452.98 0.590218 -3.75895 0
M  V30 4942 H 452.492 -1.23282 -3.67999 0
M  V30 4943 H 450.593 1.22762 -3.51796 0
M  V30 4944 H 450.706 -0.164083 -4.78819 0
M  V30 4945 H 449.07 0.00953904 -2.54698 0
M  V30 4946 H 449.853 -1.58606 -3.04465 0
M  V30 4947 N 452.299 1.55045 -0.282633 0
M  V30 4948 C 453.576 1.9179 0.384166 0
M  V30 4949 C 453.956 1.20778 1.73136 0
M  V30 4950 O 453.304 0.33719 2.25998 0
M  V30 4951 C 453.514 3.45149 0.517014 0
M  V30 4952 C 454.862 4.17064 0.796427 0
M  V30 4953 O 455.886 3.51084 0.601535 0
M  V30 4954 O 454.745 5.33837 1.16962 0
M  V30 4955 H 451.839 0.799483 0.211558 0
M  V30 4956 H 454.385 1.66474 -0.32934 0
M  V30 4957 H 453.157 3.88922 -0.430772 0
M  V30 4958 H 452.78 3.76443 1.2797 0
M  V30 4959 N 453.777 0.010035 1.57597 0
M  V30 4960 C 454.724 -0.978122 2.09049 0
M  V30 4961 C 455.694 -1.33509 0.988159 0
M  V30 4962 O 456.879 -1.43172 1.26121 0
M  V30 4963 C 454.019 -2.26158 2.60666 0
M  V30 4964 C 453.132 -1.96275 3.84838 0
M  V30 4965 C 452.267 -3.18776 4.24918 0
M  V30 4966 C 451.306 -2.84625 5.41899 0
M  V30 4967 N 450.443 -3.99693 5.77226 0
M  V30 4968 H 455.283 -0.532431 2.93205 0
M  V30 4969 H 452.82 -0.251234 1.44939 0
M  V30 4970 H 454.778 -3.01202 2.88675 0
M  V30 4971 H 453.408 -2.68378 1.79369 0
M  V30 4972 H 452.46 -1.11555 3.63675 0
M  V30 4973 H 453.772 -1.67111 4.69974 0
M  V30 4974 H 452.926 -4.02157 4.54262 0
M  V30 4975 H 451.665 -3.51087 3.38511 0
M  V30 4976 H 450.67 -1.99653 5.12268 0
M  V30 4977 H 451.895 -2.53551 6.29991 0
M  V30 4978 H 449.841 -4.31882 4.93776 0
M  V30 4979 H 449.758 -3.74087 6.56959 0
M  V30 4980 H 451.026 -4.83834 6.11167 0
M  V30 4981 N 455.255 -1.55392 -0.262866 0
M  V30 4982 C 456.671 -1.47459 -0.610582 0
M  V30 4983 C 456.871 -0.697031 -1.8906 0
M  V30 4984 O 455.927 -0.219952 -2.5154 0
M  V30 4985 C 457.24 -2.91751 -0.728131 0
M  V30 4986 C 458.788 -3.02027 -0.821517 0
M  V30 4987 C 459.263 -4.47594 -0.97076 0
M  V30 4988 N 460.754 -4.51465 -1.03603 0
M  V30 4989 C 461.489 -5.61326 -1.17049 0
M  V30 4990 N 460.985 -6.81032 -1.2715 0
M  V30 4991 N 462.778 -5.49089 -1.20239 0
M  V30 4992 H 454.929 -2.04395 0.577632 0
M  V30 4993 H 457.192 -0.927287 0.197086 0
M  V30 4994 H 456.898 -3.51413 0.142132 0
M  V30 4995 H 456.772 -3.4134 -1.6052 0
M  V30 4996 H 459.159 -2.42456 -1.68224 0
M  V30 4997 H 459.24 -2.55674 0.0803688 0
M  V30 4998 H 458.884 -5.07771 -0.114655 0
M  V30 4999 H 458.814 -4.91613 -1.88745 0
M  V30 5000 H 461.305 -3.6524 -0.96996 0
M  V30 5001 H 461.618 -7.60511 -1.37271 0
M  V30 5002 H 459.963 -6.83824 -1.24136 0
M  V30 5003 H 463.154 -4.54507 -1.11985 0
M  V30 5004 H 463.327 -6.34749 -1.30373 0
M  V30 5005 N 456.733 0.527833 -1.48498 0
M  V30 5006 C 457.982 1.28003 -1.55878 0
M  V30 5007 C 458.295 1.9414 -0.238577 0
M  V30 5008 O 459.501 2.7083 -0.190643 0
M  V30 5009 C 457.957 2.32272 -2.74914 0
M  V30 5010 C 457.565 1.72196 -4.13585 0
M  V30 5011 C 459.309 3.08488 -2.91608 0
M  V30 5012 C 457.216 2.74417 -5.23879 0
M  V30 5013 H 456.146 0.481413 -0.580308 0
M  V30 5014 H 458.797 0.557195 -1.74836 0
M  V30 5015 H 457.179 3.07601 -2.49395 0
M  V30 5016 H 458.353 1.03041 -4.49132 0
M  V30 5017 H 456.668 1.08464 -4.02025 0
M  V30 5018 H 459.265 3.84879 -3.71177 0
M  V30 5019 H 459.608 3.64481 -2.01145 0
M  V30 5020 H 460.141 2.40274 -3.17038 0
M  V30 5021 H 456.88 2.23242 -6.16314 0
M  V30 5022 H 456.4 3.41893 -4.92818 0
M  V30 5023 H 458.079 3.37362 -5.52083 0
M  V30 5024 N 458.211 1.37122 0.776871 0
M  V30 5025 C 459.436 1.354 1.57104 0
M  V30 5026 C 459.861 -0.0595562 1.88006 0
M  V30 5027 O 459.219 -1.03514 1.48844 0
M  V30 5028 C 459.267 2.19472 2.8612 0
M  V30 5029 O 458.371 1.59582 3.80273 0
M  V30 5030 H 457.712 0.462869 0.476076 0
M  V30 5031 H 460.242 1.80577 0.961932 0
M  V30 5032 H 460.252 2.32502 3.35271 0
M  V30 5033 H 458.927 3.22222 2.62956 0
M  V30 5034 H 457.504 1.55564 3.38902 0
M  V30 5035 N 459.689 -1.00246 1.21608 0
M  V30 5036 C 460.935 -1.74319 1.03638 0
M  V30 5037 C 461.268 -1.89408 -0.428749 0
M  V30 5038 O 460.543 -1.43026 -1.3181 0
M  V30 5039 C 460.826 -3.15431 1.73711 0
M  V30 5040 C 460.679 -3.08049 3.27759 0
M  V30 5041 C 461.998 -4.14407 1.48173 0
M  V30 5042 H 459.117 -0.632741 0.377899 0
M  V30 5043 H 461.759 -1.16853 1.49818 0
M  V30 5044 H 459.909 -3.64493 1.34452 0
M  V30 5045 H 461.581 -2.66681 3.76403 0
M  V30 5046 H 459.824 -2.45088 3.57931 0
M  V30 5047 H 460.495 -4.07862 3.71958 0
M  V30 5048 H 462.971 -3.74061 1.82258 0
M  V30 5049 H 461.847 -5.11279 1.99713 0
M  V30 5050 H 462.108 -4.40174 0.412273 0
M  V30 5051 N 461.167 -1.02423 -1.1978 0
M  V30 5052 C 462.444 -0.632802 -1.85081 0
M  V30 5053 C 462.824 0.888745 -1.9148 0
M  V30 5054 O 462.172 1.78357 -1.42832 0
M  V30 5055 C 462.382 -1.28947 -3.24305 0
M  V30 5056 C 463.73 -1.40976 -4.00513 0
M  V30 5057 O 464.754 -1.24628 -3.33686 0
M  V30 5058 O 463.613 -1.67467 -5.20209 0
M  V30 5059 H 460.707 -0.219348 -0.79738 0
M  V30 5060 H 463.253 -1.12209 -1.27307 0
M  V30 5061 H 462.025 -2.3288 -3.14456 0
M  V30 5062 H 461.648 -0.787748 -3.89718 0
M  V30 5063 N 462.645 1.35699 -0.801477 0
M  V30 5064 C 463.555 2.33661 -0.209691 0
M  V30 5065 C 464.571 1.6162 0.644591 0
M  V30 5066 O 465.747 1.93529 0.557545 0
M  V30 5067 C 462.812 3.40816 0.636033 0
M  V30 5068 C 461.873 4.28639 -0.238147 0
M  V30 5069 C 461.106 5.30676 0.567307 0
M  V30 5070 O 461.329 5.41174 1.8024 0
M  V30 5071 O 460.263 6.01887 -0.0391336 0
M  V30 5072 H 464.089 2.8606 -1.01996 0
M  V30 5073 H 461.674 1.38379 -0.563164 0
M  V30 5074 H 463.556 4.06301 1.11791 0
M  V30 5075 H 462.231 2.90696 1.42399 0
M  V30 5076 H 461.138 3.66152 -0.767044 0
M  V30 5077 H 462.471 4.82143 -0.989915 0
M  V30 5078 N 464.123 0.554532 1.47522 0
M  V30 5079 C 465.086 -0.184174 2.28459 0
M  V30 5080 C 466.086 -0.845195 1.36796 0
M  V30 5081 O 467.276 -0.701467 1.59452 0
M  V30 5082 C 464.408 -1.26903 3.16399 0
M  V30 5083 H 465.601 0.526751 2.95238 0
M  V30 5084 H 463.154 0.311375 1.53167 0
M  V30 5085 H 463.889 -2.01244 2.54306 0
M  V30 5086 H 463.674 -0.799883 3.83854 0
M  V30 5087 H 465.164 -1.78794 3.77389 0
M  V30 5088 N 465.601 -1.54893 0.290851 0
M  V30 5089 C 466.531 -2.26103 -0.583084 0
M  V30 5090 C 467.512 -1.25684 -1.14619 0
M  V30 5091 O 468.697 -1.54436 -1.17741 0
M  V30 5092 C 465.827 -2.99409 -1.75987 0
M  V30 5093 C 464.781 -4.0689 -1.32758 0
M  V30 5094 C 464.107 -4.67856 -2.58872 0
M  V30 5095 C 465.407 -5.20215 -0.46624 0
M  V30 5096 H 467.101 -2.99398 0.0108214 0
M  V30 5097 H 464.647 -1.43998 0.00664468 0
M  V30 5098 H 466.6 -3.47943 -2.37727 0
M  V30 5099 H 465.324 -2.23675 -2.37985 0
M  V30 5100 H 463.983 -3.59191 -0.733299 0
M  V30 5101 H 463.631 -3.88772 -3.19163 0
M  V30 5102 H 463.331 -5.40438 -2.30653 0
M  V30 5103 H 464.855 -5.19147 -3.21433 0
M  V30 5104 H 466.269 -5.64704 -0.989047 0
M  V30 5105 H 464.666 -5.99455 -0.27826 0
M  V30 5106 H 465.736 -4.82198 0.511173 0
M  V30 5107 N 467.08 -0.0183926 -1.57589 0
M  V30 5108 C 468.496 0.337897 -1.55982 0
M  V30 5109 C 468.696 1.73604 -1.02294 0
M  V30 5110 O 467.752 2.43589 -0.664895 0
M  V30 5111 C 469.065 0.196305 -3.00059 0
M  V30 5112 C 470.613 0.269875 -3.11834 0
M  V30 5113 C 471.088 0.157197 -4.5773 0
M  V30 5114 N 472.579 0.214521 -4.62703 0
M  V30 5115 C 473.314 0.150955 -5.73201 0
M  V30 5116 N 472.81 0.0369212 -6.9279 0
M  V30 5117 N 474.603 0.204162 -5.61729 0
M  V30 5118 H 466.754 -0.93279 -1.90821 0
M  V30 5119 H 469.017 -0.359253 -0.877292 0
M  V30 5120 H 468.723 -0.766383 -3.43248 0
M  V30 5121 H 468.597 0.970908 -3.6449 0
M  V30 5122 H 470.984 1.22302 -2.68563 0
M  V30 5123 H 471.065 -0.534918 -2.50144 0
M  V30 5124 H 470.709 -0.792479 -5.01679 0
M  V30 5125 H 470.639 0.980717 -5.17387 0
M  V30 5126 H 473.13 0.303238 -3.76681 0
M  V30 5127 H 473.443 -0.00518321 -7.728 0
M  V30 5128 H 471.788 0.0022886 -6.95 0
M  V30 5129 H 474.979 0.291575 -4.67191 0
M  V30 5130 H 475.152 0.15116 -6.47824 0
M  V30 5131 N 468.558 1.5553 0.254621 0
M  V30 5132 C 469.508 1.86057 1.31783 0
M  V30 5133 C 470.492 0.720827 1.4385 0
M  V30 5134 O 471.684 0.982586 1.47222 0
M  V30 5135 C 468.813 2.15203 2.67475 0
M  V30 5136 C 467.899 3.35484 2.59444 0
M  V30 5137 N 468.29 4.54945 2.2104 0
M  V30 5138 C 466.588 3.38441 2.90472 0
M  V30 5139 C 467.289 5.3707 2.23453 0
M  V30 5140 N 466.265 4.75936 2.62652 0
M  V30 5141 H 470.067 2.75953 1.01129 0
M  V30 5142 H 467.581 1.55653 0.463255 0
M  V30 5143 H 469.578 2.35235 3.44195 0
M  V30 5144 H 468.238 1.26601 2.99002 0
M  V30 5145 H 469.249 4.8071 1.92712 0
M  V30 5146 H 465.926 2.60087 3.2659 0
M  V30 5147 H 467.316 6.42626 1.96166 0
M  V30 5148 N 470.036 -0.519951 1.48776 0
M  V30 5149 C 471.447 -1.10177 1.50725 0
M  V30 5150 C 471.798 -1.94153 0.282678 0
M  V30 5151 O 470.923 -2.07645 -0.609298 0
M  V30 5152 C 471.518 -2.00482 2.73116 0
M  V30 5153 C 470.077 -2.53862 2.77905 0
M  V30 5154 C 469.224 -1.31047 2.44381 0
M  V30 5155 H 472.175 -0.30473 1.55747 0
M  V30 5156 H 472.196 -2.8491 2.52203 0
M  V30 5157 H 471.708 -1.39335 3.62225 0
M  V30 5158 H 469.809 -3.18702 1.93029 0
M  V30 5159 H 469.922 -2.9231 3.79594 0
M  V30 5160 H 468.286 -1.62953 1.95751 0
M  V30 5161 H 469.069 -0.71637 3.35743 0
M  V30 5162 N 471.514 -1.37532 -0.769588 0
M  V30 5163 C 472.744 -1.35861 -1.55645 0
M  V30 5164 C 473.152 0.0574398 -1.89113 0
M  V30 5165 O 472.495 1.03021 -1.52093 0
M  V30 5166 C 472.557 -2.13431 -2.89288 0
M  V30 5167 C 472.221 -3.62378 -2.78444 0
M  V30 5168 C 473.218 -4.56215 -2.49326 0
M  V30 5169 C 470.903 -4.05529 -2.96398 0
M  V30 5170 C 472.897 -5.91181 -2.38294 0
M  V30 5171 C 470.584 -5.40579 -2.84987 0
M  V30 5172 C 471.582 -6.33218 -2.55975 0
M  V30 5173 O 471.27 -7.65787 -2.44594 0
M  V30 5174 H 471.002 -0.467001 -0.48876 0
M  V30 5175 H 473.556 -1.81505 -0.961515 0
M  V30 5176 H 471.786 -1.62481 -3.50909 0
M  V30 5177 H 473.475 -2.04368 -3.50697 0
M  V30 5178 H 474.241 -4.24187 -2.35139 0
M  V30 5179 H 470.12 -3.33781 -3.1798 0
M  V30 5180 H 473.664 -6.63457 -2.15571 0
M  V30 5181 H 469.561 -5.72209 -2.98743 0
M  V30 5182 H 470.329 -7.76132 -2.59927 0
M  V30 5183 N 472.992 0.995999 -1.22138 0
M  V30 5184 C 474.241 1.72928 -1.03821 0
M  V30 5185 C 474.554 1.90872 0.427444 0
M  V30 5186 O 475.76 2.61496 0.730212 0
M  V30 5187 C 474.216 3.11124 -1.80913 0
M  V30 5188 C 473.824 3.01122 -3.31707 0
M  V30 5189 C 475.568 3.8852 -1.71035 0
M  V30 5190 C 473.475 4.34453 -4.01253 0
M  V30 5191 H 472.405 0.648376 -0.384869 0
M  V30 5192 H 475.056 1.11213 -1.45959 0
M  V30 5193 H 473.438 3.73503 -1.31573 0
M  V30 5194 H 474.612 2.47926 -3.88419 0
M  V30 5195 H 472.927 2.3721 -3.42228 0
M  V30 5196 H 475.524 4.872 -2.20318 0
M  V30 5197 H 475.867 4.1087 -0.670196 0
M  V30 5198 H 476.4 3.32812 -2.17902 0
M  V30 5199 H 473.139 4.17303 -5.05508 0
M  V30 5200 H 472.659 4.87574 -3.49331 0
M  V30 5201 H 474.338 5.03215 -4.06674 0
M  V30 5202 N 474.47 1.03057 1.19235 0
M  V30 5203 C 475.698 0.747697 1.92917 0
M  V30 5204 C 476.113 -0.69372 1.75593 0
M  V30 5205 O 475.47 -1.47191 1.07894 0
M  V30 5206 C 475.521 1.09159 3.44625 0
M  V30 5207 O 475.242 2.47641 3.61394 0
M  V30 5208 C 476.743 0.831763 4.35427 0
M  V30 5209 H 473.963 0.273453 0.612751 0
M  V30 5210 H 476.507 1.37552 1.51327 0
M  V30 5211 H 474.662 0.508919 3.84043 0
M  V30 5212 H 475.076 2.60499 4.55237 0
M  V30 5213 H 476.55 1.12233 5.4047 0
M  V30 5214 H 477.027 -0.233769 4.38577 0
M  V30 5215 H 477.633 1.39725 4.01693 0
M  V30 5216 N 475.948 -1.35272 0.808662 0
M  V30 5217 C 477.194 -1.99003 0.390581 0
M  V30 5218 C 477.527 -1.63999 -1.0401 0
M  V30 5219 O 476.802 -0.904368 -1.72196 0
M  V30 5220 C 477.085 -3.55454 0.576566 0
M  V30 5221 C 476.938 -4.00249 2.05233 0
M  V30 5222 C 478.257 -4.401 0.00354277 0
M  V30 5223 H 475.376 -0.722917 0.143388 0
M  V30 5224 H 478.018 -1.6039 1.01858 0
M  V30 5225 H 476.168 -3.88477 0.0419766 0
M  V30 5226 H 477.84 -3.77626 2.64946 0
M  V30 5227 H 476.083 -3.51082 2.54801 0
M  V30 5228 H 476.754 -5.0911 2.13333 0
M  V30 5229 H 479.23 -4.13548 0.460117 0
M  V30 5230 H 478.106 -5.48656 0.163575 0
M  V30 5231 H 478.367 -4.28444 -1.09032 0
M  V30 5232 N 477.426 -0.562348 -1.47226 0
M  V30 5233 C 478.672 -0.0485293 -2.03342 0
M  V30 5234 C 479.027 1.28898 -1.42839 0
M  V30 5235 O 478.32 1.82719 -0.576563 0
M  V30 5236 C 478.514 0.0969817 -3.57268 0
M  V30 5237 C 478.343 -1.22487 -4.32697 0
M  V30 5238 C 477.113 -1.79357 -4.72397 0
M  V30 5239 C 479.311 -2.14332 -4.67511 0
M  V30 5240 N 477.293 -3.05493 -5.32491 0
M  V30 5241 C 478.664 -3.25049 -5.27961 0
M  V30 5242 C 480.719 -2.14263 -4.4944 0
M  V30 5243 C 479.422 -4.35804 -5.72248 0
M  V30 5244 C 481.448 -3.24033 -4.94729 0
M  V30 5245 C 480.81 -4.3347 -5.55233 0
M  V30 5246 H 476.909 -0.0600464 -0.779691 0
M  V30 5247 H 479.493 -0.750769 -1.79643 0
M  V30 5248 H 477.664 0.768353 -3.80724 0
M  V30 5249 H 479.396 0.613333 -4.00025 0
M  V30 5250 H 476.151 -1.33093 -4.54514 0
M  V30 5251 H 476.575 -3.698 -5.67077 0
M  V30 5252 H 481.217 -1.30935 -4.02015 0
M  V30 5253 H 478.935 -5.19888 -6.18661 0
M  V30 5254 H 482.521 -3.25073 -4.82513 0
M  V30 5255 H 481.401 -5.17008 -5.89638 0
M  V30 5256 N 478.904 1.54736 -0.299062 0
M  V30 5257 C 480.134 2.04215 0.312992 0
M  V30 5258 C 480.542 1.17596 1.48215 0
M  V30 5259 O 479.885 0.193835 1.82674 0
M  V30 5260 C 479.947 3.49696 0.833862 0
M  V30 5261 C 479.611 4.56518 -0.20977 0
M  V30 5262 C 480.608 5.09442 -1.03756 0
M  V30 5263 C 478.293 5.01073 -0.35091 0
M  V30 5264 C 480.287 6.05459 -1.99244 0
M  V30 5265 C 477.974 5.9691 -1.30924 0
M  V30 5266 C 478.972 6.48987 -2.1285 0
M  V30 5267 O 478.66 7.42947 -3.07059 0
M  V30 5268 H 478.392 0.672128 0.0722494 0
M  V30 5269 H 480.946 2.00718 -0.436043 0
M  V30 5270 H 479.176 3.5051 1.63339 0
M  V30 5271 H 480.865 3.82381 1.36159 0
M  V30 5272 H 481.631 4.75816 -0.939376 0
M  V30 5273 H 477.51 4.60168 0.276813 0
M  V30 5274 H 481.054 6.46031 -2.63229 0
M  V30 5275 H 476.951 6.29953 -1.40815 0
M  V30 5276 H 477.719 7.60743 -3.02015 0
M  V30 5277 N 480.382 0.0267497 1.57577 0
M  V30 5278 C 481.659 -0.690926 1.82991 0
M  V30 5279 C 482.039 -1.90471 0.910164 0
M  V30 5280 O 481.387 -2.28474 -0.0347985 0
M  V30 5281 C 481.597 -1.07139 3.32148 0
M  V30 5282 C 482.945 -1.46402 3.98562 0
M  V30 5283 O 483.969 -1.16443 3.36629 0
M  V30 5284 O 482.828 -2.02214 5.07712 0
M  V30 5285 H 479.922 -0.338747 0.75444 0
M  V30 5286 H 482.468 0.0542506 1.69613 0
M  V30 5287 H 481.24 -0.207394 3.9075 0
M  V30 5288 H 480.863 -1.87481 3.50623 0
M  V30 5289 N 481.861 -1.55662 -0.24637 0
M  V30 5290 C 483.272 -1.67953 -0.81539 0
M  V30 5291 C 483.623 -0.624302 -1.86002 0
M  V30 5292 O 482.748 0.229328 -2.15181 0
M  V30 5293 C 483.343 -3.04484 -1.48576 0
M  V30 5294 C 481.902 -3.18713 -2.00248 0
M  V30 5295 C 481.049 -2.6383 -0.853766 0
M  V30 5296 H 484 -1.58685 -0.0221692 0
M  V30 5297 H 484.021 -2.98959 -2.3538 0
M  V30 5298 H 483.533 -3.81264 -0.725222 0
M  V30 5299 H 481.634 -2.46757 -2.79181 0
M  V30 5300 H 481.747 -4.25628 -2.1995 0
M  V30 5301 H 480.111 -2.21667 -1.25442 0
M  V30 5302 H 480.894 -3.43135 -0.106302 0
M  V30 5303 N 483.339 0.512053 -1.4905 0
M  V30 5304 C 484.302 1.59704 -1.64399 0
M  V30 5305 C 485.302 1.52285 -0.516317 0
M  V30 5306 O 486.492 1.55635 -0.782527 0
M  V30 5307 C 483.624 2.9935 -1.63102 0
M  V30 5308 H 484.817 1.47428 -2.61161 0
M  V30 5309 H 482.37 0.735469 -1.37915 0
M  V30 5310 H 483.105 3.17116 -0.678836 0
M  V30 5311 H 482.89 3.06144 -2.44986 0
M  V30 5312 H 484.38 3.782 -1.77072 0
M  V30 5313 N 484.817 1.37938 0.762283 0
M  V30 5314 C 485.727 1.36681 1.90671 0
M  V30 5315 C 486.743 0.265078 1.71969 0
M  V30 5316 O 487.919 0.502055 1.95042 0
M  V30 5317 C 484.984 1.18211 3.25925 0
M  V30 5318 C 484.045 2.3811 3.57214 0
M  V30 5319 C 483.278 2.20512 4.86014 0
M  V30 5320 O 483.501 1.19429 5.57757 0
M  V30 5321 O 482.435 3.08911 5.16583 0
M  V30 5322 H 486.261 2.33091 1.94685 0
M  V30 5323 H 483.846 1.18767 0.906356 0
M  V30 5324 H 485.728 1.09937 4.06807 0
M  V30 5325 H 484.403 0.248807 3.22742 0
M  V30 5326 H 483.31 2.51958 2.76529 0
M  V30 5327 H 484.643 3.30041 3.65149 0
M  V30 5328 N 486.295 -0.989507 1.22664 0
M  V30 5329 C 487.258 -2.06183 1.00106 0
M  V30 5330 C 488.258 -1.60765 -0.0337726 0
M  V30 5331 O 489.448 -1.72989 0.205072 0
M  V30 5332 C 486.58 -3.37021 0.51279 0
M  V30 5333 H 487.773 -2.27629 1.95256 0
M  V30 5334 H 485.326 -1.16158 1.0458 0
M  V30 5335 H 486.061 -3.21261 -0.442917 0
M  V30 5336 H 485.846 -3.71323 1.25942 0
M  V30 5337 H 487.336 -4.1591 0.375315 0
M  V30 5338 N 487.773 -1.03688 -1.18687 0
M  V30 5339 C 488.683 -0.634908 -2.25845 0
M  V30 5340 C 489.699 0.337065 -1.70704 0
M  V30 5341 O 490.875 0.192943 -2.00474 0
M  V30 5342 C 487.94 -0.000180054 -3.467 0
M  V30 5343 C 487.001 -1.02067 -4.1699 0
M  V30 5344 C 486.234 -0.41614 -5.32075 0
M  V30 5345 O 486.457 0.778712 -5.65059 0
M  V30 5346 O 485.391 -1.14296 -5.90948 0
M  V30 5347 H 489.217 -1.52757 -2.62486 0
M  V30 5348 H 486.802 -0.807533 -1.25695 0
M  V30 5349 H 488.684 0.353342 -4.19916 0
M  V30 5350 H 487.359 0.866367 -3.11891 0
M  V30 5351 H 486.266 -1.42592 -3.45859 0
M  V30 5352 H 487.599 -1.85786 -4.5579 0
M  V30 5353 N 489.251 1.34841 -0.815825 0
M  V30 5354 C 490.214 2.27959 -0.238185 0
M  V30 5355 C 491.214 1.49983 0.579816 0
M  V30 5356 O 492.404 1.69617 0.396953 0
M  V30 5357 C 489.536 3.34314 0.666876 0
M  V30 5358 H 490.729 2.80558 -1.05958 0
M  V30 5359 H 488.282 1.44852 -0.587156 0
M  V30 5360 H 489.017 2.86916 1.5116 0
M  V30 5361 H 488.802 3.92014 0.0819106 0
M  V30 5362 H 490.292 4.0379 1.06506 0
M  V30 5363 N 490.729 0.570148 1.46925 0
M  V30 5364 C 492.14 0.1402 1.86173 0
M  V30 5365 C 492.491 -1.29347 1.47526 0
M  V30 5366 O 491.616 -1.97508 0.884292 0
M  V30 5367 C 492.211 0.247661 3.37894 0
M  V30 5368 C 490.77 -0.127332 3.76185 0
M  V30 5369 C 489.917 0.589349 2.70965 0
M  V30 5370 H 492.868 0.779117 1.38259 0
M  V30 5371 H 492.889 -0.530341 3.76786 0
M  V30 5372 H 492.401 1.29121 3.65991 0
M  V30 5373 H 490.502 -1.17149 3.53704 0
M  V30 5374 H 490.615 0.240238 4.78497 0
M  V30 5375 H 488.979 0.0309824 2.54681 0
M  V30 5376 H 489.762 1.6343 3.01903 0
M  V30 5377 N 492.207 -1.54576 0.307264 0
M  V30 5378 C 493.618 -1.8579 -0.184121 0
M  V30 5379 C 493.969 -1.22914 -1.52927 0
M  V30 5380 O 493.094 -0.529126 -2.09831 0
M  V30 5381 C 493.689 -3.37081 -0.340862 0
M  V30 5382 C 492.248 -3.68304 -0.776465 0
M  V30 5383 C 491.395 -2.77076 0.111503 0
M  V30 5384 H 494.346 -1.49656 0.528078 0
M  V30 5385 H 494.367 -3.61922 -1.17443 0
M  V30 5386 H 493.879 -3.82815 0.638309 0
M  V30 5387 H 491.98 -3.28092 -1.76596 0
M  V30 5388 H 492.093 -4.75434 -0.591512 0
M  V30 5389 H 490.457 -2.51374 -0.410256 0
M  V30 5390 H 491.24 -3.25632 1.08714 0
M  V30 5391 N 493.685 -0.035106 -1.57561 0
M  V30 5392 C 495.096 0.502885 -1.798 0
M  V30 5393 C 495.447 1.71892 -0.945921 0
M  V30 5394 O 494.572 2.15822 -0.157991 0
M  V30 5395 C 495.167 0.919097 -3.26095 0
M  V30 5396 C 493.726 1.40216 -3.49308 0
M  V30 5397 C 492.873 0.369709 -2.74824 0
M  V30 5398 H 495.824 -0.261102 -1.56537 0
M  V30 5399 H 495.845 1.78308 -3.36135 0
M  V30 5400 H 495.357 0.0338526 -3.88085 0
M  V30 5401 H 493.458 2.30714 -2.92578 0
M  V30 5402 H 493.571 1.40541 -4.58023 0
M  V30 5403 H 491.935 0.839113 -2.40481 0
M  V30 5404 H 492.718 -0.507173 -3.39533 0
M  V30 5405 N 495.163 1.55791 0.238111 0
M  V30 5406 C 496.095 1.87513 1.31802 0
M  V30 5407 C 497.108 0.762053 1.43863 0
M  V30 5408 O 498.297 1.04024 1.45056 0
M  V30 5409 C 495.397 2.05402 2.69561 0
M  V30 5410 C 494.57 3.3632 2.79656 0
M  V30 5411 C 493.629 3.43844 3.98319 0
M  V30 5412 O 492.655 4.16994 3.87433 0
M  V30 5413 N 493.857 2.73777 5.11885 0
M  V30 5414 H 496.622 2.80734 1.04922 0
M  V30 5415 H 494.183 1.56135 0.428196 0
M  V30 5416 H 496.175 2.07769 3.47296 0
M  V30 5417 H 494.745 1.18884 2.89111 0
M  V30 5418 H 493.965 3.46195 1.88528 0
M  V30 5419 H 495.253 4.22594 2.83358 0
M  V30 5420 H 494.651 2.14094 5.23622 0
M  V30 5421 H 493.208 2.81825 5.87723 0
M  V30 5422 N 496.642 -0.504142 1.49319 0
M  V30 5423 C 497.891 -1.25507 1.57895 0
M  V30 5424 C 498.204 -1.93735 0.269433 0
M  V30 5425 O 499.41 -2.70492 0.233706 0
M  V30 5426 C 497.866 -2.27869 2.78574 0
M  V30 5427 C 497.474 -1.65594 4.16272 0
M  V30 5428 C 499.218 -3.0381 2.96479 0
M  V30 5429 C 497.125 -2.66048 5.28178 0
M  V30 5430 H 496.055 -0.47212 0.587894 0
M  V30 5431 H 498.706 -0.52931 1.757 0
M  V30 5432 H 497.088 -3.03594 2.54257 0
M  V30 5433 H 498.262 -0.958826 4.50714 0
M  V30 5434 H 496.577 -1.02055 4.037 0
M  V30 5435 H 499.174 -3.78925 3.77253 0
M  V30 5436 H 499.517 -3.61235 2.06918 0
M  V30 5437 H 500.05 -2.352 3.20821 0
M  V30 5438 H 496.789 -2.13408 6.19788 0
M  V30 5439 H 496.309 -3.34009 4.98195 0
M  V30 5440 H 497.988 -3.28536 5.57381 0
M  V30 5441 N 498.12 -1.38341 -0.754957 0
M  V30 5442 C 499.35 -1.37504 -1.54195 0
M  V30 5443 C 499.758 0.0373787 -1.89163 0
M  V30 5444 O 499.101 1.01402 -1.53178 0
M  V30 5445 C 499.163 -2.16488 -2.87008 0
M  V30 5446 C 498.827 -3.65311 -2.74585 0
M  V30 5447 C 499.824 -4.58834 -2.44474 0
M  V30 5448 C 497.509 -4.08649 -2.9208 0
M  V30 5449 C 499.503 -5.93675 -2.32011 0
M  V30 5450 C 497.19 -5.43571 -2.79237 0
M  V30 5451 C 498.188 -6.35898 -2.49245 0
M  V30 5452 O 497.876 -7.68338 -2.36458 0
M  V30 5453 H 497.608 -0.472159 -0.483779 0
M  V30 5454 H 500.162 -1.82515 -0.94221 0
M  V30 5455 H 498.392 -1.66194 -3.49166 0
M  V30 5456 H 500.081 -2.08076 -3.4851 0
M  V30 5457 H 500.847 -4.26657 -2.30627 0
M  V30 5458 H 496.726 -3.37134 -3.14422 0
M  V30 5459 H 500.27 -6.65706 -2.08522 0
M  V30 5460 H 496.167 -5.75345 -2.92657 0
M  V30 5461 H 496.935 -7.78845 -2.5168 0
M  V30 5462 N 499.598 0.982988 -1.23187 0
M  V30 5463 C 500.875 1.69814 -0.970707 0
M  V30 5464 C 501.255 2.04811 0.511424 0
M  V30 5465 O 500.603 1.73924 1.48198 0
M  V30 5466 C 500.813 2.94143 -1.87831 0
M  V30 5467 C 502.161 3.66712 -2.14026 0
M  V30 5468 O 503.185 3.04171 -1.8536 0
M  V30 5469 O 502.044 4.79258 -2.62629 0
M  V30 5470 H 499.138 0.741659 -0.365884 0
M  V30 5471 H 501.684 1.03844 -1.34218 0
M  V30 5472 H 500.456 2.64858 -2.88038 0
M  V30 5473 H 500.079 3.6785 -1.50905 0
M  V30 5474 N 501.076 1.04316 1.18135 0
M  V30 5475 C 502.039 0.640794 2.2006 0
M  V30 5476 C 503.039 -0.303124 1.57917 0
M  V30 5477 O 504.229 -0.0881855 1.73977 0
M  V30 5478 C 501.361 -0.060148 3.40847 0
M  V30 5479 H 502.554 1.54281 2.57172 0
M  V30 5480 H 500.107 0.836004 1.32063 0
M  V30 5481 H 500.842 -0.975845 3.0927 0
M  V30 5482 H 500.627 0.618319 3.87194 0
M  V30 5483 H 502.117 -0.328082 4.16309 0
M  V30 5484 N 502.554 -1.34406 0.822964 0
M  V30 5485 C 503.486 -2.28305 0.202375 0
M  V30 5486 C 504.499 -1.5103 -0.60777 0
M  V30 5487 O 505.688 -1.73057 -0.437444 0
M  V30 5488 C 502.788 -3.30836 -0.734911 0
M  V30 5489 C 501.961 -4.37388 0.0324177 0
M  V30 5490 C 501.02 -5.1968 -0.825803 0
M  V30 5491 O 500.046 -5.68556 -0.270771 0
M  V30 5492 N 501.248 -5.39393 -2.14558 0
M  V30 5493 H 504.013 -2.82201 1.00909 0
M  V30 5494 H 501.574 -1.4693 0.67993 0
M  V30 5495 H 503.566 -3.82786 -1.31365 0
M  V30 5496 H 502.136 -2.77334 -1.44238 0
M  V30 5497 H 501.356 -3.86152 0.792469 0
M  V30 5498 H 502.644 -5.05702 0.560633 0
M  V30 5499 H 502.042 -5.01357 -2.62025 0
M  V30 5500 H 500.599 -5.94461 -2.67318 0
M  V30 5501 N 504.032 -0.577932 -1.46621 0
M  V30 5502 C 504.962 0.145917 -2.33044 0
M  V30 5503 C 505.943 0.888412 -1.45056 0
M  V30 5504 O 507.128 0.864812 -1.73881 0
M  V30 5505 C 504.258 1.16322 -3.27241 0
M  V30 5506 C 503.212 0.535868 -4.24632 0
M  V30 5507 C 502.538 1.65929 -5.08303 0
M  V30 5508 C 503.838 -0.523861 -5.19666 0
M  V30 5509 H 505.532 -0.575636 -2.93814 0
M  V30 5510 H 503.078 -0.278272 -1.41286 0
M  V30 5511 H 505.031 1.67793 -3.86553 0
M  V30 5512 H 503.755 1.91498 -2.64567 0
M  V30 5513 H 502.414 0.0422759 -3.66576 0
M  V30 5514 H 502.062 2.40061 -4.42018 0
M  V30 5515 H 501.762 1.2452 -5.74255 0
M  V30 5516 H 503.286 2.17686 -5.70478 0
M  V30 5517 H 504.7 -0.0944059 -5.73222 0
M  V30 5518 H 503.097 -0.858 -5.93935 0
M  V30 5519 H 504.167 -1.41197 -4.63887 0
M  V30 5520 N 505.51 1.54411 -0.315457 0
M  V30 5521 C 506.42 2.27737 0.56329 0
M  V30 5522 C 507.436 1.31787 1.13614 0
M  V30 5523 O 508.612 1.64791 1.15784 0
M  V30 5524 C 505.677 3.01478 1.71207 0
M  V30 5525 C 504.738 4.12997 1.17185 0
M  V30 5526 C 503.971 4.83212 2.26588 0
M  V30 5527 O 504.194 4.52884 3.46775 0
M  V30 5528 O 503.128 5.70299 1.92463 0
M  V30 5529 H 506.954 3.03683 -0.0319614 0
M  V30 5530 H 504.539 1.49178 -0.0814188 0
M  V30 5531 H 506.421 3.47683 2.38106 0
M  V30 5532 H 505.096 2.28414 2.29366 0
M  V30 5533 H 504.003 3.71159 0.468174 0
M  V30 5534 H 505.336 4.8808 0.635501 0
M  V30 5535 N 506.988 0.0434614 1.5754 0
M  V30 5536 C 507.898 -0.94893 2.14552 0
M  V30 5537 C 508.914 -1.34707 1.10136 0
M  V30 5538 O 510.09 -1.42557 1.42266 0
M  V30 5539 C 507.155 -2.208 2.67298 0
M  V30 5540 C 506.216 -1.86893 3.86484 0
M  V30 5541 C 505.449 -3.06797 4.36705 0
M  V30 5542 O 505.672 -4.19921 3.86034 0
M  V30 5543 O 504.606 -2.8826 5.28384 0
M  V30 5544 H 508.432 -0.494099 2.99654 0
M  V30 5545 H 506.017 -0.177989 1.48336 0
M  V30 5546 H 507.899 -2.94686 3.01228 0
M  V30 5547 H 506.574 -2.65436 1.85272 0
M  V30 5548 H 505.481 -1.10347 3.57455 0
M  V30 5549 H 506.814 -1.47062 4.69716 0
M  V30 5550 N 508.466 -1.55915 -0.229846 0
M  V30 5551 C 509.882 -1.48721 -0.579166 0
M  V30 5552 C 510.082 -0.736976 -1.87539 0
M  V30 5553 O 509.138 -0.273258 -2.51017 0
M  V30 5554 C 510.451 -2.9323 -0.666082 0
M  V30 5555 C 511.999 -3.03701 -0.757267 0
M  V30 5556 C 512.474 -4.49552 -0.8756 0
M  V30 5557 N 513.965 -4.53561 -0.940035 0
M  V30 5558 C 514.7 -5.63683 -1.05116 0
M  V30 5559 N 514.196 -6.83576 -1.12675 0
M  V30 5560 N 515.989 -5.51516 -1.08565 0
M  V30 5561 H 508.14 -2.03123 0.620857 0
M  V30 5562 H 510.403 -0.922898 0.21671 0
M  V30 5563 H 510.109 -3.51032 0.21664 0
M  V30 5564 H 509.983 -3.44668 -1.53243 0
M  V30 5565 H 512.37 -2.45969 -1.63043 0
M  V30 5566 H 512.451 -2.55446 0.134583 0
M  V30 5567 H 512.095 -5.079 -0.00692351 0
M  V30 5568 H 512.025 -4.95506 -1.78274 0
M  V30 5569 H 514.516 -3.67215 -0.892269 0
M  V30 5570 H 514.829 -7.63251 -1.21109 0
M  V30 5571 H 513.174 -6.86303 -1.09603 0
M  V30 5572 H 516.365 -4.5678 -1.02319 0
M  V30 5573 H 516.538 -6.37372 -1.1688 0
M  V30 5574 N 509.944 0.496216 -1.49584 0
M  V30 5575 C 510.854 1.62352 -1.69349 0
M  V30 5576 C 511.87 1.64184 -0.576147 0
M  V30 5577 O 513.046 1.82517 -0.85144 0
M  V30 5578 C 510.111 2.98698 -1.76013 0
M  V30 5579 C 509.172 3.07454 -2.99617 0
M  V30 5580 C 508.405 4.37296 -3.05953 0
M  V30 5581 O 508.628 5.2637 -2.19752 0
M  V30 5582 O 507.562 4.51124 -3.9846 0
M  V30 5583 H 511.388 1.48606 -2.64859 0
M  V30 5584 H 508.973 0.673022 -1.33382 0
M  V30 5585 H 510.855 3.79725 -1.82721 0
M  V30 5586 H 509.53 3.12696 -0.836828 0
M  V30 5587 H 508.437 2.25597 -2.98424 0
M  V30 5588 H 509.77 2.98385 -3.91443 0
M  V30 5589 N 511.423 1.38739 0.74761 0
M  V30 5590 C 512.373 1.32948 1.85226 0
M  V30 5591 C 513.357 0.212642 1.59489 0
M  V30 5592 O 514.549 0.449121 1.71207 0
M  V30 5593 C 511.678 1.16279 3.23008 0
M  V30 5594 C 510.764 2.32611 3.54617 0
M  V30 5595 N 511.155 3.58065 3.57244 0
M  V30 5596 C 509.453 2.25293 3.84914 0
M  V30 5597 C 510.154 4.34919 3.8629 0
M  V30 5598 N 509.13 3.64348 4.03425 0
M  V30 5599 H 512.932 2.27927 1.85544 0
M  V30 5600 H 510.446 1.32056 0.945253 0
M  V30 5601 H 512.443 1.10214 4.02068 0
M  V30 5602 H 511.103 0.222394 3.23937 0
M  V30 5603 H 512.114 3.91656 3.3886 0
M  V30 5604 H 508.791 1.39446 3.93524 0
M  V30 5605 H 510.181 5.43605 3.94896 0
M  V30 5606 N 512.901 -0.976442 1.23707 0
M  V30 5607 C 513.864 -2.0511 1.02287 0
M  V30 5608 C 514.864 -1.60791 -0.0167195 0
M  V30 5609 O 516.054 -1.72761 0.223408 0
M  V30 5610 C 513.186 -3.36458 0.548507 0
M  V30 5611 H 514.379 -2.25545 1.9766 0
M  V30 5612 H 511.932 -1.15042 1.05806 0
M  V30 5613 H 512.667 -3.21713 -0.408818 0
M  V30 5614 H 512.452 -3.69967 1.29874 0
M  V30 5615 H 513.942 -4.15489 0.419406 0
M  V30 5616 N 514.379 -1.04941 -1.1758 0
M  V30 5617 C 515.628 -0.753124 -1.87112 0
M  V30 5618 C 515.941 0.722507 -1.81767 0
M  V30 5619 O 517.147 1.13265 -2.46746 0
M  V30 5620 C 515.603 -1.29695 -3.35719 0
M  V30 5621 C 515.211 -2.80184 -3.49572 0
M  V30 5622 C 516.955 -1.07759 -4.10595 0
M  V30 5623 C 514.862 -3.2788 -4.92187 0
M  V30 5624 H 513.792 -0.278034 -0.700866 0
M  V30 5625 H 516.443 -1.26637 -1.32798 0
M  V30 5626 H 514.825 -0.711522 -3.89555 0
M  V30 5627 H 515.999 -3.44561 -3.05965 0
M  V30 5628 H 514.314 -3.00632 -2.88113 0
M  V30 5629 H 516.911 -1.40899 -5.15802 0
M  V30 5630 H 517.254 -0.0152302 -4.16297 0
M  V30 5631 H 517.787 -1.62809 -3.62957 0
M  V30 5632 H 514.526 -4.33535 -4.91658 0
M  V30 5633 H 514.046 -2.68245 -5.36475 0
M  V30 5634 H 515.725 -3.22412 -5.60945 0
M  V30 5635 N 515.857 1.33968 -0.830081 0
M  V30 5636 C 516.767 2.33164 -0.259207 0
M  V30 5637 C 517.783 1.62951 0.610164 0
M  V30 5638 O 518.959 1.94668 0.516369 0
M  V30 5639 C 516.024 3.42088 0.563598 0
M  V30 5640 C 515.085 4.28037 -0.329014 0
M  V30 5641 C 514.318 5.3176 0.454616 0
M  V30 5642 O 514.541 5.44876 1.6872 0
M  V30 5643 O 513.475 6.01669 -0.166794 0
M  V30 5644 H 517.301 2.83832 -1.08041 0
M  V30 5645 H 514.886 1.37154 -0.59239 0
M  V30 5646 H 516.768 4.08581 1.03147 0
M  V30 5647 H 515.443 2.93651 1.36201 0
M  V30 5648 H 514.35 3.64443 -0.844538 0
M  V30 5649 H 515.683 4.79934 -1.09196 0
M  V30 5650 N 517.335 0.585699 1.46312 0
M  V30 5651 C 518.245 -0.148236 2.34131 0
M  V30 5652 C 519.261 -0.882972 1.49932 0
M  V30 5653 O 520.437 -0.845484 1.82794 0
M  V30 5654 C 517.502 -1.14714 3.27172 0
M  V30 5655 C 516.563 -0.416746 4.27272 0
M  V30 5656 C 515.796 -1.36806 5.15868 0
M  V30 5657 O 516.019 -2.60475 5.07454 0
M  V30 5658 O 514.953 -0.877018 5.95476 0
M  V30 5659 H 518.779 0.572882 2.98248 0
M  V30 5660 H 516.364 0.346082 1.45336 0
M  V30 5661 H 518.246 -1.72303 3.84564 0
M  V30 5662 H 516.921 -1.84967 2.65648 0
M  V30 5663 H 515.828 0.201061 3.73559 0
M  V30 5664 H 517.161 0.244872 4.9159 0
M  V30 5665 N 518.813 -1.54241 0.323641 0
M  V30 5666 C 520.059 -2.01572 -0.272089 0
M  V30 5667 C 520.414 -1.20774 -1.49771 0
M  V30 5668 O 519.707 -0.281821 -1.89516 0
M  V30 5669 C 519.901 -3.5129 -0.658031 0
M  V30 5670 C 519.73 -4.46582 0.528645 0
M  V30 5671 C 518.5 -4.94737 1.02777 0
M  V30 5672 C 520.698 -4.95416 1.38086 0
M  V30 5673 N 518.68 -5.73933 2.17885 0
M  V30 5674 C 520.051 -5.72537 2.3791 0
M  V30 5675 C 522.106 -4.77559 1.40861 0
M  V30 5676 C 520.809 -6.33702 3.40314 0
M  V30 5677 C 522.835 -5.39559 2.42136 0
M  V30 5678 C 522.197 -6.16532 3.40688 0
M  V30 5679 H 518.296 -0.779425 -0.0634072 0
M  V30 5680 H 520.88 -1.8922 0.458697 0
M  V30 5681 H 519.051 -3.63888 -1.35795 0
M  V30 5682 H 520.783 -3.85388 -1.23524 0
M  V30 5683 H 517.538 -4.69796 0.599046 0
M  V30 5684 H 517.962 -6.18209 2.75947 0
M  V30 5685 H 522.604 -4.17611 0.660352 0
M  V30 5686 H 520.322 -6.9277 4.16047 0
M  V30 5687 H 523.908 -5.27659 2.45086 0
M  V30 5688 H 522.788 -6.63655 4.1777 0
M  V30 5689 N 520.291 -0.0518155 -1.57515 0
M  V30 5690 C 521.238 0.922352 -2.11569 0
M  V30 5691 C 522.208 1.30842 -1.02321 0
M  V30 5692 O 523.393 1.39778 -1.29872 0
M  V30 5693 C 520.533 2.19167 -2.6657 0
M  V30 5694 C 519.646 1.86003 -3.89906 0
M  V30 5695 C 518.781 3.07398 -4.33221 0
M  V30 5696 C 517.82 2.70158 -5.49255 0
M  V30 5697 N 516.957 3.84248 -5.8762 0
M  V30 5698 H 521.797 0.454506 -2.94514 0
M  V30 5699 H 519.334 0.212718 -1.45554 0
M  V30 5700 H 521.292 2.93443 -2.96559 0
M  V30 5701 H 519.922 2.63528 -1.86421 0
M  V30 5702 H 518.974 1.01874 -3.66505 0
M  V30 5703 H 520.286 1.54592 -4.74239 0
M  V30 5704 H 519.44 3.89972 -4.64765 0
M  V30 5705 H 518.179 3.41988 -3.477 0
M  V30 5706 H 517.184 1.86001 -5.17382 0
M  V30 5707 H 518.409 2.36759 -6.36492 0
M  V30 5708 H 516.355 4.18638 -5.05053 0
M  V30 5709 H 516.272 3.56538 -6.66646 0
M  V30 5710 H 517.54 4.6746 -6.2378 0
M  V30 5711 N 521.769 1.56035 0.221574 0
M  V30 5712 C 522.679 1.95581 1.29558 0
M  V30 5713 C 523.695 0.859639 1.51282 0
M  V30 5714 O 524.871 1.16321 1.64413 0
M  V30 5715 C 521.936 2.26447 2.62531 0
M  V30 5716 C 520.997 3.49632 2.4911 0
M  V30 5717 C 520.23 3.79017 3.75742 0
M  V30 5718 O 520.453 3.10077 4.78757 0
M  V30 5719 O 519.387 4.72507 3.72855 0
M  V30 5720 H 523.213 2.8711 0.990035 0
M  V30 5721 H 520.798 1.43244 0.424434 0
M  V30 5722 H 522.68 2.47494 3.41064 0
M  V30 5723 H 521.355 1.38092 2.92766 0
M  V30 5724 H 520.262 3.33864 1.68777 0
M  V30 5725 H 521.595 4.3837 2.23814 0
M  V30 5726 N 523.247 -0.488276 1.49845 0
M  V30 5727 C 524.177 -1.59675 1.70371 0
M  V30 5728 C 525.158 -1.60878 0.552473 0
M  V30 5729 O 526.343 -1.77417 0.78973 0
M  V30 5730 C 523.473 -2.98098 1.782 0
M  V30 5731 C 522.427 -3.11761 2.93239 0
M  V30 5732 C 521.753 -4.51661 2.86193 0
M  V30 5733 C 523.053 -2.90589 4.33999 0
M  V30 5734 H 524.747 -1.42752 2.63177 0
M  V30 5735 H 522.293 -0.685317 1.26647 0
M  V30 5736 H 524.246 -3.75555 1.91144 0
M  V30 5737 H 522.97 -3.16138 0.820018 0
M  V30 5738 H 521.629 -2.36732 2.79917 0
M  V30 5739 H 521.277 -4.66595 1.87877 0
M  V30 5740 H 520.977 -4.61742 3.63412 0
M  V30 5741 H 522.501 -5.31162 3.01163 0
M  V30 5742 H 523.915 -3.57807 4.47936 0
M  V30 5743 H 522.312 -3.1213 5.12538 0
M  V30 5744 H 523.382 -1.86595 4.4756 0
M  V30 5745 N 524.725 -1.39134 -0.740242 0
M  V30 5746 C 525.974 -1.35384 -1.49512 0
M  V30 5747 C 526.287 0.04919 -1.95538 0
M  V30 5748 O 527.493 0.209257 -2.70692 0
M  V30 5749 C 525.949 -2.37812 -2.70136 0
M  V30 5750 C 525.557 -3.83804 -2.31081 0
M  V30 5751 C 527.301 -2.4313 -3.47977 0
M  V30 5752 C 525.208 -4.77886 -3.48395 0
M  V30 5753 H 524.138 -0.503297 -0.561434 0
M  V30 5754 H 526.789 -1.64754 -0.807974 0
M  V30 5755 H 525.171 -2.01505 -3.40899 0
M  V30 5756 H 526.345 -4.29123 -1.67898 0
M  V30 5757 H 524.66 -3.81732 -1.66343 0
M  V30 5758 H 527.257 -3.10614 -4.35228 0
M  V30 5759 H 527.6 -1.45423 -3.90074 0
M  V30 5760 H 528.133 -2.78304 -2.84239 0
M  V30 5761 H 524.872 -5.76836 -3.11353 0
M  V30 5762 H 524.392 -4.3725 -4.10576 0
M  V30 5763 H 526.071 -4.96538 -4.148 0
M  V30 5764 N 526.204 0.969867 -1.24223 0
M  V30 5765 C 527.434 1.74502 -1.106 0
M  V30 5766 C 527.842 1.86038 0.344483 0
M  V30 5767 O 527.185 1.3465 1.24961 0
M  V30 5768 C 527.247 3.18391 -1.66935 0
M  V30 5769 C 526.911 3.30334 -3.15798 0
M  V30 5770 C 527.908 3.15832 -4.12973 0
M  V30 5771 C 525.593 3.54644 -3.55715 0
M  V30 5772 C 527.587 3.25461 -5.48045 0
M  V30 5773 C 525.274 3.63912 -4.90929 0
M  V30 5774 C 526.272 3.49332 -5.86904 0
M  V30 5775 O 525.96 3.58251 -7.1966 0
M  V30 5776 H 525.692 0.554119 -0.387206 0
M  V30 5777 H 528.246 1.22646 -1.64764 0
M  V30 5778 H 526.476 3.71543 -1.07203 0
M  V30 5779 H 528.165 3.77707 -1.48634 0
M  V30 5780 H 528.931 2.96937 -3.83476 0
M  V30 5781 H 524.81 3.65059 -2.81519 0
M  V30 5782 H 528.354 3.13998 -6.22937 0
M  V30 5783 H 524.251 3.82319 -5.20098 0
M  V30 5784 H 525.019 3.7498 -7.27552 0
M  V30 5785 N 527.682 1.05563 1.17022 0
M  V30 5786 C 528.629 0.659893 2.21165 0
M  V30 5787 C 529.599 -0.339813 1.62587 0
M  V30 5788 O 530.784 -0.230378 1.89404 0
M  V30 5789 C 527.924 0.0447297 3.45071 0
M  V30 5790 C 527.037 1.09372 4.17926 0
M  V30 5791 C 526.172 0.445481 5.29329 0
M  V30 5792 C 525.211 1.47852 5.93975 0
M  V30 5793 N 524.348 0.854172 6.96885 0
M  V30 5794 H 529.188 1.55243 2.54369 0
M  V30 5795 H 526.725 0.776336 1.24946 0
M  V30 5796 H 528.683 -0.329404 4.15898 0
M  V30 5797 H 527.313 -0.811244 3.1244 0
M  V30 5798 H 526.365 1.58564 3.45777 0
M  V30 5799 H 527.677 1.87773 4.62107 0
M  V30 5800 H 526.831 0.0179688 6.06697 0
M  V30 5801 H 525.57 -0.370481 4.86291 0
M  V30 5802 H 524.575 1.91601 5.15334 0
M  V30 5803 H 525.8 2.29645 6.39093 0
M  V30 5804 H 523.746 0.0587882 6.55974 0
M  V30 5805 H 523.663 1.57567 7.39397 0
M  V30 5806 H 524.931 0.451559 7.78191 0
M  V30 5807 N 529.16 -1.33526 0.837174 0
M  V30 5808 C 530.07 -2.33023 0.271568 0
M  V30 5809 C 531.086 -1.63272 -0.601514 0
M  V30 5810 O 532.262 -1.94939 -0.506038 0
M  V30 5811 C 529.327 -3.42382 -0.545448 0
M  V30 5812 C 528.388 -4.27857 0.351709 0
M  V30 5813 C 527.621 -5.31994 -0.426409 0
M  V30 5814 O 527.844 -5.45763 -1.65828 0
M  V30 5815 O 526.778 -6.01572 0.1987 0
M  V30 5816 H 530.604 -2.83256 1.09545 0
M  V30 5817 H 528.189 -1.36837 0.599655 0
M  V30 5818 H 530.071 -4.09122 -1.00979 0
M  V30 5819 H 528.746 -2.94369 -1.34641 0
M  V30 5820 H 527.653 -3.6399 0.863853 0
M  V30 5821 H 528.986 -4.79349 1.1174 0
M  V30 5822 N 530.638 -0.59345 -1.46 0
M  V30 5823 C 531.884 -0.0832754 -2.02629 0
M  V30 5824 C 532.217 1.27749 -1.46266 0
M  V30 5825 O 531.492 1.8395 -0.631866 0
M  V30 5826 C 531.775 -0.0290756 -3.60088 0
M  V30 5827 C 531.628 -1.41951 -4.26814 0
M  V30 5828 C 532.947 0.666055 -4.35031 0
M  V30 5829 H 530.066 -0.031736 -0.736316 0
M  V30 5830 H 532.708 -0.762711 -1.74019 0
M  V30 5831 H 530.858 0.549532 -3.84594 0
M  V30 5832 H 532.53 -2.04411 -4.13538 0
M  V30 5833 H 530.773 -1.98422 -3.8576 0
M  V30 5834 H 531.444 -1.33395 -5.3564 0
M  V30 5835 H 533.92 0.174401 -4.15734 0
M  V30 5836 H 532.796 0.673041 -5.44758 0
M  V30 5837 H 533.057 1.72946 -4.06869 0
M  V30 5838 N 532.116 1.54067 -0.331816 0
M  V30 5839 C 533.049 2.20886 0.573127 0
M  V30 5840 C 534.027 1.18876 1.10938 0
M  V30 5841 O 535.211 1.47649 1.17184 0
M  V30 5842 C 532.338 2.87706 1.78726 0
M  V30 5843 C 531.384 4.03505 1.38152 0
M  V30 5844 S 532.217 5.33919 0.41123 0
M  V30 5845 C 533.373 6.04236 1.63246 0
M  V30 5846 H 533.606 2.97299 0.00555737 0
M  V30 5847 H 531.139 1.53964 -0.115893 0
M  V30 5848 H 533.097 3.26825 2.48386 0
M  V30 5849 H 531.758 2.1108 2.32603 0
M  V30 5850 H 530.951 4.49152 2.28645 0
M  V30 5851 H 530.553 3.66102 0.764524 0
M  V30 5852 H 532.845 6.26917 2.56869 0
M  V30 5853 H 533.788 6.97546 1.218 0
M  V30 5854 H 534.196 5.34247 1.82318 0
M  V30 5855 N 533.594 0.0601682 1.57485 0
M  V30 5856 C 534.871 -0.651956 1.84415 0
M  V30 5857 C 535.251 -1.88498 0.950361 0
M  V30 5858 O 534.599 -2.28496 0.0136719 0
M  V30 5859 C 534.809 -1.00069 3.34346 0
M  V30 5860 C 536.157 -1.37915 4.01578 0
M  V30 5861 O 537.181 -1.09277 3.39024 0
M  V30 5862 O 536.04 -1.91399 5.11887 0
M  V30 5863 H 533.134 -0.322668 0.761455 0
M  V30 5864 H 535.68 0.0902159 1.6946 0
M  V30 5865 H 534.452 -0.124463 3.91102 0
M  V30 5866 H 534.075 -1.80001 3.54521 0
M  V30 5867 N 535.072 -1.5615 -0.213296 0
M  V30 5868 C 536.318 -1.80718 -0.933402 0
M  V30 5869 C 536.673 -0.634441 -1.81639 0
M  V30 5870 O 535.966 0.371182 -1.8797 0
M  V30 5871 C 536.16 -3.08772 -1.79985 0
M  V30 5872 C 535.989 -4.38389 -1.00224 0
M  V30 5873 C 534.759 -5.00513 -0.693885 0
M  V30 5874 C 536.957 -5.13013 -0.363598 0
M  V30 5875 N 534.939 -6.13774 0.124266 0
M  V30 5876 C 536.31 -6.19186 0.31757 0
M  V30 5877 C 538.365 -4.97126 -0.277468 0
M  V30 5878 C 537.068 -7.11197 1.07664 0
M  V30 5879 C 539.094 -5.89544 0.468155 0
M  V30 5880 C 538.456 -6.95149 1.13784 0
M  V30 5881 H 534.555 -0.712833 -0.321549 0
M  V30 5882 H 537.139 -1.93633 -0.203588 0
M  V30 5883 H 535.31 -2.97126 -2.50142 0
M  V30 5884 H 537.042 -3.21499 -2.45806 0
M  V30 5885 H 533.797 -4.62619 -1.01391 0
M  V30 5886 H 534.221 -6.74981 0.522418 0
M  V30 5887 H 538.863 -4.15526 -0.78087 0
M  V30 5888 H 536.581 -7.92273 1.59153 0
M  V30 5889 H 540.167 -5.79327 0.535911 0
M  V30 5890 H 539.047 -7.65428 1.70557 0
M  V30 5891 N 536.55 0.480323 -1.50102 0
M  V30 5892 C 537.46 1.60547 -1.71061 0
M  V30 5893 C 538.476 1.63564 -0.593529 0
M  V30 5894 O 539.652 1.81604 -0.870751 0
M  V30 5895 C 536.717 2.96814 -1.79171 0
M  V30 5896 C 535.778 3.04259 -3.02861 0
M  V30 5897 C 535.011 4.34027 -3.10574 0
M  V30 5898 O 535.234 5.24009 -2.25323 0
M  V30 5899 O 534.168 4.46873 -4.03223 0
M  V30 5900 H 537.994 1.45788 -2.6642 0
M  V30 5901 H 535.579 0.658838 -1.34088 0
M  V30 5902 H 537.461 3.77765 -1.86738 0
M  V30 5903 H 536.136 3.11791 -0.869947 0
M  V30 5904 H 535.043 2.22419 -3.008 0
M  V30 5905 H 536.376 2.94216 -3.94586 0
M  V30 5906 N 538.028 1.39524 0.732853 0
M  V30 5907 C 538.938 1.40695 1.87729 0
M  V30 5908 C 539.954 0.301496 1.71368 0
M  V30 5909 O 541.13 0.543313 1.93933 0
M  V30 5910 C 538.195 1.25098 3.23344 0
M  V30 5911 C 537.256 2.45634 3.52083 0
M  V30 5912 C 536.489 2.30772 4.81228 0
M  V30 5913 O 536.712 1.31233 5.55098 0
M  V30 5914 O 535.646 3.19799 5.09914 0
M  V30 5915 H 539.472 2.37168 1.89697 0
M  V30 5916 H 537.057 1.20663 0.880959 0
M  V30 5917 H 538.939 1.18541 4.04383 0
M  V30 5918 H 537.614 0.317209 3.22142 0
M  V30 5919 H 536.521 2.57767 2.71122 0
M  V30 5920 H 537.854 3.37712 3.58066 0
M  V30 5921 N 539.506 -0.963266 1.24736 0
M  V30 5922 C 540.922 -1.23273 1.01371 0
M  V30 5923 C 541.122 -1.99618 -0.274776 0
M  V30 5924 O 540.178 -2.32293 -0.989769 0
M  V30 5925 C 541.491 -2.01554 2.23152 0
M  V30 5926 C 543.039 -2.14629 2.27823 0
M  V30 5927 C 543.514 -2.96307 3.49237 0
M  V30 5928 N 545.005 -3.03887 3.49581 0
M  V30 5929 C 545.74 -3.67456 4.40186 0
M  V30 5930 N 545.236 -4.32706 5.41052 0
M  V30 5931 N 547.029 -3.64511 4.27888 0
M  V30 5932 H 539.18 -0.452294 2.07528 0
M  V30 5933 H 541.443 -0.262521 0.910926 0
M  V30 5934 H 541.149 -1.52847 3.1675 0
M  V30 5935 H 541.023 -3.02278 2.25628 0
M  V30 5936 H 543.41 -2.62537 1.34753 0
M  V30 5937 H 543.491 -1.13238 2.2937 0
M  V30 5938 H 543.135 -2.49091 4.42624 0
M  V30 5939 H 543.065 -3.97905 3.44933 0
M  V30 5940 H 545.556 -2.57477 2.76611 0
M  V30 5941 H 545.869 -4.79042 6.06415 0
M  V30 5942 H 544.214 -4.31361 5.44934 0
M  V30 5943 H 547.405 -3.12715 3.4832 0
M  V30 5944 H 547.578 -4.13768 4.98698 0
M  V30 5945 N 540.985 -1.06182 -1.16461 0
M  V30 5946 C 542.21 -0.798599 -1.91408 0
M  V30 5947 C 542.635 0.640987 -1.76842 0
M  V30 5948 O 541.993 1.44652 -1.09296 0
M  V30 5949 C 542.041 -1.19665 -3.40165 0
M  V30 5950 O 541.145 -0.334768 -4.11039 0
M  V30 5951 H 540.486 -0.291961 -0.596368 0
M  V30 5952 H 543.016 -1.41732 -1.47557 0
M  V30 5953 H 543.026 -1.16772 -3.90933 0
M  V30 5954 H 541.701 -2.24526 -3.50087 0
M  V30 5955 H 540.278 -0.425168 -3.70468 0
M  V30 5956 N 542.463 1.3308 -0.844243 0
M  V30 5957 C 543.41 2.29104 -0.279323 0
M  V30 5958 C 544.38 1.54577 0.607882 0
M  V30 5959 O 545.565 1.8285 0.545009 0
M  V30 5960 C 542.705 3.40927 0.53508 0
M  V30 5961 C 541.818 4.30354 -0.376749 0
M  V30 5962 C 540.953 5.29297 0.449276 0
M  V30 5963 C 539.992 6.10365 -0.460606 0
M  V30 5964 N 539.129 7.01335 0.327612 0
M  V30 5965 H 543.969 2.76817 -1.10346 0
M  V30 5966 H 541.506 1.36203 -0.555611 0
M  V30 5967 H 543.464 4.04469 1.02278 0
M  V30 5968 H 542.094 2.94391 1.32414 0
M  V30 5969 H 541.146 3.67485 -0.982791 0
M  V30 5970 H 542.458 4.87067 -1.07549 0
M  V30 5971 H 541.612 5.98392 1.00058 0
M  V30 5972 H 540.351 4.73174 1.18143 0
M  V30 5973 H 539.356 5.40182 -1.02388 0
M  V30 5974 H 540.581 6.68571 -1.1912 0
M  V30 5975 H 538.527 6.47655 1.04305 0
M  V30 5976 H 538.444 7.55355 -0.3123 0
M  V30 5977 H 539.712 7.74731 0.86098 0
M  V30 5978 N 543.941 0.601185 1.45683 0
M  V30 5979 C 544.889 -0.133955 2.32214 0
M  V30 5980 C 545.883 -0.866034 1.45589 0
M  V30 5981 O 547.089 -0.782326 1.6211 0
M  V30 5982 H 543.464 -0.0620613 0.749435 0
M  V30 5983 H 545.435 0.614389 2.92007 0
M  V30 5984 C 544.184 -1.12216 3.29094 0
M  V30 5985 H 543.507 -0.568273 3.95741 0
M  V30 5986 H 544.947 -1.60659 3.92383 0
M  V30 5987 C 543.406 -2.19251 2.55794 0
M  V30 5988 O 543.936 -3.26894 2.33459 0
M  V30 5989 N 542.142 -1.9436 2.16039 0
M  V30 5990 H 541.689 -1.06829 2.34404 0
M  V30 5991 H 541.647 -2.66181 1.67318 0
M  V30 5992 N 545.419 -1.53889 0.339982 0
M  V30 5993 C 546.667 -2.00458 -0.257112 0
M  V30 5994 C 546.988 -1.22953 -1.51353 0
M  V30 5995 O 546.258 -0.335734 -1.93002 0
M  V30 5996 H 544.838 -0.740544 -0.0979965 0
M  V30 5997 H 547.5 -1.89386 0.460317 0
M  V30 5998 H 546.596 -3.08035 -0.502057 0
M  V30 5999 N 546.897 -0.0685191 -1.57451 0
M  V30 6000 C 548.143 0.602239 -1.93652 0
M  V30 6001 C 548.476 1.6946 -0.948526 0
M  V30 6002 O 547.751 1.94487 0.022782 0
M  V30 6003 C 548.034 1.18223 -3.4014 0
M  V30 6004 C 547.887 0.0967431 -4.49696 0
M  V30 6005 C 549.206 2.08872 -3.87377 0
M  V30 6006 H 546.325 0.217453 -0.70419 0
M  V30 6007 H 548.967 -0.133821 -1.89528 0
M  V30 6008 H 547.117 1.80953 -3.43785 0
M  V30 6009 H 548.789 -0.536155 -4.58174 0
M  V30 6010 H 547.032 -0.573063 -4.29998 0
M  V30 6011 H 547.703 0.542894 -5.49324 0
M  V30 6012 H 550.179 1.56081 -3.85717 0
M  V30 6013 H 549.055 2.46389 -4.90493 0
M  V30 6014 H 549.316 2.99572 -3.25129 0
M  V30 6015 N 548.375 1.56261 0.205012 0
M  V30 6016 C 549.621 1.80306 0.9283 0
M  V30 6017 C 549.954 0.640932 1.83319 0
M  V30 6018 O 549.229 -0.359032 1.91158 0
M  V30 6019 C 549.512 3.14547 1.75306 0
M  V30 6020 C 549.365 4.41236 0.873562 0
M  V30 6021 C 550.684 3.45382 2.72762 0
M  V30 6022 H 547.803 0.655929 0.336044 0
M  V30 6023 H 550.445 1.88984 0.196211 0
M  V30 6024 H 548.595 3.0728 2.37721 0
M  V30 6025 H 550.267 4.60539 0.264887 0
M  V30 6026 H 548.51 4.33427 0.179773 0
M  V30 6027 H 549.181 5.31639 1.48541 0
M  V30 6028 H 551.657 3.52884 2.20481 0
M  V30 6029 H 550.533 4.40449 3.2756 0
M  V30 6030 H 550.794 2.68377 3.51321 0
M  V30 6031 N 549.853 -0.472356 1.50355 0
M  V30 6032 C 550.8 -1.57051 1.69126 0
M  V30 6033 C 551.77 -1.5733 0.532574 0
M  V30 6034 O 552.955 -1.7488 0.762994 0
M  V30 6035 C 550.095 -2.95033 1.79024 0
M  V30 6036 C 549.208 -3.04552 3.06386 0
M  V30 6037 C 548.343 -4.33441 3.07087 0
M  V30 6038 C 547.382 -4.36697 4.28908 0
M  V30 6039 N 546.519 -5.57056 4.27356 0
M  V30 6040 H 551.359 -1.40351 2.62879 0
M  V30 6041 H 548.896 -0.682403 1.30314 0
M  V30 6042 H 550.854 -3.75048 1.82744 0
M  V30 6043 H 549.484 -3.10371 0.887109 0
M  V30 6044 H 548.536 -2.17419 3.12143 0
M  V30 6045 H 549.848 -3.02818 3.96362 0
M  V30 6046 H 549.002 -5.21801 3.09529 0
M  V30 6047 H 547.741 -4.37782 2.14939 0
M  V30 6048 H 546.746 -3.46734 4.2668 0
M  V30 6049 H 547.971 -4.34049 5.22282 0
M  V30 6050 H 545.917 -5.62184 3.3806 0
M  V30 6051 H 545.834 -5.57058 5.111 0
M  V30 6052 H 547.102 -6.47545 4.33942 0
M  V30 6053 N 551.331 -1.39911 -0.725443 0
M  V30 6054 C 552.608 -1.28158 -1.47766 0
M  V30 6055 C 552.988 0.104545 -2.10841 0
M  V30 6056 O 552.336 1.11657 -1.99361 0
M  V30 6057 C 552.546 -2.41306 -2.52135 0
M  V30 6058 C 553.894 -2.81076 -3.18247 0
M  V30 6059 O 554.918 -2.40827 -2.62452 0
M  V30 6060 O 553.777 -3.50581 -4.19231 0
M  V30 6061 H 550.871 -0.502761 -0.656628 0
M  V30 6062 H 553.417 -1.51808 -0.758456 0
M  V30 6063 H 552.189 -3.33932 -2.03974 0
M  V30 6064 H 551.812 -2.19374 -3.31603 0
M  V30 6065 N 552.809 0.956637 -1.25245 0
M  V30 6066 C 553.741 2.05628 -1.01242 0
M  V30 6067 C 554.754 1.62785 0.0219579 0
M  V30 6068 O 555.943 1.77184 -0.216365 0
M  V30 6069 C 553.043 3.35069 -0.508161 0
M  V30 6070 C 552.216 4.06761 -1.60823 0
M  V30 6071 C 551.275 5.14473 -1.1047 0
M  V30 6072 O 550.301 5.40033 -1.79868 0
M  V30 6073 N 551.503 5.80474 0.0550773 0
M  V30 6074 H 554.268 2.2679 -1.95925 0
M  V30 6075 H 551.829 1.12505 -1.16423 0
M  V30 6076 H 553.821 4.044 -0.155819 0
M  V30 6077 H 552.391 3.10694 0.344683 0
M  V30 6078 H 551.611 3.31555 -2.13224 0
M  V30 6079 H 552.899 4.51418 -2.34733 0
M  V30 6080 H 552.297 5.62125 0.635004 0
M  V30 6081 H 550.854 6.50868 0.348469 0
M  V30 6082 N 554.287 1.06798 1.15896 0
M  V30 6083 C 555.698 0.811355 1.68149 0
M  V30 6084 C 556.049 -0.664339 1.8461 0
M  V30 6085 O 555.174 -1.51485 1.54535 0
M  V30 6086 C 555.769 1.46624 3.05429 0
M  V30 6087 C 554.328 1.25726 3.54781 0
M  V30 6088 C 553.475 1.53949 2.3064 0
M  V30 6089 H 556.426 1.23078 1.00187 0
M  V30 6090 H 556.447 0.88437 3.7008 0
M  V30 6091 H 555.959 2.54025 2.93416 0
M  V30 6092 H 554.06 0.20322 3.72045 0
M  V30 6093 H 554.173 1.97354 4.36564 0
M  V30 6094 H 552.537 0.96025 2.35905 0
M  V30 6095 H 553.32 2.6252 2.2122 0
M  V30 6096 N 555.766 -1.3263 0.851289 0
M  V30 6097 C 556.991 -2.02097 0.466006 0
M  V30 6098 C 557.416 -1.63574 -0.928709 0
M  V30 6099 O 556.774 -0.834665 -1.60944 0
M  V30 6100 C 556.822 -3.55425 0.608737 0
M  V30 6101 O 555.926 -4.10827 -0.359878 0
M  V30 6102 H 555.267 -0.636911 0.187724 0
M  V30 6103 H 557.797 -1.69253 1.14955 0
M  V30 6104 H 557.807 -4.04986 0.495006 0
M  V30 6105 H 556.482 -3.82806 1.62581 0
M  V30 6106 H 555.059 -3.72349 -0.202666 0
M  V30 6107 N 557.244 -0.608902 -1.45362 0
M  V30 6108 C 558.521 -0.0365378 -1.95566 0
M  V30 6109 C 558.901 1.43169 -1.55131 0
M  V30 6110 O 558.249 2.1349 -0.814513 0
M  V30 6111 C 558.459 -0.236026 -3.48201 0
M  V30 6112 C 559.807 -0.117518 -4.24437 0
M  V30 6113 O 560.831 -0.166217 -3.55812 0
M  V30 6114 O 559.69 -0.00372127 -5.465 0
M  V30 6115 H 556.784 0.0349874 -0.82626 0
M  V30 6116 H 559.33 -0.679055 -1.55521 0
M  V30 6117 H 558.102 -1.25569 -3.70605 0
M  V30 6118 H 557.725 0.441691 -3.95139 0
M  V30 6119 N 558.722 1.53707 -0.348139 0
M  V30 6120 C 559.685 2.23812 0.494058 0
M  V30 6121 C 560.685 1.23989 1.02388 0
M  V30 6122 O 561.875 1.48395 0.912396 0
M  V30 6123 C 559.007 2.96133 1.68872 0
M  V30 6124 H 560.2 2.99663 -0.119141 0
M  V30 6125 H 557.753 1.55983 -0.0995539 0
M  V30 6126 H 558.488 2.24481 2.34049 0
M  V30 6127 H 558.273 3.69357 1.31596 0
M  V30 6128 H 559.763 3.49475 2.28597 0
M  V30 6129 N 560.2 0.0768682 1.57412 0
M  V30 6130 C 561.163 -0.873949 2.11884 0
M  V30 6131 C 562.163 -1.22301 1.04398 0
M  V30 6132 O 563.353 -1.15545 1.30365 0
M  V30 6133 C 560.485 -2.17575 2.62438 0
M  V30 6134 H 561.678 -0.401278 2.97203 0
M  V30 6135 H 559.231 -0.171904 1.55352 0
M  V30 6136 H 559.966 -2.69368 1.80587 0
M  V30 6137 H 559.751 -1.93534 3.41009 0
M  V30 6138 H 561.241 -2.85631 3.04639 0
M  V30 6139 N 561.678 -1.56367 -0.196722 0
M  V30 6140 C 562.924 -1.80796 -0.918725 0
M  V30 6141 C 563.257 -0.650645 -1.82976 0
M  V30 6142 O 562.532 0.348889 -1.91345 0
M  V30 6143 C 562.815 -3.15472 -1.73636 0
M  V30 6144 C 562.668 -4.41693 -0.85015 0
M  V30 6145 C 563.987 -3.46824 -2.70927 0
M  V30 6146 H 561.106 -0.657702 -0.332561 0
M  V30 6147 H 563.748 -1.89086 -0.186186 0
M  V30 6148 H 561.898 -3.08536 -2.36088 0
M  V30 6149 H 563.57 -4.60673 -0.240459 0
M  V30 6150 H 561.813 -4.33517 -0.156785 0
M  V30 6151 H 562.484 -5.32419 -1.45719 0
M  V30 6152 H 564.96 -3.54049 -2.18607 0
M  V30 6153 H 563.836 -4.4218 -3.25219 0
M  V30 6154 H 564.097 -2.70236 -3.49893 0
M  V30 6155 N 563.156 0.464375 -1.50603 0
M  V30 6156 C 564.381 1.24372 -1.65971 0
M  V30 6157 C 564.806 1.84901 -0.345453 0
M  V30 6158 O 564.164 1.67596 0.691457 0
M  V30 6159 C 564.212 2.32331 -2.7578 0
M  V30 6160 O 563.316 3.37146 -2.375 0
M  V30 6161 H 562.657 0.365604 -0.554283 0
M  V30 6162 H 565.187 0.55183 -1.97018 0
M  V30 6163 H 565.197 2.77539 -2.99059 0
M  V30 6164 H 563.872 1.87648 -3.71162 0
M  V30 6165 H 562.449 2.97602 -2.24694 0
M  V30 6166 N 564.634 1.40294 0.718013 0
M  V30 6167 C 565.859 1.41941 1.5122 0
M  V30 6168 C 566.284 0.0202371 1.88089 0
M  V30 6169 O 565.642 -0.971078 1.53101 0
M  V30 6170 C 565.69 2.3141 2.76554 0
M  V30 6171 O 564.794 1.75567 3.73162 0
M  V30 6172 H 564.135 0.482644 0.456016 0
M  V30 6173 H 566.665 1.84494 0.884478 0
M  V30 6174 H 566.675 2.46513 3.25108 0
M  V30 6175 H 565.35 3.33085 2.49053 0
M  V30 6176 H 563.927 1.69798 3.31999 0
M  V30 6177 N 566.112 -0.949982 1.2575 0
M  V30 6178 C 567.06 -2.06869 1.06339 0
M  V30 6179 C 568.054 -1.69399 -0.00708901 0
M  V30 6180 O 569.26 -1.79383 0.148897 0
M  V30 6181 H 565.635 -0.677197 0.326969 0
M  V30 6182 H 567.606 -2.20396 2.01167 0
M  V30 6183 C 566.355 -3.40503 0.703769 0
M  V30 6184 H 565.678 -3.69807 1.51931 0
M  V30 6185 H 567.118 -4.19623 0.607677 0
M  V30 6186 C 565.577 -3.31685 -0.5905 0
M  V30 6187 O 566.107 -3.67085 -1.63131 0
M  V30 6188 N 564.313 -2.84797 -0.577859 0
M  V30 6189 H 563.86 -2.56186 0.26951 0
M  V30 6190 H 563.818 -2.79279 -1.44398 0
M  V30 6191 N 567.59 -1.07411 -1.15328 0
M  V30 6192 C 568.553 -0.698914 -2.18284 0
M  V30 6193 C 569.553 0.261149 -1.58665 0
M  V30 6194 O 570.743 0.0420277 -1.74149 0
M  V30 6195 C 567.875 -0.0302427 -3.40887 0
M  V30 6196 H 569.068 -1.61045 -2.52991 0
M  V30 6197 H 566.621 -0.870724 -1.298 0
M  V30 6198 H 567.356 0.893505 -3.11748 0
M  V30 6199 H 567.141 -0.720759 -3.85419 0
M  V30 6200 H 568.631 0.21759 -4.17033 0
M  V30 6201 N 569.068 1.32177 -0.85831 0
M  V30 6202 C 570.296 2.01313 -0.477582 0
M  V30 6203 C 570.711 1.6449 0.926736 0
M  V30 6204 O 570.068 0.868096 1.60531 0
M  V30 6205 C 570.119 3.56293 -0.611337 0
M  V30 6206 O 569.84 3.91794 -1.96034 0
M  V30 6207 C 571.341 4.42702 -0.230093 0
M  V30 6208 H 568.561 0.644323 -0.187322 0
M  V30 6209 H 571.105 1.68674 -1.15626 0
M  V30 6210 H 569.26 3.87395 0.0196494 0
M  V30 6211 H 569.674 4.86513 -1.95973 0
M  V30 6212 H 571.148 5.50727 -0.374674 0
M  V30 6213 H 571.625 4.3129 0.829779 0
M  V30 6214 H 572.231 4.16997 -0.836302 0
M  V30 6215 N 570.547 0.616602 1.45037 0
M  V30 6216 C 571.958 0.199359 1.85633 0
M  V30 6217 C 572.309 -1.24588 1.51566 0
M  V30 6218 O 571.434 -1.94594 0.94668 0
M  V30 6219 C 572.029 0.355033 3.36935 0
M  V30 6220 C 570.588 -0.00758748 3.76399 0
M  V30 6221 C 569.735 0.675256 2.68953 0
M  V30 6222 H 572.686 0.822708 1.3571 0
M  V30 6223 H 572.707 -0.410201 3.78282 0
M  V30 6224 H 572.219 1.40699 3.61698 0
M  V30 6225 H 570.32 -1.05837 3.57252 0
M  V30 6226 H 570.433 0.392346 4.77491 0
M  V30 6227 H 568.797 0.111992 2.54454 0
M  V30 6228 H 569.58 1.72952 2.96551 0
M  V30 6229 N 572.025 -1.5352 0.356285 0
M  V30 6230 C 573.25 -2.06007 -0.239961 0
M  V30 6231 C 573.675 -1.22872 -1.42422 0
M  V30 6232 O 573.033 -0.245516 -1.7963 0
M  V30 6233 C 573.081 -3.5522 -0.620587 0
M  V30 6234 O 572.185 -3.74864 -1.71902 0
M  V30 6235 H 571.526 -0.662961 -0.0371377 0
M  V30 6236 H 574.056 -1.98033 0.514194 0
M  V30 6237 H 574.066 -3.98081 -0.894197 0
M  V30 6238 H 572.741 -4.15175 0.245407 0
M  V30 6239 H 571.318 -3.43904 -1.44169 0
M  V30 6240 N 573.503 -0.0852151 -1.57369 0
M  V30 6241 C 574.435 0.907099 -2.10486 0
M  V30 6242 C 575.448 1.25259 -1.03991 0
M  V30 6243 O 576.637 1.20743 -1.31467 0
M  V30 6244 C 573.737 2.21908 -2.56145 0
M  V30 6245 C 572.91 2.05042 -3.86363 0
M  V30 6246 C 571.969 3.19664 -4.17973 0
M  V30 6247 O 570.995 2.94062 -4.87356 0
M  V30 6248 N 572.197 4.45151 -3.72587 0
M  V30 6249 H 574.962 0.453505 -2.96249 0
M  V30 6250 H 572.523 0.100157 -1.6159 0
M  V30 6251 H 574.515 2.97519 -2.74343 0
M  V30 6252 H 573.085 2.58723 -1.75446 0
M  V30 6253 H 572.305 1.13819 -3.77411 0
M  V30 6254 H 573.593 1.91039 -4.71574 0
M  V30 6255 H 572.991 4.68834 -3.16561 0
M  V30 6256 H 571.548 5.17744 -3.9596 0
M  V30 6257 N 574.981 1.5647 0.188427 0
M  V30 6258 C 576.206 1.85486 0.927891 0
M  V30 6259 C 576.631 0.669575 1.75779 0
M  V30 6260 O 575.989 -0.381573 1.77239 0
M  V30 6261 C 576.037 3.12784 1.7944 0
M  V30 6262 O 575.141 2.93805 2.894 0
M  V30 6263 H 574.482 0.610585 0.260925 0
M  V30 6264 H 577.012 2.037 0.191729 0
M  V30 6265 H 577.022 3.43749 2.19774 0
M  V30 6266 H 575.697 3.98671 1.18468 0
M  V30 6267 H 574.274 2.74153 2.52774 0
M  V30 6268 N 576.459 -0.456382 1.50847 0
M  V30 6269 C 577.684 -1.2349 1.66628 0
M  V30 6270 C 578.109 -1.84715 0.355254 0
M  V30 6271 O 577.467 -1.67961 -0.682559 0
M  V30 6272 C 577.515 -2.30865 2.77009 0
M  V30 6273 O 576.619 -3.35882 2.39285 0
M  V30 6274 H 575.96 -0.36266 0.556214 0
M  V30 6275 H 578.49 -0.541374 1.97308 0
M  V30 6276 H 578.5 -2.75949 3.00526 0
M  V30 6277 H 577.175 -1.85677 3.72152 0
M  V30 6278 H 575.752 -2.96406 2.26269 0
M  V30 6279 N 577.937 -1.40673 -0.710563 0
M  V30 6280 C 579.162 -1.42741 -1.50465 0
M  V30 6281 C 579.587 -0.0302116 -1.88076 0
M  V30 6282 O 578.945 0.962945 -1.53613 0
M  V30 6283 C 578.993 -2.32873 -2.75322 0
M  V30 6284 O 578.097 -1.77544 -3.72226 0
M  V30 6285 H 577.438 -0.485056 -0.45345 0
M  V30 6286 H 579.968 -1.84961 -0.874681 0
M  V30 6287 H 579.978 -2.48233 -3.23797 0
M  V30 6288 H 578.653 -3.34401 -2.47283 0
M  V30 6289 H 577.23 -1.71556 -3.31093 0
M  V30 6290 N 579.415 0.9433 -1.26252 0
M  V30 6291 C 580.664 1.68369 -1.11062 0
M  V30 6292 C 580.977 1.92514 0.346104 0
M  V30 6293 O 582.183 2.64358 0.618646 0
M  V30 6294 C 580.639 3.03171 -1.93946 0
M  V30 6295 C 580.247 2.86782 -3.4418 0
M  V30 6296 C 581.991 3.80916 -1.87359 0
M  V30 6297 C 579.898 4.17044 -4.19319 0
M  V30 6298 H 578.828 0.631469 -0.412023 0
M  V30 6299 H 581.479 1.04922 -1.50544 0
M  V30 6300 H 579.861 3.67587 -1.47296 0
M  V30 6301 H 581.035 2.31229 -3.98585 0
M  V30 6302 H 579.35 2.22482 -3.51981 0
M  V30 6303 H 581.947 4.77417 -2.40784 0
M  V30 6304 H 582.29 4.07658 -0.843857 0
M  V30 6305 H 582.823 3.2327 -2.31821 0
M  V30 6306 H 579.562 3.95487 -5.22753 0
M  V30 6307 H 579.082 4.72319 -3.69696 0
M  V30 6308 H 580.761 4.85513 -4.27651 0
M  V30 6309 N 580.893 1.08022 1.14757 0
M  V30 6310 C 581.841 0.701088 2.21783 0
M  V30 6311 C 582.835 -0.291311 1.66876 0
M  V30 6312 O 584.041 -0.154296 1.79337 0
M  V30 6313 H 580.416 0.208668 0.722469 0
M  V30 6314 H 582.387 1.61321 2.51034 0
M  V30 6315 C 581.136 0.122278 3.47485 0
M  V30 6316 H 580.459 0.877065 3.90061 0
M  V30 6317 H 581.899 -0.105248 4.23869 0
M  V30 6318 C 580.358 -1.13883 3.17068 0
M  V30 6319 O 580.888 -2.22429 3.34497 0
M  V30 6320 N 579.094 -1.04767 2.71058 0
M  V30 6321 H 578.641 -0.164302 2.57075 0
M  V30 6322 H 578.599 -1.89224 2.51081 0
M  V30 6323 N 582.371 -1.3172 0.865308 0
M  V30 6324 C 583.648 -1.91574 0.394789 0
M  V30 6325 C 584.028 -1.78769 -1.12271 0
M  V30 6326 O 583.376 -1.19245 -1.94918 0
M  V30 6327 C 583.586 -3.37957 0.870982 0
M  V30 6328 C 584.934 -4.15073 0.894384 0
M  V30 6329 O 585.958 -3.4672 0.816325 0
M  V30 6330 O 584.817 -5.37151 1.00651 0
M  V30 6331 H 581.911 -0.818649 0.117229 0
M  V30 6332 H 584.457 -1.4042 0.952913 0
M  V30 6333 H 583.229 -3.41269 1.91444 0
M  V30 6334 H 582.852 -3.96534 0.290907 0
M  V30 6335 N 583.85 -0.624285 -1.44708 0
M  V30 6336 C 585.099 -0.123539 -2.01321 0
M  V30 6337 C 585.412 1.25966 -1.49639 0
M  V30 6338 O 586.618 1.85405 -1.98336 0
M  V30 6339 C 585.074 -0.170124 -3.59498 0
M  V30 6340 C 584.682 -1.55421 -4.20176 0
M  V30 6341 C 586.426 0.274513 -4.23611 0
M  V30 6342 C 584.332 -1.55628 -5.70556 0
M  V30 6343 H 583.263 -0.0424183 -0.752806 0
M  V30 6344 H 585.913 -0.782076 -1.65999 0
M  V30 6345 H 584.296 0.555385 -3.92086 0
M  V30 6346 H 585.47 -2.30276 -3.99136 0
M  V30 6347 H 583.784 -1.94235 -3.68323 0
M  V30 6348 H 586.382 0.292402 -5.339 0
M  V30 6349 H 586.725 1.3005 -3.95465 0
M  V30 6350 H 587.258 -0.398275 -3.95801 0
M  V30 6351 H 583.997 -2.56041 -6.03426 0
M  V30 6352 H 583.517 -0.850563 -5.93739 0
M  V30 6353 H 585.196 -1.28721 -6.34066 0
M  V30 6354 N 585.328 1.53329 -0.364422 0
M  V30 6355 C 586.553 2.06132 0.229033 0
M  V30 6356 C 586.978 1.23625 1.41769 0
M  V30 6357 O 586.336 0.255038 1.79497 0
M  V30 6358 C 586.384 3.55544 0.60174 0
M  V30 6359 O 585.488 3.75771 1.69912 0
M  V30 6360 H 584.829 0.663148 0.0336213 0
M  V30 6361 H 587.359 1.97758 -0.524689 0
M  V30 6362 H 587.369 3.98549 0.873073 0
M  V30 6363 H 586.044 4.15039 -0.267421 0
M  V30 6364 H 584.621 3.44663 1.42343 0
M  V30 6365 N 586.806 0.0935595 1.57322 0
M  V30 6366 C 588.031 -0.582324 1.99057 0
M  V30 6367 C 588.456 -1.61025 0.972242 0
M  V30 6368 O 587.814 -1.81202 -0.0594622 0
M  V30 6369 C 587.862 -1.20799 3.39765 0
M  V30 6370 O 586.966 -2.32382 3.40694 0
M  V30 6371 H 586.307 -0.147884 0.647323 0
M  V30 6372 H 588.837 0.174516 2.03854 0
M  V30 6373 H 588.847 -1.54966 3.77425 0
M  V30 6374 H 587.522 -0.454914 4.13405 0
M  V30 6375 H 586.099 -1.99845 3.14827 0
M  V30 6376 N 588.284 -1.56567 -0.180126 0
M  V30 6377 C 589.217 -1.90813 -1.25163 0
M  V30 6378 C 590.195 -0.7699 -1.43218 0
M  V30 6379 O 591.379 -1.02236 -1.58367 0
M  V30 6380 C 588.506 -2.15138 -2.61597 0
M  V30 6381 C 587.552 -3.37834 -2.60328 0
M  V30 6382 S 588.385 -4.92486 -2.1028 0
M  V30 6383 C 589.541 -5.19896 -3.48509 0
M  V30 6384 H 589.774 -2.81398 -0.959283 0
M  V30 6385 H 587.307 -1.49541 -0.3843 0
M  V30 6386 H 589.265 -2.29835 -3.40127 0
M  V30 6387 H 587.926 -1.25276 -2.88036 0
M  V30 6388 H 587.119 -3.52027 -3.60684 0
M  V30 6389 H 586.721 -3.22208 -1.8989 0
M  V30 6390 H 589.013 -5.11334 -4.44459 0
M  V30 6391 H 589.956 -6.21571 -3.39198 0
M  V30 6392 H 590.364 -4.47489 -3.44114 0
M  V30 6393 N 589.762 0.448376 -1.51087 0
M  V30 6394 C 590.987 1.22605 -1.6728 0
M  V30 6395 C 591.412 1.84524 -0.365045 0
M  V30 6396 O 590.77 1.6832 0.673642 0
M  V30 6397 C 590.818 2.29393 -2.78229 0
M  V30 6398 O 589.922 3.34608 -2.41063 0
M  V30 6399 H 589.263 0.359705 -0.558129 0
M  V30 6400 H 591.793 0.530903 -1.97592 0
M  V30 6401 H 591.803 2.74352 -3.01986 0
M  V30 6402 H 590.478 1.83701 -3.73131 0
M  V30 6403 H 589.055 2.95202 -2.27838 0
M  V30 6404 N 591.24 1.41047 0.703093 0
M  V30 6405 C 592.468 1.4334 1.49202 0
M  V30 6406 C 592.883 0.0365596 1.88765 0
M  V30 6407 O 592.24 -0.942419 1.56284 0
M  V30 6408 C 592.291 2.33538 2.75939 0
M  V30 6409 O 592.012 3.67786 2.38045 0
M  V30 6410 C 593.513 2.44555 3.6974 0
M  V30 6411 H 590.733 0.488472 0.460039 0
M  V30 6412 H 593.277 1.85245 0.86629 0
M  V30 6413 H 591.432 1.94962 3.34766 0
M  V30 6414 H 591.846 4.15816 3.19683 0
M  V30 6415 H 593.32 3.11849 4.55471 0
M  V30 6416 H 593.797 1.47447 4.1371 0
M  V30 6417 H 594.403 2.83735 3.16819 0
M  V30 6418 N 592.718 -0.936591 1.26751 0
M  V30 6419 C 593.628 -2.06949 1.10496 0
M  V30 6420 C 594.644 -1.7396 0.037271 0
M  V30 6421 O 595.82 -1.99941 0.241944 0
M  V30 6422 C 592.885 -3.38612 0.744491 0
M  V30 6423 C 591.946 -3.85355 1.89209 0
M  V30 6424 C 591.179 -5.10735 1.54873 0
M  V30 6425 O 591.402 -5.68602 0.452546 0
M  V30 6426 O 590.336 -5.52632 2.38499 0
M  V30 6427 H 594.162 -2.23571 2.05547 0
M  V30 6428 H 591.747 -1.05428 1.05855 0
M  V30 6429 H 593.629 -4.17711 0.556396 0
M  V30 6430 H 592.304 -3.23218 -0.176582 0
M  V30 6431 H 591.211 -3.07182 2.13518 0
M  V30 6432 H 592.544 -4.05277 2.79305 0
M  V30 6433 N 594.196 -1.08629 -1.14182 0
M  V30 6434 C 595.128 -0.676189 -2.18998 0
M  V30 6435 C 596.141 0.277871 -1.60411 0
M  V30 6436 O 597.33 0.0651771 -1.78381 0
M  V30 6437 C 594.43 0.0254916 -3.3889 0
M  V30 6438 C 593.603 -0.948039 -4.27002 0
M  V30 6439 C 592.662 -0.281268 -5.25448 0
M  V30 6440 O 591.688 -0.926378 -5.61611 0
M  V30 6441 N 592.89 0.967923 -5.72374 0
M  V30 6442 H 595.655 -1.57792 -2.54798 0
M  V30 6443 H 593.216 -0.972665 -1.29425 0
M  V30 6444 H 595.208 0.482554 -4.01813 0
M  V30 6445 H 593.778 0.829348 -3.01398 0
M  V30 6446 H 592.998 -1.58388 -3.6098 0
M  V30 6447 H 594.286 -1.60765 -4.82734 0
M  V30 6448 H 593.684 1.51175 -5.45126 0
M  V30 6449 H 592.241 1.36844 -6.37273 0
M  V30 6450 N 595.674 1.31259 -0.872281 0
M  V30 6451 C 596.902 2.00795 -0.498907 0
M  V30 6452 C 597.317 1.65464 0.909238 0
M  V30 6453 O 596.674 0.885073 1.59602 0
M  V30 6454 C 596.725 3.55625 -0.649092 0
M  V30 6455 O 596.446 3.89692 -2.00179 0
M  V30 6456 C 597.947 4.42434 -0.277034 0
M  V30 6457 H 595.167 0.642299 -0.194145 0
M  V30 6458 H 597.711 1.67438 -1.17408 0
M  V30 6459 H 595.866 3.87394 -0.0214402 0
M  V30 6460 H 596.28 4.84407 -2.01122 0
M  V30 6461 H 597.754 5.50299 -0.433064 0
M  V30 6462 H 598.231 4.32146 0.783989 0
M  V30 6463 H 598.837 4.16086 -0.880483 0
M  V30 6464 N 597.152 0.631951 1.44375 0
M  V30 6465 C 598.082 -0.0593243 2.33425 0
M  V30 6466 C 599.063 -0.833964 1.48253 0
M  V30 6467 O 600.248 -0.799682 1.76971 0
M  V30 6468 C 597.378 -1.04096 3.31333 0
M  V30 6469 C 596.332 -0.377899 4.26328 0
M  V30 6470 C 595.658 -1.4695 5.14111 0
M  V30 6471 C 596.958 0.716371 5.17364 0
M  V30 6472 H 598.652 0.684287 2.91475 0
M  V30 6473 H 596.198 0.330518 1.40156 0
M  V30 6474 H 598.151 -1.53331 3.92514 0
M  V30 6475 H 596.875 -1.81547 2.71493 0
M  V30 6476 H 595.534 0.0938054 3.6648 0
M  V30 6477 H 595.182 -2.2349 4.50623 0
M  V30 6478 H 594.882 -1.03121 5.78481 0
M  V30 6479 H 596.406 -1.96363 5.78164 0
M  V30 6480 H 597.82 0.307089 5.72477 0
M  V30 6481 H 596.217 1.07784 5.90341 0
M  V30 6482 H 597.287 1.58316 4.58327 0
M  V30 6483 N 598.631 -1.53133 0.372548 0
M  V30 6484 C 599.594 -2.24569 -0.458389 0
M  V30 6485 C 600.594 -1.25603 -1.00402 0
M  V30 6486 O 601.784 -1.49827 -0.888672 0
M  V30 6487 C 598.916 -2.98783 -1.6414 0
M  V30 6488 H 600.109 -2.99436 0.166799 0
M  V30 6489 H 597.662 -1.55805 0.124357 0
M  V30 6490 H 598.397 -2.28176 -2.30448 0
M  V30 6491 H 598.182 -3.71404 -1.25704 0
M  V30 6492 H 599.672 -3.53068 -2.23008 0
M  V30 6493 N 600.109 -0.101901 -1.5727 0
M  V30 6494 C 601.334 0.571759 -1.99363 0
M  V30 6495 C 601.759 1.60507 -0.980768 0
M  V30 6496 O 601.117 1.81231 0.0498517 0
M  V30 6497 C 601.165 1.18996 -3.404 0
M  V30 6498 O 600.269 2.30572 -3.41922 0
M  V30 6499 H 599.61 0.144449 -0.648098 0
M  V30 6500 H 602.14 -0.185325 -2.03759 0
M  V30 6501 H 602.15 1.52962 -3.78241 0
M  V30 6502 H 600.825 0.432984 -4.1364 0
M  V30 6503 H 599.402 1.98173 -3.15883 0
M  V30 6504 N 601.587 1.56661 0.17182 0
M  V30 6505 C 602.864 1.72838 0.915778 0
M  V30 6506 C 603.244 0.66316 2.00413 0
M  V30 6507 O 602.592 -0.322123 2.26218 0
M  V30 6508 C 602.802 3.16019 1.48097 0
M  V30 6509 C 604.15 3.76962 1.95408 0
M  V30 6510 O 605.174 3.19294 1.57892 0
M  V30 6511 O 604.033 4.78219 2.64516 0
M  V30 6512 H 601.127 0.705797 0.431021 0
M  V30 6513 H 603.673 1.68947 0.159689 0
M  V30 6514 H 602.445 3.85031 0.697618 0
M  V30 6515 H 602.068 3.24234 2.30126 0
M  V30 6516 N 603.065 -0.440357 1.51323 0
M  V30 6517 C 604.293 -1.21255 1.67645 0
M  V30 6518 C 604.708 -1.85088 0.37252 0
M  V30 6519 O 604.065 -1.70582 -0.648683 0
M  V30 6520 C 604.116 -2.29881 2.78993 0
M  V30 6521 O 603.837 -1.68659 4.04334 0
M  V30 6522 C 605.338 -3.20214 3.06558 0
M  V30 6523 H 602.558 -0.36558 0.562666 0
M  V30 6524 H 605.102 -0.52214 1.97722 0
M  V30 6525 H 603.257 -2.94643 2.51524 0
M  V30 6526 H 603.671 -2.40426 4.6615 0
M  V30 6527 H 605.145 -3.92575 3.88058 0
M  V30 6528 H 605.622 -3.80794 2.18844 0
M  V30 6529 H 606.228 -2.61156 3.35675 0
M  V30 6530 N 604.543 -1.41418 -0.695603 0
M  V30 6531 C 605.82 -1.31264 -1.45014 0
M  V30 6532 C 606.2 0.0597994 -2.11015 0
M  V30 6533 O 605.548 1.07403 -2.01685 0
M  V30 6534 C 605.758 -2.466 -2.4696 0
M  V30 6535 C 607.106 -2.87763 -3.12214 0
M  V30 6536 O 608.13 -2.46339 -2.57285 0
M  V30 6537 O 606.989 -3.59395 -4.11701 0
M  V30 6538 H 604.083 -0.516576 -0.645816 0
M  V30 6539 H 606.629 -1.53382 -0.726084 0
M  V30 6540 H 605.401 -3.38183 -1.96845 0
M  V30 6541 H 605.024 -2.26358 -3.26876 0
M  V30 6542 N 606.021 0.929856 -1.27246 0
M  V30 6543 C 607.246 1.71674 -1.16374 0
M  V30 6544 C 607.671 1.86064 0.276024 0
M  V30 6545 O 607.029 1.3591 1.19992 0
M  V30 6546 C 607.077 3.09526 -1.85003 0
M  V30 6547 O 606.181 3.96142 -1.14653 0
M  V30 6548 H 605.522 0.52629 -0.404863 0
M  V30 6549 H 608.052 1.16381 -1.68276 0
M  V30 6550 H 608.062 3.59852 -1.92276 0
M  V30 6551 H 606.737 2.98369 -2.89739 0
M  V30 6552 H 605.314 3.54584 -1.15433 0
M  V30 6553 N 607.499 1.09233 1.13605 0
M  V30 6554 C 608.724 0.849067 1.89224 0
M  V30 6555 C 609.149 -0.593875 1.78479 0
M  V30 6556 O 608.507 -1.41703 1.13092 0
M  V30 6557 C 608.555 1.28642 3.36873 0
M  V30 6558 O 607.659 0.44363 4.10007 0
M  V30 6559 H 607 0.30767 0.588417 0
M  V30 6560 H 609.53 1.45595 1.43748 0
M  V30 6561 H 609.54 1.27096 3.87699 0
M  V30 6562 H 608.215 2.33729 3.44011 0
M  V30 6563 H 606.792 0.523241 3.69211 0
M  V30 6564 N 608.977 -1.30795 0.87923 0
M  V30 6565 C 609.907 -2.30742 0.357796 0
M  V30 6566 C 610.888 -1.60747 -0.556283 0
M  V30 6567 O 612.073 -1.88393 -0.47135 0
M  V30 6568 C 609.203 -3.44583 -0.433555 0
M  V30 6569 C 608.157 -4.26235 0.388251 0
M  V30 6570 C 607.483 -5.32073 -0.529352 0
M  V30 6571 C 608.783 -4.96303 1.62729 0
M  V30 6572 H 610.477 -2.74605 1.19299 0
M  V30 6573 H 608.023 -1.32017 0.575104 0
M  V30 6574 H 609.976 -4.13563 -0.808934 0
M  V30 6575 H 608.7 -2.99511 -1.30234 0
M  V30 6576 H 607.359 -3.58936 0.745695 0
M  V30 6577 H 607.007 -4.83249 -1.39569 0
M  V30 6578 H 606.707 -5.87598 0.0166741 0
M  V30 6579 H 608.231 -6.0391 -0.901373 0
M  V30 6580 H 609.645 -5.5783 1.32283 0
M  V30 6581 H 608.042 -5.61666 2.11309 0
M  V30 6582 H 609.112 -4.22758 2.37494 0
M  V30 6583 N 610.455 -0.639598 -1.44038 0
M  V30 6584 C 611.732 -0.078012 -1.95444 0
M  V30 6585 C 612.112 1.39847 -1.58133 0
M  V30 6586 O 611.46 2.11714 -0.859614 0
M  V30 6587 C 611.67 -0.309832 -3.47622 0
M  V30 6588 C 613.018 -0.207521 -4.24093 0
M  V30 6589 O 614.042 -0.241653 -3.55379 0
M  V30 6590 O 612.901 -0.119641 -5.46369 0
M  V30 6591 H 609.995 0.0174534 -0.826816 0
M  V30 6592 H 612.541 -0.711891 -1.54046 0
M  V30 6593 H 611.313 -1.33401 -3.67858 0
M  V30 6594 H 610.936 0.357777 -3.95987 0
M  V30 6595 N 611.933 1.52934 -0.380664 0
M  V30 6596 C 612.896 2.24809 0.446473 0
M  V30 6597 C 613.896 1.26133 0.997347 0
M  V30 6598 O 615.086 1.50297 0.880714 0
M  V30 6599 C 612.218 2.99649 1.62553 0
M  V30 6600 H 613.411 2.99343 -0.182677 0
M  V30 6601 H 610.964 1.55736 -0.132618 0
M  V30 6602 H 611.699 2.29395 2.29235 0
M  V30 6603 H 611.484 3.72066 1.23732 0
M  V30 6604 H 612.974 3.54246 2.21133 0
M  V30 6605 N 613.412 0.11024 1.57214 0
M  V30 6606 C 614.637 -0.561179 1.99664 0
M  V30 6607 C 615.062 -1.59985 0.989266 0
M  V30 6608 O 614.42 -1.81255 -0.0402399 0
M  V30 6609 C 614.468 -1.17189 3.41027 0
M  V30 6610 O 613.572 -2.28755 3.4314 0
M  V30 6611 H 612.913 -0.14101 0.648855 0
M  V30 6612 H 615.443 0.196128 2.03658 0
M  V30 6613 H 615.453 -1.50954 3.79047 0
M  V30 6614 H 614.128 -0.411041 4.13864 0
M  V30 6615 H 612.705 -1.96495 3.16929 0
M  V30 6616 N 614.89 -1.56749 -0.16351 0
M  V30 6617 C 616.118 -1.86577 -0.894233 0
M  V30 6618 C 616.533 -0.696543 -1.75481 0
M  V30 6619 O 615.89 0.334161 -1.79415 0
M  V30 6620 C 615.941 -3.15508 -1.76456 0
M  V30 6621 O 615.662 -4.27926 -0.938685 0
M  V30 6622 C 617.163 -3.58737 -2.60428 0
M  V30 6623 H 614.383 -0.618829 -0.259405 0
M  V30 6624 H 616.927 -2.03863 -0.161259 0
M  V30 6625 H 615.082 -3.00025 -2.45079 0
M  V30 6626 H 615.496 -5.01546 -1.53465 0
M  V30 6627 H 616.97 -4.51832 -3.17099 0
M  V30 6628 H 617.447 -2.83229 -3.35675 0
M  V30 6629 H 618.053 -3.76858 -1.97125 0
M  V30 6630 N 616.368 0.432326 -1.51554 0
M  V30 6631 C 617.616 1.17901 -1.64146 0
M  V30 6632 C 617.937 1.91604 -0.362367 0
M  V30 6633 O 617.207 1.85764 0.621968 0
M  V30 6634 H 615.787 0.438206 -0.604966 0
M  V30 6635 H 618.449 0.495172 -1.88505 0
M  V30 6636 H 617.545 1.90584 -2.47152 0
M  V30 6637 N 617.846 1.41785 0.688094 0
M  V30 6638 C 619.257 1.3701 1.26828 0
M  V30 6639 C 619.608 0.056835 1.96118 0
M  V30 6640 O 618.733 -0.84475 1.99231 0
M  V30 6641 C 619.328 2.48168 2.30648 0
M  V30 6642 C 617.887 2.46766 2.84224 0
M  V30 6643 C 617.034 2.27633 1.58361 0
M  V30 6644 H 619.985 1.51192 0.482351 0
M  V30 6645 H 620.006 2.17655 3.121 0
M  V30 6646 H 619.518 3.43735 1.80188 0
M  V30 6647 H 617.619 1.54978 3.3884 0
M  V30 6648 H 617.732 3.43342 3.34145 0
M  V30 6649 H 616.096 1.75648 1.84445 0
M  V30 6650 H 616.879 3.25238 1.09887 0
M  V30 6651 N 619.324 -0.923095 1.27737 0
M  V30 6652 C 620.254 -2.04124 1.13383 0
M  V30 6653 C 621.235 -1.70066 0.0340658 0
M  V30 6654 O 622.42 -1.93068 0.209383 0
M  V30 6655 C 619.55 -3.3831 0.785097 0
M  V30 6656 C 618.504 -3.86496 1.8386 0
M  V30 6657 C 617.83 -5.1754 1.34373 0
M  V30 6658 C 619.13 -4.09381 3.24353 0
M  V30 6659 H 620.824 -2.1639 2.06919 0
M  V30 6660 H 618.37 -1.03976 0.996243 0
M  V30 6661 H 620.323 -4.16016 0.671485 0
M  V30 6662 H 619.047 -3.2607 -0.185969 0
M  V30 6663 H 617.706 -3.10987 1.9412 0
M  V30 6664 H 617.354 -5.01696 0.361989 0
M  V30 6665 H 617.054 -5.50751 2.04811 0
M  V30 6666 H 618.578 -5.97811 1.24315 0
M  V30 6667 H 619.992 -4.77641 3.17067 0
M  V30 6668 H 618.389 -4.53906 3.92542 0
M  V30 6669 H 619.459 -3.14515 3.69064 0
M  V30 6670 N 620.802 -1.09834 -1.13024 0
M  V30 6671 C 621.712 -0.753731 -2.22162 0
M  V30 6672 C 622.728 0.246105 -1.72251 0
M  V30 6673 O 623.904 0.0864051 -2.01215 0
M  V30 6674 C 620.969 -0.183958 -3.46212 0
M  V30 6675 C 620.03 -1.24028 -4.10993 0
M  V30 6676 C 619.263 -0.697597 -5.29121 0
M  V30 6677 O 619.486 0.478092 -5.68393 0
M  V30 6678 O 618.42 -1.4546 -5.84059 0
M  V30 6679 H 622.246 -1.66456 -2.5402 0
M  V30 6680 H 619.831 -0.873026 -1.21238 0
M  V30 6681 H 621.713 0.130257 -4.21199 0
M  V30 6682 H 620.388 0.699823 -3.16045 0
M  V30 6683 H 619.295 -1.60725 -3.37814 0
M  V30 6684 H 620.628 -2.09685 -4.45301 0
M  V30 6685 N 622.28 1.30327 -0.886154 0
M  V30 6686 C 623.528 1.9571 -0.504195 0
M  V30 6687 C 623.849 1.70294 0.950003 0
M  V30 6688 O 623.119 1.02718 1.66811 0
M  V30 6689 H 621.699 0.72412 -0.183465 0
M  V30 6690 H 624.361 1.58835 -1.12949 0
M  V30 6691 H 623.457 3.04704 -0.675431 0
M  V30 6692 N 623.758 0.647228 1.43697 0
M  V30 6693 C 624.998 0.16171 2.03759 0
M  V30 6694 C 625.362 -1.19951 1.49919 0
M  V30 6695 O 626.563 -1.77808 2.01588 0
M  V30 6696 C 624.834 0.16505 3.57019 0
M  V30 6697 S 626.393 -0.253497 4.38067 0
M  V30 6698 H 623.211 0.0689985 0.707644 0
M  V30 6699 H 625.813 0.854224 1.7585 0
M  V30 6700 H 624.517 1.15858 3.93707 0
M  V30 6701 H 624.048 -0.548194 3.89562 0
M  V30 6702 H 626.063 -1.49385 4.73179 0
M  V30 6703 N 625.236 -1.5273 0.388769 0
M  V30 6704 C 626.652 -1.59553 0.0387049 0
M  V30 6705 C 626.852 -1.40278 -1.44652 0
M  V30 6706 O 625.908 -1.21951 -2.21098 0
M  V30 6707 C 627.221 -2.9625 0.515409 0
M  V30 6708 C 628.769 -3.09426 0.471621 0
M  V30 6709 C 629.244 -4.48572 0.924505 0
M  V30 6710 N 630.735 -4.54754 0.880496 0
M  V30 6711 C 631.47 -5.60653 1.20234 0
M  V30 6712 N 630.966 -6.74198 1.59463 0
M  V30 6713 N 632.759 -5.50755 1.12363 0
M  V30 6714 H 624.91 -1.63508 1.35569 0
M  V30 6715 H 627.173 -0.768097 0.555636 0
M  V30 6716 H 626.879 -3.15569 1.5527 0
M  V30 6717 H 626.753 -3.77102 -0.085792 0
M  V30 6718 H 629.14 -2.89804 -0.556588 0
M  V30 6719 H 629.221 -2.30528 1.10862 0
M  V30 6720 H 628.865 -4.68936 1.95094 0
M  V30 6721 H 628.795 -5.25935 0.264524 0
M  V30 6722 H 631.286 -3.73237 0.591815 0
M  V30 6723 H 631.599 -7.5097 1.82385 0
M  V30 6724 H 629.944 -6.75531 1.63349 0
M  V30 6725 H 633.135 -4.6093 0.816169 0
M  V30 6726 H 633.308 -6.33184 1.37777 0
M  V30 6727 O 626.753 -0.258973 -1.5941 0
M  V30 6728 H 627.444 0.314239 -1.91134 0
M  V30 END ATOM
M  V30 BEGIN BOND
M  V30 END BOND
M  V30 END CTAB
M  END
$$$$
