drugbank_target|Q7LG56 Ribonucleoside-diphosphate reductase subunit M2 B (DB00242)
 OpenBabel12092120353D

  0  0  0     0  0            999 V3000
M  V30 BEGIN CTAB
M  V30 COUNTS 5685 5754 0 0 0
M  V30 BEGIN ATOM
M  V30 1 H -0.908 1.98254 -0.117106 0
M  V30 2 N 0 1.576 0 0
M  V30 3 C 0.933 2.03868 1.02534 0
M  V30 4 C 1.911 0.928543 1.3348 0
M  V30 5 O 3.095 1.19667 1.45644 0
M  V30 6 C 0.222 2.43627 2.35294 0
M  V30 7 C -0.732 3.65373 2.2001 0
M  V30 8 S 0.101 5.13292 1.52614 0
M  V30 9 C 1.257 5.56322 2.86805 0
M  V30 10 H 1.49 2.90518 0.631377 0
M  V30 11 H -0.977 1.52953 0.210867 0
M  V30 12 H 0.981 2.67203 3.11629 0
M  V30 13 H -0.358 1.57376 2.7183 0
M  V30 14 H -1.165 3.90944 3.18086 0
M  V30 15 H -1.563 3.418 1.51819 0
M  V30 16 H 0.729 5.58782 3.83104 0
M  V30 17 H 1.672 6.56266 2.65933 0
M  V30 18 H 2.08 4.83886 2.90714 0
M  V30 19 N 1.4781 -0.272755 1.55222 0
M  V30 20 C 2.7261 -1.00234 1.75492 0
M  V30 21 C 3.0471 -1.8681 0.5592 0
M  V30 22 O 2.3171 -1.91215 -0.425882 0
M  V30 23 H 0.8971 -0.373076 0.647166 0
M  V30 24 H 3.5591 -0.296926 1.92625 0
M  V30 25 H 2.6551 -1.63913 2.65592 0
M  V30 26 N 2.9562 -1.48159 -0.537278 0
M  V30 27 C 4.2332 -1.46291 -1.29839 0
M  V30 28 C 4.6132 -0.170613 -2.10409 0
M  V30 29 O 3.9612 0.847746 -2.12192 0
M  V30 30 C 4.1712 -2.72055 -2.18603 0
M  V30 31 C 5.5192 -3.20087 -2.7898 0
M  V30 32 O 6.5432 -2.72921 -2.28894 0
M  V30 33 O 5.4022 -4.02138 -3.70064 0
M  V30 34 H 2.4962 -0.583906 -0.585647 0
M  V30 35 H 5.0422 -1.60384 -0.554534 0
M  V30 36 H 3.8142 -3.57628 -1.58801 0
M  V30 37 H 3.4372 -2.60646 -3.00249 0
M  V30 38 N 4.4343 0.785586 -1.36625 0
M  V30 39 C 5.8453 1.36101 -1.27803 0
M  V30 40 C 6.1963 1.96035 0.0804875 0
M  V30 41 O 5.3213 1.92834 0.982042 0
M  V30 42 C 5.9163 2.47442 -2.31426 0
M  V30 43 C 4.4753 3.00789 -2.26281 0
M  V30 44 C 3.6223 1.73896 -2.15999 0
M  V30 45 H 6.5733 0.586928 -1.47448 0
M  V30 46 H 6.5943 3.2656 -1.95291 0
M  V30 47 H 6.1063 2.03791 -3.30289 0
M  V30 48 H 4.2073 3.48851 -1.30896 0
M  V30 49 H 4.3203 3.57343 -3.19128 0
M  V30 50 H 2.6843 1.9628 -1.62316 0
M  V30 51 H 3.4673 1.32368 -3.16755 0
M  V30 52 N 5.9124 1.20967 1.01018 0
M  V30 53 C 6.8224 0.980157 2.13143 0
M  V30 54 C 7.8384 -0.0660665 1.73875 0
M  V30 55 O 9.0144 0.122821 2.01025 0
M  V30 56 C 6.0794 0.54216 3.42435 0
M  V30 57 C 5.1404 1.65999 3.95908 0
M  V30 58 C 4.3734 1.2428 5.19028 0
M  V30 59 O 4.5964 0.114196 5.70286 0
M  V30 60 O 3.5304 2.05271 5.65816 0
M  V30 61 H 7.3564 1.91913 2.35379 0
M  V30 62 H 4.9414 0.994099 1.11526 0
M  V30 63 H 6.8234 0.30744 4.20277 0
M  V30 64 H 5.4984 -0.36815 3.216 0
M  V30 65 H 4.4054 1.94906 3.19316 0
M  V30 66 H 5.7384 2.54753 4.21143 0
M  V30 67 N 7.3905 -1.2043 1.01659 0
M  V30 68 C 8.8065 -1.41852 0.731442 0
M  V30 69 C 9.0065 -1.89358 -0.688898 0
M  V30 70 O 8.0625 -2.06247 -1.45666 0
M  V30 71 C 9.3755 -2.44019 1.75714 0
M  V30 72 C 10.9235 -2.57785 1.77527 0
M  V30 73 C 11.3985 -3.63194 2.79023 0
M  V30 74 N 12.8895 -3.70678 2.77763 0
M  V30 75 C 13.6245 -4.51897 3.52954 0
M  V30 76 N 13.1205 -5.36921 4.37821 0
M  V30 77 N 14.9135 -4.4643 3.41551 0
M  V30 78 H 7.0645 -0.879093 1.93354 0
M  V30 79 H 9.3275 -0.448425 0.835236 0
M  V30 80 H 9.0335 -2.1611 2.77469 0
M  V30 81 H 8.9075 -3.43007 1.56927 0
M  V30 82 H 11.2945 -2.85023 0.764569 0
M  V30 83 H 11.3755 -1.58992 2.00387 0
M  V30 84 H 11.0195 -3.36699 3.80258 0
M  V30 85 H 10.9495 -4.61609 2.53425 0
M  V30 86 H 13.4405 -3.09944 2.16201 0
M  V30 87 H 13.7535 -5.95981 4.91962 0
M  V30 88 H 12.0985 -5.36424 4.41899 0
M  V30 89 H 15.2895 -3.79042 2.74672 0
M  V30 90 H 15.4625 -5.09491 4.00404 0
M  V30 91 N 8.8686 -0.792821 -1.36206 0
M  V30 92 C 10.2796 -0.429513 -1.81692 0
M  V30 93 C 10.6306 1.04695 -1.65932 0
M  V30 94 O 9.7556 1.81256 -1.18218 0
M  V30 95 C 10.3506 -0.772831 -3.29868 0
M  V30 96 C 8.9096 -0.462307 -3.7355 0
M  V30 97 C 8.0566 -1.00569 -2.5842 0
M  V30 98 H 11.0076 -0.985672 -1.24379 0
M  V30 99 H 11.0286 -0.0651928 -3.80444 0
M  V30 100 H 10.5406 -1.84747 -3.41307 0
M  V30 101 H 8.6416 0.604158 -3.67669 0
M  V30 102 H 8.7546 -0.985299 -4.68859 0
M  V30 103 H 7.1186 -0.428734 -2.51066 0
M  V30 104 H 7.9016 -2.08616 -2.72643 0
M  V30 105 N 10.3467 1.47872 -0.545128 0
M  V30 106 C 11.2567 2.33633 0.212746 0
M  V30 107 C 12.2727 1.4744 0.923983 0
M  V30 108 O 13.4487 1.80393 0.895572 0
M  V30 109 C 10.5137 3.23884 1.23693 0
M  V30 110 C 9.5747 4.25961 0.534417 0
M  V30 111 C 8.8077 5.11899 1.5098 0
M  V30 112 O 9.0307 5.00077 2.7437 0
M  V30 113 O 7.9647 5.92831 1.0409 0
M  V30 114 H 11.7907 2.99714 -0.490416 0
M  V30 115 H 9.3757 1.46235 -0.305871 0
M  V30 116 H 11.2577 3.79666 1.82843 0
M  V30 117 H 9.9327 2.60446 1.92222 0
M  V30 118 H 8.8397 3.73972 -0.0979679 0
M  V30 119 H 10.1727 4.92079 -0.109213 0
M  V30 120 N 11.8248 0.280983 1.55075 0
M  V30 121 C 12.7878 -0.590896 2.21452 0
M  V30 122 C 13.7878 -1.07682 1.19421 0
M  V30 123 O 14.9778 -0.97605 1.44288 0
M  V30 124 C 12.1098 -1.81587 2.88511 0
M  V30 125 H 13.3028 -0.0112554 2.99898 0
M  V30 126 H 10.8558 0.0316438 1.56268 0
M  V30 127 H 11.5908 -2.43587 2.14093 0
M  V30 128 H 11.3758 -1.4753 3.63287 0
M  V30 129 H 12.8658 -2.43575 3.39206 0
M  V30 130 N 13.3029 -1.57598 0.00835791 0
M  V30 131 C 14.2659 -2.07884 -0.965242 0
M  V30 132 C 15.2659 -0.989825 -1.26725 0
M  V30 133 O 16.4559 -1.25218 -1.21104 0
M  V30 134 C 13.5879 -2.52731 -2.28779 0
M  V30 135 H 14.7809 -2.95178 -0.530112 0
M  V30 136 H 12.3339 -1.54458 -0.239283 0
M  V30 137 H 13.0689 -1.68705 -2.76964 0
M  V30 138 H 12.8539 -3.32272 -2.08177 0
M  V30 139 H 14.3439 -2.91933 -2.98605 0
M  V30 140 N 14.781 0.264519 -1.55364 0
M  V30 141 C 16.029 0.993021 -1.76021 0
M  V30 142 C 16.35 1.86511 -0.569099 0
M  V30 143 O 15.62 1.91438 0.415735 0
M  V30 144 H 14.2 0.369639 -0.649135 0
M  V30 145 H 16.862 0.286707 -1.9278 0
M  V30 146 H 15.958 1.62502 -2.66457 0
M  V30 147 N 16.2591 1.48442 0.529413 0
M  V30 148 C 17.1891 1.65902 1.64313 0
M  V30 149 C 18.1701 0.507897 1.6234 0
M  V30 150 O 19.3551 0.740503 1.79528 0
M  V30 151 C 16.4851 1.69911 3.02898 0
M  V30 152 C 15.4391 2.8453 3.19729 0
M  V30 153 C 14.7651 2.73629 4.59381 0
M  V30 154 C 16.0651 4.25821 3.02447 0
M  V30 155 H 17.7591 2.5914 1.49955 0
M  V30 156 H 15.3051 1.24709 0.719982 0
M  V30 157 H 17.2581 1.80715 3.80684 0
M  V30 158 H 15.9821 0.732524 3.18279 0
M  V30 159 H 14.6411 2.73283 2.44361 0
M  V30 160 H 14.2891 1.74938 4.71599 0
M  V30 161 H 13.9891 3.50541 4.71588 0
M  V30 162 H 15.5131 2.86401 5.39265 0
M  V30 163 H 16.9271 4.37898 3.70024 0
M  V30 164 H 15.3241 5.03735 3.26146 0
M  V30 165 H 16.3941 4.42244 1.98867 0
M  V30 166 N 17.7372 -0.778329 1.37039 0
M  V30 167 C 19.0142 -1.52551 1.22424 0
M  V30 168 C 19.3942 -2.10288 -0.184964 0
M  V30 169 O 18.7422 -1.94953 -1.19187 0
M  V30 170 C 18.9522 -2.61164 2.31504 0
M  V30 171 C 20.3002 -3.28746 2.68721 0
M  V30 172 O 21.3242 -2.71455 2.30631 0
M  V30 173 O 20.1832 -4.3231 3.3432 0
M  V30 174 H 17.2772 -0.675343 0.477326 0
M  V30 175 H 19.8232 -0.815859 1.48801 0
M  V30 176 H 18.5952 -2.16574 3.25901 0
M  V30 177 H 18.2182 -3.39737 2.06554 0
M  V30 178 N 19.2153 -1.21501 -1.00376 0
M  V30 179 C 20.1473 -0.933174 -2.09343 0
M  V30 180 C 21.1603 0.0840896 -1.62583 0
M  V30 181 O 22.3493 -0.148563 -1.77881 0
M  V30 182 C 19.4493 -0.379869 -3.36764 0
M  V30 183 C 18.6223 -1.45176 -4.12605 0
M  V30 184 C 17.6813 -0.907476 -5.18316 0
M  V30 185 O 16.7073 -1.5912 -5.46507 0
M  V30 186 N 17.9093 0.276649 -5.7984 0
M  V30 187 H 20.6743 -1.87124 -2.34104 0
M  V30 188 H 18.2353 -1.12043 -1.16867 0
M  V30 189 H 20.2273 -0.00131488 -4.047 0
M  V30 190 H 18.7973 0.463048 -3.09151 0
M  V30 191 H 18.0173 -2.00411 -3.39454 0
M  V30 192 H 19.3053 -2.17328 -4.6005 0
M  V30 193 H 18.7033 0.849147 -5.59291 0
M  V30 194 H 17.2603 0.596702 -6.49063 0
M  V30 195 N 20.6934 1.19889 -1.02296 0
M  V30 196 C 21.9704 1.85148 -0.630832 0
M  V30 197 C 22.3504 1.91385 0.890782 0
M  V30 198 O 21.6984 1.42642 1.78509 0
M  V30 199 C 21.9084 3.24442 -1.28602 0
M  V30 200 C 23.2564 4.00663 -1.4055 0
M  V30 201 O 24.2804 3.33818 -1.24273 0
M  V30 202 O 23.1394 5.20387 -1.66913 0
M  V30 203 H 20.2334 0.797613 -0.218499 0
M  V30 204 H 22.7794 1.27427 -1.12074 0
M  V30 205 H 21.5514 3.14704 -2.32545 0
M  V30 206 H 21.1744 3.89802 -0.7836 0
M  V30 207 N 22.1715 0.800033 1.35784 0
M  V30 208 C 23.0815 0.207204 2.33683 0
M  V30 209 C 24.0975 -0.64631 1.61551 0
M  V30 210 O 25.2735 -0.559604 1.93469 0
M  V30 211 C 22.3385 -0.639659 3.40748 0
M  V30 212 C 21.3995 0.233585 4.28664 0
M  V30 213 C 20.6325 -0.572954 5.30616 0
M  V30 214 O 20.8555 -1.80816 5.40982 0
M  V30 215 O 19.7895 0.0327285 6.01891 0
M  V30 216 H 23.6155 1.01692 2.86169 0
M  V30 217 H 21.2005 0.561691 1.38439 0
M  V30 218 H 23.0825 -1.12223 4.06182 0
M  V30 219 H 21.7575 -1.42708 2.90544 0
M  V30 220 H 20.6645 0.763147 3.66233 0
M  V30 221 H 21.9975 0.984784 4.82248 0
M  V30 222 N 23.6496 -1.47581 0.552962 0
M  V30 223 C 25.0656 -1.5818 0.212424 0
M  V30 224 C 25.2656 -1.55213 -1.28496 0
M  V30 225 O 24.3216 -1.45329 -2.06484 0
M  V30 226 C 25.6346 -2.88865 0.835318 0
M  V30 227 C 27.1826 -3.0244 0.806156 0
M  V30 228 C 27.6576 -4.35819 1.40804 0
M  V30 229 N 29.1486 -4.42444 1.37103 0
M  V30 230 C 29.8836 -5.44202 1.80641 0
M  V30 231 N 29.3796 -6.52795 2.32015 0
M  V30 232 N 31.1726 -5.35222 1.71738 0
M  V30 233 H 23.3236 -1.47753 1.52587 0
M  V30 234 H 25.5866 -0.702941 0.636064 0
M  V30 235 H 25.2926 -2.9676 1.88749 0
M  V30 236 H 25.1666 -3.7579 0.325848 0
M  V30 237 H 27.5536 -2.94144 -0.237317 0
M  V30 238 H 27.6346 -2.17068 1.35334 0
M  V30 239 H 27.2786 -4.44871 2.45056 0
M  V30 240 H 27.2086 -5.19916 0.836338 0
M  V30 241 H 29.6996 -3.6456 0.995202 0
M  V30 242 H 30.0126 -7.26609 2.63171 0
M  V30 243 H 28.3576 -6.53696 2.36023 0
M  V30 244 H 31.5486 -4.49284 1.31382 0
M  V30 245 H 31.7216 -6.14389 2.05987 0
M  V30 246 N 25.1277 -0.289203 -1.54924 0
M  V30 247 C 26.3527 0.329299 -2.04769 0
M  V30 248 C 26.7777 1.4763 -1.16564 0
M  V30 249 O 26.1357 1.80527 -0.167186 0
M  V30 250 C 26.1837 0.774438 -3.52186 0
M  V30 251 O 25.2877 1.88038 -3.67036 0
M  V30 252 H 24.6287 0.0659259 -0.660719 0
M  V30 253 H 27.1587 -0.42761 -2.00082 0
M  V30 254 H 27.1687 1.06642 -3.93816 0
M  V30 255 H 25.8437 -0.0646707 -4.1585 0
M  V30 256 H 24.4207 1.58985 -3.3731 0
M  V30 257 N 26.6058 1.57591 -0.0167156 0
M  V30 258 C 27.8308 1.9598 0.67872 0
M  V30 259 C 28.2558 0.892546 1.65575 0
M  V30 260 O 27.6138 -0.147772 1.80697 0
M  V30 261 C 27.6618 3.33468 1.37227 0
M  V30 262 O 26.7658 3.28954 2.48722 0
M  V30 263 H 26.1068 0.639339 0.17928 0
M  V30 264 H 28.6368 2.04463 -0.0748802 0
M  V30 265 H 28.6468 3.69417 1.7319 0
M  V30 266 H 27.3218 4.10694 0.656007 0
M  V30 267 H 25.8988 3.04705 2.14963 0
M  V30 268 N 28.0839 -0.256276 1.55502 0
M  V30 269 C 29.3089 -1.00766 1.81276 0
M  V30 270 C 29.7339 -1.78524 0.59252 0
M  V30 271 O 29.0919 -1.75413 -0.45827 0
M  V30 272 C 29.1399 -1.92869 3.04687 0
M  V30 273 O 28.2439 -3.019 2.80945 0
M  V30 274 H 27.5849 -0.287224 0.598664 0
M  V30 275 H 30.1149 -0.280109 2.02674 0
M  V30 276 H 30.1249 -2.34511 3.33869 0
M  V30 277 H 28.7999 -1.35689 3.93143 0
M  V30 278 H 27.3769 -2.64454 2.62904 0
M  V30 279 N 29.562 -1.4872 -0.521534 0
M  V30 280 C 30.839 -1.4766 -1.2828 0
M  V30 281 C 31.219 -0.19292 -2.10217 0
M  V30 282 O 30.567 0.825193 -2.13079 0
M  V30 283 C 30.777 -2.74358 -2.15705 0
M  V30 284 C 32.125 -3.23028 -2.75569 0
M  V30 285 O 33.149 -2.75333 -2.25987 0
M  V30 286 O 32.008 -4.0604 -3.65778 0
M  V30 287 H 29.102 -0.590085 -0.579421 0
M  V30 288 H 31.648 -1.60963 -0.537492 0
M  V30 289 H 30.42 -3.59292 -1.54999 0
M  V30 290 H 30.043 -2.63816 -2.97467 0
M  V30 291 N 31.0401 0.771051 -1.3745 0
M  V30 292 C 32.2681 1.56015 -1.35893 0
M  V30 293 C 32.6831 1.88718 0.0555523 0
M  V30 294 O 32.0401 1.51502 1.01752 0
M  V30 295 C 32.0911 2.87001 -2.19801 0
M  V30 296 O 31.8121 2.557 -3.55738 0
M  V30 297 C 33.3131 3.81228 -2.26231 0
M  V30 298 H 30.5331 0.483317 -0.465453 0
M  V30 299 H 33.0771 0.955611 -1.80799 0
M  V30 300 H 31.2321 3.43877 -1.78402 0
M  V30 301 H 31.6461 3.39584 -3.99729 0
M  V30 302 H 33.1201 4.70139 -2.89263 0
M  V30 303 H 33.5971 4.20409 -1.27093 0
M  V30 304 H 34.2031 3.30281 -2.67945 0
M  V30 305 N 32.5182 1.22032 0.997298 0
M  V30 306 C 33.4662 0.983634 2.10778 0
M  V30 307 C 34.4602 -0.0717564 1.69248 0
M  V30 308 O 35.6662 0.080304 1.79821 0
M  V30 309 H 32.0412 0.300877 0.689186 0
M  V30 310 H 34.0122 1.92606 2.27916 0
M  V30 311 C 32.7612 0.57326 3.42942 0
M  V30 312 H 32.0842 1.37702 3.75338 0
M  V30 313 H 33.5242 0.447031 4.21637 0
M  V30 314 C 31.9832 -0.7167 3.29188 0
M  V30 315 O 32.5132 -1.77027 3.60589 0
M  V30 316 N 30.7192 -0.686167 2.82383 0
M  V30 317 H 30.2662 0.171507 2.57028 0
M  V30 318 H 30.2242 -1.54955 2.73562 0
M  V30 319 N 33.9963 -1.19345 1.0293 0
M  V30 320 C 34.9063 -2.26245 0.620515 0
M  V30 321 C 35.9223 -1.70486 -0.347928 0
M  V30 322 O 37.0983 -2.00347 -0.205704 0
M  V30 323 C 34.1633 -3.46693 -0.0218957 0
M  V30 324 C 33.2243 -4.17632 0.994102 0
M  V30 325 C 32.4573 -5.32329 0.382253 0
M  V30 326 O 32.6803 -5.64552 -0.814676 0
M  V30 327 O 31.6143 -5.91664 1.10531 0
M  V30 328 H 35.4403 -2.63453 1.51083 0
M  V30 329 H 33.0253 -1.26207 0.799513 0
M  V30 330 H 34.9073 -4.19683 -0.380072 0
M  V30 331 H 33.5823 -3.11333 -0.886209 0
M  V30 332 H 32.4893 -3.4676 1.40387 0
M  V30 333 H 33.8223 -4.56964 1.8288 0
M  V30 334 N 35.4744 -0.807222 -1.35358 0
M  V30 335 C 36.6994 -0.399309 -2.0352 0
M  V30 336 C 37.1244 0.981986 -1.60433 0
M  V30 337 O 36.4824 1.63601 -0.781299 0
M  V30 338 C 36.5304 -0.491552 -3.57234 0
M  V30 339 O 35.6344 0.494754 -4.09421 0
M  V30 340 H 34.9754 -0.166682 -0.642739 0
M  V30 341 H 37.5054 -1.09328 -1.72941 0
M  V30 342 H 37.5154 -0.361588 -4.06395 0
M  V30 343 H 36.1904 -1.49907 -3.87944 0
M  V30 344 H 34.7674 0.324977 -3.71481 0
M  V30 345 N 36.9525 1.47285 -0.560781 0
M  V30 346 C 37.8625 2.33846 0.187954 0
M  V30 347 C 38.8785 1.48412 0.908293 0
M  V30 348 O 40.0545 1.81332 0.876388 0
M  V30 349 C 37.1195 3.25178 1.2025 0
M  V30 350 C 36.1805 4.26504 0.489208 0
M  V30 351 C 35.4135 5.13472 1.45542 0
M  V30 352 O 35.6365 5.02959 2.6905 0
M  V30 353 O 34.5705 5.93902 0.977963 0
M  V30 354 H 38.3965 2.99177 -0.522177 0
M  V30 355 H 35.9815 1.45903 -0.321364 0
M  V30 356 H 37.8635 3.81584 1.78805 0
M  V30 357 H 36.5385 2.6247 1.89449 0
M  V30 358 H 35.4455 3.73847 -0.137627 0
M  V30 359 H 36.7785 4.91935 -0.161399 0
M  V30 360 N 38.4306 0.297415 1.54768 0
M  V30 361 C 39.6796 -0.313669 1.99246 0
M  V30 362 C 39.9926 -1.55281 1.18942 0
M  V30 363 O 41.1986 -2.23825 1.5367 0
M  V30 364 C 39.6546 -0.609407 3.54703 0
M  V30 365 C 39.2626 0.611192 4.43811 0
M  V30 366 C 41.0066 -1.18188 4.07715 0
M  V30 367 C 38.9136 0.288805 5.90694 0
M  V30 368 H 37.8436 -0.120979 0.744231 0
M  V30 369 H 40.4946 0.40556 1.78962 0
M  V30 370 H 38.8766 -1.38813 3.70873 0
M  V30 371 H 40.0506 1.3875 4.39414 0
M  V30 372 H 38.3656 1.10205 4.01552 0
M  V30 373 H 40.9626 -1.43727 5.15021 0
M  V30 374 H 41.3056 -2.12299 3.58099 0
M  V30 375 H 41.8386 -0.464944 3.95074 0
M  V30 376 H 38.5776 1.19838 6.44453 0
M  V30 377 H 38.0976 -0.450305 5.98107 0
M  V30 378 H 39.7766 -0.110933 6.46905 0
M  V30 379 N 39.9087 -1.5758 0.0250728 0
M  V30 380 C 40.8557 -2.09973 -0.958129 0
M  V30 381 C 41.8257 -1.00085 -1.3256 0
M  V30 382 O 43.0107 -1.27481 -1.41962 0
M  V30 383 C 40.1507 -2.62812 -2.2366 0
M  V30 384 C 39.2637 -3.86693 -1.92594 0
M  V30 385 C 38.3987 -4.27941 -3.14707 0
M  V30 386 C 37.4377 -5.44591 -2.79442 0
M  V30 387 N 36.5747 -5.81014 -3.94167 0
M  V30 388 H 41.4147 -2.937 -0.504428 0
M  V30 389 H 38.9517 -1.45172 -0.237392 0
M  V30 390 H 40.9097 -2.91536 -2.98434 0
M  V30 391 H 39.5397 -1.81922 -2.66654 0
M  V30 392 H 38.5917 -3.64723 -1.0808 0
M  V30 393 H 39.9037 -4.71547 -1.62619 0
M  V30 394 H 39.0577 -4.58079 -3.97804 0
M  V30 395 H 37.7967 -3.41845 -3.4784 0
M  V30 396 H 36.8017 -5.1415 -1.94755 0
M  V30 397 H 38.0267 -6.32382 -2.47528 0
M  V30 398 H 35.9727 -4.97874 -4.2715 0
M  V30 399 H 35.8897 -6.60498 -3.67801 0
M  V30 400 H 37.1577 -6.15756 -4.7798 0
M  V30 401 N 41.3868 0.248026 -1.55636 0
M  V30 402 C 42.6118 0.998028 -1.81808 0
M  V30 403 C 43.0368 1.78207 -0.601979 0
M  V30 404 O 42.3948 1.75653 0.448961 0
M  V30 405 C 42.4428 1.9125 -3.05705 0
M  V30 406 O 41.5468 3.00406 -2.82542 0
M  V30 407 H 40.8878 0.284045 -0.600179 0
M  V30 408 H 43.4178 0.269357 -2.02819 0
M  V30 409 H 43.4278 2.32737 -3.35108 0
M  V30 410 H 42.1028 1.33602 -3.93857 0
M  V30 411 H 40.6798 2.63056 -2.64303 0
M  V30 412 N 42.8649 1.48995 0.513639 0
M  V30 413 C 43.8129 1.65199 1.63744 0
M  V30 414 C 44.8069 0.51809 1.61283 0
M  V30 415 O 46.0129 0.697335 1.65943 0
M  V30 416 H 42.3879 0.52069 0.542574 0
M  V30 417 H 44.3589 2.59552 1.47226 0
M  V30 418 C 43.1079 1.72409 3.01945 0
M  V30 419 H 42.4309 2.59029 3.04539 0
M  V30 420 H 43.8709 1.87785 3.80148 0
M  V30 421 C 42.3299 0.46618 3.33659 0
M  V30 422 O 42.8599 -0.413744 3.99564 0
M  V30 423 N 41.0659 0.332931 2.88687 0
M  V30 424 H 40.6129 1.04996 2.35231 0
M  V30 425 H 40.5709 -0.507665 3.10274 0
M  V30 426 N 44.343 -0.763751 1.37857 0
M  V30 427 C 45.253 -1.90817 1.36478 0
M  V30 428 C 46.269 -1.71997 0.263248 0
M  V30 429 O 47.445 -1.95095 0.499979 0
M  V30 430 C 44.51 -3.2605 1.17864 0
M  V30 431 C 43.571 -3.57467 2.3773 0
M  V30 432 C 42.804 -4.86249 2.19995 0
M  V30 433 O 43.027 -5.57884 1.18836 0
M  V30 434 O 41.961 -5.16911 3.08361 0
M  V30 435 H 45.787 -1.94933 2.32884 0
M  V30 436 H 43.372 -0.907619 1.1867 0
M  V30 437 H 45.254 -4.06924 1.09504 0
M  V30 438 H 43.929 -3.22769 0.245372 0
M  V30 439 H 42.836 -2.76796 2.51664 0
M  V30 440 H 44.169 -3.655 3.29652 0
M  V30 441 N 45.8211 -1.22559 -0.990812 0
M  V30 442 C 46.7311 -1.01394 -2.11557 0
M  V30 443 C 47.7471 0.0383962 -1.73958 0
M  V30 444 O 48.9231 -0.154787 -2.00804 0
M  V30 445 C 45.9881 -0.596569 -3.41529 0
M  V30 446 C 45.0491 -1.72276 -3.93217 0
M  V30 447 C 44.2821 -1.32521 -5.16985 0
M  V30 448 O 44.5051 -0.204909 -5.70032 0
M  V30 449 O 43.4391 -2.14247 -5.62478 0
M  V30 450 H 47.2651 -1.95633 -2.32296 0
M  V30 451 H 44.8501 -1.01172 -1.0993 0
M  V30 452 H 46.7321 -0.374263 -4.19735 0
M  V30 453 H 45.4071 0.316939 -3.22145 0
M  V30 454 H 44.3141 -1.99961 -3.16174 0
M  V30 455 H 45.6471 -2.61421 -4.17037 0
M  V30 456 N 47.2992 1.18797 -1.03562 0
M  V30 457 C 48.7102 1.70322 -0.764676 0
M  V30 458 C 49.0612 1.82708 0.714996 0
M  V30 459 O 48.1862 1.50299 1.55689 0
M  V30 460 C 48.7812 3.09356 -1.38145 0
M  V30 461 C 47.3402 3.58114 -1.15895 0
M  V30 462 C 46.4872 2.34798 -1.4753 0
M  V30 463 H 49.4382 1.03543 -1.20268 0
M  V30 464 H 49.4592 3.72378 -0.781977 0
M  V30 465 H 48.9712 3.00309 -2.45837 0
M  V30 466 H 47.0722 3.72464 -0.100544 0
M  V30 467 H 47.1852 4.4184 -1.8524 0
M  V30 468 H 45.5492 2.38464 -0.894829 0
M  V30 469 H 46.3322 2.28375 -2.56319 0
M  V30 470 N 48.7773 0.814389 1.34928 0
M  V30 471 C 49.7073 0.244827 2.32213 0
M  V30 472 C 50.6883 -0.634024 1.57842 0
M  V30 473 O 51.8733 -0.562676 1.8587 0
M  V30 474 C 49.0033 -0.601106 3.42058 0
M  V30 475 C 47.9573 0.179896 4.27622 0
M  V30 476 C 47.2833 -0.788237 5.28858 0
M  V30 477 C 48.5833 1.38329 5.03649 0
M  V30 478 H 50.2773 1.05763 2.80097 0
M  V30 479 H 47.8233 0.510029 1.34665 0
M  V30 480 H 49.7763 -1.00968 4.09125 0
M  V30 481 H 48.5003 -1.44688 2.92802 0
M  V30 482 H 47.1593 0.569739 3.62146 0
M  V30 483 H 46.8073 -1.62973 4.75866 0
M  V30 484 H 46.5073 -0.269942 5.8698 0
M  V30 485 H 48.0313 -1.19485 5.98795 0
M  V30 486 H 49.4453 1.04918 5.63618 0
M  V30 487 H 47.8423 1.83662 5.71304 0
M  V30 488 H 48.9123 2.16592 4.33839 0
M  V30 489 N 50.2554 -1.46986 0.568584 0
M  V30 490 C 51.1854 -2.32946 -0.160753 0
M  V30 491 C 52.1664 -1.44487 -0.897631 0
M  V30 492 O 53.3514 -1.73327 -0.875867 0
M  V30 493 C 50.4814 -3.26494 -1.18403 0
M  V30 494 C 49.4354 -4.24282 -0.562895 0
M  V30 495 C 48.7614 -5.07236 -1.69163 0
M  V30 496 C 50.0614 -5.19989 0.490761 0
M  V30 497 H 51.7554 -2.94175 0.556916 0
M  V30 498 H 49.3014 -1.4146 0.26927 0
M  V30 499 H 51.2544 -3.85477 -1.70251 0
M  V30 500 H 49.9784 -2.63343 -1.93179 0
M  V30 501 H 48.6374 -3.66541 -0.0656164 0
M  V30 502 H 48.2854 -4.4048 -2.42871 0
M  V30 503 H 47.9854 -5.7345 -1.28174 0
M  V30 504 H 49.5094 -5.6908 -2.21314 0
M  V30 505 H 50.9234 -5.73271 0.0579047 0
M  V30 506 H 49.3204 -5.94469 0.820165 0
M  V30 507 H 50.3904 -4.64777 1.3824 0
M  V30 508 N 51.7335 -0.305618 -1.54608 0
M  V30 509 C 53.1495 0.0476228 -1.59529 0
M  V30 510 C 53.3495 1.52025 -1.32252 0
M  V30 511 O 52.4055 2.27368 -1.09818 0
M  V30 512 C 53.7185 -0.354471 -2.98603 0
M  V30 513 C 55.2665 -0.303622 -3.11524 0
M  V30 514 C 55.7415 -0.680608 -4.52915 0
M  V30 515 N 57.2325 -0.63332 -4.5885 0
M  V30 516 C 57.9675 -0.897432 -5.66334 0
M  V30 517 N 57.4635 -1.22775 -6.81834 0
M  V30 518 N 59.2565 -0.824186 -5.56025 0
M  V30 519 H 51.4075 -1.2653 -1.70599 0
M  V30 520 H 53.6705 -0.513291 -0.797017 0
M  V30 521 H 53.3765 -1.3798 -3.23503 0
M  V30 522 H 53.2505 0.289568 -3.76087 0
M  V30 523 H 55.6375 0.712472 -2.8637 0
M  V30 524 H 55.7185 -0.982348 -2.36185 0
M  V30 525 H 55.3625 -1.69453 -4.78799 0
M  V30 526 H 55.2925 0.0202385 -5.26596 0
M  V30 527 H 57.7835 -0.389138 -3.75891 0
M  V30 528 H 58.0965 -1.41513 -7.59733 0
M  V30 529 H 56.4415 -1.26583 -6.83375 0
M  V30 530 H 59.6325 -0.565748 -4.64669 0
M  V30 531 H 59.8055 -1.03338 -6.39707 0
M  V30 532 N 53.2116 1.57565 -0.0334293 0
M  V30 533 C 54.1586 2.10478 0.946981 0
M  V30 534 C 55.1286 1.00787 1.32027 0
M  V30 535 O 56.3136 1.28232 1.41284 0
M  V30 536 C 53.4536 2.63994 2.22263 0
M  V30 537 C 52.5666 3.87709 1.90541 0
M  V30 538 C 51.7016 4.29604 3.12433 0
M  V30 539 C 50.7406 5.46065 2.76549 0
M  V30 540 N 49.8776 5.83096 3.9108 0
M  V30 541 H 54.7176 2.93963 0.488846 0
M  V30 542 H 52.2546 1.45296 0.22969 0
M  V30 543 H 54.2126 2.93114 2.96884 0
M  V30 544 H 52.8426 1.83333 2.65685 0
M  V30 545 H 51.8946 3.65291 1.06144 0
M  V30 546 H 53.2066 4.72403 1.60116 0
M  V30 547 H 52.3606 4.60182 3.9537 0
M  V30 548 H 51.0996 3.43685 3.46023 0
M  V30 549 H 50.1046 5.15176 1.92026 0
M  V30 550 H 51.3296 6.33685 2.44171 0
M  V30 551 H 49.2756 5.00132 4.24504 0
M  V30 552 H 49.1926 6.6244 3.64293 0
M  V30 553 H 50.4606 6.18282 4.74708 0
M  V30 554 N 54.6897 -0.239769 1.55765 0
M  V30 555 C 55.9147 -0.988373 1.82335 0
M  V30 556 C 56.3397 -1.77886 0.611421 0
M  V30 557 O 55.6977 -1.75889 -0.439639 0
M  V30 558 C 55.7457 -1.89627 3.06715 0
M  V30 559 O 54.8497 -2.98904 2.84131 0
M  V30 560 H 54.1907 -0.280858 0.601677 0
M  V30 561 H 56.7207 -0.258597 2.02959 0
M  V30 562 H 56.7307 -2.30957 3.36338 0
M  V30 563 H 55.4057 -1.31511 3.9456 0
M  V30 564 H 53.9827 -2.61651 2.65694 0
M  V30 565 N 56.1678 -1.49265 -0.50573 0
M  V30 566 C 57.3928 -1.62478 -1.28902 0
M  V30 567 C 57.8178 -0.294332 -1.85783 0
M  V30 568 O 57.1758 0.737412 -1.65626 0
M  V30 569 C 57.2238 -2.69268 -2.39848 0
M  V30 570 O 56.3278 -2.28113 -3.43567 0
M  V30 571 H 55.6688 -0.54399 -0.380751 0
M  V30 572 H 58.1988 -1.95421 -0.605952 0
M  V30 573 H 58.2088 -2.91291 -2.85681 0
M  V30 574 H 56.8838 -3.65846 -1.97812 0
M  V30 575 H 55.4608 -2.16401 -3.03685 0
M  V30 576 N 57.6459 0.756429 -1.3826 0
M  V30 577 C 59.0619 1.0591 -1.19395 0
M  V30 578 C 59.2619 2.01459 -0.0406567 0
M  V30 579 O 58.3179 2.44909 0.614467 0
M  V30 580 C 59.6309 1.64191 -2.51916 0
M  V30 581 C 61.1789 1.76376 -2.58574 0
M  V30 582 C 61.6539 2.38069 -3.91264 0
M  V30 583 N 63.1449 2.45503 -3.92788 0
M  V30 584 C 63.8799 2.94126 -4.92217 0
M  V30 585 N 63.3759 3.42805 -6.02043 0
M  V30 586 N 65.1689 2.9314 -4.7961 0
M  V30 587 H 57.3199 0.122313 -2.12048 0
M  V30 588 H 59.5829 0.116892 -0.940766 0
M  V30 589 H 59.2889 1.01451 -3.3675 0
M  V30 590 H 59.1629 2.6329 -2.70108 0
M  V30 591 H 61.5499 2.38244 -1.74137 0
M  V30 592 H 61.6309 0.759894 -2.44252 0
M  V30 593 H 61.2749 1.76835 -4.76121 0
M  V30 594 H 61.2049 3.39091 -4.02895 0
M  V30 595 H 63.6959 2.1107 -3.13461 0
M  V30 596 H 64.0089 3.78354 -6.73846 0
M  V30 597 H 62.3539 3.4087 -6.05667 0
M  V30 598 H 65.5449 2.54419 -3.92923 0
M  V30 599 H 65.7179 3.30721 -5.5725 0
M  V30 600 N 59.124 1.23083 0.984299 0
M  V30 601 C 60.54 0.992637 1.24975 0
M  V30 602 C 60.74 -0.308618 1.99123 0
M  V30 603 O 59.796 -1.02905 2.30579 0
M  V30 604 C 61.109 2.19698 2.05312 0
M  V30 605 C 62.657 2.24147 2.18465 0
M  V30 606 C 63.132 3.44157 3.02192 0
M  V30 607 N 64.623 3.44372 3.09777 0
M  V30 608 C 65.358 4.33886 3.74874 0
M  V30 609 N 64.854 5.3363 4.41827 0
M  V30 610 N 66.647 4.21639 3.71721 0
M  V30 611 H 58.798 2.06731 0.487453 0
M  V30 612 H 61.061 0.906339 0.277944 0
M  V30 613 H 60.767 3.1411 1.58201 0
M  V30 614 H 60.641 2.20465 3.06064 0
M  V30 615 H 63.028 1.30277 2.64786 0
M  V30 616 H 63.109 2.27415 1.17115 0
M  V30 617 H 62.753 4.38332 2.56568 0
M  V30 618 H 62.683 3.3813 4.03702 0
M  V30 619 H 65.174 2.72201 2.62135 0
M  V30 620 H 65.487 5.98196 4.89266 0
M  V30 621 H 63.832 5.37534 4.40548 0
M  V30 622 H 67.023 3.42962 3.18582 0
M  V30 623 H 67.196 4.91604 4.22173 0
M  V30 624 N 60.6021 -1.18246 1.0419 0
M  V30 625 C 61.8491 -1.88257 0.746017 0
M  V30 626 C 62.1771 -1.80429 -0.726331 0
M  V30 627 O 61.4321 -1.2 -1.54591 0
M  V30 628 C 61.7311 -3.38082 1.15911 0
M  V30 629 C 61.3971 -3.66114 2.63195 0
M  V30 630 C 60.0591 -3.73474 3.03432 0
M  V30 631 C 62.4111 -3.78398 3.5842 0
M  V30 632 C 59.7391 -3.90599 4.37778 0
M  V30 633 C 62.0911 -3.97039 4.92487 0
M  V30 634 C 60.7551 -4.02635 5.32392 0
M  V30 635 H 60.0251 -0.688883 0.272987 0
M  V30 636 H 62.6721 -1.3995 1.30715 0
M  V30 637 H 60.9771 -3.88377 0.516806 0
M  V30 638 H 62.6741 -3.90596 0.907516 0
M  V30 639 H 59.2641 -3.61003 2.3103 0
M  V30 640 H 63.4481 -3.72042 3.28479 0
M  V30 641 H 58.7041 -3.93175 4.68213 0
M  V30 642 H 62.8781 -4.05486 5.66175 0
M  V30 643 H 60.5051 -4.15657 6.36501 0
M  V30 644 N 62.0802 -0.821533 -1.34494 0
M  V30 645 C 63.3262 -0.409552 -1.98622 0
M  V30 646 C 63.6592 1.0244 -1.64984 0
M  V30 647 O 62.9342 1.71325 -0.920758 0
M  V30 648 C 63.2172 -0.610458 -3.54888 0
M  V30 649 C 63.0702 -2.09043 -3.98273 0
M  V30 650 C 64.3892 -0.0455379 -4.40076 0
M  V30 651 H 61.5082 -0.15028 -0.721516 0
M  V30 652 H 64.1502 -1.03384 -1.59411 0
M  V30 653 H 62.3002 -0.079044 -3.8842 0
M  V30 654 H 63.9722 -2.68537 -3.75081 0
M  V30 655 H 62.2152 -2.58139 -3.48635 0
M  V30 656 H 62.8862 -2.18182 -5.07051 0
M  V30 657 H 65.3622 -0.499557 -4.1309 0
M  V30 658 H 64.2382 -0.215922 -5.48475 0
M  V30 659 H 64.4992 1.04939 -4.29465 0
M  V30 660 N 63.5583 1.46682 -0.576371 0
M  V30 661 C 64.8073 2.01619 -0.0572825 0
M  V30 662 C 65.1203 1.45417 1.30818 0
M  V30 663 O 66.3263 1.92133 1.91825 0
M  V30 664 C 64.7823 3.59863 -0.0518371 0
M  V30 665 C 64.3903 4.25059 -1.41523 0
M  V30 666 C 66.1343 4.2248 0.413639 0
M  V30 667 C 64.0413 5.75364 -1.36785 0
M  V30 668 H 62.9713 0.753794 -0.0176448 0
M  V30 669 H 65.6223 1.68481 -0.727076 0
M  V30 670 H 64.0043 3.90048 0.683994 0
M  V30 671 H 65.1783 4.06491 -2.17029 0
M  V30 672 H 63.4933 3.7451 -1.8202 0
M  V30 673 H 66.0903 5.3265 0.467779 0
M  V30 674 H 66.4333 3.90976 1.42982 0
M  V30 675 H 66.9663 3.96897 -0.267929 0
M  V30 676 H 63.7053 6.11518 -2.36063 0
M  V30 677 H 63.2253 5.96214 -0.654895 0
M  V30 678 H 64.9043 6.37955 -1.07805 0
M  V30 679 N 65.0364 0.313813 1.54444 0
M  V30 680 C 66.2834 -0.291675 2.00388 0
M  V30 681 C 66.6114 -1.52904 1.2021 0
M  V30 682 O 65.8664 -1.93833 0.269707 0
M  V30 683 C 66.1654 -0.680386 3.50864 0
M  V30 684 C 65.8314 0.456699 4.48581 0
M  V30 685 C 64.4934 0.768824 4.75018 0
M  V30 686 C 66.8454 1.22098 5.06697 0
M  V30 687 C 64.1734 1.84812 5.56831 0
M  V30 688 C 66.5254 2.29029 5.89685 0
M  V30 689 C 65.1894 2.60834 6.14428 0
M  V30 690 H 64.4594 -0.106732 0.733273 0
M  V30 691 H 67.1064 0.43557 1.86481 0
M  V30 692 H 65.4114 -1.48791 3.62448 0
M  V30 693 H 67.1084 -1.16026 3.83847 0
M  V30 694 H 63.6984 0.203337 4.28117 0
M  V30 695 H 67.8824 0.993096 4.86263 0
M  V30 696 H 63.1384 2.09912 5.74236 0
M  V30 697 H 67.3124 2.887 6.33739 0
M  V30 698 H 64.9394 3.44596 6.77612 0
M  V30 699 N 66.5145 -1.57545 0.0417849 0
M  V30 700 C 67.9255 -1.80011 -0.495259 0
M  V30 701 C 68.2765 -0.953199 -1.71489 0
M  V30 702 O 67.4015 -0.167138 -2.15754 0
M  V30 703 C 67.9965 -3.26482 -0.905265 0
M  V30 704 C 66.5555 -3.499 -1.38734 0
M  V30 705 C 65.7025 -2.74979 -0.358056 0
M  V30 706 H 68.6535 -1.56425 0.267736 0
M  V30 707 H 68.6745 -3.36887 -1.76882 0
M  V30 708 H 68.1865 -3.88096 -0.017401 0
M  V30 709 H 66.2875 -2.93553 -2.29471 0
M  V30 710 H 66.4005 -4.58615 -1.38598 0
M  V30 711 H 64.7645 -2.40834 -0.828912 0
M  V30 712 H 65.5475 -3.39315 0.521561 0
M  V30 713 N 67.9926 0.231505 -1.5589 0
M  V30 714 C 69.2416 0.955346 -1.7764 0
M  V30 715 C 69.5546 1.85893 -0.608546 0
M  V30 716 O 70.7606 2.62067 -0.70943 0
M  V30 717 C 69.2166 1.74886 -3.14552 0
M  V30 718 C 68.8246 0.891915 -4.39032 0
M  V30 719 C 70.5686 2.46452 -3.45633 0
M  V30 720 C 68.4756 1.68221 -5.66971 0
M  V30 721 H 67.4056 0.360446 -0.662265 0
M  V30 722 H 70.0566 0.209516 -1.823 0
M  V30 723 H 68.4386 2.53723 -3.04041 0
M  V30 724 H 69.6126 0.144793 -4.60572 0
M  V30 725 H 67.9276 0.288863 -4.15397 0
M  V30 726 H 70.5246 3.06061 -4.38441 0
M  V30 727 H 70.8676 3.18841 -2.67668 0
M  V30 728 H 71.4006 1.74613 -3.57428 0
M  V30 729 H 68.1396 1.00178 -6.478 0
M  V30 730 H 67.6596 2.4042 -5.49507 0
M  V30 731 H 69.3386 2.24544 -6.06786 0
M  V30 732 N 69.4707 1.49531 0.497807 0
M  V30 733 C 70.4027 1.62559 1.61578 0
M  V30 734 C 71.4157 0.508134 1.54667 0
M  V30 735 O 72.6047 0.780309 1.60541 0
M  V30 736 C 69.7047 1.56925 3.00379 0
M  V30 737 C 68.8777 2.84257 3.3244 0
M  V30 738 C 67.9367 2.71632 4.50669 0
M  V30 739 O 66.9627 3.4557 4.52294 0
M  V30 740 N 68.1647 1.83391 5.5077 0
M  V30 741 H 70.9297 2.58981 1.50828 0
M  V30 742 H 68.4907 1.4666 0.685743 0
M  V30 743 H 70.4827 1.46129 3.77397 0
M  V30 744 H 69.0527 0.683483 3.05037 0
M  V30 745 H 68.2727 3.09381 2.44289 0
M  V30 746 H 69.5607 3.68666 3.5066 0
M  V30 747 H 68.9587 1.22583 5.52259 0
M  V30 748 H 67.5157 1.78515 6.26878 0
M  V30 749 N 70.9488 -0.749086 1.3866 0
M  V30 750 C 72.1788 -1.53611 1.38157 0
M  V30 751 C 72.5868 -1.89177 -0.0293595 0
M  V30 752 O 71.9298 -1.53606 -1.00752 0
M  V30 753 C 71.9918 -2.86087 2.17702 0
M  V30 754 C 71.6558 -2.73034 3.66472 0
M  V30 755 C 72.6528 -2.42526 4.59866 0
M  V30 756 C 70.3378 -2.90345 4.09884 0
M  V30 757 C 72.3318 -2.29492 5.94653 0
M  V30 758 C 70.0188 -2.7693 5.4475 0
M  V30 759 C 71.0168 -2.46547 6.36949 0
M  V30 760 O 70.7048 -2.33199 7.69333 0
M  V30 761 H 70.4368 -0.481773 0.474205 0
M  V30 762 H 72.9908 -0.934465 1.82912 0
M  V30 763 H 71.2208 -3.48458 1.67672 0
M  V30 764 H 72.9098 -3.47625 2.09551 0
M  V30 765 H 73.6758 -2.28816 4.27631 0
M  V30 766 H 69.5548 -3.1299 3.38464 0
M  V30 767 H 73.0988 -2.05698 6.66584 0
M  V30 768 H 68.9958 -2.90215 5.76581 0
M  V30 769 H 69.7638 -2.48376 7.79905 0
M  V30 770 N 72.4269 -1.23603 -0.977757 0
M  V30 771 C 73.8379 -1.06424 -1.53398 0
M  V30 772 C 74.1889 0.367578 -1.92726 0
M  V30 773 O 73.3139 1.25465 -1.76316 0
M  V30 774 C 73.9089 -1.92568 -2.78753 0
M  V30 775 C 72.4679 -1.79642 -3.30765 0
M  V30 776 C 71.6149 -1.88111 -2.03739 0
M  V30 777 H 74.5659 -1.37227 -0.797152 0
M  V30 778 H 74.5869 -1.45203 -3.51705 0
M  V30 779 H 74.0989 -2.96771 -2.50098 0
M  V30 780 H 72.1999 -0.782325 -3.64294 0
M  V30 781 H 72.3129 -2.63174 -4.00345 0
M  V30 782 H 70.6769 -1.31723 -2.17994 0
M  V30 783 H 71.4599 -2.93875 -1.77461 0
M  V30 784 N 73.905 1.17692 -1.04816 0
M  V30 785 C 75.182 1.83768 -0.669963 0
M  V30 786 C 75.562 1.93232 0.849986 0
M  V30 787 O 74.91 1.46397 1.75443 0
M  V30 788 C 75.12 3.21641 -1.35455 0
M  V30 789 C 76.468 3.97592 -1.49017 0
M  V30 790 O 77.492 3.31107 -1.31326 0
M  V30 791 O 76.351 5.16729 -1.77914 0
M  V30 792 H 73.445 0.792799 -0.235368 0
M  V30 793 H 75.991 1.25021 -1.14751 0
M  V30 794 H 74.763 3.097 -2.39168 0
M  V30 795 H 74.386 3.88052 -0.866107 0
M  V30 796 N 75.3831 0.828654 1.34056 0
M  V30 797 C 76.6321 0.415828 1.97367 0
M  V30 798 C 76.9451 -1.02796 1.6641 0
M  V30 799 O 78.1511 -1.54497 2.23255 0
M  V30 800 C 76.6071 0.692601 3.53173 0
M  V30 801 C 76.2151 2.15038 3.93017 0
M  V30 802 C 77.9591 0.346222 4.23086 0
M  V30 803 C 75.8661 2.37174 5.41758 0
M  V30 804 H 74.7961 0.151755 0.738571 0
M  V30 805 H 77.4471 1.01581 1.52819 0
M  V30 806 H 75.8291 0.0223764 3.95994 0
M  V30 807 H 77.0031 2.86024 3.61285 0
M  V30 808 H 75.3181 2.45875 3.36057 0
M  V30 809 H 77.9151 0.48937 5.32456 0
M  V30 810 H 78.2581 -0.709842 4.10204 0
M  V30 811 H 78.7911 0.971258 3.85761 0
M  V30 812 H 75.5301 3.41308 5.59633 0
M  V30 813 H 75.0501 1.70738 5.74986 0
M  V30 814 H 76.7291 2.19818 6.08514 0
M  V30 815 N 76.8612 -1.46375 0.584142 0
M  V30 816 C 78.1072 -2.03248 0.0787103 0
M  V30 817 C 78.4622 -1.44737 -1.26763 0
M  V30 818 O 77.7552 -0.603625 -1.81843 0
M  V30 819 C 77.9492 -3.57373 -0.0439342 0
M  V30 820 C 77.7782 -4.30831 1.28897 0
M  V30 821 C 76.5482 -4.69683 1.8635 0
M  V30 822 C 78.7462 -4.64278 2.21248 0
M  V30 823 N 76.7282 -5.27898 3.13365 0
M  V30 824 C 78.0992 -5.23078 3.32851 0
M  V30 825 C 80.1542 -4.46209 2.20911 0
M  V30 826 C 78.8572 -5.65715 4.44251 0
M  V30 827 C 80.8832 -4.89864 3.31341 0
M  V30 828 C 80.2452 -5.48736 4.41665 0
M  V30 829 H 76.3442 -0.778714 0.0716144 0
M  V30 830 H 78.9282 -1.78509 0.777355 0
M  V30 831 H 77.0992 -3.81823 -0.711749 0
M  V30 832 H 78.8312 -4.00892 -0.553881 0
M  V30 833 H 75.5862 -4.52488 1.39826 0
M  V30 834 H 76.0102 -5.61525 3.78178 0
M  V30 835 H 80.6522 -4.00027 1.36888 0
M  V30 836 H 78.3702 -6.10875 5.29015 0
M  V30 837 H 81.9562 -4.77634 3.322 0
M  V30 838 H 80.8362 -5.81898 5.25704 0
M  V30 839 N 78.3393 -0.321999 -1.54275 0
M  V30 840 C 79.2863 0.544664 -2.24281 0
M  V30 841 C 80.2563 1.1129 -1.23303 0
M  V30 842 O 81.4413 1.15354 -1.51981 0
M  V30 843 C 78.5813 1.70045 -3.00298 0
M  V30 844 C 77.6943 1.16159 -4.1609 0
M  V30 845 C 76.8293 2.28293 -4.79641 0
M  V30 846 C 75.8683 1.71648 -5.8754 0
M  V30 847 N 75.0053 2.77438 -6.44959 0
M  V30 848 H 79.8453 -0.0588907 -2.97942 0
M  V30 849 H 77.3823 -0.0408345 -1.47043 0
M  V30 850 H 79.3403 2.38054 -3.42616 0
M  V30 851 H 77.9703 2.27531 -2.28975 0
M  V30 852 H 77.0223 0.373092 -3.78566 0
M  V30 853 H 78.3343 0.707087 -4.93763 0
M  V30 854 H 77.4883 3.0421 -5.2492 0
M  V30 855 H 76.2273 2.77079 -4.01346 0
M  V30 856 H 75.2323 0.942282 -5.41665 0
M  V30 857 H 76.4573 1.23741 -6.67731 0
M  V30 858 H 74.4033 3.25519 -5.69538 0
M  V30 859 H 74.3203 2.36547 -7.1804 0
M  V30 860 H 75.5883 3.53189 -6.94894 0
M  V30 861 N 79.8174 1.5752 -0.0501392 0
M  V30 862 C 80.7504 2.07026 0.959962 0
M  V30 863 C 81.7284 0.970539 1.30458 0
M  V30 864 O 82.9124 1.2424 1.41763 0
M  V30 865 C 80.0394 2.5099 2.27424 0
M  V30 866 C 79.0854 3.72188 2.08275 0
M  V30 867 S 79.9184 5.17888 1.36207 0
M  V30 868 C 81.0744 5.65165 2.6896 0
M  V30 869 H 81.3074 2.9238 0.538631 0
M  V30 870 H 78.8404 1.53547 0.162099 0
M  V30 871 H 80.7984 2.76982 3.02971 0
M  V30 872 H 79.4594 1.65944 2.66686 0
M  V30 873 H 78.6524 4.00866 3.05487 0
M  V30 874 H 78.2544 3.46457 1.40868 0
M  V30 875 H 80.5464 5.70687 3.65133 0
M  V30 876 H 81.4894 6.64394 2.4492 0
M  V30 877 H 81.8974 4.9289 2.75172 0
M  V30 878 N 81.2955 -0.223234 1.56011 0
M  V30 879 C 82.5255 -0.963413 1.82762 0
M  V30 880 C 82.9335 -1.78516 0.626804 0
M  V30 881 O 82.2765 -1.78974 -0.414014 0
M  V30 882 C 82.3385 -1.93126 3.0322 0
M  V30 883 C 82.0025 -1.2942 4.38291 0
M  V30 884 C 82.9995 -0.684916 5.15369 0
M  V30 885 C 80.6845 -1.30647 4.85012 0
M  V30 886 C 82.6785 -0.0963971 6.37327 0
M  V30 887 C 80.3655 -0.71411 6.06913 0
M  V30 888 C 81.3635 -0.110123 6.82911 0
M  V30 889 O 81.0515 0.47303 8.02507 0
M  V30 890 H 80.7835 -0.288011 0.611576 0
M  V30 891 H 83.3375 -0.244103 2.03944 0
M  V30 892 H 81.5675 -2.68952 2.77852 0
M  V30 893 H 83.2565 -2.53685 3.16857 0
M  V30 894 H 84.0225 -0.667774 4.80381 0
M  V30 895 H 79.9015 -1.76598 4.25833 0
M  V30 896 H 83.4455 0.375657 6.96588 0
M  V30 897 H 79.3425 -0.728659 6.41374 0
M  V30 898 H 80.1105 0.367186 8.17676 0
M  V30 899 N 82.7736 -1.49793 -0.48987 0
M  V30 900 C 83.7206 -1.67281 -1.59014 0
M  V30 901 C 84.6906 -0.514177 -1.57941 0
M  V30 902 O 85.8756 -0.742533 -1.75759 0
M  V30 903 C 83.0156 -1.75569 -2.97102 0
M  V30 904 C 82.1286 -3.0281 -3.08107 0
M  V30 905 C 81.2636 -3.02008 -4.36995 0
M  V30 906 C 80.3026 -4.23782 -4.41673 0
M  V30 907 N 79.4396 -4.20826 -5.62005 0
M  V30 908 H 84.2796 -2.61224 -1.43409 0
M  V30 909 H 81.8166 -1.29508 -0.697565 0
M  V30 910 H 83.7746 -1.78354 -3.77155 0
M  V30 911 H 82.4046 -0.850827 -3.11385 0
M  V30 912 H 81.4566 -3.09584 -2.21047 0
M  V30 913 H 82.7686 -3.92801 -3.07423 0
M  V30 914 H 81.9226 -3.03418 -5.25378 0
M  V30 915 H 80.6616 -2.09815 -4.4026 0
M  V30 916 H 79.6666 -4.22604 -3.5169 0
M  V30 917 H 80.8916 -5.17181 -4.40115 0
M  V30 918 H 78.8376 -3.31476 -5.66091 0
M  V30 919 H 78.7546 -5.04564 -5.62984 0
M  V30 920 H 80.0226 -4.26355 -6.52565 0
M  V30 921 N 84.2517 0.741722 -1.39055 0
M  V30 922 C 85.1837 1.8657 -1.33133 0
M  V30 923 C 86.1967 1.61001 -0.241329 0
M  V30 924 O 87.3857 1.7136 -0.499784 0
M  V30 925 C 84.4857 3.22457 -1.04283 0
M  V30 926 C 83.6587 3.75435 -2.24427 0
M  V30 927 C 82.7177 4.89867 -1.92138 0
M  V30 928 O 81.7437 5.03879 -2.64754 0
M  V30 929 N 82.9457 5.73738 -0.88347 0
M  V30 930 H 85.7107 1.92156 -2.29991 0
M  V30 931 H 83.2717 0.922172 -1.3307 0
M  V30 932 H 85.2637 3.9657 -0.807128 0
M  V30 933 H 83.8337 3.12181 -0.161807 0
M  V30 934 H 83.0537 2.92751 -2.6399 0
M  V30 935 H 84.3417 4.07563 -3.04581 0
M  V30 936 H 83.7397 5.64999 -0.281517 0
M  V30 937 H 82.2967 6.47947 -0.707662 0
M  V30 938 N 85.7298 1.2412 0.971189 0
M  V30 939 C 86.6928 1.03156 2.04674 0
M  V30 940 C 87.6928 -0.00990322 1.60797 0
M  V30 941 O 88.8828 0.230729 1.72665 0
M  V30 942 C 86.0148 0.562765 3.36223 0
M  V30 943 H 87.2078 1.98614 2.24705 0
M  V30 944 H 84.7608 1.06293 1.14593 0
M  V30 945 H 85.4958 -0.395176 3.21883 0
M  V30 946 H 85.2808 1.31441 3.69413 0
M  V30 947 H 86.7708 0.437015 4.15307 0
M  V30 948 N 87.2079 -1.17134 1.05439 0
M  V30 949 C 88.1399 -2.2078 0.615539 0
M  V30 950 C 89.1529 -1.59584 -0.322001 0
M  V30 951 O 90.3419 -1.78133 -0.114344 0
M  V30 952 C 87.4419 -3.38691 -0.118938 0
M  V30 953 C 86.6149 -4.29454 0.829924 0
M  V30 954 C 85.6739 -5.26024 0.136258 0
M  V30 955 O 84.6999 -5.63952 0.77115 0
M  V30 956 N 85.9019 -5.69487 -1.1254 0
M  V30 957 H 88.6669 -2.59052 1.50705 0
M  V30 958 H 86.2279 -1.32058 0.936603 0
M  V30 959 H 88.2199 -4.00329 -0.593179 0
M  V30 960 H 86.7899 -2.98996 -0.91215 0
M  V30 961 H 86.0099 -3.65211 1.48373 0
M  V30 962 H 87.2979 -4.86984 1.47392 0
M  V30 963 H 86.6959 -5.4075 -1.6615 0
M  V30 964 H 85.2529 -6.33257 -1.54366 0
M  V30 965 N 88.686 -0.835752 -1.33615 0
M  V30 966 C 89.649 -0.272 -2.2758 0
M  V30 967 C 90.649 0.557487 -1.50827 0
M  V30 968 O 91.839 0.37173 -1.70188 0
M  V30 969 C 88.971 0.617173 -3.35267 0
M  V30 970 H 90.164 -1.10111 -2.78954 0
M  V30 971 H 87.717 -0.608594 -1.43965 0
M  V30 972 H 88.452 1.46884 -2.89129 0
M  V30 973 H 88.237 0.0237066 -3.92093 0
M  V30 974 H 89.727 1.005 -4.05326 0
M  V30 975 N 90.1641 1.46063 -0.591896 0
M  V30 976 C 91.3891 2.07226 -0.0850314 0
M  V30 977 C 91.8141 1.43625 1.21463 0
M  V30 978 O 91.1721 0.523305 1.73583 0
M  V30 979 C 91.2201 3.60554 0.0576567 0
M  V30 980 O 90.3241 3.97128 1.11188 0
M  V30 981 H 89.6651 0.660615 -0.0669568 0
M  V30 982 H 92.1951 1.8756 -0.81745 0
M  V30 983 H 92.2051 4.07165 0.2609 0
M  V30 984 H 90.8801 4.06235 -0.891416 0
M  V30 985 H 89.4571 3.62213 0.886356 0
M  V30 986 N 91.6422 0.330177 1.54103 0
M  V30 987 C 92.8892 -0.270405 2.00686 0
M  V30 988 C 93.2172 -1.51621 1.21825 0
M  V30 989 O 92.4722 -1.93536 0.29025 0
M  V30 990 C 92.7712 -0.643134 3.51566 0
M  V30 991 C 92.4372 0.504251 4.48072 0
M  V30 992 C 91.0992 0.819163 4.74176 0
M  V30 993 C 93.4512 1.27465 5.05373 0
M  V30 994 C 90.7792 1.90708 5.5484 0
M  V30 995 C 93.1312 2.35271 5.87223 0
M  V30 996 C 91.7952 2.67336 6.11627 0
M  V30 997 H 91.0652 -0.0989482 0.734364 0
M  V30 998 H 93.7122 0.455324 1.86008 0
M  V30 999 H 92.0172 -1.44938 3.64006 0
M  V30 1000 H 93.7142 -1.11949 3.85056 0
M  V30 1001 H 90.3042 0.248733 4.27878 0
M  V30 1002 H 94.4882 1.04462 4.85182 0
M  V30 1003 H 89.7442 2.15991 5.71977 0
M  V30 1004 H 93.9182 2.95405 6.30641 0
M  V30 1005 H 91.5452 3.51763 6.73919 0
M  V30 1006 N 93.1203 -1.57491 0.0584922 0
M  V30 1007 C 94.3663 -1.94081 -0.608617 0
M  V30 1008 C 94.7213 -0.937438 -1.68017 0
M  V30 1009 O 94.0143 0.0423034 -1.91553 0
M  V30 1010 C 94.2083 -3.3513 -1.24188 0
M  V30 1011 C 94.0373 -4.49095 -0.233187 0
M  V30 1012 C 92.8073 -5.04988 0.177439 0
M  V30 1013 C 95.0053 -5.1162 0.524306 0
M  V30 1014 N 92.9873 -6.02487 1.17823 0
M  V30 1015 C 94.3583 -6.04493 1.37796 0
M  V30 1016 C 96.4133 -4.94489 0.581822 0
M  V30 1017 C 95.1163 -6.82075 2.28399 0
M  V30 1018 C 97.1423 -5.72703 1.47531 0
M  V30 1019 C 96.5043 -6.65214 2.31667 0
M  V30 1020 H 92.6033 -0.75752 -0.194134 0
M  V30 1021 H 95.1873 -1.94248 0.132533 0
M  V30 1022 H 93.3583 -3.35726 -1.95302 0
M  V30 1023 H 95.0903 -3.5899 -1.86838 0
M  V30 1024 H 91.8453 -4.73165 -0.203004 0
M  V30 1025 H 92.2693 -6.55933 1.67573 0
M  V30 1026 H 96.9113 -4.22765 -0.054443 0
M  V30 1027 H 94.6293 -7.53085 2.93067 0
M  V30 1028 H 98.2153 -5.61472 1.52448 0
M  V30 1029 H 97.0953 -7.24679 2.99683 0
M  V30 1030 N 94.5984 0.214957 -1.56127 0
M  V30 1031 C 95.8264 0.955092 -1.83536 0
M  V30 1032 C 96.2414 1.77677 -0.638472 0
M  V30 1033 O 95.5984 1.78219 0.392968 0
M  V30 1034 C 95.6494 1.86734 -3.09536 0
M  V30 1035 O 95.3704 1.07887 -4.24608 0
M  V30 1036 C 96.8714 2.72082 -3.4998 0
M  V30 1037 H 94.0914 0.279611 -0.609966 0
M  V30 1038 H 96.6354 0.228197 -2.03223 0
M  V30 1039 H 94.7904 2.5481 -2.91806 0
M  V30 1040 H 95.2044 1.69872 -4.9623 0
M  V30 1041 H 96.6784 3.31782 -4.41163 0
M  V30 1042 H 97.1554 3.44806 -2.7204 0
M  V30 1043 H 97.7614 2.09409 -3.70173 0
M  V30 1044 N 96.0765 1.50051 0.48192 0
M  V30 1045 C 97.0395 1.67584 1.5636 0
M  V30 1046 C 98.0395 0.546894 1.51214 0
M  V30 1047 O 99.2295 0.813725 1.54026 0
M  V30 1048 C 96.3615 1.691 2.96003 0
M  V30 1049 H 97.5545 2.64078 1.42136 0
M  V30 1050 H 95.1075 1.39369 0.707533 0
M  V30 1051 H 95.8425 0.742589 3.15684 0
M  V30 1052 H 95.6275 2.51105 3.01146 0
M  V30 1053 H 97.1175 1.84656 3.74556 0
M  V30 1054 N 97.5546 -0.734337 1.39446 0
M  V30 1055 C 98.4646 -1.87879 1.40495 0
M  V30 1056 C 99.4806 -1.714 0.299672 0
M  V30 1057 O 100.657 -1.93991 0.541249 0
M  V30 1058 C 97.7216 -3.23477 1.24754 0
M  V30 1059 C 96.7826 -3.52344 2.45259 0
M  V30 1060 C 96.0156 -4.81473 2.30259 0
M  V30 1061 O 96.2386 -5.55237 1.30643 0
M  V30 1062 O 95.1726 -5.10254 3.19256 0
M  V30 1063 H 98.9986 -1.89949 2.36966 0
M  V30 1064 H 96.5836 -0.882243 1.20569 0
M  V30 1065 H 98.4656 -4.04509 1.18111 0
M  V30 1066 H 97.1406 -3.22176 0.313781 0
M  V30 1067 H 96.0476 -2.71396 2.57478 0
M  V30 1068 H 97.3806 -3.58426 3.37331 0
M  V30 1069 N 99.0327 -1.24633 -0.964593 0
M  V30 1070 C 99.9427 -1.05859 -2.09359 0
M  V30 1071 C 100.959 0.00148855 -1.74 0
M  V30 1072 O 102.135 -0.197346 -2.00431 0
M  V30 1073 C 99.1997 -0.668879 -3.40187 0
M  V30 1074 C 98.2607 -1.80578 -3.89474 0
M  V30 1075 C 97.4937 -1.43457 -5.14058 0
M  V30 1076 O 97.7167 -0.325775 -5.69469 0
M  V30 1077 O 96.6507 -2.2613 -5.57807 0
M  V30 1078 H 100.477 -2.00516 -2.28094 0
M  V30 1079 H 98.0617 -1.03481 -1.0776 0
M  V30 1080 H 99.9437 -0.463211 -4.18846 0
M  V30 1081 H 98.6187 0.248536 -3.22744 0
M  V30 1082 H 97.5257 -2.06623 -3.11862 0
M  V30 1083 H 98.8587 -2.70208 -4.11398 0
M  V30 1084 N 100.511 1.16574 -1.06058 0
M  V30 1085 C 101.757 1.87324 -0.777022 0
M  V30 1086 C 102.09 1.81351 0.694645 0
M  V30 1087 O 101.365 1.22753 1.50871 0
M  V30 1088 C 101.648 3.36991 -1.26922 0
M  V30 1089 C 101.501 3.51667 -2.80447 0
M  V30 1090 C 102.82 4.3131 -0.87521 0
M  V30 1091 H 99.9388 0.680191 -0.28374 0
M  V30 1092 H 102.581 1.37036 -1.3161 0
M  V30 1093 H 100.731 3.79949 -0.81063 0
M  V30 1094 H 102.403 3.17664 -3.34495 0
M  V30 1095 H 100.646 2.93656 -3.19294 0
M  V30 1096 H 101.317 4.56766 -3.0995 0
M  V30 1097 H 103.793 3.9624 -1.27014 0
M  V30 1098 H 102.669 5.34545 -1.2471 0
M  V30 1099 H 102.93 4.41552 0.220071 0
M  V30 1100 N 101.989 0.842826 1.3317 0
M  V30 1101 C 103.266 0.362216 1.92217 0
M  V30 1102 C 103.646 -1.15289 1.76838 0
M  V30 1103 O 102.994 -1.96914 1.15919 0
M  V30 1104 C 103.204 0.813495 3.39387 0
M  V30 1105 C 104.552 0.823804 4.16532 0
M  V30 1106 O 105.576 0.757358 3.48055 0
M  V30 1107 O 104.435 0.915193 5.38782 0
M  V30 1108 H 101.529 0.103317 0.820521 0
M  V30 1109 H 104.075 0.928942 1.42017 0
M  V30 1110 H 102.847 1.85624 3.4447 0
M  V30 1111 H 102.47 0.223561 3.96971 0
M  V30 1112 N 103.467 -1.45747 0.599634 0
M  V30 1113 C 104.397 -2.33235 -0.111306 0
M  V30 1114 C 105.378 -1.46359 -0.866781 0
M  V30 1115 O 106.563 -1.75146 -0.838904 0
M  V30 1116 C 103.693 -3.28932 -1.11451 0
M  V30 1117 C 102.647 -4.25381 -0.472772 0
M  V30 1118 C 101.973 -5.1071 -1.58365 0
M  V30 1119 C 103.273 -5.18831 0.600948 0
M  V30 1120 H 104.967 -2.92927 0.61919 0
M  V30 1121 H 102.513 -1.40857 0.299215 0
M  V30 1122 H 104.466 -3.89002 -1.62036 0
M  V30 1123 H 103.19 -2.67381 -1.8755 0
M  V30 1124 H 101.849 -3.66598 0.0121472 0
M  V30 1125 H 101.497 -4.45533 -2.33473 0
M  V30 1126 H 101.197 -5.7604 -1.15982 0
M  V30 1127 H 102.721 -5.73647 -2.09194 0
M  V30 1128 H 104.135 -5.73019 0.179491 0
M  V30 1129 H 102.532 -5.92595 0.946076 0
M  V30 1130 H 103.602 -4.6174 1.48068 0
M  V30 1131 N 104.945 -0.338344 -1.53925 0
M  V30 1132 C 106.17 0.263987 -2.05713 0
M  V30 1133 C 106.595 1.43847 -1.21201 0
M  V30 1134 O 105.953 1.79904 -0.224535 0
M  V30 1135 C 106.001 0.662 -3.54471 0
M  V30 1136 O 105.105 1.76265 -3.72833 0
M  V30 1137 H 104.446 0.0448722 -0.662482 0
M  V30 1138 H 106.976 -0.491048 -1.9862 0
M  V30 1139 H 106.986 0.940594 -3.9701 0
M  V30 1140 H 105.661 -0.196937 -4.15433 0
M  V30 1141 H 104.238 1.48173 -3.42198 0
M  V30 1142 N 106.423 1.57458 -0.0668435 0
M  V30 1143 C 107.37 2.12439 0.902122 0
M  V30 1144 C 108.34 1.03565 1.2986 0
M  V30 1145 O 109.525 1.312 1.38532 0
M  V30 1146 C 106.665 2.6865 2.16614 0
M  V30 1147 C 105.778 3.91663 1.82274 0
M  V30 1148 C 104.913 4.36134 3.0325 0
M  V30 1149 C 103.952 5.51808 2.64904 0
M  V30 1150 N 103.089 5.9126 3.78624 0
M  V30 1151 H 107.929 2.94934 0.426382 0
M  V30 1152 H 105.466 1.4575 0.198819 0
M  V30 1153 H 107.424 2.99346 2.90599 0
M  V30 1154 H 106.054 1.88928 2.61737 0
M  V30 1155 H 105.106 3.6746 0.983719 0
M  V30 1156 H 106.418 4.75693 1.50059 0
M  V30 1157 H 105.572 4.68465 3.85519 0
M  V30 1158 H 104.311 3.50948 3.38655 0
M  V30 1159 H 103.316 5.19133 1.81055 0
M  V30 1160 H 104.541 6.38722 2.30675 0
M  V30 1161 H 102.487 5.09024 4.138 0
M  V30 1162 H 102.404 6.70018 3.5016 0
M  V30 1163 H 103.672 6.28212 4.61486 0
M  V30 1164 N 107.901 -0.206675 1.56239 0
M  V30 1165 C 109.178 -0.954051 1.70755 0
M  V30 1166 C 109.558 -2.01841 0.618353 0
M  V30 1167 O 108.906 -2.25444 -0.372434 0
M  V30 1168 C 109.116 -1.551 3.12642 0
M  V30 1169 C 110.464 -2.03757 3.72516 0
M  V30 1170 O 111.488 -1.64965 3.15698 0
M  V30 1171 O 110.347 -2.75103 4.72208 0
M  V30 1172 H 107.441 -0.446636 0.696021 0
M  V30 1173 H 109.987 -0.197283 1.68549 0
M  V30 1174 H 108.759 -0.783212 3.83382 0
M  V30 1175 H 108.382 -2.37291 3.19028 0
M  V30 1176 N 109.379 -1.50304 -0.473955 0
M  V30 1177 C 110.309 -1.71886 -1.58042 0
M  V30 1178 C 111.29 -0.567799 -1.60344 0
M  V30 1179 O 112.475 -0.806623 -1.76656 0
M  V30 1180 C 109.605 -1.81036 -2.96384 0
M  V30 1181 C 108.559 -2.962 -3.08949 0
M  V30 1182 C 107.885 -2.9049 -4.48909 0
M  V30 1183 C 109.185 -4.36752 -2.86434 0
M  V30 1184 H 110.879 -2.64527 -1.40234 0
M  V30 1185 H 108.425 -1.27295 -0.673201 0
M  V30 1186 H 110.378 -1.94719 -3.73714 0
M  V30 1187 H 109.102 -0.850147 -3.15341 0
M  V30 1188 H 107.761 -2.82164 -2.3405 0
M  V30 1189 H 107.409 -1.92321 -4.64781 0
M  V30 1190 H 107.109 -3.67802 -4.58253 0
M  V30 1191 H 108.633 -3.06218 -5.28264 0
M  V30 1192 H 110.047 -4.5133 -3.53517 0
M  V30 1193 H 108.444 -5.15493 -3.07225 0
M  V30 1194 H 109.514 -4.49321 -1.82316 0
M  V30 1195 N 110.857 0.726932 -1.39834 0
M  V30 1196 C 112.268 1.30558 -1.3346 0
M  V30 1197 C 112.619 1.962 -0.00273003 0
M  V30 1198 O 111.744 1.96826 0.899371 0
M  V30 1199 C 112.339 2.37404 -2.41713 0
M  V30 1200 C 110.898 2.90921 -2.38835 0
M  V30 1201 C 110.045 1.64578 -2.2318 0
M  V30 1202 H 112.996 0.523862 -1.49804 0
M  V30 1203 H 113.017 3.17984 -2.08966 0
M  V30 1204 H 112.529 1.89599 -3.38635 0
M  V30 1205 H 110.63 3.42985 -1.45575 0
M  V30 1206 H 110.743 3.43487 -3.33997 0
M  V30 1207 H 109.107 1.89219 -1.70494 0
M  V30 1208 H 109.89 1.18814 -3.22084 0
M  V30 1209 N 112.336 1.25143 0.95797 0
M  V30 1210 C 113.286 1.01924 2.0395 0
M  V30 1211 C 114.27 -0.0427175 1.60843 0
M  V30 1212 O 115.462 0.17221 1.7616 0
M  V30 1213 C 112.591 0.636373 3.3735 0
M  V30 1214 C 111.677 1.73492 3.8699 0
M  V30 1215 N 112.068 2.96945 4.0946 0
M  V30 1216 C 110.366 1.61467 4.15746 0
M  V30 1217 C 111.067 3.68228 4.50315 0
M  V30 1218 N 110.043 2.95833 4.56053 0
M  V30 1219 H 113.845 1.95653 2.19311 0
M  V30 1220 H 111.359 1.15413 1.14253 0
M  V30 1221 H 113.356 0.451233 4.14451 0
M  V30 1222 H 112.016 -0.293621 3.2337 0
M  V30 1223 H 113.027 3.33025 3.96629 0
M  V30 1224 H 109.704 0.753394 4.10646 0
M  V30 1225 H 111.094 4.74178 4.76031 0
M  V30 1226 N 113.814 -1.1601 1.06675 0
M  V30 1227 C 115.06 -1.87145 0.796766 0
M  V30 1228 C 115.415 -1.8037 -0.669658 0
M  V30 1229 O 114.708 -1.21116 -1.48463 0
M  V30 1230 C 114.902 -3.35547 1.23057 0
M  V30 1231 C 114.731 -3.56769 2.73762 0
M  V30 1232 C 113.501 -3.72635 3.41279 0
M  V30 1233 C 115.699 -3.55166 3.7197 0
M  V30 1234 N 113.681 -3.81845 4.80695 0
M  V30 1235 C 115.052 -3.70406 4.97191 0
M  V30 1236 C 117.107 -3.384 3.65226 0
M  V30 1237 C 115.81 -3.70615 6.16471 0
M  V30 1238 C 117.836 -3.39904 4.83962 0
M  V30 1239 C 117.198 -3.55667 6.08013 0
M  V30 1240 H 113.297 -0.702267 0.344014 0
M  V30 1241 H 115.881 -1.39165 1.36166 0
M  V30 1242 H 114.052 -3.82159 0.693456 0
M  V30 1243 H 115.784 -3.94363 0.908844 0
M  V30 1244 H 112.539 -3.73121 2.91681 0
M  V30 1245 H 112.963 -3.90209 5.53232 0
M  V30 1246 H 117.605 -3.25138 2.70269 0
M  V30 1247 H 115.323 -3.82658 7.11757 0
M  V30 1248 H 118.909 -3.28169 4.80413 0
M  V30 1249 H 117.789 -3.56755 6.98352 0
M  V30 1250 N 115.292 -0.849877 -1.32721 0
M  V30 1251 C 116.24 -0.279745 -2.30912 0
M  V30 1252 C 117.234 0.594278 -1.58634 0
M  V30 1253 O 118.44 0.482613 -1.73409 0
M  V30 1254 H 114.815 -0.0717521 -0.748569 0
M  V30 1255 H 116.786 -1.12222 -2.76494 0
M  V30 1256 C 115.535 0.521108 -3.43773 0
M  V30 1257 H 114.858 -0.142141 -3.99547 0
M  V30 1258 H 116.298 0.885693 -4.14646 0
M  V30 1259 C 114.757 1.70442 -2.90605 0
M  V30 1260 O 115.287 2.8034 -2.87702 0
M  V30 1261 N 113.493 1.52991 -2.47067 0
M  V30 1262 H 113.04 0.635914 -2.49628 0
M  V30 1263 H 112.998 2.32311 -2.11847 0
M  V30 1264 N 116.77 1.45427 -0.607355 0
M  V30 1265 C 117.717 2.3053 0.111625 0
M  V30 1266 C 118.687 1.4209 0.860216 0
M  V30 1267 O 119.872 1.71019 0.845998 0
M  V30 1268 C 117.012 3.26992 1.10319 0
M  V30 1269 C 116.125 4.30535 0.355493 0
M  V30 1270 C 115.26 5.14105 1.33676 0
M  V30 1271 C 114.299 6.09376 0.576862 0
M  V30 1272 N 113.436 6.85727 1.5074 0
M  V30 1273 H 118.276 2.91477 -0.620093 0
M  V30 1274 H 115.813 1.43631 -0.317594 0
M  V30 1275 H 117.771 3.81385 1.6912 0
M  V30 1276 H 116.401 2.67799 1.80232 0
M  V30 1277 H 115.453 3.78805 -0.348023 0
M  V30 1278 H 116.765 4.98235 -0.237423 0
M  V30 1279 H 115.919 5.72897 1.99684 0
M  V30 1280 H 114.658 4.46423 1.9636 0
M  V30 1281 H 113.663 5.49715 -0.0968519 0
M  V30 1282 H 114.888 6.79085 -0.0449341 0
M  V30 1283 H 112.834 6.20735 2.12189 0
M  V30 1284 H 112.751 7.49778 0.967913 0
M  V30 1285 H 114.019 7.4906 2.15706 0
M  V30 1286 N 118.248 0.346503 1.53744 0
M  V30 1287 C 119.178 -0.501193 2.28058 0
M  V30 1288 C 120.159 -1.10014 1.29734 0
M  V30 1289 O 121.344 -1.12097 1.58581 0
M  V30 1290 C 118.474 -1.65078 3.05559 0
M  V30 1291 C 117.428 -1.18003 4.11411 0
M  V30 1292 C 116.754 -2.41837 4.76884 0
M  V30 1293 C 118.054 -0.278394 5.21558 0
M  V30 1294 H 119.748 0.11875 2.99164 0
M  V30 1295 H 117.294 0.0585531 1.43881 0
M  V30 1296 H 119.247 -2.25028 3.56287 0
M  V30 1297 H 117.971 -2.29767 2.32109 0
M  V30 1298 H 116.63 -0.603331 3.61601 0
M  V30 1299 H 116.278 -3.0494 4.00026 0
M  V30 1300 H 115.978 -2.1102 5.48402 0
M  V30 1301 H 117.502 -3.02508 5.30397 0
M  V30 1302 H 118.916 -0.784823 5.67903 0
M  V30 1303 H 117.313 -0.0619707 6.00068 0
M  V30 1304 H 118.383 0.684677 4.80042 0
M  V30 1305 N 119.726 -1.57421 0.075193 0
M  V30 1306 C 120.673 -2.12915 -0.890843 0
M  V30 1307 C 121.643 -1.04252 -1.29309 0
M  V30 1308 O 122.828 -1.31933 -1.37834 0
M  V30 1309 C 119.968 -2.69795 -2.15186 0
M  V30 1310 C 119.081 -3.92624 -1.80194 0
M  V30 1311 C 118.216 -4.37736 -3.00933 0
M  V30 1312 C 117.255 -5.53205 -2.61974 0
M  V30 1313 N 116.392 -5.9326 -3.75483 0
M  V30 1314 H 121.232 -2.95156 -0.410735 0
M  V30 1315 H 118.769 -1.45854 -0.191086 0
M  V30 1316 H 120.727 -3.00883 -2.89008 0
M  V30 1317 H 119.357 -1.90313 -2.60731 0
M  V30 1318 H 118.409 -3.67977 -0.964218 0
M  V30 1319 H 119.721 -4.76482 -1.47534 0
M  V30 1320 H 118.875 -4.70503 -3.8303 0
M  V30 1321 H 117.614 -3.52739 -3.36789 0
M  V30 1322 H 116.619 -5.20086 -1.783 0
M  V30 1323 H 117.844 -6.39936 -2.27284 0
M  V30 1324 H 115.79 -5.11212 -4.11094 0
M  V30 1325 H 115.707 -6.71865 -3.46602 0
M  V30 1326 H 116.975 -6.30651 -4.58148 0
M  V30 1327 N 121.204 0.198386 -1.56346 0
M  V30 1328 C 122.167 1.22952 -1.93431 0
M  V30 1329 C 123.167 1.38611 -0.815092 0
M  V30 1330 O 124.357 1.36479 -1.08255 0
M  V30 1331 C 121.489 2.59946 -2.20546 0
M  V30 1332 H 122.682 0.912626 -2.85677 0
M  V30 1333 H 120.235 0.43977 -1.49986 0
M  V30 1334 H 120.97 2.96696 -1.30927 0
M  V30 1335 H 120.755 2.49953 -3.02102 0
M  V30 1336 H 122.245 3.3431 -2.50253 0
M  V30 1337 N 122.682 1.50554 0.465978 0
M  V30 1338 C 123.959 1.5232 1.22712 0
M  V30 1339 C 124.339 0.270807 2.09356 0
M  V30 1340 O 123.687 -0.745541 2.15995 0
M  V30 1341 C 123.897 2.82175 2.05374 0
M  V30 1342 C 125.245 3.33033 2.6339 0
M  V30 1343 O 126.269 2.83531 2.15612 0
M  V30 1344 O 125.128 4.19336 3.50456 0
M  V30 1345 H 122.222 0.611183 0.557122 0
M  V30 1346 H 124.768 1.62847 0.477381 0
M  V30 1347 H 123.54 3.64797 1.41558 0
M  V30 1348 H 123.163 2.74675 2.87471 0
M  V30 1349 N 124.16 -0.719506 1.40217 0
M  V30 1350 C 125.07 -1.86378 1.42479 0
M  V30 1351 C 126.086 -1.71073 0.317834 0
M  V30 1352 O 127.262 -1.93406 0.561794 0
M  V30 1353 C 124.327 -3.22136 1.28178 0
M  V30 1354 C 123.388 -3.49723 2.48982 0
M  V30 1355 C 122.621 -4.79004 2.35353 0
M  V30 1356 O 122.844 -5.53821 1.36524 0
M  V30 1357 O 121.778 -5.06839 3.2465 0
M  V30 1358 H 125.604 -1.87425 2.38968 0
M  V30 1359 H 123.189 -0.869405 1.21498 0
M  V30 1360 H 125.071 -4.03234 1.22395 0
M  V30 1361 H 123.746 -3.21825 0.347934 0
M  V30 1362 H 122.653 -2.6865 2.60342 0
M  V30 1363 H 123.986 -3.54828 3.41113 0
M  V30 1364 N 125.638 -1.25649 -0.95132 0
M  V30 1365 C 126.585 -1.06323 -2.04851 0
M  V30 1366 C 127.555 0.0286491 -1.66075 0
M  V30 1367 O 128.74 -0.12917 -1.90362 0
M  V30 1368 C 125.88 -0.691529 -3.381 0
M  V30 1369 C 124.993 -1.85861 -3.89974 0
M  V30 1370 C 124.128 -1.43096 -5.11563 0
M  V30 1371 C 123.167 -2.56696 -5.55674 0
M  V30 1372 N 122.304 -2.14684 -6.68472 0
M  V30 1373 H 127.144 -2.00222 -2.20715 0
M  V30 1374 H 124.681 -0.997027 -1.08156 0
M  V30 1375 H 126.639 -0.456963 -4.1469 0
M  V30 1376 H 125.269 0.210474 -3.22113 0
M  V30 1377 H 124.321 -2.20639 -3.09875 0
M  V30 1378 H 125.633 -2.71161 -4.18657 0
M  V30 1379 H 124.787 -1.15624 -5.9558 0
M  V30 1380 H 123.526 -0.548722 -4.84603 0
M  V30 1381 H 122.531 -2.84909 -4.7022 0
M  V30 1382 H 123.756 -3.45503 -5.8464 0
M  V30 1383 H 121.702 -1.28881 -6.43215 0
M  V30 1384 H 121.619 -2.9353 -6.96689 0
M  V30 1385 H 122.887 -1.90397 -7.5589 0
M  V30 1386 N 127.117 1.15442 -1.07289 0
M  V30 1387 C 128.347 1.89821 -0.815576 0
M  V30 1388 C 128.755 1.7823 0.634867 0
M  V30 1389 O 128.098 1.13152 1.44715 0
M  V30 1390 C 128.16 3.40817 -1.14385 0
M  V30 1391 C 127.824 3.76193 -2.59476 0
M  V30 1392 C 128.821 3.77269 -3.57721 0
M  V30 1393 C 126.506 4.0652 -2.95037 0
M  V30 1394 C 128.5 4.08176 -4.89562 0
M  V30 1395 C 126.187 4.37092 -4.27076 0
M  V30 1396 C 127.185 4.37902 -5.24148 0
M  V30 1397 O 126.873 4.67741 -6.53815 0
M  V30 1398 H 126.605 0.608465 -0.294528 0
M  V30 1399 H 129.159 1.472 -1.43252 0
M  V30 1400 H 127.389 3.83835 -0.469865 0
M  V30 1401 H 129.078 3.96485 -0.869179 0
M  V30 1402 H 129.844 3.5394 -3.3159 0
M  V30 1403 H 125.723 4.05049 -2.20128 0
M  V30 1404 H 129.267 4.08723 -5.65324 0
M  V30 1405 H 125.164 4.59889 -4.5296 0
M  V30 1406 H 125.932 4.85509 -6.58957 0
M  V30 1407 N 128.595 0.856903 1.32268 0
M  V30 1408 C 129.842 0.461386 1.97174 0
M  V30 1409 C 130.17 -0.983491 1.67803 0
M  V30 1410 O 129.425 -1.70541 0.959903 0
M  V30 1411 C 129.724 0.649919 3.51441 0
M  V30 1412 C 129.39 2.0656 4.00804 0
M  V30 1413 C 128.052 2.45279 4.13995 0
M  V30 1414 C 130.404 2.98947 4.26943 0
M  V30 1415 C 127.732 3.75653 4.50668 0
M  V30 1416 C 130.084 4.28822 4.65075 0
M  V30 1417 C 128.748 4.67472 4.76472 0
M  V30 1418 H 128.018 0.168833 0.72151 0
M  V30 1419 H 130.665 1.08739 1.57633 0
M  V30 1420 H 128.97 -0.0593018 3.91755 0
M  V30 1421 H 130.667 0.32391 3.9969 0
M  V30 1422 H 127.257 1.75495 3.91024 0
M  V30 1423 H 131.441 2.70265 4.16258 0
M  V30 1424 H 126.697 4.05379 4.57688 0
M  V30 1425 H 130.871 5.0047 4.84255 0
M  V30 1426 H 128.498 5.68539 5.04646 0
M  V30 1427 N 130.073 -1.45103 0.615059 0
M  V30 1428 C 131.322 -2.01396 0.110718 0
M  V30 1429 C 131.635 -1.48834 -1.26916 0
M  V30 1430 O 132.841 -1.97152 -1.86664 0
M  V30 1431 C 131.297 -3.59599 0.14723 0
M  V30 1432 C 130.905 -4.21158 1.52743 0
M  V30 1433 C 132.649 -4.23428 -0.30148 0
M  V30 1434 C 130.556 -5.71535 1.51992 0
M  V30 1435 H 129.486 -0.753061 0.0376241 0
M  V30 1436 H 132.137 -1.66494 0.77149 0
M  V30 1437 H 130.519 -3.91724 -0.580339 0
M  V30 1438 H 131.693 -4.00594 2.2773 0
M  V30 1439 H 130.008 -3.69552 1.91886 0
M  V30 1440 H 132.605 -5.33703 -0.326392 0
M  V30 1441 H 132.948 -3.94629 -1.32565 0
M  V30 1442 H 133.481 -3.96047 0.373065 0
M  V30 1443 H 130.22 -6.05044 2.52193 0
M  V30 1444 H 129.74 -5.94268 0.81274 0
M  V30 1445 H 131.419 -6.34873 1.24681 0
M  V30 1446 N 131.551 -0.354651 -1.53558 0
M  V30 1447 C 132.776 0.242153 -2.05981 0
M  V30 1448 C 133.201 1.42553 -1.2272 0
M  V30 1449 O 132.559 1.79656 -0.243604 0
M  V30 1450 C 132.607 0.624367 -3.55154 0
M  V30 1451 O 131.711 1.72301 -3.74681 0
M  V30 1452 H 131.052 0.0378432 -0.662921 0
M  V30 1453 H 133.582 -0.512087 -1.98088 0
M  V30 1454 H 133.592 0.898433 -3.97985 0
M  V30 1455 H 132.267 -0.240989 -4.15201 0
M  V30 1456 H 130.844 1.44535 -3.4375 0
M  V30 1457 N 133.029 1.57378 -0.0835403 0
M  V30 1458 C 133.979 2.09916 0.889905 0
M  V30 1459 C 134.963 1.01151 1.25129 0
M  V30 1460 O 136.155 1.27443 1.2283 0
M  V30 1461 C 133.284 2.67379 2.15322 0
M  V30 1462 C 132.37 3.83167 1.81779 0
M  V30 1463 N 132.761 4.91665 1.18739 0
M  V30 1464 C 131.059 3.92685 2.11459 0
M  V30 1465 C 131.76 5.72409 1.0355 0
M  V30 1466 N 130.736 5.21062 1.54906 0
M  V30 1467 H 134.538 2.91188 0.398378 0
M  V30 1468 H 132.052 1.61956 0.120013 0
M  V30 1469 H 134.049 3.0334 2.8599 0
M  V30 1470 H 132.709 1.87558 2.65051 0
M  V30 1471 H 133.72 5.10784 0.855604 0
M  V30 1472 H 130.397 3.23856 2.63483 0
M  V30 1473 H 131.787 6.69699 0.543425 0
M  V30 1474 N 134.507 -0.190092 1.56449 0
M  V30 1475 C 135.756 -0.907912 1.80111 0
M  V30 1476 C 136.069 -1.84214 0.657619 0
M  V30 1477 O 137.275 -2.60094 0.778663 0
M  V30 1478 C 135.731 -1.66485 3.19078 0
M  V30 1479 C 135.339 -0.7752 4.41242 0
M  V30 1480 C 137.083 -2.37201 3.52045 0
M  V30 1481 C 134.99 -1.53129 5.71231 0
M  V30 1482 H 133.92 -0.34276 0.671589 0
M  V30 1483 H 136.571 -0.161109 1.82791 0
M  V30 1484 H 134.953 -2.45572 3.10661 0
M  V30 1485 H 136.127 -0.0226298 4.60794 0
M  V30 1486 H 134.442 -0.178627 4.16017 0
M  V30 1487 H 137.039 -2.94329 4.46402 0
M  V30 1488 H 137.382 -3.11632 2.76028 0
M  V30 1489 H 137.915 -1.65075 3.61932 0
M  V30 1490 H 134.654 -0.82967 6.50228 0
M  V30 1491 H 134.174 -2.25767 5.55688 0
M  V30 1492 H 135.853 -2.08377 6.12526 0
M  V30 1493 N 135.985 -1.50799 -0.457987 0
M  V30 1494 C 136.915 -1.73553 -1.5621 0
M  V30 1495 C 137.896 -0.584774 -1.59732 0
M  V30 1496 O 139.081 -0.825314 -1.7579 0
M  V30 1497 C 136.211 -1.84169 -2.94447 0
M  V30 1498 C 135.165 -2.99461 -3.0579 0
M  V30 1499 C 134.491 -2.95235 -4.45803 0
M  V30 1500 C 135.791 -4.39766 -2.81786 0
M  V30 1501 H 137.485 -2.66 -1.37421 0
M  V30 1502 H 135.031 -1.28002 -0.659662 0
M  V30 1503 H 136.984 -1.98672 -3.71628 0
M  V30 1504 H 135.708 -0.883545 -3.14422 0
M  V30 1505 H 134.367 -2.8463 -2.31044 0
M  V30 1506 H 134.015 -1.97239 -4.62715 0
M  V30 1507 H 133.715 -3.72642 -4.54326 0
M  V30 1508 H 135.239 -3.11803 -5.24987 0
M  V30 1509 H 136.653 -4.55054 -3.4871 0
M  V30 1510 H 135.05 -5.18722 -3.0174 0
M  V30 1511 H 136.12 -4.51229 -1.7754 0
M  V30 1512 N 137.463 0.71206 -1.40597 0
M  V30 1513 C 138.426 1.80785 -1.40888 0
M  V30 1514 C 139.426 1.57937 -0.302103 0
M  V30 1515 O 140.616 1.64913 -0.561182 0
M  V30 1516 C 137.748 3.18927 -1.20409 0
M  V30 1517 H 138.941 1.81924 -2.38419 0
M  V30 1518 H 136.494 0.91805 -1.26497 0
M  V30 1519 H 137.229 3.23436 -0.236522 0
M  V30 1520 H 137.014 3.36911 -2.00582 0
M  V30 1521 H 138.504 3.98949 -1.23408 0
M  V30 1522 N 138.941 1.26152 0.944643 0
M  V30 1523 C 140.188 1.11492 1.69044 0
M  V30 1524 C 140.516 -0.342366 1.91463 0
M  V30 1525 O 139.771 -1.26812 1.49054 0
M  V30 1526 C 140.07 1.82541 3.07268 0
M  V30 1527 C 139.736 3.32445 3.04616 0
M  V30 1528 C 138.398 3.73337 3.036 0
M  V30 1529 C 140.75 4.28171 2.97185 0
M  V30 1530 C 138.078 5.08348 2.92915 0
M  V30 1531 C 140.43 5.63218 2.88041 0
M  V30 1532 C 139.094 6.03426 2.85366 0
M  V30 1533 H 138.364 0.407977 0.618576 0
M  V30 1534 H 141.011 1.56551 1.10291 0
M  V30 1535 H 139.316 1.29941 3.69625 0
M  V30 1536 H 141.013 1.68642 3.63815 0
M  V30 1537 H 137.603 2.99915 3.06185 0
M  V30 1538 H 141.787 3.97563 2.97081 0
M  V30 1539 H 137.043 5.38667 2.89219 0
M  V30 1540 H 141.217 6.37078 2.81254 0
M  V30 1541 H 138.844 7.07999 2.76842 0
M  V30 1542 N 140.419 -1.14872 1.07899 0
M  V30 1543 C 141.666 -1.85789 0.805532 0
M  V30 1544 C 141.994 -1.82649 -0.668561 0
M  V30 1545 O 141.249 -1.24858 -1.50695 0
M  V30 1546 C 141.548 -3.34223 1.26609 0
M  V30 1547 C 141.214 -3.57555 2.74709 0
M  V30 1548 C 139.876 -3.63631 3.1516 0
M  V30 1549 C 142.228 -3.66803 3.70277 0
M  V30 1550 C 139.556 -3.76473 4.49983 0
M  V30 1551 C 141.908 -3.8117 5.04869 0
M  V30 1552 C 140.572 -3.85494 5.44932 0
M  V30 1553 H 139.842 -0.679849 0.294765 0
M  V30 1554 H 142.489 -1.3572 1.35101 0
M  V30 1555 H 140.794 -3.86536 0.640103 0
M  V30 1556 H 142.491 -3.87511 1.03132 0
M  V30 1557 H 139.081 -3.5347 2.42398 0
M  V30 1558 H 143.265 -3.61404 3.40149 0
M  V30 1559 H 138.521 -3.7808 4.80484 0
M  V30 1560 H 142.695 -3.87268 5.78789 0
M  V30 1561 H 140.322 -3.95197 6.49403 0
M  V30 1562 N 141.898 -0.863906 -1.31812 0
M  V30 1563 C 142.861 -0.320212 -2.26952 0
M  V30 1564 C 143.861 0.525369 -1.51975 0
M  V30 1565 O 145.051 0.335547 -1.70938 0
M  V30 1566 C 142.183 0.545919 -3.365 0
M  V30 1567 H 143.376 -1.16004 -2.76556 0
M  V30 1568 H 140.929 -0.638995 -1.42641 0
M  V30 1569 H 141.664 1.40718 -2.92179 0
M  V30 1570 H 141.449 -0.0594674 -3.92055 0
M  V30 1571 H 142.939 0.918796 -4.07367 0
M  V30 1572 N 143.376 1.44774 -0.622745 0
M  V30 1573 C 144.339 2.29069 0.0774015 0
M  V30 1574 C 145.339 1.4059 0.780461 0
M  V30 1575 O 146.529 1.62551 0.626322 0
M  V30 1576 C 143.661 3.21974 1.12006 0
M  V30 1577 H 144.854 2.92459 -0.663901 0
M  V30 1578 H 142.407 1.51548 -0.382486 0
M  V30 1579 H 143.142 2.63417 1.89162 0
M  V30 1580 H 142.927 3.87168 0.619951 0
M  V30 1581 H 144.417 3.85318 1.60995 0
M  V30 1582 N 144.854 0.36279 1.53368 0
M  V30 1583 C 146.079 -0.231226 2.06107 0
M  V30 1584 C 146.504 -1.419 1.23474 0
M  V30 1585 O 145.862 -1.79524 0.253128 0
M  V30 1586 C 145.91 -0.605523 3.5548 0
M  V30 1587 O 145.014 -1.70312 3.7559 0
M  V30 1588 H 144.355 -0.034327 0.663112 0
M  V30 1589 H 146.885 0.522584 1.97814 0
M  V30 1590 H 146.895 -0.877314 3.98456 0
M  V30 1591 H 145.57 0.263004 4.15068 0
M  V30 1592 H 144.147 -1.4271 3.44512 0
M  V30 1593 N 146.332 -1.57332 0.0918853 0
M  V30 1594 C 147.609 -1.85691 -0.614668 0
M  V30 1595 C 147.989 -0.988146 -1.86545 0
M  V30 1596 O 147.337 -0.0597055 -2.28422 0
M  V30 1597 C 147.547 -3.36294 -0.933126 0
M  V30 1598 C 148.895 -4.04275 -1.29796 0
M  V30 1599 O 149.919 -3.41157 -1.02424 0
M  V30 1600 O 148.778 -5.1564 -1.81047 0
M  V30 1601 H 145.872 -0.767802 -0.307261 0
M  V30 1602 H 148.418 -1.69244 0.12434 0
M  V30 1603 H 147.19 -3.91273 -0.0456404 0
M  V30 1604 H 146.813 -3.58076 -1.72822 0
M  V30 1605 N 147.81 0.181792 -1.56548 0
M  V30 1606 C 149.058 0.89832 -1.81038 0
M  V30 1607 C 149.379 1.83232 -0.667164 0
M  V30 1608 O 148.649 1.93372 0.313673 0
M  V30 1609 H 147.229 0.33471 -0.667816 0
M  V30 1610 H 149.891 0.184116 -1.94028 0
M  V30 1611 H 148.987 1.4815 -2.74696 0
M  V30 1612 N 149.288 1.51039 0.449983 0
M  V30 1613 C 150.537 1.62317 1.19733 0
M  V30 1614 C 150.85 0.339101 1.92638 0
M  V30 1615 O 152.056 0.331069 2.69474 0
M  V30 1616 C 150.512 2.86608 2.17678 0
M  V30 1617 C 150.12 4.21972 1.50479 0
M  V30 1618 C 151.864 3.07239 2.92924 0
M  V30 1619 C 149.771 5.37426 2.46834 0
M  V30 1620 H 148.701 0.604532 0.450619 0
M  V30 1621 H 151.352 1.77494 0.465625 0
M  V30 1622 H 149.734 2.65037 2.94231 0
M  V30 1623 H 150.908 4.53878 0.795716 0
M  V30 1624 H 149.223 4.07117 0.874344 0
M  V30 1625 H 151.82 3.90668 3.65079 0
M  V30 1626 H 152.163 2.19807 3.5354 0
M  V30 1627 H 152.696 3.29091 2.23481 0
M  V30 1628 H 149.435 6.27079 1.90926 0
M  V30 1629 H 148.955 5.09912 3.15832 0
M  V30 1630 H 150.634 5.68862 3.08228 0
M  V30 1631 N 150.766 -0.704594 1.40972 0
M  V30 1632 C 152.012 -1.46675 1.40051 0
M  V30 1633 C 152.345 -1.94199 0.00641102 0
M  V30 1634 O 151.62 -1.68916 -0.964235 0
M  V30 1635 C 151.903 -2.68505 2.39952 0
M  V30 1636 C 151.756 -2.26805 3.88432 0
M  V30 1637 C 153.075 -3.70686 2.37233 0
M  V30 1638 H 150.194 -0.532015 0.510028 0
M  V30 1639 H 152.836 -0.803255 1.72185 0
M  V30 1640 H 150.986 -3.25114 2.1268 0
M  V30 1641 H 152.658 -1.75592 4.26574 0
M  V30 1642 H 150.901 -1.58685 4.03734 0
M  V30 1643 H 151.572 -3.14181 4.53866 0
M  V30 1644 H 154.048 -3.23731 2.61415 0
M  V30 1645 H 152.924 -4.53553 3.09162 0
M  V30 1646 H 153.185 -4.19754 1.38777 0
M  V30 1647 N 152.244 -1.26651 -0.937939 0
M  V30 1648 C 153.192 -1.08308 -2.05845 0
M  V30 1649 C 154.186 -0.0090757 -1.69398 0
M  V30 1650 O 155.392 -0.166007 -1.79233 0
M  V30 1651 H 151.767 -0.333416 -0.674046 0
M  V30 1652 H 153.738 -2.03261 -2.18467 0
M  V30 1653 C 152.487 -0.736229 -3.39816 0
M  V30 1654 H 151.81 -1.55453 -3.6834 0
M  V30 1655 H 153.25 -0.64769 -4.19024 0
M  V30 1656 C 151.709 0.558824 -3.32233 0
M  V30 1657 O 152.239 1.59621 -3.68624 0
M  V30 1658 N 150.445 0.550657 -2.85335 0
M  V30 1659 H 149.992 -0.293943 -2.55917 0
M  V30 1660 H 149.95 1.41726 -2.80644 0
M  V30 1661 N 153.722 1.14298 -1.08507 0
M  V30 1662 C 154.632 2.23027 -0.727753 0
M  V30 1663 C 155.648 1.71952 0.26619 0
M  V30 1664 O 156.824 2.011 0.109882 0
M  V30 1665 C 153.889 3.46403 -0.143541 0
M  V30 1666 C 152.95 4.12413 -1.19223 0
M  V30 1667 C 152.183 5.29899 -0.635798 0
M  V30 1668 O 152.406 5.67796 0.544393 0
M  V30 1669 O 151.34 5.85717 -1.38634 0
M  V30 1670 H 155.166 2.55945 -1.63481 0
M  V30 1671 H 152.751 1.22248 -0.858817 0
M  V30 1672 H 154.633 4.21018 0.179404 0
M  V30 1673 H 153.308 3.15206 0.736659 0
M  V30 1674 H 152.215 3.39667 -1.56772 0
M  V30 1675 H 153.548 4.47718 -2.04474 0
M  V30 1676 N 155.201 0.870884 1.31352 0
M  V30 1677 C 156.149 0.316445 2.30437 0
M  V30 1678 C 157.143 -0.568965 1.59559 0
M  V30 1679 O 158.349 -0.454964 1.74155 0
M  V30 1680 H 154.724 0.0836521 0.747333 0
M  V30 1681 H 156.695 1.16606 2.74673 0
M  V30 1682 C 155.444 -0.46635 3.44558 0
M  V30 1683 H 154.767 0.205687 3.99271 0
M  V30 1684 H 156.207 -0.819614 4.16003 0
M  V30 1685 C 154.666 -1.65797 2.9328 0
M  V30 1686 O 155.196 -2.75728 2.92125 0
M  V30 1687 N 153.402 -1.49041 2.4947 0
M  V30 1688 H 152.949 -0.59612 2.50608 0
M  V30 1689 H 152.907 -2.28911 2.15516 0
M  V30 1690 N 156.679 -1.44442 0.630414 0
M  V30 1691 C 157.609 -2.33418 -0.0618083 0
M  V30 1692 C 158.59 -1.48165 -0.835541 0
M  V30 1693 O 159.775 -1.76886 -0.801564 0
M  V30 1694 C 156.905 -3.31222 -1.04449 0
M  V30 1695 C 155.859 -4.26288 -0.382436 0
M  V30 1696 C 155.185 -5.13954 -1.47497 0
M  V30 1697 C 156.485 -5.1744 0.710865 0
M  V30 1698 H 158.179 -2.91548 0.681184 0
M  V30 1699 H 155.725 -1.40191 0.329026 0
M  V30 1700 H 157.678 -3.92351 -1.53748 0
M  V30 1701 H 156.402 -2.71299 -1.81836 0
M  V30 1702 H 155.061 -3.6649 0.0899054 0
M  V30 1703 H 154.709 -4.50385 -2.2397 0
M  V30 1704 H 154.409 -5.7837 -1.03737 0
M  V30 1705 H 155.933 -5.77955 -1.96979 0
M  V30 1706 H 157.347 -5.72509 0.300996 0
M  V30 1707 H 155.744 -5.90455 1.07156 0
M  V30 1708 H 156.814 -4.58496 1.57829 0
M  V30 1709 N 158.157 -0.370918 -1.53173 0
M  V30 1710 C 159.403 0.217423 -2.01631 0
M  V30 1711 C 159.736 1.47983 -1.25756 0
M  V30 1712 O 159.011 1.91274 -0.352764 0
M  V30 1713 C 159.294 0.503982 -3.56556 0
M  V30 1714 C 159.147 -0.77243 -4.43118 0
M  V30 1715 C 160.466 1.30234 -4.20389 0
M  V30 1716 H 157.585 0.0775486 -0.732909 0
M  V30 1717 H 160.227 -0.496863 -1.83388 0
M  V30 1718 H 158.377 1.11248 -3.72231 0
M  V30 1719 H 160.049 -1.4098 -4.39229 0
M  V30 1720 H 158.292 -1.39167 -4.10871 0
M  V30 1721 H 158.963 -0.526815 -5.4948 0
M  V30 1722 H 161.439 0.787546 -4.08579 0
M  V30 1723 H 160.315 1.47158 -5.28806 0
M  V30 1724 H 160.576 2.31237 -3.76805 0
M  V30 1725 N 159.635 1.57281 -0.100228 0
M  V30 1726 C 160.545 2.17833 0.870965 0
M  V30 1727 C 161.561 1.14921 1.30649 0
M  V30 1728 O 162.737 1.47313 1.37335 0
M  V30 1729 C 159.802 2.75085 2.1102 0
M  V30 1730 C 158.863 3.9297 1.72838 0
M  V30 1731 C 158.096 4.47482 2.90854 0
M  V30 1732 O 158.319 4.00922 4.05731 0
M  V30 1733 O 157.253 5.38433 2.69023 0
M  V30 1734 H 161.079 3.0124 0.38575 0
M  V30 1735 H 158.664 1.48881 0.124397 0
M  V30 1736 H 160.546 3.11656 2.83634 0
M  V30 1737 H 159.221 1.94721 2.58584 0
M  V30 1738 H 158.128 3.61201 0.973883 0
M  V30 1739 H 159.461 4.74713 1.30033 0
M  V30 1740 N 161.113 -0.173488 1.56642 0
M  V30 1741 C 162.529 -0.525174 1.50712 0
M  V30 1742 C 162.729 -1.8476 0.804107 0
M  V30 1743 O 161.785 -2.49869 0.363574 0
M  V30 1744 C 163.098 -0.559937 2.95441 0
M  V30 1745 C 164.646 -0.647288 3.06234 0
M  V30 1746 C 165.121 -0.712963 4.52417 0
M  V30 1747 N 166.612 -0.775911 4.56655 0
M  V30 1748 C 167.347 -0.847264 5.67106 0
M  V30 1749 N 166.843 -0.879585 6.87194 0
M  V30 1750 N 168.636 -0.886117 5.55071 0
M  V30 1751 H 160.787 0.693681 2.00753 0
M  V30 1752 H 163.05 0.249841 0.914485 0
M  V30 1753 H 162.756 0.343049 3.50023 0
M  V30 1754 H 162.63 -1.40718 3.49969 0
M  V30 1755 H 165.017 -1.5407 2.51687 0
M  V30 1756 H 165.098 0.226586 2.54794 0
M  V30 1757 H 164.742 0.176183 5.07594 0
M  V30 1758 H 164.672 -1.60295 5.0161 0
M  V30 1759 H 167.163 -0.759304 3.70193 0
M  V30 1760 H 167.476 -0.935144 7.67121 0
M  V30 1761 H 165.821 -0.847898 6.89808 0
M  V30 1762 H 169.012 -0.857853 4.60172 0
M  V30 1763 H 169.185 -0.938263 6.41171 0
M  V30 1764 N 162.591 -1.51276 -0.441967 0
M  V30 1765 C 163.838 -1.63715 -1.19179 0
M  V30 1766 C 164.166 -0.351175 -1.91303 0
M  V30 1767 O 163.421 0.664524 -1.84072 0
M  V30 1768 C 163.72 -2.78746 -2.23686 0
M  V30 1769 C 163.386 -4.18189 -1.68607 0
M  V30 1770 C 162.048 -4.56125 -1.53308 0
M  V30 1771 C 164.4 -5.05222 -1.28062 0
M  V30 1772 C 161.728 -5.78804 -0.959317 0
M  V30 1773 C 164.08 -6.28476 -0.721162 0
M  V30 1774 C 162.744 -6.65188 -0.55504 0
M  V30 1775 H 162.014 -0.599076 -0.436106 0
M  V30 1776 H 164.661 -1.85296 -0.48351 0
M  V30 1777 H 162.966 -2.51369 -3.00535 0
M  V30 1778 H 164.663 -2.8557 -2.81515 0
M  V30 1779 H 161.253 -3.88277 -1.8149 0
M  V30 1780 H 165.437 -4.76524 -1.38704 0
M  V30 1781 H 160.693 -6.05899 -0.81833 0
M  V30 1782 H 164.867 -6.95259 -0.398458 0
M  V30 1783 H 162.494 -7.60123 -0.108311 0
M  V30 1784 N 164.069 0.697108 -1.41344 0
M  V30 1785 C 165.294 1.49096 -1.44171 0
M  V30 1786 C 165.719 1.88038 -0.0481568 0
M  V30 1787 O 165.077 1.54525 0.948243 0
M  V30 1788 C 165.125 2.73088 -2.3549 0
M  V30 1789 O 164.229 3.70514 -1.81088 0
M  V30 1790 H 163.57 0.448801 -0.489361 0
M  V30 1791 H 166.1 0.856992 -1.85787 0
M  V30 1792 H 166.11 3.21413 -2.51312 0
M  V30 1793 H 164.785 2.44081 -3.36745 0
M  V30 1794 H 163.362 3.29441 -1.74708 0
M  V30 1795 N 165.547 1.27147 0.931209 0
M  V30 1796 C 166.479 1.05364 2.03546 0
M  V30 1797 C 167.492 0.0108438 1.62796 0
M  V30 1798 O 168.681 0.25202 1.76712 0
M  V30 1799 C 165.781 0.575566 3.33977 0
M  V30 1800 C 164.954 1.68985 4.03439 0
M  V30 1801 C 164.013 1.20813 5.12143 0
M  V30 1802 O 163.039 1.90712 5.363 0
M  V30 1803 N 164.241 0.0618851 5.80467 0
M  V30 1804 H 167.006 2.00454 2.22796 0
M  V30 1805 H 164.567 1.18666 1.10136 0
M  V30 1806 H 166.559 0.237264 4.04004 0
M  V30 1807 H 165.129 -0.282016 3.11325 0
M  V30 1808 H 164.349 2.19861 3.27192 0
M  V30 1809 H 165.637 2.4378 4.46597 0
M  V30 1810 H 165.035 -0.521621 5.6329 0
M  V30 1811 H 163.592 -0.217264 6.51438 0
M  V30 1812 N 167.025 -1.13721 1.09112 0
M  V30 1813 C 167.935 -2.22638 0.73957 0
M  V30 1814 C 168.951 -1.72091 -0.257068 0
M  V30 1815 O 170.127 -2.01155 -0.0992154 0
M  V30 1816 C 167.192 -3.46322 0.16191 0
M  V30 1817 C 166.253 -4.11775 1.21408 0
M  V30 1818 C 165.486 -5.29555 0.663891 0
M  V30 1819 O 165.709 -5.68077 -0.514274 0
M  V30 1820 O 164.643 -5.84973 1.41738 0
M  V30 1821 H 168.469 -2.55074 1.64836 0
M  V30 1822 H 166.054 -1.21791 0.865289 0
M  V30 1823 H 167.936 -4.21107 -0.157073 0
M  V30 1824 H 166.611 -3.15593 -0.719932 0
M  V30 1825 H 165.518 -3.3883 1.58571 0
M  V30 1826 H 166.851 -4.46627 2.06845 0
M  V30 1827 N 168.503 -0.877838 -1.30888 0
M  V30 1828 C 169.749 -0.493426 -1.96706 0
M  V30 1829 C 170.082 0.953504 -1.6918 0
M  V30 1830 O 169.357 1.67266 -0.992594 0
M  V30 1831 C 169.64 -0.760429 -3.51979 0
M  V30 1832 C 169.493 -2.25747 -3.89048 0
M  V30 1833 C 170.812 -0.232148 -4.39487 0
M  V30 1834 H 167.931 -0.180746 -0.714493 0
M  V30 1835 H 170.573 -1.10052 -1.54882 0
M  V30 1836 H 168.723 -0.243715 -3.87735 0
M  V30 1837 H 170.395 -2.84204 -3.63354 0
M  V30 1838 H 168.638 -2.72694 -3.37373 0
M  V30 1839 H 169.309 -2.39491 -4.97341 0
M  V30 1840 H 171.785 -0.674314 -4.106 0
M  V30 1841 H 170.661 -0.448355 -5.47066 0
M  V30 1842 H 170.922 0.866297 -4.33529 0
M  V30 1843 N 169.982 1.44106 -0.638065 0
M  V30 1844 C 170.914 2.28976 0.101205 0
M  V30 1845 C 171.927 1.4167 0.802088 0
M  V30 1846 O 173.116 1.65755 0.662375 0
M  V30 1847 C 170.216 3.18217 1.16581 0
M  V30 1848 C 169.389 4.33978 0.546066 0
M  V30 1849 C 168.448 5.04202 1.50554 0
M  V30 1850 O 167.474 5.59986 1.01999 0
M  V30 1851 N 168.676 5.06296 2.8398 0
M  V30 1852 H 171.441 2.93064 -0.627186 0
M  V30 1853 H 169.002 1.54629 -0.479731 0
M  V30 1854 H 170.994 3.62061 1.80815 0
M  V30 1855 H 169.564 2.55833 1.79634 0
M  V30 1856 H 168.784 3.93239 -0.275046 0
M  V30 1857 H 170.072 5.08675 0.112793 0
M  V30 1858 H 169.47 4.62319 3.26002 0
M  V30 1859 H 168.027 5.53907 3.43556 0
M  V30 1860 N 171.46 0.379036 1.52974 0
M  V30 1861 C 172.706 -0.206727 2.01744 0
M  V30 1862 C 173.039 -1.47314 1.26539 0
M  V30 1863 O 172.314 -1.91084 0.362903 0
M  V30 1864 C 172.597 -0.485066 3.56818 0
M  V30 1865 C 172.45 0.795919 4.42702 0
M  V30 1866 C 173.769 -1.28003 4.21074 0
M  V30 1867 H 170.888 -0.0736607 0.73331 0
M  V30 1868 H 173.53 0.506581 1.83122 0
M  V30 1869 H 171.68 -1.09272 3.72816 0
M  V30 1870 H 173.352 1.43307 4.38476 0
M  V30 1871 H 171.595 1.41344 4.10127 0
M  V30 1872 H 172.266 0.555947 5.49193 0
M  V30 1873 H 174.742 -0.765867 4.08991 0
M  V30 1874 H 173.618 -1.44352 5.29579 0
M  V30 1875 H 173.879 -2.29236 3.78026 0
M  V30 1876 N 172.938 -1.57226 0.108567 0
M  V30 1877 C 174.349 -1.8195 -0.418464 0
M  V30 1878 C 174.7 -1.02508 -1.67292 0
M  V30 1879 O 173.825 -0.258496 -2.14851 0
M  V30 1880 C 174.42 -3.30028 -0.765979 0
M  V30 1881 C 172.979 -3.55469 -1.23769 0
M  V30 1882 C 172.126 -2.7625 -0.241106 0
M  V30 1883 H 175.077 -1.55149 0.33384 0
M  V30 1884 H 175.098 -3.44086 -1.62434 0
M  V30 1885 H 174.61 -3.87821 0.147219 0
M  V30 1886 H 172.711 -3.03022 -2.16814 0
M  V30 1887 H 172.824 -4.6408 -1.19022 0
M  V30 1888 H 171.188 -2.44133 -0.72602 0
M  V30 1889 H 171.971 -3.36797 0.665007 0
M  V30 1890 N 174.416 0.165178 -1.56732 0
M  V30 1891 C 175.326 1.22423 -2.00125 0
M  V30 1892 C 176.342 1.48084 -0.913619 0
M  V30 1893 O 177.518 1.60112 -1.22172 0
M  V30 1894 C 174.583 2.54197 -2.35764 0
M  V30 1895 C 173.644 2.36343 -3.58386 0
M  V30 1896 C 172.877 3.61834 -3.92316 0
M  V30 1897 O 173.1 4.67267 -3.27135 0
M  V30 1898 O 172.034 3.55579 -4.85641 0
M  V30 1899 H 175.86 0.885886 -2.90492 0
M  V30 1900 H 173.445 0.372518 -1.44681 0
M  V30 1901 H 175.327 3.3192 -2.59629 0
M  V30 1902 H 174.002 2.87598 -1.48557 0
M  V30 1903 H 172.909 1.56632 -3.39731 0
M  V30 1904 H 174.242 2.07865 -4.46154 0
M  V30 1905 N 175.894 1.51508 0.433938 0
M  V30 1906 C 176.857 1.72473 1.50949 0
M  V30 1907 C 177.857 0.594725 1.49398 0
M  V30 1908 O 179.047 0.862315 1.5136 0
M  V30 1909 C 176.179 1.78431 2.90474 0
M  V30 1910 H 177.372 2.68467 1.33662 0
M  V30 1911 H 174.925 1.41549 0.662836 0
M  V30 1912 H 175.66 0.842645 3.13161 0
M  V30 1913 H 175.445 2.60558 2.93005 0
M  V30 1914 H 176.935 1.96479 3.68491 0
M  V30 1915 N 177.372 -0.689602 1.41712 0
M  V30 1916 C 178.788 -1.00093 1.24312 0
M  V30 1917 C 178.988 -2.01036 0.136729 0
M  V30 1918 O 178.044 -2.47562 -0.496918 0
M  V30 1919 C 179.357 -1.51985 2.59463 0
M  V30 1920 C 180.905 -1.63838 2.66695 0
M  V30 1921 C 181.38 -2.1913 4.02177 0
M  V30 1922 N 182.871 -2.26483 4.04054 0
M  V30 1923 C 183.606 -2.70306 5.0569 0
M  V30 1924 N 183.102 -3.13691 6.17713 0
M  V30 1925 N 184.895 -2.69923 4.9305 0
M  V30 1926 H 177.046 -0.0210029 2.1239 0
M  V30 1927 H 179.309 -0.0718733 0.945272 0
M  V30 1928 H 179.015 -0.85269 3.41207 0
M  V30 1929 H 178.889 -2.50103 2.82362 0
M  V30 1930 H 181.276 -2.29664 1.85306 0
M  V30 1931 H 181.357 -0.642492 2.476 0
M  V30 1932 H 181.001 -1.53918 4.84016 0
M  V30 1933 H 180.931 -3.19482 4.18615 0
M  V30 1934 H 183.422 -1.95874 3.23174 0
M  V30 1935 H 183.735 -3.45773 6.9113 0
M  V30 1936 H 182.08 -3.11585 6.21241 0
M  V30 1937 H 185.271 -2.35382 4.04614 0
M  V30 1938 H 185.444 -3.03758 5.72394 0
M  V30 1939 N 178.85 -1.27639 -0.924453 0
M  V30 1940 C 180.09 -1.15407 -1.68703 0
M  V30 1941 C 180.454 0.294581 -1.89727 0
M  V30 1942 O 181.655 0.539385 -2.63333 0
M  V30 1943 C 179.926 -1.9195 -3.0148 0
M  V30 1944 S 181.485 -1.95969 -3.92609 0
M  V30 1945 H 178.303 -0.411937 -0.579507 0
M  V30 1946 H 180.905 -1.61592 -1.10038 0
M  V30 1947 H 179.609 -2.96387 -2.83871 0
M  V30 1948 H 179.14 -1.46272 -3.65196 0
M  V30 1949 H 181.155 -1.05846 -4.84779 0
M  V30 1950 N 180.328 1.1314 -1.09713 0
M  V30 1951 C 181.575 1.84484 -0.834987 0
M  V30 1952 C 181.903 1.83689 0.639418 0
M  V30 1953 O 181.158 1.2724 1.4869 0
M  V30 1954 C 181.457 3.32167 -1.3191 0
M  V30 1955 C 181.123 3.53139 -2.80363 0
M  V30 1956 C 179.785 3.58571 -3.20905 0
M  V30 1957 C 182.137 3.60866 -3.76065 0
M  V30 1958 C 179.465 3.69267 -4.55916 0
M  V30 1959 C 181.817 3.73089 -5.10869 0
M  V30 1960 C 180.481 3.76775 -5.50996 0
M  V30 1961 H 179.751 0.675073 -0.305544 0
M  V30 1962 H 182.398 1.33554 -1.37243 0
M  V30 1963 H 180.703 3.85469 -0.701517 0
M  V30 1964 H 182.4 3.85821 -1.09284 0
M  V30 1965 H 178.99 3.49569 -2.47991 0
M  V30 1966 H 183.174 3.55946 -3.45855 0
M  V30 1967 H 178.43 3.70388 -4.86438 0
M  V30 1968 H 182.604 3.78011 -5.84877 0
M  V30 1969 H 180.231 3.84815 -6.55608 0
M  V30 1970 N 181.806 0.884767 1.30421 0
M  V30 1971 C 183.036 0.517293 2.00019 0
M  V30 1972 C 183.444 -0.898632 1.66497 0
M  V30 1973 O 182.787 -1.60245 0.898181 0
M  V30 1974 C 182.849 0.612025 3.54252 0
M  V30 1975 C 182.513 1.99222 4.1129 0
M  V30 1976 C 183.51 2.9616 4.273 0
M  V30 1977 C 181.195 2.29755 4.46674 0
M  V30 1978 C 183.189 4.21764 4.77906 0
M  V30 1979 C 180.876 3.55606 4.96979 0
M  V30 1980 C 181.874 4.51425 5.12547 0
M  V30 1981 O 181.562 5.75043 5.61766 0
M  V30 1982 H 181.294 0.198529 0.64619 0
M  V30 1983 H 183.848 1.1919 1.67281 0
M  V30 1984 H 182.078 -0.119561 3.86515 0
M  V30 1985 H 183.767 0.255859 4.05093 0
M  V30 1986 H 184.533 2.73882 4.00267 0
M  V30 1987 H 180.412 1.55942 4.33824 0
M  V30 1988 H 183.956 4.96561 4.89972 0
M  V30 1989 H 179.853 3.7772 5.23448 0
M  V30 1990 H 180.621 5.77422 5.80109 0
M  V30 1991 N 183.284 -1.43765 0.645699 0
M  V30 1992 C 184.532 -2.01499 0.155731 0
M  V30 1993 C 184.853 -1.51151 -1.232 0
M  V30 1994 O 184.123 -0.721044 -1.82148 0
M  V30 1995 H 182.703 -0.745003 0.0545817 0
M  V30 1996 H 185.365 -1.76075 0.835677 0
M  V30 1997 H 184.461 -3.1181 0.134577 0
M  V30 1998 N 184.763 -0.387143 -1.52771 0
M  V30 1999 C 186.01 0.195735 -2.01552 0
M  V30 2000 C 186.338 1.46995 -1.27369 0
M  V30 2001 O 185.593 1.92325 -0.361879 0
M  V30 2002 C 185.892 0.512209 -3.53711 0
M  V30 2003 C 185.558 -0.670202 -4.45891 0
M  V30 2004 C 184.22 -0.994586 -4.70809 0
M  V30 2005 C 186.572 -1.46134 -5.00294 0
M  V30 2006 C 183.9 -2.11169 -5.4738 0
M  V30 2007 C 186.252 -2.56903 -5.78086 0
M  V30 2008 C 184.916 -2.89852 -6.01284 0
M  V30 2009 H 184.186 0.0716246 -0.73753 0
M  V30 2010 H 186.833 -0.524046 -1.8419 0
M  V30 2011 H 185.138 1.31329 -3.69134 0
M  V30 2012 H 186.835 0.975804 -3.88946 0
M  V30 2013 H 183.425 -0.407366 -4.2666 0
M  V30 2014 H 187.609 -1.22397 -4.80971 0
M  V30 2015 H 182.865 -2.3707 -5.63567 0
M  V30 2016 H 187.039 -3.18608 -6.19243 0
M  V30 2017 H 184.666 -3.76533 -6.60399 0
M  V30 2018 N 186.241 1.57166 -0.116904 0
M  V30 2019 C 187.173 2.12271 0.864507 0
M  V30 2020 C 188.186 1.06494 1.23138 0
M  V30 2021 O 189.375 1.33873 1.18069 0
M  V30 2022 C 186.475 2.60564 2.16702 0
M  V30 2023 C 185.648 3.90416 1.97216 0
M  V30 2024 C 184.707 4.24329 3.11178 0
M  V30 2025 O 183.733 4.93182 2.84184 0
M  V30 2026 N 184.935 3.8148 4.37554 0
M  V30 2027 H 187.7 2.97102 0.393726 0
M  V30 2028 H 185.261 1.61759 0.0675805 0
M  V30 2029 H 187.253 2.80282 2.91932 0
M  V30 2030 H 185.823 1.80623 2.55135 0
M  V30 2031 H 185.043 3.79627 1.06192 0
M  V30 2032 H 186.331 4.75327 1.81499 0
M  V30 2033 H 185.729 3.25943 4.62361 0
M  V30 2034 H 184.286 4.06311 5.09661 0
M  V30 2035 N 187.719 -0.156864 1.56817 0
M  V30 2036 C 188.968 -0.869504 1.81996 0
M  V30 2037 C 189.281 -1.82777 0.696545 0
M  V30 2038 O 190.487 -2.58384 0.833658 0
M  V30 2039 C 188.943 -1.59679 3.22538 0
M  V30 2040 C 188.551 -0.681431 4.42787 0
M  V30 2041 C 190.295 -2.2968 3.56997 0
M  V30 2042 C 188.202 -1.40978 5.74351 0
M  V30 2043 H 187.132 -0.328438 0.678708 0
M  V30 2044 H 189.783 -0.1223 1.83092 0
M  V30 2045 H 188.165 -2.38927 3.158 0
M  V30 2046 H 189.339 0.0751166 4.60739 0
M  V30 2047 H 187.654 -0.0903431 4.16302 0
M  V30 2048 H 190.251 -2.84794 4.52544 0
M  V30 2049 H 190.594 -3.05707 2.82576 0
M  V30 2050 H 191.127 -1.57361 3.65352 0
M  V30 2051 H 187.866 -0.691561 6.51842 0
M  V30 2052 H 187.386 -2.13929 5.60352 0
M  V30 2053 H 189.065 -1.95337 6.16808 0
M  V30 2054 N 189.197 -1.51736 -0.425897 0
M  V30 2055 C 190.127 -1.76827 -1.52494 0
M  V30 2056 C 191.108 -0.618524 -1.58456 0
M  V30 2057 O 192.293 -0.862416 -1.74 0
M  V30 2058 C 189.423 -1.90374 -2.90474 0
M  V30 2059 C 188.377 -3.0588 -2.99369 0
M  V30 2060 C 187.703 -3.04625 -4.3944 0
M  V30 2061 C 189.003 -4.45644 -2.72394 0
M  V30 2062 H 190.697 -2.68855 -1.31748 0
M  V30 2063 H 188.243 -1.29372 -0.632362 0
M  V30 2064 H 190.196 -2.0651 -3.6733 0
M  V30 2065 H 188.92 -0.95004 -3.12477 0
M  V30 2066 H 187.579 -2.89467 -2.24954 0
M  V30 2067 H 187.227 -2.0701 -4.58428 0
M  V30 2068 H 186.927 -3.82195 -4.46319 0
M  V30 2069 H 188.451 -3.22869 -5.18255 0
M  V30 2070 H 189.865 -4.62348 -3.38979 0
M  V30 2071 H 188.262 -5.25006 -2.9067 0
M  V30 2072 H 189.332 -4.54893 -1.67929 0
M  V30 2073 N 190.675 0.682077 -1.42076 0
M  V30 2074 C 191.924 1.43786 -1.41451 0
M  V30 2075 C 192.237 1.95574 -0.0317074 0
M  V30 2076 O 193.443 2.71326 0.0971462 0
M  V30 2077 C 191.899 2.60071 -2.48779 0
M  V30 2078 C 191.507 2.15013 -3.93031 0
M  V30 2079 C 193.251 3.37626 -2.57311 0
M  V30 2080 C 191.158 3.28336 -4.91883 0
M  V30 2081 H 190.088 0.540143 -0.526082 0
M  V30 2082 H 192.739 0.739157 -1.67955 0
M  V30 2083 H 191.121 3.32275 -2.15429 0
M  V30 2084 H 192.295 1.5001 -4.35699 0
M  V30 2085 H 190.61 1.50416 -3.88284 0
M  V30 2086 H 193.207 4.22012 -3.28345 0
M  V30 2087 H 193.55 3.83727 -1.61429 0
M  V30 2088 H 194.083 2.72488 -2.89819 0
M  V30 2089 H 190.822 2.87234 -5.89217 0
M  V30 2090 H 190.342 3.92145 -4.53853 0
M  V30 2091 H 192.021 3.93913 -5.13265 0
M  V30 2092 N 192.153 1.28127 0.917671 0
M  V30 2093 C 193.063 1.13556 2.05286 0
M  V30 2094 C 194.079 0.0630914 1.73886 0
M  V30 2095 O 195.255 0.271598 1.9956 0
M  V30 2096 C 192.32 0.794676 3.3747 0
M  V30 2097 C 191.381 1.94909 3.82504 0
M  V30 2098 C 190.614 1.62437 5.0838 0
M  V30 2099 O 190.837 0.536905 5.67867 0
M  V30 2100 O 189.771 2.46677 5.4903 0
M  V30 2101 H 193.597 2.08844 2.20495 0
M  V30 2102 H 191.182 1.07409 1.03845 0
M  V30 2103 H 193.064 0.618344 4.16839 0
M  V30 2104 H 191.739 -0.128581 3.23445 0
M  V30 2105 H 190.646 2.18055 3.03978 0
M  V30 2106 H 191.979 2.85291 4.01086 0
M  V30 2107 N 193.631 -1.12557 1.10312 0
M  V30 2108 C 194.579 -2.20325 0.745629 0
M  V30 2109 C 195.573 -1.67429 -0.25763 0
M  V30 2110 O 196.779 -1.79612 -0.118132 0
M  V30 2111 H 193.154 -0.718118 0.223182 0
M  V30 2112 H 195.125 -2.47733 1.66346 0
M  V30 2113 C 193.874 -3.47168 0.192262 0
M  V30 2114 H 193.197 -3.88215 0.955475 0
M  V30 2115 H 194.637 -4.23995 -0.0198274 0
M  V30 2116 C 193.096 -3.19298 -1.07472 0
M  V30 2117 O 193.626 -3.3891 -2.15645 0
M  V30 2118 N 191.832 -2.73113 -0.992847 0
M  V30 2119 H 191.379 -2.57354 -0.112474 0
M  V30 2120 H 191.337 -2.54842 -1.84127 0
M  V30 2121 N 195.109 -0.891671 -1.2995 0
M  V30 2122 C 196.355 -0.514261 -1.96171 0
M  V30 2123 C 196.688 0.935506 -1.70182 0
M  V30 2124 O 195.963 1.66204 -1.01028 0
M  V30 2125 C 196.246 -0.797719 -3.51153 0
M  V30 2126 C 196.099 -2.2986 -3.86632 0
M  V30 2127 C 197.418 -0.278749 -4.39216 0
M  V30 2128 H 194.537 -0.188314 -0.712535 0
M  V30 2129 H 197.179 -1.11689 -1.53706 0
M  V30 2130 H 195.329 -0.284826 -3.87455 0
M  V30 2131 H 197.001 -2.88042 -3.60319 0
M  V30 2132 H 195.244 -2.76257 -3.34462 0
M  V30 2133 H 195.915 -2.44753 -4.94773 0
M  V30 2134 H 198.391 -0.717825 -4.09862 0
M  V30 2135 H 197.267 -0.506353 -5.46559 0
M  V30 2136 H 197.528 0.820266 -4.34424 0
M  V30 2137 N 196.587 1.43421 -0.653314 0
M  V30 2138 C 197.537 2.2792 0.060558 0
M  V30 2139 C 198.521 1.39906 0.794677 0
M  V30 2140 O 199.713 1.63536 0.677128 0
M  V30 2141 C 196.842 3.27603 1.0262 0
M  V30 2142 C 195.928 4.23104 0.290551 0
M  V30 2143 N 196.319 5.01031 -0.692967 0
M  V30 2144 C 194.617 4.42816 0.531984 0
M  V30 2145 C 195.318 5.70626 -1.12963 0
M  V30 2146 N 194.294 5.41617 -0.463867 0
M  V30 2147 H 198.096 2.85585 -0.694143 0
M  V30 2148 H 195.61 1.55126 -0.480602 0
M  V30 2149 H 197.607 3.86918 1.55242 0
M  V30 2150 H 196.267 2.71499 1.78096 0
M  V30 2151 H 197.278 5.0669 -1.07169 0
M  V30 2152 H 193.955 3.97782 1.26791 0
M  V30 2153 H 195.345 6.4318 -1.94343 0
M  V30 2154 N 198.065 0.39524 1.52563 0
M  V30 2155 C 199.29 -0.187456 2.06551 0
M  V30 2156 C 199.715 -1.39249 1.26457 0
M  V30 2157 O 199.073 -1.78947 0.291151 0
M  V30 2158 C 199.121 -0.529985 3.56684 0
M  V30 2159 O 198.225 -1.62307 3.79118 0
M  V30 2160 H 197.566 -0.0202537 0.663691 0
M  V30 2161 H 200.096 0.564426 1.96661 0
M  V30 2162 H 200.106 -0.792598 4.00227 0
M  V30 2163 H 198.781 0.350987 4.14416 0
M  V30 2164 H 197.358 -1.3537 3.47461 0
M  V30 2165 N 199.544 -1.57102 0.125237 0
M  V30 2166 C 200.454 -2.19191 -0.8362 0
M  V30 2167 C 201.47 -1.16985 -1.28805 0
M  V30 2168 O 202.646 -1.49479 -1.34974 0
M  V30 2169 C 199.711 -2.78407 -2.06617 0
M  V30 2170 C 198.772 -3.9567 -1.66565 0
M  V30 2171 C 198.005 -4.52052 -2.83698 0
M  V30 2172 O 198.228 -4.07326 -3.99302 0
M  V30 2173 O 197.162 -5.42645 -2.60423 0
M  V30 2174 H 200.988 -3.01816 -0.337776 0
M  V30 2175 H 198.573 -1.4906 -0.100695 0
M  V30 2176 H 200.455 -3.16129 -2.7864 0
M  V30 2177 H 199.13 -1.9881 -2.55453 0
M  V30 2178 H 198.037 -3.62705 -0.916296 0
M  V30 2179 H 199.37 -4.76722 -1.22464 0
M  V30 2180 N 201.022 0.148545 -1.56898 0
M  V30 2181 C 201.955 1.21293 -1.93296 0
M  V30 2182 C 202.933 1.41637 -0.798599 0
M  V30 2183 O 204.117 1.56275 -1.05406 0
M  V30 2184 C 201.244 2.5721 -2.20365 0
M  V30 2185 C 200.29 2.53469 -3.4301 0
M  V30 2186 S 201.123 2.00315 -4.96623 0
M  V30 2187 C 202.279 3.37964 -5.26812 0
M  V30 2188 H 202.512 0.902393 -2.83274 0
M  V30 2189 H 200.045 0.354094 -1.50285 0
M  V30 2190 H 202.003 3.35427 -2.36641 0
M  V30 2191 H 200.664 2.85454 -1.31054 0
M  V30 2192 H 199.857 3.53518 -3.59223 0
M  V30 2193 H 199.459 1.83359 -3.25968 0
M  V30 2194 H 201.751 4.34066 -5.20185 0
M  V30 2195 H 202.694 3.26606 -6.28279 0
M  V30 2196 H 203.102 3.35028 -4.54331 0
M  V30 2197 N 202.5 1.5196 0.417844 0
M  V30 2198 C 203.73 1.69181 1.18581 0
M  V30 2199 C 204.138 0.397104 1.84986 0
M  V30 2200 O 203.481 -0.636011 1.72339 0
M  V30 2201 C 203.543 2.76497 2.29759 0
M  V30 2202 C 203.207 4.18514 1.83563 0
M  V30 2203 C 204.204 5.02648 1.32821 0
M  V30 2204 C 201.889 4.64708 1.90661 0
M  V30 2205 C 203.883 6.31044 0.897894 0
M  V30 2206 C 201.57 5.93096 1.47241 0
M  V30 2207 C 202.568 6.76093 0.968891 0
M  V30 2208 O 202.256 8.02078 0.540924 0
M  V30 2209 H 201.988 0.570457 0.362705 0
M  V30 2210 H 204.542 1.99249 0.498885 0
M  V30 2211 H 202.772 2.41786 3.01789 0
M  V30 2212 H 204.461 2.82403 2.91553 0
M  V30 2213 H 205.227 4.68154 1.26716 0
M  V30 2214 H 201.106 4.00216 2.28797 0
M  V30 2215 H 204.65 6.95776 0.504192 0
M  V30 2216 H 200.547 6.271 1.53022 0
M  V30 2217 H 201.315 8.15794 0.66502 0
M  V30 2218 N 203.978 -0.674533 1.42435 0
M  V30 2219 C 205.203 -1.46784 1.46524 0
M  V30 2220 C 205.628 -1.87938 0.078066 0
M  V30 2221 O 204.986 -1.56014 -0.92354 0
M  V30 2222 C 205.034 -2.69307 2.39805 0
M  V30 2223 O 204.138 -3.67587 1.86959 0
M  V30 2224 H 203.479 -0.440959 0.496439 0
M  V30 2225 H 206.009 -0.827326 1.87127 0
M  V30 2226 H 206.019 -3.17374 2.56393 0
M  V30 2227 H 204.694 -2.38692 3.40586 0
M  V30 2228 H 203.271 -3.2662 1.79927 0
M  V30 2229 N 205.456 -1.28612 -0.910864 0
M  V30 2230 C 206.386 -1.15326 -2.03032 0
M  V30 2231 C 207.367 -0.0502924 -1.70026 0
M  V30 2232 O 208.552 -0.227797 -1.92859 0
M  V30 2233 C 205.682 -0.817343 -3.37545 0
M  V30 2234 C 204.636 -1.8754 -3.84724 0
M  V30 2235 C 203.962 -1.39305 -5.16235 0
M  V30 2236 C 205.262 -3.28244 -4.06267 0
M  V30 2237 H 206.956 -2.08975 -2.14406 0
M  V30 2238 H 204.502 -1.00612 -1.03021 0
M  V30 2239 H 206.455 -0.711151 -4.15356 0
M  V30 2240 H 205.179 0.154846 -3.26233 0
M  V30 2241 H 203.838 -1.97079 -3.09121 0
M  V30 2242 H 203.486 -0.409846 -5.01328 0
M  V30 2243 H 203.186 -2.10057 -5.48771 0
M  V30 2244 H 204.71 -1.30014 -5.96598 0
M  V30 2245 H 206.124 -3.21611 -4.74594 0
M  V30 2246 H 204.521 -3.96855 -4.5014 0
M  V30 2247 H 205.591 -3.72048 -3.10979 0
M  V30 2248 N 206.934 1.1197 -1.10907 0
M  V30 2249 C 207.864 2.19928 -0.784473 0
M  V30 2250 C 208.845 1.6833 0.244726 0
M  V30 2251 O 210.03 1.93892 0.109418 0
M  V30 2252 C 207.16 3.46597 -0.220827 0
M  V30 2253 C 206.114 4.11376 -1.18127 0
M  V30 2254 C 205.44 5.32554 -0.478594 0
M  V30 2255 C 206.74 4.56945 -2.52979 0
M  V30 2256 H 208.434 2.47337 -1.68715 0
M  V30 2257 H 205.98 1.18879 -0.812642 0
M  V30 2258 H 207.933 4.21396 0.0184278 0
M  V30 2259 H 206.657 3.1863 0.717113 0
M  V30 2260 H 205.316 3.38564 -1.40606 0
M  V30 2261 H 204.964 5.00856 0.463976 0
M  V30 2262 H 204.664 5.76844 -1.11912 0
M  V30 2263 H 206.188 6.10096 -0.248 0
M  V30 2264 H 207.602 5.23093 -2.3462 0
M  V30 2265 H 205.999 5.1203 -3.12962 0
M  V30 2266 H 207.069 3.70676 -3.12614 0
M  V30 2267 N 208.412 0.89855 1.29475 0
M  V30 2268 C 209.661 0.519863 1.94885 0
M  V30 2269 C 209.974 -0.9383 1.71625 0
M  V30 2270 O 211.18 -1.42445 2.31131 0
M  V30 2271 C 209.636 0.878836 3.49005 0
M  V30 2272 C 209.244 2.35569 3.81066 0
M  V30 2273 C 210.988 0.570004 4.20656 0
M  V30 2274 C 208.895 2.65558 5.28425 0
M  V30 2275 H 207.825 0.190692 0.729488 0
M  V30 2276 H 210.476 1.09539 1.47219 0
M  V30 2277 H 208.858 0.232253 3.95318 0
M  V30 2278 H 210.032 3.04773 3.45616 0
M  V30 2279 H 208.347 2.63343 3.22552 0
M  V30 2280 H 210.944 0.770925 5.29113 0
M  V30 2281 H 211.287 -0.491404 4.1339 0
M  V30 2282 H 211.82 1.17438 3.8007 0
M  V30 2283 H 208.559 3.70493 5.40754 0
M  V30 2284 H 208.079 2.00977 5.65127 0
M  V30 2285 H 209.758 2.51765 5.96006 0
M  V30 2286 N 209.89 -1.43072 0.660911 0
M  V30 2287 C 211.167 -1.95307 0.107017 0
M  V30 2288 C 211.547 -1.60192 -1.37484 0
M  V30 2289 O 210.895 -0.890949 -2.10415 0
M  V30 2290 C 211.105 -3.47124 0.361402 0
M  V30 2291 C 212.453 -4.23738 0.270455 0
M  V30 2292 O 213.477 -3.54981 0.294382 0
M  V30 2293 O 212.336 -5.46131 0.200737 0
M  V30 2294 H 209.43 -0.826984 -0.00517729 0
M  V30 2295 H 211.976 -1.52972 0.734681 0
M  V30 2296 H 210.748 -3.65837 1.38848 0
M  V30 2297 H 210.371 -3.96475 -0.298953 0
M  V30 2298 N 211.368 -0.403325 -1.52352 0
M  V30 2299 C 212.596 0.174012 -2.06167 0
M  V30 2300 C 213.011 1.39347 -1.27388 0
M  V30 2301 O 212.368 1.79597 -0.324201 0
M  V30 2302 C 212.419 0.530223 -3.5759 0
M  V30 2303 O 212.14 -0.640806 -4.33388 0
M  V30 2304 C 213.641 1.16192 -4.27802 0
M  V30 2305 H 210.861 0.0229464 -0.670608 0
M  V30 2306 H 213.405 -0.572604 -1.9632 0
M  V30 2307 H 211.56 1.22673 -3.67464 0
M  V30 2308 H 211.974 -0.344851 -5.23365 0
M  V30 2309 H 213.448 1.36141 -5.34948 0
M  V30 2310 H 213.925 2.13335 -3.83907 0
M  V30 2311 H 214.531 0.505775 -4.22282 0
M  V30 2312 N 212.846 1.57033 -0.133567 0
M  V30 2313 C 214.076 1.99754 0.527429 0
M  V30 2314 C 214.484 1.01245 1.59832 0
M  V30 2315 O 213.827 -0.000645496 1.837 0
M  V30 2316 C 213.889 3.38903 1.19939 0
M  V30 2317 C 213.553 4.56174 0.274709 0
M  V30 2318 C 214.55 5.17563 -0.492398 0
M  V30 2319 C 212.235 5.01972 0.18153 0
M  V30 2320 C 214.229 6.2315 -1.34027 0
M  V30 2321 C 211.916 6.07416 -0.669958 0
M  V30 2322 C 212.914 6.67874 -1.42947 0
M  V30 2323 O 212.602 7.71279 -2.2668 0
M  V30 2324 H 212.334 0.660702 0.142999 0
M  V30 2325 H 214.888 2.04207 -0.221099 0
M  V30 2326 H 213.118 3.31248 1.99528 0
M  V30 2327 H 214.807 3.65818 1.75875 0
M  V30 2328 H 215.573 4.83087 -0.430367 0
M  V30 2329 H 211.452 4.54652 0.762422 0
M  V30 2330 H 214.996 6.70268 -1.93357 0
M  V30 2331 H 210.893 6.41321 -0.73333 0
M  V30 2332 H 211.661 7.88441 -2.1978 0
M  V30 2333 N 214.325 -0.140222 1.56975 0
M  V30 2334 C 215.574 -0.850152 1.82908 0
M  V30 2335 C 215.887 -1.82028 0.715892 0
M  V30 2336 O 217.093 -2.57485 0.861016 0
M  V30 2337 C 215.549 -1.5625 3.24213 0
M  V30 2338 C 215.157 -0.63443 4.43485 0
M  V30 2339 C 216.901 -2.25881 3.59413 0
M  V30 2340 C 214.808 -1.34879 5.75814 0
M  V30 2341 H 213.738 -0.321221 0.682153 0
M  V30 2342 H 216.389 -0.102874 1.83211 0
M  V30 2343 H 214.771 -2.35565 3.18316 0
M  V30 2344 H 215.945 0.12398 4.60633 0
M  V30 2345 H 214.26 -0.0461836 4.16374 0
M  V30 2346 H 216.857 -2.79978 4.5554 0
M  V30 2347 H 217.2 -3.02693 2.85802 0
M  V30 2348 H 217.733 -1.53477 3.67001 0
M  V30 2349 H 214.472 -0.622385 6.52539 0
M  V30 2350 H 213.992 -2.07974 5.6259 0
M  V30 2351 H 215.671 -1.88784 6.18845 0
M  V30 2352 N 215.803 -1.52179 -0.40978 0
M  V30 2353 C 217.219 -1.40968 -0.74835 0
M  V30 2354 C 217.419 -0.513657 -1.94843 0
M  V30 2355 O 216.475 0.0208026 -2.52491 0
M  V30 2356 C 217.788 -2.83483 -1.0029 0
M  V30 2357 C 219.336 -2.92821 -1.10565 0
M  V30 2358 C 219.811 -4.36303 -1.39296 0
M  V30 2359 N 221.302 -4.39535 -1.46162 0
M  V30 2360 C 222.037 -5.47614 -1.70018 0
M  V30 2361 N 221.533 -6.65812 -1.91483 0
M  V30 2362 N 223.326 -5.35129 -1.72027 0
M  V30 2363 H 215.477 -2.0897 0.380186 0
M  V30 2364 H 217.74 -0.94185 0.107805 0
M  V30 2365 H 217.446 -3.51168 -0.193461 0
M  V30 2366 H 217.32 -3.24487 -1.92323 0
M  V30 2367 H 219.707 -2.25318 -1.90568 0
M  V30 2368 H 219.788 -2.55276 -0.16369 0
M  V30 2369 H 219.432 -5.04366 -0.598109 0
M  V30 2370 H 219.362 -4.71385 -2.34743 0
M  V30 2371 H 221.853 -3.54332 -1.31367 0
M  V30 2372 H 222.166 -7.43964 -2.09134 0
M  V30 2373 H 220.511 -6.68879 -1.88749 0
M  V30 2374 H 223.702 -4.41764 -1.54796 0
M  V30 2375 H 223.875 -6.19433 -1.9028 0
M  V30 2376 N 217.281 0.66697 -1.42791 0
M  V30 2377 C 218.558 1.4234 -1.34159 0
M  V30 2378 C 218.938 2.11093 0.0172729 0
M  V30 2379 O 218.286 2.03808 1.03318 0
M  V30 2380 C 218.496 2.41942 -2.51526 0
M  V30 2381 C 219.844 3.06353 -2.93995 0
M  V30 2382 O 220.868 2.52269 -2.51473 0
M  V30 2383 O 219.727 4.04376 -3.67617 0
M  V30 2384 H 216.821 0.635277 -0.529483 0
M  V30 2385 H 219.367 0.695034 -1.54814 0
M  V30 2386 H 218.139 1.89991 -3.42081 0
M  V30 2387 H 217.762 3.22249 -2.32898 0
M  V30 2388 N 218.759 1.29093 0.90403 0
M  V30 2389 C 220.17 1.15186 1.46932 0
M  V30 2390 C 220.521 -0.254587 1.94541 0
M  V30 2391 O 219.646 -1.14972 1.83332 0
M  V30 2392 C 220.241 2.08492 2.67051 0
M  V30 2393 C 218.8 1.98621 3.19729 0
M  V30 2394 C 217.947 1.9967 1.92425 0
M  V30 2395 H 220.898 1.41641 0.715789 0
M  V30 2396 H 220.919 1.65461 3.42641 0
M  V30 2397 H 220.431 3.10847 2.3237 0
M  V30 2398 H 218.532 0.993389 3.59114 0
M  V30 2399 H 218.645 2.86068 3.8432 0
M  V30 2400 H 217.009 1.44208 2.09943 0
M  V30 2401 H 217.792 3.03721 1.60026 0
M  V30 2402 N 220.237 -1.11381 1.11499 0
M  V30 2403 C 221.184 -2.17439 0.773887 0
M  V30 2404 C 222.154 -1.64132 -0.254899 0
M  V30 2405 O 223.339 -1.90345 -0.13168 0
M  V30 2406 C 220.479 -3.44373 0.223917 0
M  V30 2407 C 219.592 -4.1168 1.30934 0
M  V30 2408 C 218.727 -5.263 0.71984 0
M  V30 2409 C 217.766 -5.85493 1.78507 0
M  V30 2410 N 216.903 -6.91507 1.21502 0
M  V30 2411 H 221.743 -2.45962 1.68246 0
M  V30 2412 H 219.28 -1.20744 0.840191 0
M  V30 2413 H 221.238 -4.17047 -0.112921 0
M  V30 2414 H 219.868 -3.16232 -0.647851 0
M  V30 2415 H 218.92 -3.37073 1.76312 0
M  V30 2416 H 220.232 -4.51729 2.11524 0
M  V30 2417 H 219.386 -6.05785 0.333094 0
M  V30 2418 H 218.125 -4.87559 -0.117377 0
M  V30 2419 H 217.13 -5.04686 2.18111 0
M  V30 2420 H 218.355 -6.26301 2.62533 0
M  V30 2421 H 216.301 -6.54783 0.399455 0
M  V30 2422 H 216.218 -7.30214 1.95763 0
M  V30 2423 H 217.486 -7.74795 0.855181 0
M  V30 2424 N 221.715 -0.905404 -1.28997 0
M  V30 2425 C 222.662 -0.385892 -2.27551 0
M  V30 2426 C 223.632 0.535113 -1.57244 0
M  V30 2427 O 224.817 0.459119 -1.85194 0
M  V30 2428 C 221.957 0.375461 -3.43051 0
M  V30 2429 C 221.07 -0.577092 -4.28128 0
M  V30 2430 C 220.205 0.201879 -5.30816 0
M  V30 2431 C 219.244 -0.744829 -6.07551 0
M  V30 2432 N 218.381 9.42587e-05 -7.021 0
M  V30 2433 H 223.221 -1.23139 -2.71368 0
M  V30 2434 H 220.758 -0.618542 -1.33463 0
M  V30 2435 H 222.716 0.832992 -4.088 0
M  V30 2436 H 221.346 1.18537 -3.00248 0
M  V30 2437 H 220.398 -1.15315 -3.62501 0
M  V30 2438 H 221.71 -1.30152 -4.8152 0
M  V30 2439 H 220.864 0.720351 -6.02408 0
M  V30 2440 H 219.603 0.959413 -4.7817 0
M  V30 2441 H 218.608 -1.27475 -5.34818 0
M  V30 2442 H 219.833 -1.50178 -6.62286 0
M  V30 2443 H 217.779 0.739791 -6.51815 0
M  V30 2444 H 217.696 -0.664321 -7.53076 0
M  V30 2445 H 218.964 0.498644 -7.77903 0
M  V30 2446 N 223.193 1.4272 -0.668489 0
M  V30 2447 C 224.609 1.55992 -0.33745 0
M  V30 2448 C 224.809 1.64933 1.15756 0
M  V30 2449 O 223.865 1.61278 1.94282 0
M  V30 2450 C 225.178 2.81314 -1.06222 0
M  V30 2451 C 226.726 2.95078 -1.04394 0
M  V30 2452 C 227.201 4.23252 -1.74991 0
M  V30 2453 N 228.692 4.3015 -1.71829 0
M  V30 2454 C 229.427 5.28127 -2.23315 0
M  V30 2455 N 228.923 6.32293 -2.83156 0
M  V30 2456 N 230.716 5.19882 -2.13726 0
M  V30 2457 H 222.867 1.3516 -1.63846 0
M  V30 2458 H 225.13 0.650174 -0.689912 0
M  V30 2459 H 224.836 2.80823 -2.11734 0
M  V30 2460 H 224.71 3.72012 -0.62344 0
M  V30 2461 H 227.097 2.951 0.0028244 0
M  V30 2462 H 227.178 2.05627 -1.52155 0
M  V30 2463 H 226.822 4.2399 -2.79633 0
M  V30 2464 H 226.752 5.11626 -1.24685 0
M  V30 2465 H 229.243 3.55499 -1.28175 0
M  V30 2466 H 229.556 7.03398 -3.20079 0
M  V30 2467 H 227.901 6.32873 -2.87223 0
M  V30 2468 H 231.092 4.37423 -1.66669 0
M  V30 2469 H 231.265 5.96077 -2.54158 0
M  V30 2470 N 224.671 0.411399 1.52136 0
M  V30 2471 C 225.581 -0.419774 2.30814 0
M  V30 2472 C 226.597 -1.0515 1.38634 0
M  V30 2473 O 227.773 -1.05252 1.71709 0
M  V30 2474 C 224.838 -1.52019 3.11594 0
M  V30 2475 C 223.899 -0.91129 4.19516 0
M  V30 2476 C 223.132 -1.95927 4.96436 0
M  V30 2477 O 223.355 -3.17775 4.73683 0
M  V30 2478 O 222.289 -1.56423 5.81219 0
M  V30 2479 H 226.115 0.221805 3.02889 0
M  V30 2480 H 223.7 0.174547 1.48377 0
M  V30 2481 H 225.582 -2.15898 3.61892 0
M  V30 2482 H 224.257 -2.14633 2.42311 0
M  V30 2483 H 223.164 -0.235157 3.7336 0
M  V30 2484 H 224.497 -0.32904 4.91099 0
M  V30 2485 N 226.149 -1.5696 0.141893 0
M  V30 2486 C 227.396 -1.9596 -0.510492 0
M  V30 2487 C 227.724 -1.02648 -1.65208 0
M  V30 2488 O 226.979 -0.0546947 -1.95624 0
M  V30 2489 C 227.278 -3.41242 -1.06249 0
M  V30 2490 C 226.944 -4.50882 -0.0398791 0
M  V30 2491 C 225.606 -4.80595 0.241247 0
M  V30 2492 C 227.958 -5.17058 0.65578 0
M  V30 2493 C 225.286 -5.73792 1.22393 0
M  V30 2494 C 227.638 -6.11313 1.62724 0
M  V30 2495 C 226.302 -6.39407 1.91612 0
M  V30 2496 H 225.572 -0.717068 -0.186802 0
M  V30 2497 H 228.219 -1.90142 0.227643 0
M  V30 2498 H 226.524 -3.43866 -1.87785 0
M  V30 2499 H 228.221 -3.68742 -1.57576 0
M  V30 2500 H 224.811 -4.27754 -0.269174 0
M  V30 2501 H 228.995 -4.94239 0.451779 0
M  V30 2502 H 224.251 -5.93853 1.45424 0
M  V30 2503 H 228.425 -6.61668 2.17183 0
M  V30 2504 H 226.052 -7.11427 2.6791 0
M  V30 2505 N 227.627 0.131896 -1.57047 0
M  V30 2506 C 228.557 1.16384 -2.02428 0
M  V30 2507 C 229.538 1.43936 -0.90644 0
M  V30 2508 O 230.723 1.54599 -1.17528 0
M  V30 2509 C 227.853 2.49328 -2.4177 0
M  V30 2510 C 226.807 2.36266 -3.56879 0
M  V30 2511 C 226.133 3.74057 -3.8208 0
M  V30 2512 C 227.433 1.834 -4.89042 0
M  V30 2513 H 229.127 0.786433 -2.88887 0
M  V30 2514 H 226.673 0.376855 -1.38981 0
M  V30 2515 H 228.626 3.21759 -2.7212 0
M  V30 2516 H 227.35 2.88934 -1.52266 0
M  V30 2517 H 226.009 1.66286 -3.26718 0
M  V30 2518 H 225.657 4.11125 -2.89803 0
M  V30 2519 H 225.357 3.66174 -4.59554 0
M  V30 2520 H 226.881 4.48012 -4.1487 0
M  V30 2521 H 228.295 2.45636 -5.18011 0
M  V30 2522 H 226.692 1.8637 -5.70426 0
M  V30 2523 H 227.762 0.790662 -4.7841 0
M  V30 2524 N 229.106 1.52395 0.401703 0
M  V30 2525 C 230.353 1.66817 1.14796 0
M  V30 2526 C 230.681 0.401772 1.90305 0
M  V30 2527 O 229.936 -0.615487 1.85769 0
M  V30 2528 C 230.235 2.84578 2.16217 0
M  V30 2529 C 229.901 4.22513 1.5746 0
M  V30 2530 C 228.563 4.60029 1.41161 0
M  V30 2531 C 230.915 5.0844 1.14622 0
M  V30 2532 C 228.243 5.81144 0.80552 0
M  V30 2533 C 230.595 6.30167 0.55428 0
M  V30 2534 C 229.259 6.66426 0.378482 0
M  V30 2535 H 228.529 0.610428 0.420069 0
M  V30 2536 H 231.176 1.86512 0.434212 0
M  V30 2537 H 229.481 2.59248 2.93764 0
M  V30 2538 H 231.178 2.92933 2.73845 0
M  V30 2539 H 227.768 3.92953 1.71132 0
M  V30 2540 H 231.952 4.80034 1.26021 0
M  V30 2541 H 227.208 6.07855 0.657399 0
M  V30 2542 H 231.382 6.96071 0.213983 0
M  V30 2543 H 229.009 7.60143 -0.0932606 0
M  V30 2544 N 230.584 -0.659388 1.43143 0
M  V30 2545 C 231.532 -1.79374 1.4808 0
M  V30 2546 C 232.526 -1.65639 0.354988 0
M  V30 2547 O 233.732 -1.7206 0.528704 0
M  V30 2548 H 230.107 -0.591705 0.4641 0
M  V30 2549 H 232.078 -1.72329 2.43609 0
M  V30 2550 C 230.827 -3.17606 1.41499 0
M  V30 2551 H 230.15 -3.28809 2.27431 0
M  V30 2552 H 231.59 -3.96951 1.49015 0
M  V30 2553 C 230.049 -3.36642 0.131765 0
M  V30 2554 O 230.579 -3.93461 -0.809386 0
M  V30 2555 N 228.785 -2.90567 0.0439396 0
M  V30 2556 H 228.332 -2.44513 0.810619 0
M  V30 2557 H 228.29 -3.03681 -0.813969 0
M  V30 2558 N 232.062 -1.29571 -0.897171 0
M  V30 2559 C 233.025 -1.14913 -1.98312 0
M  V30 2560 C 234.025 -0.0838629 -1.60581 0
M  V30 2561 O 235.215 -0.331006 -1.71026 0
M  V30 2562 C 232.347 -0.757835 -3.3237 0
M  V30 2563 H 233.54 -2.11377 -2.12743 0
M  V30 2564 H 231.093 -1.12793 -1.08201 0
M  V30 2565 H 231.828 0.206837 -3.2364 0
M  V30 2566 H 231.613 -1.52755 -3.61121 0
M  V30 2567 H 233.103 -0.678408 -4.12053 0
M  V30 2568 N 233.54 1.10788 -1.12088 0
M  V30 2569 C 234.789 1.82036 -0.868659 0
M  V30 2570 C 235.102 1.85929 0.607426 0
M  V30 2571 O 236.308 2.53346 0.97613 0
M  V30 2572 C 234.764 3.26951 -1.50435 0
M  V30 2573 C 234.372 3.31367 -3.01496 0
M  V30 2574 C 236.116 4.03053 -1.33225 0
M  V30 2575 C 234.023 4.7072 -3.58017 0
M  V30 2576 H 232.953 0.682108 -0.321318 0
M  V30 2577 H 235.604 1.24618 -1.34694 0
M  V30 2578 H 233.986 3.84343 -0.953735 0
M  V30 2579 H 235.16 2.83819 -3.6302 0
M  V30 2580 H 233.475 2.6875 -3.18061 0
M  V30 2581 H 236.072 5.05981 -1.72878 0
M  V30 2582 H 236.415 4.15387 -0.275529 0
M  V30 2583 H 236.948 3.52066 -1.85188 0
M  V30 2584 H 233.687 4.63585 -4.63432 0
M  V30 2585 H 233.207 5.1865 -3.01268 0
M  V30 2586 H 234.886 5.39685 -3.56859 0
M  V30 2587 N 235.018 0.912232 1.28515 0
M  V30 2588 C 235.928 0.404506 2.31086 0
M  V30 2589 C 236.944 -0.50707 1.66448 0
M  V30 2590 O 238.12 -0.393624 1.97516 0
M  V30 2591 C 235.185 -0.348572 3.44943 0
M  V30 2592 C 234.246 0.59604 4.25142 0
M  V30 2593 C 233.479 -0.121194 5.33562 0
M  V30 2594 O 233.702 -1.34317 5.5436 0
M  V30 2595 O 232.636 0.542716 5.99448 0
M  V30 2596 H 236.462 1.25579 2.76521 0
M  V30 2597 H 234.047 0.676998 1.33181 0
M  V30 2598 H 235.929 -0.77395 4.14232 0
M  V30 2599 H 234.604 -1.17571 3.01594 0
M  V30 2600 H 233.511 1.07079 3.58448 0
M  V30 2601 H 234.844 1.38995 4.72167 0
M  V30 2602 N 236.496 -1.42363 0.676048 0
M  V30 2603 C 237.724 -2.05859 0.207268 0
M  V30 2604 C 238.139 -1.50796 -1.13605 0
M  V30 2605 O 237.496 -0.648265 -1.70598 0
M  V30 2606 C 237.547 -3.61248 0.134975 0
M  V30 2607 O 237.268 -4.1427 1.42521 0
M  V30 2608 C 238.769 -4.41859 -0.357151 0
M  V30 2609 H 235.989 -0.663431 0.100503 0
M  V30 2610 H 238.533 -1.82479 0.923136 0
M  V30 2611 H 236.688 -3.83735 -0.531588 0
M  V30 2612 H 237.102 -5.0815 1.29939 0
M  V30 2613 H 238.576 -5.50847 -0.356641 0
M  V30 2614 H 239.053 -4.16536 -1.39264 0
M  V30 2615 H 239.659 -4.24392 0.27772 0
M  V30 2616 N 237.974 -0.419461 -1.51915 0
M  V30 2617 C 238.907 0.445751 -2.23804 0
M  V30 2618 C 239.885 1.03951 -1.25031 0
M  V30 2619 O 241.069 1.08541 -1.54114 0
M  V30 2620 C 238.196 1.61964 -2.97465 0
M  V30 2621 C 237.242 1.14828 -4.10751 0
M  V30 2622 S 238.075 0.104938 -5.35397 0
M  V30 2623 C 239.231 1.28391 -6.1259 0
M  V30 2624 H 239.464 -0.164627 -2.96844 0
M  V30 2625 H 236.997 -0.203833 -1.53049 0
M  V30 2626 H 238.955 2.29271 -3.40507 0
M  V30 2627 H 237.616 2.20139 -2.24048 0
M  V30 2628 H 236.809 2.02561 -4.61503 0
M  V30 2629 H 236.411 0.553712 -3.69878 0
M  V30 2630 H 238.703 2.20563 -6.40592 0
M  V30 2631 H 239.646 0.816724 -7.03374 0
M  V30 2632 H 240.054 1.51439 -5.43807 0
M  V30 2633 N 239.452 1.56882 -0.150215 0
M  V30 2634 C 240.863 1.82995 0.370076 0
M  V30 2635 C 241.214 1.06907 1.64515 0
M  V30 2636 O 240.339 0.315369 2.1409 0
M  V30 2637 C 240.934 3.31942 0.678208 0
M  V30 2638 C 239.493 3.58625 1.14301 0
M  V30 2639 C 238.64 2.76792 0.167778 0
M  V30 2640 H 241.591 1.54209 -0.374858 0
M  V30 2641 H 241.612 3.48272 1.53254 0
M  V30 2642 H 241.124 3.87294 -0.249991 0
M  V30 2643 H 239.225 3.08664 2.08704 0
M  V30 2644 H 239.338 4.67073 1.06676 0
M  V30 2645 H 237.702 2.45972 0.661037 0
M  V30 2646 H 238.485 3.34916 -0.754069 0
M  V30 2647 N 240.93 -0.123565 1.57115 0
M  V30 2648 C 242.16 -0.845233 1.88519 0
M  V30 2649 C 242.568 -1.74168 0.739064 0
M  V30 2650 O 241.911 -1.81244 -0.299355 0
M  V30 2651 C 241.973 -1.73452 3.14888 0
M  V30 2652 C 241.637 -1.01285 4.45635 0
M  V30 2653 C 242.634 -0.355774 5.18681 0
M  V30 2654 C 240.319 -0.99538 4.92339 0
M  V30 2655 C 242.313 0.309114 6.3665 0
M  V30 2656 C 240 -0.32669 6.10226 0
M  V30 2657 C 240.998 0.324406 6.82229 0
M  V30 2658 O 240.686 0.982437 7.97874 0
M  V30 2659 H 240.418 -0.248534 0.628655 0
M  V30 2660 H 242.972 -0.113907 2.05084 0
M  V30 2661 H 241.202 -2.50737 2.94394 0
M  V30 2662 H 242.891 -2.33021 3.32349 0
M  V30 2663 H 243.657 -0.360918 4.83655 0
M  V30 2664 H 239.536 -1.49159 4.36202 0
M  V30 2665 H 243.08 0.8179 6.92789 0
M  V30 2666 H 238.977 -0.319294 6.4471 0
M  V30 2667 H 239.745 0.886454 8.13686 0
M  V30 2668 N 242.408 -1.52605 -0.393616 0
M  V30 2669 C 243.654 -1.67672 -1.14079 0
M  V30 2670 C 243.987 -0.413121 -1.89755 0
M  V30 2671 O 243.262 0.588952 -1.85369 0
M  V30 2672 C 243.545 -2.9088 -2.12276 0
M  V30 2673 C 243.398 -4.27329 -1.40394 0
M  V30 2674 C 244.717 -3.09628 -3.12759 0
M  V30 2675 H 241.836 -0.610168 -0.413356 0
M  V30 2676 H 244.478 -1.85193 -0.424696 0
M  V30 2677 H 242.628 -2.76073 -2.73342 0
M  V30 2678 H 244.3 -4.53894 -0.82327 0
M  V30 2679 H 242.543 -4.2802 -0.705801 0
M  V30 2680 H 243.214 -5.09615 -2.12123 0
M  V30 2681 H 245.69 -3.23436 -2.61779 0
M  V30 2682 H 244.566 -3.97322 -3.78717 0
M  V30 2683 H 244.827 -2.23637 -3.81365 0
M  V30 2684 N 243.887 0.651787 -1.4349 0
M  V30 2685 C 244.834 1.76462 -1.4876 0
M  V30 2686 C 245.804 1.62641 -0.337189 0
M  V30 2687 O 246.989 1.82864 -0.544544 0
M  V30 2688 C 244.129 3.14623 -1.41796 0
M  V30 2689 C 243.242 3.39568 -2.67053 0
M  V30 2690 C 242.377 4.67585 -2.52068 0
M  V30 2691 C 241.416 4.85639 -3.72587 0
M  V30 2692 N 240.553 6.04915 -3.56402 0
M  V30 2693 H 245.393 1.71293 -2.43849 0
M  V30 2694 H 242.93 0.835889 -1.21043 0
M  V30 2695 H 244.888 3.94496 -1.35753 0
M  V30 2696 H 243.518 3.18859 -0.50288 0
M  V30 2697 H 242.57 2.53783 -2.8337 0
M  V30 2698 H 243.882 3.48795 -3.56572 0
M  V30 2699 H 243.036 5.55586 -2.4374 0
M  V30 2700 H 241.775 4.60681 -1.60075 0
M  V30 2701 H 240.78 3.96073 -3.81321 0
M  V30 2702 H 242.005 4.94372 -4.65589 0
M  V30 2703 H 239.951 5.9914 -2.67146 0
M  V30 2704 H 239.868 6.15106 -4.39524 0
M  V30 2705 H 241.136 6.95533 -3.51929 0
M  V30 2706 N 245.365 1.30045 0.890287 0
M  V30 2707 C 246.312 1.15976 1.99545 0
M  V30 2708 C 247.282 0.0506202 1.66023 0
M  V30 2709 O 248.467 0.219847 1.89529 0
M  V30 2710 C 245.607 0.852054 3.34416 0
M  V30 2711 C 244.72 2.04255 3.80662 0
M  V30 2712 C 243.855 1.6734 5.04154 0
M  V30 2713 C 242.894 2.82916 5.42794 0
M  V30 2714 N 242.031 2.46333 6.57468 0
M  V30 2715 H 246.871 2.10524 2.10911 0
M  V30 2716 H 244.408 1.04749 1.03276 0
M  V30 2717 H 246.366 0.654296 4.12037 0
M  V30 2718 H 244.996 -0.0565502 3.2275 0
M  V30 2719 H 244.048 2.35172 2.98995 0
M  V30 2720 H 245.36 2.90826 4.05242 0
M  V30 2721 H 244.514 1.43908 5.89386 0
M  V30 2722 H 243.253 0.779308 4.81433 0
M  V30 2723 H 242.258 3.0702 4.56091 0
M  V30 2724 H 243.483 3.73004 5.6749 0
M  V30 2725 H 241.429 1.59423 6.36334 0
M  V30 2726 H 241.346 3.26436 6.81891 0
M  V30 2727 H 242.614 2.26244 7.45945 0
M  V30 2728 N 246.843 -1.10192 1.12674 0
M  V30 2729 C 247.79 -2.16606 0.796906 0
M  V30 2730 C 248.76 -1.64394 -0.237476 0
M  V30 2731 O 249.945 -1.90474 -0.111484 0
M  V30 2732 C 247.085 -3.44116 0.26043 0
M  V30 2733 C 246.198 -4.10268 1.35293 0
M  V30 2734 C 245.333 -5.25507 0.775621 0
M  V30 2735 C 244.372 -5.83567 1.84706 0
M  V30 2736 N 243.509 -6.90179 1.28829 0
M  V30 2737 H 248.349 -2.44163 1.70846 0
M  V30 2738 H 245.886 -1.19846 0.85295 0
M  V30 2739 H 247.844 -4.17143 -0.0686814 0
M  V30 2740 H 246.474 -3.16901 -0.614274 0
M  V30 2741 H 245.526 -3.35184 1.79877 0
M  V30 2742 H 246.838 -4.4946 2.16303 0
M  V30 2743 H 245.992 -6.05398 0.397327 0
M  V30 2744 H 244.731 -4.87656 -0.0656581 0
M  V30 2745 H 243.736 -5.02344 2.23452 0
M  V30 2746 H 244.961 -6.23482 2.69161 0
M  V30 2747 H 242.907 -6.54322 0.468881 0
M  V30 2748 H 242.824 -7.28097 2.03497 0
M  V30 2749 H 244.092 -7.73844 0.937311 0
M  V30 2750 N 248.321 -0.919034 -1.28029 0
M  V30 2751 C 249.284 -0.416182 -2.2539 0
M  V30 2752 C 250.284 0.460438 -1.54067 0
M  V30 2753 O 251.474 0.262744 -1.72207 0
M  V30 2754 C 248.606 0.402707 -3.38513 0
M  V30 2755 H 249.799 -1.27629 -2.71387 0
M  V30 2756 H 247.352 -0.698919 -1.39803 0
M  V30 2757 H 248.087 1.282 -2.97885 0
M  V30 2758 H 247.872 -0.225698 -3.9145 0
M  V30 2759 H 249.362 0.745191 -4.10897 0
M  V30 2760 N 249.799 1.42003 -0.683588 0
M  V30 2761 C 251.076 1.95112 -0.138075 0
M  V30 2762 C 251.456 1.62359 1.34918 0
M  V30 2763 O 250.804 0.924311 2.08971 0
M  V30 2764 C 251.014 3.46505 -0.416581 0
M  V30 2765 C 252.362 4.23254 -0.337834 0
M  V30 2766 O 253.386 3.54468 -0.35082 0
M  V30 2767 O 252.245 5.45743 -0.287596 0
M  V30 2768 H 249.339 0.826961 -0.00797996 0
M  V30 2769 H 251.885 1.51784 -0.758924 0
M  V30 2770 H 250.657 3.63582 -1.4465 0
M  V30 2771 H 250.28 3.969 0.235839 0
M  V30 2772 N 251.277 0.427512 1.51691 0
M  V30 2773 C 252.523 -0.134744 2.02953 0
M  V30 2774 C 252.878 -1.41235 1.30654 0
M  V30 2775 O 252.171 -1.87168 0.409713 0
M  V30 2776 C 252.365 -0.418249 3.54944 0
M  V30 2777 C 252.194 0.830327 4.41968 0
M  V30 2778 C 250.964 1.36097 4.86627 0
M  V30 2779 C 253.162 1.7137 4.84909 0
M  V30 2780 N 251.144 2.56311 5.57833 0
M  V30 2781 C 252.515 2.76195 5.55082 0
M  V30 2782 C 254.57 1.72928 4.66905 0
M  V30 2783 C 253.273 3.82512 6.09161 0
M  V30 2784 C 255.299 2.78175 5.21894 0
M  V30 2785 C 254.661 3.8172 5.92004 0
M  V30 2786 H 250.76 -0.0103958 0.781931 0
M  V30 2787 H 253.344 0.585981 1.85673 0
M  V30 2788 H 251.515 -1.10801 3.7226 0
M  V30 2789 H 253.247 -0.970999 3.92879 0
M  V30 2790 H 250.002 0.916311 4.64651 0
M  V30 2791 H 250.426 3.17242 5.98069 0
M  V30 2792 H 255.068 0.942081 4.12171 0
M  V30 2793 H 252.786 4.62077 6.62956 0
M  V30 2794 H 256.372 2.8031 5.09821 0
M  V30 2795 H 255.252 4.61821 6.33791 0
M  V30 2796 N 252.755 -1.56801 0.158532 0
M  V30 2797 C 253.718 -2.16138 -0.762705 0
M  V30 2798 C 254.718 -1.1061 -1.16713 0
M  V30 2799 O 255.908 -1.36191 -1.08617 0
M  V30 2800 C 253.04 -2.73386 -2.03649 0
M  V30 2801 H 254.233 -2.98886 -0.246354 0
M  V30 2802 H 251.786 -1.56035 -0.0909744 0
M  V30 2803 H 252.521 -1.94335 -2.59623 0
M  V30 2804 H 252.306 -3.50601 -1.75559 0
M  V30 2805 H 253.796 -3.19065 -2.6942 0
M  V30 2806 N 254.233 0.115231 -1.57178 0
M  V30 2807 C 255.163 1.1423 -2.03651 0
M  V30 2808 C 256.144 1.42967 -0.921655 0
M  V30 2809 O 257.329 1.53343 -1.19162 0
M  V30 2810 C 254.459 2.4675 -2.44401 0
M  V30 2811 C 253.413 2.32467 -3.59365 0
M  V30 2812 C 252.739 3.69984 -3.86026 0
M  V30 2813 C 254.039 1.78203 -4.90959 0
M  V30 2814 H 255.733 0.755749 -2.89705 0
M  V30 2815 H 253.279 0.362093 -1.39373 0
M  V30 2816 H 255.232 3.18854 -2.75517 0
M  V30 2817 H 253.956 2.87302 -1.55322 0
M  V30 2818 H 252.615 1.62811 -3.28463 0
M  V30 2819 H 252.263 4.08028 -2.94147 0
M  V30 2820 H 251.963 3.61279 -4.63412 0
M  V30 2821 H 253.487 4.43587 -4.19599 0
M  V30 2822 H 254.901 2.40128 -5.20587 0
M  V30 2823 H 253.298 1.8031 -5.72371 0
M  V30 2824 H 254.368 0.739876 -4.79222 0
M  V30 2825 N 255.711 1.52812 0.385517 0
M  V30 2826 C 257.127 1.4214 0.725829 0
M  V30 2827 C 257.327 0.544589 1.94001 0
M  V30 2828 O 256.383 0.0193693 2.52493 0
M  V30 2829 C 257.696 2.85042 0.957668 0
M  V30 2830 C 259.244 2.94543 1.05892 0
M  V30 2831 C 259.719 4.38464 1.32337 0
M  V30 2832 N 261.21 4.41804 1.39151 0
M  V30 2833 C 261.945 5.5025 1.61285 0
M  V30 2834 N 261.441 6.68775 1.80866 0
M  V30 2835 N 263.234 5.37798 1.63492 0
M  V30 2836 H 255.385 2.08338 -0.413383 0
M  V30 2837 H 257.648 0.940016 -0.122775 0
M  V30 2838 H 257.354 3.51431 0.137568 0
M  V30 2839 H 257.228 3.27505 1.87137 0
M  V30 2840 H 259.615 2.28321 1.86959 0
M  V30 2841 H 259.696 2.55504 0.123057 0
M  V30 2842 H 259.34 5.05254 0.517793 0
M  V30 2843 H 259.27 4.75059 2.27214 0
M  V30 2844 H 261.761 3.56377 1.25713 0
M  V30 2845 H 262.074 7.47197 1.97271 0
M  V30 2846 H 260.419 6.71797 1.78083 0
M  V30 2847 H 263.61 4.44171 1.47749 0
M  V30 2848 H 263.783 6.22382 1.80402 0
M  V30 2849 N 257.189 -0.644168 1.43834 0
M  V30 2850 C 258.435 -1.40431 1.47141 0
M  V30 2851 C 258.79 -1.92153 0.0975577 0
M  V30 2852 O 258.083 -1.69924 -0.885232 0
M  V30 2853 C 258.277 -2.59615 2.45631 0
M  V30 2854 C 258.106 -2.1956 3.92458 0
M  V30 2855 C 256.876 -2.07456 4.60749 0
M  V30 2856 C 259.074 -1.79281 4.8204 0
M  V30 2857 N 257.056 -1.60827 5.92459 0
M  V30 2858 C 258.427 -1.43801 6.03093 0
M  V30 2859 C 260.482 -1.66545 4.6922 0
M  V30 2860 C 259.185 -0.968599 7.12749 0
M  V30 2861 C 261.211 -1.21008 5.78888 0
M  V30 2862 C 260.573 -0.864711 6.99072 0
M  V30 2863 H 256.672 -0.509182 0.593513 0
M  V30 2864 H 259.256 -0.740351 1.80075 0
M  V30 2865 H 257.427 -3.23658 2.1471 0
M  V30 2866 H 259.159 -3.26357 2.39318 0
M  V30 2867 H 255.914 -2.275 4.1538 0
M  V30 2868 H 256.338 -1.39848 6.62398 0
M  V30 2869 H 260.98 -1.91883 3.7675 0
M  V30 2870 H 258.698 -0.702715 8.05039 0
M  V30 2871 H 262.284 -1.11631 5.7099 0
M  V30 2872 H 261.164 -0.517736 7.82489 0
M  V30 2873 N 258.668 -1.30515 -0.883378 0
M  V30 2874 C 259.917 -1.18795 -1.63005 0
M  V30 2875 C 260.23 0.255923 -1.93919 0
M  V30 2876 O 261.436 0.494654 -2.66956 0
M  V30 2877 C 259.892 -2.07878 -2.93794 0
M  V30 2878 C 259.5 -3.57184 -2.70414 0
M  V30 2879 C 261.244 -2.04924 -3.71761 0
M  V30 2880 C 259.151 -4.38317 -3.97029 0
M  V30 2881 H 258.081 -0.441031 -0.611562 0
M  V30 2882 H 260.732 -1.55275 -0.977854 0
M  V30 2883 H 259.114 -1.64283 -3.60315 0
M  V30 2884 H 260.288 -4.08937 -2.12384 0
M  V30 2885 H 258.603 -3.61976 -2.0582 0
M  V30 2886 H 261.2 -2.62792 -4.65665 0
M  V30 2887 H 261.543 -1.0331 -4.03277 0
M  V30 2888 H 262.076 -2.46649 -3.12104 0
M  V30 2889 H 258.815 -5.40632 -3.70671 0
M  V30 2890 H 258.335 -3.91326 -4.54559 0
M  V30 2891 H 260.014 -4.49834 -4.65036 0
M  V30 2892 N 260.146 1.09593 -1.13257 0
M  V30 2893 C 261.109 2.14359 -0.811358 0
M  V30 2894 C 262.109 1.59808 0.178377 0
M  V30 2895 O 263.299 1.74132 -0.0484911 0
M  V30 2896 C 260.431 3.40269 -0.207276 0
M  V30 2897 H 261.624 2.44284 -1.73969 0
M  V30 2898 H 259.177 1.25102 -0.936973 0
M  V30 2899 H 259.912 3.15969 0.73036 0
M  V30 2900 H 259.697 3.81154 -0.919992 0
M  V30 2901 H 261.187 4.176 0.000667944 0
M  V30 2902 N 261.624 0.925811 1.2754 0
M  V30 2903 C 262.901 0.483726 1.89524 0
M  V30 2904 C 263.281 -1.03809 1.83812 0
M  V30 2905 O 262.629 -1.89143 1.28207 0
M  V30 2906 C 262.839 1.02769 3.33526 0
M  V30 2907 C 264.187 1.08703 4.10449 0
M  V30 2908 O 265.211 0.977175 3.42534 0
M  V30 2909 O 264.07 1.25599 5.31871 0
M  V30 2910 H 261.164 0.15529 0.812289 0
M  V30 2911 H 263.71 1.01738 1.35822 0
M  V30 2912 H 262.482 2.07155 3.31967 0
M  V30 2913 H 262.105 0.475567 3.94746 0
M  V30 2914 N 263.102 -1.41638 0.69111 0
M  V30 2915 C 264.518 -1.55435 0.362224 0
M  V30 2916 C 264.718 -1.66754 -1.13117 0
M  V30 2917 O 263.774 -1.64348 -1.91692 0
M  V30 2918 C 265.087 -2.79588 1.10684 0
M  V30 2919 C 266.635 -2.9338 1.09075 0
M  V30 2920 C 267.11 -4.20414 1.81703 0
M  V30 2921 N 268.601 -4.27362 1.7865 0
M  V30 2922 C 269.336 -5.24507 2.31689 0
M  V30 2923 N 268.832 -6.27708 2.93179 0
M  V30 2924 N 270.625 -5.16416 2.2197 0
M  V30 2925 H 262.776 -1.32536 1.65976 0
M  V30 2926 H 265.039 -0.639115 0.700168 0
M  V30 2927 H 264.745 -2.77419 2.16175 0
M  V30 2928 H 264.619 -3.70973 0.682545 0
M  V30 2929 H 267.006 -2.95067 0.0441238 0
M  V30 2930 H 267.087 -2.0318 1.55407 0
M  V30 2931 H 266.731 -4.19488 2.86343 0
M  V30 2932 H 266.661 -5.09578 1.32808 0
M  V30 2933 H 269.152 -3.53415 1.33815 0
M  V30 2934 H 269.465 -6.98217 3.31229 0
M  V30 2935 H 267.81 -6.28223 2.97255 0
M  V30 2936 H 271.001 -4.34716 1.73607 0
M  V30 2937 H 271.174 -5.91958 2.63609 0
M  V30 2938 N 264.58 -0.43555 -1.51462 0
M  V30 2939 C 265.527 0.376797 -2.27703 0
M  V30 2940 C 266.497 1.01838 -1.31219 0
M  V30 2941 O 267.682 1.03762 -1.60119 0
M  V30 2942 C 264.822 1.47301 -3.12084 0
M  V30 2943 C 263.935 0.849744 -4.2356 0
M  V30 2944 C 263.07 1.92086 -4.95254 0
M  V30 2945 C 262.109 1.27593 -5.98654 0
M  V30 2946 N 261.246 2.28833 -6.63762 0
M  V30 2947 H 266.086 -0.279734 -2.96684 0
M  V30 2948 H 263.623 -0.149795 -1.46335 0
M  V30 2949 H 265.581 2.11984 -3.59331 0
M  V30 2950 H 264.211 2.0992 -2.45221 0
M  V30 2951 H 263.263 0.0912529 -3.80291 0
M  V30 2952 H 264.575 0.338878 -4.97648 0
M  V30 2953 H 263.729 2.64435 -5.46039 0
M  V30 2954 H 262.468 2.46545 -4.20793 0
M  V30 2955 H 261.473 0.537893 -5.47162 0
M  V30 2956 H 262.698 0.738693 -6.7507 0
M  V30 2957 H 260.644 2.82375 -5.92115 0
M  V30 2958 H 260.561 1.82632 -7.33608 0
M  V30 2959 H 261.829 3.00671 -7.19178 0
M  V30 2960 N 266.058 1.56714 -0.166846 0
M  V30 2961 C 267.283 2.01557 0.488833 0
M  V30 2962 C 267.708 1.0463 1.56314 0
M  V30 2963 O 267.066 0.0251304 1.81283 0
M  V30 2964 C 267.114 3.4503 1.04818 0
M  V30 2965 O 266.218 3.51163 2.16236 0
M  V30 2966 H 265.559 0.653516 0.117526 0
M  V30 2967 H 268.089 2.02818 -0.269421 0
M  V30 2968 H 268.099 3.84243 1.37191 0
M  V30 2969 H 266.774 4.15077 0.261572 0
M  V30 2970 H 265.351 3.23807 1.84942 0
M  V30 2971 N 267.536 -0.106894 1.57237 0
M  V30 2972 C 268.764 -0.826389 1.8968 0
M  V30 2973 C 269.179 -1.72856 0.759353 0
M  V30 2974 O 268.536 -1.80503 -0.269263 0
M  V30 2975 C 268.587 -1.64967 3.21665 0
M  V30 2976 O 268.308 -0.783804 4.31031 0
M  V30 2977 C 269.809 -2.47326 3.67892 0
M  V30 2978 H 267.029 -0.236927 0.627779 0
M  V30 2979 H 269.573 -0.0876593 2.04312 0
M  V30 2980 H 267.728 -2.34103 3.08666 0
M  V30 2981 H 268.142 -1.35284 5.06753 0
M  V30 2982 H 269.616 -3.00604 4.6297 0
M  V30 2983 H 270.093 -3.25247 2.95146 0
M  V30 2984 H 270.699 -1.83411 3.83719 0
M  V30 2985 N 269.014 -1.53014 -0.377408 0
M  V30 2986 C 270.261 -1.68623 -1.12128 0
M  V30 2987 C 270.589 -0.431997 -1.89642 0
M  V30 2988 O 269.844 0.585855 -1.86725 0
M  V30 2989 C 270.143 -2.87982 -2.11663 0
M  V30 2990 C 269.809 -4.24964 -1.50719 0
M  V30 2991 C 268.471 -4.62217 -1.33825 0
M  V30 2992 C 270.823 -5.10199 -1.06519 0
M  V30 2993 C 268.151 -5.82352 -0.712963 0
M  V30 2994 C 270.503 -6.30969 -0.453955 0
M  V30 2995 C 269.167 -6.66944 -0.272411 0
M  V30 2996 H 268.437 -0.617034 -0.410305 0
M  V30 2997 H 271.084 -1.8718 -0.404484 0
M  V30 2998 H 269.389 -2.63889 -2.89603 0
M  V30 2999 H 271.086 -2.97253 -2.6915 0
M  V30 3000 H 267.676 -3.95626 -1.64858 0
M  V30 3001 H 271.86 -4.81978 -1.18368 0
M  V30 3002 H 267.116 -6.08824 -0.560611 0
M  V30 3003 H 271.29 -6.96324 -0.103217 0
M  V30 3004 H 268.917 -7.59898 0.214181 0
M  V30 3005 N 270.492 0.636531 -1.44174 0
M  V30 3006 C 271.74 1.39343 -1.46383 0
M  V30 3007 C 272.061 1.94766 -0.0955715 0
M  V30 3008 O 271.331 1.75452 0.871395 0
M  V30 3009 H 269.911 0.517199 -0.538994 0
M  V30 3010 H 272.573 0.74957 -1.7991 0
M  V30 3011 H 271.669 2.22746 -2.18611 0
M  V30 3012 N 271.97 1.30982 0.876444 0
M  V30 3013 C 272.88 1.2003 2.01569 0
M  V30 3014 C 273.896 0.11838 1.73597 0
M  V30 3015 O 275.072 0.33495 1.98595 0
M  V30 3016 C 272.137 0.901637 3.34771 0
M  V30 3017 C 271.198 2.06979 3.76109 0
M  V30 3018 C 270.431 1.78529 5.02954 0
M  V30 3019 O 270.654 0.717296 5.65872 0
M  V30 3020 O 269.588 2.64019 5.40905 0
M  V30 3021 H 273.414 2.15753 2.13739 0
M  V30 3022 H 270.999 1.10658 1.00375 0
M  V30 3023 H 272.881 0.750645 4.1466 0
M  V30 3024 H 271.556 -0.0256141 3.2369 0
M  V30 3025 H 270.463 2.27616 2.96887 0
M  V30 3026 H 271.796 2.97907 3.91807 0
M  V30 3027 N 273.449 -1.08991 1.13837 0
M  V30 3028 C 274.865 -1.33312 0.877506 0
M  V30 3029 C 275.065 -1.95587 -0.48456 0
M  V30 3030 O 274.121 -2.20509 -1.23013 0
M  V30 3031 C 275.434 -2.24045 2.0056 0
M  V30 3032 C 276.982 -2.37542 2.03821 0
M  V30 3033 C 277.457 -3.31614 3.15905 0
M  V30 3034 N 278.948 -3.39189 3.15445 0
M  V30 3035 C 279.683 -4.11992 3.98811 0
M  V30 3036 N 279.179 -4.87553 4.92203 0
M  V30 3037 N 280.972 -4.07762 3.86894 0
M  V30 3038 H 273.123 -0.669456 2.01574 0
M  V30 3039 H 275.386 -0.357482 0.878015 0
M  V30 3040 H 275.092 -1.85521 2.98789 0
M  V30 3041 H 274.966 -3.24466 1.92359 0
M  V30 3042 H 277.353 -2.75327 1.06202 0
M  V30 3043 H 277.434 -1.36884 2.16093 0
M  V30 3044 H 277.078 -2.94551 4.13766 0
M  V30 3045 H 277.008 -4.32186 3.0087 0
M  V30 3046 H 279.499 -2.85314 2.47799 0
M  V30 3047 H 279.812 -5.40549 5.52292 0
M  V30 3048 H 278.157 -4.86627 4.96205 0
M  V30 3049 H 281.348 -3.47833 3.13257 0
M  V30 3050 H 281.521 -4.64238 4.52092 0
M  V30 3051 N 274.927 -0.932562 -1.27047 0
M  V30 3052 C 276.173 -0.576412 -1.94436 0
M  V30 3053 C 276.506 0.880891 -1.73072 0
M  V30 3054 O 275.781 1.62905 -1.06264 0
M  V30 3055 C 276.064 -0.909031 -3.48437 0
M  V30 3056 C 275.917 -2.42044 -3.79123 0
M  V30 3057 C 277.236 -0.418341 -4.38107 0
M  V30 3058 H 274.355 -0.210888 -0.706184 0
M  V30 3059 H 276.997 -1.16522 -1.50075 0
M  V30 3060 H 275.147 -0.407947 -3.86352 0
M  V30 3061 H 276.819 -2.99359 -3.50973 0
M  V30 3062 H 275.062 -2.86758 -3.25503 0
M  V30 3063 H 275.733 -2.6037 -4.86736 0
M  V30 3064 H 278.209 -0.847856 -4.0737 0
M  V30 3065 H 277.085 -0.679981 -5.44672 0
M  V30 3066 H 277.346 0.681642 -4.36814 0
M  V30 3067 N 276.405 1.4127 -0.698611 0
M  V30 3068 C 277.651 2.01478 -0.231207 0
M  V30 3069 C 277.984 1.55215 1.16713 0
M  V30 3070 O 277.259 0.764672 1.78838 0
M  V30 3071 C 277.542 3.58912 -0.292281 0
M  V30 3072 C 277.395 4.15293 -1.72778 0
M  V30 3073 C 278.714 4.38736 0.346194 0
M  V30 3074 H 275.833 0.732025 -0.0854878 0
M  V30 3075 H 278.475 1.67977 -0.887906 0
M  V30 3076 H 276.625 3.87582 0.26686 0
M  V30 3077 H 278.297 3.97486 -2.341 0
M  V30 3078 H 276.54 3.7022 -2.26096 0
M  V30 3079 H 277.211 5.24452 -1.72202 0
M  V30 3080 H 279.687 4.15897 -0.130035 0
M  V30 3081 H 278.563 5.48221 0.272932 0
M  V30 3082 H 278.824 4.18425 1.42734 0
M  V30 3083 N 277.883 0.443576 1.51229 0
M  V30 3084 C 278.846 -0.353132 2.26463 0
M  V30 3085 C 279.846 -0.944338 1.3015 0
M  V30 3086 O 281.036 -0.817813 1.5381 0
M  V30 3087 C 278.168 -1.50023 3.06114 0
M  V30 3088 H 279.361 0.3063 2.98332 0
M  V30 3089 H 276.914 0.196902 1.55055 0
M  V30 3090 H 277.649 -2.19553 2.38677 0
M  V30 3091 H 277.434 -1.08241 3.76864 0
M  V30 3092 H 278.924 -2.06296 3.63087 0
M  V30 3093 N 279.361 -1.56624 0.175154 0
M  V30 3094 C 280.608 -1.96999 -0.468811 0
M  V30 3095 C 280.936 -1.06129 -1.62994 0
M  V30 3096 O 280.191 -0.0961771 -1.95464 0
M  V30 3097 C 280.49 -3.43419 -0.989864 0
M  V30 3098 C 280.156 -4.50866 0.0557687 0
M  V30 3099 C 278.818 -4.79975 0.343134 0
M  V30 3100 C 281.17 -5.15551 0.765308 0
M  V30 3101 C 278.498 -5.71066 1.34536 0
M  V30 3102 C 280.85 -6.07724 1.75654 0
M  V30 3103 C 279.514 -6.35199 2.05132 0
M  V30 3104 H 278.784 -0.720869 -0.17155 0
M  V30 3105 H 281.431 -1.89616 0.267924 0
M  V30 3106 H 279.736 -3.47772 -1.80449 0
M  V30 3107 H 281.433 -3.72002 -1.49719 0
M  V30 3108 H 278.023 -4.28229 -0.178381 0
M  V30 3109 H 282.207 -4.9317 0.556513 0
M  V30 3110 H 277.463 -5.90635 1.57988 0
M  V30 3111 H 281.637 -6.56912 2.31169 0
M  V30 3112 H 279.264 -7.05584 2.8294 0
M  V30 3113 N 280.839 0.0985539 -1.57292 0
M  V30 3114 C 281.802 1.10402 -2.00858 0
M  V30 3115 C 282.802 1.33146 -0.901593 0
M  V30 3116 O 283.992 1.29318 -1.16716 0
M  V30 3117 C 281.124 2.45394 -2.36632 0
M  V30 3118 H 282.317 0.729099 -2.90902 0
M  V30 3119 H 279.87 0.343495 -1.52479 0
M  V30 3120 H 280.605 2.87769 -1.49531 0
M  V30 3121 H 280.39 2.30235 -3.17387 0
M  V30 3122 H 281.88 3.17718 -2.71007 0
M  V30 3123 N 282.317 1.53212 0.369288 0
M  V30 3124 C 283.28 1.7872 1.43498 0
M  V30 3125 C 284.28 0.657554 1.46741 0
M  V30 3126 O 285.47 0.925736 1.47566 0
M  V30 3127 C 282.602 1.90591 2.82645 0
M  V30 3128 H 283.795 2.73894 1.22156 0
M  V30 3129 H 281.348 1.44233 0.602203 0
M  V30 3130 H 282.083 0.974709 3.09306 0
M  V30 3131 H 281.868 2.72751 2.8169 0
M  V30 3132 H 283.358 2.11931 3.59826 0
M  V30 3133 N 283.795 -0.628877 1.44509 0
M  V30 3134 C 285.041 -1.39045 1.47629 0
M  V30 3135 C 285.374 -1.93892 0.109343 0
M  V30 3136 O 284.649 -1.7379 -0.87334 0
M  V30 3137 C 284.932 -2.55408 2.53848 0
M  V30 3138 C 284.785 -2.05896 3.99909 0
M  V30 3139 C 286.104 -3.5759 2.56549 0
M  V30 3140 H 283.223 -0.504232 0.537512 0
M  V30 3141 H 285.865 -0.710854 1.76201 0
M  V30 3142 H 284.015 -3.13384 2.29615 0
M  V30 3143 H 285.687 -1.52734 4.35282 0
M  V30 3144 H 283.93 -1.37061 4.11578 0
M  V30 3145 H 284.601 -2.89681 4.69882 0
M  V30 3146 H 287.077 -3.09419 2.78207 0
M  V30 3147 H 285.953 -4.36527 3.32769 0
M  V30 3148 H 286.214 -4.11808 1.60832 0
M  V30 3149 N 285.273 -1.31445 -0.869486 0
M  V30 3150 C 286.183 -1.21097 -2.0093 0
M  V30 3151 C 287.199 -0.127584 -1.73532 0
M  V30 3152 O 288.375 -0.345477 -1.98415 0
M  V30 3153 C 285.44 -0.919378 -3.34288 0
M  V30 3154 C 284.501 -2.08971 -3.75006 0
M  V30 3155 C 283.734 -1.81194 -5.02001 0
M  V30 3156 O 283.957 -0.747296 -5.65484 0
M  V30 3157 O 282.891 -2.66883 -5.39497 0
M  V30 3158 H 286.717 -2.16883 -2.12592 0
M  V30 3159 H 284.302 -1.11189 -0.997868 0
M  V30 3160 H 286.184 -0.772625 -4.14257 0
M  V30 3161 H 284.859 0.00844772 -3.23699 0
M  V30 3162 H 283.766 -2.29187 -2.95676 0
M  V30 3163 H 285.099 -2.9998 -3.90221 0
M  V30 3164 N 286.751 1.08385 -1.14413 0
M  V30 3165 C 287.999 1.80419 -0.910679 0
M  V30 3166 C 288.32 1.86658 0.564243 0
M  V30 3167 O 287.59 1.35985 1.41014 0
M  V30 3168 H 286.17 0.668204 -0.333934 0
M  V30 3169 H 288.832 1.31037 -1.44275 0
M  V30 3170 H 287.928 2.83238 -1.31082 0
M  V30 3171 N 288.23 0.939286 1.26551 0
M  V30 3172 C 289.476 0.586715 1.94128 0
M  V30 3173 C 289.809 -0.8717 1.73537 0
M  V30 3174 O 289.084 -1.62339 1.07127 0
M  V30 3175 C 289.367 0.927497 3.4795 0
M  V30 3176 C 289.22 2.44052 3.77834 0
M  V30 3177 C 290.539 0.441569 4.37879 0
M  V30 3178 H 287.658 0.21463 0.705055 0
M  V30 3179 H 290.3 1.17316 1.49455 0
M  V30 3180 H 288.45 0.428431 3.8613 0
M  V30 3181 H 290.122 3.01216 3.4938 0
M  V30 3182 H 288.365 2.8848 3.23978 0
M  V30 3183 H 289.036 2.62947 4.85348 0
M  V30 3184 H 291.512 0.869448 4.06915 0
M  V30 3185 H 290.388 0.708856 5.44304 0
M  V30 3186 H 290.649 -0.658467 4.37169 0
M  V30 3187 N 289.708 -1.40897 0.706093 0
M  V30 3188 C 290.955 -2.01054 0.241531 0
M  V30 3189 C 291.283 -1.55956 -1.16223 0
M  V30 3190 O 290.538 -0.766336 -1.80072 0
M  V30 3191 C 290.837 -3.5646 0.259099 0
M  V30 3192 C 290.503 -4.21106 1.61184 0
M  V30 3193 C 289.165 -4.38479 1.98216 0
M  V30 3194 C 291.517 -4.57256 2.50132 0
M  V30 3195 C 288.845 -4.89282 3.2376 0
M  V30 3196 C 291.197 -5.09454 3.7502 0
M  V30 3197 C 289.861 -5.25037 4.12181 0
M  V30 3198 H 289.131 -0.73571 0.0883825 0
M  V30 3199 H 291.778 -1.68645 0.907257 0
M  V30 3200 H 290.083 -3.88721 -0.490189 0
M  V30 3201 H 291.78 -4.00826 -0.11804 0
M  V30 3202 H 288.37 -4.07966 1.31384 0
M  V30 3203 H 292.554 -4.43479 2.228 0
M  V30 3204 H 287.81 -4.99531 3.52532 0
M  V30 3205 H 291.984 -5.36404 4.44121 0
M  V30 3206 H 289.611 -5.64164 5.09532 0
M  V30 3207 N 291.186 -0.45159 -1.50991 0
M  V30 3208 C 292.433 0.110074 -2.02201 0
M  V30 3209 C 292.761 1.4146 -1.33489 0
M  V30 3210 O 292.016 1.90617 -0.443125 0
M  V30 3211 C 292.315 0.361728 -3.55565 0
M  V30 3212 C 291.981 -0.858717 -4.42648 0
M  V30 3213 C 290.643 -1.19338 -4.66167 0
M  V30 3214 C 292.995 -1.67221 -4.93646 0
M  V30 3215 C 290.323 -2.34195 -5.37931 0
M  V30 3216 C 292.675 -2.8119 -5.6667 0
M  V30 3217 C 291.339 -3.15094 -5.88449 0
M  V30 3218 H 290.609 0.040279 -0.739904 0
M  V30 3219 H 293.256 -0.601696 -1.81802 0
M  V30 3220 H 291.561 1.15554 -3.74372 0
M  V30 3221 H 293.258 0.80996 -3.92735 0
M  V30 3222 H 289.848 -0.58796 -4.24548 0
M  V30 3223 H 294.032 -1.42686 -4.75347 0
M  V30 3224 H 289.288 -2.6076 -5.53005 0
M  V30 3225 H 293.462 -3.44585 -6.05173 0
M  V30 3226 H 291.089 -4.04204 -6.43835 0
M  V30 3227 N 292.664 1.56529 -0.183458 0
M  V30 3228 C 293.889 2.02064 0.467428 0
M  V30 3229 C 294.314 1.06282 1.55196 0
M  V30 3230 O 293.672 0.0443565 1.81246 0
M  V30 3231 C 293.72 3.46122 1.01153 0
M  V30 3232 O 292.824 3.53437 2.12499 0
M  V30 3233 H 292.165 0.654726 0.110588 0
M  V30 3234 H 294.695 2.02521 -0.290917 0
M  V30 3235 H 294.705 3.85676 1.33108 0
M  V30 3236 H 293.38 4.15331 0.217533 0
M  V30 3237 H 291.957 3.2575 1.81497 0
M  V30 3238 N 294.142 -0.090211 1.57342 0
M  V30 3239 C 295.39 -0.791241 1.85967 0
M  V30 3240 C 295.711 -1.7903 0.772859 0
M  V30 3241 O 294.981 -1.94872 -0.200398 0
M  V30 3242 H 293.561 -0.295205 0.686195 0
M  V30 3243 H 296.223 -0.0706782 1.94772 0
M  V30 3244 H 295.319 -1.31882 2.82867 0
M  V30 3245 N 295.62 -1.53406 -0.361157 0
M  V30 3246 C 296.845 -1.74024 -1.12829 0
M  V30 3247 C 297.27 -0.470069 -1.82132 0
M  V30 3248 O 296.628 0.57619 -1.719 0
M  V30 3249 C 296.676 -2.90903 -2.13091 0
M  V30 3250 O 295.78 -2.59821 -3.20261 0
M  V30 3251 H 295.121 -0.577804 -0.327168 0
M  V30 3252 H 297.651 -2.00307 -0.41693 0
M  V30 3253 H 297.661 -3.17194 -2.56616 0
M  V30 3254 H 296.336 -3.83034 -1.62042 0
M  V30 3255 H 294.913 -2.44362 -2.81677 0
M  V30 3256 N 297.098 0.621204 -1.44841 0
M  V30 3257 C 298.345 1.38055 -1.48145 0
M  V30 3258 C 298.673 1.94143 -0.117867 0
M  V30 3259 O 297.928 1.74713 0.881694 0
M  V30 3260 C 298.227 2.55675 -2.4973 0
M  V30 3261 C 297.893 2.17817 -3.94799 0
M  V30 3262 C 296.555 2.07205 -4.34303 0
M  V30 3263 C 298.907 1.88065 -4.86087 0
M  V30 3264 C 296.235 1.65045 -5.63007 0
M  V30 3265 C 298.587 1.47394 -6.15189 0
M  V30 3266 C 297.251 1.35331 -6.53637 0
M  V30 3267 H 296.521 0.505181 -0.542101 0
M  V30 3268 H 299.168 0.703477 -1.78111 0
M  V30 3269 H 297.473 3.2866 -2.13284 0
M  V30 3270 H 299.17 3.13904 -2.4953 0
M  V30 3271 H 295.76 2.26998 -3.63552 0
M  V30 3272 H 299.944 1.95168 -4.56315 0
M  V30 3273 H 295.2 1.54317 -5.91605 0
M  V30 3274 H 299.374 1.23415 -6.85377 0
M  V30 3275 H 297.001 1.02435 -7.53267 0
M  V30 3276 N 298.576 1.31904 0.862503 0
M  V30 3277 C 299.539 1.20131 1.95195 0
M  V30 3278 C 300.539 0.126409 1.60302 0
M  V30 3279 O 301.729 0.376234 1.70089 0
M  V30 3280 C 298.861 0.845691 3.30244 0
M  V30 3281 H 300.054 2.16943 2.07064 0
M  V30 3282 H 297.607 1.15622 1.05172 0
M  V30 3283 H 298.342 -0.120957 3.24074 0
M  V30 3284 H 298.127 1.62276 3.56944 0
M  V30 3285 H 299.617 0.787418 4.10109 0
M  V30 3286 N 300.054 -1.07777 1.14986 0
M  V30 3287 C 301.017 -2.13041 0.845358 0
M  V30 3288 C 302.017 -1.60071 -0.152931 0
M  V30 3289 O 303.207 -1.74033 0.0761879 0
M  V30 3290 C 300.339 -3.39896 0.261383 0
M  V30 3291 H 301.532 -2.41485 1.77834 0
M  V30 3292 H 299.085 -1.23595 0.956757 0
M  V30 3293 H 299.82 -3.17091 -0.68 0
M  V30 3294 H 299.605 -3.79642 0.980514 0
M  V30 3295 H 301.095 -4.17548 0.0657687 0
M  V30 3296 N 301.532 -0.945985 -1.26051 0
M  V30 3297 C 302.781 -0.591836 -1.92822 0
M  V30 3298 C 303.094 0.873956 -1.7499 0
M  V30 3299 O 304.3 1.33769 -2.36259 0
M  V30 3300 C 302.756 -1.00776 -3.45503 0
M  V30 3301 C 302.364 -2.4955 -3.7206 0
M  V30 3302 C 304.108 -0.725735 -4.1825 0
M  V30 3303 C 302.015 -2.84988 -5.18205 0
M  V30 3304 H 300.945 -0.217635 -0.721908 0
M  V30 3305 H 303.596 -1.14927 -1.43052 0
M  V30 3306 H 301.978 -0.378812 -3.94184 0
M  V30 3307 H 303.152 -3.1739 -3.34066 0
M  V30 3308 H 301.467 -2.75133 -3.12555 0
M  V30 3309 H 304.064 -0.966771 -5.25887 0
M  V30 3310 H 304.407 0.337639 -4.14929 0
M  V30 3311 H 304.94 -1.31463 -3.7545 0
M  V30 3312 H 301.679 -3.90307 -5.26631 0
M  V30 3313 H 301.199 -2.21813 -5.57278 0
M  V30 3314 H 302.878 -2.73712 -5.86252 0
M  V30 3315 N 303.011 1.40521 -0.713556 0
M  V30 3316 C 304.258 2.00923 -0.25219 0
M  V30 3317 C 304.586 1.56571 1.15395 0
M  V30 3318 O 303.841 0.775874 1.79663 0
M  V30 3319 C 304.14 3.56317 -0.278 0
M  V30 3320 C 303.806 4.20246 -1.63415 0
M  V30 3321 C 302.468 4.37422 -2.00538 0
M  V30 3322 C 304.82 4.55923 -2.52554 0
M  V30 3323 C 302.148 4.87558 -3.2635 0
M  V30 3324 C 304.5 5.07458 -3.77716 0
M  V30 3325 C 303.164 5.22843 -4.14959 0
M  V30 3326 H 302.434 0.735231 -0.0922829 0
M  V30 3327 H 305.081 1.68161 -0.916188 0
M  V30 3328 H 303.386 3.88976 0.469567 0
M  V30 3329 H 305.083 4.00883 0.0967819 0
M  V30 3330 H 301.673 4.07263 -1.33546 0
M  V30 3331 H 305.857 4.42291 -2.25149 0
M  V30 3332 H 301.113 4.97654 -3.55176 0
M  V30 3333 H 305.287 5.34041 -4.4696 0
M  V30 3334 H 302.914 5.61454 -5.12516 0
M  V30 3335 N 304.489 0.459591 1.5075 0
M  V30 3336 C 305.735 -0.091664 2.03193 0
M  V30 3337 C 306.09 -1.38432 1.3362 0
M  V30 3338 O 305.383 -1.86257 0.449322 0
M  V30 3339 C 305.577 -0.342866 3.55752 0
M  V30 3340 C 305.406 0.923888 4.40107 0
M  V30 3341 C 304.176 1.46388 4.83631 0
M  V30 3342 C 306.374 1.81617 4.81165 0
M  V30 3343 N 304.356 2.68086 5.52271 0
M  V30 3344 C 305.727 2.87907 5.49099 0
M  V30 3345 C 307.782 1.82793 4.63132 0
M  V30 3346 C 306.485 3.95347 6.0091 0
M  V30 3347 C 308.511 2.89182 5.15876 0
M  V30 3348 C 307.873 3.94191 5.83774 0
M  V30 3349 H 303.972 0.00619247 0.781975 0
M  V30 3350 H 306.556 0.625233 1.84388 0
M  V30 3351 H 304.727 -1.0288 3.74527 0
M  V30 3352 H 306.459 -0.887445 3.9485 0
M  V30 3353 H 303.214 1.01466 4.62603 0
M  V30 3354 H 303.638 3.29857 5.91205 0
M  V30 3355 H 308.28 1.0293 4.1008 0
M  V30 3356 H 305.998 4.76035 6.53006 0
M  V30 3357 H 309.584 2.91061 5.0376 0
M  V30 3358 H 308.464 4.75161 6.23853 0
M  V30 3359 N 305.967 -1.56429 0.191757 0
M  V30 3360 C 306.897 -2.21937 -0.725696 0
M  V30 3361 C 307.878 -1.1814 -1.2238 0
M  V30 3362 O 309.063 -1.46636 -1.27325 0
M  V30 3363 C 306.193 -2.87611 -1.94672 0
M  V30 3364 C 305.147 -3.97623 -1.58366 0
M  V30 3365 C 304.473 -4.50446 -2.88102 0
M  V30 3366 C 305.773 -5.16197 -0.796133 0
M  V30 3367 H 307.467 -2.98861 -0.179606 0
M  V30 3368 H 305.013 -1.43749 -0.0849464 0
M  V30 3369 H 306.966 -3.3212 -2.59373 0
M  V30 3370 H 305.69 -2.08087 -2.51728 0
M  V30 3371 H 304.349 -3.53801 -0.960247 0
M  V30 3372 H 303.997 -3.67688 -3.43241 0
M  V30 3373 H 303.697 -5.24675 -2.64556 0
M  V30 3374 H 305.221 -4.97654 -3.53798 0
M  V30 3375 H 306.635 -5.57271 -1.34618 0
M  V30 3376 H 305.032 -5.96471 -0.658928 0
M  V30 3377 H 306.102 -4.84473 0.203478 0
M  V30 3378 N 307.445 0.0818655 -1.57387 0
M  V30 3379 C 308.392 1.09834 -2.0299 0
M  V30 3380 C 309.362 1.39043 -0.908639 0
M  V30 3381 O 310.547 1.50282 -1.17559 0
M  V30 3382 C 307.687 2.40971 -2.47037 0
M  V30 3383 C 306.8 2.18379 -3.7274 0
M  V30 3384 C 305.935 3.43008 -4.0561 0
M  V30 3385 C 304.974 3.15736 -5.24383 0
M  V30 3386 N 304.111 4.32667 -5.52941 0
M  V30 3387 H 308.951 0.702472 -2.89602 0
M  V30 3388 H 306.488 0.33531 -1.43227 0
M  V30 3389 H 308.446 3.1752 -2.70623 0
M  V30 3390 H 307.076 2.78379 -1.63417 0
M  V30 3391 H 306.128 1.32569 -3.56552 0
M  V30 3392 H 307.44 1.94227 -4.59431 0
M  V30 3393 H 306.594 4.27958 -4.30043 0
M  V30 3394 H 305.333 3.70225 -3.17466 0
M  V30 3395 H 304.338 2.2918 -4.99757 0
M  V30 3396 H 305.563 2.8985 -6.14136 0
M  V30 3397 H 303.509 4.59935 -4.67756 0
M  V30 3398 H 303.426 4.11753 -6.34031 0
M  V30 3399 H 304.694 5.18644 -5.81918 0
M  V30 3400 N 308.923 1.53595 0.353017 0
M  V30 3401 C 309.87 1.80919 1.43308 0
M  V30 3402 C 310.84 0.654288 1.5267 0
M  V30 3403 O 312.025 0.897759 1.6836 0
M  V30 3404 C 309.165 2.01605 2.80089 0
M  V30 3405 C 308.278 3.29321 2.79593 0
M  V30 3406 C 307.413 3.40125 4.0803 0
M  V30 3407 C 306.452 4.61826 4.01725 0
M  V30 3408 N 305.589 4.69716 5.21834 0
M  V30 3409 H 310.429 2.73074 1.19308 0
M  V30 3410 H 307.966 1.35263 0.578131 0
M  V30 3411 H 309.924 2.11586 3.59565 0
M  V30 3412 H 308.554 1.12772 3.0246 0
M  V30 3413 H 307.606 3.28229 1.92276 0
M  V30 3414 H 308.918 4.18884 2.70809 0
M  V30 3415 H 308.072 3.49488 4.95927 0
M  V30 3416 H 306.811 2.48601 4.19582 0
M  V30 3417 H 305.816 4.52552 3.12213 0
M  V30 3418 H 307.041 5.54705 3.91764 0
M  V30 3419 H 304.987 3.81097 5.33948 0
M  V30 3420 H 304.904 5.53202 5.1527 0
M  V30 3421 H 306.172 4.83376 6.11529 0
M  V30 3422 N 310.401 -0.613514 1.45168 0
M  V30 3423 C 311.817 -0.933629 1.29443 0
M  V30 3424 C 312.017 -2.00028 0.243101 0
M  V30 3425 O 311.073 -2.49848 -0.364992 0
M  V30 3426 C 312.386 -1.38018 2.67155 0
M  V30 3427 C 313.934 -1.49471 2.75004 0
M  V30 3428 C 314.409 -1.97503 4.13227 0
M  V30 3429 N 315.9 -2.04746 4.15491 0
M  V30 3430 C 316.635 -2.43121 5.19307 0
M  V30 3431 N 316.131 -2.80506 6.33473 0
M  V30 3432 N 317.924 -2.43408 5.06664 0
M  V30 3433 H 310.075 0.0916097 2.12202 0
M  V30 3434 H 312.338 -0.0216655 0.947752 0
M  V30 3435 H 312.044 -0.670625 3.45247 0
M  V30 3436 H 311.918 -2.34784 2.95222 0
M  V30 3437 H 314.305 -2.19519 1.9722 0
M  V30 3438 H 314.386 -0.510342 2.50657 0
M  V30 3439 H 314.03 -1.28045 4.91495 0
M  V30 3440 H 313.96 -2.96843 4.34962 0
M  V30 3441 H 316.451 -1.78468 3.33103 0
M  V30 3442 H 316.764 -3.08652 7.08487 0
M  V30 3443 H 315.109 -2.78216 6.36884 0
M  V30 3444 H 318.3 -2.13604 4.16523 0
M  V30 3445 H 318.473 -2.72989 5.87691 0
M  V30 3446 N 311.879 -1.3236 -0.855495 0
M  V30 3447 C 313.127 -1.22629 -1.60644 0
M  V30 3448 C 313.448 0.212136 -1.93843 0
M  V30 3449 O 312.718 1.13666 -1.59552 0
M  V30 3450 H 311.298 -0.450882 -0.595579 0
M  V30 3451 H 313.96 -1.65871 -1.02337 0
M  V30 3452 H 313.056 -1.80832 -2.54374 0
M  V30 3453 N 313.357 1.07166 -1.15556 0
M  V30 3454 C 314.287 2.16403 -0.877046 0
M  V30 3455 C 315.268 1.69217 0.173111 0
M  V30 3456 O 316.453 1.94181 0.027084 0
M  V30 3457 C 313.583 3.45349 -0.367632 0
M  V30 3458 C 312.537 4.05995 -1.35468 0
M  V30 3459 C 311.863 5.30045 -0.704038 0
M  V30 3460 C 313.163 4.45804 -2.72132 0
M  V30 3461 H 314.857 2.39959 -1.79053 0
M  V30 3462 H 312.403 1.15325 -0.862331 0
M  V30 3463 H 314.356 4.21095 -0.160317 0
M  V30 3464 H 313.08 3.21385 0.581326 0
M  V30 3465 H 311.739 3.32296 -1.54839 0
M  V30 3466 H 311.387 5.02373 0.251128 0
M  V30 3467 H 311.087 5.71579 -1.36277 0
M  V30 3468 H 312.611 6.08495 -0.50654 0
M  V30 3469 H 314.025 5.12671 -2.56595 0
M  V30 3470 H 312.422 4.98296 -3.34397 0
M  V30 3471 H 313.492 3.57083 -3.28054 0
M  V30 3472 N 314.835 0.952656 1.25548 0
M  V30 3473 C 315.768 0.415525 2.24385 0
M  V30 3474 C 316.746 -0.502046 1.54655 0
M  V30 3475 O 317.93 -0.436875 1.83368 0
M  V30 3476 C 315.057 -0.401734 3.36309 0
M  V30 3477 C 314.103 0.455949 4.24056 0
M  V30 3478 S 314.936 1.88698 5.01152 0
M  V30 3479 C 316.092 1.07809 6.16545 0
M  V30 3480 H 316.325 1.25315 2.69599 0
M  V30 3481 H 313.858 0.756587 1.34592 0
M  V30 3482 H 315.816 -0.867329 4.01233 0
M  V30 3483 H 314.477 -1.21416 2.89684 0
M  V30 3484 H 313.67 -0.170776 5.03711 0
M  V30 3485 H 313.272 0.856675 3.64056 0
M  V30 3486 H 315.564 0.325816 6.76716 0
M  V30 3487 H 316.507 1.84849 6.83547 0
M  V30 3488 H 316.915 0.60909 5.61204 0
M  V30 3489 N 316.313 -1.40141 0.720998 0
M  V30 3490 C 317.724 -1.83678 0.334553 0
M  V30 3491 C 318.075 -1.6027 -1.13173 0
M  V30 3492 O 317.2 -1.08643 -1.87152 0
M  V30 3493 C 317.795 -3.33437 0.600437 0
M  V30 3494 C 316.354 -3.75447 0.267642 0
M  V30 3495 C 315.501 -2.63296 0.870097 0
M  V30 3496 H 318.452 -1.29331 0.919732 0
M  V30 3497 H 318.473 -3.80269 -0.132517 0
M  V30 3498 H 317.985 -3.50442 1.66768 0
M  V30 3499 H 316.086 -3.64035 -0.794329 0
M  V30 3500 H 316.199 -4.73344 0.74042 0
M  V30 3501 H 314.563 -2.52954 0.297739 0
M  V30 3502 H 315.346 -2.83112 1.94172 0
M  V30 3503 N 317.792 -0.46758 -1.50504 0
M  V30 3504 C 319.04 0.0884469 -2.01906 0
M  V30 3505 C 319.361 1.40532 -1.35188 0
M  V30 3506 O 318.631 1.89515 -0.496079 0
M  V30 3507 H 317.211 0.0356765 -0.746148 0
M  V30 3508 H 319.873 -0.6172 -1.84869 0
M  V30 3509 H 318.969 0.2425 -3.11156 0
M  V30 3510 N 319.27 1.56325 -0.20005 0
M  V30 3511 C 320.2 2.22318 0.713916 0
M  V30 3512 C 321.181 1.18788 1.21752 0
M  V30 3513 O 322.366 1.47309 1.26545 0
M  V30 3514 C 319.496 2.88639 1.93144 0
M  V30 3515 C 318.45 3.98457 1.56255 0
M  V30 3516 C 317.776 4.51967 2.85709 0
M  V30 3517 C 319.076 5.16612 0.768747 0
M  V30 3518 H 320.77 2.98952 0.163755 0
M  V30 3519 H 318.316 1.43792 0.0773219 0
M  V30 3520 H 320.269 3.33491 2.57608 0
M  V30 3521 H 318.993 2.09419 2.50621 0
M  V30 3522 H 317.652 3.54305 0.941471 0
M  V30 3523 H 317.3 3.69503 3.41287 0
M  V30 3524 H 317 5.26071 2.6177 0
M  V30 3525 H 318.524 4.99523 3.51154 0
M  V30 3526 H 319.938 5.57977 1.3166 0
M  V30 3527 H 318.335 5.96812 0.627286 0
M  V30 3528 H 319.405 4.84358 -0.229168 0
M  V30 3529 N 320.748 -0.0735177 1.57428 0
M  V30 3530 C 321.976 -0.785969 1.9139 0
M  V30 3531 C 322.391 -1.71207 0.795847 0
M  V30 3532 O 321.748 -1.81033 -0.230915 0
M  V30 3533 C 321.799 -1.58107 3.25091 0
M  V30 3534 O 321.52 -0.6922 4.32597 0
M  V30 3535 C 323.021 -2.39467 3.73055 0
M  V30 3536 H 320.241 -0.223558 0.632663 0
M  V30 3537 H 322.785 -0.044302 2.04452 0
M  V30 3538 H 320.94 -2.27503 3.13562 0
M  V30 3539 H 321.354 -1.24504 5.09508 0
M  V30 3540 H 322.828 -2.90716 4.69242 0
M  V30 3541 H 323.305 -3.18913 3.01979 0
M  V30 3542 H 323.911 -1.7523 3.87523 0
M  V30 3543 N 322.226 -1.5378 -0.344866 0
M  V30 3544 C 323.473 -1.70963 -1.08526 0
M  V30 3545 C 323.801 -0.472126 -1.88683 0
M  V30 3546 O 323.056 0.546116 -1.87926 0
M  V30 3547 C 323.355 -2.92407 -2.05506 0
M  V30 3548 C 323.021 -4.28066 -1.41671 0
M  V30 3549 C 321.683 -4.64951 -1.2399 0
M  V30 3550 C 324.035 -5.12344 -0.956726 0
M  V30 3551 C 321.363 -5.83733 -0.589277 0
M  V30 3552 C 323.715 -6.3179 -0.320015 0
M  V30 3553 C 322.379 -6.67372 -0.130881 0
M  V30 3554 H 321.649 -0.625598 -0.397124 0
M  V30 3555 H 324.296 -1.87995 -0.36469 0
M  V30 3556 H 322.601 -2.69973 -2.8394 0
M  V30 3557 H 324.298 -3.02895 -2.62784 0
M  V30 3558 H 320.888 -3.99034 -1.56429 0
M  V30 3559 H 325.072 -4.8438 -1.08118 0
M  V30 3560 H 320.328 -6.09877 -0.431344 0
M  V30 3561 H 324.502 -6.96386 0.0445072 0
M  V30 3562 H 322.129 -7.59273 0.375318 0
M  V30 3563 N 323.704 0.605807 -1.45491 0
M  V30 3564 C 324.929 1.39625 -1.53361 0
M  V30 3565 C 325.354 1.87351 -0.167645 0
M  V30 3566 O 324.712 1.60243 0.848051 0
M  V30 3567 C 324.76 2.57559 -2.5238 0
M  V30 3568 O 323.864 3.58248 -2.04285 0
M  V30 3569 H 323.205 0.416771 -0.516912 0
M  V30 3570 H 325.735 0.737103 -1.90861 0
M  V30 3571 H 325.745 3.0478 -2.71244 0
M  V30 3572 H 324.42 2.22171 -3.51586 0
M  V30 3573 H 322.997 3.17664 -1.95305 0
M  V30 3574 N 325.182 1.32811 0.848464 0
M  V30 3575 C 326.13 1.22231 1.97895 0
M  V30 3576 C 327.124 0.125749 1.68933 0
M  V30 3577 O 328.33 0.289083 1.77663 0
M  V30 3578 H 324.705 0.379058 0.649476 0
M  V30 3579 H 326.676 2.17828 2.03945 0
M  V30 3580 C 325.425 0.968572 3.33937 0
M  V30 3581 H 324.748 1.80458 3.56756 0
M  V30 3582 H 326.188 0.934808 4.13567 0
M  V30 3583 C 324.647 -0.328628 3.35293 0
M  V30 3584 O 325.177 -1.33848 3.78745 0
M  V30 3585 N 323.383 -0.352788 2.88451 0
M  V30 3586 H 322.93 0.469541 2.53285 0
M  V30 3587 H 322.888 -1.22057 2.89741 0
M  V30 3588 N 326.66 -1.06551 1.16123 0
M  V30 3589 C 327.57 -2.17484 0.879662 0
M  V30 3590 C 328.586 -1.73377 -0.147104 0
M  V30 3591 O 329.762 -2.01379 0.0289128 0
M  V30 3592 C 326.827 -3.44591 0.381829 0
M  V30 3593 C 325.888 -4.0322 1.4735 0
M  V30 3594 C 325.121 -5.24261 0.999324 0
M  V30 3595 O 325.344 -5.70198 -0.151957 0
M  V30 3596 O 324.278 -5.74775 1.78653 0
M  V30 3597 H 328.104 -2.44075 1.80724 0
M  V30 3598 H 325.689 -1.16042 0.940992 0
M  V30 3599 H 327.571 -4.21254 0.111053 0
M  V30 3600 H 326.246 -3.19532 -0.51777 0
M  V30 3601 H 325.153 -3.2806 1.79798 0
M  V30 3602 H 326.486 -4.32568 2.34831 0
M  V30 3603 N 328.138 -0.959301 -1.25041 0
M  V30 3604 C 329.068 -0.501388 -2.28053 0
M  V30 3605 C 330.049 0.454673 -1.63911 0
M  V30 3606 O 331.234 0.352618 -1.90972 0
M  V30 3607 C 328.364 0.217224 -3.4662 0
M  V30 3608 C 327.318 -0.654034 -4.22973 0
M  V30 3609 C 326.644 0.195589 -5.34342 0
M  V30 3610 C 327.944 -1.93447 -4.85155 0
M  V30 3611 H 329.638 -1.36238 -2.66608 0
M  V30 3612 H 327.184 -0.656534 -1.28163 0
M  V30 3613 H 329.137 0.548732 -4.17812 0
M  V30 3614 H 327.861 1.1125 -3.07068 0
M  V30 3615 H 326.52 -0.968693 -3.5357 0
M  V30 3616 H 326.168 1.09076 -4.91031 0
M  V30 3617 H 325.868 -0.384091 -5.86343 0
M  V30 3618 H 327.392 0.521958 -6.08365 0
M  V30 3619 H 328.806 -1.66908 -5.48466 0
M  V30 3620 H 327.203 -2.46018 -5.47353 0
M  V30 3621 H 328.273 -2.63466 -4.07079 0
M  V30 3622 N 329.616 1.39756 -0.72842 0
M  V30 3623 C 330.865 1.99879 -0.270407 0
M  V30 3624 C 331.178 1.58449 1.14688 0
M  V30 3625 O 332.384 2.11362 1.70407 0
M  V30 3626 C 330.84 3.57292 -0.43252 0
M  V30 3627 C 330.448 4.07688 -1.85727 0
M  V30 3628 C 332.192 4.24485 -0.0359507 0
M  V30 3629 C 330.099 5.5765 -1.96928 0
M  V30 3630 H 329.029 0.747689 -0.0973472 0
M  V30 3631 H 331.68 1.59837 -0.901355 0
M  V30 3632 H 330.062 3.95097 0.267219 0
M  V30 3633 H 331.236 3.81231 -2.58843 0
M  V30 3634 H 329.551 3.53135 -2.20646 0
M  V30 3635 H 332.148 5.34609 -0.0987484 0
M  V30 3636 H 332.491 4.03915 1.00787 0
M  V30 3637 H 333.024 3.9183 -0.686604 0
M  V30 3638 H 329.763 5.8309 -2.99476 0
M  V30 3639 H 329.283 5.8593 -1.28241 0
M  V30 3640 H 330.962 6.22957 -1.74737 0
M  V30 3641 N 331.094 0.475555 1.50254 0
M  V30 3642 C 332.319 -0.0777042 2.07254 0
M  V30 3643 C 332.744 -1.3235 1.3366 0
M  V30 3644 O 332.102 -1.77152 0.385597 0
M  V30 3645 C 332.15 -0.340169 3.58992 0
M  V30 3646 O 331.254 -1.41982 3.87188 0
M  V30 3647 H 330.595 0.0149556 0.663832 0
M  V30 3648 H 333.125 0.667878 1.93392 0
M  V30 3649 H 333.135 -0.579332 4.03866 0
M  V30 3650 H 331.81 0.570167 4.11973 0
M  V30 3651 H 330.387 -1.16762 3.54148 0
M  V30 3652 N 332.573 -1.56217 0.208337 0
M  V30 3653 C 333.989 -1.58919 -0.14729 0
M  V30 3654 C 334.189 -1.22486 -1.59998 0
M  V30 3655 O 333.245 -0.953849 -2.3379 0
M  V30 3656 C 334.558 -3.00236 0.167048 0
M  V30 3657 C 336.106 -3.12813 0.108219 0
M  V30 3658 C 336.581 -4.56284 0.396049 0
M  V30 3659 N 338.072 -4.61912 0.345142 0
M  V30 3660 C 338.807 -5.70837 0.541523 0
M  V30 3661 N 338.303 -6.88178 0.798968 0
M  V30 3662 N 340.096 -5.60091 0.474867 0
M  V30 3663 H 332.247 -1.78177 1.15614 0
M  V30 3664 H 334.51 -0.827555 0.462446 0
M  V30 3665 H 334.216 -3.31499 1.1748 0
M  V30 3666 H 334.09 -3.7354 -0.524184 0
M  V30 3667 H 336.477 -2.81354 -0.890157 0
M  V30 3668 H 336.558 -2.41866 0.832729 0
M  V30 3669 H 336.202 -4.88458 1.3918 0
M  V30 3670 H 336.132 -5.25439 -0.349502 0
M  V30 3671 H 338.623 -3.77589 0.153316 0
M  V30 3672 H 338.936 -7.67095 0.93727 0
M  V30 3673 H 337.281 -6.89953 0.836013 0
M  V30 3674 H 340.472 -4.67297 0.274064 0
M  V30 3675 H 340.645 -6.44917 0.631326 0
M  V30 3676 N 334.051 0.0651679 -1.57465 0
M  V30 3677 C 335.328 0.79644 -1.78651 0
M  V30 3678 C 335.708 1.95454 -0.797566 0
M  V30 3679 O 335.056 2.27882 0.167946 0
M  V30 3680 C 335.266 1.26322 -3.25337 0
M  V30 3681 C 336.614 1.6939 -3.89348 0
M  V30 3682 O 337.638 1.35872 -3.29268 0
M  V30 3683 O 336.497 2.31471 -4.95059 0
M  V30 3684 H 333.591 0.382157 -0.733407 0
M  V30 3685 H 336.137 0.0447311 -1.69641 0
M  V30 3686 H 334.909 0.434859 -3.88876 0
M  V30 3687 H 334.532 2.07604 -3.39096 0
M  V30 3688 N 335.529 1.53961 0.336706 0
M  V30 3689 C 336.439 1.85432 1.43708 0
M  V30 3690 C 337.455 0.745053 1.57242 0
M  V30 3691 O 338.631 1.03804 1.72588 0
M  V30 3692 C 335.696 2.06349 2.78605 0
M  V30 3693 C 334.757 3.30191 2.74358 0
M  V30 3694 C 333.99 3.50101 4.02822 0
M  V30 3695 O 334.213 2.7371 5.00439 0
M  V30 3696 O 333.147 4.43547 4.06878 0
M  V30 3697 H 336.973 2.78975 1.20028 0
M  V30 3698 H 334.558 1.39701 0.52952 0
M  V30 3699 H 336.44 2.21513 3.58483 0
M  V30 3700 H 335.115 1.15995 3.02203 0
M  V30 3701 H 334.022 3.20425 1.93078 0
M  V30 3702 H 335.355 4.2056 2.55715 0
M  V30 3703 N 337.007 -0.598083 1.45811 0
M  V30 3704 C 338.255 -1.35413 1.50026 0
M  V30 3705 C 338.576 -1.94444 0.147177 0
M  V30 3706 O 337.846 -1.77701 -0.824571 0
M  V30 3707 H 336.426 -0.502727 0.552517 0
M  V30 3708 H 339.088 -0.701606 1.81834 0
M  V30 3709 H 338.184 -2.16871 2.2444 0
M  V30 3710 N 338.485 -1.33259 -0.841409 0
M  V30 3711 C 339.415 -1.25926 -1.96634 0
M  V30 3712 C 340.396 -0.140349 -1.6952 0
M  V30 3713 O 341.581 -0.329707 -1.91381 0
M  V30 3714 C 338.711 -0.99512 -3.32738 0
M  V30 3715 C 337.665 -2.0767 -3.74242 0
M  V30 3716 C 336.991 -1.66474 -5.08125 0
M  V30 3717 C 338.291 -3.49318 -3.88297 0
M  V30 3718 H 339.985 -2.20046 -2.03027 0
M  V30 3719 H 337.531 -1.05931 -0.975425 0
M  V30 3720 H 339.484 -0.930323 -4.11002 0
M  V30 3721 H 338.208 -0.0183004 -3.26595 0
M  V30 3722 H 336.867 -2.13187 -2.98239 0
M  V30 3723 H 336.515 -0.675012 -4.9845 0
M  V30 3724 H 336.215 -2.3885 -5.36865 0
M  V30 3725 H 337.739 -1.61455 -5.88867 0
M  V30 3726 H 339.153 -3.46316 -4.56879 0
M  V30 3727 H 337.55 -4.20158 -4.28471 0
M  V30 3728 H 338.62 -3.8801 -2.9082 0
M  V30 3729 N 339.963 1.05934 -1.16686 0
M  V30 3730 C 340.913 2.11764 -0.844978 0
M  V30 3731 C 341.897 1.59922 0.177178 0
M  V30 3732 O 343.089 1.76983 -0.0241768 0
M  V30 3733 C 340.218 3.41493 -0.351812 0
M  V30 3734 C 339.304 4.00152 -1.40496 0
M  V30 3735 N 339.695 4.32874 -2.61636 0
M  V30 3736 C 337.993 4.278 -1.26106 0
M  V30 3737 C 338.694 4.79552 -3.29249 0
M  V30 3738 N 337.67 4.79211 -2.56628 0
M  V30 3739 H 341.472 2.34916 -1.76612 0
M  V30 3740 H 338.986 1.23511 -1.05446 0
M  V30 3741 H 340.983 4.16773 -0.102796 0
M  V30 3742 H 339.643 3.19778 0.56322 0
M  V30 3743 H 340.654 4.23109 -2.98663 0
M  V30 3744 H 337.331 4.15511 -0.407081 0
M  V30 3745 H 338.721 5.14045 -4.32675 0
M  V30 3746 N 341.441 0.965919 1.2453 0
M  V30 3747 C 342.681 0.634656 1.94297 0
M  V30 3748 C 343.045 -0.814822 1.73852 0
M  V30 3749 O 344.246 -1.25622 2.3764 0
M  V30 3750 C 342.517 0.99702 3.43212 0
M  V30 3751 S 344.076 0.780038 4.31811 0
M  V30 3752 H 340.894 0.232893 0.671775 0
M  V30 3753 H 343.496 1.24249 1.50938 0
M  V30 3754 H 342.2 2.04886 3.55598 0
M  V30 3755 H 341.731 0.379888 3.91562 0
M  V30 3756 H 343.746 -0.343512 4.9501 0
M  V30 3757 N 342.919 -1.39368 0.735821 0
M  V30 3758 C 344.196 -1.94465 0.210395 0
M  V30 3759 C 344.576 -1.67254 -1.28799 0
M  V30 3760 O 343.924 -1.00123 -2.05396 0
M  V30 3761 C 344.134 -3.4472 0.544897 0
M  V30 3762 C 345.482 -4.21708 0.494689 0
M  V30 3763 O 346.506 -3.52922 0.482136 0
M  V30 3764 O 345.365 -5.44299 0.489947 0
M  V30 3765 H 342.459 -0.826096 0.0386666 0
M  V30 3766 H 345.005 -1.48863 0.814735 0
M  V30 3767 H 343.777 -3.57963 1.58045 0
M  V30 3768 H 343.4 -3.97502 -0.08837 0
M  V30 3769 N 344.397 -0.483516 -1.5 0
M  V30 3770 C 345.644 0.0671597 -2.02389 0
M  V30 3771 C 345.972 1.38597 -1.36459 0
M  V30 3772 O 345.227 1.89634 -0.483458 0
M  V30 3773 C 345.526 0.286226 -3.56252 0
M  V30 3774 C 345.192 -0.952416 -4.40726 0
M  V30 3775 C 343.854 -1.29199 -4.63531 0
M  V30 3776 C 346.206 -1.77655 -4.89988 0
M  V30 3777 C 343.534 -2.45553 -5.32842 0
M  V30 3778 C 345.886 -2.93147 -5.60578 0
M  V30 3779 C 344.55 -3.27505 -5.81633 0
M  V30 3780 H 343.82 0.0245755 -0.740592 0
M  V30 3781 H 346.467 -0.640124 -1.80485 0
M  V30 3782 H 344.772 1.07587 -3.76739 0
M  V30 3783 H 346.469 0.726473 -3.94365 0
M  V30 3784 H 343.059 -0.677881 -4.23205 0
M  V30 3785 H 347.243 -1.52737 -4.72213 0
M  V30 3786 H 342.499 -2.72431 -5.47349 0
M  V30 3787 H 346.673 -3.57344 -5.97727 0
M  V30 3788 H 344.3 -4.1777 -6.35116 0
M  V30 3789 N 345.875 1.56104 -0.216619 0
M  V30 3790 C 346.838 2.18819 0.681962 0
M  V30 3791 C 347.838 1.14866 1.12528 0
M  V30 3792 O 349.028 1.40128 1.03488 0
M  V30 3793 C 346.16 2.80756 1.93362 0
M  V30 3794 H 347.353 2.99595 0.135254 0
M  V30 3795 H 344.906 1.56265 0.0330003 0
M  V30 3796 H 345.641 2.03837 2.52232 0
M  V30 3797 H 345.426 3.56876 1.62426 0
M  V30 3798 H 346.916 3.28844 2.57393 0
M  V30 3799 N 347.353 -0.0568162 1.57498 0
M  V30 3800 C 348.593 -0.758273 1.89815 0
M  V30 3801 C 348.957 -1.73978 0.812132 0
M  V30 3802 O 350.158 -2.48744 1.01881 0
M  V30 3803 C 348.429 -1.43465 3.27342 0
M  V30 3804 S 349.988 -2.1691 3.81439 0
M  V30 3805 H 346.806 -0.251836 0.664906 0
M  V30 3806 H 349.408 -0.0137997 1.95495 0
M  V30 3807 H 348.112 -0.706693 4.0427 0
M  V30 3808 H 347.643 -2.21825 3.24896 0
M  V30 3809 H 349.658 -3.43658 3.5793 0
M  V30 3810 N 348.832 -1.54138 -0.328536 0
M  V30 3811 C 349.762 -1.86167 -1.40939 0
M  V30 3812 C 350.743 -0.718044 -1.54202 0
M  V30 3813 O 351.928 -0.971328 -1.68163 0
M  V30 3814 C 349.058 -2.08461 -2.77779 0
M  V30 3815 C 348.012 -3.24299 -2.7931 0
M  V30 3816 C 347.338 -3.31955 -4.19178 0
M  V30 3817 C 348.638 -4.62065 -2.43502 0
M  V30 3818 H 350.332 -2.76689 -1.14383 0
M  V30 3819 H 347.878 -1.33132 -0.548806 0
M  V30 3820 H 349.831 -2.29453 -3.53454 0
M  V30 3821 H 348.555 -1.14684 -3.05802 0
M  V30 3822 H 347.214 -3.03187 -2.0609 0
M  V30 3823 H 346.862 -2.35745 -4.44335 0
M  V30 3824 H 346.562 -4.09805 -4.2111 0
M  V30 3825 H 348.086 -3.55175 -4.96672 0
M  V30 3826 H 349.5 -4.8297 -3.08889 0
M  V30 3827 H 347.897 -5.42429 -2.56693 0
M  V30 3828 H 348.967 -4.64652 -1.38659 0
M  V30 3829 N 350.31 0.590341 -1.46126 0
M  V30 3830 C 351.243 1.71434 -1.50617 0
M  V30 3831 C 352.221 1.58543 -0.360948 0
M  V30 3832 O 353.405 1.79865 -0.563985 0
M  V30 3833 C 350.532 3.09422 -1.37753 0
M  V30 3834 C 349.578 3.40854 -2.5636 0
M  V30 3835 S 350.411 3.33773 -4.18755 0
M  V30 3836 C 351.567 4.74312 -4.08386 0
M  V30 3837 H 351.8 1.67364 -2.45717 0
M  V30 3838 H 349.333 0.76845 -1.33919 0
M  V30 3839 H 351.291 3.8903 -1.31018 0
M  V30 3840 H 349.952 3.10989 -0.440949 0
M  V30 3841 H 349.145 4.41368 -2.43332 0
M  V30 3842 H 348.747 2.68798 -2.60046 0
M  V30 3843 H 351.039 5.64522 -3.74595 0
M  V30 3844 H 351.982 4.92397 -5.08872 0
M  V30 3845 H 352.39 4.50803 -3.3976 0
M  V30 3846 N 351.788 1.33704 0.83433 0
M  V30 3847 C 353.035 1.25417 1.58987 0
M  V30 3848 C 353.363 -0.178869 1.93676 0
M  V30 3849 O 352.618 -1.13723 1.59265 0
M  V30 3850 C 352.917 2.07926 2.90692 0
M  V30 3851 C 352.583 3.57066 2.75345 0
M  V30 3852 C 351.245 3.97724 2.70867 0
M  V30 3853 C 353.597 4.51817 2.59828 0
M  V30 3854 C 350.925 5.31344 2.48778 0
M  V30 3855 C 353.277 5.85604 2.39272 0
M  V30 3856 C 351.941 6.25439 2.33199 0
M  V30 3857 H 351.211 0.458934 0.581774 0
M  V30 3858 H 353.858 1.65335 0.966261 0
M  V30 3859 H 352.163 1.608 3.57282 0
M  V30 3860 H 353.86 1.98868 3.48213 0
M  V30 3861 H 350.45 3.24785 2.79665 0
M  V30 3862 H 354.634 4.21311 2.62319 0
M  V30 3863 H 349.89 5.61241 2.42526 0
M  V30 3864 H 354.064 6.58623 2.2625 0
M  V30 3865 H 351.691 7.28914 2.15843 0
M  V30 3866 N 353.266 -1.05314 1.17247 0
M  V30 3867 C 354.198 -2.13023 0.845812 0
M  V30 3868 C 355.211 -1.62096 -0.151246 0
M  V30 3869 O 356.4 -1.78343 0.0748818 0
M  V30 3870 C 353.5 -3.38047 0.240292 0
M  V30 3871 C 352.673 -4.18255 1.27991 0
M  V30 3872 C 351.732 -5.21625 0.692375 0
M  V30 3873 O 350.758 -5.52619 1.36385 0
M  V30 3874 N 351.96 -5.78201 -0.516178 0
M  V30 3875 H 354.725 -2.41642 1.77283 0
M  V30 3876 H 352.286 -1.21401 1.07115 0
M  V30 3877 H 354.278 -4.04359 -0.16603 0
M  V30 3878 H 352.848 -3.06972 -0.590487 0
M  V30 3879 H 352.068 -3.47451 1.86203 0
M  V30 3880 H 353.356 -4.68643 1.98119 0
M  V30 3881 H 352.754 -5.55301 -1.07969 0
M  V30 3882 H 351.311 -6.4604 -0.86458 0
M  V30 3883 N 354.744 -0.972509 -1.24016 0
M  V30 3884 C 355.974 -0.653853 -1.9598 0
M  V30 3885 C 356.382 0.781801 -1.72292 0
M  V30 3886 O 355.725 1.53677 -1.00644 0
M  V30 3887 C 355.787 -0.854608 -3.49194 0
M  V30 3888 C 355.451 -2.27082 -3.96589 0
M  V30 3889 C 356.448 -3.24892 -4.05883 0
M  V30 3890 C 354.133 -2.5998 -4.29786 0
M  V30 3891 C 356.127 -4.53684 -4.47716 0
M  V30 3892 C 353.814 -3.88997 -4.71301 0
M  V30 3893 C 354.812 -4.85661 -4.80232 0
M  V30 3894 O 354.5 -6.12376 -5.20818 0
M  V30 3895 H 354.232 -0.242572 -0.630979 0
M  V30 3896 H 356.786 -1.30431 -1.58673 0
M  V30 3897 H 355.016 -0.146985 -3.86421 0
M  V30 3898 H 356.705 -0.534311 -4.02368 0
M  V30 3899 H 357.471 -3.00805 -3.80449 0
M  V30 3900 H 353.35 -1.85457 -4.22051 0
M  V30 3901 H 356.894 -5.29135 -4.54601 0
M  V30 3902 H 352.791 -4.12882 -4.96184 0
M  V30 3903 H 353.559 -6.16013 -5.38953 0
M  V30 3904 N 356.222 1.38976 -0.743202 0
M  V30 3905 C 357.152 2.33171 -0.123873 0
M  V30 3906 C 358.133 1.54336 0.71516 0
M  V30 3907 O 359.318 1.82696 0.658467 0
M  V30 3908 C 356.448 3.38474 0.777978 0
M  V30 3909 C 355.402 4.27979 0.0424758 0
M  V30 3910 C 354.728 5.2405 1.06189 0
M  V30 3911 C 356.028 5.10155 -1.1198 0
M  V30 3912 H 357.722 2.85213 -0.910709 0
M  V30 3913 H 355.268 1.37133 -0.439388 0
M  V30 3914 H 357.221 4.03328 1.22084 0
M  V30 3915 H 355.945 2.84891 1.59702 0
M  V30 3916 H 354.604 3.64616 -0.380853 0
M  V30 3917 H 354.252 4.66758 1.87472 0
M  V30 3918 H 353.952 5.84785 0.574485 0
M  V30 3919 H 355.476 5.9178 1.50428 0
M  V30 3920 H 356.89 5.68307 -0.75499 0
M  V30 3921 H 355.287 5.80073 -1.53738 0
M  V30 3922 H 356.357 4.44504 -1.93764 0
M  V30 3923 N 357.7 0.491464 1.49741 0
M  V30 3924 C 358.946 -0.0565092 2.02721 0
M  V30 3925 C 359.279 -1.37522 1.37118 0
M  V30 3926 O 358.554 -1.87866 0.503645 0
M  V30 3927 C 358.837 -0.219051 3.59433 0
M  V30 3928 C 358.69 1.12211 4.35579 0
M  V30 3929 C 360.009 -0.964157 4.29409 0
M  V30 3930 H 357.128 -0.0190627 0.736753 0
M  V30 3931 H 359.77 0.641021 1.7886 0
M  V30 3932 H 357.92 -0.813165 3.79895 0
M  V30 3933 H 359.592 1.75437 4.26637 0
M  V30 3934 H 357.835 1.71377 3.98513 0
M  V30 3935 H 358.506 0.961794 5.43556 0
M  V30 3936 H 360.982 -0.460378 4.13545 0
M  V30 3937 H 359.858 -1.04671 5.38828 0
M  V30 3938 H 360.119 -2.00563 3.93988 0
M  V30 3939 N 359.178 -1.55987 0.224894 0
M  V30 3940 C 360.126 -2.21808 -0.700283 0
M  V30 3941 C 361.12 -1.19854 -1.19714 0
M  V30 3942 O 362.326 -1.37925 -1.15658 0
M  V30 3943 H 358.701 -0.711226 -0.244258 0
M  V30 3944 H 360.672 -2.98152 -0.121749 0
M  V30 3945 C 359.421 -2.91444 -1.8962 0
M  V30 3946 H 358.744 -3.69655 -1.52299 0
M  V30 3947 H 360.184 -3.40894 -2.52125 0
M  V30 3948 C 358.643 -1.94098 -2.75368 0
M  V30 3949 O 359.173 -1.46004 -3.74227 0
M  V30 3950 N 357.379 -1.61675 -2.41474 0
M  V30 3951 H 356.926 -2.00979 -1.61137 0
M  V30 3952 H 356.884 -0.968036 -2.99126 0
M  V30 3953 N 360.656 0.0484629 -1.57525 0
M  V30 3954 C 361.603 1.05504 -2.05275 0
M  V30 3955 C 362.573 1.37084 -0.937927 0
M  V30 3956 O 363.758 1.47754 -1.2072 0
M  V30 3957 C 360.898 2.35676 -2.52093 0
M  V30 3958 C 360.011 2.10423 -3.77288 0
M  V30 3959 C 359.146 3.34327 -4.12794 0
M  V30 3960 C 358.185 3.04542 -5.30962 0
M  V30 3961 N 357.322 4.20841 -5.61994 0
M  V30 3962 H 362.162 0.640885 -2.91027 0
M  V30 3963 H 359.699 0.304854 -1.43906 0
M  V30 3964 H 361.657 3.11709 -2.77297 0
M  V30 3965 H 360.287 2.7485 -1.69285 0
M  V30 3966 H 359.339 1.24976 -3.59284 0
M  V30 3967 H 360.651 1.84438 -4.63448 0
M  V30 3968 H 359.805 4.1874 -4.39024 0
M  V30 3969 H 358.544 3.63408 -3.25247 0
M  V30 3970 H 357.549 2.18528 -5.04505 0
M  V30 3971 H 358.774 2.76758 -6.20146 0
M  V30 3972 H 356.72 4.4991 -4.77406 0
M  V30 3973 H 356.637 3.98212 -6.42622 0
M  V30 3974 H 357.905 5.06184 -5.92789 0
M  V30 3975 N 362.134 1.5431 0.320358 0
M  V30 3976 C 363.545 1.63872 0.894594 0
M  V30 3977 C 363.896 0.534847 1.88769 0
M  V30 3978 O 363.021 -0.331732 2.13842 0
M  V30 3979 C 363.616 2.97049 1.62934 0
M  V30 3980 C 362.175 3.08796 2.15226 0
M  V30 3981 C 361.322 2.59456 0.978671 0
M  V30 3982 H 364.273 1.58398 0.0978544 0
M  V30 3983 H 364.294 2.87388 2.49376 0
M  V30 3984 H 363.806 3.7737 0.906302 0
M  V30 3985 H 361.907 2.33156 2.90636 0
M  V30 3986 H 362.02 4.14649 2.40006 0
M  V30 3987 H 360.384 2.1543 1.35875 0
M  V30 3988 H 361.167 3.42237 0.269895 0
M  V30 3989 N 363.613 -0.582584 1.46437 0
M  V30 3990 C 364.838 -1.37168 1.55563 0
M  V30 3991 C 365.263 -1.87061 0.19743 0
M  V30 3992 O 364.621 -1.61572 -0.822451 0
M  V30 3993 C 364.669 -2.53511 2.56446 0
M  V30 3994 O 363.773 -3.54953 2.09958 0
M  V30 3995 H 363.114 -0.408494 0.523477 0
M  V30 3996 H 365.644 -0.706646 1.9201 0
M  V30 3997 H 365.654 -3.00426 2.76058 0
M  V30 3998 H 364.329 -2.16549 3.55076 0
M  V30 3999 H 362.906 -3.14516 2.00334 0
M  V30 4000 N 365.091 -1.34144 -0.827227 0
M  V30 4001 C 366.001 -1.27428 -1.96975 0
M  V30 4002 C 367.017 -0.182728 -1.73038 0
M  V30 4003 O 368.193 -0.408426 -1.97215 0
M  V30 4004 C 365.258 -1.02526 -3.31194 0
M  V30 4005 C 364.319 -2.20796 -3.68168 0
M  V30 4006 C 363.552 -1.97073 -4.95982 0
M  V30 4007 O 363.775 -0.926822 -5.6282 0
M  V30 4008 O 362.709 -2.83912 -5.30733 0
M  V30 4009 H 366.535 -2.23537 -2.05584 0
M  V30 4010 H 364.12 -1.14307 -0.961989 0
M  V30 4011 H 366.002 -0.904026 -4.11589 0
M  V30 4012 H 364.677 -0.0945389 -3.23562 0
M  V30 4013 H 363.584 -2.38477 -2.88235 0
M  V30 4014 H 364.917 -3.12243 -3.8048 0
M  V30 4015 N 366.569 1.04691 -1.17803 0
M  V30 4016 C 367.479 2.16057 -0.914151 0
M  V30 4017 C 368.495 1.73589 0.119503 0
M  V30 4018 O 369.671 2.01308 -0.0609468 0
M  V30 4019 C 366.736 3.4394 -0.436603 0
M  V30 4020 C 365.797 4.00825 -1.53746 0
M  V30 4021 C 365.03 5.22604 -1.0826 0
M  V30 4022 O 365.253 5.70367 0.0612244 0
M  V30 4023 O 364.187 5.7186 -1.87775 0
M  V30 4024 H 368.013 2.41169 -1.84584 0
M  V30 4025 H 365.598 1.1453 -0.959334 0
M  V30 4026 H 367.48 4.21024 -0.178057 0
M  V30 4027 H 366.155 3.20316 0.466869 0
M  V30 4028 H 365.062 3.25158 -1.84995 0
M  V30 4029 H 366.395 4.28778 -2.41683 0
M  V30 4030 N 368.047 0.979072 1.23499 0
M  V30 4031 C 369.463 0.687475 1.44034 0
M  V30 4032 C 369.663 -0.746801 1.8715 0
M  V30 4033 O 368.719 -1.51939 2.0167 0
M  V30 4034 C 370.032 1.68127 2.49307 0
M  V30 4035 C 371.58 1.69516 2.63122 0
M  V30 4036 C 372.055 2.67723 3.71603 0
M  V30 4037 N 373.546 2.66233 3.79044 0
M  V30 4038 C 374.281 3.38891 4.62537 0
M  V30 4039 N 373.777 4.21103 5.50131 0
M  V30 4040 N 375.57 3.27661 4.56721 0
M  V30 4041 H 367.721 1.90559 0.938135 0
M  V30 4042 H 369.984 0.821051 0.473897 0
M  V30 4043 H 369.69 2.70693 2.2454 0
M  V30 4044 H 369.564 1.46306 3.4767 0
M  V30 4045 H 371.951 0.676561 2.8724 0
M  V30 4046 H 372.032 1.95404 1.65079 0
M  V30 4047 H 371.676 3.69724 3.48233 0
M  V30 4048 H 371.606 2.39111 4.69184 0
M  V30 4049 H 374.097 2.06568 3.16446 0
M  V30 4050 H 374.41 4.73403 6.10827 0
M  V30 4051 H 372.755 4.25195 5.49759 0
M  V30 4052 H 375.946 2.62887 3.87309 0
M  V30 4053 H 376.119 3.84547 5.21562 0
M  V30 4054 N 369.525 -1.3858 0.750561 0
M  V30 4055 C 370.771 -2.00481 0.305825 0
M  V30 4056 C 371.104 -1.5944 -1.10872 0
M  V30 4057 O 370.379 -0.83052 -1.75877 0
M  V30 4058 C 370.662 -3.5758 0.425287 0
M  V30 4059 C 370.515 -4.08594 1.88072 0
M  V30 4060 C 371.834 -4.39719 -0.183122 0
M  V30 4061 H 368.953 -0.728348 0.112598 0
M  V30 4062 H 371.595 -1.64566 0.949638 0
M  V30 4063 H 369.745 -3.88306 -0.122828 0
M  V30 4064 H 371.417 -3.88523 2.48691 0
M  V30 4065 H 369.66 -3.61574 2.39681 0
M  V30 4066 H 370.331 -5.177 1.91548 0
M  V30 4067 H 372.807 -4.15128 0.284303 0
M  V30 4068 H 371.683 -5.48856 -0.0692757 0
M  V30 4069 H 371.944 -4.23434 -1.27106 0
M  V30 4070 N 371.003 -0.499398 -1.49478 0
M  V30 4071 C 372.419 -0.155261 -1.58843 0
M  V30 4072 C 372.619 1.34008 -1.50479 0
M  V30 4073 O 371.675 2.11589 -1.37791 0
M  V30 4074 C 372.988 -0.730636 -2.91689 0
M  V30 4075 C 374.536 -0.696599 -3.0515 0
M  V30 4076 C 375.011 -1.25001 -4.40612 0
M  V30 4077 N 376.502 -1.21064 -4.47099 0
M  V30 4078 C 377.237 -1.60905 -5.50361 0
M  V30 4079 N 376.733 -2.08331 -6.60735 0
M  V30 4080 N 378.526 -1.52331 -5.41065 0
M  V30 4081 H 370.677 -1.47162 -1.53158 0
M  V30 4082 H 372.94 -0.610309 -0.725415 0
M  V30 4083 H 372.646 -1.77928 -3.03372 0
M  V30 4084 H 372.52 -0.190161 -3.7672 0
M  V30 4085 H 374.907 0.343204 -2.93097 0
M  V30 4086 H 374.988 -1.2742 -2.21806 0
M  V30 4087 H 374.632 -2.28859 -4.53416 0
M  V30 4088 H 374.562 -0.64836 -5.22593 0
M  V30 4089 H 377.053 -0.863128 -3.67911 0
M  V30 4090 H 377.366 -2.36805 -7.35624 0
M  V30 4091 H 375.711 -2.12304 -6.6178 0
M  V30 4092 H 378.902 -1.151 -4.53729 0
M  V30 4093 H 379.075 -1.83704 -6.21415 0
M  V30 4094 N 372.481 1.55866 -0.233164 0
M  V30 4095 C 373.391 2.24431 0.683217 0
M  V30 4096 C 374.407 1.2558 1.2044 0
M  V30 4097 O 375.583 1.58422 1.24356 0
M  V30 4098 C 372.648 2.91979 1.86947 0
M  V30 4099 C 371.709 4.06204 1.38912 0
M  V30 4100 C 370.942 4.70522 2.51883 0
M  V30 4101 O 371.165 4.33865 3.70293 0
M  V30 4102 O 370.099 5.59296 2.22423 0
M  V30 4103 H 373.925 3.03426 0.129059 0
M  V30 4104 H 371.51 1.494 -0.0022283 0
M  V30 4105 H 373.392 3.34573 2.56201 0
M  V30 4106 H 372.067 2.15935 2.41151 0
M  V30 4107 H 370.974 3.68155 0.664259 0
M  V30 4108 H 372.307 4.84025 0.893328 0
M  V30 4109 N 373.959 -0.0401083 1.57549 0
M  V30 4110 C 375.208 -0.732108 1.87944 0
M  V30 4111 C 375.521 -1.77107 0.830206 0
M  V30 4112 O 376.727 -2.51488 1.02302 0
M  V30 4113 C 375.183 -1.35315 3.33494 0
M  V30 4114 C 374.791 -0.351105 4.46622 0
M  V30 4115 C 376.535 -2.02566 3.73051 0
M  V30 4116 C 374.442 -0.979859 5.83226 0
M  V30 4117 H 373.372 -0.277188 0.701201 0
M  V30 4118 H 376.023 0.0138501 1.83495 0
M  V30 4119 H 374.405 -2.14844 3.32653 0
M  V30 4120 H 375.579 0.416674 4.58912 0
M  V30 4121 H 373.894 0.218708 4.15825 0
M  V30 4122 H 376.491 -2.50441 4.72423 0
M  V30 4123 H 376.834 -2.83904 3.04474 0
M  V30 4124 H 377.367 -1.29827 3.76018 0
M  V30 4125 H 374.106 -0.206135 6.55176 0
M  V30 4126 H 373.626 -1.71774 5.74677 0
M  V30 4127 H 375.305 -1.49046 6.29599 0
M  V30 4128 N 375.437 -1.54477 -0.31217 0
M  V30 4129 C 376.686 -1.72438 -1.04633 0
M  V30 4130 C 376.999 -0.511163 -1.88803 0
M  V30 4131 O 378.205 -0.572341 -2.65399 0
M  V30 4132 C 376.661 -3.05043 -1.9099 0
M  V30 4133 C 376.269 -4.33806 -1.11877 0
M  V30 4134 C 378.013 -3.32364 -2.64073 0
M  V30 4135 C 375.92 -5.57467 -1.97445 0
M  V30 4136 H 374.85 -0.642647 -0.394361 0
M  V30 4137 H 377.501 -1.80966 -0.303929 0
M  V30 4138 H 375.883 -2.90451 -2.69173 0
M  V30 4139 H 377.057 -4.59199 -0.383843 0
M  V30 4140 H 375.372 -4.13336 -0.504252 0
M  V30 4141 H 377.969 -4.21951 -3.28423 0
M  V30 4142 H 378.312 -2.50745 -3.32314 0
M  V30 4143 H 378.845 -3.47875 -1.92944 0
M  V30 4144 H 375.584 -6.41722 -1.33692 0
M  V30 4145 H 375.104 -5.36277 -2.6864 0
M  V30 4146 H 376.783 -5.94303 -2.5576 0
M  V30 4147 N 376.915 0.57481 -1.46744 0
M  V30 4148 C 378.161 1.3347 -1.52688 0
M  V30 4149 C 378.494 1.93353 -0.181229 0
M  V30 4150 O 377.769 1.76912 0.808237 0
M  V30 4151 C 378.052 2.45811 -2.63152 0
M  V30 4152 C 377.905 1.90912 -4.07275 0
M  V30 4153 C 379.224 3.47822 -2.69644 0
M  V30 4154 H 376.343 0.483935 -0.555856 0
M  V30 4155 H 378.985 0.644968 -1.78718 0
M  V30 4156 H 377.135 3.04646 -2.41088 0
M  V30 4157 H 378.807 1.36473 -4.4065 0
M  V30 4158 H 377.05 1.21691 -4.16382 0
M  V30 4159 H 377.721 2.72042 -4.80309 0
M  V30 4160 H 380.197 2.9888 -2.895 0
M  V30 4161 H 379.073 4.23876 -3.48742 0
M  V30 4162 H 379.334 4.05555 -1.76005 0
M  V30 4163 N 378.394 1.34581 0.820102 0
M  V30 4164 C 379.671 1.17675 1.56244 0
M  V30 4165 C 380.051 -0.249541 2.0962 0
M  V30 4166 O 379.399 -1.25125 1.91196 0
M  V30 4167 C 379.609 2.23364 2.6816 0
M  V30 4168 C 380.957 2.58485 3.36854 0
M  V30 4169 O 381.981 2.22175 2.78418 0
M  V30 4170 O 380.84 3.20868 4.42386 0
M  V30 4171 H 377.934 0.456333 0.689702 0
M  V30 4172 H 380.48 1.46222 0.861231 0
M  V30 4173 H 379.252 3.19087 2.26493 0
M  V30 4174 H 378.875 1.96009 3.45928 0
M  V30 4175 N 379.872 -1.04064 1.18357 0
M  V30 4176 C 380.835 -2.10243 0.912707 0
M  V30 4177 C 381.835 -1.60477 -0.101928 0
M  V30 4178 O 383.025 -1.73703 0.131517 0
M  V30 4179 C 380.157 -3.38893 0.369387 0
M  V30 4180 H 381.35 -2.35706 1.85426 0
M  V30 4181 H 378.903 -1.20489 0.995594 0
M  V30 4182 H 379.638 -3.19094 -0.578776 0
M  V30 4183 H 379.423 -3.76331 1.1008 0
M  V30 4184 H 380.913 -4.17128 0.198575 0
M  V30 4185 N 381.35 -0.985608 -1.22978 0
M  V30 4186 C 382.596 -0.65836 -1.91816 0
M  V30 4187 C 382.929 0.806692 -1.76653 0
M  V30 4188 O 382.204 1.58252 -1.13078 0
M  V30 4189 C 382.487 -1.056 -3.44268 0
M  V30 4190 C 382.34 -2.57906 -3.68516 0
M  V30 4191 C 383.659 -0.603781 -4.35939 0
M  V30 4192 H 380.778 -0.24065 -0.696604 0
M  V30 4193 H 383.42 -1.22783 -1.44998 0
M  V30 4194 H 381.57 -0.571445 -3.84274 0
M  V30 4195 H 383.242 -3.13976 -3.3796 0
M  V30 4196 H 381.485 -3.00305 -3.13048 0
M  V30 4197 H 382.156 -2.80779 -4.75255 0
M  V30 4198 H 384.632 -1.01987 -4.03408 0
M  V30 4199 H 383.508 -0.910383 -5.41298 0
M  V30 4200 H 383.769 0.495761 -4.39312 0
M  V30 4201 N 382.828 1.3818 -0.7579 0
M  V30 4202 C 383.775 2.30416 -0.133057 0
M  V30 4203 C 384.745 1.50398 0.704957 0
M  V30 4204 O 385.93 1.79014 0.660192 0
M  V30 4205 C 383.07 3.36834 0.750813 0
M  V30 4206 C 382.183 4.31879 -0.102297 0
M  V30 4207 C 381.318 5.25368 0.784979 0
M  V30 4208 C 380.357 6.12058 -0.0715046 0
M  V30 4209 N 379.494 6.97832 0.772972 0
M  V30 4210 H 384.334 2.83274 -0.925186 0
M  V30 4211 H 381.871 1.39461 -0.467866 0
M  V30 4212 H 383.829 3.97145 1.27794 0
M  V30 4213 H 382.459 2.85374 1.50868 0
M  V30 4214 H 381.511 3.72991 -0.747095 0
M  V30 4215 H 382.823 4.92921 -0.763552 0
M  V30 4216 H 381.977 5.90818 1.37911 0
M  V30 4217 H 380.716 4.64703 1.47996 0
M  V30 4218 H 379.721 5.456 -0.678272 0
M  V30 4219 H 380.946 6.74793 -0.763606 0
M  V30 4220 H 378.892 6.3971 1.45282 0
M  V30 4221 H 378.809 7.55812 0.168709 0
M  V30 4222 H 380.077 7.67687 1.35194 0
M  V30 4223 N 384.306 0.507319 1.49211 0
M  V30 4224 C 385.555 -0.0368315 2.01666 0
M  V30 4225 C 385.868 -1.37459 1.39156 0
M  V30 4226 O 387.074 -2.00579 1.82976 0
M  V30 4227 C 385.53 -0.116089 3.59713 0
M  V30 4228 C 385.138 1.2154 4.31198 0
M  V30 4229 C 386.882 -0.610268 4.2009 0
M  V30 4230 C 384.789 1.09796 5.81119 0
M  V30 4231 H 383.719 -0.0175376 0.753796 0
M  V30 4232 H 386.37 0.647691 1.71689 0
M  V30 4233 H 384.752 -0.8652 3.86433 0
M  V30 4234 H 385.926 1.9783 4.16173 0
M  V30 4235 H 384.241 1.64352 3.82593 0
M  V30 4236 H 386.838 -0.715742 5.29888 0
M  V30 4237 H 387.181 -1.61064 3.8388 0
M  V30 4238 H 387.714 0.0824916 3.97714 0
M  V30 4239 H 384.453 2.0728 6.21864 0
M  V30 4240 H 383.973 0.376058 5.9862 0
M  V30 4241 H 385.652 0.779281 6.4229 0
M  V30 4242 N 385.784 -1.5574 0.241426 0
M  V30 4243 C 386.694 -2.2479 -0.671305 0
M  V30 4244 C 387.71 -1.26217 -1.19772 0
M  V30 4245 O 388.886 -1.59079 -1.23514 0
M  V30 4246 C 385.951 -2.92966 -1.85396 0
M  V30 4247 C 385.012 -4.06935 -1.36756 0
M  V30 4248 C 384.245 -4.71851 -2.49384 0
M  V30 4249 O 384.468 -4.35823 -3.67987 0
M  V30 4250 O 383.402 -5.60467 -2.19454 0
M  V30 4251 H 387.228 -3.0349 -0.112966 0
M  V30 4252 H 384.813 -1.49397 0.0101513 0
M  V30 4253 H 386.695 -3.35927 -2.54423 0
M  V30 4254 H 385.37 -2.17211 -2.40002 0
M  V30 4255 H 384.277 -3.68503 -0.644726 0
M  V30 4256 H 385.61 -4.84492 -0.867647 0
M  V30 4257 N 387.262 0.0317525 -1.57568 0
M  V30 4258 C 388.194 1.06073 -2.03178 0
M  V30 4259 C 389.207 1.32627 -0.944132 0
M  V30 4260 O 390.396 1.30162 -1.22148 0
M  V30 4261 C 387.496 2.40297 -2.38978 0
M  V30 4262 C 386.669 2.33137 -3.70089 0
M  V30 4263 C 385.728 3.49787 -3.9311 0
M  V30 4264 O 384.754 3.29403 -4.64201 0
M  V30 4265 N 385.956 4.71562 -3.38541 0
M  V30 4266 H 388.721 0.672006 -2.92069 0
M  V30 4267 H 386.282 0.219745 -1.60402 0
M  V30 4268 H 388.274 3.1705 -2.51518 0
M  V30 4269 H 386.844 2.71024 -1.55771 0
M  V30 4270 H 386.064 1.415 -3.67928 0
M  V30 4271 H 387.352 2.25493 -4.56104 0
M  V30 4272 H 386.75 4.91024 -2.80912 0
M  V30 4273 H 385.307 5.45689 -3.56464 0
M  V30 4274 N 388.74 1.54641 0.303973 0
M  V30 4275 C 389.65 1.88439 1.39743 0
M  V30 4276 C 390.666 0.778239 1.55626 0
M  V30 4277 O 391.842 1.07442 1.70347 0
M  V30 4278 C 388.907 2.12212 2.74166 0
M  V30 4279 C 387.968 3.35936 2.67293 0
M  V30 4280 C 387.201 3.58566 3.95305 0
M  V30 4281 O 387.424 2.84263 4.9452 0
M  V30 4282 O 386.358 4.52078 3.97378 0
M  V30 4283 H 390.184 2.81458 1.14083 0
M  V30 4284 H 387.769 1.40793 0.499768 0
M  V30 4285 H 389.651 2.29067 3.53704 0
M  V30 4286 H 388.326 1.22379 2.99675 0
M  V30 4287 H 387.233 3.24448 1.86237 0
M  V30 4288 H 388.566 4.2589 2.46736 0
M  V30 4289 N 390.218 -0.567019 1.47046 0
M  V30 4290 C 391.465 -1.32462 1.53167 0
M  V30 4291 C 391.793 -1.93571 0.189841 0
M  V30 4292 O 391.048 -1.77865 -0.816243 0
M  V30 4293 C 391.347 -2.4623 2.59047 0
M  V30 4294 C 391.013 -2.03014 4.02612 0
M  V30 4295 C 389.675 -1.90944 4.41694 0
M  V30 4296 C 392.027 -1.69895 4.92732 0
M  V30 4297 C 389.355 -1.44035 5.68745 0
M  V30 4298 C 391.707 -1.2446 6.20236 0
M  V30 4299 C 390.371 -1.10979 6.5821 0
M  V30 4300 H 389.641 -0.484713 0.560477 0
M  V30 4301 H 392.288 -0.636888 1.80599 0
M  V30 4302 H 390.593 -3.20517 2.25335 0
M  V30 4303 H 392.29 -3.04427 2.61008 0
M  V30 4304 H 388.88 -2.13348 3.71726 0
M  V30 4305 H 393.064 -1.78098 4.63244 0
M  V30 4306 H 388.32 -1.32254 5.96925 0
M  V30 4307 H 392.494 -0.978924 6.89485 0
M  V30 4308 H 390.121 -0.744078 7.5655 0
M  V30 4309 N 391.696 -1.35014 -0.812953 0
M  V30 4310 C 392.626 -1.30069 -1.93919 0
M  V30 4311 C 393.607 -0.176275 -1.69184 0
M  V30 4312 O 394.792 -0.370227 -1.90638 0
M  V30 4313 C 391.922 -1.06547 -3.30552 0
M  V30 4314 C 390.876 -2.15561 -3.69753 0
M  V30 4315 C 390.202 -1.77214 -5.04479 0
M  V30 4316 C 391.502 -3.57476 -3.808 0
M  V30 4317 H 393.196 -2.24303 -1.98314 0
M  V30 4318 H 390.742 -1.07977 -0.952736 0
M  V30 4319 H 392.695 -1.01729 -4.08937 0
M  V30 4320 H 391.419 -0.0875719 -3.26483 0
M  V30 4321 H 390.078 -2.19466 -2.9365 0
M  V30 4322 H 389.726 -0.780589 -4.96906 0
M  V30 4323 H 389.426 -2.50184 -5.31678 0
M  V30 4324 H 390.95 -1.7391 -5.8531 0
M  V30 4325 H 392.364 -3.55929 -4.4943 0
M  V30 4326 H 390.761 -4.29152 -4.19462 0
M  V30 4327 H 391.831 -3.94091 -2.82525 0
M  V30 4328 N 393.175 1.03435 -1.18907 0
M  V30 4329 C 394.403 1.80381 -1.01342 0
M  V30 4330 C 394.818 1.83649 0.438005 0
M  V30 4331 O 394.175 1.27655 1.30424 0
M  V30 4332 C 394.226 3.25689 -1.56873 0
M  V30 4333 O 393.947 3.22673 -2.96334 0
M  V30 4334 C 395.448 4.19255 -1.44014 0
M  V30 4335 H 392.668 0.56784 -0.35749 0
M  V30 4336 H 395.212 1.30317 -1.576 0
M  V30 4337 H 393.367 3.72962 -1.04777 0
M  V30 4338 H 393.781 4.13748 -3.22355 0
M  V30 4339 H 395.255 5.19123 -1.87657 0
M  V30 4340 H 395.732 4.37467 -0.389815 0
M  V30 4341 H 396.338 3.77851 -1.95214 0
M  V30 4342 N 394.653 0.992116 1.22453 0
M  V30 4343 C 395.563 0.55065 2.28046 0
M  V30 4344 C 396.579 -0.400189 1.69335 0
M  V30 4345 O 397.755 -0.267215 1.99619 0
M  V30 4346 C 394.82 -0.128496 3.46462 0
M  V30 4347 C 393.881 0.865208 4.20491 0
M  V30 4348 C 393.114 0.218377 5.33253 0
M  V30 4349 O 393.337 -0.987894 5.6178 0
M  V30 4350 O 392.271 0.922845 5.94783 0
M  V30 4351 H 396.097 1.4291 2.67975 0
M  V30 4352 H 393.682 0.760326 1.28606 0
M  V30 4353 H 395.564 -0.508947 4.18315 0
M  V30 4354 H 394.239 -0.981526 3.0846 0
M  V30 4355 H 393.146 1.29658 3.50913 0
M  V30 4356 H 394.479 1.68741 4.62371 0
M  V30 4357 N 396.131 -1.37776 0.765217 0
M  V30 4358 C 397.094 -2.28686 0.153416 0
M  V30 4359 C 398.094 -1.47727 -0.635081 0
M  V30 4360 O 399.284 -1.68027 -0.459632 0
M  V30 4361 C 396.416 -3.31608 -0.790495 0
M  V30 4362 H 397.609 -2.84297 0.954723 0
M  V30 4363 H 395.162 -1.46932 0.53299 0
M  V30 4364 H 395.897 -2.81109 -1.61705 0
M  V30 4365 H 395.682 -3.9144 -0.227348 0
M  V30 4366 H 397.172 -3.99559 -1.21419 0
M  V30 4367 N 397.609 -0.515225 -1.4894 0
M  V30 4368 C 398.539 0.244628 -2.32215 0
M  V30 4369 C 399.52 0.949136 -1.41157 0
M  V30 4370 O 400.705 0.937783 -1.70057 0
M  V30 4371 C 397.835 1.30096 -3.22013 0
M  V30 4372 C 396.789 0.715486 -4.21977 0
M  V30 4373 C 396.115 1.87339 -5.00808 0
M  V30 4374 C 397.415 -0.302982 -5.2142 0
M  V30 4375 H 399.109 -0.450501 -2.95991 0
M  V30 4376 H 396.655 -0.218098 -1.42339 0
M  V30 4377 H 398.608 1.84037 -3.79089 0
M  V30 4378 H 397.332 2.02547 -2.56207 0
M  V30 4379 H 395.991 0.197715 -3.66066 0
M  V30 4380 H 395.639 2.58592 -4.31438 0
M  V30 4381 H 395.339 1.48764 -5.68457 0
M  V30 4382 H 396.863 2.41686 -5.60732 0
M  V30 4383 H 398.277 0.148802 -5.73107 0
M  V30 4384 H 396.674 -0.60532 -5.97039 0
M  V30 4385 H 397.744 -1.21395 -4.69459 0
M  V30 4386 N 399.087 1.5561 -0.249682 0
M  V30 4387 C 400.498 1.84979 0.252949 0
M  V30 4388 C 400.849 1.17153 1.57384 0
M  V30 4389 O 399.974 0.450884 2.11651 0
M  V30 4390 C 400.569 3.35584 0.465732 0
M  V30 4391 C 399.128 3.65169 0.912624 0
M  V30 4392 C 398.275 2.77299 -0.00859085 0
M  V30 4393 H 401.226 1.51513 -0.47217 0
M  V30 4394 H 401.247 3.57313 1.30795 0
M  V30 4395 H 400.759 3.8492 -0.49579 0
M  V30 4396 H 398.86 3.21312 1.88652 0
M  V30 4397 H 398.973 4.72912 0.767559 0
M  V30 4398 H 397.337 2.49678 0.50327 0
M  V30 4399 H 398.12 3.29442 -0.965537 0
M  V30 4400 N 400.565 -0.0233959 1.57583 0
M  V30 4401 C 401.811 -0.714119 1.89811 0
M  V30 4402 C 402.144 -1.74702 0.848113 0
M  V30 4403 O 401.419 -1.94023 -0.136135 0
M  V30 4404 C 401.702 -1.37853 3.32669 0
M  V30 4405 C 401.555 -0.358764 4.48367 0
M  V30 4406 C 402.874 -2.31101 3.7454 0
M  V30 4407 H 399.993 -0.25814 0.690314 0
M  V30 4408 H 402.635 0.0230927 1.89986 0
M  V30 4409 H 400.785 -2.00689 3.3265 0
M  V30 4410 H 402.457 0.268115 4.6052 0
M  V30 4411 H 400.7 0.321387 4.32608 0
M  V30 4412 H 401.371 -0.862242 5.45224 0
M  V30 4413 H 403.847 -1.78304 3.75961 0
M  V30 4414 H 402.723 -2.74567 4.75294 0
M  V30 4415 H 402.984 -3.18018 3.0711 0
M  V30 4416 N 402.043 -1.548 -0.295768 0
M  V30 4417 C 403.291 -1.73985 -1.02828 0
M  V30 4418 C 403.612 -0.531406 -1.87619 0
M  V30 4419 O 402.882 0.454221 -1.90561 0
M  V30 4420 H 401.462 -0.641556 -0.382642 0
M  V30 4421 H 404.124 -1.92163 -0.325489 0
M  V30 4422 H 403.22 -2.63129 -1.67838 0
M  V30 4423 N 403.521 0.559213 -1.47345 0
M  V30 4424 C 404.451 1.67622 -1.62558 0
M  V30 4425 C 405.432 1.63331 -0.475087 0
M  V30 4426 O 406.617 1.80983 -0.704182 0
M  V30 4427 C 403.747 3.0626 -1.63774 0
M  V30 4428 C 402.701 3.25397 -2.7803 0
M  V30 4429 C 402.027 4.64801 -2.64318 0
M  V30 4430 C 403.327 3.10965 -4.19641 0
M  V30 4431 H 405.021 1.55146 -2.56067 0
M  V30 4432 H 402.567 0.744961 -1.23233 0
M  V30 4433 H 404.52 3.84247 -1.73008 0
M  V30 4434 H 403.244 3.1969 -0.66825 0
M  V30 4435 H 401.903 2.49817 -2.68304 0
M  V30 4436 H 401.551 4.75028 -1.65401 0
M  V30 4437 H 401.251 4.78555 -3.40968 0
M  V30 4438 H 402.775 5.44926 -2.75478 0
M  V30 4439 H 404.189 3.78772 -4.30354 0
M  V30 4440 H 402.586 3.36229 -4.97062 0
M  V30 4441 H 403.656 2.07736 -4.38148 0
M  V30 4442 N 404.999 1.35443 0.805782 0
M  V30 4443 C 406.248 1.28097 1.55801 0
M  V30 4444 C 406.561 -0.142428 1.95081 0
M  V30 4445 O 407.767 -0.33817 2.69386 0
M  V30 4446 C 406.223 2.24653 2.81174 0
M  V30 4447 C 405.831 3.72342 2.49129 0
M  V30 4448 C 407.575 2.2625 3.59181 0
M  V30 4449 C 405.482 4.60719 3.70799 0
M  V30 4450 H 404.412 0.475937 0.584808 0
M  V30 4451 H 407.063 1.60712 0.885661 0
M  V30 4452 H 405.445 1.85011 3.50124 0
M  V30 4453 H 406.619 4.20624 1.88181 0
M  V30 4454 H 404.934 3.73361 1.84366 0
M  V30 4455 H 407.531 2.89495 4.49552 0
M  V30 4456 H 407.874 1.26647 3.96568 0
M  V30 4457 H 408.407 2.64426 2.97193 0
M  V30 4458 H 405.146 5.61324 3.3852 0
M  V30 4459 H 404.666 4.17163 4.3097 0
M  V30 4460 H 406.345 4.76182 4.38018 0
M  V30 4461 N 406.477 -1.02803 1.19454 0
M  V30 4462 C 407.725 -1.75869 0.995722 0
M  V30 4463 C 408.046 -1.89138 -0.474543 0
M  V30 4464 O 407.316 -1.42558 -1.34366 0
M  V30 4465 H 405.896 -0.651511 0.365435 0
M  V30 4466 H 408.558 -1.24004 1.50363 0
M  V30 4467 H 407.654 -2.76661 1.44447 0
M  V30 4468 N 407.956 -0.998596 -1.21925 0
M  V30 4469 C 408.889 -0.498517 -2.22688 0
M  V30 4470 C 409.867 0.444301 -1.56412 0
M  V30 4471 O 411.051 0.368518 -1.84863 0
M  V30 4472 C 408.178 0.276639 -3.37568 0
M  V30 4473 C 407.224 -0.61302 -4.22071 0
M  V30 4474 S 408.057 -2.07168 -4.93803 0
M  V30 4475 C 409.213 -1.30617 -6.12119 0
M  V30 4476 H 409.446 -1.35234 -2.64762 0
M  V30 4477 H 406.979 -0.806018 -1.31692 0
M  V30 4478 H 408.937 0.717817 -4.04175 0
M  V30 4479 H 407.598 1.10581 -2.93991 0
M  V30 4480 H 406.791 -0.0162909 -5.03997 0
M  V30 4481 H 406.393 -0.991202 -3.60626 0
M  V30 4482 H 408.685 -0.57675 -6.75041 0
M  V30 4483 H 409.628 -2.10091 -6.76215 0
M  V30 4484 H 410.036 -0.816957 -5.58557 0
M  V30 4485 N 409.434 1.37368 -0.772513 0
M  V30 4486 C 410.382 2.32134 -0.147111 0
M  V30 4487 C 411.376 1.54972 0.684106 0
M  V30 4488 O 412.582 1.70363 0.581083 0
M  V30 4489 H 408.957 0.751449 -0.028786 0
M  V30 4490 H 410.928 2.82464 -0.962112 0
M  V30 4491 C 409.677 3.40226 0.71703 0
M  V30 4492 H 409 3.99706 0.0867951 0
M  V30 4493 H 410.44 4.08897 1.12159 0
M  V30 4494 C 408.899 2.80372 1.86797 0
M  V30 4495 O 409.429 2.71183 2.96349 0
M  V30 4496 N 407.635 2.37904 1.66883 0
M  V30 4497 H 407.182 2.45578 0.777759 0
M  V30 4498 H 407.14 1.98202 2.44056 0
M  V30 4499 N 410.912 0.523116 1.48665 0
M  V30 4500 C 412.152 -0.0115588 2.04397 0
M  V30 4501 C 412.516 -1.32225 1.39214 0
M  V30 4502 O 413.717 -1.94253 1.85793 0
M  V30 4503 C 411.988 -0.138119 3.57133 0
M  V30 4504 S 413.547 -0.623849 4.34343 0
M  V30 4505 H 410.365 0.00877706 0.710946 0
M  V30 4506 H 412.967 0.702116 1.82457 0
M  V30 4507 H 411.671 0.820748 4.02109 0
M  V30 4508 H 411.202 -0.876377 3.83514 0
M  V30 4509 H 413.217 -1.8895 4.58816 0
M  V30 4510 N 412.39 -1.55475 0.257931 0
M  V30 4511 C 413.639 -1.98383 -0.364275 0
M  V30 4512 C 413.952 -1.14952 -1.58258 0
M  V30 4513 O 415.158 -1.47924 -2.27664 0
M  V30 4514 C 413.614 -3.53037 -0.699479 0
M  V30 4515 C 413.222 -4.45223 0.498046 0
M  V30 4516 C 414.966 -4.04575 -1.28526 0
M  V30 4517 C 412.873 -5.91238 0.138383 0
M  V30 4518 H 411.803 -0.740911 -0.13988 0
M  V30 4519 H 414.454 -1.79936 0.359883 0
M  V30 4520 H 412.836 -3.6722 -1.48207 0
M  V30 4521 H 414.01 -4.42803 1.27522 0
M  V30 4522 H 412.325 -4.04226 0.999503 0
M  V30 4523 H 414.922 -5.11196 -1.56788 0
M  V30 4524 H 415.265 -3.5258 -2.21344 0
M  V30 4525 H 415.798 -3.93762 -0.565337 0
M  V30 4526 H 412.537 -6.47294 1.03398 0
M  V30 4527 H 412.057 -5.96768 -0.602374 0
M  V30 4528 H 413.736 -6.46413 -0.27553 0
M  V30 4529 N 413.868 0.0150385 -1.57593 0
M  V30 4530 C 414.798 1.01047 -2.10503 0
M  V30 4531 C 415.779 1.36816 -1.01071 0
M  V30 4532 O 416.964 1.45455 -1.28672 0
M  V30 4533 C 414.094 2.30708 -2.59598 0
M  V30 4534 C 413.048 2.09142 -3.73421 0
M  V30 4535 C 412.374 3.44685 -4.08774 0
M  V30 4536 C 413.674 1.46619 -5.01298 0
M  V30 4537 H 415.368 0.569978 -2.93925 0
M  V30 4538 H 412.914 0.272724 -1.41394 0
M  V30 4539 H 414.867 3.00687 -2.95238 0
M  V30 4540 H 413.591 2.76843 -1.73279 0
M  V30 4541 H 412.25 1.41592 -3.38153 0
M  V30 4542 H 411.898 3.88495 -3.195 0
M  V30 4543 H 411.598 3.31077 -4.8545 0
M  V30 4544 H 413.122 4.16004 -4.4696 0
M  V30 4545 H 414.536 2.06535 -5.34805 0
M  V30 4546 H 412.933 1.43544 -5.82679 0
M  V30 4547 H 414.003 0.433611 -4.82957 0
M  V30 4548 N 415.346 1.54954 0.287554 0
M  V30 4549 C 416.279 1.81737 1.3801 0
M  V30 4550 C 417.257 0.669412 1.48181 0
M  V30 4551 O 418.441 0.910839 1.65033 0
M  V30 4552 C 415.568 1.96606 2.75796 0
M  V30 4553 C 414.614 3.19098 2.82982 0
M  V30 4554 S 415.447 4.7683 2.43707 0
M  V30 4555 C 416.603 4.94653 3.83496 0
M  V30 4556 H 416.836 2.74122 1.15085 0
M  V30 4557 H 414.369 1.46538 0.486403 0
M  V30 4558 H 416.327 2.05858 3.55152 0
M  V30 4559 H 414.988 1.05136 2.95982 0
M  V30 4560 H 414.181 3.26344 3.84077 0
M  V30 4561 H 413.783 3.08361 2.11635 0
M  V30 4562 H 416.075 4.79502 4.78628 0
M  V30 4563 H 417.018 5.96728 3.8121 0
M  V30 4564 H 417.426 4.2272 3.74123 0
M  V30 4565 N 416.824 -0.551391 1.4764 0
M  V30 4566 C 417.771 -1.65796 1.60563 0
M  V30 4567 C 418.741 -1.59932 0.448428 0
M  V30 4568 O 419.926 -1.78679 0.669222 0
M  V30 4569 C 417.066 -3.04108 1.63133 0
M  V30 4570 C 416.179 -3.20365 2.89811 0
M  V30 4571 C 415.314 -4.49109 2.8368 0
M  V30 4572 C 414.353 -4.58819 4.05156 0
M  V30 4573 N 413.49 -5.78926 3.97227 0
M  V30 4574 H 418.33 -1.54088 2.5507 0
M  V30 4575 H 415.867 -0.75052 1.26513 0
M  V30 4576 H 417.825 -3.84207 1.62606 0
M  V30 4577 H 416.455 -3.14637 0.721341 0
M  V30 4578 H 415.507 -2.33659 3.00179 0
M  V30 4579 H 416.819 -3.23402 3.79753 0
M  V30 4580 H 415.973 -5.37475 2.81434 0
M  V30 4581 H 414.712 -4.4856 1.91431 0
M  V30 4582 H 413.717 -3.68864 4.077 0
M  V30 4583 H 414.942 -4.61124 4.98539 0
M  V30 4584 H 412.888 -5.79314 3.07785 0
M  V30 4585 H 412.805 -5.83367 4.80853 0
M  V30 4586 H 414.073 -6.69637 3.99007 0
M  V30 4587 N 418.302 -1.35869 -0.798587 0
M  V30 4588 C 419.234 -1.25305 -1.91915 0
M  V30 4589 C 420.247 -0.174548 -1.61862 0
M  V30 4590 O 421.436 -0.428499 -1.73281 0
M  V30 4591 C 418.536 -0.9086 -3.26493 0
M  V30 4592 C 417.709 -2.08711 -3.84394 0
M  V30 4593 C 416.768 -1.71717 -4.97393 0
M  V30 4594 O 415.794 -2.43692 -5.14396 0
M  V30 4595 N 416.996 -0.645473 -5.769 0
M  V30 4596 H 419.761 -2.21849 -2.01502 0
M  V30 4597 H 417.322 -1.29143 -0.976408 0
M  V30 4598 H 419.314 -0.642455 -3.99568 0
M  V30 4599 H 417.884 -0.0325815 -3.12583 0
M  V30 4600 H 417.104 -2.51659 -3.03416 0
M  V30 4601 H 418.392 -2.87468 -4.19809 0
M  V30 4602 H 417.79 -0.047648 -5.6568 0
M  V30 4603 H 416.347 -0.43913 -6.50319 0
M  V30 4604 N 419.78 1.02168 -1.19998 0
M  V30 4605 C 421.01 1.79036 -1.031 0
M  V30 4606 C 421.418 1.84409 0.423078 0
M  V30 4607 O 420.761 1.29228 1.30559 0
M  V30 4608 C 420.823 3.25185 -1.53281 0
M  V30 4609 C 420.487 3.43431 -3.01503 0
M  V30 4610 C 421.484 3.33063 -3.99206 0
M  V30 4611 C 419.169 3.69412 -3.40353 0
M  V30 4612 C 421.163 3.48413 -5.33748 0
M  V30 4613 C 418.85 3.84406 -4.75053 0
M  V30 4614 C 419.848 3.7391 -5.71559 0
M  V30 4615 O 419.536 3.88452 -7.03818 0
M  V30 4616 H 419.268 0.570043 -0.363355 0
M  V30 4617 H 421.822 1.29524 -1.59414 0
M  V30 4618 H 420.052 3.75756 -0.913483 0
M  V30 4619 H 421.741 3.83671 -1.32481 0
M  V30 4620 H 422.507 3.12934 -3.70537 0
M  V30 4621 H 418.386 3.76671 -2.65782 0
M  V30 4622 H 421.93 3.40137 -6.09059 0
M  V30 4623 H 417.827 4.04035 -5.03415 0
M  V30 4624 H 418.595 4.055 -7.10993 0
M  V30 4625 N 421.258 1.00505 1.21394 0
M  V30 4626 C 422.507 0.683159 1.89778 0
M  V30 4627 C 422.82 -0.789471 1.7896 0
M  V30 4628 O 424.026 -1.22344 2.42372 0
M  V30 4629 C 422.482 1.17146 3.40301 0
M  V30 4630 C 422.09 2.67017 3.5973 0
M  V30 4631 C 423.834 0.924461 4.14311 0
M  V30 4632 C 421.741 3.09387 5.04017 0
M  V30 4633 H 420.671 0.25183 0.710702 0
M  V30 4634 H 423.322 1.21622 1.37406 0
M  V30 4635 H 421.704 0.566451 3.91928 0
M  V30 4636 H 422.878 3.32968 3.18542 0
M  V30 4637 H 421.193 2.89732 2.99073 0
M  V30 4638 H 423.79 1.21658 5.20676 0
M  V30 4639 H 424.133 -0.139286 4.16067 0
M  V30 4640 H 424.666 1.49226 3.6875 0
M  V30 4641 H 421.405 4.14989 5.07409 0
M  V30 4642 H 420.925 2.48149 5.46061 0
M  V30 4643 H 422.604 3.01371 5.72525 0
M  V30 4644 N 422.737 -1.36956 0.779787 0
M  V30 4645 C 423.647 -2.33965 0.172491 0
M  V30 4646 C 424.663 -1.60574 -0.670222 0
M  V30 4647 O 425.839 -1.92617 -0.588263 0
M  V30 4648 C 422.904 -3.39761 -0.690173 0
M  V30 4649 C 421.965 -4.28964 0.169924 0
M  V30 4650 C 421.198 -5.29707 -0.651662 0
M  V30 4651 O 421.421 -5.38238 -1.88827 0
M  V30 4652 O 420.355 -6.01873 -0.0566264 0
M  V30 4653 H 424.181 -2.87647 0.974321 0
M  V30 4654 H 421.766 -1.39258 0.541078 0
M  V30 4655 H 423.648 -4.04471 -1.1824 0
M  V30 4656 H 422.323 -2.88394 -1.47006 0
M  V30 4657 H 421.23 -3.67326 0.708696 0
M  V30 4658 H 422.563 -4.83656 0.913085 0
M  V30 4659 N 424.215 -0.530993 -1.48385 0
M  V30 4660 C 425.462 0.0027373 -2.025 0
M  V30 4661 C 425.79 1.34186 -1.40799 0
M  V30 4662 O 425.045 1.88 -0.543544 0
M  V30 4663 C 425.344 0.172742 -3.56982 0
M  V30 4664 C 425.01 -1.09215 -4.37473 0
M  V30 4665 C 423.672 -1.43881 -4.59186 0
M  V30 4666 C 426.024 -1.93153 -4.84088 0
M  V30 4667 C 423.352 -2.62381 -5.2476 0
M  V30 4668 C 425.704 -3.10833 -5.50968 0
M  V30 4669 C 424.368 -3.45843 -5.70919 0
M  V30 4670 H 423.638 0.00100165 -0.740999 0
M  V30 4671 H 426.285 -0.697219 -1.78357 0
M  V30 4672 H 424.59 0.955473 -3.79971 0
M  V30 4673 H 426.287 0.600642 -3.96476 0
M  V30 4674 H 422.877 -0.812177 -4.20834 0
M  V30 4675 H 427.061 -1.67683 -4.67115 0
M  V30 4676 H 422.317 -2.89707 -5.38405 0
M  V30 4677 H 426.491 -3.7618 -5.86056 0
M  V30 4678 H 424.118 -4.37764 -6.21503 0
M  V30 4679 N 425.693 1.55336 -0.266172 0
M  V30 4680 C 426.939 1.99692 0.353681 0
M  V30 4681 C 427.272 1.1543 1.56172 0
M  V30 4682 O 426.547 0.222218 1.93226 0
M  V30 4683 C 426.83 3.52316 0.74466 0
M  V30 4684 C 426.683 4.47337 -0.470101 0
M  V30 4685 C 428.002 4.10588 1.58447 0
M  V30 4686 H 425.121 0.725961 0.12708 0
M  V30 4687 H 427.763 1.86336 -0.371333 0
M  V30 4688 H 425.913 3.63829 1.36239 0
M  V30 4689 H 427.585 4.4778 -1.10864 0
M  V30 4690 H 425.828 4.19364 -1.10978 0
M  V30 4691 H 426.499 5.51788 -0.15291 0
M  V30 4692 H 428.975 4.02297 1.06286 0
M  V30 4693 H 427.851 5.17607 1.82686 0
M  V30 4694 H 428.112 3.60253 2.56262 0
M  V30 4695 N 427.171 -0.0066808 1.57599 0
M  V30 4696 C 428.134 -0.985035 2.06953 0
M  V30 4697 C 429.134 -1.27663 0.977687 0
M  V30 4698 O 430.324 -1.22293 1.24057 0
M  V30 4699 C 427.456 -2.3118 2.50536 0
M  V30 4700 H 428.649 -0.558255 2.94658 0
M  V30 4701 H 426.202 -0.254011 1.54222 0
M  V30 4702 H 426.937 -2.78561 1.66054 0
M  V30 4703 H 426.722 -2.11338 3.3027 0
M  V30 4704 H 428.212 -3.01377 2.8907 0
M  V30 4705 N 428.649 -1.55105 -0.279332 0
M  V30 4706 C 429.926 -1.66119 -1.03267 0
M  V30 4707 C 430.306 -0.523525 -2.04505 0
M  V30 4708 O 429.654 0.477194 -2.23462 0
M  V30 4709 C 429.864 -3.05067 -1.69515 0
M  V30 4710 C 431.212 -3.62606 -2.20912 0
M  V30 4711 O 432.236 -3.07659 -1.79512 0
M  V30 4712 O 431.095 -4.58861 -2.96831 0
M  V30 4713 H 428.189 -0.674429 -0.478618 0
M  V30 4714 H 430.735 -1.67446 -0.275694 0
M  V30 4715 H 429.507 -3.79311 -0.9612 0
M  V30 4716 H 429.13 -3.07611 -2.51915 0
M  V30 4717 N 430.127 0.543554 -1.4793 0
M  V30 4718 C 431.543 0.870806 -1.3375 0
M  V30 4719 C 431.743 1.9864 -0.338261 0
M  V30 4720 O 430.799 2.51305 0.245371 0
M  V30 4721 C 432.112 1.25114 -2.73435 0
M  V30 4722 C 433.66 1.3618 -2.81823 0
M  V30 4723 C 434.135 1.77563 -4.22179 0
M  V30 4724 N 435.626 1.8469 -4.24787 0
M  V30 4725 C 436.361 2.18067 -5.30315 0
M  V30 4726 N 435.857 2.49963 -6.46135 0
M  V30 4727 N 437.65 2.18958 -5.17701 0
M  V30 4728 H 429.801 -0.19275 -2.11524 0
M  V30 4729 H 432.064 -0.0235777 -0.947707 0
M  V30 4730 H 431.77 0.50514 -3.48053 0
M  V30 4731 H 431.644 2.20431 -3.06088 0
M  V30 4732 H 434.031 2.09859 -2.07468 0
M  V30 4733 H 434.112 0.390169 -2.52807 0
M  V30 4734 H 433.756 1.04449 -4.97044 0
M  V30 4735 H 433.686 2.75753 -4.48629 0
M  V30 4736 H 436.177 1.62372 -3.41239 0
M  V30 4737 H 436.49 2.74497 -7.22406 0
M  V30 4738 H 434.835 2.47513 -6.49432 0
M  V30 4739 H 438.026 1.93488 -4.2624 0
M  V30 4740 H 438.199 2.44639 -6.00047 0
M  V30 4741 N 431.605 1.3629 0.791371 0
M  V30 4742 C 432.535 1.33137 1.91825 0
M  V30 4743 C 433.516 0.203168 1.68882 0
M  V30 4744 O 434.701 0.400509 1.90025 0
M  V30 4745 C 431.831 1.11793 3.28816 0
M  V30 4746 C 430.785 2.21417 3.66277 0
M  V30 4747 C 430.111 1.85218 5.01596 0
M  V30 4748 C 431.411 3.63489 3.75064 0
M  V30 4749 H 433.105 2.2743 1.9472 0
M  V30 4750 H 430.651 1.09479 0.935437 0
M  V30 4751 H 432.604 1.08222 4.07266 0
M  V30 4752 H 431.328 0.139501 3.26302 0
M  V30 4753 H 429.987 2.2411 2.90121 0
M  V30 4754 H 429.635 0.859544 4.95602 0
M  V30 4755 H 429.335 2.58611 5.27631 0
M  V30 4756 H 430.859 1.832 5.82469 0
M  V30 4757 H 432.273 3.63034 4.43711 0
M  V30 4758 H 430.67 4.35771 4.12582 0
M  V30 4759 H 431.74 3.98536 2.76219 0
M  V30 4760 N 433.083 -1.0153 1.20538 0
M  V30 4761 C 434.013 -2.11972 0.979295 0
M  V30 4762 C 434.994 -1.6985 -0.0921787 0
M  V30 4763 O 436.179 -1.94089 0.0655932 0
M  V30 4764 C 433.309 -3.43201 0.531984 0
M  V30 4765 C 432.263 -3.9907 1.54685 0
M  V30 4766 C 431.589 -5.26082 0.956127 0
M  V30 4767 C 432.889 -4.32313 2.93092 0
M  V30 4768 H 434.583 -2.31143 1.90298 0
M  V30 4769 H 432.129 -1.11079 0.916372 0
M  V30 4770 H 434.082 -4.1985 0.361044 0
M  V30 4771 H 432.806 -3.23792 -0.427327 0
M  V30 4772 H 431.465 -3.2453 1.70517 0
M  V30 4773 H 431.113 -5.02999 -0.0111538 0
M  V30 4774 H 430.813 -5.64426 1.63393 0
M  V30 4775 H 432.337 -6.05386 0.796284 0
M  V30 4776 H 433.751 -4.99845 2.80763 0
M  V30 4777 H 432.148 -4.81774 3.57791 0
M  V30 4778 H 433.218 -3.41025 3.44717 0
M  V30 4779 N 434.561 -1.01147 -1.20859 0
M  V30 4780 C 435.807 -0.698899 -1.90377 0
M  V30 4781 C 436.14 0.76904 -1.78324 0
M  V30 4782 O 435.415 1.55817 -1.16409 0
M  V30 4783 C 435.698 -1.12878 -3.41951 0
M  V30 4784 C 435.551 -2.65665 -3.62963 0
M  V30 4785 C 436.87 -0.696114 -4.3456 0
M  V30 4786 H 433.989 -0.255372 -0.691342 0
M  V30 4787 H 436.631 -1.25831 -1.42361 0
M  V30 4788 H 434.781 -0.652827 -3.82976 0
M  V30 4789 H 436.453 -3.21074 -3.31224 0
M  V30 4790 H 434.696 -3.06878 -3.06608 0
M  V30 4791 H 435.367 -2.90797 -4.69192 0
M  V30 4792 H 437.843 -1.10521 -4.01154 0
M  V30 4793 H 436.719 -1.025 -5.39245 0
M  V30 4794 H 436.98 0.402465 -4.40264 0
M  V30 4795 N 436.039 1.36541 -0.78704 0
M  V30 4796 C 436.949 2.3387 -0.184896 0
M  V30 4797 C 437.965 1.60927 0.661697 0
M  V30 4798 O 439.141 1.92927 0.57804 0
M  V30 4799 C 436.206 3.40122 0.672145 0
M  V30 4800 C 435.267 4.28867 -0.19267 0
M  V30 4801 C 434.5 5.30045 0.623561 0
M  V30 4802 O 434.723 5.39232 1.8597 0
M  V30 4803 O 433.657 6.01895 0.0247068 0
M  V30 4804 H 437.483 2.87126 -0.989562 0
M  V30 4805 H 435.068 1.38969 -0.548455 0
M  V30 4806 H 436.95 4.05093 1.16094 0
M  V30 4807 H 435.625 2.89169 1.45474 0
M  V30 4808 H 434.532 3.66945 -0.728166 0
M  V30 4809 H 435.865 4.83165 -0.938722 0
M  V30 4810 N 437.518 0.538854 1.48102 0
M  V30 4811 C 438.448 -0.207654 2.32575 0
M  V30 4812 C 439.429 -0.926559 1.4265 0
M  V30 4813 O 440.614 -0.91061 1.71527 0
M  V30 4814 C 437.744 -1.24957 3.24042 0
M  V30 4815 C 436.698 -0.648263 4.23062 0
M  V30 4816 C 436.024 -1.79348 5.03725 0
M  V30 4817 C 437.324 0.385897 5.20872 0
M  V30 4818 H 439.018 0.497534 2.95237 0
M  V30 4819 H 436.564 0.240715 1.41974 0
M  V30 4820 H 438.517 -1.77983 3.81969 0
M  V30 4821 H 437.241 -1.98446 2.59397 0
M  V30 4822 H 435.9 -0.139452 3.66335 0
M  V30 4823 H 435.548 -2.51696 4.35498 0
M  V30 4824 H 435.248 -1.39702 5.70751 0
M  V30 4825 H 436.772 -2.32735 5.64506 0
M  V30 4826 H 438.186 -0.057607 5.73271 0
M  V30 4827 H 436.583 0.700227 5.96001 0
M  V30 4828 H 437.653 1.28848 4.67468 0
M  V30 4829 N 438.996 -1.55193 0.274407 0
M  V30 4830 C 440.244 -1.99187 -0.341902 0
M  V30 4831 C 440.565 -1.16422 -1.56431 0
M  V30 4832 O 439.835 -0.253573 -1.94252 0
M  V30 4833 H 438.415 -0.735721 -0.129317 0
M  V30 4834 H 441.077 -1.91168 0.379578 0
M  V30 4835 H 440.173 -3.05629 -0.632253 0
M  V30 4836 N 440.474 -0.00167713 -1.576 0
M  V30 4837 C 441.721 0.68282 -1.90641 0
M  V30 4838 C 442.049 1.73686 -0.875415 0
M  V30 4839 O 441.304 1.95334 0.119575 0
M  V30 4840 C 441.603 1.36189 -3.30435 0
M  V30 4841 C 441.269 0.440887 -4.48739 0
M  V30 4842 C 439.931 0.187312 -4.80835 0
M  V30 4843 C 442.283 -0.193134 -5.20842 0
M  V30 4844 C 439.611 -0.70855 -5.82406 0
M  V30 4845 C 441.963 -1.07688 -6.23367 0
M  V30 4846 C 440.627 -1.33962 -6.53919 0
M  V30 4847 H 439.897 0.249862 -0.697603 0
M  V30 4848 H 442.544 -0.0575642 -1.91413 0
M  V30 4849 H 440.849 2.17636 -3.25794 0
M  V30 4850 H 442.546 1.89759 -3.5326 0
M  V30 4851 H 439.136 0.648694 -4.23663 0
M  V30 4852 H 443.32 -0.0102445 -4.96299 0
M  V30 4853 H 438.576 -0.920097 -6.04437 0
M  V30 4854 H 442.75 -1.57451 -6.78367 0
M  V30 4855 H 440.377 -2.03549 -7.32442 0
M  V30 4856 N 441.952 1.55251 0.271103 0
M  V30 4857 C 443.177 1.80306 1.02491 0
M  V30 4858 C 443.602 0.575457 1.79081 0
M  V30 4859 O 442.96 -0.474987 1.74967 0
M  V30 4860 C 443.008 3.02832 1.95768 0
M  V30 4861 O 442.112 2.78051 3.04568 0
M  V30 4862 H 441.453 0.595896 0.292923 0
M  V30 4863 H 443.983 2.02397 0.299436 0
M  V30 4864 H 443.993 3.31616 2.37686 0
M  V30 4865 H 442.668 3.9183 1.39434 0
M  V30 4866 H 441.245 2.60369 2.66951 0
M  V30 4867 N 443.43 -0.535701 1.48216 0
M  V30 4868 C 444.377 -1.64083 1.62312 0
M  V30 4869 C 445.347 -1.59448 0.465365 0
M  V30 4870 O 446.532 -1.77959 0.688135 0
M  V30 4871 C 443.672 -3.0236 1.66349 0
M  V30 4872 C 442.785 -3.17273 2.93193 0
M  V30 4873 C 441.92 -4.46075 2.88427 0
M  V30 4874 C 440.959 -4.54496 4.1 0
M  V30 4875 N 440.096 -5.7468 4.03345 0
M  V30 4876 H 444.936 -1.51374 2.5669 0
M  V30 4877 H 442.473 -0.737059 1.27302 0
M  V30 4878 H 444.431 -3.82461 1.66672 0
M  V30 4879 H 443.061 -3.13854 0.754672 0
M  V30 4880 H 442.113 -2.30462 3.02641 0
M  V30 4881 H 443.425 -3.19357 3.83162 0
M  V30 4882 H 442.579 -5.3446 2.87119 0
M  V30 4883 H 441.318 -4.46504 1.96177 0
M  V30 4884 H 440.323 -3.64519 4.11589 0
M  V30 4885 H 441.548 -4.5581 5.03402 0
M  V30 4886 H 439.494 -5.76017 3.13912 0
M  V30 4887 H 439.411 -5.78234 4.87013 0
M  V30 4888 H 440.679 -6.65367 4.06087 0
M  V30 4889 N 444.908 -1.36708 -0.784132 0
M  V30 4890 C 446.154 -1.31426 -1.54451 0
M  V30 4891 C 446.487 0.10476 -1.93917 0
M  V30 4892 O 445.762 1.05934 -1.6312 0
M  V30 4893 C 446.045 -2.24189 -2.818 0
M  V30 4894 C 445.898 -3.74813 -2.48667 0
M  V30 4895 C 447.217 -2.15626 -3.83658 0
M  V30 4896 H 444.336 -0.478739 -0.560337 0
M  V30 4897 H 446.978 -1.67305 -0.900498 0
M  V30 4898 H 445.128 -1.93722 -3.36755 0
M  V30 4899 H 446.8 -4.15823 -1.99722 0
M  V30 4900 H 445.043 -3.93989 -1.81535 0
M  V30 4901 H 445.714 -4.35138 -3.39646 0
M  V30 4902 H 448.19 -2.42456 -3.38163 0
M  V30 4903 H 447.066 -2.82694 -4.70506 0
M  V30 4904 H 447.327 -1.14522 -4.27009 0
M  V30 4905 N 446.386 1.0089 -1.21074 0
M  V30 4906 C 447.633 1.74607 -1.0256 0
M  V30 4907 C 447.961 1.89426 0.44136 0
M  V30 4908 O 447.216 1.42266 1.34384 0
M  V30 4909 C 447.515 3.16335 -1.66334 0
M  V30 4910 C 447.181 3.21474 -3.16173 0
M  V30 4911 C 445.843 3.22583 -3.57062 0
M  V30 4912 C 448.195 3.19025 -4.12156 0
M  V30 4913 C 445.523 3.18925 -4.92446 0
M  V30 4914 C 447.875 3.16909 -5.47496 0
M  V30 4915 C 446.539 3.16326 -5.87787 0
M  V30 4916 H 445.809 0.638933 -0.375294 0
M  V30 4917 H 448.456 1.18274 -1.50611 0
M  V30 4918 H 446.761 3.75876 -1.10566 0
M  V30 4919 H 448.458 3.72083 -1.49516 0
M  V30 4920 H 445.048 3.2135 -2.83605 0
M  V30 4921 H 449.232 3.17332 -3.81595 0
M  V30 4922 H 444.488 3.16809 -5.22917 0
M  V30 4923 H 448.662 3.13968 -6.21609 0
M  V30 4924 H 446.289 3.13246 -6.92662 0
M  V30 4925 N 447.864 1.01787 1.20321 0
M  V30 4926 C 448.796 0.547357 2.22568 0
M  V30 4927 C 449.809 -0.370922 1.58518 0
M  V30 4928 O 450.998 -0.169067 1.77698 0
M  V30 4929 C 448.098 -0.223031 3.38165 0
M  V30 4930 C 447.271 0.697472 4.31803 0
M  V30 4931 C 446.33 -0.025562 5.26194 0
M  V30 4932 O 445.356 0.597367 5.66057 0
M  V30 4933 N 446.558 -1.29999 5.65757 0
M  V30 4934 H 449.323 1.42668 2.63564 0
M  V30 4935 H 446.884 0.895552 1.34876 0
M  V30 4936 H 448.876 -0.716002 3.98316 0
M  V30 4937 H 447.446 -1.00366 2.9605 0
M  V30 4938 H 446.666 1.37073 3.69601 0
M  V30 4939 H 447.954 1.32347 4.91286 0
M  V30 4940 H 447.352 -1.827 5.35385 0
M  V30 4941 H 445.909 -1.73766 6.28211 0
M  V30 4942 N 449.342 -1.36122 0.79427 0
M  V30 4943 C 450.305 -2.28309 0.201889 0
M  V30 4944 C 451.305 -1.49041 -0.603603 0
M  V30 4945 O 452.495 -1.68964 -0.423888 0
M  V30 4946 C 449.627 -3.3321 -0.719978 0
M  V30 4947 H 450.82 -2.82208 1.01481 0
M  V30 4948 H 448.373 -1.45768 0.564037 0
M  V30 4949 H 449.108 -2.84475 -1.55706 0
M  V30 4950 H 448.893 -3.91835 -0.144266 0
M  V30 4951 H 450.383 -4.02044 -1.12916 0
M  V30 4952 N 450.82 -0.546701 -1.47814 0
M  V30 4953 C 451.73 0.21026 -2.33656 0
M  V30 4954 C 452.746 0.922413 -1.47538 0
M  V30 4955 O 453.922 0.893652 -1.80488 0
M  V30 4956 C 450.987 1.23348 -3.24016 0
M  V30 4957 C 450.048 0.529883 -4.26017 0
M  V30 4958 C 449.281 1.50435 -5.12059 0
M  V30 4959 O 449.504 2.73837 -5.00369 0
M  V30 4960 O 448.438 1.03459 -5.92942 0
M  V30 4961 H 452.264 -0.493605 -2.99662 0
M  V30 4962 H 449.849 -0.307427 -1.46203 0
M  V30 4963 H 451.731 1.82438 -3.79861 0
M  V30 4964 H 450.406 1.91945 -2.60651 0
M  V30 4965 H 449.313 -0.101948 -3.73961 0
M  V30 4966 H 450.646 -0.11445 -4.92067 0
M  V30 4967 N 452.299 1.55045 -0.282633 0
M  V30 4968 C 453.247 2.24254 0.617478 0
M  V30 4969 C 454.241 1.24215 1.15183 0
M  V30 4970 O 455.447 1.42123 1.10459 0
M  V30 4971 H 451.822 0.719801 0.217693 0
M  V30 4972 H 453.793 2.98398 0.0110076 0
M  V30 4973 C 452.542 2.98281 1.78672 0
M  V30 4974 H 451.865 3.75053 1.38475 0
M  V30 4975 H 453.305 3.50017 2.393 0
M  V30 4976 C 451.764 2.04184 2.67975 0
M  V30 4977 O 452.294 1.59792 3.6855 0
M  V30 4978 N 450.5 1.70526 2.35307 0
M  V30 4979 H 450.047 2.06821 1.53567 0
M  V30 4980 H 450.005 1.07839 2.95327 0
M  V30 4981 N 453.777 0.010035 1.57597 0
M  V30 4982 C 455.188 -0.531426 1.78977 0
M  V30 4983 C 455.539 -1.73375 0.918454 0
M  V30 4984 O 454.664 -2.16047 0.123635 0
M  V30 4985 C 455.259 -0.97086 3.24592 0
M  V30 4986 C 453.818 -1.45756 3.47033 0
M  V30 4987 C 452.965 -0.413384 2.74201 0
M  V30 4988 H 455.916 0.236166 1.56933 0
M  V30 4989 H 455.937 -1.83633 3.33255 0
M  V30 4990 H 455.449 -0.0955893 3.87982 0
M  V30 4991 H 453.55 -2.35339 2.88871 0
M  V30 4992 H 453.663 -1.4781 4.55729 0
M  V30 4993 H 452.027 -0.877266 2.39115 0
M  V30 4994 H 452.81 0.453092 3.40297 0
M  V30 4995 N 455.255 -1.55392 -0.262866 0
M  V30 4996 C 456.502 -1.76476 -0.993109 0
M  V30 4997 C 456.83 -0.571479 -1.85915 0
M  V30 4998 O 456.085 0.445733 -1.90556 0
M  V30 4999 C 456.384 -3.02889 -1.89718 0
M  V30 5000 C 456.05 -4.34974 -1.18781 0
M  V30 5001 C 454.712 -4.7087 -0.991699 0
M  V30 5002 C 457.064 -5.16695 -0.683798 0
M  V30 5003 C 454.392 -5.86036 -0.279024 0
M  V30 5004 C 456.744 -6.32598 0.0153327 0
M  V30 5005 C 455.408 -6.67127 0.223062 0
M  V30 5006 H 454.678 -0.64577 -0.363404 0
M  V30 5007 H 457.325 -1.89664 -0.264525 0
M  V30 5008 H 455.63 -2.84644 -2.6923 0
M  V30 5009 H 457.327 -3.16399 -2.46359 0
M  V30 5010 H 453.917 -4.06765 -1.35058 0
M  V30 5011 H 458.101 -4.8943 -0.8229 0
M  V30 5012 H 453.357 -6.11306 -0.107456 0
M  V30 5013 H 457.531 -6.95171 0.413584 0
M  V30 5014 H 455.158 -7.56216 0.777265 0
M  V30 5015 N 456.733 0.527833 -1.48498 0
M  V30 5016 C 458.01 1.28905 -1.47115 0
M  V30 5017 C 458.39 2.10297 -0.184007 0
M  V30 5018 O 457.738 2.12728 0.834218 0
M  V30 5019 C 457.948 2.16866 -2.73441 0
M  V30 5020 C 459.296 2.76936 -3.21857 0
M  V30 5021 O 460.32 2.27152 -2.74373 0
M  V30 5022 O 459.179 3.67496 -4.04486 0
M  V30 5023 H 456.273 0.581918 -0.587623 0
M  V30 5024 H 458.819 0.544311 -1.60734 0
M  V30 5025 H 457.591 1.56521 -3.58632 0
M  V30 5026 H 457.214 2.98583 -2.62553 0
M  V30 5027 N 458.211 1.37122 0.776871 0
M  V30 5028 C 459.458 1.32047 1.53524 0
M  V30 5029 C 459.786 -0.0965631 1.9426 0
M  V30 5030 O 459.041 -1.06866 1.63945 0
M  V30 5031 C 459.34 2.20068 2.81611 0
M  V30 5032 C 459.006 3.68423 2.59953 0
M  V30 5033 C 457.668 4.08854 2.53755 0
M  V30 5034 C 460.02 4.62431 2.40431 0
M  V30 5035 C 457.348 5.41417 2.26018 0
M  V30 5036 C 459.7 5.95225 2.14219 0
M  V30 5037 C 458.364 6.34767 2.06462 0
M  V30 5038 H 457.634 0.483196 0.561785 0
M  V30 5039 H 460.281 1.69284 0.895268 0
M  V30 5040 H 458.586 1.75809 3.50141 0
M  V30 5041 H 460.283 2.13458 3.39465 0
M  V30 5042 H 456.873 3.36354 2.65638 0
M  V30 5043 H 461.057 4.32057 2.44213 0
M  V30 5044 H 456.313 5.71022 2.18504 0
M  V30 5045 H 460.487 6.67626 1.98112 0
M  V30 5046 H 458.114 7.37413 1.84733 0
M  V30 5047 N 459.689 -1.00246 1.21608 0
M  V30 5048 C 460.622 -2.08794 0.920892 0
M  V30 5049 C 461.6 -1.62059 -0.132552 0
M  V30 5050 O 462.784 -1.885 -0.0030366 0
M  V30 5051 C 459.911 -3.36525 0.383226 0
M  V30 5052 C 458.957 -4.02172 1.41987 0
M  V30 5053 S 459.79 -4.44256 2.98994 0
M  V30 5054 C 460.946 -5.7517 2.4684 0
M  V30 5055 H 461.179 -2.33511 1.8401 0
M  V30 5056 H 458.712 -1.13562 1.04609 0
M  V30 5057 H 460.67 -4.10423 0.0795871 0
M  V30 5058 H 459.331 -3.09854 -0.514711 0
M  V30 5059 H 458.524 -4.94114 0.993335 0
M  V30 5060 H 458.126 -3.34559 1.67171 0
M  V30 5061 H 460.418 -6.51042 1.87484 0
M  V30 5062 H 461.361 -6.22638 3.37235 0
M  V30 5063 H 461.769 -5.32112 1.88461 0
M  V30 5064 N 461.167 -1.02423 -1.1978 0
M  V30 5065 C 462.077 -0.610919 -2.26506 0
M  V30 5066 C 463.093 0.355152 -1.70337 0
M  V30 5067 O 464.269 0.214195 -2.00258 0
M  V30 5068 C 461.334 0.0365921 -3.46681 0
M  V30 5069 C 460.395 -0.976389 -4.18049 0
M  V30 5070 C 459.628 -0.359683 -5.32487 0
M  V30 5071 O 459.851 0.838601 -5.64202 0
M  V30 5072 O 458.785 -1.08022 -5.92127 0
M  V30 5073 H 462.611 -1.49965 -2.64091 0
M  V30 5074 H 460.196 -0.794156 -1.26545 0
M  V30 5075 H 462.078 0.39786 -4.19518 0
M  V30 5076 H 460.753 0.899398 -3.10954 0
M  V30 5077 H 459.66 -1.38916 -3.47352 0
M  V30 5078 H 460.993 -1.80941 -4.57735 0
M  V30 5079 N 462.645 1.35699 -0.801477 0
M  V30 5080 C 463.593 2.3177 -0.196317 0
M  V30 5081 C 464.587 1.56388 0.651081 0
M  V30 5082 O 465.793 1.71557 0.544815 0
M  V30 5083 H 462.168 0.750669 -0.0447189 0
M  V30 5084 H 464.139 2.8036 -1.02181 0
M  V30 5085 C 462.888 3.41671 0.644702 0
M  V30 5086 H 462.211 3.998 0.0019921 0
M  V30 5087 H 463.651 4.11184 1.0346 0
M  V30 5088 C 462.11 2.84271 1.80808 0
M  V30 5089 O 462.64 2.77408 2.9053 0
M  V30 5090 N 460.846 2.41391 1.61799 0
M  V30 5091 H 460.393 2.47173 0.725493 0
M  V30 5092 H 460.351 2.03334 2.39797 0
M  V30 5093 N 464.123 0.554532 1.47522 0
M  V30 5094 C 465.372 0.0273458 2.01681 0
M  V30 5095 C 465.685 -1.32962 1.43459 0
M  V30 5096 O 466.891 -1.94657 1.89265 0
M  V30 5097 C 465.347 -0.00159057 3.599 0
M  V30 5098 C 464.955 1.35197 4.27113 0
M  V30 5099 C 466.699 -0.476311 4.21819 0
M  V30 5100 C 464.606 1.28229 5.77331 0
M  V30 5101 H 463.536 0.00645269 0.753972 0
M  V30 5102 H 466.187 0.701985 1.69542 0
M  V30 5103 H 464.569 -0.741821 3.8899 0
M  V30 5104 H 465.743 2.1097 4.09668 0
M  V30 5105 H 464.058 1.76441 3.77171 0
M  V30 5106 H 466.655 -0.5468 5.31897 0
M  V30 5107 H 466.998 -1.4877 3.8881 0
M  V30 5108 H 467.531 0.20898 3.97251 0
M  V30 5109 H 464.27 2.26959 6.14955 0
M  V30 5110 H 463.79 0.566314 5.97121 0
M  V30 5111 H 465.469 0.983226 6.39485 0
M  V30 5112 N 465.601 -1.54893 0.290851 0
M  V30 5113 C 466.826 -2.04804 -0.32712 0
M  V30 5114 C 467.251 -1.16721 -1.47506 0
M  V30 5115 O 466.609 -0.169107 -1.8051 0
M  V30 5116 C 466.657 -3.52268 -0.770689 0
M  V30 5117 O 465.761 -3.67236 -1.87647 0
M  V30 5118 H 465.102 -0.660789 -0.0652227 0
M  V30 5119 H 467.632 -2.00036 0.429739 0
M  V30 5120 H 467.642 -3.9393 -1.06223 0
M  V30 5121 H 466.317 -4.15843 0.069096 0
M  V30 5122 H 464.894 -3.37479 -1.58626 0
M  V30 5123 N 467.08 -0.0183926 -1.57589 0
M  V30 5124 C 468.01 0.965596 -2.12599 0
M  V30 5125 C 468.991 1.34641 -1.0395 0
M  V30 5126 O 470.176 1.42693 -1.31729 0
M  V30 5127 C 467.306 2.25149 -2.64434 0
M  V30 5128 C 466.26 2.01175 -3.77773 0
M  V30 5129 C 465.586 3.35937 -4.15994 0
M  V30 5130 C 466.886 1.35953 -5.04296 0
M  V30 5131 H 468.58 0.507504 -2.95067 0
M  V30 5132 H 466.126 0.242671 -1.41941 0
M  V30 5133 H 468.079 2.94357 -3.01549 0
M  V30 5134 H 466.803 2.73105 -1.79112 0
M  V30 5135 H 465.462 1.34388 -3.4108 0
M  V30 5136 H 465.11 3.81631 -3.27669 0
M  V30 5137 H 464.81 3.20705 -4.92364 0
M  V30 5138 H 466.334 4.0643 -4.55683 0
M  V30 5139 H 467.748 1.95144 -5.39065 0
M  V30 5140 H 466.145 1.31152 -5.85593 0
M  V30 5141 H 467.215 0.331071 -4.83768 0
M  V30 5142 N 468.558 1.5553 0.254621 0
M  V30 5143 C 469.468 1.92789 1.33677 0
M  V30 5144 C 470.484 0.827356 1.53071 0
M  V30 5145 O 471.66 1.12807 1.66843 0
M  V30 5146 C 468.725 2.20827 2.67275 0
M  V30 5147 C 467.786 3.4427 2.5647 0
M  V30 5148 C 467.019 3.70961 3.83697 0
M  V30 5149 O 467.242 2.99852 4.85227 0
M  V30 5150 O 466.176 4.64491 3.82794 0
M  V30 5151 H 470.002 2.84945 1.05071 0
M  V30 5152 H 467.587 1.42312 0.454723 0
M  V30 5153 H 469.469 2.40204 3.46237 0
M  V30 5154 H 468.144 1.31851 2.9563 0
M  V30 5155 H 467.051 3.30209 1.75821 0
M  V30 5156 H 468.384 4.33524 2.33062 0
M  V30 5157 N 470.036 -0.519951 1.48776 0
M  V30 5158 C 471.284 -1.2727 1.56993 0
M  V30 5159 C 471.605 -1.9339 0.25004 0
M  V30 5160 O 470.875 -1.81822 -0.729216 0
M  V30 5161 H 469.455 -0.472732 0.578389 0
M  V30 5162 H 472.117 -0.604234 1.85297 0
M  V30 5163 H 471.213 -2.04669 2.3562 0
M  V30 5164 N 471.514 -1.37532 -0.769588 0
M  V30 5165 C 472.461 -1.3347 -1.88293 0
M  V30 5166 C 473.431 -0.199891 -1.64893 0
M  V30 5167 O 474.616 -0.389594 -1.8678 0
M  V30 5168 C 471.756 -1.14968 -3.25387 0
M  V30 5169 C 470.869 -2.37698 -3.60727 0
M  V30 5170 C 470.004 -2.12051 -4.8704 0
M  V30 5171 C 469.043 -3.30636 -5.15117 0
M  V30 5172 N 468.18 -3.04527 -6.3262 0
M  V30 5173 H 473.02 -2.28658 -1.911 0
M  V30 5174 H 470.557 -1.13622 -0.934257 0
M  V30 5175 H 472.515 -1.02261 -4.04473 0
M  V30 5176 H 471.145 -0.234263 -3.21949 0
M  V30 5177 H 470.197 -2.61137 -2.76608 0
M  V30 5178 H 471.509 -3.26131 -3.77413 0
M  V30 5179 H 470.663 -1.96388 -5.74035 0
M  V30 5180 H 469.402 -1.20959 -4.72462 0
M  V30 5181 H 468.407 -3.46836 -4.26597 0
M  V30 5182 H 469.632 -4.22582 -5.31603 0
M  V30 5183 H 467.578 -2.16067 -6.19396 0
M  V30 5184 H 467.495 -3.86503 -6.49732 0
M  V30 5185 H 468.763 -2.92485 -7.22546 0
M  V30 5186 N 472.992 0.995999 -1.22138 0
M  V30 5187 C 474.22 1.77066 -1.07029 0
M  V30 5188 C 474.635 1.8495 0.379357 0
M  V30 5189 O 473.992 1.3174 1.26297 0
M  V30 5190 C 474.043 3.20533 -1.67155 0
M  V30 5191 O 473.764 3.13082 -3.06449 0
M  V30 5192 C 475.265 4.14461 -1.5728 0
M  V30 5193 H 472.485 0.556179 -0.375374 0
M  V30 5194 H 475.029 1.25238 -1.61666 0
M  V30 5195 H 473.184 3.6944 -1.16589 0
M  V30 5196 H 473.598 4.03283 -3.35355 0
M  V30 5197 H 475.072 5.1289 -2.04078 0
M  V30 5198 H 475.549 4.36005 -0.528795 0
M  V30 5199 H 476.155 3.71449 -2.07136 0
M  V30 5200 N 474.47 1.03057 1.19235 0
M  V30 5201 C 475.418 0.606391 2.24557 0
M  V30 5202 C 476.412 -0.361826 1.65491 0
M  V30 5203 O 477.618 -0.23022 1.78522 0
M  V30 5204 H 473.993 0.177838 0.730669 0
M  V30 5205 H 475.964 1.50529 2.5765 0
M  V30 5206 C 474.713 -0.0252127 3.47691 0
M  V30 5207 H 474.036 0.710838 3.9343 0
M  V30 5208 H 475.476 -0.284931 4.23042 0
M  V30 5209 C 473.935 -1.27229 3.11953 0
M  V30 5210 O 474.465 -2.36416 3.24762 0
M  V30 5211 N 472.671 -1.16169 2.6637 0
M  V30 5212 H 472.218 -0.273189 2.56147 0
M  V30 5213 H 472.176 -1.99703 2.42829 0
M  V30 5214 N 475.948 -1.35272 0.808662 0
M  V30 5215 C 477.195 -1.98709 0.390003 0
M  V30 5216 C 477.523 -1.64148 -1.04335 0
M  V30 5217 O 476.778 -0.897797 -1.73891 0
M  V30 5218 C 477.077 -3.53556 0.522798 0
M  V30 5219 C 476.743 -4.0799 1.91977 0
M  V30 5220 C 475.405 -4.22568 2.30195 0
M  V30 5221 C 477.757 -4.37442 2.83361 0
M  V30 5222 C 475.085 -4.63918 3.59162 0
M  V30 5223 C 477.437 -4.80232 4.11776 0
M  V30 5224 C 476.101 -4.93016 4.49991 0
M  V30 5225 H 475.371 -0.727127 0.142712 0
M  V30 5226 H 478.018 -1.6145 1.02985 0
M  V30 5227 H 476.323 -3.91287 -0.200494 0
M  V30 5228 H 478.02 -4.00598 0.179608 0
M  V30 5229 H 474.61 -3.97096 1.61284 0
M  V30 5230 H 478.794 -4.25731 2.55083 0
M  V30 5231 H 474.05 -4.72005 3.88615 0
M  V30 5232 H 478.224 -5.01982 4.82687 0
M  V30 5233 H 475.851 -5.24814 5.49976 0
M  V30 5234 N 477.426 -0.562348 -1.47226 0
M  V30 5235 C 478.673 -0.0402165 -2.0246 0
M  V30 5236 C 479.001 1.31169 -1.43614 0
M  V30 5237 O 478.256 1.86805 -0.5833 0
M  V30 5238 C 478.555 0.0969817 -3.57268 0
M  V30 5239 C 478.221 -1.1847 -4.35058 0
M  V30 5240 C 476.883 -1.53588 -4.56031 0
M  V30 5241 C 479.235 -2.03378 -4.79882 0
M  V30 5242 C 476.563 -2.73452 -5.19077 0
M  V30 5243 C 478.915 -3.2245 -5.44251 0
M  V30 5244 C 477.579 -3.57876 -5.63455 0
M  V30 5245 H 476.849 -0.0147163 -0.740854 0
M  V30 5246 H 479.496 -0.734895 -1.76838 0
M  V30 5247 H 477.801 0.87466 -3.81912 0
M  V30 5248 H 479.498 0.516408 -3.97661 0
M  V30 5249 H 476.088 -0.90126 -4.19017 0
M  V30 5250 H 480.272 -1.77553 -4.63453 0
M  V30 5251 H 475.528 -3.01062 -5.32139 0
M  V30 5252 H 479.702 -3.88526 -5.77945 0
M  V30 5253 H 477.329 -4.50849 -6.12078 0
M  V30 5254 N 478.904 1.54736 -0.299062 0
M  V30 5255 C 479.814 2.27127 0.587413 0
M  V30 5256 C 480.83 1.30575 1.15005 0
M  V30 5257 O 482.006 1.63554 1.17525 0
M  V30 5258 C 479.071 2.99645 1.74395 0
M  V30 5259 C 478.132 4.11731 1.21559 0
M  V30 5260 C 477.365 4.80781 2.317 0
M  V30 5261 O 477.588 4.4918 3.51558 0
M  V30 5262 O 476.522 5.68226 1.98501 0
M  V30 5263 H 480.348 3.037 0.000250109 0
M  V30 5264 H 477.933 1.49256 -0.0655919 0
M  V30 5265 H 479.815 3.45138 2.4178 0
M  V30 5266 H 478.49 2.25969 2.31775 0
M  V30 5267 H 477.397 3.70641 0.507514 0
M  V30 5268 H 478.73 4.87379 0.687233 0
M  V30 5269 N 480.382 0.0267497 1.57577 0
M  V30 5270 C 481.329 -0.955894 2.10075 0
M  V30 5271 C 482.299 -1.32453 1.00226 0
M  V30 5272 O 483.484 -1.41826 1.27632 0
M  V30 5273 C 480.624 -2.2338 2.6305 0
M  V30 5274 C 479.737 -1.92183 3.86898 0
M  V30 5275 C 478.872 -3.14251 4.28275 0
M  V30 5276 C 477.911 -2.78862 5.44888 0
M  V30 5277 N 477.048 -3.93548 5.81433 0
M  V30 5278 H 481.888 -0.501303 2.93753 0
M  V30 5279 H 479.425 -0.235847 1.45197 0
M  V30 5280 H 481.383 -2.98124 2.91853 0
M  V30 5281 H 480.013 -2.6646 1.82205 0
M  V30 5282 H 479.065 -1.07692 3.64838 0
M  V30 5283 H 480.377 -1.62117 4.7172 0
M  V30 5284 H 479.531 -3.97317 4.58502 0
M  V30 5285 H 478.27 -3.47476 3.42215 0
M  V30 5286 H 477.275 -1.94208 5.14357 0
M  V30 5287 H 478.5 -2.46855 6.32645 0
M  V30 5288 H 476.446 -4.2662 4.98328 0
M  V30 5289 H 476.363 -3.67098 6.6089 0
M  V30 5290 H 477.631 -4.77325 6.16264 0
M  V30 5291 N 481.861 -1.55662 -0.24637 0
M  V30 5292 C 483.277 -1.48098 -0.594907 0
M  V30 5293 C 483.477 -0.717044 -1.8831 0
M  V30 5294 O 482.533 -0.246618 -2.51293 0
M  V30 5295 C 483.846 -2.92507 -0.697146 0
M  V30 5296 C 485.394 -3.02881 -0.789436 0
M  V30 5297 C 485.869 -4.48598 -0.923232 0
M  V30 5298 N 487.36 -4.52538 -0.988088 0
M  V30 5299 C 488.095 -5.62536 -1.11089 0
M  V30 5300 N 487.591 -6.82342 -1.19919 0
M  V30 5301 N 489.384 -5.50334 -1.14408 0
M  V30 5302 H 481.535 -2.0377 0.599278 0
M  V30 5303 H 483.798 -0.925145 0.20691 0
M  V30 5304 H 483.504 -3.51242 0.179396 0
M  V30 5305 H 483.378 -3.43024 -1.5689 0
M  V30 5306 H 485.765 -2.44226 -1.65643 0
M  V30 5307 H 485.846 -2.55574 0.107482 0
M  V30 5308 H 485.49 -5.07864 -0.0607927 0
M  V30 5309 H 485.42 -4.93587 -1.8352 0
M  V30 5310 H 487.911 -3.66248 -0.931167 0
M  V30 5311 H 488.224 -7.61924 -1.29197 0
M  V30 5312 H 486.569 -6.85102 -1.16876 0
M  V30 5313 H 489.76 -4.5567 -1.07158 0
M  V30 5314 H 489.933 -6.36096 -1.23634 0
M  V30 5315 N 483.339 0.512053 -1.4905 0
M  V30 5316 C 484.585 1.26874 -1.58212 0
M  V30 5317 C 484.918 1.9241 -0.263073 0
M  V30 5318 O 484.193 1.80181 0.732476 0
M  V30 5319 C 484.476 2.34428 -2.73341 0
M  V30 5320 C 484.329 1.73466 -4.15006 0
M  V30 5321 C 485.648 3.36073 -2.84154 0
M  V30 5322 H 482.767 0.459924 -0.575881 0
M  V30 5323 H 485.409 0.568587 -1.81293 0
M  V30 5324 H 483.559 2.94146 -2.53792 0
M  V30 5325 H 485.231 1.17661 -4.46042 0
M  V30 5326 H 483.474 1.03921 -4.21168 0
M  V30 5327 H 484.145 2.51426 -4.91415 0
M  V30 5328 H 486.621 2.86332 -3.01916 0
M  V30 5329 H 485.497 4.08703 -3.66406 0
M  V30 5330 H 485.758 3.97725 -1.93048 0
M  V30 5331 N 484.817 1.37938 0.762283 0
M  V30 5332 C 486.042 1.37059 1.55659 0
M  V30 5333 C 486.467 -0.0396123 1.88058 0
M  V30 5334 O 485.825 -1.01929 1.49934 0
M  V30 5335 C 485.873 2.22494 2.83776 0
M  V30 5336 O 484.977 1.63607 3.78559 0
M  V30 5337 H 484.318 0.467892 0.47114 0
M  V30 5338 H 486.848 1.81587 0.942725 0
M  V30 5339 H 486.858 2.36045 3.32786 0
M  V30 5340 H 485.533 3.24993 2.59524 0
M  V30 5341 H 484.11 1.5915 3.37233 0
M  V30 5342 N 486.295 -0.989507 1.22664 0
M  V30 5343 C 487.205 -2.11449 1.01619 0
M  V30 5344 C 488.221 -1.73962 -0.036545 0
M  V30 5345 O 489.397 -2.00788 0.156924 0
M  V30 5346 C 486.462 -3.41465 0.600204 0
M  V30 5347 C 485.523 -3.93033 1.72695 0
M  V30 5348 C 484.756 -5.16844 1.33071 0
M  V30 5349 O 484.979 -5.7001 0.210975 0
M  V30 5350 O 483.913 -5.6225 2.14845 0
M  V30 5351 H 487.739 -2.32088 1.9588 0
M  V30 5352 H 485.324 -1.09823 1.01289 0
M  V30 5353 H 487.206 -4.19695 0.37873 0
M  V30 5354 H 485.881 -3.22178 -0.313511 0
M  V30 5355 H 484.788 -3.15961 2.00298 0
M  V30 5356 H 486.121 -4.16758 2.61865 0
M  V30 5357 N 487.773 -1.03688 -1.18687 0
M  V30 5358 C 489.003 -0.756819 -1.92239 0
M  V30 5359 C 489.411 0.689374 -1.76194 0
M  V30 5360 O 488.754 1.48126 -1.08648 0
M  V30 5361 C 488.816 -1.03851 -3.44173 0
M  V30 5362 C 488.48 -2.47785 -3.83994 0
M  V30 5363 C 489.477 -3.4595 -3.88091 0
M  V30 5364 C 487.162 -2.82397 -4.154 0
M  V30 5365 C 489.156 -4.76779 -4.23038 0
M  V30 5366 C 486.843 -4.13433 -4.50018 0
M  V30 5367 C 487.841 -5.10434 -4.53813 0
M  V30 5368 O 487.529 -6.39122 -4.87625 0
M  V30 5369 H 487.261 -0.275678 -0.617234 0
M  V30 5370 H 489.815 -1.38658 -1.51536 0
M  V30 5371 H 488.045 -0.351612 -3.85098 0
M  V30 5372 H 489.734 -0.746846 -3.9897 0
M  V30 5373 H 490.5 -3.20549 -3.63969 0
M  V30 5374 H 486.379 -2.07568 -4.11627 0
M  V30 5375 H 489.923 -5.52488 -4.25914 0
M  V30 5376 H 485.82 -4.38604 -4.736 0
M  V30 5377 H 486.588 -6.43715 -5.05542 0
M  V30 5378 N 489.251 1.34841 -0.815825 0
M  V30 5379 C 490.183 2.28409 -0.190265 0
M  V30 5380 C 491.196 1.50705 0.615771 0
M  V30 5381 O 492.385 1.72822 0.446616 0
M  V30 5382 C 489.485 3.30441 0.752446 0
M  V30 5383 C 488.658 4.37399 -0.00922152 0
M  V30 5384 C 487.717 5.19234 0.853351 0
M  V30 5385 O 486.743 5.68404 0.300919 0
M  V30 5386 N 487.945 5.38248 2.17416 0
M  V30 5387 H 490.71 2.82732 -0.994114 0
M  V30 5388 H 488.271 1.47289 -0.672129 0
M  V30 5389 H 490.263 3.82084 1.33394 0
M  V30 5390 H 488.833 2.76565 1.45707 0
M  V30 5391 H 488.053 3.86567 -0.771979 0
M  V30 5392 H 489.341 5.05992 -0.533807 0
M  V30 5393 H 488.739 4.99961 2.6468 0
M  V30 5394 H 487.296 5.93035 2.70467 0
M  V30 5395 N 490.729 0.570148 1.46925 0
M  V30 5396 C 492.145 0.23087 1.57921 0
M  V30 5397 C 492.345 -1.26676 1.56702 0
M  V30 5398 O 491.401 -2.04774 1.47729 0
M  V30 5399 C 492.714 0.868973 2.8787 0
M  V30 5400 C 494.262 0.841397 3.01479 0
M  V30 5401 C 494.737 1.45881 4.34146 0
M  V30 5402 N 496.228 1.42258 4.40814 0
M  V30 5403 C 496.963 1.8698 5.42057 0
M  V30 5404 N 496.459 2.39618 6.50042 0
M  V30 5405 N 498.252 1.77972 5.33181 0
M  V30 5406 H 490.403 1.54301 1.45962 0
M  V30 5407 H 492.666 0.644224 0.69547 0
M  V30 5408 H 492.372 1.922 2.94537 0
M  V30 5409 H 492.246 0.369682 3.75384 0
M  V30 5410 H 494.633 -0.202973 2.94401 0
M  V30 5411 H 494.714 1.37858 2.15474 0
M  V30 5412 H 494.358 2.50231 4.4198 0
M  V30 5413 H 494.288 0.896958 5.18905 0
M  V30 5414 H 496.779 1.03768 3.63374 0
M  V30 5415 H 497.092 2.71633 7.23488 0
M  V30 5416 H 495.437 2.43636 6.50897 0
M  V30 5417 H 498.628 1.36617 4.4772 0
M  V30 5418 H 498.801 2.13143 6.11943 0
M  V30 5419 N 492.207 -1.54576 0.307264 0
M  V30 5420 C 493.454 -2.00263 -0.300167 0
M  V30 5421 C 493.782 -1.19561 -1.53413 0
M  V30 5422 O 493.037 -0.261487 -1.93945 0
M  V30 5423 C 493.336 -3.50572 -0.695253 0
M  V30 5424 C 493.002 -4.48771 0.437679 0
M  V30 5425 C 491.664 -4.7534 0.748681 0
M  V30 5426 C 494.016 -5.0721 1.19949 0
M  V30 5427 C 491.344 -5.5761 1.8245 0
M  V30 5428 C 493.696 -5.90651 2.26527 0
M  V30 5429 C 492.36 -6.15528 2.58227 0
M  V30 5430 H 491.63 -0.732814 -0.109839 0
M  V30 5431 H 494.277 -1.86664 0.427661 0
M  V30 5432 H 492.582 -3.61814 -1.50326 0
M  V30 5433 H 494.279 -3.83352 -1.17653 0
M  V30 5434 H 490.869 -4.282 0.185187 0
M  V30 5435 H 495.053 -4.86679 0.972474 0
M  V30 5436 H 490.309 -5.75121 2.07476 0
M  V30 5437 H 494.483 -6.34957 2.86011 0
M  V30 5438 H 492.11 -6.79066 3.4172 0
M  V30 5439 N 493.685 -0.035106 -1.57561 0
M  V30 5440 C 494.648 0.929819 -2.09492 0
M  V30 5441 C 495.648 1.25026 -1.01119 0
M  V30 5442 O 496.838 1.18961 -1.27255 0
M  V30 5443 C 493.97 2.24457 -2.56577 0
M  V30 5444 H 495.163 0.479935 -2.96035 0
M  V30 5445 H 492.716 0.213033 -1.54841 0
M  V30 5446 H 493.451 2.74061 -1.73382 0
M  V30 5447 H 493.236 2.02508 -3.35757 0
M  V30 5448 H 494.726 2.93607 -2.96959 0
M  V30 5449 N 495.163 1.55791 0.238111 0
M  V30 5450 C 496.409 1.78297 0.966337 0
M  V30 5451 C 496.742 0.601903 1.84637 0
M  V30 5452 O 496.017 -0.399499 1.90353 0
M  V30 5453 C 496.3 3.10758 1.81939 0
M  V30 5454 C 496.153 4.39283 0.966958 0
M  V30 5455 C 497.472 3.39519 2.80027 0
M  V30 5456 H 494.591 0.648654 0.349882 0
M  V30 5457 H 497.233 1.88525 0.236253 0
M  V30 5458 H 495.383 3.02168 2.44185 0
M  V30 5459 H 497.055 4.59873 0.362514 0
M  V30 5460 H 495.298 4.32948 0.271669 0
M  V30 5461 H 495.969 5.28368 1.59784 0
M  V30 5462 H 498.445 3.48128 2.27917 0
M  V30 5463 H 497.321 4.33402 3.36829 0
M  V30 5464 H 497.582 2.60864 3.56934 0
M  V30 5465 N 496.642 -0.504142 1.49319 0
M  V30 5466 C 497.575 -1.62361 1.60356 0
M  V30 5467 C 498.553 -1.56169 0.45277 0
M  V30 5468 O 499.737 -1.76271 0.667892 0
M  V30 5469 C 496.864 -3.00864 1.55559 0
M  V30 5470 C 495.91 -3.25328 2.75797 0
M  V30 5471 S 496.743 -3.08791 4.37503 0
M  V30 5472 C 497.899 -4.49695 4.35345 0
M  V30 5473 H 498.132 -1.52753 2.55056 0
M  V30 5474 H 495.665 -0.689065 1.38171 0
M  V30 5475 H 497.623 -3.8073 1.53477 0
M  V30 5476 H 496.284 -3.0789 0.621515 0
M  V30 5477 H 495.477 -4.2643 2.68651 0
M  V30 5478 H 495.079 -2.53179 2.75275 0
M  V30 5479 H 497.371 -5.41721 4.06871 0
M  V30 5480 H 498.314 -4.61891 5.36714 0
M  V30 5481 H 498.722 -4.30227 3.65465 0
M  V30 5482 N 498.12 -1.38341 -0.754957 0
M  V30 5483 C 499.083 -1.35262 -1.85032 0
M  V30 5484 C 500.083 -0.253393 -1.58791 0
M  V30 5485 O 501.273 -0.510205 -1.66561 0
M  V30 5486 C 498.405 -1.10544 -3.22479 0
M  V30 5487 H 499.598 -2.32712 -1.8917 0
M  V30 5488 H 497.151 -1.23614 -0.956515 0
M  V30 5489 H 497.886 -0.136952 -3.24011 0
M  V30 5490 H 497.671 -1.90127 -3.4292 0
M  V30 5491 H 499.161 -1.11082 -4.02555 0
M  V30 5492 N 499.598 0.982988 -1.23187 0
M  V30 5493 C 500.508 2.10907 -1.02739 0
M  V30 5494 C 501.524 1.73979 0.0273188 0
M  V30 5495 O 502.7 2.00702 -0.16757 0
M  V30 5496 C 499.765 3.41142 -0.618304 0
M  V30 5497 C 498.826 3.92112 -1.74777 0
M  V30 5498 C 498.059 5.16131 -1.3581 0
M  V30 5499 O 498.282 5.6989 -0.241201 0
M  V30 5500 O 497.216 5.61103 -2.17824 0
M  V30 5501 H 501.042 2.31046 -1.97108 0
M  V30 5502 H 498.627 1.09284 -1.01869 0
M  V30 5503 H 500.509 4.19488 -0.400982 0
M  V30 5504 H 499.184 3.2234 0.296421 0
M  V30 5505 H 498.091 3.14895 -2.0197 0
M  V30 5506 H 499.424 4.15364 -2.64071 0
M  V30 5507 N 501.076 1.04316 1.18135 0
M  V30 5508 C 502.304 0.768117 1.92113 0
M  V30 5509 C 502.719 -0.675057 1.76319 0
M  V30 5510 O 502.076 -1.46038 1.09449 0
M  V30 5511 C 502.127 1.12808 3.43448 0
M  V30 5512 O 501.848 2.5146 3.58747 0
M  V30 5513 C 503.349 0.8779 4.3452 0
M  V30 5514 H 500.569 0.279937 0.609817 0
M  V30 5515 H 503.113 1.39149 1.49859 0
M  V30 5516 H 501.268 0.549623 3.83481 0
M  V30 5517 H 501.682 2.65313 4.52448 0
M  V30 5518 H 503.156 1.17959 5.39249 0
M  V30 5519 H 503.633 -0.187239 4.38801 0
M  V30 5520 H 504.239 1.43977 4.00188 0
M  V30 5521 N 502.554 -1.34406 0.822964 0
M  V30 5522 C 503.782 -2.02508 0.424039 0
M  V30 5523 C 504.197 -1.61975 -0.970022 0
M  V30 5524 O 503.554 -0.825228 -1.62777 0
M  V30 5525 C 503.605 -3.57789 0.516657 0
M  V30 5526 O 503.326 -3.96853 1.85577 0
M  V30 5527 C 504.827 -4.43157 0.112637 0
M  V30 5528 H 502.047 -0.649063 0.170173 0
M  V30 5529 H 504.591 -1.7168 1.11113 0
M  V30 5530 H 502.746 -3.87207 -0.122353 0
M  V30 5531 H 503.16 -4.91538 1.83005 0
M  V30 5532 H 504.634 -5.51527 0.228526 0
M  V30 5533 H 505.111 -4.28939 -0.943837 0
M  V30 5534 H 505.717 -4.19067 0.725449 0
M  V30 5535 N 504.032 -0.577932 -1.46621 0
M  V30 5536 C 505.309 0.00495287 -1.95599 0
M  V30 5537 C 505.689 1.46428 -1.5206 0
M  V30 5538 O 505.037 2.1517 -0.769046 0
M  V30 5539 C 505.247 -0.162114 -3.48623 0
M  V30 5540 C 506.595 -0.0274623 -4.24591 0
M  V30 5541 O 507.619 -0.0907067 -3.56084 0
M  V30 5542 O 506.478 0.1122 -5.46385 0
M  V30 5543 H 503.572 0.0525057 -0.825332 0
M  V30 5544 H 506.118 -0.645914 -1.56927 0
M  V30 5545 H 504.89 -1.17679 -3.73185 0
M  V30 5546 H 504.513 0.525407 -3.94113 0
M  V30 5547 N 505.51 1.54411 -0.315457 0
M  V30 5548 C 506.458 2.25514 0.569771 0
M  V30 5549 C 507.452 1.2663 1.12522 0
M  V30 5550 O 508.658 1.44434 1.07419 0
M  V30 5551 H 505.033 0.724257 0.202376 0
M  V30 5552 H 507.004 2.98354 -0.0522895 0
M  V30 5553 C 505.753 3.02004 1.72305 0
M  V30 5554 H 505.076 3.77906 1.30488 0
M  V30 5555 H 506.516 3.55014 2.31821 0
M  V30 5556 C 504.975 2.09822 2.63583 0
M  V30 5557 O 505.505 1.67574 3.65078 0
M  V30 5558 N 503.711 1.75478 2.31637 0
M  V30 5559 H 503.258 2.10032 1.49145 0
M  V30 5560 H 503.216 1.14079 2.92973 0
M  V30 5561 N 506.988 0.0434614 1.5754 0
M  V30 5562 C 508.234 -0.632971 1.92669 0
M  V30 5563 C 508.567 -1.70947 0.921446 0
M  V30 5564 O 507.842 -1.94426 -0.0537202 0
M  V30 5565 C 508.125 -1.23619 3.38216 0
M  V30 5566 C 507.978 -0.168274 4.49485 0
M  V30 5567 C 509.297 -2.15008 3.84005 0
M  V30 5568 H 506.416 -0.228629 0.700641 0
M  V30 5569 H 509.058 0.103651 1.89717 0
M  V30 5570 H 507.208 -1.864 3.40863 0
M  V30 5571 H 508.88 0.463196 4.58969 0
M  V30 5572 H 507.123 0.504581 4.30855 0
M  V30 5573 H 507.794 -0.630218 5.48391 0
M  V30 5574 H 510.27 -1.62198 3.83185 0
M  V30 5575 H 509.146 -2.54161 4.86511 0
M  V30 5576 H 509.407 -3.04707 3.20322 0
M  V30 5577 N 508.466 -1.55915 -0.229846 0
M  V30 5578 C 509.713 -1.78542 -0.955452 0
M  V30 5579 C 510.041 -0.610785 -1.84661 0
M  V30 5580 O 509.296 0.405213 -1.91459 0
M  V30 5581 C 509.595 -3.06845 -1.8325 0
M  V30 5582 C 509.261 -4.37395 -1.09528 0
M  V30 5583 C 507.923 -4.72868 -0.891598 0
M  V30 5584 C 510.275 -5.18029 -0.574046 0
M  V30 5585 C 507.603 -5.86496 -0.154655 0
M  V30 5586 C 509.955 -6.32423 0.149513 0
M  V30 5587 C 508.619 -6.66504 0.364519 0
M  V30 5588 H 507.889 -0.653333 -0.349625 0
M  V30 5589 H 510.536 -1.90183 -0.224235 0
M  V30 5590 H 508.841 -2.90291 -2.63132 0
M  V30 5591 H 510.538 -3.21553 -2.39592 0
M  V30 5592 H 507.128 -4.09538 -1.26399 0
M  V30 5593 H 511.312 -4.91066 -0.718899 0
M  V30 5594 H 506.568 -6.11396 0.0222356 0
M  V30 5595 H 510.742 -6.94137 0.560947 0
M  V30 5596 H 508.369 -7.54397 0.937495 0
M  V30 5597 N 509.944 0.496216 -1.49584 0
M  V30 5598 C 511.172 1.27394 -1.63029 0
M  V30 5599 C 511.587 1.86344 -0.303569 0
M  V30 5600 O 510.944 1.68057 0.711547 0
M  V30 5601 C 510.995 2.40077 -2.70269 0
M  V30 5602 O 510.716 1.83549 -3.97796 0
M  V30 5603 C 512.217 3.31372 -2.94462 0
M  V30 5604 H 509.437 0.386211 -0.54871 0
M  V30 5605 H 511.981 0.595163 -1.95648 0
M  V30 5606 H 510.136 3.03775 -2.40415 0
M  V30 5607 H 510.55 2.57561 -4.56905 0
M  V30 5608 H 512.024 4.06707 -3.73221 0
M  V30 5609 H 512.501 3.88654 -2.0456 0
M  V30 5610 H 513.107 2.73435 -3.25751 0
M  V30 5611 N 511.423 1.38739 0.74761 0
M  V30 5612 C 512.353 1.39173 1.87492 0
M  V30 5613 C 513.334 0.256794 1.6815 0
M  V30 5614 O 514.519 0.460762 1.88655 0
M  V30 5615 C 511.649 1.22197 3.25093 0
M  V30 5616 C 510.603 2.32957 3.59047 0
M  V30 5617 C 509.929 2.01082 4.95449 0
M  V30 5618 C 511.229 3.75237 3.6331 0
M  V30 5619 H 512.923 2.3351 1.87386 0
M  V30 5620 H 510.469 1.12399 0.900134 0
M  V30 5621 H 512.422 1.21124 4.03617 0
M  V30 5622 H 511.146 0.243241 3.25693 0
M  V30 5623 H 509.805 2.33226 2.82845 0
M  V30 5624 H 509.453 1.01678 4.92616 0
M  V30 5625 H 509.153 2.75267 5.19136 0
M  V30 5626 H 510.677 2.01638 5.76346 0
M  V30 5627 H 512.091 3.76966 4.31937 0
M  V30 5628 H 510.488 4.48677 3.98509 0
M  V30 5629 H 511.558 4.07122 2.634 0
M  V30 5630 N 512.901 -0.976442 1.23707 0
M  V30 5631 C 514.178 -1.69296 0.979699 0
M  V30 5632 C 514.558 -2.0508 -0.500555 0
M  V30 5633 O 513.906 -1.74708 -1.47273 0
M  V30 5634 C 514.116 -2.93143 1.89389 0
M  V30 5635 C 515.464 -3.65572 2.15968 0
M  V30 5636 O 516.488 -3.03184 1.86971 0
M  V30 5637 O 515.347 -4.77859 2.65167 0
M  V30 5638 H 512.441 -0.739708 0.369812 0
M  V30 5639 H 514.987 -1.03131 1.34767 0
M  V30 5640 H 513.759 -2.63327 2.89439 0
M  V30 5641 H 513.382 -3.67044 1.52854 0
M  V30 5642 N 514.379 -1.04941 -1.1758 0
M  V30 5643 C 515.342 -0.652456 -2.19717 0
M  V30 5644 C 516.342 0.294745 -1.58076 0
M  V30 5645 O 517.532 0.0789579 -1.74021 0
M  V30 5646 C 514.664 0.0420712 -3.40874 0
M  V30 5647 H 515.857 -1.55642 -2.5635 0
M  V30 5648 H 513.41 -0.842995 -1.31618 0
M  V30 5649 H 514.145 0.95943 -3.09783 0
M  V30 5650 H 513.93 -0.638844 -3.86861 0
M  V30 5651 H 515.42 0.306 -4.16477 0
M  V30 5652 N 515.857 1.33968 -0.830081 0
M  V30 5653 C 517.134 1.92554 -0.343858 0
M  V30 5654 C 517.514 1.7573 1.16971 0
M  V30 5655 O 516.862 1.14035 1.98011 0
M  V30 5656 C 517.072 3.40147 -0.781073 0
M  V30 5657 C 518.42 4.17299 -0.78402 0
M  V30 5658 O 519.444 3.48762 -0.724112 0
M  V30 5659 O 518.303 5.39631 -0.863739 0
M  V30 5660 H 515.397 0.821469 -0.0954827 0
M  V30 5661 H 517.943 1.42897 -0.915348 0
M  V30 5662 H 516.715 3.46225 -1.82329 0
M  V30 5663 H 516.338 3.97166 -0.18567 0
M  V30 5664 N 517.335 0.585699 1.46312 0
M  V30 5665 C 518.582 0.0724211 2.0237 0
M  V30 5666 C 518.91 -1.28868 1.45683 0
M  V30 5667 O 518.165 -1.85853 0.612945 0
M  V30 5668 C 518.464 -0.0401312 3.57377 0
M  V30 5669 C 518.13 1.25376 4.33119 0
M  V30 5670 C 516.792 1.60824 4.5353 0
M  V30 5671 C 519.144 2.10987 4.76586 0
M  V30 5672 C 516.472 2.81676 5.14661 0
M  V30 5673 C 518.824 3.31068 5.39052 0
M  V30 5674 C 517.488 3.66794 5.5769 0
M  V30 5675 H 516.758 0.0265007 0.740526 0
M  V30 5676 H 519.405 0.762935 1.75646 0
M  V30 5677 H 517.71 -0.813791 3.83255 0
M  V30 5678 H 519.407 -0.453078 3.98432 0
M  V30 5679 H 515.997 0.967808 4.1753 0
M  V30 5680 H 520.181 1.84904 4.60569 0
M  V30 5681 H 515.437 3.0949 5.27282 0
M  V30 5682 H 519.611 3.97672 5.71691 0
M  V30 5683 H 517.238 4.60529 6.04828 0
M  V30 5684 O 518.852 -1.54637 0.465785 0
M  V30 5685 H 519.543 -1.93604 -0.0608748 0
M  V30 END ATOM
M  V30 BEGIN BOND
M  V30 END BOND
M  V30 END CTAB
M  END
$$$$
